WSF.pdb
     RDKit          3D

 32 34  0  0  1  0  0  0  0  0999 V2000
    6.2947  -18.5531   22.5652 N   0  0  0  0  0  0  0  0  0  0  0  0
    7.3055  -17.4688   22.5531 C   0  0  1  0  0  0  0  0  0  0  0  0
    6.6123  -16.1886   22.7439 C   0  0  0  0  0  0  0  0  0  0  0  0
    6.6782  -15.3333   21.5441 C   0  0  0  0  0  0  0  0  0  0  0  0
    6.0801  -15.5688   20.3240 C   0  0  0  0  0  0  0  0  0  0  0  0
    6.3743  -14.5820   19.4642 N   0  0  0  0  0  0  0  0  0  0  0  0
    7.1593  -13.6919   20.0920 C   0  0  0  0  0  0  0  0  0  0  0  0
    7.7559  -12.5032   19.7106 C   0  0  0  0  0  0  0  0  0  0  0  0
    8.5341  -11.7699   20.5833 C   0  0  0  0  0  0  0  0  0  0  0  0
    8.7350  -12.2155   21.8729 C   0  0  0  0  0  0  0  0  0  0  0  0
    8.1386  -13.3987   22.2455 C   0  0  0  0  0  0  0  0  0  0  0  0
    7.3600  -14.1334   21.3740 C   0  0  0  0  0  0  0  0  0  0  0  0
    8.3747  -17.8518   23.4457 C   0  0  0  0  0  0  0  0  0  0  0  0
    8.0726  -18.0984   24.6688 O   0  0  0  0  0  0  0  0  0  0  0  0
   12.4209  -18.0592   22.5360 O   0  0  0  0  0  0  0  0  0  0  0  0
   11.9844  -18.8910   23.5521 C   0  0  0  0  0  0  0  0  0  0  0  0
   10.7495  -18.2899   24.1777 C   0  0  2  0  0  0  0  0  0  0  0  0
    9.7475  -18.0011   23.1576 N   0  0  0  0  0  0  0  0  0  0  0  0
   11.0494  -17.0946   24.9904 C   0  0  0  0  0  0  0  0  0  0  0  0
   11.8964  -16.2360   24.5525 O   0  0  0  0  0  0  0  0  0  0  0  0
   10.4708  -16.8025   26.2401 N   0  0  0  0  0  0  0  0  0  0  0  0
   11.0722  -15.8326   27.1696 C   0  0  1  0  0  0  0  0  0  0  0  0
   11.1289  -14.4727   26.5604 C   0  0  0  0  0  0  0  0  0  0  0  0
    9.7852  -13.9698   26.2005 C   0  0  0  0  0  0  0  0  0  0  0  0
    9.0947  -13.0745   27.0026 C   0  0  0  0  0  0  0  0  0  0  0  0
    7.8679  -12.6268   26.6119 C   0  0  0  0  0  0  0  0  0  0  0  0
    7.2426  -13.0081   25.4442 C   0  0  0  0  0  0  0  0  0  0  0  0
    7.9280  -13.8985   24.6450 C   0  0  0  0  0  0  0  0  0  0  0  0
    9.1798  -14.3647   25.0283 C   0  0  0  0  0  0  0  0  0  0  0  0
   10.2241  -15.8105   28.3749 C   0  0  0  0  0  0  0  0  0  0  0  0
    9.1787  -16.4868   28.5225 O   0  0  0  0  0  0  0  0  0  0  0  0
   10.5534  -14.9938   29.4763 O   0  0  0  0  0  0  0  0  0  0  0  0
  2  1  1  1
  2 13  1  0
  2  3  1  0
  3  4  1  0
  4  5  2  0
  5  6  1  0
  7  6  1  0
  8  7  2  0
  9  8  1  0
 10 11  1  0
 10  9  2  0
 11 12  2  0
 12  4  1  0
 12  7  1  0
 13 14  2  0
 16 15  1  0
 17 16  1  6
 18 13  1  0
 18 17  1  0
 19 20  2  0
 19 17  1  0
 21 19  1  0
 22 23  1  6
 22 21  1  0
 23 24  1  0
 24 29  1  0
 25 24  2  0
 26 25  1  0
 26 27  2  0
 27 28  1  0
 29 28  2  0
 30 22  1  0
 30 32  1  0
 31 30  2  0
M  END
$$$$
