GIE.pdb
     RDKit          3D

 22 21  0  0  1  0  0  0  0  0999 V2000
   18.6976  -12.6833  -18.4470 N   0  0  0  0  0  0  0  0  0  0  0  0
   19.6664  -11.6529  -18.7180 C   0  0  0  0  0  0  0  0  0  0  0  0
   20.0905  -11.0481  -17.4136 C   0  0  0  0  0  0  0  0  0  0  0  0
   19.1787  -10.6261  -16.6704 O   0  0  0  0  0  0  0  0  0  0  0  0
   23.3856  -13.4819  -16.2794 C   0  0  0  0  0  0  0  0  0  0  0  0
   22.9356  -12.5295  -15.1862 C   0  0  0  0  0  0  0  0  0  0  0  0
   23.2934  -11.0884  -15.5538 C   0  0  2  0  0  0  0  0  0  0  0  0
   24.0368  -10.4981  -14.3690 C   0  0  0  0  0  0  0  0  0  0  0  0
   22.0264  -10.3888  -15.9095 C   0  0  2  0  0  0  0  0  0  0  0  0
   21.4727  -10.9906  -17.1043 N   0  0  0  0  0  0  0  0  0  0  0  0
   22.0841   -8.9320  -16.0208 C   0  0  0  0  0  0  0  0  0  0  0  0
   22.7986   -8.4435  -16.9341 O   0  0  0  0  0  0  0  0  0  0  0  0
   21.3940   -8.0387  -15.1778 N   0  0  0  0  0  0  0  0  0  0  0  0
   21.5292   -6.5830  -15.2524 C   0  0  1  0  0  0  0  0  0  0  0  0
   20.2032   -6.0462  -15.6618 C   0  0  0  0  0  0  0  0  0  0  0  0
   20.0320   -4.5675  -15.6283 C   0  0  0  0  0  0  0  0  0  0  0  0
   18.6644   -4.1786  -15.9804 C   0  0  0  0  0  0  0  0  0  0  0  0
   17.7908   -5.0148  -16.2694 O   0  0  0  0  0  0  0  0  0  0  0  0
   21.9417   -6.0005  -13.9351 C   0  0  0  0  0  0  0  0  0  0  0  0
   22.3988   -4.8339  -13.8463 O   0  0  0  0  0  0  0  0  0  0  0  0
   18.3393   -2.8064  -15.9886 O   0  0  0  0  0  0  0  0  0  0  0  0
   21.8506   -6.7015  -12.7434 O   0  0  0  0  0  0  0  0  0  0  0  0
  2  3  1  0
  2  1  1  0
  3 10  1  0
  4  3  2  0
  6  5  1  0
  7  6  1  0
  7  8  1  1
  9  7  1  0
  9 11  1  0
  9 10  1  6
 11 13  1  0
 11 12  2  0
 13 14  1  0
 14 19  1  0
 14 15  1  1
 16 15  1  0
 17 21  1  0
 17 16  1  0
 18 17  2  0
 19 22  1  0
 20 19  2  0
M  END
$$$$
