GIE.pdb
     RDKit          3D

 22 21  0  0  1  0  0  0  0  0999 V2000
   20.2070  -33.3168   -5.6825 N   0  0  0  0  0  0  0  0  0  0  0  0
   21.2831  -32.5821   -6.2958 C   0  0  0  0  0  0  0  0  0  0  0  0
   22.5719  -33.2785   -5.9781 C   0  0  0  0  0  0  0  0  0  0  0  0
   22.5244  -34.1716   -5.1052 O   0  0  0  0  0  0  0  0  0  0  0  0
   25.0411  -31.9184   -9.4926 C   0  0  0  0  0  0  0  0  0  0  0  0
   25.5476  -33.1641   -8.7882 C   0  0  0  0  0  0  0  0  0  0  0  0
   26.0319  -32.8201   -7.3786 C   0  0  2  0  0  0  0  0  0  0  0  0
   27.4567  -33.3307   -7.2602 C   0  0  0  0  0  0  0  0  0  0  0  0
   25.0686  -33.4229   -6.4142 C   0  0  2  0  0  0  0  0  0  0  0  0
   23.7463  -32.8922   -6.6715 N   0  0  0  0  0  0  0  0  0  0  0  0
   25.4130  -33.3387   -4.9956 C   0  0  0  0  0  0  0  0  0  0  0  0
   25.1992  -32.2478   -4.4061 O   0  0  0  0  0  0  0  0  0  0  0  0
   25.9653  -34.3945   -4.2438 N   0  0  0  0  0  0  0  0  0  0  0  0
   26.2866  -34.2957   -2.8192 C   0  0  1  0  0  0  0  0  0  0  0  0
   25.0720  -34.7198   -2.0717 C   0  0  0  0  0  0  0  0  0  0  0  0
   25.2062  -34.8811   -0.5976 C   0  0  0  0  0  0  0  0  0  0  0  0
   23.9506  -35.3297    0.0087 C   0  0  0  0  0  0  0  0  0  0  0  0
   22.9164  -35.5031   -0.6594 O   0  0  0  0  0  0  0  0  0  0  0  0
   27.4509  -35.1659   -2.4560 C   0  0  0  0  0  0  0  0  0  0  0  0
   27.8175  -36.1151   -3.1926 O   0  0  0  0  0  0  0  0  0  0  0  0
   23.9258  -35.5697    1.3981 O   0  0  0  0  0  0  0  0  0  0  0  0
   28.1892  -34.9860   -1.2974 O   0  0  0  0  0  0  0  0  0  0  0  0
  2  3  1  0
  2  1  1  0
  3 10  1  0
  4  3  2  0
  6  5  1  0
  7  6  1  0
  7  8  1  1
  9  7  1  0
  9 11  1  0
  9 10  1  1
 11 13  1  0
 11 12  2  0
 13 14  1  0
 14 19  1  0
 14 15  1  1
 16 15  1  0
 17 21  1  0
 17 16  1  0
 18 17  2  0
 19 22  1  0
 20 19  2  0
M  END
$$$$
