GIE.pdb
     RDKit          3D

 22 21  0  0  1  0  0  0  0  0999 V2000
   16.4100  -12.0743  -11.9186 N   0  0  0  0  0  0  0  0  0  0  0  0
   16.7629  -11.2978  -10.7584 C   0  0  0  0  0  0  0  0  0  0  0  0
   16.1037   -9.9561  -10.8692 C   0  0  0  0  0  0  0  0  0  0  0  0
   15.8539   -9.5497  -12.0244 O   0  0  0  0  0  0  0  0  0  0  0  0
   13.1936   -9.9351   -7.7161 C   0  0  0  0  0  0  0  0  0  0  0  0
   13.0929   -8.5618   -8.3554 C   0  0  0  0  0  0  0  0  0  0  0  0
   14.4430   -7.8455   -8.2958 C   0  0  2  0  0  0  0  0  0  0  0  0
   14.1697   -6.4149   -7.8673 C   0  0  0  0  0  0  0  0  0  0  0  0
   15.0846   -7.9865   -9.6337 C   0  0  2  0  0  0  0  0  0  0  0  0
   15.8075   -9.2401   -9.6823 N   0  0  0  0  0  0  0  0  0  0  0  0
   15.9137   -6.8719  -10.0903 C   0  0  0  0  0  0  0  0  0  0  0  0
   17.0235   -6.6986   -9.5233 O   0  0  0  0  0  0  0  0  0  0  0  0
   15.5566   -5.9810  -11.1216 N   0  0  0  0  0  0  0  0  0  0  0  0
   16.4377   -4.9259  -11.6247 C   0  0  1  0  0  0  0  0  0  0  0  0
   16.7528   -5.2639  -13.0391 C   0  0  0  0  0  0  0  0  0  0  0  0
   17.5775   -4.2860  -13.8011 C   0  0  0  0  0  0  0  0  0  0  0  0
   17.7558   -4.7056  -15.1930 C   0  0  0  0  0  0  0  0  0  0  0  0
   17.1807   -5.7022  -15.6642 O   0  0  0  0  0  0  0  0  0  0  0  0
   15.7853   -3.5796  -11.5447 C   0  0  0  0  0  0  0  0  0  0  0  0
   14.5449   -3.4404  -11.6855 O   0  0  0  0  0  0  0  0  0  0  0  0
   18.6113   -3.9457  -16.0174 O   0  0  0  0  0  0  0  0  0  0  0  0
   16.4977   -2.4133  -11.3162 O   0  0  0  0  0  0  0  0  0  0  0  0
  2  3  1  0
  2  1  1  0
  3 10  1  0
  4  3  2  0
  6  5  1  0
  7  6  1  0
  7  8  1  6
  9  7  1  0
  9 11  1  0
  9 10  1  1
 11 13  1  0
 11 12  2  0
 13 14  1  0
 14 19  1  0
 14 15  1  6
 16 15  1  0
 17 21  1  0
 17 16  1  0
 18 17  2  0
 19 22  1  0
 20 19  2  0
M  END
$$$$
