GIE.pdb
     RDKit          3D

 22 21  0  0  1  0  0  0  0  0999 V2000
   21.7985  -13.3767  -19.0152 N   0  0  0  0  0  0  0  0  0  0  0  0
   22.3965  -12.0842  -19.2290 C   0  0  0  0  0  0  0  0  0  0  0  0
   22.3894  -11.3392  -17.9283 C   0  0  0  0  0  0  0  0  0  0  0  0
   21.3287  -11.3765  -17.2684 O   0  0  0  0  0  0  0  0  0  0  0  0
   27.4860  -10.2858  -16.0243 C   0  0  0  0  0  0  0  0  0  0  0  0
   26.1318   -9.9072  -16.5966 C   0  0  0  0  0  0  0  0  0  0  0  0
   25.0120  -10.3431  -15.6501 C   0  0  2  0  0  0  0  0  0  0  0  0
   25.1780  -11.8347  -15.4210 C   0  0  0  0  0  0  0  0  0  0  0  0
   23.7180   -9.9457  -16.2737 C   0  0  2  0  0  0  0  0  0  0  0  0
   23.5618  -10.6494  -17.5294 N   0  0  0  0  0  0  0  0  0  0  0  0
   23.4709   -8.5128  -16.4283 C   0  0  0  0  0  0  0  0  0  0  0  0
   23.9472   -7.9440  -17.4446 O   0  0  0  0  0  0  0  0  0  0  0  0
   22.7353   -7.7267  -15.5196 N   0  0  0  0  0  0  0  0  0  0  0  0
   22.5051   -6.2911  -15.6887 C   0  0  1  0  0  0  0  0  0  0  0  0
   21.1743   -6.1402  -16.3370 C   0  0  0  0  0  0  0  0  0  0  0  0
   20.7176   -4.7537  -16.6304 C   0  0  0  0  0  0  0  0  0  0  0  0
   19.4023   -4.7481  -17.2748 C   0  0  0  0  0  0  0  0  0  0  0  0
   18.7830   -5.7964  -17.5271 O   0  0  0  0  0  0  0  0  0  0  0  0
   22.5280   -5.5714  -14.3749 C   0  0  0  0  0  0  0  0  0  0  0  0
   22.3582   -6.1796  -13.2889 O   0  0  0  0  0  0  0  0  0  0  0  0
   18.8287   -3.5058  -17.6160 O   0  0  0  0  0  0  0  0  0  0  0  0
   22.7323   -4.2049  -14.2715 O   0  0  0  0  0  0  0  0  0  0  0  0
  2  3  1  0
  2  1  1  0
  3 10  1  0
  4  3  2  0
  6  5  1  0
  7  6  1  0
  7  8  1  6
  9  7  1  0
  9 11  1  0
  9 10  1  6
 11 13  1  0
 11 12  2  0
 13 14  1  0
 14 19  1  0
 14 15  1  1
 16 15  1  0
 17 21  1  0
 17 16  1  0
 18 17  2  0
 19 22  1  0
 20 19  2  0
M  END
$$$$
