GIE.pdb
     RDKit          3D

 22 21  0  0  1  0  0  0  0  0999 V2000
   21.1052  -11.4744  -20.3303 N   0  0  0  0  0  0  0  0  0  0  0  0
   21.8905  -10.3524  -19.8849 C   0  0  0  0  0  0  0  0  0  0  0  0
   21.5252  -10.0550  -18.4619 C   0  0  0  0  0  0  0  0  0  0  0  0
   20.3144   -9.8549  -18.2257 O   0  0  0  0  0  0  0  0  0  0  0  0
   23.6854  -13.0261  -15.3239 C   0  0  0  0  0  0  0  0  0  0  0  0
   22.5826  -11.9938  -15.4746 C   0  0  0  0  0  0  0  0  0  0  0  0
   23.1325  -10.5869  -15.2344 C   0  0  2  0  0  0  0  0  0  0  0  0
   23.0250  -10.3150  -13.7446 C   0  0  0  0  0  0  0  0  0  0  0  0
   22.3603   -9.6501  -16.0990 C   0  0  2  0  0  0  0  0  0  0  0  0
   22.5526  -10.0185  -17.4860 N   0  0  0  0  0  0  0  0  0  0  0  0
   22.5828   -8.2203  -15.8886 C   0  0  0  0  0  0  0  0  0  0  0  0
   23.6876   -7.7410  -16.2533 O   0  0  0  0  0  0  0  0  0  0  0  0
   21.6456   -7.3432  -15.3082 N   0  0  0  0  0  0  0  0  0  0  0  0
   21.9187   -5.9328  -15.0272 C   0  0  1  0  0  0  0  0  0  0  0  0
   20.8164   -5.1475  -15.6454 C   0  0  0  0  0  0  0  0  0  0  0  0
   20.8537   -3.6701  -15.4646 C   0  0  0  0  0  0  0  0  0  0  0  0
   19.6802   -3.0277  -16.0607 C   0  0  0  0  0  0  0  0  0  0  0  0
   19.4024   -1.8331  -15.8559 O   0  0  0  0  0  0  0  0  0  0  0  0
   21.9834   -5.6676  -13.5541 C   0  0  0  0  0  0  0  0  0  0  0  0
   21.4130   -6.4192  -12.7249 O   0  0  0  0  0  0  0  0  0  0  0  0
   18.8442   -3.8001  -16.8933 O   0  0  0  0  0  0  0  0  0  0  0  0
   22.6651   -4.5882  -13.0154 O   0  0  0  0  0  0  0  0  0  0  0  0
  2  3  1  0
  2  1  1  0
  3 10  1  0
  4  3  2  0
  6  5  1  0
  7  6  1  0
  7  8  1  1
  9  7  1  0
  9 11  1  0
  9 10  1  6
 11 13  1  0
 11 12  2  0
 13 14  1  0
 14 19  1  0
 14 15  1  1
 16 15  1  0
 17 21  1  0
 17 16  1  0
 18 17  2  0
 19 22  1  0
 20 19  2  0
M  END
$$$$
