GIE.pdb
     RDKit          3D

 22 21  0  0  1  0  0  0  0  0999 V2000
   21.6268  -13.6264  -18.2568 N   0  0  0  0  0  0  0  0  0  0  0  0
   21.8601  -12.2724  -18.6880 C   0  0  0  0  0  0  0  0  0  0  0  0
   22.1957  -11.4443  -17.4844 C   0  0  0  0  0  0  0  0  0  0  0  0
   21.3318  -11.3927  -16.5828 O   0  0  0  0  0  0  0  0  0  0  0  0
   27.1187  -11.7382  -15.6599 C   0  0  0  0  0  0  0  0  0  0  0  0
   25.6248  -11.4954  -15.7779 C   0  0  0  0  0  0  0  0  0  0  0  0
   25.3504  -10.0470  -16.1859 C   0  0  2  0  0  0  0  0  0  0  0  0
   25.9472   -9.1599  -15.1081 C   0  0  0  0  0  0  0  0  0  0  0  0
   23.8783   -9.9043  -16.3699 C   0  0  2  0  0  0  0  0  0  0  0  0
   23.4476  -10.7810  -17.4387 N   0  0  0  0  0  0  0  0  0  0  0  0
   23.3626   -8.5479  -16.5490 C   0  0  0  0  0  0  0  0  0  0  0  0
   23.5424   -7.9970  -17.6659 O   0  0  0  0  0  0  0  0  0  0  0  0
   22.6772   -7.8168  -15.5586 N   0  0  0  0  0  0  0  0  0  0  0  0
   22.1830   -6.4527  -15.7522 C   0  0  1  0  0  0  0  0  0  0  0  0
   20.7170   -6.5531  -15.9862 C   0  0  0  0  0  0  0  0  0  0  0  0
   19.9695   -5.2765  -16.1551 C   0  0  0  0  0  0  0  0  0  0  0  0
   18.5329   -5.5141  -16.3136 C   0  0  0  0  0  0  0  0  0  0  0  0
   18.0617   -6.0891  -17.3103 O   0  0  0  0  0  0  0  0  0  0  0  0
   22.4612   -5.5919  -14.5579 C   0  0  0  0  0  0  0  0  0  0  0  0
   22.6110   -6.0851  -13.4124 O   0  0  0  0  0  0  0  0  0  0  0  0
   17.6643   -5.0711  -15.2948 O   0  0  0  0  0  0  0  0  0  0  0  0
   22.5673   -4.2125  -14.6358 O   0  0  0  0  0  0  0  0  0  0  0  0
  2  3  1  0
  2  1  1  0
  3 10  1  0
  4  3  2  0
  6  5  1  0
  7  6  1  0
  7  8  1  1
  9  7  1  0
  9 11  1  0
  9 10  1  6
 11 13  1  0
 11 12  2  0
 13 14  1  0
 14 19  1  0
 14 15  1  1
 16 15  1  0
 17 21  1  0
 17 16  1  0
 18 17  2  0
 19 22  1  0
 20 19  2  0
M  END
$$$$
