GIE.pdb
     RDKit          3D

 22 21  0  0  1  0  0  0  0  0999 V2000
   16.6491  -12.2709  -14.9818 N   0  0  0  0  0  0  0  0  0  0  0  0
   17.2286  -11.7801  -13.7582 C   0  0  0  0  0  0  0  0  0  0  0  0
   16.2960  -10.7665  -13.1668 C   0  0  0  0  0  0  0  0  0  0  0  0
   15.9384   -9.8319  -13.9155 O   0  0  0  0  0  0  0  0  0  0  0  0
   13.5980  -12.9003  -11.2017 C   0  0  0  0  0  0  0  0  0  0  0  0
   13.1418  -11.4791  -10.9246 C   0  0  0  0  0  0  0  0  0  0  0  0
   14.2045  -10.7243  -10.1242 C   0  0  2  0  0  0  0  0  0  0  0  0
   13.4707   -9.8523   -9.1212 C   0  0  0  0  0  0  0  0  0  0  0  0
   15.0540   -9.9804  -11.0970 C   0  0  2  0  0  0  0  0  0  0  0  0
   15.8817  -10.9228  -11.8202 N   0  0  0  0  0  0  0  0  0  0  0  0
   15.8435   -8.8681  -10.5701 C   0  0  0  0  0  0  0  0  0  0  0  0
   16.7941   -9.1429   -9.7929 O   0  0  0  0  0  0  0  0  0  0  0  0
   15.6146   -7.5117  -10.8742 N   0  0  0  0  0  0  0  0  0  0  0  0
   16.4129   -6.4116  -10.3309 C   0  0  1  0  0  0  0  0  0  0  0  0
   16.2486   -5.2594  -11.2579 C   0  0  0  0  0  0  0  0  0  0  0  0
   16.9609   -4.0002  -10.9056 C   0  0  0  0  0  0  0  0  0  0  0  0
   16.7349   -2.9581  -11.9098 C   0  0  0  0  0  0  0  0  0  0  0  0
   16.0085   -3.1400  -12.9024 O   0  0  0  0  0  0  0  0  0  0  0  0
   15.9662   -6.0365   -8.9510 C   0  0  0  0  0  0  0  0  0  0  0  0
   14.7817   -6.2141   -8.5722 O   0  0  0  0  0  0  0  0  0  0  0  0
   17.3680   -1.7102  -11.7343 O   0  0  0  0  0  0  0  0  0  0  0  0
   16.8175   -5.4735   -8.0139 O   0  0  0  0  0  0  0  0  0  0  0  0
  2  3  1  0
  2  1  1  0
  3 10  1  0
  4  3  2  0
  6  5  1  0
  7  6  1  0
  7  8  1  1
  9  7  1  0
  9 11  1  0
  9 10  1  1
 11 13  1  0
 11 12  2  0
 13 14  1  0
 14 19  1  0
 14 15  1  6
 16 15  1  0
 17 21  1  0
 17 16  1  0
 18 17  2  0
 19 22  1  0
 20 19  2  0
M  END
$$$$
