GSM.pdb
     RDKit          3D

 19 18  0  0  1  0  0  0  0  0999 V2000
   18.8154  -21.9144  -14.4856 N   0  0  0  0  0  0  0  0  0  0  0  0
   19.9548  -21.1325  -14.8383 C   0  0  0  0  0  0  0  0  0  0  0  0
   21.2307  -21.6794  -14.3654 C   0  0  0  0  0  0  0  0  0  0  0  0
   21.3369  -21.8567  -13.1048 O   0  0  0  0  0  0  0  0  0  0  0  0
   25.0250  -22.1150  -16.4743 O   0  0  0  0  0  0  0  0  0  0  0  0
   24.4877  -23.0753  -15.6408 C   0  0  0  0  0  0  0  0  0  0  0  0
   23.5385  -22.4734  -14.6072 C   0  0  2  0  0  0  0  0  0  0  0  0
   22.3242  -22.0136  -15.2075 N   0  0  0  0  0  0  0  0  0  0  0  0
   24.2913  -21.4042  -13.9243 C   0  0  0  0  0  0  0  0  0  0  0  0
   24.2516  -20.2104  -14.2947 O   0  0  0  0  0  0  0  0  0  0  0  0
   24.8579  -20.7914   -8.1921 C   0  0  0  0  0  0  0  0  0  0  0  0
   26.3353  -19.8045   -8.5597 S   0  0  0  0  0  0  0  0  0  0  0  0
   27.2369  -20.5270   -9.9692 C   0  0  0  0  0  0  0  0  0  0  0  0
   26.3028  -21.3950  -10.7648 C   0  0  0  0  0  0  0  0  0  0  0  0
   25.9452  -20.8266  -12.0896 C   0  0  2  0  0  0  0  0  0  0  0  0
   25.0874  -21.7541  -12.8062 N   0  0  0  0  0  0  0  0  0  0  0  0
   27.0954  -20.4452  -12.9424 C   0  0  0  0  0  0  0  0  0  0  0  0
   27.4742  -19.1162  -13.0055 O   0  0  0  0  0  0  0  0  0  0  0  0
   27.7734  -21.2484  -13.6289 O   0  0  0  0  0  0  0  0  0  0  0  0
  1  2  1  0
  3  2  1  0
  3  4  2  0
  5  6  1  0
  7  6  1  6
  7  8  1  0
  8  3  1  0
  9  7  1  0
 10  9  2  0
 11 12  1  0
 13 14  1  0
 13 12  1  0
 15 14  1  1
 15 16  1  0
 15 17  1  0
 16  9  1  0
 17 19  2  0
 17 18  1  0
M  END
$$$$
