GSM.pdb
     RDKit          3D

 19 18  0  0  1  0  0  0  0  0999 V2000
   28.5317  -26.4618  -16.3764 N   0  0  0  0  0  0  0  0  0  0  0  0
   28.6250  -25.2604  -17.1393 C   0  0  0  0  0  0  0  0  0  0  0  0
   28.0378  -24.0854  -16.4872 C   0  0  0  0  0  0  0  0  0  0  0  0
   27.2364  -24.3176  -15.5199 O   0  0  0  0  0  0  0  0  0  0  0  0
   28.4059  -20.0877  -17.8040 O   0  0  0  0  0  0  0  0  0  0  0  0
   28.2410  -20.3275  -16.4546 C   0  0  0  0  0  0  0  0  0  0  0  0
   27.6061  -21.6900  -16.1864 C   0  0  2  0  0  0  0  0  0  0  0  0
   28.3031  -22.7414  -16.8609 N   0  0  0  0  0  0  0  0  0  0  0  0
   26.1918  -21.5765  -16.5907 C   0  0  0  0  0  0  0  0  0  0  0  0
   25.7872  -21.9087  -17.7264 O   0  0  0  0  0  0  0  0  0  0  0  0
   20.9873  -23.6847  -13.5062 C   0  0  0  0  0  0  0  0  0  0  0  0
   20.6559  -21.9040  -13.6109 S   0  0  0  0  0  0  0  0  0  0  0  0
   21.5535  -21.1814  -15.0229 C   0  0  0  0  0  0  0  0  0  0  0  0
   23.0328  -21.3024  -14.7864 C   0  0  0  0  0  0  0  0  0  0  0  0
   23.8585  -20.8333  -15.9285 C   0  0  2  0  0  0  0  0  0  0  0  0
   25.2638  -21.0702  -15.6479 N   0  0  0  0  0  0  0  0  0  0  0  0
   23.6550  -19.4167  -16.3126 C   0  0  0  0  0  0  0  0  0  0  0  0
   22.7915  -19.1192  -17.3517 O   0  0  0  0  0  0  0  0  0  0  0  0
   24.2140  -18.4386  -15.7587 O   0  0  0  0  0  0  0  0  0  0  0  0
  1  2  1  0
  3  2  1  0
  3  4  2  0
  5  6  1  0
  7  6  1  6
  7  8  1  0
  8  3  1  0
  9  7  1  0
 10  9  2  0
 11 12  1  0
 13 14  1  0
 13 12  1  0
 15 14  1  1
 15 16  1  0
 15 17  1  0
 16  9  1  0
 17 19  2  0
 17 18  1  0
M  END
$$$$
