GSM.pdb
     RDKit          3D

 19 18  0  0  1  0  0  0  0  0999 V2000
   28.2166  -23.1579  -16.0467 N   0  0  0  0  0  0  0  0  0  0  0  0
   26.8900  -22.8428  -15.6285 C   0  0  0  0  0  0  0  0  0  0  0  0
   26.8193  -21.8888  -14.5168 C   0  0  0  0  0  0  0  0  0  0  0  0
   27.9355  -21.5191  -14.0177 O   0  0  0  0  0  0  0  0  0  0  0  0
   23.2921  -20.1464  -12.9889 O   0  0  0  0  0  0  0  0  0  0  0  0
   24.4925  -19.4689  -12.9140 C   0  0  0  0  0  0  0  0  0  0  0  0
   25.6889  -20.4176  -12.9130 C   0  0  2  0  0  0  0  0  0  0  0  0
   25.6125  -21.3678  -13.9795 N   0  0  0  0  0  0  0  0  0  0  0  0
   25.7221  -21.0434  -11.5773 C   0  0  0  0  0  0  0  0  0  0  0  0
   25.2551  -22.1819  -11.3552 O   0  0  0  0  0  0  0  0  0  0  0  0
   28.3362  -19.4692   -4.2057 C   0  0  0  0  0  0  0  0  0  0  0  0
   28.2477  -19.0276   -5.9633 S   0  0  0  0  0  0  0  0  0  0  0  0
   27.1298  -20.1687   -6.8406 C   0  0  0  0  0  0  0  0  0  0  0  0
   27.1618  -19.8631   -8.3119 C   0  0  0  0  0  0  0  0  0  0  0  0
   26.2655  -20.7296   -9.1194 C   0  0  2  0  0  0  0  0  0  0  0  0
   26.3084  -20.3175  -10.5115 N   0  0  0  0  0  0  0  0  0  0  0  0
   24.8594  -20.7867   -8.6556 C   0  0  0  0  0  0  0  0  0  0  0  0
   24.5107  -21.7001   -7.6769 O   0  0  0  0  0  0  0  0  0  0  0  0
   23.9343  -20.0556   -9.0868 O   0  0  0  0  0  0  0  0  0  0  0  0
  1  2  1  0
  3  2  1  0
  3  4  2  0
  5  6  1  0
  7  6  1  1
  7  8  1  0
  8  3  1  0
  9  7  1  0
 10  9  2  0
 11 12  1  0
 13 14  1  0
 13 12  1  0
 15 14  1  1
 15 16  1  0
 15 17  1  0
 16  9  1  0
 17 19  2  0
 17 18  1  0
M  END
$$$$
