GSM.pdb
     RDKit          3D

 19 18  0  0  1  0  0  0  0  0999 V2000
   26.8936  -25.5733  -16.1540 N   0  0  0  0  0  0  0  0  0  0  0  0
   26.7733  -24.1719  -16.3901 C   0  0  0  0  0  0  0  0  0  0  0  0
   25.7813  -23.5012  -15.5434 C   0  0  0  0  0  0  0  0  0  0  0  0
   24.9659  -24.2606  -14.9187 O   0  0  0  0  0  0  0  0  0  0  0  0
   24.9337  -19.3601  -15.4287 O   0  0  0  0  0  0  0  0  0  0  0  0
   24.8752  -20.0777  -14.2509 C   0  0  0  0  0  0  0  0  0  0  0  0
   24.6854  -21.5726  -14.4974 C   0  0  2  0  0  0  0  0  0  0  0  0
   25.6796  -22.0938  -15.3841 N   0  0  0  0  0  0  0  0  0  0  0  0
   23.3096  -21.7391  -15.0033 C   0  0  0  0  0  0  0  0  0  0  0  0
   23.0403  -21.7728  -16.2240 O   0  0  0  0  0  0  0  0  0  0  0  0
   19.4895  -25.1149  -11.4213 C   0  0  0  0  0  0  0  0  0  0  0  0
   18.1354  -24.3631  -12.3664 S   0  0  0  0  0  0  0  0  0  0  0  0
   18.8066  -23.3227  -13.7038 C   0  0  0  0  0  0  0  0  0  0  0  0
   20.2401  -22.9873  -13.4011 C   0  0  0  0  0  0  0  0  0  0  0  0
   20.8692  -22.0978  -14.4106 C   0  0  2  0  0  0  0  0  0  0  0  0
   22.2596  -21.8649  -14.0609 N   0  0  0  0  0  0  0  0  0  0  0  0
   20.1816  -20.8028  -14.6246 C   0  0  0  0  0  0  0  0  0  0  0  0
   19.1219  -20.7428  -15.5119 O   0  0  0  0  0  0  0  0  0  0  0  0
   20.4872  -19.7281  -14.0521 O   0  0  0  0  0  0  0  0  0  0  0  0
  1  2  1  0
  3  2  1  0
  3  4  2  0
  5  6  1  0
  7  6  1  6
  7  8  1  0
  8  3  1  0
  9  7  1  0
 10  9  2  0
 11 12  1  0
 13 14  1  0
 13 12  1  0
 15 14  1  1
 15 16  1  0
 15 17  1  0
 16  9  1  0
 17 19  2  0
 17 18  1  0
M  END
$$$$
