GSM.pdb
     RDKit          3D

 19 18  0  0  1  0  0  0  0  0999 V2000
   11.9154  -12.9302    3.1387 N   0  0  0  0  0  0  0  0  0  0  0  0
   12.1405  -13.0469    4.5422 C   0  0  0  0  0  0  0  0  0  0  0  0
   13.4761  -13.5360    4.8996 C   0  0  0  0  0  0  0  0  0  0  0  0
   14.0068  -14.3712    4.0917 O   0  0  0  0  0  0  0  0  0  0  0  0
   17.5876  -13.2175    7.3921 O   0  0  0  0  0  0  0  0  0  0  0  0
   16.2319  -12.9575    7.4032 C   0  0  0  0  0  0  0  0  0  0  0  0
   15.4978  -13.6859    6.2798 C   0  0  2  0  0  0  0  0  0  0  0  0
   14.1922  -13.1436    6.0614 N   0  0  0  0  0  0  0  0  0  0  0  0
   15.4803  -15.1134    6.6517 C   0  0  0  0  0  0  0  0  0  0  0  0
   14.5948  -15.6080    7.3832 O   0  0  0  0  0  0  0  0  0  0  0  0
   16.9377  -22.1603    3.7499 C   0  0  0  0  0  0  0  0  0  0  0  0
   17.0648  -20.3545    3.6272 S   0  0  0  0  0  0  0  0  0  0  0  0
   16.7631  -19.5930    5.2553 C   0  0  0  0  0  0  0  0  0  0  0  0
   16.7969  -18.0966    5.1183 C   0  0  0  0  0  0  0  0  0  0  0  0
   16.5985  -17.3768    6.4022 C   0  0  2  0  0  0  0  0  0  0  0  0
   16.5115  -15.9480    6.1553 N   0  0  0  0  0  0  0  0  0  0  0  0
   17.6218  -17.6456    7.4396 C   0  0  0  0  0  0  0  0  0  0  0  0
   17.6225  -18.8710    8.0817 O   0  0  0  0  0  0  0  0  0  0  0  0
   18.5122  -16.8340    7.7925 O   0  0  0  0  0  0  0  0  0  0  0  0
  1  2  1  0
  3  2  1  0
  3  4  2  0
  5  6  1  0
  7  6  1  1
  7  8  1  0
  8  3  1  0
  9  7  1  0
 10  9  2  0
 11 12  1  0
 13 14  1  0
 13 12  1  0
 15 14  1  6
 15 16  1  0
 15 17  1  0
 16  9  1  0
 17 19  2  0
 17 18  1  0
M  END
$$$$
