GSM.pdb
     RDKit          3D

 19 18  0  0  1  0  0  0  0  0999 V2000
   19.4715  -14.1622  -16.6223 N   0  0  0  0  0  0  0  0  0  0  0  0
   18.5270  -13.1323  -16.9077 C   0  0  0  0  0  0  0  0  0  0  0  0
   19.0982  -11.7818  -16.9359 C   0  0  0  0  0  0  0  0  0  0  0  0
   20.2702  -11.6743  -17.4327 O   0  0  0  0  0  0  0  0  0  0  0  0
   17.7473   -8.2965  -14.8899 O   0  0  0  0  0  0  0  0  0  0  0  0
   18.1716   -8.1990  -16.1998 C   0  0  0  0  0  0  0  0  0  0  0  0
   19.0902   -9.3533  -16.5939 C   0  0  2  0  0  0  0  0  0  0  0  0
   18.4393  -10.6195  -16.4549 N   0  0  0  0  0  0  0  0  0  0  0  0
   20.2997   -9.2259  -15.7589 C   0  0  0  0  0  0  0  0  0  0  0  0
   20.5897  -10.0492  -14.8634 O   0  0  0  0  0  0  0  0  0  0  0  0
   27.2455  -10.7129  -15.0665 C   0  0  0  0  0  0  0  0  0  0  0  0
   25.5578  -10.7149  -15.7327 S   0  0  0  0  0  0  0  0  0  0  0  0
   24.7194   -9.1501  -15.3203 C   0  0  0  0  0  0  0  0  0  0  0  0
   23.2886   -9.2176  -15.7754 C   0  0  0  0  0  0  0  0  0  0  0  0
   22.5000   -8.0039  -15.4419 C   0  0  2  0  0  0  0  0  0  0  0  0
   21.1597   -8.1241  -15.9886 N   0  0  0  0  0  0  0  0  0  0  0  0
   23.1050   -6.7218  -15.8730 C   0  0  0  0  0  0  0  0  0  0  0  0
   22.8303   -6.2413  -17.1408 O   0  0  0  0  0  0  0  0  0  0  0  0
   23.8646   -6.0161  -15.1650 O   0  0  0  0  0  0  0  0  0  0  0  0
  1  2  1  0
  3  2  1  0
  3  4  2  0
  5  6  1  0
  7  6  1  1
  7  8  1  0
  8  3  1  0
  9  7  1  0
 10  9  2  0
 11 12  1  0
 13 14  1  0
 13 12  1  0
 15 14  1  6
 15 16  1  0
 15 17  1  0
 16  9  1  0
 17 19  2  0
 17 18  1  0
M  END
$$$$
