RFM.pdb
     RDKit          3D

 31 31  0  0  1  0  0  0  0  0999 V2000
   27.2425  -29.7261  -17.0088 N   0  0  0  0  0  0  0  0  0  0  0  0
   26.0503  -28.9301  -16.9784 C   0  0  0  0  0  0  0  0  0  0  0  0
   24.9931  -29.4004  -16.4119 N   0  0  0  0  0  0  0  0  0  0  0  0
   26.0506  -27.6385  -17.5701 N   0  0  0  0  0  0  0  0  0  0  0  0
   27.2270  -27.0429  -18.1415 C   0  0  0  0  0  0  0  0  0  0  0  0
   28.2405  -26.7732  -17.0658 C   0  0  0  0  0  0  0  0  0  0  0  0
   27.9809  -25.4402  -16.3854 C   0  0  0  0  0  0  0  0  0  0  0  0
   28.4000  -24.2655  -17.2221 C   0  0  2  0  0  0  0  0  0  0  0  0
   29.7880  -24.3672  -17.6398 N   0  0  0  0  0  0  0  0  0  0  0  0
   28.1617  -23.0171  -16.4500 C   0  0  0  0  0  0  0  0  0  0  0  0
   28.8202  -22.8011  -15.4009 O   0  0  0  0  0  0  0  0  0  0  0  0
   24.1160  -28.8696  -16.4557 N   0  0  0  0  0  0  0  0  0  0  0  0
   27.2110  -22.0412  -16.8485 C   0  0  2  0  0  0  0  0  0  0  0  0
   27.0829  -20.8227  -16.0936 C   0  0  0  0  0  0  0  0  0  0  0  0
   26.7291  -19.6443  -16.9592 C   0  0  0  0  0  0  0  0  0  0  0  0
   26.5036  -18.4012  -16.2446 C   0  0  0  0  0  0  0  0  0  0  0  0
   25.2388  -17.9330  -16.0145 C   0  0  0  0  0  0  0  0  0  0  0  0
   25.0153  -16.7305  -15.3299 C   0  0  0  0  0  0  0  0  0  0  0  0
   26.0755  -16.0099  -14.8827 C   0  0  0  0  0  0  0  0  0  0  0  0
   27.3534  -16.4507  -15.0966 C   0  0  0  0  0  0  0  0  0  0  0  0
   27.5650  -17.6556  -15.7830 C   0  0  0  0  0  0  0  0  0  0  0  0
   26.1688  -21.0486  -14.9592 O   0  0  0  0  0  0  0  0  0  0  0  0
   25.0860  -21.7091  -15.1361 C   0  0  0  0  0  0  0  0  0  0  0  0
   24.1108  -21.8499   -7.7861 S   0  0  0  0  0  0  0  0  0  0  0  0
   25.2981  -21.7581   -9.1533 C   0  0  0  0  0  0  0  0  0  0  0  0
   24.9332  -20.3002  -10.1586 C   0  0  0  0  0  0  0  0  0  0  0  0
   25.8837  -20.1222  -11.2978 C   0  0  2  0  0  0  0  0  0  0  0  0
   25.4094  -20.7932  -12.5796 N   0  0  0  0  0  0  0  0  0  0  0  0
   26.3809  -20.5872  -13.6359 C   0  0  0  0  0  0  0  0  0  0  0  0
   24.0349  -20.4468  -12.9445 O   0  0  0  0  0  0  0  0  0  0  0  0
   23.8911  -19.3423  -13.5753 O   0  0  0  0  0  0  0  0  0  0  0  0
  1  2  1  0
  2  3  2  0
  4  2  1  0
  4  5  1  0
  6  5  1  0
  7  6  1  0
  8 10  1  0
  8  7  1  0
  8  9  1  1
 10 12  1  0
 11 10  2  0
 12 13  1  0
 14 15  1  0
 13 14  1  6
 15 20  2  0
 16 17  2  0
 16 15  1  0
 17 18  1  0
 18 19  2  0
 20 19  1  0
 21 22  2  0
 21 13  1  0
 24 25  1  0
 24 23  1  0
 25 26  1  0
 27 26  1  1
 27 28  1  0
 27 29  1  0
 28 21  1  0
 29 30  2  0
 29 31  1  0
M  END
$$$$
