RFM.pdb
     RDKit          3D

 31 31  0  0  1  0  0  0  0  0999 V2000
   28.0924  -15.5818  -21.0749 N   0  0  0  0  0  0  0  0  0  0  0  0
   28.2949  -14.1732  -20.8990 C   0  0  0  0  0  0  0  0  0  0  0  0
   29.3833  -13.6346  -21.3294 N   0  0  0  0  0  0  0  0  0  0  0  0
   27.2968  -13.3932  -20.2559 N   0  0  0  0  0  0  0  0  0  0  0  0
   25.9338  -13.8284  -20.1208 C   0  0  0  0  0  0  0  0  0  0  0  0
   25.0800  -13.1769  -21.1715 C   0  0  0  0  0  0  0  0  0  0  0  0
   24.6056  -11.8051  -20.7238 C   0  0  0  0  0  0  0  0  0  0  0  0
   23.4265  -11.8686  -19.7957 C   0  0  2  0  0  0  0  0  0  0  0  0
   22.2213  -12.3017  -20.4821 N   0  0  0  0  0  0  0  0  0  0  0  0
   23.2371  -10.5336  -19.1687 C   0  0  0  0  0  0  0  0  0  0  0  0
   22.6501   -9.6247  -19.8094 O   0  0  0  0  0  0  0  0  0  0  0  0
   29.5231  -12.6233  -21.2267 N   0  0  0  0  0  0  0  0  0  0  0  0
   23.6942  -10.2320  -17.8591 C   0  0  2  0  0  0  0  0  0  0  0  0
   23.5101   -8.9070  -17.3286 C   0  0  0  0  0  0  0  0  0  0  0  0
   23.3748   -8.9008  -15.8304 C   0  0  0  0  0  0  0  0  0  0  0  0
   23.1180   -7.5997  -15.2407 C   0  0  0  0  0  0  0  0  0  0  0  0
   21.9592   -6.9192  -15.4972 C   0  0  0  0  0  0  0  0  0  0  0  0
   21.7084   -5.6600  -14.9349 C   0  0  0  0  0  0  0  0  0  0  0  0
   22.6341   -5.0984  -14.1158 C   0  0  0  0  0  0  0  0  0  0  0  0
   23.8036   -5.7531  -13.8390 C   0  0  0  0  0  0  0  0  0  0  0  0
   24.0437   -7.0128  -14.4074 C   0  0  0  0  0  0  0  0  0  0  0  0
   24.5665   -8.0229  -17.8541 O   0  0  0  0  0  0  0  0  0  0  0  0
   25.7099   -8.5107  -18.1615 C   0  0  0  0  0  0  0  0  0  0  0  0
   28.7106   -5.1859  -23.0010 S   0  0  0  0  0  0  0  0  0  0  0  0
   27.4252   -6.2391  -22.2757 C   0  0  0  0  0  0  0  0  0  0  0  0
   27.0420   -5.6458  -20.6112 C   0  0  0  0  0  0  0  0  0  0  0  0
   25.9845   -6.4535  -19.9312 C   0  0  1  0  0  0  0  0  0  0  0  0
   25.4985   -5.8252  -18.6322 N   0  0  0  0  0  0  0  0  0  0  0  0
   24.4339   -6.6271  -18.0615 C   0  0  0  0  0  0  0  0  0  0  0  0
   25.1848   -4.4009  -18.7556 O   0  0  0  0  0  0  0  0  0  0  0  0
   25.9255   -3.6097  -18.0745 O   0  0  0  0  0  0  0  0  0  0  0  0
  1  2  1  0
  2  3  2  0
  4  2  1  0
  4  5  1  0
  6  5  1  0
  7  6  1  0
  8 10  1  0
  8  7  1  0
  8  9  1  6
 10 12  1  0
 11 10  2  0
 12 13  1  0
 14 15  1  0
 13 14  1  1
 15 20  2  0
 16 17  2  0
 16 15  1  0
 17 18  1  0
 18 19  2  0
 20 19  1  0
 21 22  2  0
 21 13  1  0
 24 25  1  0
 24 23  1  0
 25 26  1  0
 27 26  1  1
 27 28  1  0
 27 29  1  0
 28 21  1  0
 29 30  2  0
 29 31  1  0
M  END
$$$$
