RFM.pdb
     RDKit          3D

 31 31  0  0  1  0  0  0  0  0999 V2000
   28.8795  -26.6220  -17.1320 N   0  0  0  0  0  0  0  0  0  0  0  0
   27.5661  -27.1234  -17.4143 C   0  0  0  0  0  0  0  0  0  0  0  0
   27.3219  -28.3778  -17.2504 N   0  0  0  0  0  0  0  0  0  0  0  0
   26.5553  -26.2342  -17.8683 N   0  0  0  0  0  0  0  0  0  0  0  0
   26.7437  -24.8114  -17.9411 C   0  0  0  0  0  0  0  0  0  0  0  0
   26.7609  -24.2241  -16.5583 C   0  0  0  0  0  0  0  0  0  0  0  0
   25.3604  -23.8600  -16.0965 C   0  0  0  0  0  0  0  0  0  0  0  0
   25.1302  -24.1526  -14.6415 C   0  0  2  0  0  0  0  0  0  0  0  0
   24.2587  -25.2998  -14.4522 N   0  0  0  0  0  0  0  0  0  0  0  0
   24.5690  -22.9389  -13.9910 C   0  0  0  0  0  0  0  0  0  0  0  0
   23.3277  -22.8482  -13.8124 O   0  0  0  0  0  0  0  0  0  0  0  0
   26.3763  -28.7367  -17.4236 N   0  0  0  0  0  0  0  0  0  0  0  0
   25.3820  -21.8603  -13.5540 C   0  0  1  0  0  0  0  0  0  0  0  0
   24.7671  -20.6936  -12.9781 C   0  0  0  0  0  0  0  0  0  0  0  0
   25.7050  -19.9324  -12.0814 C   0  0  0  0  0  0  0  0  0  0  0  0
   25.7366  -20.3803  -10.7012 C   0  0  0  0  0  0  0  0  0  0  0  0
   26.5820  -21.3770  -10.2966 C   0  0  0  0  0  0  0  0  0  0  0  0
   26.6129  -21.8173   -8.9662 C   0  0  0  0  0  0  0  0  0  0  0  0
   25.7864  -21.2443   -8.0541 C   0  0  0  0  0  0  0  0  0  0  0  0
   24.9289  -20.2449   -8.4266 C   0  0  0  0  0  0  0  0  0  0  0  0
   24.9067  -19.8124   -9.7608 C   0  0  0  0  0  0  0  0  0  0  0  0
   24.1534  -19.8892  -14.0505 O   0  0  0  0  0  0  0  0  0  0  0  0
   24.8453  -19.5650  -15.0781 C   0  0  0  0  0  0  0  0  0  0  0  0
   24.4835  -21.0577  -18.7229 S   0  0  0  0  0  0  0  0  0  0  0  0
   22.7064  -20.8821  -19.0358 C   0  0  0  0  0  0  0  0  0  0  0  0
   21.9622  -19.9145  -17.7018 C   0  0  0  0  0  0  0  0  0  0  0  0
   22.6705  -20.0765  -16.3961 C   0  0  2  0  0  0  0  0  0  0  0  0
   22.0665  -19.2323  -15.2822 N   0  0  0  0  0  0  0  0  0  0  0  0
   22.8158  -19.4207  -14.0553 C   0  0  0  0  0  0  0  0  0  0  0  0
   20.6197  -19.4030  -15.1410 O   0  0  0  0  0  0  0  0  0  0  0  0
   19.9289  -19.1660  -16.1923 O   0  0  0  0  0  0  0  0  0  0  0  0
  1  2  1  0
  2  3  2  0
  4  2  1  0
  4  5  1  0
  6  5  1  0
  7  6  1  0
  8 10  1  0
  8  7  1  0
  8  9  1  6
 10 12  1  0
 11 10  2  0
 12 13  1  0
 14 15  1  0
 13 14  1  6
 15 20  2  0
 16 17  2  0
 16 15  1  0
 17 18  1  0
 18 19  2  0
 20 19  1  0
 21 22  2  0
 21 13  1  0
 24 25  1  0
 24 23  1  0
 25 26  1  0
 27 26  1  6
 27 28  1  0
 27 29  1  0
 28 21  1  0
 29 30  2  0
 29 31  1  0
M  END
$$$$
