RFM.pdb
     RDKit          3D

 31 31  0  0  1  0  0  0  0  0999 V2000
   25.0583  -24.6103  -15.0687 N   0  0  0  0  0  0  0  0  0  0  0  0
   23.7092  -24.3935  -15.5035 C   0  0  0  0  0  0  0  0  0  0  0  0
   22.9788  -25.4066  -15.8197 N   0  0  0  0  0  0  0  0  0  0  0  0
   23.1976  -23.0703  -15.5787 N   0  0  0  0  0  0  0  0  0  0  0  0
   23.6667  -22.0039  -14.7374 C   0  0  0  0  0  0  0  0  0  0  0  0
   23.7733  -22.4797  -13.3163 C   0  0  0  0  0  0  0  0  0  0  0  0
   23.9812  -21.3180  -12.3600 C   0  0  0  0  0  0  0  0  0  0  0  0
   25.4299  -20.9726  -12.1662 C   0  0  2  0  0  0  0  0  0  0  0  0
   26.2973  -21.8005  -12.9868 N   0  0  0  0  0  0  0  0  0  0  0  0
   25.7664  -21.1071  -10.7240 C   0  0  0  0  0  0  0  0  0  0  0  0
   25.4116  -22.1380  -10.0975 O   0  0  0  0  0  0  0  0  0  0  0  0
   22.0278  -25.2547  -16.1739 N   0  0  0  0  0  0  0  0  0  0  0  0
   26.4820  -20.1108  -10.0095 C   0  0  1  0  0  0  0  0  0  0  0  0
   26.8109  -20.3260   -8.6251 C   0  0  0  0  0  0  0  0  0  0  0  0
   27.8718  -19.3802   -8.1322 C   0  0  0  0  0  0  0  0  0  0  0  0
   28.2223  -19.5242   -6.7311 C   0  0  0  0  0  0  0  0  0  0  0  0
   27.8367  -18.5960   -5.8029 C   0  0  0  0  0  0  0  0  0  0  0  0
   28.1770  -18.7271   -4.4495 C   0  0  0  0  0  0  0  0  0  0  0  0
   28.9063  -19.7987   -4.0454 C   0  0  0  0  0  0  0  0  0  0  0  0
   29.3078  -20.7450   -4.9490 C   0  0  0  0  0  0  0  0  0  0  0  0
   28.9613  -20.6033   -6.3008 C   0  0  0  0  0  0  0  0  0  0  0  0
   25.5714  -20.3294   -7.8268 O   0  0  0  0  0  0  0  0  0  0  0  0
   24.7112  -19.3938   -7.9832 C   0  0  0  0  0  0  0  0  0  0  0  0
   20.1026  -23.0967   -7.6193 S   0  0  0  0  0  0  0  0  0  0  0  0
   20.5387  -23.3147   -5.8730 C   0  0  0  0  0  0  0  0  0  0  0  0
   21.8258  -22.1244   -5.4303 C   0  0  0  0  0  0  0  0  0  0  0  0
   23.0153  -22.1862   -6.3327 C   0  0  1  0  0  0  0  0  0  0  0  0
   24.0822  -21.1577   -5.9828 N   0  0  0  0  0  0  0  0  0  0  0  0
   25.2243  -21.3090   -6.8631 C   0  0  0  0  0  0  0  0  0  0  0  0
   24.4154  -21.1255   -4.5580 O   0  0  0  0  0  0  0  0  0  0  0  0
   25.4381  -21.8136   -4.2128 O   0  0  0  0  0  0  0  0  0  0  0  0
  1  2  1  0
  2  3  2  0
  4  2  1  0
  4  5  1  0
  6  5  1  0
  7  6  1  0
  8 10  1  0
  8  7  1  0
  8  9  1  6
 10 12  1  0
 11 10  2  0
 12 13  1  0
 14 15  1  0
 13 14  1  1
 15 20  2  0
 16 17  2  0
 16 15  1  0
 17 18  1  0
 18 19  2  0
 20 19  1  0
 21 22  2  0
 21 13  1  0
 24 25  1  0
 24 23  1  0
 25 26  1  0
 27 26  1  6
 27 28  1  0
 27 29  1  0
 28 21  1  0
 29 30  2  0
 29 31  1  0
M  END
$$$$
