RFM.pdb
     RDKit          3D

 31 31  0  0  1  0  0  0  0  0999 V2000
   24.2980  -23.4315  -15.8822 N   0  0  0  0  0  0  0  0  0  0  0  0
   23.4610  -22.3773  -16.3764 C   0  0  0  0  0  0  0  0  0  0  0  0
   22.3515  -22.6749  -16.9598 N   0  0  0  0  0  0  0  0  0  0  0  0
   23.8640  -21.0244  -16.2163 N   0  0  0  0  0  0  0  0  0  0  0  0
   25.0403  -20.6426  -15.4843 C   0  0  0  0  0  0  0  0  0  0  0  0
   24.7129  -20.4979  -14.0252 C   0  0  0  0  0  0  0  0  0  0  0  0
   25.8957  -19.9483  -13.2466 C   0  0  0  0  0  0  0  0  0  0  0  0
   26.7710  -21.0266  -12.6750 C   0  0  2  0  0  0  0  0  0  0  0  0
   26.4635  -22.3290  -13.2411 N   0  0  0  0  0  0  0  0  0  0  0  0
   26.6184  -21.0346  -11.1958 C   0  0  0  0  0  0  0  0  0  0  0  0
   25.7696  -21.7944  -10.6635 O   0  0  0  0  0  0  0  0  0  0  0  0
   21.8226  -21.9424  -17.4463 N   0  0  0  0  0  0  0  0  0  0  0  0
   27.3992  -20.2121  -10.3420 C   0  0  2  0  0  0  0  0  0  0  0  0
   27.3030  -20.3736   -8.9153 C   0  0  0  0  0  0  0  0  0  0  0  0
   28.3907  -19.6405   -8.1787 C   0  0  0  0  0  0  0  0  0  0  0  0
   28.3400  -19.7546   -6.7327 C   0  0  0  0  0  0  0  0  0  0  0  0
   28.7084  -20.9089   -6.0974 C   0  0  0  0  0  0  0  0  0  0  0  0
   28.6561  -21.0265   -4.7016 C   0  0  0  0  0  0  0  0  0  0  0  0
   28.2308  -19.9728   -3.9584 C   0  0  0  0  0  0  0  0  0  0  0  0
   27.8553  -18.8041   -4.5633 C   0  0  0  0  0  0  0  0  0  0  0  0
   27.9117  -18.6979   -5.9608 C   0  0  0  0  0  0  0  0  0  0  0  0
   25.9341  -20.0408   -8.4805 O   0  0  0  0  0  0  0  0  0  0  0  0
   25.3587  -18.9918   -8.9371 C   0  0  0  0  0  0  0  0  0  0  0  0
   21.8885  -21.5398  -11.4267 S   0  0  0  0  0  0  0  0  0  0  0  0
   20.7108  -20.8450  -10.2361 C   0  0  0  0  0  0  0  0  0  0  0  0
   21.5499  -20.5830   -8.6561 C   0  0  0  0  0  0  0  0  0  0  0  0
   23.0360  -20.7047   -8.7555 C   0  0  1  0  0  0  0  0  0  0  0  0
   23.7338  -20.5971   -7.4065 N   0  0  0  0  0  0  0  0  0  0  0  0
   25.1601  -20.8011   -7.5685 C   0  0  0  0  0  0  0  0  0  0  0  0
   23.1184  -21.4207   -6.3648 O   0  0  0  0  0  0  0  0  0  0  0  0
   22.1376  -20.8837   -5.7417 O   0  0  0  0  0  0  0  0  0  0  0  0
  1  2  1  0
  2  3  2  0
  4  2  1  0
  4  5  1  0
  6  5  1  0
  7  6  1  0
  8 10  1  0
  8  7  1  0
  8  9  1  6
 10 12  1  0
 11 10  2  0
 12 13  1  0
 14 15  1  0
 13 14  1  6
 15 20  2  0
 16 17  2  0
 16 15  1  0
 17 18  1  0
 18 19  2  0
 20 19  1  0
 21 22  2  0
 21 13  1  0
 24 25  1  0
 24 23  1  0
 25 26  1  0
 27 26  1  6
 27 28  1  0
 27 29  1  0
 28 21  1  0
 29 30  2  0
 29 31  1  0
M  END
$$$$
