RFM.pdb
     RDKit          3D

 31 31  0  0  1  0  0  0  0  0999 V2000
   23.8118  -18.9961  -22.3406 N   0  0  0  0  0  0  0  0  0  0  0  0
   22.4456  -18.9330  -21.9097 C   0  0  0  0  0  0  0  0  0  0  0  0
   21.5554  -19.6234  -22.5348 N   0  0  0  0  0  0  0  0  0  0  0  0
   22.0931  -18.1141  -20.8036 N   0  0  0  0  0  0  0  0  0  0  0  0
   23.0659  -17.4153  -20.0095 C   0  0  0  0  0  0  0  0  0  0  0  0
   23.9981  -18.3969  -19.3580 C   0  0  0  0  0  0  0  0  0  0  0  0
   23.3558  -19.0449  -18.1436 C   0  0  0  0  0  0  0  0  0  0  0  0
   24.3281  -19.8452  -17.3252 C   0  0  2  0  0  0  0  0  0  0  0  0
   24.8413  -20.9883  -18.0609 N   0  0  0  0  0  0  0  0  0  0  0  0
   23.6592  -20.2724  -16.0677 C   0  0  0  0  0  0  0  0  0  0  0  0
   23.0967  -21.3957  -16.0146 O   0  0  0  0  0  0  0  0  0  0  0  0
   20.5747  -19.5739  -22.2370 N   0  0  0  0  0  0  0  0  0  0  0  0
   23.6259  -19.4589  -14.9048 C   0  0  1  0  0  0  0  0  0  0  0  0
   23.0350  -19.9694  -13.6960 C   0  0  0  0  0  0  0  0  0  0  0  0
   23.6250  -19.3471  -12.4600 C   0  0  0  0  0  0  0  0  0  0  0  0
   23.0700  -19.8228  -11.2061 C   0  0  0  0  0  0  0  0  0  0  0  0
   21.8614  -19.3741  -10.7481 C   0  0  0  0  0  0  0  0  0  0  0  0
   21.3231  -19.8260   -9.5353 C   0  0  0  0  0  0  0  0  0  0  0  0
   22.0136  -20.7301   -8.7943 C   0  0  0  0  0  0  0  0  0  0  0  0
   23.2253  -21.1987   -9.2244 C   0  0  0  0  0  0  0  0  0  0  0  0
   23.7541  -20.7395  -10.4397 C   0  0  0  0  0  0  0  0  0  0  0  0
   21.5673  -19.8699  -13.7937 O   0  0  0  0  0  0  0  0  0  0  0  0
   21.0382  -19.1321  -14.6969 C   0  0  0  0  0  0  0  0  0  0  0  0
   20.6125  -21.5302  -18.0649 S   0  0  0  0  0  0  0  0  0  0  0  0
   18.9619  -21.9459  -17.4407 C   0  0  0  0  0  0  0  0  0  0  0  0
   18.7053  -21.1248  -15.8502 C   0  0  0  0  0  0  0  0  0  0  0  0
   19.5062  -21.7300  -14.7433 C   0  0  2  0  0  0  0  0  0  0  0  0
   19.3509  -20.9894  -13.4221 N   0  0  0  0  0  0  0  0  0  0  0  0
   20.6461  -20.5400  -12.9504 C   0  0  0  0  0  0  0  0  0  0  0  0
   18.5669  -21.7263  -12.4298 O   0  0  0  0  0  0  0  0  0  0  0  0
   19.1618  -22.7165  -11.8783 O   0  0  0  0  0  0  0  0  0  0  0  0
  1  2  1  0
  2  3  2  0
  4  2  1  0
  4  5  1  0
  6  5  1  0
  7  6  1  0
  8 10  1  0
  8  7  1  0
  8  9  1  6
 10 12  1  0
 11 10  2  0
 12 13  1  0
 14 15  1  0
 13 14  1  1
 15 20  2  0
 16 17  2  0
 16 15  1  0
 17 18  1  0
 18 19  2  0
 20 19  1  0
 21 22  2  0
 21 13  1  0
 24 25  1  0
 24 23  1  0
 25 26  1  0
 27 26  1  6
 27 28  1  0
 27 29  1  0
 28 21  1  0
 29 30  2  0
 29 31  1  0
M  END
$$$$
