RFM.pdb
     RDKit          3D

 31 31  0  0  1  0  0  0  0  0999 V2000
   22.1776  -19.4344  -17.6420 N   0  0  0  0  0  0  0  0  0  0  0  0
   22.1346  -18.1625  -16.9813 C   0  0  0  0  0  0  0  0  0  0  0  0
   21.1051  -17.4045  -17.1405 N   0  0  0  0  0  0  0  0  0  0  0  0
   23.2226  -17.7570  -16.1627 N   0  0  0  0  0  0  0  0  0  0  0  0
   24.3736  -18.5851  -15.9291 C   0  0  0  0  0  0  0  0  0  0  0  0
   24.0800  -19.5774  -14.8399 C   0  0  0  0  0  0  0  0  0  0  0  0
   24.8513  -20.8693  -15.0485 C   0  0  0  0  0  0  0  0  0  0  0  0
   26.3317  -20.6517  -15.1782 C   0  0  2  0  0  0  0  0  0  0  0  0
   26.8704  -21.2945  -16.3648 N   0  0  0  0  0  0  0  0  0  0  0  0
   26.9996  -21.1509  -13.9470 C   0  0  0  0  0  0  0  0  0  0  0  0
   26.9470  -22.3752  -13.6653 O   0  0  0  0  0  0  0  0  0  0  0  0
   21.0795  -16.4833  -16.6890 N   0  0  0  0  0  0  0  0  0  0  0  0
   27.7064  -20.2966  -13.0605 C   0  0  2  0  0  0  0  0  0  0  0  0
   28.3520  -20.8521  -11.9005 C   0  0  0  0  0  0  0  0  0  0  0  0
   29.6533  -20.1671  -11.5831 C   0  0  0  0  0  0  0  0  0  0  0  0
   30.3811  -20.7200  -10.4556 C   0  0  0  0  0  0  0  0  0  0  0  0
   31.0296  -21.9211  -10.5482 C   0  0  0  0  0  0  0  0  0  0  0  0
   31.7293  -22.4624   -9.4610 C   0  0  0  0  0  0  0  0  0  0  0  0
   31.7674  -21.7824   -8.2865 C   0  0  0  0  0  0  0  0  0  0  0  0
   31.1292  -20.5783   -8.1611 C   0  0  0  0  0  0  0  0  0  0  0  0
   30.4320  -20.0464   -9.2559 C   0  0  0  0  0  0  0  0  0  0  0  0
   27.3907  -20.8936  -10.7834 O   0  0  0  0  0  0  0  0  0  0  0  0
   26.5510  -19.9389  -10.6306 C   0  0  0  0  0  0  0  0  0  0  0  0
   29.6809  -20.5366   -4.8710 S   0  0  0  0  0  0  0  0  0  0  0  0
   28.2316  -19.5395   -5.3098 C   0  0  0  0  0  0  0  0  0  0  0  0
   27.1095  -20.5362   -6.3183 C   0  0  0  0  0  0  0  0  0  0  0  0
   27.6762  -20.8808   -7.6573 C   0  0  1  0  0  0  0  0  0  0  0  0
   26.7306  -21.7197   -8.5061 N   0  0  0  0  0  0  0  0  0  0  0  0
   27.3012  -21.9312   -9.8221 C   0  0  0  0  0  0  0  0  0  0  0  0
   25.3556  -21.2179   -8.5154 O   0  0  0  0  0  0  0  0  0  0  0  0
   24.7526  -21.2345   -7.3863 O   0  0  0  0  0  0  0  0  0  0  0  0
  1  2  1  0
  2  3  2  0
  4  2  1  0
  4  5  1  0
  6  5  1  0
  7  6  1  0
  8 10  1  0
  8  7  1  0
  8  9  1  6
 10 12  1  0
 11 10  2  0
 12 13  1  0
 14 15  1  0
 13 14  1  6
 15 20  2  0
 16 17  2  0
 16 15  1  0
 17 18  1  0
 18 19  2  0
 20 19  1  0
 21 22  2  0
 21 13  1  0
 24 25  1  0
 24 23  1  0
 25 26  1  0
 27 26  1  1
 27 28  1  0
 27 29  1  0
 28 21  1  0
 29 30  2  0
 29 31  1  0
M  END
$$$$
