RFM.pdb
     RDKit          3D

 31 31  0  0  1  0  0  0  0  0999 V2000
   30.3717  -17.8788  -18.6798 N   0  0  0  0  0  0  0  0  0  0  0  0
   29.5531  -19.0402  -18.8724 C   0  0  0  0  0  0  0  0  0  0  0  0
   30.0304  -20.0472  -19.5191 N   0  0  0  0  0  0  0  0  0  0  0  0
   28.2324  -19.0656  -18.3494 N   0  0  0  0  0  0  0  0  0  0  0  0
   27.6217  -17.9281  -17.7184 C   0  0  0  0  0  0  0  0  0  0  0  0
   28.1700  -17.7547  -16.3304 C   0  0  0  0  0  0  0  0  0  0  0  0
   27.6544  -18.8346  -15.3949 C   0  0  0  0  0  0  0  0  0  0  0  0
   26.4526  -18.3995  -14.6061 C   0  0  2  0  0  0  0  0  0  0  0  0
   26.8053  -17.4522  -13.5623 N   0  0  0  0  0  0  0  0  0  0  0  0
   25.7905  -19.6034  -14.0373 C   0  0  0  0  0  0  0  0  0  0  0  0
   25.6404  -20.6258  -14.7537 O   0  0  0  0  0  0  0  0  0  0  0  0
   29.4436  -20.8748  -19.6728 N   0  0  0  0  0  0  0  0  0  0  0  0
   25.3128  -19.6541  -12.7015 C   0  0  1  0  0  0  0  0  0  0  0  0
   24.6033  -20.8193  -12.2433 C   0  0  0  0  0  0  0  0  0  0  0  0
   25.1745  -21.3758  -10.9676 C   0  0  0  0  0  0  0  0  0  0  0  0
   26.5569  -21.0200  -10.7052 C   0  0  0  0  0  0  0  0  0  0  0  0
   26.8816  -20.0599   -9.7861 C   0  0  0  0  0  0  0  0  0  0  0  0
   28.2146  -19.7084   -9.5326 C   0  0  0  0  0  0  0  0  0  0  0  0
   29.2103  -20.3325  -10.2125 C   0  0  0  0  0  0  0  0  0  0  0  0
   28.9191  -21.2973  -11.1384 C   0  0  0  0  0  0  0  0  0  0  0  0
   27.5815  -21.6409  -11.3838 C   0  0  0  0  0  0  0  0  0  0  0  0
   23.1607  -20.5198  -12.1917 O   0  0  0  0  0  0  0  0  0  0  0  0
   22.7659  -19.3055  -12.0938 C   0  0  0  0  0  0  0  0  0  0  0  0
   19.5377  -19.8487  -18.0596 S   0  0  0  0  0  0  0  0  0  0  0  0
   20.8314  -19.7951  -16.7904 C   0  0  0  0  0  0  0  0  0  0  0  0
   20.6749  -21.2460  -15.7228 C   0  0  0  0  0  0  0  0  0  0  0  0
   21.6945  -21.2817  -14.6309 C   0  0  1  0  0  0  0  0  0  0  0  0
   21.0802  -21.4474  -13.2477 N   0  0  0  0  0  0  0  0  0  0  0  0
   22.1246  -21.4856  -12.2427 C   0  0  0  0  0  0  0  0  0  0  0  0
   20.1192  -22.5483  -13.1651 O   0  0  0  0  0  0  0  0  0  0  0  0
   18.8873  -22.2171  -13.2706 O   0  0  0  0  0  0  0  0  0  0  0  0
  1  2  1  0
  2  3  2  0
  4  2  1  0
  4  5  1  0
  6  5  1  0
  7  6  1  0
  8 10  1  0
  8  7  1  0
  8  9  1  1
 10 12  1  0
 11 10  2  0
 12 13  1  0
 14 15  1  0
 13 14  1  6
 15 20  2  0
 16 17  2  0
 16 15  1  0
 17 18  1  0
 18 19  2  0
 20 19  1  0
 21 22  2  0
 21 13  1  0
 24 25  1  0
 24 23  1  0
 25 26  1  0
 27 26  1  1
 27 28  1  0
 27 29  1  0
 28 21  1  0
 29 30  2  0
 29 31  1  0
M  END
$$$$
