RFM.pdb
     RDKit          3D

 31 31  0  0  1  0  0  0  0  0999 V2000
   21.6117  -28.0317  -17.1652 N   0  0  0  0  0  0  0  0  0  0  0  0
   22.7664  -27.1956  -17.0109 C   0  0  0  0  0  0  0  0  0  0  0  0
   23.4777  -27.2950  -15.9414 N   0  0  0  0  0  0  0  0  0  0  0  0
   23.1098  -26.2730  -18.0352 N   0  0  0  0  0  0  0  0  0  0  0  0
   23.7782  -25.0284  -17.7716 C   0  0  0  0  0  0  0  0  0  0  0  0
   22.7687  -23.9275  -17.6095 C   0  0  0  0  0  0  0  0  0  0  0  0
   22.6199  -23.5261  -16.1521 C   0  0  0  0  0  0  0  0  0  0  0  0
   23.9327  -23.2038  -15.4977 C   0  0  2  0  0  0  0  0  0  0  0  0
   24.4860  -24.3528  -14.8014 N   0  0  0  0  0  0  0  0  0  0  0  0
   23.7381  -22.0571  -14.5711 C   0  0  0  0  0  0  0  0  0  0  0  0
   23.2792  -20.9730  -15.0130 O   0  0  0  0  0  0  0  0  0  0  0  0
   24.2001  -26.5928  -15.7462 N   0  0  0  0  0  0  0  0  0  0  0  0
   24.0500  -22.1299  -13.1882 C   0  0  2  0  0  0  0  0  0  0  0  0
   23.8125  -20.9889  -12.3440 C   0  0  0  0  0  0  0  0  0  0  0  0
   22.6983  -21.2229  -11.3606 C   0  0  0  0  0  0  0  0  0  0  0  0
   21.4167  -21.5620  -11.9514 C   0  0  0  0  0  0  0  0  0  0  0  0
   20.4481  -20.6144  -12.1403 C   0  0  0  0  0  0  0  0  0  0  0  0
   19.2066  -20.9373  -12.7053 C   0  0  0  0  0  0  0  0  0  0  0  0
   18.9547  -22.2190  -13.0754 C   0  0  0  0  0  0  0  0  0  0  0  0
   19.9025  -23.1906  -12.8999 C   0  0  0  0  0  0  0  0  0  0  0  0
   21.1413  -22.8558  -12.3335 C   0  0  0  0  0  0  0  0  0  0  0  0
   25.0864  -20.5594  -11.7389 O   0  0  0  0  0  0  0  0  0  0  0  0
   25.0840  -19.9685  -10.6028 C   0  0  0  0  0  0  0  0  0  0  0  0
   28.9151  -19.2599   -6.8686 S   0  0  0  0  0  0  0  0  0  0  0  0
   28.7236  -20.8505   -7.7175 C   0  0  0  0  0  0  0  0  0  0  0  0
   28.8813  -20.5938   -9.5004 C   0  0  0  0  0  0  0  0  0  0  0  0
   27.6480  -20.9681  -10.2567 C   0  0  1  0  0  0  0  0  0  0  0  0
   27.5858  -20.3401  -11.6424 N   0  0  0  0  0  0  0  0  0  0  0  0
   26.3675  -20.7453  -12.3160 C   0  0  0  0  0  0  0  0  0  0  0  0
   28.8059  -20.5366  -12.4265 O   0  0  0  0  0  0  0  0  0  0  0  0
   28.6884  -21.2910  -13.4540 O   0  0  0  0  0  0  0  0  0  0  0  0
  1  2  1  0
  2  3  2  0
  4  2  1  0
  4  5  1  0
  6  5  1  0
  7  6  1  0
  8 10  1  0
  8  7  1  0
  8  9  1  1
 10 12  1  0
 11 10  2  0
 12 13  1  0
 14 15  1  0
 13 14  1  6
 15 20  2  0
 16 17  2  0
 16 15  1  0
 17 18  1  0
 18 19  2  0
 20 19  1  0
 21 22  2  0
 21 13  1  0
 24 25  1  0
 24 23  1  0
 25 26  1  0
 27 26  1  1
 27 28  1  0
 27 29  1  0
 28 21  1  0
 29 30  2  0
 29 31  1  0
M  END
$$$$
