FIQ.pdb
     RDKit          3D

 29 29  0  0  1  0  0  0  0  0999 V2000
   28.3639  -20.6680  -15.0856 N   0  0  0  0  0  0  0  0  0  0  0  0
   27.4713  -19.8905  -14.2640 C   0  0  1  0  0  0  0  0  0  0  0  0
   26.6628  -19.0053  -15.2013 C   0  0  0  0  0  0  0  0  0  0  0  0
   27.5076  -17.8365  -15.5392 C   0  0  0  0  0  0  0  0  0  0  0  0
   27.6108  -16.7821  -14.6674 C   0  0  0  0  0  0  0  0  0  0  0  0
   28.4053  -15.6775  -14.9799 C   0  0  0  0  0  0  0  0  0  0  0  0
   29.0957  -15.6556  -16.1906 C   0  0  0  0  0  0  0  0  0  0  0  0
   28.9972  -16.7094  -17.0702 C   0  0  0  0  0  0  0  0  0  0  0  0
   28.2041  -17.7843  -16.7305 C   0  0  0  0  0  0  0  0  0  0  0  0
   26.5895  -20.7477  -13.4384 C   0  0  0  0  0  0  0  0  0  0  0  0
   26.1802  -21.8332  -13.9434 O   0  0  0  0  0  0  0  0  0  0  0  0
   26.9672  -20.5853   -8.2125 C   0  0  0  0  0  0  0  0  0  0  0  0
   26.5508  -21.1515   -9.5409 C   0  0  0  0  0  0  0  0  0  0  0  0
   25.2313  -20.5340  -10.0169 C   0  0  2  0  0  0  0  0  0  0  0  0
   24.0954  -21.0008   -9.1755 C   0  0  0  0  0  0  0  0  0  0  0  0
   25.1111  -20.9633  -11.4682 C   0  0  2  0  0  0  0  0  0  0  0  0
   26.2526  -20.3181  -12.1452 N   0  0  0  0  0  0  0  0  0  0  0  0
   23.8614  -20.5702  -12.1234 C   0  0  0  0  0  0  0  0  0  0  0  0
   23.7964  -19.4936  -12.8244 O   0  0  0  0  0  0  0  0  0  0  0  0
   19.8941  -23.3958  -16.6215 N   0  0  0  0  0  0  0  0  0  0  0  0
   20.6715  -22.2558  -16.3052 C   0  0  0  0  0  0  0  0  0  0  0  0
   21.5078  -21.7645  -17.0932 O   0  0  0  0  0  0  0  0  0  0  0  0
   20.4804  -21.6160  -14.9710 C   0  0  0  0  0  0  0  0  0  0  0  0
   21.7096  -21.6933  -14.1369 C   0  0  0  0  0  0  0  0  0  0  0  0
   21.4843  -21.0295  -12.8045 C   0  0  2  0  0  0  0  0  0  0  0  0
   22.6964  -21.3322  -12.0267 N   0  0  0  0  0  0  0  0  0  0  0  0
   20.2831  -21.4892  -12.1254 C   0  0  0  0  0  0  0  0  0  0  0  0
   20.3666  -22.2898  -11.1307 O   0  0  0  0  0  0  0  0  0  0  0  0
   18.9939  -21.1274  -12.4627 O   0  0  0  0  0  0  0  0  0  0  0  0
  2  1  1  6
  2  3  1  0
  3  4  1  0
  4  9  2  0
  5  6  2  0
  5  4  1  0
  6  7  1  0
  7  8  2  0
  9  8  1  0
 10 11  2  0
 10  2  1  0
 12 13  1  0
 13 14  1  0
 14 15  1  1
 14 16  1  0
 16 17  1  6
 17 10  1  0
 18 26  1  0
 18 16  1  0
 19 18  2  0
 20 21  1  0
 21 23  1  0
 21 22  2  0
 23 24  1  0
 25 24  1  6
 25 26  1  0
 25 27  1  0
 27 29  1  0
 28 27  2  0
M  END
$$$$
