FIQ.pdb
     RDKit          3D

 29 29  0  0  1  0  0  0  0  0999 V2000
   27.8396   -8.1270  -20.9237 N   0  0  0  0  0  0  0  0  0  0  0  0
   27.6372   -7.6374  -19.5836 C   0  0  1  0  0  0  0  0  0  0  0  0
   27.3042   -6.1569  -19.6973 C   0  0  0  0  0  0  0  0  0  0  0  0
   28.5271   -5.4667  -20.1687 C   0  0  0  0  0  0  0  0  0  0  0  0
   29.5232   -5.1416  -19.2831 C   0  0  0  0  0  0  0  0  0  0  0  0
   30.6783   -4.4911  -19.7210 C   0  0  0  0  0  0  0  0  0  0  0  0
   30.8107   -4.1736  -21.0718 C   0  0  0  0  0  0  0  0  0  0  0  0
   29.8160   -4.4964  -21.9661 C   0  0  0  0  0  0  0  0  0  0  0  0
   28.6887   -5.1385  -21.5004 C   0  0  0  0  0  0  0  0  0  0  0  0
   26.5654   -8.3779  -18.8788 C   0  0  0  0  0  0  0  0  0  0  0  0
   25.5743   -8.7723  -19.5595 O   0  0  0  0  0  0  0  0  0  0  0  0
   28.1072  -11.9493  -15.5654 C   0  0  0  0  0  0  0  0  0  0  0  0
   27.2974  -11.0989  -16.5035 C   0  0  0  0  0  0  0  0  0  0  0  0
   26.3728  -10.1504  -15.7325 C   0  0  2  0  0  0  0  0  0  0  0  0
   25.4549  -10.9139  -14.8432 C   0  0  0  0  0  0  0  0  0  0  0  0
   25.6423   -9.3700  -16.8106 C   0  0  2  0  0  0  0  0  0  0  0  0
   26.6993   -8.6051  -17.5000 N   0  0  0  0  0  0  0  0  0  0  0  0
   24.6127   -8.4538  -16.3146 C   0  0  0  0  0  0  0  0  0  0  0  0
   24.9111   -7.5138  -15.4886 O   0  0  0  0  0  0  0  0  0  0  0  0
   19.8320   -6.3941  -19.3970 N   0  0  0  0  0  0  0  0  0  0  0  0
   19.4312   -5.9912  -18.1005 C   0  0  0  0  0  0  0  0  0  0  0  0
   18.4092   -5.3039  -17.8890 O   0  0  0  0  0  0  0  0  0  0  0  0
   20.2691   -6.4077  -16.9385 C   0  0  0  0  0  0  0  0  0  0  0  0
   21.4304   -7.2362  -17.3599 C   0  0  0  0  0  0  0  0  0  0  0  0
   22.2256   -7.6771  -16.1599 C   0  0  2  0  0  0  0  0  0  0  0  0
   23.2774   -8.5482  -16.7083 N   0  0  0  0  0  0  0  0  0  0  0  0
   21.4270   -8.3663  -15.1586 C   0  0  0  0  0  0  0  0  0  0  0  0
   21.2812   -9.6367  -15.2074 O   0  0  0  0  0  0  0  0  0  0  0  0
   20.7784   -7.7554  -14.1038 O   0  0  0  0  0  0  0  0  0  0  0  0
  2  1  1  6
  2  3  1  0
  3  4  1  0
  4  9  2  0
  5  6  2  0
  5  4  1  0
  6  7  1  0
  7  8  2  0
  9  8  1  0
 10 11  2  0
 10  2  1  0
 12 13  1  0
 13 14  1  0
 14 15  1  6
 14 16  1  0
 16 17  1  1
 17 10  1  0
 18 26  1  0
 18 16  1  0
 19 18  2  0
 20 21  1  0
 21 23  1  0
 21 22  2  0
 23 24  1  0
 25 24  1  6
 25 26  1  0
 25 27  1  0
 27 29  1  0
 28 27  2  0
M  END
$$$$
