FIQ.pdb
     RDKit          3D

 29 29  0  0  1  0  0  0  0  0999 V2000
   28.2449  -21.0485   -8.8041 N   0  0  0  0  0  0  0  0  0  0  0  0
   26.9756  -20.3849   -8.6458 C   0  0  1  0  0  0  0  0  0  0  0  0
   27.2335  -19.1197   -7.8406 C   0  0  0  0  0  0  0  0  0  0  0  0
   27.8717  -19.5309   -6.5688 C   0  0  0  0  0  0  0  0  0  0  0  0
   29.1642  -19.1627   -6.2924 C   0  0  0  0  0  0  0  0  0  0  0  0
   29.7715  -19.5470   -5.0955 C   0  0  0  0  0  0  0  0  0  0  0  0
   29.0498  -20.3114   -4.1801 C   0  0  0  0  0  0  0  0  0  0  0  0
   27.7531  -20.6846   -4.4502 C   0  0  0  0  0  0  0  0  0  0  0  0
   27.1838  -20.2882   -5.6413 C   0  0  0  0  0  0  0  0  0  0  0  0
   26.3458  -20.0744   -9.9500 C   0  0  0  0  0  0  0  0  0  0  0  0
   26.4670  -18.8976  -10.3988 O   0  0  0  0  0  0  0  0  0  0  0  0
   28.1216  -22.1125  -13.7745 C   0  0  0  0  0  0  0  0  0  0  0  0
   27.2630  -21.2649  -12.8784 C   0  0  0  0  0  0  0  0  0  0  0  0
   25.8064  -21.7412  -12.8950 C   0  0  2  0  0  0  0  0  0  0  0  0
   25.2571  -21.7139  -14.2784 C   0  0  0  0  0  0  0  0  0  0  0  0
   25.0853  -20.7957  -11.9510 C   0  0  2  0  0  0  0  0  0  0  0  0
   25.6500  -21.0926  -10.6204 N   0  0  0  0  0  0  0  0  0  0  0  0
   23.6295  -20.9542  -11.9167 C   0  0  0  0  0  0  0  0  0  0  0  0
   23.0845  -21.8736  -11.2007 O   0  0  0  0  0  0  0  0  0  0  0  0
   19.6269  -16.5144  -13.5255 N   0  0  0  0  0  0  0  0  0  0  0  0
   18.7293  -17.5448  -13.1559 C   0  0  0  0  0  0  0  0  0  0  0  0
   17.4904  -17.3851  -13.1198 O   0  0  0  0  0  0  0  0  0  0  0  0
   19.2919  -18.8784  -12.7942 C   0  0  0  0  0  0  0  0  0  0  0  0
   20.7789  -18.8819  -12.8297 C   0  0  0  0  0  0  0  0  0  0  0  0
   21.3076  -20.2732  -12.6027 C   0  0  2  0  0  0  0  0  0  0  0  0
   22.7715  -20.1277  -12.6432 N   0  0  0  0  0  0  0  0  0  0  0  0
   20.8375  -21.2376  -13.5847 C   0  0  0  0  0  0  0  0  0  0  0  0
   19.8179  -21.9702  -13.3376 O   0  0  0  0  0  0  0  0  0  0  0  0
   21.4098  -21.4513  -14.8230 O   0  0  0  0  0  0  0  0  0  0  0  0
  2  1  1  6
  2  3  1  0
  3  4  1  0
  4  9  2  0
  5  6  2  0
  5  4  1  0
  6  7  1  0
  7  8  2  0
  9  8  1  0
 10 11  2  0
 10  2  1  0
 12 13  1  0
 13 14  1  0
 14 15  1  6
 14 16  1  0
 16 17  1  1
 17 10  1  0
 18 26  1  0
 18 16  1  0
 19 18  2  0
 20 21  1  0
 21 23  1  0
 21 22  2  0
 23 24  1  0
 25 24  1  6
 25 26  1  0
 25 27  1  0
 27 29  1  0
 28 27  2  0
M  END
$$$$
