FIQ.pdb
     RDKit          3D

 29 29  0  0  1  0  0  0  0  0999 V2000
   27.5055  -18.7906   -8.5374 N   0  0  0  0  0  0  0  0  0  0  0  0
   26.7918  -20.0415   -8.5871 C   0  0  1  0  0  0  0  0  0  0  0  0
   26.1008  -20.2122   -7.2421 C   0  0  0  0  0  0  0  0  0  0  0  0
   27.1248  -20.0029   -6.1926 C   0  0  0  0  0  0  0  0  0  0  0  0
   27.9311  -18.8932   -6.2240 C   0  0  0  0  0  0  0  0  0  0  0  0
   28.8982  -18.6901   -5.2377 C   0  0  0  0  0  0  0  0  0  0  0  0
   29.0375  -19.6287   -4.2167 C   0  0  0  0  0  0  0  0  0  0  0  0
   28.2325  -20.7441   -4.1784 C   0  0  0  0  0  0  0  0  0  0  0  0
   27.2879  -20.9140   -5.1677 C   0  0  0  0  0  0  0  0  0  0  0  0
   25.8174  -20.0799   -9.7021 C   0  0  0  0  0  0  0  0  0  0  0  0
   24.8474  -19.2683   -9.6667 O   0  0  0  0  0  0  0  0  0  0  0  0
   29.0342  -20.3758  -13.3930 C   0  0  0  0  0  0  0  0  0  0  0  0
   27.7787  -20.0759  -12.6232 C   0  0  0  0  0  0  0  0  0  0  0  0
   26.6444  -21.0263  -13.0220 C   0  0  2  0  0  0  0  0  0  0  0  0
   26.2889  -20.8521  -14.4570 C   0  0  0  0  0  0  0  0  0  0  0  0
   25.5053  -20.6764  -12.0812 C   0  0  2  0  0  0  0  0  0  0  0  0
   26.0152  -21.0078  -10.7366 N   0  0  0  0  0  0  0  0  0  0  0  0
   24.2582  -21.4034  -12.3299 C   0  0  0  0  0  0  0  0  0  0  0  0
   24.2060  -22.6825  -12.2042 O   0  0  0  0  0  0  0  0  0  0  0  0
   19.1844  -21.2136  -10.3741 N   0  0  0  0  0  0  0  0  0  0  0  0
   18.6388  -21.5250  -11.6427 C   0  0  0  0  0  0  0  0  0  0  0  0
   17.5480  -22.1176  -11.7855 O   0  0  0  0  0  0  0  0  0  0  0  0
   19.4036  -21.1259  -12.8599 C   0  0  0  0  0  0  0  0  0  0  0  0
   20.7380  -20.5646  -12.5182 C   0  0  0  0  0  0  0  0  0  0  0  0
   21.8326  -21.4846  -12.9896 C   0  0  2  0  0  0  0  0  0  0  0  0
   23.0800  -20.7572  -12.7058 N   0  0  0  0  0  0  0  0  0  0  0  0
   21.7258  -21.8366  -14.3968 C   0  0  0  0  0  0  0  0  0  0  0  0
   22.2487  -21.0887  -15.2938 O   0  0  0  0  0  0  0  0  0  0  0  0
   21.0852  -22.9571  -14.8874 O   0  0  0  0  0  0  0  0  0  0  0  0
  2  1  1  1
  2  3  1  0
  3  4  1  0
  4  9  2  0
  5  6  2  0
  5  4  1  0
  6  7  1  0
  7  8  2  0
  9  8  1  0
 10 11  2  0
 10  2  1  0
 12 13  1  0
 13 14  1  0
 14 15  1  6
 14 16  1  0
 16 17  1  1
 17 10  1  0
 18 26  1  0
 18 16  1  0
 19 18  2  0
 20 21  1  0
 21 23  1  0
 21 22  2  0
 23 24  1  0
 25 24  1  6
 25 26  1  0
 25 27  1  0
 27 29  1  0
 28 27  2  0
M  END
$$$$
