FIQ.pdb
     RDKit          3D

 29 29  0  0  1  0  0  0  0  0999 V2000
   27.7101  -21.4426  -17.0309 N   0  0  0  0  0  0  0  0  0  0  0  0
   27.2229  -20.4480  -16.1091 C   0  0  1  0  0  0  0  0  0  0  0  0
   26.4973  -19.3953  -16.9342 C   0  0  0  0  0  0  0  0  0  0  0  0
   27.5310  -18.5423  -17.5650 C   0  0  0  0  0  0  0  0  0  0  0  0
   28.1590  -17.5634  -16.8371 C   0  0  0  0  0  0  0  0  0  0  0  0
   29.1342  -16.7561  -17.4257 C   0  0  0  0  0  0  0  0  0  0  0  0
   29.4653  -16.9546  -18.7651 C   0  0  0  0  0  0  0  0  0  0  0  0
   28.8398  -17.9343  -19.5017 C   0  0  0  0  0  0  0  0  0  0  0  0
   27.8816  -18.7136  -18.8897 C   0  0  0  0  0  0  0  0  0  0  0  0
   26.3326  -21.0341  -15.0805 C   0  0  0  0  0  0  0  0  0  0  0  0
   25.5930  -22.0022  -15.4222 O   0  0  0  0  0  0  0  0  0  0  0  0
   25.6616  -21.1257   -9.0081 C   0  0  0  0  0  0  0  0  0  0  0  0
   25.1262  -21.3156  -10.3996 C   0  0  0  0  0  0  0  0  0  0  0  0
   26.1314  -20.8314  -11.4504 C   0  0  2  0  0  0  0  0  0  0  0  0
   26.4987  -19.4082  -11.2142 C   0  0  0  0  0  0  0  0  0  0  0  0
   25.4298  -21.0511  -12.7788 C   0  0  2  0  0  0  0  0  0  0  0  0
   26.3518  -20.4917  -13.7860 N   0  0  0  0  0  0  0  0  0  0  0  0
   24.1198  -20.4060  -12.8954 C   0  0  0  0  0  0  0  0  0  0  0  0
   24.0218  -19.1260  -12.9771 O   0  0  0  0  0  0  0  0  0  0  0  0
   21.6603  -18.9032  -17.0399 N   0  0  0  0  0  0  0  0  0  0  0  0
   21.6536  -20.3138  -16.9212 C   0  0  0  0  0  0  0  0  0  0  0  0
   21.6243  -21.0780  -17.9095 O   0  0  0  0  0  0  0  0  0  0  0  0
   21.6830  -20.9098  -15.5538 C   0  0  0  0  0  0  0  0  0  0  0  0
   21.7057  -19.8665  -14.4937 C   0  0  0  0  0  0  0  0  0  0  0  0
   21.6175  -20.4993  -13.1304 C   0  0  2  0  0  0  0  0  0  0  0  0
   22.9298  -21.1339  -12.9277 N   0  0  0  0  0  0  0  0  0  0  0  0
   20.5328  -21.4605  -13.0083 C   0  0  0  0  0  0  0  0  0  0  0  0
   19.3160  -21.0655  -12.9840 O   0  0  0  0  0  0  0  0  0  0  0  0
   20.6929  -22.8287  -12.9134 O   0  0  0  0  0  0  0  0  0  0  0  0
  2  1  1  6
  2  3  1  0
  3  4  1  0
  4  9  2  0
  5  6  2  0
  5  4  1  0
  6  7  1  0
  7  8  2  0
  9  8  1  0
 10 11  2  0
 10  2  1  0
 12 13  1  0
 13 14  1  0
 14 15  1  1
 14 16  1  0
 16 17  1  6
 17 10  1  0
 18 26  1  0
 18 16  1  0
 19 18  2  0
 20 21  1  0
 21 23  1  0
 21 22  2  0
 23 24  1  0
 25 24  1  6
 25 26  1  0
 25 27  1  0
 27 29  1  0
 28 27  2  0
M  END
$$$$
