FIQ.pdb
     RDKit          3D

 29 29  0  0  1  0  0  0  0  0999 V2000
   27.9415  -18.7021   -7.8376 N   0  0  0  0  0  0  0  0  0  0  0  0
   27.2896  -19.9829   -7.9427 C   0  0  1  0  0  0  0  0  0  0  0  0
   26.5490  -20.2129   -6.6333 C   0  0  0  0  0  0  0  0  0  0  0  0
   27.5356  -20.0633   -5.5387 C   0  0  0  0  0  0  0  0  0  0  0  0
   27.5253  -20.9294   -4.4747 C   0  0  0  0  0  0  0  0  0  0  0  0
   28.4525  -20.7938   -3.4397 C   0  0  0  0  0  0  0  0  0  0  0  0
   29.3925  -19.7662   -3.4976 C   0  0  0  0  0  0  0  0  0  0  0  0
   29.4092  -18.8936   -4.5615 C   0  0  0  0  0  0  0  0  0  0  0  0
   28.4797  -19.0558   -5.5663 C   0  0  0  0  0  0  0  0  0  0  0  0
   26.3677  -20.0425   -9.1005 C   0  0  0  0  0  0  0  0  0  0  0  0
   25.4349  -19.1894   -9.1571 O   0  0  0  0  0  0  0  0  0  0  0  0
   29.6291  -20.9899  -12.8194 C   0  0  0  0  0  0  0  0  0  0  0  0
   28.4506  -20.5347  -12.0053 C   0  0  0  0  0  0  0  0  0  0  0  0
   27.1994  -21.3560  -12.3353 C   0  0  2  0  0  0  0  0  0  0  0  0
   26.8775  -21.2689  -13.7862 C   0  0  0  0  0  0  0  0  0  0  0  0
   26.1141  -20.7698  -11.4500 C   0  0  2  0  0  0  0  0  0  0  0  0
   26.5714  -21.0348  -10.0722 N   0  0  0  0  0  0  0  0  0  0  0  0
   24.7821  -21.3461  -11.6482 C   0  0  0  0  0  0  0  0  0  0  0  0
   24.5482  -22.5774  -11.3581 O   0  0  0  0  0  0  0  0  0  0  0  0
   19.5642  -18.0534  -11.9525 N   0  0  0  0  0  0  0  0  0  0  0  0
   19.0587  -19.3371  -12.2696 C   0  0  0  0  0  0  0  0  0  0  0  0
   17.8392  -19.5702  -12.4123 O   0  0  0  0  0  0  0  0  0  0  0  0
   20.0283  -20.4580  -12.4402 C   0  0  0  0  0  0  0  0  0  0  0  0
   21.4288  -20.0237  -12.1897 C   0  0  0  0  0  0  0  0  0  0  0  0
   22.3779  -21.1789  -12.3673 C   0  0  2  0  0  0  0  0  0  0  0  0
   23.7139  -20.6015  -12.1496 N   0  0  0  0  0  0  0  0  0  0  0  0
   22.2754  -21.8162  -13.6707 C   0  0  0  0  0  0  0  0  0  0  0  0
   22.9805  -21.3993  -14.6536 O   0  0  0  0  0  0  0  0  0  0  0  0
   21.4519  -22.8838  -13.9686 O   0  0  0  0  0  0  0  0  0  0  0  0
  2  1  1  1
  2  3  1  0
  3  4  1  0
  4  9  2  0
  5  6  2  0
  5  4  1  0
  6  7  1  0
  7  8  2  0
  9  8  1  0
 10 11  2  0
 10  2  1  0
 12 13  1  0
 13 14  1  0
 14 15  1  6
 14 16  1  0
 16 17  1  1
 17 10  1  0
 18 26  1  0
 18 16  1  0
 19 18  2  0
 20 21  1  0
 21 23  1  0
 21 22  2  0
 23 24  1  0
 25 24  1  6
 25 26  1  0
 25 27  1  0
 27 29  1  0
 28 27  2  0
M  END
$$$$
