FIQ.pdb
     RDKit          3D

 29 29  0  0  1  0  0  0  0  0999 V2000
   28.4295  -21.0073  -15.5494 N   0  0  0  0  0  0  0  0  0  0  0  0
   27.4870  -20.1268  -14.9068 C   0  0  1  0  0  0  0  0  0  0  0  0
   26.7945  -19.3375  -16.0082 C   0  0  0  0  0  0  0  0  0  0  0  0
   27.6544  -18.1726  -16.3208 C   0  0  0  0  0  0  0  0  0  0  0  0
   27.6247  -17.0568  -15.5232 C   0  0  0  0  0  0  0  0  0  0  0  0
   28.4327  -15.9555  -15.8123 C   0  0  0  0  0  0  0  0  0  0  0  0
   29.2732  -16.0003  -16.9233 C   0  0  0  0  0  0  0  0  0  0  0  0
   29.3086  -17.1160  -17.7281 C   0  0  0  0  0  0  0  0  0  0  0  0
   28.4980  -18.1857  -17.4141 C   0  0  0  0  0  0  0  0  0  0  0  0
   26.5084  -20.8703  -14.0802 C   0  0  0  0  0  0  0  0  0  0  0  0
   26.0428  -21.9510  -14.5454 O   0  0  0  0  0  0  0  0  0  0  0  0
   26.9819  -20.5722   -8.8561 C   0  0  0  0  0  0  0  0  0  0  0  0
   26.5980  -21.0765  -10.2189 C   0  0  0  0  0  0  0  0  0  0  0  0
   25.2344  -20.5249  -10.6495 C   0  0  2  0  0  0  0  0  0  0  0  0
   24.1586  -21.0057   -9.7397 C   0  0  0  0  0  0  0  0  0  0  0  0
   25.0625  -21.0065  -12.0790 C   0  0  2  0  0  0  0  0  0  0  0  0
   26.1470  -20.3446  -12.8298 N   0  0  0  0  0  0  0  0  0  0  0  0
   23.7701  -20.6794  -12.6859 C   0  0  0  0  0  0  0  0  0  0  0  0
   23.4117  -19.4550  -12.8507 O   0  0  0  0  0  0  0  0  0  0  0  0
   20.4915  -24.4328  -16.3346 N   0  0  0  0  0  0  0  0  0  0  0  0
   19.5026  -23.4601  -16.0518 C   0  0  0  0  0  0  0  0  0  0  0  0
   18.3496  -23.5050  -16.5316 O   0  0  0  0  0  0  0  0  0  0  0  0
   19.8572  -22.3336  -15.1402 C   0  0  0  0  0  0  0  0  0  0  0  0
   21.2430  -22.4598  -14.6146 C   0  0  0  0  0  0  0  0  0  0  0  0
   21.5444  -21.3426  -13.6514 C   0  0  2  0  0  0  0  0  0  0  0  0
   22.8767  -21.6621  -13.1139 N   0  0  0  0  0  0  0  0  0  0  0  0
   20.5567  -21.2105  -12.5920 C   0  0  0  0  0  0  0  0  0  0  0  0
   19.5350  -20.4561  -12.7483 O   0  0  0  0  0  0  0  0  0  0  0  0
   20.6127  -21.8532  -11.3712 O   0  0  0  0  0  0  0  0  0  0  0  0
  2  1  1  6
  2  3  1  0
  3  4  1  0
  4  9  2  0
  5  6  2  0
  5  4  1  0
  6  7  1  0
  7  8  2  0
  9  8  1  0
 10 11  2  0
 10  2  1  0
 12 13  1  0
 13 14  1  0
 14 15  1  1
 14 16  1  0
 16 17  1  6
 17 10  1  0
 18 26  1  0
 18 16  1  0
 19 18  2  0
 20 21  1  0
 21 23  1  0
 21 22  2  0
 23 24  1  0
 25 24  1  6
 25 26  1  0
 25 27  1  0
 27 29  1  0
 28 27  2  0
M  END
$$$$
