FIQ.pdb
     RDKit          3D

 29 29  0  0  1  0  0  0  0  0999 V2000
   19.7313  -13.1973  -17.1935 N   0  0  0  0  0  0  0  0  0  0  0  0
   20.4837  -12.0565  -17.6504 C   0  0  1  0  0  0  0  0  0  0  0  0
   19.4849  -11.0758  -18.2472 C   0  0  0  0  0  0  0  0  0  0  0  0
   19.1317  -11.5750  -19.5963 C   0  0  0  0  0  0  0  0  0  0  0  0
   19.8903  -12.5496  -20.1939 C   0  0  0  0  0  0  0  0  0  0  0  0
   19.5627  -13.0244  -21.4654 C   0  0  0  0  0  0  0  0  0  0  0  0
   18.4535  -12.4972  -22.1245 C   0  0  0  0  0  0  0  0  0  0  0  0
   17.6879  -11.5195  -21.5316 C   0  0  0  0  0  0  0  0  0  0  0  0
   18.0391  -11.0733  -20.2757 C   0  0  0  0  0  0  0  0  0  0  0  0
   21.2635  -11.4324  -16.5565 C   0  0  0  0  0  0  0  0  0  0  0  0
   20.7681  -11.4527  -15.3924 O   0  0  0  0  0  0  0  0  0  0  0  0
   27.0169  -10.5467  -15.0520 C   0  0  0  0  0  0  0  0  0  0  0  0
   25.5509  -10.2835  -14.8514 C   0  0  0  0  0  0  0  0  0  0  0  0
   24.7362  -10.7314  -16.0698 C   0  0  2  0  0  0  0  0  0  0  0  0
   25.2658  -10.1129  -17.3161 C   0  0  0  0  0  0  0  0  0  0  0  0
   23.3132  -10.3064  -15.7541 C   0  0  2  0  0  0  0  0  0  0  0  0
   22.5051  -10.8529  -16.8613 N   0  0  0  0  0  0  0  0  0  0  0  0
   23.1109   -8.8585  -15.6623 C   0  0  0  0  0  0  0  0  0  0  0  0
   23.6352   -8.1805  -14.7031 O   0  0  0  0  0  0  0  0  0  0  0  0
   22.8438   -7.2110  -20.4402 N   0  0  0  0  0  0  0  0  0  0  0  0
   23.9254   -6.6148  -19.7484 C   0  0  0  0  0  0  0  0  0  0  0  0
   25.0753   -6.5303  -20.2302 O   0  0  0  0  0  0  0  0  0  0  0  0
   23.6767   -6.0647  -18.3842 C   0  0  0  0  0  0  0  0  0  0  0  0
   22.2589   -6.2340  -17.9671 C   0  0  0  0  0  0  0  0  0  0  0  0
   22.1826   -6.6897  -16.5342 C   0  0  2  0  0  0  0  0  0  0  0  0
   22.3550   -8.1499  -16.5970 N   0  0  0  0  0  0  0  0  0  0  0  0
   20.9374   -6.3249  -15.8770 C   0  0  0  0  0  0  0  0  0  0  0  0
   19.9082   -7.0790  -15.9733 O   0  0  0  0  0  0  0  0  0  0  0  0
   20.7453   -5.1877  -15.1178 O   0  0  0  0  0  0  0  0  0  0  0  0
  2  1  1  1
  2  3  1  0
  3  4  1  0
  4  9  2  0
  5  6  2  0
  5  4  1  0
  6  7  1  0
  7  8  2  0
  9  8  1  0
 10 11  2  0
 10  2  1  0
 12 13  1  0
 13 14  1  0
 14 15  1  6
 14 16  1  0
 16 17  1  6
 17 10  1  0
 18 26  1  0
 18 16  1  0
 19 18  2  0
 20 21  1  0
 21 23  1  0
 21 22  2  0
 23 24  1  0
 25 24  1  6
 25 26  1  0
 25 27  1  0
 27 29  1  0
 28 27  2  0
M  END
$$$$
