FIQ.pdb
     RDKit          3D

 29 29  0  0  1  0  0  0  0  0999 V2000
   26.5346  -18.4018   -7.4957 N   0  0  0  0  0  0  0  0  0  0  0  0
   26.8666  -19.6702   -8.0935 C   0  0  1  0  0  0  0  0  0  0  0  0
   26.6771  -20.7308   -7.0188 C   0  0  0  0  0  0  0  0  0  0  0  0
   27.6353  -20.4291   -5.9303 C   0  0  0  0  0  0  0  0  0  0  0  0
   27.1799  -20.0506   -4.6927 C   0  0  0  0  0  0  0  0  0  0  0  0
   28.0778  -19.7649   -3.6625 C   0  0  0  0  0  0  0  0  0  0  0  0
   29.4468  -19.8682   -3.9039 C   0  0  0  0  0  0  0  0  0  0  0  0
   29.9112  -20.2472   -5.1425 C   0  0  0  0  0  0  0  0  0  0  0  0
   28.9975  -20.5220   -6.1373 C   0  0  0  0  0  0  0  0  0  0  0  0
   26.0346  -19.9562   -9.2851 C   0  0  0  0  0  0  0  0  0  0  0  0
   24.8058  -19.6590   -9.2324 O   0  0  0  0  0  0  0  0  0  0  0  0
   27.3427  -18.3319  -14.1705 C   0  0  0  0  0  0  0  0  0  0  0  0
   26.9063  -19.7608  -14.0065 C   0  0  0  0  0  0  0  0  0  0  0  0
   27.3609  -20.3271  -12.6569 C   0  0  2  0  0  0  0  0  0  0  0  0
   27.7875  -21.7465  -12.7960 C   0  0  0  0  0  0  0  0  0  0  0  0
   26.1581  -20.1549  -11.7466 C   0  0  2  0  0  0  0  0  0  0  0  0
   26.6444  -20.5387  -10.4073 N   0  0  0  0  0  0  0  0  0  0  0  0
   24.9960  -20.9720  -12.1034 C   0  0  0  0  0  0  0  0  0  0  0  0
   24.9611  -22.2260  -11.8189 O   0  0  0  0  0  0  0  0  0  0  0  0
   20.5814  -21.8726   -9.7605 N   0  0  0  0  0  0  0  0  0  0  0  0
   19.8396  -22.0597  -10.9515 C   0  0  0  0  0  0  0  0  0  0  0  0
   18.7623  -22.6919  -10.9880 O   0  0  0  0  0  0  0  0  0  0  0  0
   20.3713  -21.4743  -12.2166 C   0  0  0  0  0  0  0  0  0  0  0  0
   21.6748  -20.7892  -12.0066 C   0  0  0  0  0  0  0  0  0  0  0  0
   22.6761  -21.2352  -13.0386 C   0  0  2  0  0  0  0  0  0  0  0  0
   23.8826  -20.4412  -12.7560 N   0  0  0  0  0  0  0  0  0  0  0  0
   22.2192  -21.0471  -14.4066 C   0  0  0  0  0  0  0  0  0  0  0  0
   22.4279  -19.9402  -15.0136 O   0  0  0  0  0  0  0  0  0  0  0  0
   21.5498  -21.9941  -15.1561 O   0  0  0  0  0  0  0  0  0  0  0  0
  2  1  1  1
  2  3  1  0
  3  4  1  0
  4  9  2  0
  5  6  2  0
  5  4  1  0
  6  7  1  0
  7  8  2  0
  9  8  1  0
 10 11  2  0
 10  2  1  0
 12 13  1  0
 13 14  1  0
 14 15  1  6
 14 16  1  0
 16 17  1  1
 17 10  1  0
 18 26  1  0
 18 16  1  0
 19 18  2  0
 20 21  1  0
 21 23  1  0
 21 22  2  0
 23 24  1  0
 25 24  1  1
 25 26  1  0
 25 27  1  0
 27 29  1  0
 28 27  2  0
M  END
$$$$
