PEP.pdb
     RDKit          3D

 24 25  0  0  1  0  0  0  0  0999 V2000
    8.8574  -15.0010   19.4786 N   0  0  0  0  0  0  0  0  0  0  0  0
    7.7820  -15.0162   18.5640 C   0  0  0  0  0  0  0  0  0  0  0  0
    7.1347  -13.6627   18.5817 C   0  0  0  0  0  0  0  0  0  0  0  0
    8.0046  -12.8070   19.4504 C   0  0  0  0  0  0  0  0  0  0  0  0
    8.8302  -13.8073   20.2137 C   0  0  1  0  0  0  0  0  0  0  0  0
    8.2188  -13.9282   21.5862 C   0  0  0  0  0  0  0  0  0  0  0  0
    7.9232  -12.8880   22.2370 O   0  0  0  0  0  0  0  0  0  0  0  0
    7.9464  -15.1615   22.2154 N   0  0  0  0  0  0  0  0  0  0  0  0
    7.5139  -15.4075   23.5199 C   0  0  1  0  0  0  0  0  0  0  0  0
    7.3201  -16.8920   23.8571 C   0  0  0  0  0  0  0  0  0  0  0  0
    6.6745  -17.1046   25.1923 C   0  0  0  0  0  0  0  0  0  0  0  0
    6.7438  -18.5431   25.6013 C   0  0  0  0  0  0  0  0  0  0  0  0
    6.8142  -19.4847   24.7891 O   0  0  0  0  0  0  0  0  0  0  0  0
    8.1358  -14.8008   24.6655 C   0  0  0  0  0  0  0  0  0  0  0  0
    9.2948  -15.2930   24.9673 O   0  0  0  0  0  0  0  0  0  0  0  0
    6.7280  -18.8280   26.9514 O   0  0  0  0  0  0  0  0  0  0  0  0
    7.6843  -13.7554   25.5110 N   0  0  0  0  0  0  0  0  0  0  0  0
    6.4538  -13.0600   25.3375 C   0  0  0  0  0  0  0  0  0  0  0  0
    6.2157  -12.3536   26.6369 C   0  0  0  0  0  0  0  0  0  0  0  0
    7.5167  -12.2900   27.3458 C   0  0  0  0  0  0  0  0  0  0  0  0
    8.4165  -13.2358   26.6116 C   0  0  1  0  0  0  0  0  0  0  0  0
    8.8500  -14.3461   27.5458 C   0  0  0  0  0  0  0  0  0  0  0  0
    9.8476  -14.1770   28.4814 O   0  0  0  0  0  0  0  0  0  0  0  0
    8.2786  -15.4467   27.4564 O   0  0  0  0  0  0  0  0  0  0  0  0
  1  2  1  0
  2  3  1  0
  4  3  1  0
  5  4  1  0
  5  1  1  0
  5  6  1  1
  6  7  2  0
  8  6  1  0
  8  9  1  0
  9 14  1  0
  9 10  1  1
 11 10  1  0
 12 16  1  0
 12 11  1  0
 13 12  2  0
 14 17  1  0
 14 15  2  0
 17 21  1  0
 18 17  1  0
 18 19  1  0
 19 20  1  0
 20 21  1  0
 21 22  1  1
 22 24  2  0
 22 23  1  0
M  END
$$$$
