PEP.pdb
     RDKit          3D

 24 25  0  0  1  0  0  0  0  0999 V2000
    8.4554  -15.0743   19.1350 N   0  0  0  0  0  0  0  0  0  0  0  0
    7.5844  -14.4099   18.2443 C   0  0  0  0  0  0  0  0  0  0  0  0
    7.4172  -12.9972   18.7212 C   0  0  0  0  0  0  0  0  0  0  0  0
    8.3764  -12.8361   19.8603 C   0  0  0  0  0  0  0  0  0  0  0  0
    8.7071  -14.2535   20.2435 C   0  0  1  0  0  0  0  0  0  0  0  0
    7.8900  -14.5817   21.4669 C   0  0  0  0  0  0  0  0  0  0  0  0
    6.7219  -14.1188   21.5859 O   0  0  0  0  0  0  0  0  0  0  0  0
    8.3544  -15.3944   22.5228 N   0  0  0  0  0  0  0  0  0  0  0  0
    7.8467  -15.5324   23.8161 C   0  0  1  0  0  0  0  0  0  0  0  0
    7.7172  -16.9837   24.2978 C   0  0  0  0  0  0  0  0  0  0  0  0
    7.0450  -17.0948   25.6321 C   0  0  0  0  0  0  0  0  0  0  0  0
    6.9012  -18.5265   26.0453 C   0  0  0  0  0  0  0  0  0  0  0  0
    7.2000  -18.9469   27.1790 O   0  0  0  0  0  0  0  0  0  0  0  0
    8.3500  -14.7710   24.9271 C   0  0  0  0  0  0  0  0  0  0  0  0
    9.5337  -15.1187   25.3202 O   0  0  0  0  0  0  0  0  0  0  0  0
    6.4108  -19.4175   25.1126 O   0  0  0  0  0  0  0  0  0  0  0  0
    7.7597  -13.7066   25.6551 N   0  0  0  0  0  0  0  0  0  0  0  0
    6.5521  -13.0522   25.2792 C   0  0  0  0  0  0  0  0  0  0  0  0
    6.1151  -12.3031   26.5007 C   0  0  0  0  0  0  0  0  0  0  0  0
    7.2994  -12.1768   27.3842 C   0  0  0  0  0  0  0  0  0  0  0  0
    8.3153  -13.1253   26.8259 C   0  0  1  0  0  0  0  0  0  0  0  0
    8.6342  -14.1866   27.8580 C   0  0  0  0  0  0  0  0  0  0  0  0
    9.4711  -13.9496   28.9271 O   0  0  0  0  0  0  0  0  0  0  0  0
    8.1171  -15.3095   27.7262 O   0  0  0  0  0  0  0  0  0  0  0  0
  1  2  1  0
  2  3  1  0
  4  3  1  0
  5  4  1  0
  5  1  1  0
  5  6  1  1
  6  7  2  0
  8  6  1  0
  8  9  1  0
  9 14  1  0
  9 10  1  1
 11 10  1  0
 12 16  1  0
 12 11  1  0
 13 12  2  0
 14 17  1  0
 14 15  2  0
 17 21  1  0
 18 17  1  0
 18 19  1  0
 19 20  1  0
 20 21  1  0
 21 22  1  1
 22 24  2  0
 22 23  1  0
M  END
$$$$
