PEP.pdb
     RDKit          3D

 24 25  0  0  1  0  0  0  0  0999 V2000
    8.8269  -14.9019   19.5053 N   0  0  0  0  0  0  0  0  0  0  0  0
    8.0540  -14.4165   18.4281 C   0  0  0  0  0  0  0  0  0  0  0  0
    7.6108  -13.0225   18.7622 C   0  0  0  0  0  0  0  0  0  0  0  0
    8.3112  -12.6676   20.0378 C   0  0  0  0  0  0  0  0  0  0  0  0
    8.7546  -14.0009   20.5770 C   0  0  1  0  0  0  0  0  0  0  0  0
    7.7772  -14.3868   21.6577 C   0  0  0  0  0  0  0  0  0  0  0  0
    6.7391  -13.6936   21.8437 O   0  0  0  0  0  0  0  0  0  0  0  0
    7.9473  -15.5030   22.5041 N   0  0  0  0  0  0  0  0  0  0  0  0
    7.5434  -15.6719   23.8299 C   0  0  1  0  0  0  0  0  0  0  0  0
    7.5109  -17.1309   24.3045 C   0  0  0  0  0  0  0  0  0  0  0  0
    6.8416  -17.2938   25.6351 C   0  0  0  0  0  0  0  0  0  0  0  0
    6.8273  -18.7297   26.0586 C   0  0  0  0  0  0  0  0  0  0  0  0
    7.7656  -19.2740   26.6707 O   0  0  0  0  0  0  0  0  0  0  0  0
    8.0959  -14.8981   24.9085 C   0  0  0  0  0  0  0  0  0  0  0  0
    9.3260  -15.1833   25.1950 O   0  0  0  0  0  0  0  0  0  0  0  0
    5.7106  -19.4790   25.7490 O   0  0  0  0  0  0  0  0  0  0  0  0
    7.5111  -13.8786   25.7024 N   0  0  0  0  0  0  0  0  0  0  0  0
    6.2312  -13.3057   25.4546 C   0  0  0  0  0  0  0  0  0  0  0  0
    5.8688  -12.5924   26.7210 C   0  0  0  0  0  0  0  0  0  0  0  0
    7.1239  -12.3898   27.4843 C   0  0  0  0  0  0  0  0  0  0  0  0
    8.1403  -13.2656   26.8184 C   0  0  1  0  0  0  0  0  0  0  0  0
    8.6302  -14.3068   27.8029 C   0  0  0  0  0  0  0  0  0  0  0  0
    9.5141  -14.0067   28.8169 O   0  0  0  0  0  0  0  0  0  0  0  0
    8.2140  -15.4721   27.6824 O   0  0  0  0  0  0  0  0  0  0  0  0
  1  2  1  0
  2  3  1  0
  4  3  1  0
  5  4  1  0
  5  1  1  0
  5  6  1  1
  6  7  2  0
  8  6  1  0
  8  9  1  0
  9 14  1  0
  9 10  1  1
 11 10  1  0
 12 16  1  0
 12 11  1  0
 13 12  2  0
 14 17  1  0
 14 15  2  0
 17 21  1  0
 18 17  1  0
 18 19  1  0
 19 20  1  0
 20 21  1  0
 21 22  1  1
 22 24  2  0
 22 23  1  0
M  END
$$$$
