PEP.pdb
     RDKit          3D

 24 25  0  0  1  0  0  0  0  0999 V2000
    9.0982  -14.9083   19.7274 N   0  0  0  0  0  0  0  0  0  0  0  0
    8.2285  -15.0074   18.6196 C   0  0  0  0  0  0  0  0  0  0  0  0
    7.4350  -13.7369   18.5337 C   0  0  0  0  0  0  0  0  0  0  0  0
    8.0143  -12.8245   19.5708 C   0  0  0  0  0  0  0  0  0  0  0  0
    8.7895  -13.7556   20.4635 C   0  0  1  0  0  0  0  0  0  0  0  0
    7.9438  -13.9992   21.6873 C   0  0  0  0  0  0  0  0  0  0  0  0
    7.2181  -13.0735   22.1448 O   0  0  0  0  0  0  0  0  0  0  0  0
    7.9063  -15.2277   22.3804 N   0  0  0  0  0  0  0  0  0  0  0  0
    7.4844  -15.4895   23.6853 C   0  0  1  0  0  0  0  0  0  0  0  0
    7.3914  -16.9804   24.0373 C   0  0  0  0  0  0  0  0  0  0  0  0
    6.7774  -17.2222   25.3824 C   0  0  0  0  0  0  0  0  0  0  0  0
    6.7275  -18.6850   25.6968 C   0  0  0  0  0  0  0  0  0  0  0  0
    6.6302  -19.5709   24.8267 O   0  0  0  0  0  0  0  0  0  0  0  0
    8.0566  -14.8297   24.8276 C   0  0  0  0  0  0  0  0  0  0  0  0
    9.2552  -15.2190   25.1243 O   0  0  0  0  0  0  0  0  0  0  0  0
    6.7936  -19.0590   27.0234 O   0  0  0  0  0  0  0  0  0  0  0  0
    7.5199  -13.8264   25.6742 N   0  0  0  0  0  0  0  0  0  0  0  0
    6.2180  -13.2679   25.5288 C   0  0  0  0  0  0  0  0  0  0  0  0
    5.9420  -12.5728   26.8267 C   0  0  0  0  0  0  0  0  0  0  0  0
    7.2479  -12.3616   27.4970 C   0  0  0  0  0  0  0  0  0  0  0  0
    8.2227  -13.2168   26.7474 C   0  0  1  0  0  0  0  0  0  0  0  0
    8.7975  -14.2617   27.6808 C   0  0  0  0  0  0  0  0  0  0  0  0
    8.3994  -15.5808   27.6480 O   0  0  0  0  0  0  0  0  0  0  0  0
    9.6590  -13.9055   28.5034 O   0  0  0  0  0  0  0  0  0  0  0  0
  1  2  1  0
  2  3  1  0
  4  3  1  0
  5  4  1  0
  5  1  1  0
  5  6  1  1
  6  7  2  0
  8  6  1  0
  8  9  1  0
  9 14  1  0
  9 10  1  1
 11 10  1  0
 12 16  1  0
 12 11  1  0
 13 12  2  0
 14 17  1  0
 14 15  2  0
 17 21  1  0
 18 17  1  0
 18 19  1  0
 19 20  1  0
 20 21  1  0
 21 22  1  1
 22 24  2  0
 22 23  1  0
M  END
$$$$
