PEP.pdb
     RDKit          3D

 24 25  0  0  1  0  0  0  0  0999 V2000
    8.5937  -15.1386   20.0941 N   0  0  0  0  0  0  0  0  0  0  0  0
    7.6222  -14.6803   19.1779 C   0  0  0  0  0  0  0  0  0  0  0  0
    7.2935  -13.2566   19.5191 C   0  0  0  0  0  0  0  0  0  0  0  0
    8.2564  -12.8638   20.5970 C   0  0  0  0  0  0  0  0  0  0  0  0
    8.7718  -14.1834   21.1049 C   0  0  1  0  0  0  0  0  0  0  0  0
    8.0364  -14.4803   22.3868 C   0  0  0  0  0  0  0  0  0  0  0  0
    7.1146  -13.7109   22.7758 O   0  0  0  0  0  0  0  0  0  0  0  0
    8.3158  -15.5921   23.2095 N   0  0  0  0  0  0  0  0  0  0  0  0
    8.1079  -15.7461   24.5815 C   0  0  1  0  0  0  0  0  0  0  0  0
    7.3703  -17.0337   24.9730 C   0  0  0  0  0  0  0  0  0  0  0  0
    6.1736  -17.3018   24.1123 C   0  0  0  0  0  0  0  0  0  0  0  0
    6.0297  -18.7651   23.8306 C   0  0  0  0  0  0  0  0  0  0  0  0
    5.7192  -19.2217   22.7142 O   0  0  0  0  0  0  0  0  0  0  0  0
    9.1584  -15.5615   25.5458 C   0  0  0  0  0  0  0  0  0  0  0  0
   10.1650  -16.3625   25.3989 O   0  0  0  0  0  0  0  0  0  0  0  0
    6.2554  -19.6441   24.8702 O   0  0  0  0  0  0  0  0  0  0  0  0
    9.2660  -14.6470   26.6245 N   0  0  0  0  0  0  0  0  0  0  0  0
    8.4322  -13.5048   26.7923 C   0  0  0  0  0  0  0  0  0  0  0  0
    8.6303  -13.0800   28.2151 C   0  0  0  0  0  0  0  0  0  0  0  0
    9.8948  -13.6965   28.6844 C   0  0  0  0  0  0  0  0  0  0  0  0
   10.2437  -14.7238   27.6518 C   0  0  1  0  0  0  0  0  0  0  0  0
   10.2512  -16.0971   28.2902 C   0  0  0  0  0  0  0  0  0  0  0  0
   11.2759  -16.5275   29.1051 O   0  0  0  0  0  0  0  0  0  0  0  0
    9.2930  -16.8563   28.0637 O   0  0  0  0  0  0  0  0  0  0  0  0
  1  2  1  0
  2  3  1  0
  4  3  1  0
  5  4  1  0
  5  1  1  0
  5  6  1  1
  6  7  2  0
  8  6  1  0
  8  9  1  0
  9 14  1  0
  9 10  1  6
 11 10  1  0
 12 16  1  0
 12 11  1  0
 13 12  2  0
 14 17  1  0
 14 15  2  0
 17 21  1  0
 18 17  1  0
 18 19  1  0
 19 20  1  0
 20 21  1  0
 21 22  1  1
 22 24  2  0
 22 23  1  0
M  END
$$$$
