PEP.pdb
     RDKit          3D

 24 25  0  0  1  0  0  0  0  0999 V2000
    8.6099  -14.9340   19.1328 N   0  0  0  0  0  0  0  0  0  0  0  0
    7.6959  -14.4197   18.1875 C   0  0  0  0  0  0  0  0  0  0  0  0
    7.3163  -13.0317   18.6124 C   0  0  0  0  0  0  0  0  0  0  0  0
    8.1937  -12.7102   19.7830 C   0  0  0  0  0  0  0  0  0  0  0  0
    8.6981  -14.0579   20.2238 C   0  0  1  0  0  0  0  0  0  0  0  0
    7.8809  -14.4639   21.4236 C   0  0  0  0  0  0  0  0  0  0  0  0
    6.6858  -14.0728   21.5322 O   0  0  0  0  0  0  0  0  0  0  0  0
    8.3740  -15.2748   22.4678 N   0  0  0  0  0  0  0  0  0  0  0  0
    7.8447  -15.4869   23.7423 C   0  0  1  0  0  0  0  0  0  0  0  0
    7.7505  -16.9620   24.1551 C   0  0  0  0  0  0  0  0  0  0  0  0
    7.1518  -17.1469   25.5161 C   0  0  0  0  0  0  0  0  0  0  0  0
    7.0922  -18.5964   25.8859 C   0  0  0  0  0  0  0  0  0  0  0  0
    7.6429  -19.4966   25.2244 O   0  0  0  0  0  0  0  0  0  0  0  0
    8.3018  -14.7625   24.8972 C   0  0  0  0  0  0  0  0  0  0  0  0
    9.4898  -15.0879   25.2960 O   0  0  0  0  0  0  0  0  0  0  0  0
    6.3872  -18.9406   27.0211 O   0  0  0  0  0  0  0  0  0  0  0  0
    7.6621  -13.7545   25.6628 N   0  0  0  0  0  0  0  0  0  0  0  0
    6.3921  -13.1932   25.3464 C   0  0  0  0  0  0  0  0  0  0  0  0
    5.9509  -12.4923   26.5946 C   0  0  0  0  0  0  0  0  0  0  0  0
    7.1586  -12.2819   27.4291 C   0  0  0  0  0  0  0  0  0  0  0  0
    8.2204  -13.1425   26.8166 C   0  0  1  0  0  0  0  0  0  0  0  0
    8.6650  -14.1852   27.8208 C   0  0  0  0  0  0  0  0  0  0  0  0
    9.5175  -13.8910   28.8629 O   0  0  0  0  0  0  0  0  0  0  0  0
    8.2397  -15.3462   27.6907 O   0  0  0  0  0  0  0  0  0  0  0  0
  1  2  1  0
  2  3  1  0
  4  3  1  0
  5  4  1  0
  5  1  1  0
  5  6  1  1
  6  7  2  0
  8  6  1  0
  8  9  1  0
  9 14  1  0
  9 10  1  1
 11 10  1  0
 12 16  1  0
 12 11  1  0
 13 12  2  0
 14 17  1  0
 14 15  2  0
 17 21  1  0
 18 17  1  0
 18 19  1  0
 19 20  1  0
 20 21  1  0
 21 22  1  1
 22 24  2  0
 22 23  1  0
M  END
$$$$
