PLG.pdb
     RDKit          3D

 20 20  0  0  1  0  0  0  0  0999 V2000
   21.4836   -8.3066  -19.2929 N   0  0  0  0  0  0  0  0  0  0  0  0
   21.7970   -9.4563  -20.0850 C   0  0  0  0  0  0  0  0  0  0  0  0
   20.4189   -9.9792  -20.4958 C   0  0  0  0  0  0  0  0  0  0  0  0
   19.6575   -9.8217  -19.1931 C   0  0  0  0  0  0  0  0  0  0  0  0
   20.2013   -8.4911  -18.6950 C   0  0  1  0  0  0  0  0  0  0  0  0
   20.2389   -8.5587  -17.2141 C   0  0  0  0  0  0  0  0  0  0  0  0
   19.2095   -8.7726  -16.5212 O   0  0  0  0  0  0  0  0  0  0  0  0
   21.6013  -11.4961  -14.3966 C   0  0  0  0  0  0  0  0  0  0  0  0
   22.6919  -10.8352  -15.2628 C   0  0  2  0  0  0  0  0  0  0  0  0
   23.9624  -11.6296  -15.0477 C   0  0  0  0  0  0  0  0  0  0  0  0
   22.8540   -9.4013  -14.8843 C   0  0  0  0  0  0  0  0  0  0  0  0
   21.6494   -8.5310  -15.1222 C   0  0  2  0  0  0  0  0  0  0  0  0
   21.4996   -8.3708  -16.5826 N   0  0  0  0  0  0  0  0  0  0  0  0
   21.8873   -7.1830  -14.5613 C   0  0  0  0  0  0  0  0  0  0  0  0
   21.9713   -7.0568  -13.3065 O   0  0  0  0  0  0  0  0  0  0  0  0
   22.0158   -6.0650  -15.4295 N   0  0  0  0  0  0  0  0  0  0  0  0
   22.2697   -4.7644  -14.8718 C   0  0  0  0  0  0  0  0  0  0  0  0
   20.9818   -4.0402  -14.5819 C   0  0  0  0  0  0  0  0  0  0  0  0
   19.8572   -4.5595  -14.7875 O   0  0  0  0  0  0  0  0  0  0  0  0
   21.0218   -2.7533  -14.0694 O   0  0  0  0  0  0  0  0  0  0  0  0
  1  2  1  0
  3  2  1  0
  4  5  1  0
  4  3  1  0
  5  1  1  0
  5  6  1  1
  7  6  2  0
  9  8  1  1
  9 11  1  0
 10  9  1  0
 12 11  1  6
 12 13  1  0
 13  6  1  0
 14 15  2  0
 14 12  1  0
 16 14  1  0
 17 16  1  0
 17 18  1  0
 18 20  1  0
 19 18  2  0
M  END
$$$$
