PLG.pdb
     RDKit          3D

 20 20  0  0  1  0  0  0  0  0999 V2000
   25.5904  -11.9878  -16.8560 N   0  0  0  0  0  0  0  0  0  0  0  0
   26.9786  -11.6783  -17.0133 C   0  0  0  0  0  0  0  0  0  0  0  0
   27.4070  -11.2830  -15.5985 C   0  0  0  0  0  0  0  0  0  0  0  0
   26.2216  -10.4388  -15.1701 C   0  0  0  0  0  0  0  0  0  0  0  0
   25.0673  -11.2312  -15.7653 C   0  0  1  0  0  0  0  0  0  0  0  0
   24.0241  -10.2554  -16.1636 C   0  0  0  0  0  0  0  0  0  0  0  0
   23.8953   -9.8501  -17.3488 O   0  0  0  0  0  0  0  0  0  0  0  0
   19.7695   -9.9732  -17.2290 C   0  0  0  0  0  0  0  0  0  0  0  0
   20.2662  -10.5381  -15.8835 C   0  0  2  0  0  0  0  0  0  0  0  0
   19.0957  -11.2638  -15.2550 C   0  0  0  0  0  0  0  0  0  0  0  0
   20.7757   -9.4358  -15.0169 C   0  0  0  0  0  0  0  0  0  0  0  0
   22.0750   -8.8171  -15.4572 C   0  0  2  0  0  0  0  0  0  0  0  0
   23.1520   -9.7784  -15.1461 N   0  0  0  0  0  0  0  0  0  0  0  0
   22.3422   -7.5968  -14.6648 C   0  0  0  0  0  0  0  0  0  0  0  0
   22.5316   -7.7138  -13.4206 O   0  0  0  0  0  0  0  0  0  0  0  0
   22.3812   -6.3285  -15.3050 N   0  0  0  0  0  0  0  0  0  0  0  0
   22.7729   -5.1691  -14.5503 C   0  0  0  0  0  0  0  0  0  0  0  0
   21.5737   -4.4859  -13.9484 C   0  0  0  0  0  0  0  0  0  0  0  0
   20.4144   -4.9597  -14.0379 O   0  0  0  0  0  0  0  0  0  0  0  0
   21.7386   -3.2901  -13.2678 O   0  0  0  0  0  0  0  0  0  0  0  0
  1  2  1  0
  3  2  1  0
  4  5  1  0
  4  3  1  0
  5  1  1  0
  5  6  1  6
  7  6  2  0
  9  8  1  6
  9 11  1  0
 10  9  1  0
 12 11  1  1
 12 13  1  0
 13  6  1  0
 14 15  2  0
 14 12  1  0
 16 14  1  0
 17 16  1  0
 17 18  1  0
 18 20  1  0
 19 18  2  0
M  END
$$$$
