PLG.pdb
     RDKit          3D

 20 20  0  0  1  0  0  0  0  0999 V2000
   29.0812  -20.6033  -11.2238 N   0  0  0  0  0  0  0  0  0  0  0  0
   30.3315  -19.9164  -11.3343 C   0  0  0  0  0  0  0  0  0  0  0  0
   31.3558  -21.0517  -11.2772 C   0  0  0  0  0  0  0  0  0  0  0  0
   30.7642  -21.9105  -10.1755 C   0  0  0  0  0  0  0  0  0  0  0  0
   29.2796  -21.8128  -10.4933 C   0  0  1  0  0  0  0  0  0  0  0  0
   28.5505  -21.8554   -9.2027 C   0  0  0  0  0  0  0  0  0  0  0  0
   28.6251  -22.8363   -8.4166 O   0  0  0  0  0  0  0  0  0  0  0  0
   28.4893  -20.6702   -4.9630 C   0  0  0  0  0  0  0  0  0  0  0  0
   28.6596  -19.6109   -6.0699 C   0  0  2  0  0  0  0  0  0  0  0  0
   29.0514  -18.3199   -5.3832 C   0  0  0  0  0  0  0  0  0  0  0  0
   27.3961  -19.4719   -6.8507 C   0  0  0  0  0  0  0  0  0  0  0  0
   26.9700  -20.6980   -7.6124 C   0  0  2  0  0  0  0  0  0  0  0  0
   27.7454  -20.7312   -8.8688 N   0  0  0  0  0  0  0  0  0  0  0  0
   25.5436  -20.5838   -7.9873 C   0  0  0  0  0  0  0  0  0  0  0  0
   24.6908  -20.4037   -7.0720 O   0  0  0  0  0  0  0  0  0  0  0  0
   25.1582  -20.6773   -9.3522 N   0  0  0  0  0  0  0  0  0  0  0  0
   23.7781  -20.4914   -9.7098 C   0  0  0  0  0  0  0  0  0  0  0  0
   23.6034  -20.4877  -11.2053 C   0  0  0  0  0  0  0  0  0  0  0  0
   24.5429  -20.7593  -11.9928 O   0  0  0  0  0  0  0  0  0  0  0  0
   22.3674  -20.1753  -11.7482 O   0  0  0  0  0  0  0  0  0  0  0  0
  1  2  1  0
  3  2  1  0
  4  5  1  0
  4  3  1  0
  5  1  1  0
  5  6  1  1
  7  6  2  0
  9  8  1  1
  9 11  1  0
 10  9  1  0
 12 11  1  1
 12 13  1  0
 13  6  1  0
 14 15  2  0
 14 12  1  0
 16 14  1  0
 17 16  1  0
 17 18  1  0
 18 20  1  0
 19 18  2  0
M  END
$$$$
