PLG.pdb
     RDKit          3D

 20 20  0  0  1  0  0  0  0  0999 V2000
   26.2539  -18.9208  -14.7109 N   0  0  0  0  0  0  0  0  0  0  0  0
   27.4946  -18.3030  -14.3551 C   0  0  0  0  0  0  0  0  0  0  0  0
   28.5370  -19.2712  -14.9184 C   0  0  0  0  0  0  0  0  0  0  0  0
   27.9207  -20.6035  -14.5356 C   0  0  0  0  0  0  0  0  0  0  0  0
   26.4474  -20.3316  -14.8004 C   0  0  1  0  0  0  0  0  0  0  0  0
   25.6716  -21.1037  -13.7999 C   0  0  0  0  0  0  0  0  0  0  0  0
   25.7261  -22.3595  -13.7254 O   0  0  0  0  0  0  0  0  0  0  0  0
   26.3787  -21.9275   -9.9774 C   0  0  0  0  0  0  0  0  0  0  0  0
   25.9286  -20.4715  -10.2087 C   0  0  2  0  0  0  0  0  0  0  0  0
   26.2584  -19.7057   -8.9451 C   0  0  0  0  0  0  0  0  0  0  0  0
   24.4726  -20.4257  -10.5305 C   0  0  0  0  0  0  0  0  0  0  0  0
   24.0816  -21.0530  -11.8414 C   0  0  2  0  0  0  0  0  0  0  0  0
   24.8445  -20.3696  -12.9052 N   0  0  0  0  0  0  0  0  0  0  0  0
   22.6482  -20.8027  -12.1082 C   0  0  0  0  0  0  0  0  0  0  0  0
   21.8210  -20.9648  -11.1664 O   0  0  0  0  0  0  0  0  0  0  0  0
   22.2280  -20.3898  -13.4016 N   0  0  0  0  0  0  0  0  0  0  0  0
   20.8230  -20.2657  -13.6807 C   0  0  0  0  0  0  0  0  0  0  0  0
   20.5935  -19.7182  -15.0644 C   0  0  0  0  0  0  0  0  0  0  0  0
   21.5320  -19.5279  -15.8766 O   0  0  0  0  0  0  0  0  0  0  0  0
   19.3058  -19.4080  -15.4716 O   0  0  0  0  0  0  0  0  0  0  0  0
  1  2  1  0
  3  2  1  0
  4  5  1  0
  4  3  1  0
  5  1  1  0
  5  6  1  1
  7  6  2  0
  9  8  1  1
  9 11  1  0
 10  9  1  0
 12 11  1  1
 12 13  1  0
 13  6  1  0
 14 15  2  0
 14 12  1  0
 16 14  1  0
 17 16  1  0
 17 18  1  0
 18 20  1  0
 19 18  2  0
M  END
$$$$
