PLG.pdb
     RDKit          3D

 20 20  0  0  1  0  0  0  0  0999 V2000
   26.8713  -19.3329  -14.2772 N   0  0  0  0  0  0  0  0  0  0  0  0
   28.1890  -18.8051  -14.0964 C   0  0  0  0  0  0  0  0  0  0  0  0
   29.0877  -19.9493  -14.5705 C   0  0  0  0  0  0  0  0  0  0  0  0
   28.3782  -21.1397  -13.9533 C   0  0  0  0  0  0  0  0  0  0  0  0
   26.9217  -20.7543  -14.1643 C   0  0  1  0  0  0  0  0  0  0  0  0
   26.1551  -21.2877  -13.0124 C   0  0  0  0  0  0  0  0  0  0  0  0
   26.0782  -22.5198  -12.7643 O   0  0  0  0  0  0  0  0  0  0  0  0
   26.5436  -21.5678   -8.7203 C   0  0  0  0  0  0  0  0  0  0  0  0
   26.4047  -20.1572   -9.3261 C   0  0  2  0  0  0  0  0  0  0  0  0
   26.7490  -19.1737   -8.2281 C   0  0  0  0  0  0  0  0  0  0  0  0
   25.0230  -19.9539   -9.8506 C   0  0  0  0  0  0  0  0  0  0  0  0
   24.6557  -20.7940  -11.0440 C   0  0  2  0  0  0  0  0  0  0  0  0
   25.4930  -20.3472  -12.1754 N   0  0  0  0  0  0  0  0  0  0  0  0
   23.2479  -20.5399  -11.4208 C   0  0  0  0  0  0  0  0  0  0  0  0
   22.3426  -20.7783  -10.5717 O   0  0  0  0  0  0  0  0  0  0  0  0
   22.9383  -20.0386  -12.7143 N   0  0  0  0  0  0  0  0  0  0  0  0
   21.5643  -19.8151  -13.0739 C   0  0  0  0  0  0  0  0  0  0  0  0
   21.0665  -20.8921  -14.0010 C   0  0  0  0  0  0  0  0  0  0  0  0
   21.6474  -21.9990  -14.1192 O   0  0  0  0  0  0  0  0  0  0  0  0
   19.9276  -20.6694  -14.7581 O   0  0  0  0  0  0  0  0  0  0  0  0
  1  2  1  0
  3  2  1  0
  4  5  1  0
  4  3  1  0
  5  1  1  0
  5  6  1  1
  7  6  2  0
  9  8  1  1
  9 11  1  0
 10  9  1  0
 12 11  1  1
 12 13  1  0
 13  6  1  0
 14 15  2  0
 14 12  1  0
 16 14  1  0
 17 16  1  0
 17 18  1  0
 18 20  1  0
 19 18  2  0
M  END
$$$$
