PLG.pdb
     RDKit          3D

 20 20  0  0  1  0  0  0  0  0999 V2000
   20.0181  -11.3942  -19.5204 N   0  0  0  0  0  0  0  0  0  0  0  0
   18.9044  -11.2628  -20.4091 C   0  0  0  0  0  0  0  0  0  0  0  0
   19.2762  -10.0403  -21.2509 C   0  0  0  0  0  0  0  0  0  0  0  0
   19.8346   -9.1205  -20.1814 C   0  0  0  0  0  0  0  0  0  0  0  0
   20.6034  -10.1089  -19.3174 C   0  0  1  0  0  0  0  0  0  0  0  0
   20.5154   -9.6290  -17.9170 C   0  0  0  0  0  0  0  0  0  0  0  0
   19.5498   -9.9194  -17.1627 O   0  0  0  0  0  0  0  0  0  0  0  0
   21.5123  -10.0663  -13.5330 C   0  0  0  0  0  0  0  0  0  0  0  0
   22.5007  -10.1882  -14.7096 C   0  0  2  0  0  0  0  0  0  0  0  0
   23.7738  -10.7874  -14.1510 C   0  0  0  0  0  0  0  0  0  0  0  0
   22.7330   -8.8515  -15.3299 C   0  0  0  0  0  0  0  0  0  0  0  0
   21.5564   -8.2680  -16.0648 C   0  0  2  0  0  0  0  0  0  0  0  0
   21.5767   -8.8122  -17.4375 N   0  0  0  0  0  0  0  0  0  0  0  0
   21.7145   -6.8016  -16.1785 C   0  0  0  0  0  0  0  0  0  0  0  0
   22.8719   -6.3318  -16.3713 O   0  0  0  0  0  0  0  0  0  0  0  0
   20.5786   -5.9542  -16.0705 N   0  0  0  0  0  0  0  0  0  0  0  0
   20.7339   -4.5380  -16.2643 C   0  0  0  0  0  0  0  0  0  0  0  0
   19.4013   -3.8382  -16.2260 C   0  0  0  0  0  0  0  0  0  0  0  0
   18.3153   -4.4635  -16.1469 O   0  0  0  0  0  0  0  0  0  0  0  0
   19.3544   -2.4543  -16.2791 O   0  0  0  0  0  0  0  0  0  0  0  0
  1  2  1  0
  3  2  1  0
  4  5  1  0
  4  3  1  0
  5  1  1  0
  5  6  1  1
  7  6  2  0
  9  8  1  1
  9 11  1  0
 10  9  1  0
 12 11  1  1
 12 13  1  0
 13  6  1  0
 14 15  2  0
 14 12  1  0
 16 14  1  0
 17 16  1  0
 17 18  1  0
 18 20  1  0
 19 18  2  0
M  END
$$$$
