PLG.pdb
     RDKit          3D

 20 20  0  0  1  0  0  0  0  0999 V2000
   26.4082  -18.6689  -15.4901 N   0  0  0  0  0  0  0  0  0  0  0  0
   27.5758  -17.9828  -15.0279 C   0  0  0  0  0  0  0  0  0  0  0  0
   28.7188  -18.8594  -15.5441 C   0  0  0  0  0  0  0  0  0  0  0  0
   28.1704  -20.2423  -15.2467 C   0  0  0  0  0  0  0  0  0  0  0  0
   26.7039  -20.0597  -15.6080 C   0  0  1  0  0  0  0  0  0  0  0  0
   25.9154  -20.9161  -14.6893 C   0  0  0  0  0  0  0  0  0  0  0  0
   26.0493  -22.1675  -14.6504 O   0  0  0  0  0  0  0  0  0  0  0  0
   26.4342  -21.9995  -10.9829 C   0  0  0  0  0  0  0  0  0  0  0  0
   25.9674  -20.5345  -11.0937 C   0  0  2  0  0  0  0  0  0  0  0  0
   26.2216  -19.8914   -9.7471 C   0  0  0  0  0  0  0  0  0  0  0  0
   24.5278  -20.4788  -11.4810 C   0  0  0  0  0  0  0  0  0  0  0  0
   24.2031  -21.0378  -12.8400 C   0  0  2  0  0  0  0  0  0  0  0  0
   24.9814  -20.2700  -13.8328 N   0  0  0  0  0  0  0  0  0  0  0  0
   22.7729  -20.8139  -13.1447 C   0  0  0  0  0  0  0  0  0  0  0  0
   21.9051  -21.3574  -12.4039 O   0  0  0  0  0  0  0  0  0  0  0  0
   22.4009  -20.0025  -14.2508 N   0  0  0  0  0  0  0  0  0  0  0  0
   21.0110  -19.8739  -14.5953 C   0  0  0  0  0  0  0  0  0  0  0  0
   20.6582  -20.7633  -15.7579 C   0  0  0  0  0  0  0  0  0  0  0  0
   21.2634  -21.8386  -15.9900 O   0  0  0  0  0  0  0  0  0  0  0  0
   19.6308  -20.3960  -16.6122 O   0  0  0  0  0  0  0  0  0  0  0  0
  1  2  1  0
  3  2  1  0
  4  5  1  0
  4  3  1  0
  5  1  1  0
  5  6  1  1
  7  6  2  0
  9  8  1  1
  9 11  1  0
 10  9  1  0
 12 11  1  1
 12 13  1  0
 13  6  1  0
 14 15  2  0
 14 12  1  0
 16 14  1  0
 17 16  1  0
 17 18  1  0
 18 20  1  0
 19 18  2  0
M  END
$$$$
