PLG.pdb
     RDKit          3D

 20 20  0  0  1  0  0  0  0  0999 V2000
   29.8621  -20.7833  -11.4993 N   0  0  0  0  0  0  0  0  0  0  0  0
   31.1134  -20.7616  -10.8055 C   0  0  0  0  0  0  0  0  0  0  0  0
   31.5565  -22.2256  -10.8462 C   0  0  0  0  0  0  0  0  0  0  0  0
   30.2441  -22.9262  -10.5494 C   0  0  0  0  0  0  0  0  0  0  0  0
   29.2695  -22.0721  -11.3464 C   0  0  1  0  0  0  0  0  0  0  0  0
   27.9888  -22.0539  -10.5990 C   0  0  0  0  0  0  0  0  0  0  0  0
   27.3286  -23.1000  -10.3641 O   0  0  0  0  0  0  0  0  0  0  0  0
   27.0456  -21.0237   -6.4696 C   0  0  0  0  0  0  0  0  0  0  0  0
   27.4222  -19.8773   -7.4289 C   0  0  2  0  0  0  0  0  0  0  0  0
   27.6982  -18.6614   -6.5703 C   0  0  0  0  0  0  0  0  0  0  0  0
   26.3203  -19.6379   -8.4057 C   0  0  0  0  0  0  0  0  0  0  0  0
   26.1928  -20.6645   -9.4988 C   0  0  2  0  0  0  0  0  0  0  0  0
   27.5151  -20.7922  -10.1437 N   0  0  0  0  0  0  0  0  0  0  0  0
   25.2522  -20.1803  -10.5328 C   0  0  0  0  0  0  0  0  0  0  0  0
   25.4293  -19.0268  -11.0182 O   0  0  0  0  0  0  0  0  0  0  0  0
   24.1780  -21.0076  -10.9592 N   0  0  0  0  0  0  0  0  0  0  0  0
   23.3538  -20.5829  -12.0580 C   0  0  0  0  0  0  0  0  0  0  0  0
   21.9168  -20.4398  -11.6316 C   0  0  0  0  0  0  0  0  0  0  0  0
   21.5503  -20.5931  -10.4405 O   0  0  0  0  0  0  0  0  0  0  0  0
   20.9517  -20.1278  -12.5757 O   0  0  0  0  0  0  0  0  0  0  0  0
  1  2  1  0
  3  2  1  0
  4  5  1  0
  4  3  1  0
  5  1  1  0
  5  6  1  1
  7  6  2  0
  9  8  1  1
  9 11  1  0
 10  9  1  0
 12 11  1  1
 12 13  1  0
 13  6  1  0
 14 15  2  0
 14 12  1  0
 16 14  1  0
 17 16  1  0
 17 18  1  0
 18 20  1  0
 19 18  2  0
M  END
$$$$
