TFM.pdb
     RDKit          3D

 27 27  0  0  1  0  0  0  0  0999 V2000
   26.6601  -19.8024  -18.0241 C   0  0  0  0  0  0  0  0  0  0  0  0
   27.2754  -21.1339  -18.3716 C   0  0  1  0  0  0  0  0  0  0  0  0
   28.0508  -20.8850  -19.5317 O   0  0  0  0  0  0  0  0  0  0  0  0
   28.1746  -21.6513  -17.2657 C   0  0  2  0  0  0  0  0  0  0  0  0
   28.5327  -23.0152  -17.6851 N   0  0  0  0  0  0  0  0  0  0  0  0
   27.3968  -21.8046  -16.0095 C   0  0  0  0  0  0  0  0  0  0  0  0
   26.4760  -22.6928  -15.9191 O   0  0  0  0  0  0  0  0  0  0  0  0
   27.5858  -21.0255  -14.8452 N   0  0  0  0  0  0  0  0  0  0  0  0
   26.7214  -21.1165  -13.6683 C   0  0  1  0  0  0  0  0  0  0  0  0
   27.4316  -20.5460  -12.4799 C   0  0  0  0  0  0  0  0  0  0  0  0
   26.6561  -20.4657  -11.2553 C   0  0  0  0  0  0  0  0  0  0  0  0
   25.9543  -19.3338  -10.9308 C   0  0  0  0  0  0  0  0  0  0  0  0
   25.2175  -19.2477   -9.7691 C   0  0  0  0  0  0  0  0  0  0  0  0
   25.1558  -20.3009   -8.8822 C   0  0  0  0  0  0  0  0  0  0  0  0
   25.8565  -21.4455   -9.1955 C   0  0  0  0  0  0  0  0  0  0  0  0
   26.6010  -21.5185  -10.3795 C   0  0  0  0  0  0  0  0  0  0  0  0
   25.3809  -20.5976  -13.9196 C   0  0  0  0  0  0  0  0  0  0  0  0
   25.1529  -19.4311  -14.3805 O   0  0  0  0  0  0  0  0  0  0  0  0
   21.3313  -22.8888  -17.4589 C   0  0  0  0  0  0  0  0  0  0  0  0
   20.2773  -21.5251  -16.8979 S   0  0  0  0  0  0  0  0  0  0  0  0
   20.7909  -21.0233  -15.2077 C   0  0  0  0  0  0  0  0  0  0  0  0
   22.1974  -21.4786  -14.9958 C   0  0  0  0  0  0  0  0  0  0  0  0
   22.8772  -20.8390  -13.7906 C   0  0  2  0  0  0  0  0  0  0  0  0
   24.2197  -21.3833  -13.6614 N   0  0  0  0  0  0  0  0  0  0  0  0
   22.0998  -20.9457  -12.5536 C   0  0  0  0  0  0  0  0  0  0  0  0
   21.1234  -20.0572  -12.1604 O   0  0  0  0  0  0  0  0  0  0  0  0
   22.3669  -21.9461  -11.7999 O   0  0  0  0  0  0  0  0  0  0  0  0
  2  1  1  1
  2  3  1  0
  4  2  1  0
  4  6  1  0
  4  5  1  6
  6  7  2  0
  8  9  1  0
  8  6  1  0
  9 17  1  0
  9 10  1  1
 11 10  1  0
 11 16  2  0
 12 11  1  0
 13 12  2  0
 13 14  1  0
 14 15  2  0
 15 16  1  0
 17 18  2  0
 20 19  1  0
 20 21  1  0
 21 22  1  0
 23 22  1  6
 23 25  1  0
 24 17  1  0
 24 23  1  0
 25 27  2  0
 25 26  1  0
M  END
$$$$
