TFM.pdb
     RDKit          3D

 27 27  0  0  1  0  0  0  0  0999 V2000
   26.6189  -20.3143  -17.4249 C   0  0  0  0  0  0  0  0  0  0  0  0
   26.8839  -21.7597  -17.7609 C   0  0  1  0  0  0  0  0  0  0  0  0
   27.7017  -21.7204  -18.9179 O   0  0  0  0  0  0  0  0  0  0  0  0
   27.6211  -22.4771  -16.6468 C   0  0  2  0  0  0  0  0  0  0  0  0
   27.5864  -23.8966  -17.0317 N   0  0  0  0  0  0  0  0  0  0  0  0
   26.8472  -22.3808  -15.3825 C   0  0  0  0  0  0  0  0  0  0  0  0
   25.7586  -23.0427  -15.2344 O   0  0  0  0  0  0  0  0  0  0  0  0
   27.2165  -21.5898  -14.2706 N   0  0  0  0  0  0  0  0  0  0  0  0
   26.4000  -21.4712  -13.0623 C   0  0  1  0  0  0  0  0  0  0  0  0
   27.2321  -20.9157  -11.9481 C   0  0  0  0  0  0  0  0  0  0  0  0
   26.5387  -20.6802  -10.6947 C   0  0  0  0  0  0  0  0  0  0  0  0
   26.1176  -19.4249  -10.3398 C   0  0  0  0  0  0  0  0  0  0  0  0
   25.4609  -19.1915   -9.1507 C   0  0  0  0  0  0  0  0  0  0  0  0
   25.1995  -20.2153   -8.2658 C   0  0  0  0  0  0  0  0  0  0  0  0
   25.6172  -21.4828   -8.6094 C   0  0  0  0  0  0  0  0  0  0  0  0
   26.2834  -21.7050   -9.8211 C   0  0  0  0  0  0  0  0  0  0  0  0
   25.1321  -20.7928  -13.3104 C   0  0  0  0  0  0  0  0  0  0  0  0
   25.0411  -19.6628  -13.8935 O   0  0  0  0  0  0  0  0  0  0  0  0
   20.9093  -20.4231  -17.6749 C   0  0  0  0  0  0  0  0  0  0  0  0
   20.0681  -21.2565  -16.3027 S   0  0  0  0  0  0  0  0  0  0  0  0
   20.6715  -20.5599  -14.7144 C   0  0  0  0  0  0  0  0  0  0  0  0
   21.9978  -21.1761  -14.4116 C   0  0  0  0  0  0  0  0  0  0  0  0
   22.6238  -20.6835  -13.1119 C   0  0  2  0  0  0  0  0  0  0  0  0
   23.8910  -21.3678  -12.9088 N   0  0  0  0  0  0  0  0  0  0  0  0
   21.7311  -20.7866  -11.9550 C   0  0  0  0  0  0  0  0  0  0  0  0
   20.6509  -19.9646  -11.7207 O   0  0  0  0  0  0  0  0  0  0  0  0
   21.9961  -21.7160  -11.1146 O   0  0  0  0  0  0  0  0  0  0  0  0
  2  1  1  1
  2  3  1  0
  4  2  1  0
  4  6  1  0
  4  5  1  6
  6  7  2  0
  8  9  1  0
  8  6  1  0
  9 17  1  0
  9 10  1  1
 11 10  1  0
 11 16  2  0
 12 11  1  0
 13 12  2  0
 13 14  1  0
 14 15  2  0
 15 16  1  0
 17 18  2  0
 20 19  1  0
 20 21  1  0
 21 22  1  0
 23 22  1  6
 23 25  1  0
 24 17  1  0
 24 23  1  0
 25 27  2  0
 25 26  1  0
M  END
$$$$
