TFM.pdb
     RDKit          3D

 27 27  0  0  1  0  0  0  0  0999 V2000
   21.7419  -22.3942  -14.5214 C   0  0  0  0  0  0  0  0  0  0  0  0
   22.7101  -21.6431  -13.6435 C   0  0  1  0  0  0  0  0  0  0  0  0
   22.8373  -20.3681  -14.2498 O   0  0  0  0  0  0  0  0  0  0  0  0
   22.1871  -21.4790  -12.2297 C   0  0  2  0  0  0  0  0  0  0  0  0
   21.0616  -20.5401  -12.3561 N   0  0  0  0  0  0  0  0  0  0  0  0
   23.1998  -20.7875  -11.3914 C   0  0  0  0  0  0  0  0  0  0  0  0
   23.0811  -19.5383  -11.1263 O   0  0  0  0  0  0  0  0  0  0  0  0
   24.3387  -21.4078  -10.8288 N   0  0  0  0  0  0  0  0  0  0  0  0
   25.4063  -20.6679  -10.1554 C   0  0  1  0  0  0  0  0  0  0  0  0
   25.8382  -21.4146   -8.9315 C   0  0  0  0  0  0  0  0  0  0  0  0
   26.8553  -20.7700   -8.1206 C   0  0  0  0  0  0  0  0  0  0  0  0
   28.1397  -21.2470   -8.0790 C   0  0  0  0  0  0  0  0  0  0  0  0
   29.1110  -20.6430   -7.3100 C   0  0  0  0  0  0  0  0  0  0  0  0
   28.8295  -19.5296   -6.5479 C   0  0  0  0  0  0  0  0  0  0  0  0
   27.5421  -19.0390   -6.5799 C   0  0  0  0  0  0  0  0  0  0  0  0
   26.5655  -19.6631   -7.3660 C   0  0  0  0  0  0  0  0  0  0  0  0
   26.4724  -20.2714  -11.0696 C   0  0  0  0  0  0  0  0  0  0  0  0
   27.4448  -19.5193  -10.7325 O   0  0  0  0  0  0  0  0  0  0  0  0
   30.5522  -22.5054  -17.4059 C   0  0  0  0  0  0  0  0  0  0  0  0
   29.2657  -22.8029  -16.1642 S   0  0  0  0  0  0  0  0  0  0  0  0
   29.0242  -21.2779  -15.1702 C   0  0  0  0  0  0  0  0  0  0  0  0
   28.0010  -21.5652  -14.1209 C   0  0  0  0  0  0  0  0  0  0  0  0
   27.5520  -20.3328  -13.3442 C   0  0  2  0  0  0  0  0  0  0  0  0
   26.4918  -20.7142  -12.4246 N   0  0  0  0  0  0  0  0  0  0  0  0
   27.1821  -19.2028  -14.1999 C   0  0  0  0  0  0  0  0  0  0  0  0
   28.0490  -18.2171  -14.6178 O   0  0  0  0  0  0  0  0  0  0  0  0
   25.9579  -19.1496  -14.5723 O   0  0  0  0  0  0  0  0  0  0  0  0
  2  1  1  6
  2  3  1  0
  4  2  1  0
  4  6  1  0
  4  5  1  6
  6  7  2  0
  8  9  1  0
  8  6  1  0
  9 17  1  0
  9 10  1  1
 11 10  1  0
 11 16  2  0
 12 11  1  0
 13 12  2  0
 13 14  1  0
 14 15  2  0
 15 16  1  0
 17 18  2  0
 20 19  1  0
 20 21  1  0
 21 22  1  0
 23 22  1  6
 23 25  1  0
 24 17  1  0
 24 23  1  0
 25 27  2  0
 25 26  1  0
M  END
$$$$
