TFM.pdb
     RDKit          3D

 27 27  0  0  1  0  0  0  0  0999 V2000
   26.3051  -18.5536  -12.9629 C   0  0  0  0  0  0  0  0  0  0  0  0
   26.1939  -19.9482  -13.5240 C   0  0  1  0  0  0  0  0  0  0  0  0
   26.3877  -19.7955  -14.9198 O   0  0  0  0  0  0  0  0  0  0  0  0
   27.2579  -20.8730  -12.9655 C   0  0  2  0  0  0  0  0  0  0  0  0
   27.0007  -22.1692  -13.6119 N   0  0  0  0  0  0  0  0  0  0  0  0
   27.0291  -21.0912  -11.5141 C   0  0  0  0  0  0  0  0  0  0  0  0
   26.1291  -21.9128  -11.1140 O   0  0  0  0  0  0  0  0  0  0  0  0
   27.7466  -20.4475  -10.4801 N   0  0  0  0  0  0  0  0  0  0  0  0
   27.4359  -20.6172   -9.0605 C   0  0  1  0  0  0  0  0  0  0  0  0
   28.5653  -20.0850   -8.2336 C   0  0  0  0  0  0  0  0  0  0  0  0
   28.3052  -19.9576   -6.8111 C   0  0  0  0  0  0  0  0  0  0  0  0
   28.6069  -20.9715   -5.9393 C   0  0  0  0  0  0  0  0  0  0  0  0
   28.3611  -20.8603   -4.5877 C   0  0  0  0  0  0  0  0  0  0  0  0
   27.7995  -19.7200   -4.0548 C   0  0  0  0  0  0  0  0  0  0  0  0
   27.4909  -18.6923   -4.9195 C   0  0  0  0  0  0  0  0  0  0  0  0
   27.7463  -18.8195   -6.2906 C   0  0  0  0  0  0  0  0  0  0  0  0
   26.1066  -20.1226   -8.7176 C   0  0  0  0  0  0  0  0  0  0  0  0
   25.6982  -18.9485   -9.0001 O   0  0  0  0  0  0  0  0  0  0  0  0
   22.3645  -20.0665  -12.1393 C   0  0  0  0  0  0  0  0  0  0  0  0
   21.0164  -20.3916  -10.9722 S   0  0  0  0  0  0  0  0  0  0  0  0
   21.6565  -20.2462   -9.2572 C   0  0  0  0  0  0  0  0  0  0  0  0
   23.1112  -20.5840   -9.2748 C   0  0  0  0  0  0  0  0  0  0  0  0
   23.7658  -20.5611   -7.8983 C   0  0  2  0  0  0  0  0  0  0  0  0
   25.1627  -20.9427   -8.0330 N   0  0  0  0  0  0  0  0  0  0  0  0
   23.0535  -21.3583   -6.8968 C   0  0  0  0  0  0  0  0  0  0  0  0
   21.7451  -21.1551   -6.5167 O   0  0  0  0  0  0  0  0  0  0  0  0
   23.7176  -22.3065   -6.3489 O   0  0  0  0  0  0  0  0  0  0  0  0
  2  1  1  1
  2  3  1  0
  4  2  1  0
  4  6  1  0
  4  5  1  6
  6  7  2  0
  8  9  1  0
  8  6  1  0
  9 17  1  0
  9 10  1  1
 11 10  1  0
 11 16  2  0
 12 11  1  0
 13 12  2  0
 13 14  1  0
 14 15  2  0
 15 16  1  0
 17 18  2  0
 20 19  1  0
 20 21  1  0
 21 22  1  0
 23 22  1  6
 23 25  1  0
 24 17  1  0
 24 23  1  0
 25 27  2  0
 25 26  1  0
M  END
$$$$
