TFM.pdb
     RDKit          3D

 27 27  0  0  1  0  0  0  0  0999 V2000
   16.5854   -8.3991  -17.9517 C   0  0  0  0  0  0  0  0  0  0  0  0
   16.8249   -8.4493  -16.4643 C   0  0  1  0  0  0  0  0  0  0  0  0
   15.9359   -9.4442  -15.9859 O   0  0  0  0  0  0  0  0  0  0  0  0
   18.2503   -8.8444  -16.1304 C   0  0  2  0  0  0  0  0  0  0  0  0
   18.3340  -10.2697  -16.4849 N   0  0  0  0  0  0  0  0  0  0  0  0
   18.4641   -8.7786  -14.6619 C   0  0  0  0  0  0  0  0  0  0  0  0
   18.3201   -9.8263  -13.9363 O   0  0  0  0  0  0  0  0  0  0  0  0
   18.8309   -7.6118  -13.9531 N   0  0  0  0  0  0  0  0  0  0  0  0
   18.9532   -7.5620  -12.4960 C   0  0  1  0  0  0  0  0  0  0  0  0
   20.3596   -7.2081  -12.1232 C   0  0  0  0  0  0  0  0  0  0  0  0
   21.3799   -8.1628  -12.5169 C   0  0  0  0  0  0  0  0  0  0  0  0
   22.0489   -8.0387  -13.7068 C   0  0  0  0  0  0  0  0  0  0  0  0
   23.0171   -8.9418  -14.0899 C   0  0  0  0  0  0  0  0  0  0  0  0
   23.3539  -10.0114  -13.2886 C   0  0  0  0  0  0  0  0  0  0  0  0
   22.6894  -10.1489  -12.0891 C   0  0  0  0  0  0  0  0  0  0  0  0
   21.7078   -9.2234  -11.7131 C   0  0  0  0  0  0  0  0  0  0  0  0
   17.9072   -6.7554  -11.8758 C   0  0  0  0  0  0  0  0  0  0  0  0
   17.5717   -5.5980  -12.2916 O   0  0  0  0  0  0  0  0  0  0  0  0
   13.7092   -9.5100   -7.8899 C   0  0  0  0  0  0  0  0  0  0  0  0
   12.8417   -7.9371   -8.1317 S   0  0  0  0  0  0  0  0  0  0  0  0
   14.0382   -6.6736   -8.7186 C   0  0  0  0  0  0  0  0  0  0  0  0
   15.1304   -7.3763   -9.4561 C   0  0  0  0  0  0  0  0  0  0  0  0
   16.1289   -6.4358  -10.1211 C   0  0  2  0  0  0  0  0  0  0  0  0
   17.1795   -7.2257  -10.7437 N   0  0  0  0  0  0  0  0  0  0  0  0
   16.6515   -5.4041   -9.2220 C   0  0  0  0  0  0  0  0  0  0  0  0
   17.9117   -5.4117   -8.6660 O   0  0  0  0  0  0  0  0  0  0  0  0
   15.8594   -4.4357   -8.9480 O   0  0  0  0  0  0  0  0  0  0  0  0
  2  1  1  6
  2  3  1  0
  4  2  1  0
  4  6  1  0
  4  5  1  1
  6  7  2  0
  8  9  1  0
  8  6  1  0
  9 17  1  0
  9 10  1  6
 11 10  1  0
 11 16  2  0
 12 11  1  0
 13 12  2  0
 13 14  1  0
 14 15  2  0
 15 16  1  0
 17 18  2  0
 20 19  1  0
 20 21  1  0
 21 22  1  0
 23 22  1  1
 23 25  1  0
 24 17  1  0
 24 23  1  0
 25 27  2  0
 25 26  1  0
M  END
$$$$
