TFM.pdb
     RDKit          3D

 27 27  0  0  1  0  0  0  0  0999 V2000
   24.3993  -19.8560  -14.2483 C   0  0  0  0  0  0  0  0  0  0  0  0
   24.5040  -20.2988  -12.8112 C   0  0  1  0  0  0  0  0  0  0  0  0
   23.4845  -21.2710  -12.6547 O   0  0  0  0  0  0  0  0  0  0  0  0
   25.8502  -20.9263  -12.5056 C   0  0  2  0  0  0  0  0  0  0  0  0
   25.7900  -22.2576  -13.1288 N   0  0  0  0  0  0  0  0  0  0  0  0
   25.9775  -21.1676  -11.0455 C   0  0  0  0  0  0  0  0  0  0  0  0
   25.6742  -22.3094  -10.5462 O   0  0  0  0  0  0  0  0  0  0  0  0
   26.4252  -20.2098  -10.1071 N   0  0  0  0  0  0  0  0  0  0  0  0
   26.5275  -20.4774   -8.6723 C   0  0  1  0  0  0  0  0  0  0  0  0
   27.6353  -19.6570   -8.0875 C   0  0  0  0  0  0  0  0  0  0  0  0
   27.8389  -19.7934   -6.6567 C   0  0  0  0  0  0  0  0  0  0  0  0
   27.2778  -18.9104   -5.7710 C   0  0  0  0  0  0  0  0  0  0  0  0
   27.4679  -19.0307   -4.4112 C   0  0  0  0  0  0  0  0  0  0  0  0
   28.2333  -20.0483   -3.8838 C   0  0  0  0  0  0  0  0  0  0  0  0
   28.8038  -20.9437   -4.7625 C   0  0  0  0  0  0  0  0  0  0  0  0
   28.6019  -20.8089   -6.1418 C   0  0  0  0  0  0  0  0  0  0  0  0
   25.2387  -20.3839   -7.9944 C   0  0  0  0  0  0  0  0  0  0  0  0
   24.5116  -19.3368   -8.0066 O   0  0  0  0  0  0  0  0  0  0  0  0
   20.7347  -24.6255   -8.0897 C   0  0  0  0  0  0  0  0  0  0  0  0
   20.4862  -24.2259   -6.3393 S   0  0  0  0  0  0  0  0  0  0  0  0
   21.3595  -22.6581   -5.9498 C   0  0  0  0  0  0  0  0  0  0  0  0
   22.6479  -22.6448   -6.7050 C   0  0  0  0  0  0  0  0  0  0  0  0
   23.4669  -21.3749   -6.5038 C   0  0  2  0  0  0  0  0  0  0  0  0
   24.7022  -21.4841   -7.2636 N   0  0  0  0  0  0  0  0  0  0  0  0
   23.6940  -21.0403   -5.0958 C   0  0  0  0  0  0  0  0  0  0  0  0
   24.7886  -21.4387   -4.3605 O   0  0  0  0  0  0  0  0  0  0  0  0
   22.7947  -20.3252   -4.5301 O   0  0  0  0  0  0  0  0  0  0  0  0
  2  1  1  6
  2  3  1  0
  4  2  1  0
  4  6  1  0
  4  5  1  6
  6  7  2  0
  8  9  1  0
  8  6  1  0
  9 17  1  0
  9 10  1  1
 11 10  1  0
 11 16  2  0
 12 11  1  0
 13 12  2  0
 13 14  1  0
 14 15  2  0
 15 16  1  0
 17 18  2  0
 20 19  1  0
 20 21  1  0
 21 22  1  0
 23 22  1  1
 23 25  1  0
 24 17  1  0
 24 23  1  0
 25 27  2  0
 25 26  1  0
M  END
$$$$
