TFM.pdb
     RDKit          3D

 27 27  0  0  1  0  0  0  0  0999 V2000
   25.7373  -27.9240  -16.0455 C   0  0  0  0  0  0  0  0  0  0  0  0
   26.4057  -27.7911  -17.3900 C   0  0  1  0  0  0  0  0  0  0  0  0
   26.7958  -26.4307  -17.4697 O   0  0  0  0  0  0  0  0  0  0  0  0
   27.6324  -28.6748  -17.5057 C   0  0  2  0  0  0  0  0  0  0  0  0
   28.0021  -28.6136  -18.9283 N   0  0  0  0  0  0  0  0  0  0  0  0
   27.2647  -30.0898  -17.2429 C   0  0  0  0  0  0  0  0  0  0  0  0
   26.5958  -30.7594  -18.1085 O   0  0  0  0  0  0  0  0  0  0  0  0
   27.6003  -30.8046  -16.0703 N   0  0  0  0  0  0  0  0  0  0  0  0
   27.1491  -32.1709  -15.8054 C   0  0  1  0  0  0  0  0  0  0  0  0
   28.3362  -33.0562  -15.5837 C   0  0  0  0  0  0  0  0  0  0  0  0
   29.1082  -33.3907  -16.7667 C   0  0  0  0  0  0  0  0  0  0  0  0
   28.6043  -34.2216  -17.7335 C   0  0  0  0  0  0  0  0  0  0  0  0
   29.3311  -34.5466  -18.8585 C   0  0  0  0  0  0  0  0  0  0  0  0
   30.6001  -34.0473  -19.0586 C   0  0  0  0  0  0  0  0  0  0  0  0
   31.1197  -33.2106  -18.0947 C   0  0  0  0  0  0  0  0  0  0  0  0
   30.3695  -32.8891  -16.9566 C   0  0  0  0  0  0  0  0  0  0  0  0
   26.1119  -32.2268  -14.7804 C   0  0  0  0  0  0  0  0  0  0  0  0
   26.2632  -31.7679  -13.6007 O   0  0  0  0  0  0  0  0  0  0  0  0
   20.4617  -29.5846  -14.7879 C   0  0  0  0  0  0  0  0  0  0  0  0
   19.9845  -31.3067  -14.4853 S   0  0  0  0  0  0  0  0  0  0  0  0
   21.3763  -32.1824  -13.6677 C   0  0  0  0  0  0  0  0  0  0  0  0
   22.5623  -32.1151  -14.5728 C   0  0  0  0  0  0  0  0  0  0  0  0
   23.7869  -32.8498  -14.0393 C   0  0  2  0  0  0  0  0  0  0  0  0
   24.8375  -32.8086  -15.0442 N   0  0  0  0  0  0  0  0  0  0  0  0
   23.4991  -34.2088  -13.5742 C   0  0  0  0  0  0  0  0  0  0  0  0
   23.5771  -35.3398  -14.3566 O   0  0  0  0  0  0  0  0  0  0  0  0
   23.1512  -34.3270  -12.3473 O   0  0  0  0  0  0  0  0  0  0  0  0
  2  1  1  1
  2  3  1  0
  4  2  1  0
  4  6  1  0
  4  5  1  6
  6  7  2  0
  8  9  1  0
  8  6  1  0
  9 17  1  0
  9 10  1  1
 11 10  1  0
 11 16  2  0
 12 11  1  0
 13 12  2  0
 13 14  1  0
 14 15  2  0
 15 16  1  0
 17 18  2  0
 20 19  1  0
 20 21  1  0
 21 22  1  0
 23 22  1  6
 23 25  1  0
 24 17  1  0
 24 23  1  0
 25 27  2  0
 25 26  1  0
M  END
$$$$
