TFM.pdb
     RDKit          3D

 27 27  0  0  1  0  0  0  0  0999 V2000
   26.5608  -20.2229  -19.7466 C   0  0  0  0  0  0  0  0  0  0  0  0
   26.0357  -20.5492  -18.3719 C   0  0  1  0  0  0  0  0  0  0  0  0
   24.9069  -21.3756  -18.6001 O   0  0  0  0  0  0  0  0  0  0  0  0
   27.0529  -21.3042  -17.5384 C   0  0  2  0  0  0  0  0  0  0  0  0
   27.1277  -22.6358  -18.1593 N   0  0  0  0  0  0  0  0  0  0  0  0
   26.5227  -21.5249  -16.1685 C   0  0  0  0  0  0  0  0  0  0  0  0
   25.9625  -22.6364  -15.8593 O   0  0  0  0  0  0  0  0  0  0  0  0
   26.5812  -20.5783  -15.1202 N   0  0  0  0  0  0  0  0  0  0  0  0
   26.0411  -20.8257  -13.7832 C   0  0  1  0  0  0  0  0  0  0  0  0
   26.8889  -20.1297  -12.7639 C   0  0  0  0  0  0  0  0  0  0  0  0
   26.4474  -20.2447  -11.3857 C   0  0  0  0  0  0  0  0  0  0  0  0
   26.7925  -21.3252  -10.6161 C   0  0  0  0  0  0  0  0  0  0  0  0
   26.3758  -21.4440   -9.3077 C   0  0  0  0  0  0  0  0  0  0  0  0
   25.5915  -20.4768   -8.7169 C   0  0  0  0  0  0  0  0  0  0  0  0
   25.2367  -19.3847   -9.4788 C   0  0  0  0  0  0  0  0  0  0  0  0
   25.6676  -19.2775  -10.8070 C   0  0  0  0  0  0  0  0  0  0  0  0
   24.6073  -20.5662  -13.7042 C   0  0  0  0  0  0  0  0  0  0  0  0
   24.0685  -19.4729  -14.0777 O   0  0  0  0  0  0  0  0  0  0  0  0
   21.7573  -22.5392   -8.7818 C   0  0  0  0  0  0  0  0  0  0  0  0
   20.1772  -22.0612   -9.5302 S   0  0  0  0  0  0  0  0  0  0  0  0
   20.4836  -21.4124  -11.2207 C   0  0  0  0  0  0  0  0  0  0  0  0
   21.9193  -21.6508  -11.5559 C   0  0  0  0  0  0  0  0  0  0  0  0
   22.2947  -21.2501  -12.9780 C   0  0  2  0  0  0  0  0  0  0  0  0
   23.7025  -21.5433  -13.1955 N   0  0  0  0  0  0  0  0  0  0  0  0
   21.9452  -19.8665  -13.3092 C   0  0  0  0  0  0  0  0  0  0  0  0
   20.7773  -19.4779  -13.9275 O   0  0  0  0  0  0  0  0  0  0  0  0
   22.8050  -18.9722  -12.9910 O   0  0  0  0  0  0  0  0  0  0  0  0
  2  1  1  6
  2  3  1  0
  4  2  1  0
  4  6  1  0
  4  5  1  6
  6  7  2  0
  8  9  1  0
  8  6  1  0
  9 17  1  0
  9 10  1  1
 11 10  1  0
 11 16  2  0
 12 11  1  0
 13 12  2  0
 13 14  1  0
 14 15  2  0
 15 16  1  0
 17 18  2  0
 20 19  1  0
 20 21  1  0
 21 22  1  0
 23 22  1  1
 23 25  1  0
 24 17  1  0
 24 23  1  0
 25 27  2  0
 25 26  1  0
M  END
$$$$
