TFM.pdb
     RDKit          3D

 27 27  0  0  1  0  0  0  0  0999 V2000
   45.8549  -11.6046   -4.8438 C   0  0  0  0  0  0  0  0  0  0  0  0
   44.7072  -10.8465   -5.4606 C   0  0  1  0  0  0  0  0  0  0  0  0
   45.3151   -9.7842   -6.1754 O   0  0  0  0  0  0  0  0  0  0  0  0
   43.9070  -11.7064   -6.4194 C   0  0  2  0  0  0  0  0  0  0  0  0
   44.8519  -12.0409   -7.4962 N   0  0  0  0  0  0  0  0  0  0  0  0
   42.8374  -10.8956   -7.0559 C   0  0  0  0  0  0  0  0  0  0  0  0
   43.0401  -10.3242   -8.1861 O   0  0  0  0  0  0  0  0  0  0  0  0
   41.5521  -10.6848   -6.5066 N   0  0  0  0  0  0  0  0  0  0  0  0
   40.6134   -9.6860   -7.0186 C   0  0  1  0  0  0  0  0  0  0  0  0
   39.2098  -10.1381   -6.7583 C   0  0  0  0  0  0  0  0  0  0  0  0
   38.1694   -9.1595   -7.0178 C   0  0  0  0  0  0  0  0  0  0  0  0
   37.7152   -8.9245   -8.2895 C   0  0  0  0  0  0  0  0  0  0  0  0
   36.7297   -7.9955   -8.5455 C   0  0  0  0  0  0  0  0  0  0  0  0
   36.1580   -7.2615   -7.5287 C   0  0  0  0  0  0  0  0  0  0  0  0
   36.6048   -7.4872   -6.2448 C   0  0  0  0  0  0  0  0  0  0  0  0
   37.6069   -8.4344   -5.9998 C   0  0  0  0  0  0  0  0  0  0  0  0
   40.9404   -8.3347   -6.5756 C   0  0  0  0  0  0  0  0  0  0  0  0
   41.2295   -8.0403   -5.3694 O   0  0  0  0  0  0  0  0  0  0  0  0
   45.6445   -2.7452   -5.9266 C   0  0  0  0  0  0  0  0  0  0  0  0
   45.0588   -4.4154   -6.3170 S   0  0  0  0  0  0  0  0  0  0  0  0
   43.2361   -4.3778   -6.5384 C   0  0  0  0  0  0  0  0  0  0  0  0
   42.7814   -5.7595   -6.8769 C   0  0  0  0  0  0  0  0  0  0  0  0
   41.2728   -5.8850   -7.0566 C   0  0  2  0  0  0  0  0  0  0  0  0
   40.9591   -7.2385   -7.4867 N   0  0  0  0  0  0  0  0  0  0  0  0
   40.6999   -4.8628   -7.9358 C   0  0  0  0  0  0  0  0  0  0  0  0
   40.2923   -3.6126   -7.5254 O   0  0  0  0  0  0  0  0  0  0  0  0
   40.5789   -5.1793   -9.1708 O   0  0  0  0  0  0  0  0  0  0  0  0
  2  1  1  6
  2  3  1  0
  4  2  1  0
  4  6  1  0
  4  5  1  6
  6  7  2  0
  8  9  1  0
  8  6  1  0
  9 17  1  0
  9 10  1  1
 11 10  1  0
 11 16  2  0
 12 11  1  0
 13 12  2  0
 13 14  1  0
 14 15  2  0
 15 16  1  0
 17 18  2  0
 20 19  1  0
 20 21  1  0
 21 22  1  0
 23 22  1  6
 23 25  1  0
 24 17  1  0
 24 23  1  0
 25 27  2  0
 25 26  1  0
M  END
$$$$
