TFM.pdb
     RDKit          3D

 27 27  0  0  1  0  0  0  0  0999 V2000
   27.7616  -21.3275  -17.7513 C   0  0  0  0  0  0  0  0  0  0  0  0
   26.7933  -21.3227  -16.5960 C   0  0  1  0  0  0  0  0  0  0  0  0
   25.6157  -21.9248  -17.1056 O   0  0  0  0  0  0  0  0  0  0  0  0
   27.3055  -22.1324  -15.4207 C   0  0  2  0  0  0  0  0  0  0  0  0
   27.1848  -23.5333  -15.8535 N   0  0  0  0  0  0  0  0  0  0  0  0
   26.3856  -21.9847  -14.2638 C   0  0  0  0  0  0  0  0  0  0  0  0
   25.5207  -22.8945  -14.0005 O   0  0  0  0  0  0  0  0  0  0  0  0
   26.3736  -20.8813  -13.3803 N   0  0  0  0  0  0  0  0  0  0  0  0
   25.3671  -20.7008  -12.3338 C   0  0  1  0  0  0  0  0  0  0  0  0
   25.8551  -19.6947  -11.3379 C   0  0  0  0  0  0  0  0  0  0  0  0
   25.7215  -20.0677   -9.9413 C   0  0  0  0  0  0  0  0  0  0  0  0
   24.6799  -20.8473   -9.5098 C   0  0  0  0  0  0  0  0  0  0  0  0
   24.5438  -21.2042   -8.1855 C   0  0  0  0  0  0  0  0  0  0  0  0
   25.4535  -20.7900   -7.2365 C   0  0  0  0  0  0  0  0  0  0  0  0
   26.5060  -20.0056   -7.6560 C   0  0  0  0  0  0  0  0  0  0  0  0
   26.6315  -19.6508   -9.0050 C   0  0  0  0  0  0  0  0  0  0  0  0
   24.0336  -20.4648  -12.8774 C   0  0  0  0  0  0  0  0  0  0  0  0
   23.7475  -19.4823  -13.6376 O   0  0  0  0  0  0  0  0  0  0  0  0
   19.9754  -24.9372  -14.8525 C   0  0  0  0  0  0  0  0  0  0  0  0
   18.7551  -23.9061  -13.9964 S   0  0  0  0  0  0  0  0  0  0  0  0
   19.4594  -22.2302  -13.7364 C   0  0  0  0  0  0  0  0  0  0  0  0
   20.8655  -22.3869  -13.2583 C   0  0  0  0  0  0  0  0  0  0  0  0
   21.5931  -21.0652  -13.0402 C   0  0  2  0  0  0  0  0  0  0  0  0
   22.9471  -21.3406  -12.5862 N   0  0  0  0  0  0  0  0  0  0  0  0
   20.8763  -20.1394  -12.1598 C   0  0  0  0  0  0  0  0  0  0  0  0
   20.9262  -20.1668  -10.7835 O   0  0  0  0  0  0  0  0  0  0  0  0
   20.1574  -19.2499  -12.7360 O   0  0  0  0  0  0  0  0  0  0  0  0
  2  1  1  6
  2  3  1  0
  4  2  1  0
  4  6  1  0
  4  5  1  6
  6  7  2  0
  8  9  1  0
  8  6  1  0
  9 17  1  0
  9 10  1  6
 11 10  1  0
 11 16  2  0
 12 11  1  0
 13 12  2  0
 13 14  1  0
 14 15  2  0
 15 16  1  0
 17 18  2  0
 20 19  1  0
 20 21  1  0
 21 22  1  0
 23 22  1  1
 23 25  1  0
 24 17  1  0
 24 23  1  0
 25 27  2  0
 25 26  1  0
M  END
$$$$
