TFM.pdb
     RDKit          3D

 27 27  0  0  1  0  0  0  0  0999 V2000
   27.7267  -19.7969  -19.3697 C   0  0  0  0  0  0  0  0  0  0  0  0
   27.0130  -20.1156  -18.0809 C   0  0  1  0  0  0  0  0  0  0  0  0
   25.7898  -20.7105  -18.4797 O   0  0  0  0  0  0  0  0  0  0  0  0
   27.7937  -21.0938  -17.2247 C   0  0  2  0  0  0  0  0  0  0  0  0
   27.7547  -22.3585  -17.9754 N   0  0  0  0  0  0  0  0  0  0  0  0
   27.0644  -21.3523  -15.9568 C   0  0  0  0  0  0  0  0  0  0  0  0
   26.1162  -22.2151  -15.9162 O   0  0  0  0  0  0  0  0  0  0  0  0
   27.3308  -20.7055  -14.7283 N   0  0  0  0  0  0  0  0  0  0  0  0
   26.5156  -20.8935  -13.5280 C   0  0  1  0  0  0  0  0  0  0  0  0
   27.3023  -20.4885  -12.3199 C   0  0  0  0  0  0  0  0  0  0  0  0
   26.5794  -20.4929  -11.0610 C   0  0  0  0  0  0  0  0  0  0  0  0
   26.3134  -21.6625  -10.3976 C   0  0  0  0  0  0  0  0  0  0  0  0
   25.6255  -21.6764   -9.2033 C   0  0  0  0  0  0  0  0  0  0  0  0
   25.1750  -20.5095   -8.6245 C   0  0  0  0  0  0  0  0  0  0  0  0
   25.4352  -19.3258   -9.2804 C   0  0  0  0  0  0  0  0  0  0  0  0
   26.1353  -19.3271  -10.4933 C   0  0  0  0  0  0  0  0  0  0  0  0
   25.1901  -20.2966  -13.6550 C   0  0  0  0  0  0  0  0  0  0  0  0
   24.9951  -19.0747  -13.9613 O   0  0  0  0  0  0  0  0  0  0  0  0
   21.2716  -21.1641  -17.6155 C   0  0  0  0  0  0  0  0  0  0  0  0
   19.9161  -20.7335  -16.4920 S   0  0  0  0  0  0  0  0  0  0  0  0
   20.6159  -20.2126  -14.8760 C   0  0  0  0  0  0  0  0  0  0  0  0
   21.9869  -20.7926  -14.7556 C   0  0  0  0  0  0  0  0  0  0  0  0
   22.6855  -20.4555  -13.4433 C   0  0  2  0  0  0  0  0  0  0  0  0
   24.0070  -21.0629  -13.4419 N   0  0  0  0  0  0  0  0  0  0  0  0
   21.9007  -20.8008  -12.2555 C   0  0  0  0  0  0  0  0  0  0  0  0
   21.9869  -21.9968  -11.5775 O   0  0  0  0  0  0  0  0  0  0  0  0
   21.0817  -19.9093  -11.8374 O   0  0  0  0  0  0  0  0  0  0  0  0
  2  1  1  6
  2  3  1  0
  4  2  1  0
  4  6  1  0
  4  5  1  6
  6  7  2  0
  8  9  1  0
  8  6  1  0
  9 17  1  0
  9 10  1  1
 11 10  1  0
 11 16  2  0
 12 11  1  0
 13 12  2  0
 13 14  1  0
 14 15  2  0
 15 16  1  0
 17 18  2  0
 20 19  1  0
 20 21  1  0
 21 22  1  0
 23 22  1  6
 23 25  1  0
 24 17  1  0
 24 23  1  0
 25 27  2  0
 25 26  1  0
M  END
$$$$
