TFM.pdb
     RDKit          3D

 27 27  0  0  1  0  0  0  0  0999 V2000
   28.1564  -18.0775  -15.1702 C   0  0  0  0  0  0  0  0  0  0  0  0
   27.1773  -18.8221  -14.2989 C   0  0  1  0  0  0  0  0  0  0  0  0
   26.2130  -19.3427  -15.1978 O   0  0  0  0  0  0  0  0  0  0  0  0
   27.8361  -19.9638  -13.5495 C   0  0  2  0  0  0  0  0  0  0  0  0
   28.1674  -20.9496  -14.5900 N   0  0  0  0  0  0  0  0  0  0  0  0
   26.8457  -20.6271  -12.6632 C   0  0  0  0  0  0  0  0  0  0  0  0
   26.4501  -21.8220  -12.9097 O   0  0  0  0  0  0  0  0  0  0  0  0
   26.2698  -20.0366  -11.5151 N   0  0  0  0  0  0  0  0  0  0  0  0
   25.2667  -20.7044  -10.6854 C   0  0  1  0  0  0  0  0  0  0  0  0
   25.3109  -20.1437   -9.2976 C   0  0  0  0  0  0  0  0  0  0  0  0
   26.5438  -20.3632   -8.5634 C   0  0  0  0  0  0  0  0  0  0  0  0
   26.9277  -19.5231   -7.5506 C   0  0  0  0  0  0  0  0  0  0  0  0
   28.0977  -19.7222   -6.8499 C   0  0  0  0  0  0  0  0  0  0  0  0
   28.9335  -20.7791   -7.1400 C   0  0  0  0  0  0  0  0  0  0  0  0
   28.5602  -21.6321   -8.1560 C   0  0  0  0  0  0  0  0  0  0  0  0
   27.3684  -21.4172   -8.8594 C   0  0  0  0  0  0  0  0  0  0  0  0
   23.9522  -20.7376  -11.3180 C   0  0  0  0  0  0  0  0  0  0  0  0
   22.9030  -21.1714  -10.7382 O   0  0  0  0  0  0  0  0  0  0  0  0
   21.2739  -16.5979  -15.0025 C   0  0  0  0  0  0  0  0  0  0  0  0
   21.0244  -17.9307  -16.2053 S   0  0  0  0  0  0  0  0  0  0  0  0
   21.2250  -19.5490  -15.3609 C   0  0  0  0  0  0  0  0  0  0  0  0
   22.4939  -19.5077  -14.5743 C   0  0  0  0  0  0  0  0  0  0  0  0
   22.4733  -20.3816  -13.3254 C   0  0  2  0  0  0  0  0  0  0  0  0
   23.7579  -20.2735  -12.6519 N   0  0  0  0  0  0  0  0  0  0  0  0
   22.0845  -21.7695  -13.5870 C   0  0  0  0  0  0  0  0  0  0  0  0
   20.7891  -22.2379  -13.5749 O   0  0  0  0  0  0  0  0  0  0  0  0
   23.0365  -22.5873  -13.8421 O   0  0  0  0  0  0  0  0  0  0  0  0
  2  1  1  6
  2  3  1  0
  4  2  1  0
  4  6  1  0
  4  5  1  6
  6  7  2  0
  8  9  1  0
  8  6  1  0
  9 17  1  0
  9 10  1  1
 11 10  1  0
 11 16  2  0
 12 11  1  0
 13 12  2  0
 13 14  1  0
 14 15  2  0
 15 16  1  0
 17 18  2  0
 20 19  1  0
 20 21  1  0
 21 22  1  0
 23 22  1  6
 23 25  1  0
 24 17  1  0
 24 23  1  0
 25 27  2  0
 25 26  1  0
M  END
$$$$
