SAN.pdb
     RDKit          3D

 20 19  0  0  1  0  0  0  0  0999 V2000
   17.6489  -11.5469  -14.1698 O   0  0  0  0  0  0  0  0  0  0  0  0
   16.8924  -11.6964  -15.3548 C   0  0  0  0  0  0  0  0  0  0  0  0
   17.7289  -12.4189  -16.4155 C   0  0  2  0  0  0  0  0  0  0  0  0
   18.1779  -13.6491  -15.7778 N   0  0  0  0  0  0  0  0  0  0  0  0
   18.8572  -11.5267  -16.7398 C   0  0  0  0  0  0  0  0  0  0  0  0
   19.9016  -11.5802  -16.0090 O   0  0  0  0  0  0  0  0  0  0  0  0
   19.8629   -9.1210  -19.3891 C   0  0  0  0  0  0  0  0  0  0  0  0
   20.0246   -9.7340  -18.0164 C   0  0  2  0  0  0  0  0  0  0  0  0
   18.8890  -10.5986  -17.8069 N   0  0  0  0  0  0  0  0  0  0  0  0
   20.1627   -8.7074  -16.9678 C   0  0  0  0  0  0  0  0  0  0  0  0
   19.3344   -8.6112  -16.0009 O   0  0  0  0  0  0  0  0  0  0  0  0
   22.1356   -5.0836  -13.8076 N   0  0  0  0  0  0  0  0  0  0  0  0
   21.8489   -6.4472  -13.5429 C   0  0  0  0  0  0  0  0  0  0  0  0
   21.9315   -6.8309  -12.3633 O   0  0  0  0  0  0  0  0  0  0  0  0
   21.4742   -7.3433  -14.6306 C   0  0  0  0  0  0  0  0  0  0  0  0
   21.3975   -6.7192  -15.9889 C   0  0  2  0  0  0  0  0  0  0  0  0
   21.2325   -7.7891  -17.0071 N   0  0  0  0  0  0  0  0  0  0  0  0
   22.5771   -5.9014  -16.3491 C   0  0  0  0  0  0  0  0  0  0  0  0
   22.8566   -4.9149  -15.6078 O   0  0  0  0  0  0  0  0  0  0  0  0
   23.3727   -6.1379  -17.4117 O   0  0  0  0  0  0  0  0  0  0  0  0
  2  1  1  0
  3  5  1  0
  3  2  1  0
  3  4  1  1
  5  6  2  0
  8  7  1  6
  9  8  1  0
  9  5  1  0
 10 11  2  0
 10  8  1  0
 12 13  1  0
 13 15  1  0
 13 14  2  0
 16 15  1  1
 16 17  1  0
 16 18  1  0
 17 10  1  0
 18 20  1  0
 19 18  2  0
M  END
$$$$
