SAN.pdb
     RDKit          3D

 20 19  0  0  1  0  0  0  0  0999 V2000
   15.9430   -4.8071   -9.5670 O   0  0  0  0  0  0  0  0  0  0  0  0
   16.7428   -5.7582  -10.2411 C   0  0  0  0  0  0  0  0  0  0  0  0
   15.9804   -7.0811  -10.3652 C   0  0  2  0  0  0  0  0  0  0  0  0
   15.8406   -7.5730   -9.0014 N   0  0  0  0  0  0  0  0  0  0  0  0
   16.8192   -7.9738  -11.1861 C   0  0  0  0  0  0  0  0  0  0  0  0
   17.7719   -8.6032  -10.6168 O   0  0  0  0  0  0  0  0  0  0  0  0
   16.8382   -9.5441  -14.5229 C   0  0  0  0  0  0  0  0  0  0  0  0
   17.5797   -9.0401  -13.3053 C   0  0  2  0  0  0  0  0  0  0  0  0
   16.6625   -8.2009  -12.5735 N   0  0  0  0  0  0  0  0  0  0  0  0
   18.8262   -8.3429  -13.6694 C   0  0  0  0  0  0  0  0  0  0  0  0
   19.8280   -8.9608  -14.1643 O   0  0  0  0  0  0  0  0  0  0  0  0
   21.1532   -3.2956  -15.6764 N   0  0  0  0  0  0  0  0  0  0  0  0
   20.8763   -3.8571  -14.4037 C   0  0  0  0  0  0  0  0  0  0  0  0
   21.6047   -3.5147  -13.4563 O   0  0  0  0  0  0  0  0  0  0  0  0
   19.7739   -4.7977  -14.2402 C   0  0  0  0  0  0  0  0  0  0  0  0
   20.1625   -6.1964  -13.8754 C   0  0  2  0  0  0  0  0  0  0  0  0
   18.9458   -6.9509  -13.4768 N   0  0  0  0  0  0  0  0  0  0  0  0
   21.1540   -6.2853  -12.7804 C   0  0  0  0  0  0  0  0  0  0  0  0
   20.7168   -6.4380  -11.6029 O   0  0  0  0  0  0  0  0  0  0  0  0
   22.4893   -6.2156  -12.9539 O   0  0  0  0  0  0  0  0  0  0  0  0
  2  1  1  0
  3  5  1  0
  3  2  1  0
  3  4  1  1
  5  6  2  0
  8  7  1  6
  9  8  1  0
  9  5  1  0
 10 11  2  0
 10  8  1  0
 12 13  1  0
 13 15  1  0
 13 14  2  0
 16 15  1  1
 16 17  1  0
 16 18  1  0
 17 10  1  0
 18 20  1  0
 19 18  2  0
M  END
$$$$
