SAN.pdb
     RDKit          3D

 20 19  0  0  1  0  0  0  0  0999 V2000
   15.4605  -12.5598  -10.1032 O   0  0  0  0  0  0  0  0  0  0  0  0
   15.6785  -11.1932  -10.3924 C   0  0  0  0  0  0  0  0  0  0  0  0
   14.5970  -10.3425   -9.7191 C   0  0  2  0  0  0  0  0  0  0  0  0
   13.3586  -10.6810  -10.4071 N   0  0  0  0  0  0  0  0  0  0  0  0
   14.9760   -8.9339   -9.9349 C   0  0  0  0  0  0  0  0  0  0  0  0
   14.7758   -8.4219  -11.0863 O   0  0  0  0  0  0  0  0  0  0  0  0
   15.6383   -5.9001   -8.0317 C   0  0  0  0  0  0  0  0  0  0  0  0
   15.9023   -6.7170   -9.2764 C   0  0  2  0  0  0  0  0  0  0  0  0
   15.5527   -8.0813   -8.9645 N   0  0  0  0  0  0  0  0  0  0  0  0
   17.2934   -6.5755   -9.7428 C   0  0  0  0  0  0  0  0  0  0  0  0
   18.2807   -7.0386   -9.0788 O   0  0  0  0  0  0  0  0  0  0  0  0
   21.2085   -8.5231  -12.9359 N   0  0  0  0  0  0  0  0  0  0  0  0
   20.7995   -7.3142  -12.3169 C   0  0  0  0  0  0  0  0  0  0  0  0
   21.5976   -6.3613  -12.3391 O   0  0  0  0  0  0  0  0  0  0  0  0
   19.4883   -7.2194  -11.6857 C   0  0  0  0  0  0  0  0  0  0  0  0
   18.9471   -5.8340  -11.5180 C   0  0  2  0  0  0  0  0  0  0  0  0
   17.5735   -5.9132  -10.9561 N   0  0  0  0  0  0  0  0  0  0  0  0
   18.9017   -5.0441  -12.7686 C   0  0  0  0  0  0  0  0  0  0  0  0
   17.9915   -5.3182  -13.6039 O   0  0  0  0  0  0  0  0  0  0  0  0
   19.7630   -4.0534  -13.0760 O   0  0  0  0  0  0  0  0  0  0  0  0
  2  1  1  0
  3  5  1  0
  3  2  1  0
  3  4  1  6
  5  6  2  0
  8  7  1  1
  9  8  1  0
  9  5  1  0
 10 11  2  0
 10  8  1  0
 12 13  1  0
 13 15  1  0
 13 14  2  0
 16 15  1  6
 16 17  1  0
 16 18  1  0
 17 10  1  0
 18 20  1  0
 19 18  2  0
M  END
$$$$
