SAN.pdb
     RDKit          3D

 20 19  0  0  1  0  0  0  0  0999 V2000
   21.2455  -12.2889  -20.1250 O   0  0  0  0  0  0  0  0  0  0  0  0
   21.1814  -11.3246  -19.0931 C   0  0  0  0  0  0  0  0  0  0  0  0
   20.7798  -11.9995  -17.7779 C   0  0  2  0  0  0  0  0  0  0  0  0
   19.3717  -12.3377  -17.9342 N   0  0  0  0  0  0  0  0  0  0  0  0
   20.9884  -11.0012  -16.7128 C   0  0  0  0  0  0  0  0  0  0  0  0
   20.1800  -10.0169  -16.6380 O   0  0  0  0  0  0  0  0  0  0  0  0
   23.3005  -10.3882  -13.8549 C   0  0  0  0  0  0  0  0  0  0  0  0
   22.1959   -9.9643  -14.7964 C   0  0  2  0  0  0  0  0  0  0  0  0
   22.0223  -11.0345  -15.7479 N   0  0  0  0  0  0  0  0  0  0  0  0
   22.4866   -8.6698  -15.4386 C   0  0  0  0  0  0  0  0  0  0  0  0
   23.1614   -8.5863  -16.5193 O   0  0  0  0  0  0  0  0  0  0  0  0
   22.2998   -3.7125  -16.9331 N   0  0  0  0  0  0  0  0  0  0  0  0
   21.3928   -4.7143  -17.3636 C   0  0  0  0  0  0  0  0  0  0  0  0
   20.6660   -4.4486  -18.3366 O   0  0  0  0  0  0  0  0  0  0  0  0
   21.3348   -5.9978  -16.6738 C   0  0  0  0  0  0  0  0  0  0  0  0
   22.2491   -6.1447  -15.4978 C   0  0  2  0  0  0  0  0  0  0  0  0
   22.0183   -7.4695  -14.8649 N   0  0  0  0  0  0  0  0  0  0  0  0
   22.0879   -5.0942  -14.4681 C   0  0  0  0  0  0  0  0  0  0  0  0
   21.0973   -5.1850  -13.6861 O   0  0  0  0  0  0  0  0  0  0  0  0
   22.9251   -4.0496  -14.3075 O   0  0  0  0  0  0  0  0  0  0  0  0
  2  1  1  0
  3  5  1  0
  3  2  1  0
  3  4  1  6
  5  6  2  0
  8  7  1  1
  9  8  1  0
  9  5  1  0
 10 11  2  0
 10  8  1  0
 12 13  1  0
 13 15  1  0
 13 14  2  0
 16 15  1  6
 16 17  1  0
 16 18  1  0
 17 10  1  0
 18 20  1  0
 19 18  2  0
M  END
$$$$
