SAN.pdb
     RDKit          3D

 20 19  0  0  1  0  0  0  0  0999 V2000
   16.4127   -7.8319  -16.4489 O   0  0  0  0  0  0  0  0  0  0  0  0
   17.6105   -7.7870  -15.6991 C   0  0  0  0  0  0  0  0  0  0  0  0
   17.9888   -9.1995  -15.2424 C   0  0  2  0  0  0  0  0  0  0  0  0
   16.9886   -9.5620  -14.2475 N   0  0  0  0  0  0  0  0  0  0  0  0
   19.3373   -9.1034  -14.6536 C   0  0  0  0  0  0  0  0  0  0  0  0
   19.4405   -8.7672  -13.4271 O   0  0  0  0  0  0  0  0  0  0  0  0
   22.8229  -10.0270  -15.4720 C   0  0  0  0  0  0  0  0  0  0  0  0
   21.8258   -9.2151  -14.6765 C   0  0  2  0  0  0  0  0  0  0  0  0
   20.5506   -9.3539  -15.3364 N   0  0  0  0  0  0  0  0  0  0  0  0
   22.2473   -7.8097  -14.5365 C   0  0  0  0  0  0  0  0  0  0  0  0
   23.3099   -7.4804  -13.9098 O   0  0  0  0  0  0  0  0  0  0  0  0
   21.9792   -2.4645  -17.2311 N   0  0  0  0  0  0  0  0  0  0  0  0
   21.4118   -3.1498  -16.1266 C   0  0  0  0  0  0  0  0  0  0  0  0
   21.0613   -2.4675  -15.1483 O   0  0  0  0  0  0  0  0  0  0  0  0
   21.2569   -4.5994  -16.1627 C   0  0  0  0  0  0  0  0  0  0  0  0
   21.8811   -5.3476  -15.0265 C   0  0  2  0  0  0  0  0  0  0  0  0
   21.4734   -6.7748  -15.1016 N   0  0  0  0  0  0  0  0  0  0  0  0
   21.5279   -4.8246  -13.6880 C   0  0  0  0  0  0  0  0  0  0  0  0
   20.4580   -5.2427  -13.1574 O   0  0  0  0  0  0  0  0  0  0  0  0
   22.2693   -3.9350  -12.9974 O   0  0  0  0  0  0  0  0  0  0  0  0
  2  1  1  0
  3  5  1  0
  3  2  1  0
  3  4  1  1
  5  6  2  0
  8  7  1  6
  9  8  1  0
  9  5  1  0
 10 11  2  0
 10  8  1  0
 12 13  1  0
 13 15  1  0
 13 14  2  0
 16 15  1  6
 16 17  1  0
 16 18  1  0
 17 10  1  0
 18 20  1  0
 19 18  2  0
M  END
$$$$
