SAN.pdb
     RDKit          3D

 20 19  0  0  1  0  0  0  0  0999 V2000
   14.4275  -11.6561  -14.9670 O   0  0  0  0  0  0  0  0  0  0  0  0
   15.7564  -11.1755  -15.0103 C   0  0  0  0  0  0  0  0  0  0  0  0
   16.5292  -11.8895  -16.1237 C   0  0  2  0  0  0  0  0  0  0  0  0
   16.8054  -13.2225  -15.6055 N   0  0  0  0  0  0  0  0  0  0  0  0
   17.7673  -11.1175  -16.3371 C   0  0  0  0  0  0  0  0  0  0  0  0
   18.7190  -11.2543  -15.4984 O   0  0  0  0  0  0  0  0  0  0  0  0
   19.3195   -8.9962  -18.9547 C   0  0  0  0  0  0  0  0  0  0  0  0
   19.2563   -9.5219  -17.5384 C   0  0  2  0  0  0  0  0  0  0  0  0
   18.0017  -10.2216  -17.4064 N   0  0  0  0  0  0  0  0  0  0  0  0
   19.4183   -8.4459  -16.5441 C   0  0  0  0  0  0  0  0  0  0  0  0
   18.4214   -7.7972  -16.0797 O   0  0  0  0  0  0  0  0  0  0  0  0
   21.8781   -5.2756  -13.0673 N   0  0  0  0  0  0  0  0  0  0  0  0
   22.1391   -6.6597  -12.9011 C   0  0  0  0  0  0  0  0  0  0  0  0
   22.7493   -7.0080  -11.8754 O   0  0  0  0  0  0  0  0  0  0  0  0
   21.6982   -7.6165  -13.9095 C   0  0  0  0  0  0  0  0  0  0  0  0
   20.9122   -7.0443  -15.0476 C   0  0  2  0  0  0  0  0  0  0  0  0
   20.7016   -8.0998  -16.0724 N   0  0  0  0  0  0  0  0  0  0  0  0
   21.5460   -5.8750  -15.6963 C   0  0  0  0  0  0  0  0  0  0  0  0
   21.5475   -4.7802  -15.0619 O   0  0  0  0  0  0  0  0  0  0  0  0
   22.1218   -5.8989  -16.9152 O   0  0  0  0  0  0  0  0  0  0  0  0
  2  1  1  0
  3  5  1  0
  3  2  1  0
  3  4  1  1
  5  6  2  0
  8  7  1  6
  9  8  1  0
  9  5  1  0
 10 11  2  0
 10  8  1  0
 12 13  1  0
 13 15  1  0
 13 14  2  0
 16 15  1  1
 16 17  1  0
 16 18  1  0
 17 10  1  0
 18 20  1  0
 19 18  2  0
M  END
$$$$
