SAN.pdb
     RDKit          3D

 20 19  0  0  1  0  0  0  0  0999 V2000
   16.6600  -13.5401  -15.5366 O   0  0  0  0  0  0  0  0  0  0  0  0
   17.7018  -12.6868  -15.1061 C   0  0  0  0  0  0  0  0  0  0  0  0
   17.4980  -11.2853  -15.6901 C   0  0  2  0  0  0  0  0  0  0  0  0
   17.5698  -11.4572  -17.1347 N   0  0  0  0  0  0  0  0  0  0  0  0
   18.6044  -10.4536  -15.1818 C   0  0  0  0  0  0  0  0  0  0  0  0
   18.7042  -10.2821  -13.9214 O   0  0  0  0  0  0  0  0  0  0  0  0
   21.5766   -8.6380  -16.5063 C   0  0  0  0  0  0  0  0  0  0  0  0
   20.6483   -9.0437  -15.3838 C   0  0  2  0  0  0  0  0  0  0  0  0
   19.5842   -9.8155  -15.9780 N   0  0  0  0  0  0  0  0  0  0  0  0
   20.1560   -7.8779  -14.6282 C   0  0  0  0  0  0  0  0  0  0  0  0
   19.1636   -7.1814  -15.0283 O   0  0  0  0  0  0  0  0  0  0  0  0
   19.3848   -4.3225  -10.8702 N   0  0  0  0  0  0  0  0  0  0  0  0
   19.3303   -5.6773  -10.4540 C   0  0  0  0  0  0  0  0  0  0  0  0
   18.9450   -5.9048   -9.2941 O   0  0  0  0  0  0  0  0  0  0  0  0
   19.7172   -6.7433  -11.3709 C   0  0  0  0  0  0  0  0  0  0  0  0
   20.3517   -6.2994  -12.6518 C   0  0  2  0  0  0  0  0  0  0  0  0
   20.7801   -7.4958  -13.4225 N   0  0  0  0  0  0  0  0  0  0  0  0
   21.5197   -5.4082  -12.4741 C   0  0  0  0  0  0  0  0  0  0  0  0
   21.3252   -4.2886  -11.9176 O   0  0  0  0  0  0  0  0  0  0  0  0
   22.7747   -5.7097  -12.8641 O   0  0  0  0  0  0  0  0  0  0  0  0
  2  1  1  0
  3  5  1  0
  3  2  1  0
  3  4  1  6
  5  6  2  0
  8  7  1  6
  9  8  1  0
  9  5  1  0
 10 11  2  0
 10  8  1  0
 12 13  1  0
 13 15  1  0
 13 14  2  0
 16 15  1  1
 16 17  1  0
 16 18  1  0
 17 10  1  0
 18 20  1  0
 19 18  2  0
M  END
$$$$
