NPQ.pdb
     RDKit          3D

 25 25  0  0  1  0  0  0  0  0999 V2000
    6.6780  -20.0539   17.8517 N   0  0  0  0  0  0  0  0  0  0  0  0
    6.6592  -18.7239   17.3619 C   0  0  0  0  0  0  0  0  0  0  0  0
    6.4243  -18.5192   16.1583 O   0  0  0  0  0  0  0  0  0  0  0  0
    6.9135  -17.5669   18.2519 C   0  0  0  0  0  0  0  0  0  0  0  0
    7.9695  -16.6585   17.6488 C   0  0  2  0  0  0  0  0  0  0  0  0
    8.7236  -17.4190   16.7161 N   0  0  0  0  0  0  0  0  0  0  0  0
    8.7698  -15.9801   18.6548 C   0  0  0  0  0  0  0  0  0  0  0  0
   10.0215  -16.2676   18.6659 O   0  0  0  0  0  0  0  0  0  0  0  0
    8.3116  -15.0550   19.6009 N   0  0  0  0  0  0  0  0  0  0  0  0
    7.0241  -14.4745   19.8746 C   0  0  0  0  0  0  0  0  0  0  0  0
    7.3968  -12.9786   19.9333 C   0  0  0  0  0  0  0  0  0  0  0  0
    8.5888  -13.0377   20.8534 C   0  0  0  0  0  0  0  0  0  0  0  0
    9.1643  -14.4172   20.6435 C   0  0  1  0  0  0  0  0  0  0  0  0
    9.0004  -15.1956   21.8976 C   0  0  0  0  0  0  0  0  0  0  0  0
    7.9589  -15.8510   22.1588 O   0  0  0  0  0  0  0  0  0  0  0  0
   11.7115  -19.1622   21.4707 N   0  0  0  0  0  0  0  0  0  0  0  0
   12.1819  -19.2884   22.8080 C   0  0  0  0  0  0  0  0  0  0  0  0
   12.4905  -20.4108   23.2564 O   0  0  0  0  0  0  0  0  0  0  0  0
   12.2985  -18.0839   23.6490 C   0  0  0  0  0  0  0  0  0  0  0  0
   11.7196  -16.9089   22.9173 C   0  0  0  0  0  0  0  0  0  0  0  0
   10.4199  -16.4259   23.5226 C   0  0  2  0  0  0  0  0  0  0  0  0
   10.0540  -15.2029   22.8376 N   0  0  0  0  0  0  0  0  0  0  0  0
   10.5391  -16.1498   24.9624 C   0  0  0  0  0  0  0  0  0  0  0  0
    9.9025  -16.8235   25.7891 O   0  0  0  0  0  0  0  0  0  0  0  0
   11.3627  -15.1371   25.3951 O   0  0  0  0  0  0  0  0  0  0  0  0
  1  2  1  0
  2  3  2  0
  4  2  1  0
  5  4  1  0
  5  6  1  6
  7  5  1  0
  7  8  2  0
  9  7  1  0
 10  9  1  0
 11 10  1  0
 11 12  1  0
 12 13  1  0
 13  9  1  0
 13 14  1  1
 15 14  2  0
 16 17  1  0
 17 19  1  0
 18 17  2  0
 19 20  1  0
 21 20  1  6
 21 22  1  0
 21 23  1  0
 22 14  1  0
 23 25  1  0
 24 23  2  0
M  END
$$$$
