NPQ.pdb
     RDKit          3D

 25 25  0  0  1  0  0  0  0  0999 V2000
    8.2395  -17.6658   26.1553 N   0  0  0  0  0  0  0  0  0  0  0  0
    7.6496  -16.3832   26.2832 C   0  0  0  0  0  0  0  0  0  0  0  0
    8.0874  -15.5915   27.1360 O   0  0  0  0  0  0  0  0  0  0  0  0
    6.5199  -15.9608   25.4225 C   0  0  0  0  0  0  0  0  0  0  0  0
    6.2220  -17.0248   24.3817 C   0  0  2  0  0  0  0  0  0  0  0  0
    6.1084  -18.2735   25.0489 N   0  0  0  0  0  0  0  0  0  0  0  0
    7.1717  -17.0178   23.2814 C   0  0  0  0  0  0  0  0  0  0  0  0
    7.6114  -18.1660   22.9104 O   0  0  0  0  0  0  0  0  0  0  0  0
    7.6468  -15.8926   22.5966 N   0  0  0  0  0  0  0  0  0  0  0  0
    7.3632  -14.4853   22.6884 C   0  0  0  0  0  0  0  0  0  0  0  0
    7.1061  -14.1527   21.2040 C   0  0  0  0  0  0  0  0  0  0  0  0
    8.3094  -14.8050   20.5734 C   0  0  0  0  0  0  0  0  0  0  0  0
    8.6693  -15.9301   21.5131 C   0  0  1  0  0  0  0  0  0  0  0  0
    9.9880  -15.6316   22.1276 C   0  0  0  0  0  0  0  0  0  0  0  0
   10.1326  -14.7861   23.0477 O   0  0  0  0  0  0  0  0  0  0  0  0
   13.0095  -18.5049   25.7057 N   0  0  0  0  0  0  0  0  0  0  0  0
   12.0922  -19.1263   24.8123 C   0  0  0  0  0  0  0  0  0  0  0  0
   11.7933  -20.3280   24.9627 O   0  0  0  0  0  0  0  0  0  0  0  0
   11.5051  -18.3363   23.7156 C   0  0  0  0  0  0  0  0  0  0  0  0
   12.0009  -16.9228   23.8005 C   0  0  0  0  0  0  0  0  0  0  0  0
   12.3464  -16.3422   22.4469 C   0  0  2  0  0  0  0  0  0  0  0  0
   11.1283  -16.3228   21.6630 N   0  0  0  0  0  0  0  0  0  0  0  0
   13.3592  -17.1377   21.7363 C   0  0  0  0  0  0  0  0  0  0  0  0
   13.0412  -17.8386   20.7614 O   0  0  0  0  0  0  0  0  0  0  0  0
   14.6683  -17.1042   22.1560 O   0  0  0  0  0  0  0  0  0  0  0  0
  1  2  1  0
  2  3  2  0
  4  2  1  0
  5  4  1  0
  5  6  1  1
  7  5  1  0
  7  8  2  0
  9  7  1  0
 10  9  1  0
 11 10  1  0
 11 12  1  0
 12 13  1  0
 13  9  1  0
 13 14  1  1
 15 14  2  0
 16 17  1  0
 17 19  1  0
 18 17  2  0
 19 20  1  0
 21 20  1  1
 21 22  1  0
 21 23  1  0
 22 14  1  0
 23 25  1  0
 24 23  2  0
M  END
$$$$
