NPQ.pdb
     RDKit          3D

 25 25  0  0  1  0  0  0  0  0999 V2000
    6.8188  -19.9342   16.7729 N   0  0  0  0  0  0  0  0  0  0  0  0
    6.5517  -18.5868   17.1227 C   0  0  0  0  0  0  0  0  0  0  0  0
    5.6713  -17.9591   16.5089 O   0  0  0  0  0  0  0  0  0  0  0  0
    7.2982  -17.9051   18.2059 C   0  0  0  0  0  0  0  0  0  0  0  0
    8.1717  -16.8035   17.6333 C   0  0  2  0  0  0  0  0  0  0  0  0
    9.0081  -17.3771   16.6391 N   0  0  0  0  0  0  0  0  0  0  0  0
    8.8838  -16.0593   18.6587 C   0  0  0  0  0  0  0  0  0  0  0  0
   10.1374  -16.3148   18.7711 O   0  0  0  0  0  0  0  0  0  0  0  0
    8.3399  -15.1027   19.5247 N   0  0  0  0  0  0  0  0  0  0  0  0
    7.0226  -14.5473   19.6842 C   0  0  0  0  0  0  0  0  0  0  0  0
    7.3516  -13.0401   19.6910 C   0  0  0  0  0  0  0  0  0  0  0  0
    8.4810  -13.0192   20.6885 C   0  0  0  0  0  0  0  0  0  0  0  0
    9.1047  -14.3900   20.5869 C   0  0  1  0  0  0  0  0  0  0  0  0
    8.8780  -15.1105   21.8657 C   0  0  0  0  0  0  0  0  0  0  0  0
    7.7862  -15.6689   22.1460 O   0  0  0  0  0  0  0  0  0  0  0  0
   11.2755  -19.7196   21.8225 N   0  0  0  0  0  0  0  0  0  0  0  0
   12.2286  -18.8487   22.4216 C   0  0  0  0  0  0  0  0  0  0  0  0
   13.3954  -19.2435   22.6189 O   0  0  0  0  0  0  0  0  0  0  0  0
   11.8210  -17.4849   22.8026 C   0  0  0  0  0  0  0  0  0  0  0  0
   10.3694  -17.4877   23.1822 C   0  0  0  0  0  0  0  0  0  0  0  0
    9.9334  -16.1946   23.8353 C   0  0  2  0  0  0  0  0  0  0  0  0
    9.9279  -15.1735   22.8076 N   0  0  0  0  0  0  0  0  0  0  0  0
   10.8389  -15.7786   24.9172 C   0  0  0  0  0  0  0  0  0  0  0  0
   11.6628  -14.8671   24.7353 O   0  0  0  0  0  0  0  0  0  0  0  0
   10.7715  -16.4049   26.1396 O   0  0  0  0  0  0  0  0  0  0  0  0
  1  2  1  0
  2  3  2  0
  4  2  1  0
  5  4  1  0
  5  6  1  6
  7  5  1  0
  7  8  2  0
  9  7  1  0
 10  9  1  0
 11 10  1  0
 11 12  1  0
 12 13  1  0
 13  9  1  0
 13 14  1  1
 15 14  2  0
 16 17  1  0
 17 19  1  0
 18 17  2  0
 19 20  1  0
 21 20  1  6
 21 22  1  0
 21 23  1  0
 22 14  1  0
 23 25  1  0
 24 23  2  0
M  END
$$$$
