NPQ.pdb
     RDKit          3D

 25 25  0  0  1  0  0  0  0  0999 V2000
    8.6245  -18.3372   16.2603 N   0  0  0  0  0  0  0  0  0  0  0  0
    7.9311  -18.6327   17.4607 C   0  0  0  0  0  0  0  0  0  0  0  0
    7.1346  -19.5871   17.4873 O   0  0  0  0  0  0  0  0  0  0  0  0
    8.1323  -17.8296   18.6895 C   0  0  0  0  0  0  0  0  0  0  0  0
    9.0303  -16.6400   18.4019 C   0  0  2  0  0  0  0  0  0  0  0  0
   10.1703  -17.1094   17.6969 N   0  0  0  0  0  0  0  0  0  0  0  0
    9.3391  -15.8666   19.5932 C   0  0  0  0  0  0  0  0  0  0  0  0
   10.5619  -15.9001   19.9844 O   0  0  0  0  0  0  0  0  0  0  0  0
    8.4416  -15.0987   20.3453 N   0  0  0  0  0  0  0  0  0  0  0  0
    7.0362  -14.8172   20.2234 C   0  0  0  0  0  0  0  0  0  0  0  0
    7.0451  -13.2797   20.3511 C   0  0  0  0  0  0  0  0  0  0  0  0
    7.9081  -13.1199   21.5761 C   0  0  0  0  0  0  0  0  0  0  0  0
    8.8026  -14.3357   21.5735 C   0  0  1  0  0  0  0  0  0  0  0  0
    8.4589  -15.1803   22.7458 C   0  0  0  0  0  0  0  0  0  0  0  0
    7.5604  -16.0599   22.7088 O   0  0  0  0  0  0  0  0  0  0  0  0
   10.2580  -15.8465   28.6418 N   0  0  0  0  0  0  0  0  0  0  0  0
    9.9548  -14.5556   28.1248 C   0  0  0  0  0  0  0  0  0  0  0  0
    9.7181  -13.6119   28.9054 O   0  0  0  0  0  0  0  0  0  0  0  0
    9.9248  -14.3510   26.6657 C   0  0  0  0  0  0  0  0  0  0  0  0
   10.2498  -15.6432   25.9759 C   0  0  0  0  0  0  0  0  0  0  0  0
    9.2072  -16.0382   24.9532 C   0  0  2  0  0  0  0  0  0  0  0  0
    9.1670  -14.9913   23.9527 N   0  0  0  0  0  0  0  0  0  0  0  0
    7.8683  -16.1859   25.5442 C   0  0  0  0  0  0  0  0  0  0  0  0
    6.9991  -15.3175   25.3627 O   0  0  0  0  0  0  0  0  0  0  0  0
    7.5782  -17.2952   26.3035 O   0  0  0  0  0  0  0  0  0  0  0  0
  1  2  1  0
  2  3  2  0
  4  2  1  0
  5  4  1  0
  5  6  1  1
  7  5  1  0
  7  8  2  0
  9  7  1  0
 10  9  1  0
 11 10  1  0
 11 12  1  0
 12 13  1  0
 13  9  1  0
 13 14  1  1
 15 14  2  0
 16 17  1  0
 17 19  1  0
 18 17  2  0
 19 20  1  0
 21 20  1  1
 21 22  1  0
 21 23  1  0
 22 14  1  0
 23 25  1  0
 24 23  2  0
M  END
$$$$
