NPQ.pdb
     RDKit          3D

 25 25  0  0  1  0  0  0  0  0999 V2000
    7.1115  -13.1554   18.7911 N   0  0  0  0  0  0  0  0  0  0  0  0
    6.9501  -14.4019   19.4465 C   0  0  0  0  0  0  0  0  0  0  0  0
    6.3950  -15.3396   18.8479 O   0  0  0  0  0  0  0  0  0  0  0  0
    7.4282  -14.6160   20.8324 C   0  0  0  0  0  0  0  0  0  0  0  0
    7.9383  -13.3139   21.4226 C   0  0  2  0  0  0  0  0  0  0  0  0
    8.8357  -12.7296   20.4896 N   0  0  0  0  0  0  0  0  0  0  0  0
    8.4861  -13.4776   22.7588 C   0  0  0  0  0  0  0  0  0  0  0  0
    9.7522  -13.6825   22.8267 O   0  0  0  0  0  0  0  0  0  0  0  0
    7.7738  -13.4341   23.9636 N   0  0  0  0  0  0  0  0  0  0  0  0
    6.3964  -13.1785   24.2903 C   0  0  0  0  0  0  0  0  0  0  0  0
    6.5624  -12.1231   25.4033 C   0  0  0  0  0  0  0  0  0  0  0  0
    7.5962  -12.8039   26.2629 C   0  0  0  0  0  0  0  0  0  0  0  0
    8.3678  -13.6818   25.3078 C   0  0  1  0  0  0  0  0  0  0  0  0
    8.1129  -15.1025   25.6580 C   0  0  0  0  0  0  0  0  0  0  0  0
    7.1656  -15.7648   25.1615 O   0  0  0  0  0  0  0  0  0  0  0  0
   11.7664  -17.1108   22.9043 N   0  0  0  0  0  0  0  0  0  0  0  0
   11.7405  -18.3321   23.6347 C   0  0  0  0  0  0  0  0  0  0  0  0
   12.3452  -19.3319   23.1979 O   0  0  0  0  0  0  0  0  0  0  0  0
   10.9950  -18.3985   24.9041 C   0  0  0  0  0  0  0  0  0  0  0  0
   10.3775  -17.0609   25.1883 C   0  0  0  0  0  0  0  0  0  0  0  0
    9.4178  -17.0967   26.3573 C   0  0  2  0  0  0  0  0  0  0  0  0
    8.9661  -15.7392   26.5855 N   0  0  0  0  0  0  0  0  0  0  0  0
   10.0479  -17.6034   27.5861 C   0  0  0  0  0  0  0  0  0  0  0  0
   10.5722  -16.8206   28.3955 O   0  0  0  0  0  0  0  0  0  0  0  0
   10.0558  -18.9550   27.8393 O   0  0  0  0  0  0  0  0  0  0  0  0
  1  2  1  0
  2  3  2  0
  4  2  1  0
  5  4  1  0
  5  6  1  6
  7  5  1  0
  7  8  2  0
  9  7  1  0
 10  9  1  0
 11 10  1  0
 11 12  1  0
 12 13  1  0
 13  9  1  0
 13 14  1  1
 15 14  2  0
 16 17  1  0
 17 19  1  0
 18 17  2  0
 19 20  1  0
 21 20  1  6
 21 22  1  0
 21 23  1  0
 22 14  1  0
 23 25  1  0
 24 23  2  0
M  END
$$$$
