NPQ.pdb
     RDKit          3D

 25 25  0  0  1  0  0  0  0  0999 V2000
    5.6368  -19.1659   23.6758 N   0  0  0  0  0  0  0  0  0  0  0  0
    5.1943  -18.7978   22.3805 C   0  0  0  0  0  0  0  0  0  0  0  0
    4.6197  -19.6399   21.6688 O   0  0  0  0  0  0  0  0  0  0  0  0
    5.4001  -17.4292   21.8514 C   0  0  0  0  0  0  0  0  0  0  0  0
    6.4124  -17.4467   20.7203 C   0  0  2  0  0  0  0  0  0  0  0  0
    6.6501  -18.8007   20.3635 N   0  0  0  0  0  0  0  0  0  0  0  0
    7.6136  -16.6885   21.0279 C   0  0  0  0  0  0  0  0  0  0  0  0
    8.7207  -17.3357   20.9583 O   0  0  0  0  0  0  0  0  0  0  0  0
    7.6776  -15.3370   21.3886 N   0  0  0  0  0  0  0  0  0  0  0  0
    6.6855  -14.3635   21.7595 C   0  0  0  0  0  0  0  0  0  0  0  0
    7.0764  -13.1955   20.8305 C   0  0  0  0  0  0  0  0  0  0  0  0
    8.5597  -13.1353   21.0891 C   0  0  0  0  0  0  0  0  0  0  0  0
    8.9359  -14.5438   21.4802 C   0  0  1  0  0  0  0  0  0  0  0  0
    9.3652  -14.5427   22.9020 C   0  0  0  0  0  0  0  0  0  0  0  0
   10.2282  -13.7447   23.3502 O   0  0  0  0  0  0  0  0  0  0  0  0
    6.9886  -12.1432   26.8890 N   0  0  0  0  0  0  0  0  0  0  0  0
    6.1700  -13.1851   26.3696 C   0  0  0  0  0  0  0  0  0  0  0  0
    4.9294  -13.1157   26.4792 O   0  0  0  0  0  0  0  0  0  0  0  0
    6.8036  -14.3381   25.7057 C   0  0  0  0  0  0  0  0  0  0  0  0
    8.2938  -14.1644   25.7230 C   0  0  0  0  0  0  0  0  0  0  0  0
    9.0304  -15.3842   25.2147 C   0  0  2  0  0  0  0  0  0  0  0  0
    8.7836  -15.4738   23.7900 N   0  0  0  0  0  0  0  0  0  0  0  0
    8.5726  -16.6253   25.8579 C   0  0  0  0  0  0  0  0  0  0  0  0
    8.8114  -16.8396   27.0577 O   0  0  0  0  0  0  0  0  0  0  0  0
    7.8747  -17.5550   25.1233 O   0  0  0  0  0  0  0  0  0  0  0  0
  1  2  1  0
  2  3  2  0
  4  2  1  0
  5  4  1  0
  5  6  1  1
  7  5  1  0
  7  8  2  0
  9  7  1  0
 10  9  1  0
 11 10  1  0
 11 12  1  0
 12 13  1  0
 13  9  1  0
 13 14  1  1
 15 14  2  0
 16 17  1  0
 17 19  1  0
 18 17  2  0
 19 20  1  0
 21 20  1  1
 21 22  1  0
 21 23  1  0
 22 14  1  0
 23 25  1  0
 24 23  2  0
M  END
$$$$
