NPQ.pdb
     RDKit          3D

 25 25  0  0  1  0  0  0  0  0999 V2000
   10.2922  -15.7783   15.9793 N   0  0  0  0  0  0  0  0  0  0  0  0
    9.0564  -16.4447   16.1739 C   0  0  0  0  0  0  0  0  0  0  0  0
    8.9788  -17.6655   15.9519 O   0  0  0  0  0  0  0  0  0  0  0  0
    7.8499  -15.7199   16.6370 C   0  0  0  0  0  0  0  0  0  0  0  0
    8.1853  -14.2687   16.9298 C   0  0  2  0  0  0  0  0  0  0  0  0
    8.8955  -13.7477   15.8156 N   0  0  0  0  0  0  0  0  0  0  0  0
    8.8594  -14.0928   18.2054 C   0  0  0  0  0  0  0  0  0  0  0  0
   10.0468  -13.6061   18.1518 O   0  0  0  0  0  0  0  0  0  0  0  0
    8.3441  -14.3998   19.4706 N   0  0  0  0  0  0  0  0  0  0  0  0
    7.1449  -15.0563   19.9182 C   0  0  0  0  0  0  0  0  0  0  0  0
    6.6399  -14.0387   20.9621 C   0  0  0  0  0  0  0  0  0  0  0  0
    7.9067  -13.8116   21.7462 C   0  0  0  0  0  0  0  0  0  0  0  0
    9.0181  -14.0781   20.7603 C   0  0  1  0  0  0  0  0  0  0  0  0
    9.7586  -15.2895   21.1960 C   0  0  0  0  0  0  0  0  0  0  0  0
    9.4502  -16.4478   20.8141 O   0  0  0  0  0  0  0  0  0  0  0  0
   14.2274  -13.9810   19.6384 N   0  0  0  0  0  0  0  0  0  0  0  0
   14.6745  -15.2854   19.9913 C   0  0  0  0  0  0  0  0  0  0  0  0
   15.8595  -15.6149   19.7838 O   0  0  0  0  0  0  0  0  0  0  0  0
   13.7252  -16.2337   20.6003 C   0  0  0  0  0  0  0  0  0  0  0  0
   13.1760  -15.6436   21.8658 C   0  0  0  0  0  0  0  0  0  0  0  0
   11.8207  -16.2065   22.2332 C   0  0  2  0  0  0  0  0  0  0  0  0
   10.8537  -15.1395   22.0745 N   0  0  0  0  0  0  0  0  0  0  0  0
   11.7717  -16.6931   23.6204 C   0  0  0  0  0  0  0  0  0  0  0  0
   11.1307  -16.0727   24.4846 O   0  0  0  0  0  0  0  0  0  0  0  0
   12.4418  -17.8445   23.9617 O   0  0  0  0  0  0  0  0  0  0  0  0
  1  2  1  0
  2  3  2  0
  4  2  1  0
  5  4  1  0
  5  6  1  6
  7  5  1  0
  7  8  2  0
  9  7  1  0
 10  9  1  0
 11 10  1  0
 11 12  1  0
 12 13  1  0
 13  9  1  0
 13 14  1  1
 15 14  2  0
 16 17  1  0
 17 19  1  0
 18 17  2  0
 19 20  1  0
 21 20  1  1
 21 22  1  0
 21 23  1  0
 22 14  1  0
 23 25  1  0
 24 23  2  0
M  END
$$$$
