CQT.pdb
     RDKit          3D

 23 22  0  0  1  0  0  0  0  0999 V2000
    7.0129  -15.6918   18.7243 N   0  0  0  0  0  0  0  0  0  0  0  0
    7.8525  -14.8696   19.5568 C   0  0  1  0  0  0  0  0  0  0  0  0
    7.3325  -13.4362   19.4084 C   0  0  0  0  0  0  0  0  0  0  0  0
    8.2503  -12.3135   20.4967 S   0  0  0  0  0  0  0  0  0  0  0  0
    7.8026  -15.2543   20.9773 C   0  0  0  0  0  0  0  0  0  0  0  0
    6.6720  -15.5318   21.4675 O   0  0  0  0  0  0  0  0  0  0  0  0
   12.0412  -18.5319   24.0670 N   0  0  0  0  0  0  0  0  0  0  0  0
   11.0383  -18.3236   25.0755 C   0  0  0  0  0  0  0  0  0  0  0  0
   11.2110  -18.9535   26.1416 O   0  0  0  0  0  0  0  0  0  0  0  0
    9.9000  -17.4211   24.8236 C   0  0  0  0  0  0  0  0  0  0  0  0
    9.9559  -16.8323   23.4509 C   0  0  0  0  0  0  0  0  0  0  0  0
    8.8723  -15.8611   23.1966 C   0  0  2  0  0  0  0  0  0  0  0  0
    8.9151  -15.3366   21.8299 N   0  0  0  0  0  0  0  0  0  0  0  0
    8.9634  -14.7243   24.1688 C   0  0  0  0  0  0  0  0  0  0  0  0
    9.8128  -13.8279   24.0962 O   0  0  0  0  0  0  0  0  0  0  0  0
    6.5607  -11.9840   25.2247 C   0  0  0  0  0  0  0  0  0  0  0  0
    6.8350  -12.8398   26.4557 C   0  0  1  0  0  0  0  0  0  0  0  0
    5.7654  -13.7648   26.5715 O   0  0  0  0  0  0  0  0  0  0  0  0
    8.1313  -13.5554   26.2102 C   0  0  2  0  0  0  0  0  0  0  0  0
    8.0479  -14.6164   25.2584 N   0  0  0  0  0  0  0  0  0  0  0  0
    8.6550  -14.0394   27.5262 C   0  0  0  0  0  0  0  0  0  0  0  0
    8.8694  -13.2411   28.6281 O   0  0  0  0  0  0  0  0  0  0  0  0
    8.9392  -15.2753   27.6883 O   0  0  0  0  0  0  0  0  0  0  0  0
  2  3  1  0
  2  1  1  6
  2  5  1  0
  3  4  1  0
  5  6  2  0
  7  8  1  0
  8  9  2  0
 10  8  1  0
 10 11  1  0
 12 11  1  1
 12 14  1  0
 13  5  1  0
 13 12  1  0
 14 20  1  0
 14 15  2  0
 17 16  1  6
 17 19  1  0
 18 17  1  0
 19 21  1  0
 19 20  1  6
 21 23  2  0
 21 22  1  0
M  END
$$$$
