CQT.pdb
     RDKit          3D

 23 22  0  0  1  0  0  0  0  0999 V2000
    7.5522  -14.9628   18.5055 N   0  0  0  0  0  0  0  0  0  0  0  0
    8.5892  -14.8105   19.4931 C   0  0  1  0  0  0  0  0  0  0  0  0
    9.0186  -13.3407   19.4416 C   0  0  0  0  0  0  0  0  0  0  0  0
    7.6573  -12.2643   19.9663 S   0  0  0  0  0  0  0  0  0  0  0  0
    8.1331  -15.1304   20.8562 C   0  0  0  0  0  0  0  0  0  0  0  0
    6.8877  -15.2098   21.0514 O   0  0  0  0  0  0  0  0  0  0  0  0
   10.1212  -20.2387   21.9508 N   0  0  0  0  0  0  0  0  0  0  0  0
    9.4220  -19.5538   23.0036 C   0  0  0  0  0  0  0  0  0  0  0  0
    9.4897  -20.0912   24.1304 O   0  0  0  0  0  0  0  0  0  0  0  0
    8.6867  -18.3065   22.7255 C   0  0  0  0  0  0  0  0  0  0  0  0
    9.1822  -17.1746   23.5665 C   0  0  0  0  0  0  0  0  0  0  0  0
    8.5291  -15.8893   23.2446 C   0  0  2  0  0  0  0  0  0  0  0  0
    8.9758  -15.3543   21.9566 N   0  0  0  0  0  0  0  0  0  0  0  0
    8.8086  -14.8874   24.3234 C   0  0  0  0  0  0  0  0  0  0  0  0
    9.8939  -14.3087   24.4558 O   0  0  0  0  0  0  0  0  0  0  0  0
    6.6241  -11.7848   25.3937 C   0  0  0  0  0  0  0  0  0  0  0  0
    6.8404  -12.6980   26.5947 C   0  0  1  0  0  0  0  0  0  0  0  0
    5.6747  -13.4955   26.7318 O   0  0  0  0  0  0  0  0  0  0  0  0
    8.0345  -13.5526   26.2843 C   0  0  2  0  0  0  0  0  0  0  0  0
    7.8070  -14.5410   25.2794 N   0  0  0  0  0  0  0  0  0  0  0  0
    8.5130  -14.1694   27.5614 C   0  0  0  0  0  0  0  0  0  0  0  0
    8.8893  -13.4629   28.6824 O   0  0  0  0  0  0  0  0  0  0  0  0
    8.5965  -15.4406   27.6682 O   0  0  0  0  0  0  0  0  0  0  0  0
  2  3  1  0
  2  1  1  6
  2  5  1  0
  3  4  1  0
  5  6  2  0
  7  8  1  0
  8  9  2  0
 10  8  1  0
 10 11  1  0
 12 11  1  1
 12 14  1  0
 13  5  1  0
 13 12  1  0
 14 20  1  0
 14 15  2  0
 17 16  1  6
 17 19  1  0
 18 17  1  0
 19 21  1  0
 19 20  1  6
 21 23  2  0
 21 22  1  0
M  END
$$$$
