CQT.pdb
     RDKit          3D

 23 22  0  0  1  0  0  0  0  0999 V2000
    6.6084  -20.3903   22.0248 N   0  0  0  0  0  0  0  0  0  0  0  0
    6.2372  -19.0846   22.5058 C   0  0  1  0  0  0  0  0  0  0  0  0
    5.9838  -19.2369   24.0090 C   0  0  0  0  0  0  0  0  0  0  0  0
    4.5263  -20.2743   24.3038 S   0  0  0  0  0  0  0  0  0  0  0  0
    7.2898  -18.0765   22.2955 C   0  0  0  0  0  0  0  0  0  0  0  0
    8.4828  -18.4213   22.5269 O   0  0  0  0  0  0  0  0  0  0  0  0
    6.9328  -12.6979   18.9528 N   0  0  0  0  0  0  0  0  0  0  0  0
    8.2808  -12.6744   19.4514 C   0  0  0  0  0  0  0  0  0  0  0  0
    8.9915  -11.7352   19.0320 O   0  0  0  0  0  0  0  0  0  0  0  0
    8.7495  -13.7102   20.3903 C   0  0  0  0  0  0  0  0  0  0  0  0
    7.6725  -14.6975   20.7052 C   0  0  0  0  0  0  0  0  0  0  0  0
    8.1339  -15.7925   21.5826 C   0  0  2  0  0  0  0  0  0  0  0  0
    7.0702  -16.7609   21.8575 N   0  0  0  0  0  0  0  0  0  0  0  0
    8.6441  -15.2334   22.8760 C   0  0  0  0  0  0  0  0  0  0  0  0
    9.7300  -14.6518   22.9895 O   0  0  0  0  0  0  0  0  0  0  0  0
    6.6706  -13.0019   25.5022 C   0  0  0  0  0  0  0  0  0  0  0  0
    7.2166  -14.2535   26.1793 C   0  0  1  0  0  0  0  0  0  0  0  0
    6.1524  -15.1890   26.2545 O   0  0  0  0  0  0  0  0  0  0  0  0
    8.3212  -14.7752   25.3075 C   0  0  2  0  0  0  0  0  0  0  0  0
    7.8800  -15.3477   24.0762 N   0  0  0  0  0  0  0  0  0  0  0  0
    9.1277  -15.7500   26.1073 C   0  0  0  0  0  0  0  0  0  0  0  0
    9.7015  -15.4786   27.3298 O   0  0  0  0  0  0  0  0  0  0  0  0
    9.3269  -16.9331   25.6655 O   0  0  0  0  0  0  0  0  0  0  0  0
  2  3  1  0
  2  1  1  1
  2  5  1  0
  3  4  1  0
  5  6  2  0
  7  8  1  0
  8  9  2  0
 10  8  1  0
 10 11  1  0
 12 11  1  6
 12 14  1  0
 13  5  1  0
 13 12  1  0
 14 20  1  0
 14 15  2  0
 17 16  1  6
 17 19  1  0
 18 17  1  0
 19 21  1  0
 19 20  1  6
 21 23  2  0
 21 22  1  0
M  END
$$$$
