CQT.pdb
     RDKit          3D

 23 22  0  0  1  0  0  0  0  0999 V2000
    8.3186  -13.8340   16.4446 N   0  0  0  0  0  0  0  0  0  0  0  0
    8.5871  -13.5016   17.8198 C   0  0  1  0  0  0  0  0  0  0  0  0
    7.2563  -13.0313   18.4155 C   0  0  0  0  0  0  0  0  0  0  0  0
    7.4246  -12.7503   20.1987 S   0  0  0  0  0  0  0  0  0  0  0  0
    9.0842  -14.6478   18.5992 C   0  0  0  0  0  0  0  0  0  0  0  0
    9.0806  -15.7800   18.0393 O   0  0  0  0  0  0  0  0  0  0  0  0
   14.7719  -15.5973   20.1926 N   0  0  0  0  0  0  0  0  0  0  0  0
   13.8002  -14.7432   19.5661 C   0  0  0  0  0  0  0  0  0  0  0  0
   14.1783  -14.1811   18.5153 O   0  0  0  0  0  0  0  0  0  0  0  0
   12.4618  -14.5706   20.1603 C   0  0  0  0  0  0  0  0  0  0  0  0
   11.6536  -15.8249   20.0732 C   0  0  0  0  0  0  0  0  0  0  0  0
   10.2806  -15.6623   20.5934 C   0  0  2  0  0  0  0  0  0  0  0  0
    9.5623  -14.5798   19.9176 N   0  0  0  0  0  0  0  0  0  0  0  0
   10.3189  -15.3902   22.0666 C   0  0  0  0  0  0  0  0  0  0  0  0
   10.7010  -14.3200   22.5553 O   0  0  0  0  0  0  0  0  0  0  0  0
    7.7271  -14.6957   24.0275 C   0  0  0  0  0  0  0  0  0  0  0  0
    8.2572  -15.9136   24.7750 C   0  0  1  0  0  0  0  0  0  0  0  0
    7.4954  -17.0325   24.3494 O   0  0  0  0  0  0  0  0  0  0  0  0
    9.6977  -16.0729   24.3848 C   0  0  2  0  0  0  0  0  0  0  0  0
    9.9043  -16.3814   23.0062 N   0  0  0  0  0  0  0  0  0  0  0  0
   10.3122  -17.1066   25.2760 C   0  0  0  0  0  0  0  0  0  0  0  0
   10.3985  -17.0106   26.6474 O   0  0  0  0  0  0  0  0  0  0  0  0
   10.8072  -18.1735   24.7747 O   0  0  0  0  0  0  0  0  0  0  0  0
  2  3  1  0
  2  1  1  6
  2  5  1  0
  3  4  1  0
  5  6  2  0
  7  8  1  0
  8  9  2  0
 10  8  1  0
 10 11  1  0
 12 11  1  6
 12 14  1  0
 13  5  1  0
 13 12  1  0
 14 20  1  0
 14 15  2  0
 17 16  1  6
 17 19  1  0
 18 17  1  0
 19 21  1  0
 19 20  1  6
 21 23  2  0
 21 22  1  0
M  END
$$$$
