FNQ.pdb
     RDKit          3D

 29 29  0  0  1  0  0  0  0  0999 V2000
   28.9940  -20.8135   -9.0002 N   0  0  0  0  0  0  0  0  0  0  0  0
   27.5565  -20.7733   -8.7715 C   0  0  1  0  0  0  0  0  0  0  0  0
   27.2329  -19.6139   -7.8647 C   0  0  0  0  0  0  0  0  0  0  0  0
   27.7892  -19.7182   -6.5168 C   0  0  0  0  0  0  0  0  0  0  0  0
   28.8823  -18.9801   -6.1457 C   0  0  0  0  0  0  0  0  0  0  0  0
   29.3796  -19.1017   -4.8652 C   0  0  0  0  0  0  0  0  0  0  0  0
   28.7824  -19.9667   -3.9458 C   0  0  0  0  0  0  0  0  0  0  0  0
   27.6801  -20.7073   -4.3292 C   0  0  0  0  0  0  0  0  0  0  0  0
   27.1835  -20.5867   -5.6058 C   0  0  0  0  0  0  0  0  0  0  0  0
   26.8421  -20.7173  -10.0691 C   0  0  0  0  0  0  0  0  0  0  0  0
   27.2762  -19.9863  -10.9723 O   0  0  0  0  0  0  0  0  0  0  0  0
   24.4611  -23.8200  -14.5905 N   0  0  0  0  0  0  0  0  0  0  0  0
   24.7296  -22.7398  -13.7570 C   0  0  0  0  0  0  0  0  0  0  0  0
   24.5971  -21.5695  -14.2475 O   0  0  0  0  0  0  0  0  0  0  0  0
   25.1565  -22.7961  -12.3494 C   0  0  0  0  0  0  0  0  0  0  0  0
   25.0671  -21.4845  -11.6308 C   0  0  2  0  0  0  0  0  0  0  0  0
   25.6704  -21.4643  -10.3422 N   0  0  0  0  0  0  0  0  0  0  0  0
   23.6620  -20.9703  -11.5799 C   0  0  0  0  0  0  0  0  0  0  0  0
   23.1305  -20.7468  -10.4696 O   0  0  0  0  0  0  0  0  0  0  0  0
   20.5082  -17.2939  -14.8757 N   0  0  0  0  0  0  0  0  0  0  0  0
   19.7271  -17.3559  -13.6935 C   0  0  0  0  0  0  0  0  0  0  0  0
   18.6000  -16.7818  -13.6640 O   0  0  0  0  0  0  0  0  0  0  0  0
   20.2393  -18.0934  -12.5249 C   0  0  0  0  0  0  0  0  0  0  0  0
   21.5299  -18.7855  -12.6757 C   0  0  0  0  0  0  0  0  0  0  0  0
   21.5138  -20.2739  -12.5868 C   0  0  2  0  0  0  0  0  0  0  0  0
   22.9055  -20.7252  -12.7438 N   0  0  0  0  0  0  0  0  0  0  0  0
   20.6295  -20.9342  -13.5116 C   0  0  0  0  0  0  0  0  0  0  0  0
   19.3257  -21.2347  -13.1033 O   0  0  0  0  0  0  0  0  0  0  0  0
   20.9299  -21.2744  -14.6831 O   0  0  0  0  0  0  0  0  0  0  0  0
  2  1  1  6
  2  3  1  0
  3  4  1  0
  4  5  2  0
  4  9  1  0
  5  6  1  0
  6  7  2  0
  8  7  1  0
  9  8  2  0
 10  2  1  0
 11 10  2  0
 13 12  1  0
 14 13  2  0
 15 13  1  0
 16 15  1  1
 16 17  1  0
 17 10  1  0
 18 16  1  0
 18 26  1  0
 19 18  2  0
 21 22  2  0
 21 20  1  0
 23 21  1  0
 24 23  1  0
 25 24  1  6
 25 26  1  0
 27 28  1  0
 27 25  1  0
 29 27  2  0
M  END
$$$$
