FNQ.pdb
     RDKit          3D

 29 29  0  0  1  0  0  0  0  0999 V2000
   18.8240  -27.5464   -8.8829 N   0  0  0  0  0  0  0  0  0  0  0  0
   19.6530  -27.1156   -9.9997 C   0  0  1  0  0  0  0  0  0  0  0  0
   20.0397  -28.3187  -10.8208 C   0  0  0  0  0  0  0  0  0  0  0  0
   20.9819  -29.2267  -10.1687 C   0  0  0  0  0  0  0  0  0  0  0  0
   20.5771  -30.4523   -9.7090 C   0  0  0  0  0  0  0  0  0  0  0  0
   21.4931  -31.2845   -9.1006 C   0  0  0  0  0  0  0  0  0  0  0  0
   22.8246  -30.8921   -8.9488 C   0  0  0  0  0  0  0  0  0  0  0  0
   23.2237  -29.6539   -9.4156 C   0  0  0  0  0  0  0  0  0  0  0  0
   22.3111  -28.8233  -10.0224 C   0  0  0  0  0  0  0  0  0  0  0  0
   18.9415  -26.0777  -10.7833 C   0  0  0  0  0  0  0  0  0  0  0  0
   17.7145  -25.9509  -10.6535 O   0  0  0  0  0  0  0  0  0  0  0  0
   17.6799  -21.6346  -13.0593 N   0  0  0  0  0  0  0  0  0  0  0  0
   19.0310  -21.8852  -13.2722 C   0  0  0  0  0  0  0  0  0  0  0  0
   19.7469  -20.9242  -13.7105 O   0  0  0  0  0  0  0  0  0  0  0  0
   19.7395  -23.1552  -13.0450 C   0  0  0  0  0  0  0  0  0  0  0  0
   18.8866  -24.2324  -12.4477 C   0  0  2  0  0  0  0  0  0  0  0  0
   19.5943  -25.2060  -11.6886 N   0  0  0  0  0  0  0  0  0  0  0  0
   18.0050  -24.8783  -13.4709 C   0  0  0  0  0  0  0  0  0  0  0  0
   18.4823  -25.7530  -14.2275 O   0  0  0  0  0  0  0  0  0  0  0  0
   16.2694  -28.9983  -11.3942 N   0  0  0  0  0  0  0  0  0  0  0  0
   15.1480  -28.9889  -12.2625 C   0  0  0  0  0  0  0  0  0  0  0  0
   14.3681  -29.9850  -12.2791 O   0  0  0  0  0  0  0  0  0  0  0  0
   14.9082  -27.8169  -13.1232 C   0  0  0  0  0  0  0  0  0  0  0  0
   15.9067  -26.7355  -13.0851 C   0  0  0  0  0  0  0  0  0  0  0  0
   15.7034  -25.5937  -14.0225 C   0  0  2  0  0  0  0  0  0  0  0  0
   16.6451  -24.5378  -13.6182 N   0  0  0  0  0  0  0  0  0  0  0  0
   14.3525  -25.1025  -14.1071 C   0  0  0  0  0  0  0  0  0  0  0  0
   13.8633  -24.2884  -13.0801 O   0  0  0  0  0  0  0  0  0  0  0  0
   13.5515  -25.3447  -15.0442 O   0  0  0  0  0  0  0  0  0  0  0  0
  2  1  1  1
  2  3  1  0
  3  4  1  0
  4  5  2  0
  4  9  1  0
  5  6  1  0
  6  7  2  0
  8  7  1  0
  9  8  2  0
 10  2  1  0
 11 10  2  0
 13 12  1  0
 14 13  2  0
 15 13  1  0
 16 15  1  6
 16 17  1  0
 17 10  1  0
 18 16  1  0
 18 26  1  0
 19 18  2  0
 21 22  2  0
 21 20  1  0
 23 21  1  0
 24 23  1  0
 25 24  1  1
 25 26  1  0
 27 28  1  0
 27 25  1  0
 29 27  2  0
M  END
$$$$
