FNQ.pdb
     RDKit          3D

 29 29  0  0  1  0  0  0  0  0999 V2000
   26.7617  -19.2812  -17.1978 N   0  0  0  0  0  0  0  0  0  0  0  0
   26.6440  -18.6447  -15.8934 C   0  0  1  0  0  0  0  0  0  0  0  0
   25.7876  -17.4111  -16.0212 C   0  0  0  0  0  0  0  0  0  0  0  0
   26.4335  -16.2855  -16.6943 C   0  0  0  0  0  0  0  0  0  0  0  0
   26.0917  -15.9392  -17.9751 C   0  0  0  0  0  0  0  0  0  0  0  0
   26.7198  -14.8703  -18.5789 C   0  0  0  0  0  0  0  0  0  0  0  0
   27.6976  -14.1396  -17.9005 C   0  0  0  0  0  0  0  0  0  0  0  0
   28.0358  -14.4965  -16.6088 C   0  0  0  0  0  0  0  0  0  0  0  0
   27.4101  -15.5622  -16.0058 C   0  0  0  0  0  0  0  0  0  0  0  0
   26.1229  -19.6178  -14.9040 C   0  0  0  0  0  0  0  0  0  0  0  0
   25.3518  -20.5139  -15.2790 O   0  0  0  0  0  0  0  0  0  0  0  0
   24.6014  -22.0004  -10.4307 N   0  0  0  0  0  0  0  0  0  0  0  0
   25.8043  -21.3262  -10.2508 C   0  0  0  0  0  0  0  0  0  0  0  0
   26.3758  -21.4329   -9.1151 O   0  0  0  0  0  0  0  0  0  0  0  0
   26.5035  -20.4898  -11.2398 C   0  0  0  0  0  0  0  0  0  0  0  0
   25.8149  -20.4089  -12.5679 C   0  0  2  0  0  0  0  0  0  0  0  0
   26.4611  -19.5825  -13.5293 N   0  0  0  0  0  0  0  0  0  0  0  0
   24.3691  -20.0473  -12.4262 C   0  0  0  0  0  0  0  0  0  0  0  0
   24.0571  -18.9797  -11.8534 O   0  0  0  0  0  0  0  0  0  0  0  0
   20.3149  -18.6672  -16.1485 N   0  0  0  0  0  0  0  0  0  0  0  0
   21.4528  -19.5040  -16.2773 C   0  0  0  0  0  0  0  0  0  0  0  0
   21.9649  -19.6830  -17.4203 O   0  0  0  0  0  0  0  0  0  0  0  0
   22.0213  -20.1433  -15.0772 C   0  0  0  0  0  0  0  0  0  0  0  0
   21.3568  -19.8761  -13.7908 C   0  0  0  0  0  0  0  0  0  0  0  0
   21.9461  -20.5156  -12.5795 C   0  0  2  0  0  0  0  0  0  0  0  0
   23.3341  -20.8690  -12.9168 N   0  0  0  0  0  0  0  0  0  0  0  0
   21.2160  -21.6452  -12.0654 C   0  0  0  0  0  0  0  0  0  0  0  0
   19.9464  -21.4369  -11.5164 O   0  0  0  0  0  0  0  0  0  0  0  0
   21.6261  -22.8328  -12.0649 O   0  0  0  0  0  0  0  0  0  0  0  0
  2  1  1  6
  2  3  1  0
  3  4  1  0
  4  5  2  0
  4  9  1  0
  5  6  1  0
  6  7  2  0
  8  7  1  0
  9  8  2  0
 10  2  1  0
 11 10  2  0
 13 12  1  0
 14 13  2  0
 15 13  1  0
 16 15  1  1
 16 17  1  0
 17 10  1  0
 18 16  1  0
 18 26  1  0
 19 18  2  0
 21 22  2  0
 21 20  1  0
 23 21  1  0
 24 23  1  0
 25 24  1  6
 25 26  1  0
 27 28  1  0
 27 25  1  0
 29 27  2  0
M  END
$$$$
