FNQ.pdb
     RDKit          3D

 29 29  0  0  1  0  0  0  0  0999 V2000
   28.6889  -17.6937  -21.0494 N   0  0  0  0  0  0  0  0  0  0  0  0
   28.4950  -18.3555  -19.7669 C   0  0  1  0  0  0  0  0  0  0  0  0
   28.7697  -17.3730  -18.6576 C   0  0  0  0  0  0  0  0  0  0  0  0
   30.1581  -16.9240  -18.5685 C   0  0  0  0  0  0  0  0  0  0  0  0
   31.1132  -17.7001  -17.9662 C   0  0  0  0  0  0  0  0  0  0  0  0
   32.4139  -17.2464  -17.9017 C   0  0  0  0  0  0  0  0  0  0  0  0
   32.7664  -16.0080  -18.4423 C   0  0  0  0  0  0  0  0  0  0  0  0
   31.7961  -15.2320  -19.0479 C   0  0  0  0  0  0  0  0  0  0  0  0
   30.4988  -15.6835  -19.1127 C   0  0  0  0  0  0  0  0  0  0  0  0
   27.1353  -18.9424  -19.7042 C   0  0  0  0  0  0  0  0  0  0  0  0
   26.2014  -18.3804  -20.2962 O   0  0  0  0  0  0  0  0  0  0  0  0
   23.5190  -23.5234  -19.7017 N   0  0  0  0  0  0  0  0  0  0  0  0
   24.1425  -22.7557  -18.7241 C   0  0  0  0  0  0  0  0  0  0  0  0
   23.4833  -22.5071  -17.6604 O   0  0  0  0  0  0  0  0  0  0  0  0
   25.4996  -22.1885  -18.7799 C   0  0  0  0  0  0  0  0  0  0  0  0
   25.5341  -20.7062  -18.9946 C   0  0  2  0  0  0  0  0  0  0  0  0
   26.8353  -20.1302  -18.9938 N   0  0  0  0  0  0  0  0  0  0  0  0
   24.6207  -19.9842  -18.0536 C   0  0  0  0  0  0  0  0  0  0  0  0
   25.0702  -19.5630  -16.9647 O   0  0  0  0  0  0  0  0  0  0  0  0
   21.2445  -14.9524  -18.7114 N   0  0  0  0  0  0  0  0  0  0  0  0
   20.3975  -15.8131  -17.9674 C   0  0  0  0  0  0  0  0  0  0  0  0
   19.1575  -15.5677  -17.9129 O   0  0  0  0  0  0  0  0  0  0  0  0
   20.9760  -16.9802  -17.2782 C   0  0  0  0  0  0  0  0  0  0  0  0
   21.9057  -17.8253  -18.0458 C   0  0  0  0  0  0  0  0  0  0  0  0
   22.4470  -19.0327  -17.3582 C   0  0  2  0  0  0  0  0  0  0  0  0
   23.2608  -19.7571  -18.3472 N   0  0  0  0  0  0  0  0  0  0  0  0
   21.4602  -19.8860  -16.7489 C   0  0  0  0  0  0  0  0  0  0  0  0
   21.0012  -19.5787  -15.4637 O   0  0  0  0  0  0  0  0  0  0  0  0
   20.9602  -20.9087  -17.2804 O   0  0  0  0  0  0  0  0  0  0  0  0
  2  1  1  6
  2  3  1  0
  3  4  1  0
  4  5  2  0
  4  9  1  0
  5  6  1  0
  6  7  2  0
  8  7  1  0
  9  8  2  0
 10  2  1  0
 11 10  2  0
 13 12  1  0
 14 13  2  0
 15 13  1  0
 16 15  1  1
 16 17  1  0
 17 10  1  0
 18 16  1  0
 18 26  1  0
 19 18  2  0
 21 22  2  0
 21 20  1  0
 23 21  1  0
 24 23  1  0
 25 24  1  6
 25 26  1  0
 27 28  1  0
 27 25  1  0
 29 27  2  0
M  END
$$$$
