FNQ.pdb
     RDKit          3D

 29 29  0  0  1  0  0  0  0  0999 V2000
   28.5786  -21.0648   -9.5678 N   0  0  0  0  0  0  0  0  0  0  0  0
   27.1430  -20.8899   -9.3981 C   0  0  1  0  0  0  0  0  0  0  0  0
   26.8910  -19.6731   -8.5453 C   0  0  0  0  0  0  0  0  0  0  0  0
   27.4690  -19.7363   -7.2039 C   0  0  0  0  0  0  0  0  0  0  0  0
   28.5464  -18.9616   -6.8629 C   0  0  0  0  0  0  0  0  0  0  0  0
   29.0649  -19.0449   -5.5878 C   0  0  0  0  0  0  0  0  0  0  0  0
   28.5048  -19.9081   -4.6436 C   0  0  0  0  0  0  0  0  0  0  0  0
   27.4182  -20.6857   -4.9968 C   0  0  0  0  0  0  0  0  0  0  0  0
   26.9004  -20.6034   -6.2680 C   0  0  0  0  0  0  0  0  0  0  0  0
   26.4844  -20.8206  -10.7243 C   0  0  0  0  0  0  0  0  0  0  0  0
   27.0468  -20.2208  -11.6529 O   0  0  0  0  0  0  0  0  0  0  0  0
   25.5721  -24.7979  -13.2395 N   0  0  0  0  0  0  0  0  0  0  0  0
   25.3673  -23.4305  -13.3879 C   0  0  0  0  0  0  0  0  0  0  0  0
   26.2491  -22.7687  -14.0302 O   0  0  0  0  0  0  0  0  0  0  0  0
   24.2291  -22.6482  -12.8789 C   0  0  0  0  0  0  0  0  0  0  0  0
   24.6130  -21.3303  -12.2787 C   0  0  2  0  0  0  0  0  0  0  0  0
   25.2264  -21.4108  -10.9972 N   0  0  0  0  0  0  0  0  0  0  0  0
   23.4688  -20.3650  -12.2727 C   0  0  0  0  0  0  0  0  0  0  0  0
   22.7580  -20.2626  -11.2482 O   0  0  0  0  0  0  0  0  0  0  0  0
   22.4747  -15.7797  -16.5335 N   0  0  0  0  0  0  0  0  0  0  0  0
   22.1391  -17.1251  -16.8317 C   0  0  0  0  0  0  0  0  0  0  0  0
   22.0110  -17.4792  -18.0396 O   0  0  0  0  0  0  0  0  0  0  0  0
   21.9532  -18.0863  -15.7302 C   0  0  0  0  0  0  0  0  0  0  0  0
   22.2128  -17.6054  -14.3631 C   0  0  0  0  0  0  0  0  0  0  0  0
   22.0533  -18.5926  -13.2570 C   0  0  2  0  0  0  0  0  0  0  0  0
   23.1562  -19.5582  -13.3855 N   0  0  0  0  0  0  0  0  0  0  0  0
   20.7724  -19.2477  -13.1993 C   0  0  0  0  0  0  0  0  0  0  0  0
   20.6532  -20.5460  -13.7062 O   0  0  0  0  0  0  0  0  0  0  0  0
   19.7237  -18.7462  -12.7224 O   0  0  0  0  0  0  0  0  0  0  0  0
  2  1  1  6
  2  3  1  0
  3  4  1  0
  4  5  2  0
  4  9  1  0
  5  6  1  0
  6  7  2  0
  8  7  1  0
  9  8  2  0
 10  2  1  0
 11 10  2  0
 13 12  1  0
 14 13  2  0
 15 13  1  0
 16 15  1  1
 16 17  1  0
 17 10  1  0
 18 16  1  0
 18 26  1  0
 19 18  2  0
 21 22  2  0
 21 20  1  0
 23 21  1  0
 24 23  1  0
 25 24  1  6
 25 26  1  0
 27 28  1  0
 27 25  1  0
 29 27  2  0
M  END
$$$$
