GLC.pdb
     RDKit          3D

 19 18  0  0  1  0  0  0  0  0999 V2000
   35.1364  -23.0504  -20.8793 N   0  0  0  0  0  0  0  0  0  0  0  0
   35.0725  -22.7065  -19.4694 C   0  0  0  0  0  0  0  0  0  0  0  0
   34.6652  -23.9317  -18.7035 C   0  0  0  0  0  0  0  0  0  0  0  0
   34.2958  -24.9706  -19.3078 O   0  0  0  0  0  0  0  0  0  0  0  0
   35.2966  -25.8776  -12.8711 C   0  0  0  0  0  0  0  0  0  0  0  0
   34.9539  -26.1609  -14.2778 C   0  0  2  0  0  0  0  0  0  0  0  0
   35.9913  -27.0710  -14.9493 C   0  0  0  0  0  0  0  0  0  0  0  0
   34.6464  -24.9867  -15.1147 C   0  0  0  0  0  0  0  0  0  0  0  0
   34.2285  -25.1704  -16.5224 C   0  0  2  0  0  0  0  0  0  0  0  0
   34.6839  -23.9558  -17.2885 N   0  0  0  0  0  0  0  0  0  0  0  0
   32.8258  -25.4055  -16.8056 C   0  0  0  0  0  0  0  0  0  0  0  0
   31.8510  -24.6425  -16.5980 O   0  0  0  0  0  0  0  0  0  0  0  0
   32.3983  -26.6616  -17.4084 N   0  0  0  0  0  0  0  0  0  0  0  0
   31.0430  -26.9194  -17.8052 C   0  0  1  0  0  0  0  0  0  0  0  0
   30.6608  -26.2020  -19.0781 C   0  0  0  0  0  0  0  0  0  0  0  0
   29.0502  -26.6812  -19.6982 S   0  0  0  0  0  0  0  0  0  0  0  0
   30.7225  -28.3571  -17.8535 C   0  0  0  0  0  0  0  0  0  0  0  0
   29.4228  -28.7753  -18.0489 O   0  0  0  0  0  0  0  0  0  0  0  0
   31.6136  -29.2206  -17.7197 O   0  0  0  0  0  0  0  0  0  0  0  0
  1  2  1  0
  2  3  1  0
  3  4  2  0
  6  7  1  6
  6  5  1  0
  9  8  1  1
  8  6  1  0
  9 11  1  0
 10  3  1  0
 10  9  1  0
 11 12  2  0
 13 14  1  0
 13 11  1  0
 14 17  1  0
 14 15  1  6
 16 15  1  0
 17 19  2  0
 17 18  1  0
M  END
$$$$
