GLC.pdb
     RDKit          3D

 19 18  0  0  1  0  0  0  0  0999 V2000
   23.6671  -13.9959  -18.5590 N   0  0  0  0  0  0  0  0  0  0  0  0
   22.7527  -12.8956  -18.8111 C   0  0  0  0  0  0  0  0  0  0  0  0
   23.1214  -11.7590  -17.9024 C   0  0  0  0  0  0  0  0  0  0  0  0
   22.4359  -11.5105  -16.8781 O   0  0  0  0  0  0  0  0  0  0  0  0
   26.6317  -10.7970  -15.1139 C   0  0  0  0  0  0  0  0  0  0  0  0
   26.9200  -10.6445  -16.5527 C   0  0  2  0  0  0  0  0  0  0  0  0
   28.4131  -10.4072  -16.8170 C   0  0  0  0  0  0  0  0  0  0  0  0
   26.0840   -9.6699  -17.2773 C   0  0  0  0  0  0  0  0  0  0  0  0
   24.6099   -9.7978  -17.2541 C   0  0  2  0  0  0  0  0  0  0  0  0
   24.2433  -10.9379  -18.1679 N   0  0  0  0  0  0  0  0  0  0  0  0
   23.8067   -8.6412  -17.6007 C   0  0  0  0  0  0  0  0  0  0  0  0
   23.6078   -8.1432  -18.7356 O   0  0  0  0  0  0  0  0  0  0  0  0
   23.1032   -7.8974  -16.5635 N   0  0  0  0  0  0  0  0  0  0  0  0
   22.2524   -6.7756  -16.8435 C   0  0  1  0  0  0  0  0  0  0  0  0
   20.9177   -6.8657  -16.1425 C   0  0  0  0  0  0  0  0  0  0  0  0
   20.0109   -8.3564  -16.5469 S   0  0  0  0  0  0  0  0  0  0  0  0
   22.9180   -5.4801  -16.6186 C   0  0  0  0  0  0  0  0  0  0  0  0
   24.1999   -5.4337  -16.1117 O   0  0  0  0  0  0  0  0  0  0  0  0
   22.3404   -4.4051  -16.8801 O   0  0  0  0  0  0  0  0  0  0  0  0
  1  2  1  0
  2  3  1  0
  3  4  2  0
  6  7  1  1
  6  5  1  0
  9  8  1  6
  8  6  1  0
  9 11  1  0
 10  3  1  0
 10  9  1  0
 11 12  2  0
 13 14  1  0
 13 11  1  0
 14 17  1  0
 14 15  1  1
 16 15  1  0
 17 19  2  0
 17 18  1  0
M  END
$$$$
