GLC.pdb
     RDKit          3D

 19 18  0  0  1  0  0  0  0  0999 V2000
   28.3379  -21.4600  -15.5170 N   0  0  0  0  0  0  0  0  0  0  0  0
   27.5764  -20.3552  -14.9605 C   0  0  0  0  0  0  0  0  0  0  0  0
   26.4213  -20.9216  -14.1868 C   0  0  0  0  0  0  0  0  0  0  0  0
   25.9538  -22.0534  -14.4719 O   0  0  0  0  0  0  0  0  0  0  0  0
   26.4209  -22.0938  -10.2315 C   0  0  0  0  0  0  0  0  0  0  0  0
   26.0145  -20.6756  -10.2152 C   0  0  2  0  0  0  0  0  0  0  0  0
   25.9769  -20.1055   -8.7907 C   0  0  0  0  0  0  0  0  0  0  0  0
   24.7831  -20.3500  -10.9576 C   0  0  0  0  0  0  0  0  0  0  0  0
   24.6422  -20.7589  -12.3729 C   0  0  2  0  0  0  0  0  0  0  0  0
   25.8271  -20.2052  -13.1206 N   0  0  0  0  0  0  0  0  0  0  0  0
   23.4295  -20.3997  -13.0823 C   0  0  0  0  0  0  0  0  0  0  0  0
   23.0919  -19.2758  -13.5279 O   0  0  0  0  0  0  0  0  0  0  0  0
   22.4139  -21.4076  -13.3587 N   0  0  0  0  0  0  0  0  0  0  0  0
   21.1748  -21.1111  -14.0202 C   0  0  1  0  0  0  0  0  0  0  0  0
   21.0037  -21.8775  -15.3103 C   0  0  0  0  0  0  0  0  0  0  0  0
   22.2789  -23.1079  -15.5711 S   0  0  0  0  0  0  0  0  0  0  0  0
   20.0053  -21.2385  -13.1325 C   0  0  0  0  0  0  0  0  0  0  0  0
   18.7689  -20.7815  -13.5387 O   0  0  0  0  0  0  0  0  0  0  0  0
   20.1077  -21.7586  -12.0027 O   0  0  0  0  0  0  0  0  0  0  0  0
  1  2  1  0
  2  3  1  0
  3  4  2  0
  6  7  1  1
  6  5  1  0
  9  8  1  1
  8  6  1  0
  9 11  1  0
 10  3  1  0
 10  9  1  0
 11 12  2  0
 13 14  1  0
 13 11  1  0
 14 17  1  0
 14 15  1  6
 16 15  1  0
 17 19  2  0
 17 18  1  0
M  END
$$$$
