GLC.pdb
     RDKit          3D

 19 18  0  0  1  0  0  0  0  0999 V2000
   26.2242  -19.3013  -17.8466 N   0  0  0  0  0  0  0  0  0  0  0  0
   25.9504  -18.7809  -16.5183 C   0  0  0  0  0  0  0  0  0  0  0  0
   24.8452  -19.5960  -15.9116 C   0  0  0  0  0  0  0  0  0  0  0  0
   24.1313  -20.3411  -16.6299 O   0  0  0  0  0  0  0  0  0  0  0  0
   25.1647  -22.8293  -12.9642 C   0  0  0  0  0  0  0  0  0  0  0  0
   25.1146  -21.5148  -12.2963 C   0  0  2  0  0  0  0  0  0  0  0  0
   25.4349  -21.6190  -10.7990 C   0  0  0  0  0  0  0  0  0  0  0  0
   23.8959  -20.7190  -12.5315 C   0  0  0  0  0  0  0  0  0  0  0  0
   23.4817  -20.3910  -13.9139 C   0  0  2  0  0  0  0  0  0  0  0  0
   24.5743  -19.5516  -14.5231 N   0  0  0  0  0  0  0  0  0  0  0  0
   22.2093  -19.7261  -14.1185 C   0  0  0  0  0  0  0  0  0  0  0  0
   21.8292  -18.6172  -13.6698 O   0  0  0  0  0  0  0  0  0  0  0  0
   21.1769  -20.3505  -14.9359 N   0  0  0  0  0  0  0  0  0  0  0  0
   19.8868  -19.7602  -15.1551 C   0  0  1  0  0  0  0  0  0  0  0  0
   19.5693  -19.5782  -16.6204 C   0  0  0  0  0  0  0  0  0  0  0  0
   18.0567  -18.6616  -16.9030 S   0  0  0  0  0  0  0  0  0  0  0  0
   18.8076  -20.4530  -14.4290 C   0  0  0  0  0  0  0  0  0  0  0  0
   18.7922  -21.8300  -14.3510 O   0  0  0  0  0  0  0  0  0  0  0  0
   17.8913  -19.8135  -13.8732 O   0  0  0  0  0  0  0  0  0  0  0  0
  1  2  1  0
  2  3  1  0
  3  4  2  0
  6  7  1  1
  6  5  1  0
  9  8  1  1
  8  6  1  0
  9 11  1  0
 10  3  1  0
 10  9  1  0
 11 12  2  0
 13 14  1  0
 13 11  1  0
 14 17  1  0
 14 15  1  6
 16 15  1  0
 17 19  2  0
 17 18  1  0
M  END
$$$$
