GLC.pdb
     RDKit          3D

 19 18  0  0  1  0  0  0  0  0999 V2000
   22.6311  -14.2155  -21.0227 N   0  0  0  0  0  0  0  0  0  0  0  0
   23.1906  -12.9094  -20.7203 C   0  0  0  0  0  0  0  0  0  0  0  0
   22.8069  -12.5464  -19.3151 C   0  0  0  0  0  0  0  0  0  0  0  0
   21.5974  -12.4917  -18.9760 O   0  0  0  0  0  0  0  0  0  0  0  0
   23.2406  -14.6537  -15.6377 C   0  0  0  0  0  0  0  0  0  0  0  0
   24.4893  -13.9228  -15.9260 C   0  0  2  0  0  0  0  0  0  0  0  0
   25.6288  -14.3403  -14.9865 C   0  0  0  0  0  0  0  0  0  0  0  0
   24.3719  -12.4556  -16.0103 C   0  0  0  0  0  0  0  0  0  0  0  0
   23.3970  -11.8434  -16.9403 C   0  0  2  0  0  0  0  0  0  0  0  0
   23.7866  -12.2564  -18.3357 N   0  0  0  0  0  0  0  0  0  0  0  0
   23.2163  -10.4049  -16.9095 C   0  0  0  0  0  0  0  0  0  0  0  0
   23.9830   -9.5142  -17.3505 O   0  0  0  0  0  0  0  0  0  0  0  0
   22.0210   -9.8270  -16.3084 N   0  0  0  0  0  0  0  0  0  0  0  0
   21.7876   -8.4127  -16.2317 C   0  0  1  0  0  0  0  0  0  0  0  0
   20.7450   -7.9387  -17.2164 C   0  0  0  0  0  0  0  0  0  0  0  0
   20.3419   -6.2033  -17.0319 S   0  0  0  0  0  0  0  0  0  0  0  0
   21.5150   -7.9494  -14.8595 C   0  0  0  0  0  0  0  0  0  0  0  0
   21.9546   -6.7105  -14.4418 O   0  0  0  0  0  0  0  0  0  0  0  0
   20.8853   -8.6627  -14.0519 O   0  0  0  0  0  0  0  0  0  0  0  0
  1  2  1  0
  2  3  1  0
  3  4  2  0
  6  7  1  1
  6  5  1  0
  9  8  1  1
  8  6  1  0
  9 11  1  0
 10  3  1  0
 10  9  1  0
 11 12  2  0
 13 14  1  0
 13 11  1  0
 14 17  1  0
 14 15  1  6
 16 15  1  0
 17 19  2  0
 17 18  1  0
M  END
$$$$
