PVN.pdb
     RDKit          3D

 23 23  0  0  1  0  0  0  0  0999 V2000
   26.1013  -12.6458  -16.6113 N   0  0  0  0  0  0  0  0  0  0  0  0
   27.3254  -13.1745  -15.9830 C   0  0  0  0  0  0  0  0  0  0  0  0
   28.3084  -12.0626  -16.2250 C   0  0  0  0  0  0  0  0  0  0  0  0
   27.4804  -10.8072  -16.1298 C   0  0  0  0  0  0  0  0  0  0  0  0
   26.0784  -11.3340  -15.9856 C   0  0  1  0  0  0  0  0  0  0  0  0
   25.0254  -10.4446  -16.4615 C   0  0  0  0  0  0  0  0  0  0  0  0
   25.0356  -10.1341  -17.6785 O   0  0  0  0  0  0  0  0  0  0  0  0
   21.9178  -10.9922  -17.3839 C   0  0  0  0  0  0  0  0  0  0  0  0
   21.6961   -9.7235  -16.5512 C   0  0  1  0  0  0  0  0  0  0  0  0
   21.0824  -10.2223  -15.2462 C   0  0  0  0  0  0  0  0  0  0  0  0
   23.0211   -9.0425  -16.2804 C   0  0  2  0  0  0  0  0  0  0  0  0
   23.9880   -9.8963  -15.6665 N   0  0  0  0  0  0  0  0  0  0  0  0
   22.8670   -7.8169  -15.4768 C   0  0  0  0  0  0  0  0  0  0  0  0
   22.9860   -7.8280  -14.2254 O   0  0  0  0  0  0  0  0  0  0  0  0
   25.0259   -4.8737  -15.8404 N   0  0  0  0  0  0  0  0  0  0  0  0
   24.0942   -4.0018  -16.5188 C   0  0  0  0  0  0  0  0  0  0  0  0
   24.6294   -3.1603  -17.2736 O   0  0  0  0  0  0  0  0  0  0  0  0
   22.6425   -4.1589  -16.2840 C   0  0  0  0  0  0  0  0  0  0  0  0
   22.3547   -5.3351  -15.4008 C   0  0  2  0  0  0  0  0  0  0  0  0
   22.5805   -6.5911  -16.1039 N   0  0  0  0  0  0  0  0  0  0  0  0
   21.0734   -5.2922  -14.7168 C   0  0  0  0  0  0  0  0  0  0  0  0
   20.0159   -5.6784  -15.2181 O   0  0  0  0  0  0  0  0  0  0  0  0
   20.9481   -4.7917  -13.3948 O   0  0  0  0  0  0  0  0  0  0  0  0
  1  5  1  0
  1  2  1  0
  2  3  1  0
  4  3  1  0
  5  4  1  0
  6 12  1  0
  5  6  1  6
  7  6  2  0
  9  8  1  6
  9 11  1  0
 10  9  1  0
 11 12  1  1
 11 13  1  0
 13 14  2  0
 13 20  1  0
 16 15  1  0
 17 16  2  0
 18 16  1  0
 19 18  1  6
 19 21  1  0
 20 19  1  0
 21 23  1  0
 22 21  2  0
M  END
$$$$
