PVN.pdb
     RDKit          3D

 23 23  0  0  1  0  0  0  0  0999 V2000
   24.3059  -13.0086  -15.4484 N   0  0  0  0  0  0  0  0  0  0  0  0
   25.4481  -13.9101  -15.6843 C   0  0  0  0  0  0  0  0  0  0  0  0
   25.1657  -14.4190  -17.0708 C   0  0  0  0  0  0  0  0  0  0  0  0
   24.5282  -13.2486  -17.7738 C   0  0  0  0  0  0  0  0  0  0  0  0
   24.3783  -12.2318  -16.6748 C   0  0  1  0  0  0  0  0  0  0  0  0
   23.2976  -11.2700  -16.8576 C   0  0  0  0  0  0  0  0  0  0  0  0
   23.4080  -10.4468  -17.7998 O   0  0  0  0  0  0  0  0  0  0  0  0
   18.6705   -9.8216  -16.7710 C   0  0  0  0  0  0  0  0  0  0  0  0
   19.7521  -10.9009  -16.6389 C   0  0  1  0  0  0  0  0  0  0  0  0
   19.7214  -11.6416  -17.9727 C   0  0  0  0  0  0  0  0  0  0  0  0
   21.1059  -10.2559  -16.4288 C   0  0  2  0  0  0  0  0  0  0  0  0
   22.1293  -11.1817  -16.0599 N   0  0  0  0  0  0  0  0  0  0  0  0
   21.0573   -9.1595  -15.4455 C   0  0  0  0  0  0  0  0  0  0  0  0
   20.9113   -9.3801  -14.2165 O   0  0  0  0  0  0  0  0  0  0  0  0
   22.8464   -4.6294  -13.0877 N   0  0  0  0  0  0  0  0  0  0  0  0
   22.2249   -4.5403  -14.3893 C   0  0  0  0  0  0  0  0  0  0  0  0
   21.7011   -3.4320  -14.6374 O   0  0  0  0  0  0  0  0  0  0  0  0
   22.2512   -5.7105  -15.2934 C   0  0  0  0  0  0  0  0  0  0  0  0
   21.1414   -6.6684  -14.9817 C   0  0  2  0  0  0  0  0  0  0  0  0
   21.1763   -7.8236  -15.8689 N   0  0  0  0  0  0  0  0  0  0  0  0
   19.8209   -6.0698  -14.8843 C   0  0  0  0  0  0  0  0  0  0  0  0
   19.0473   -5.9582  -15.8371 O   0  0  0  0  0  0  0  0  0  0  0  0
   19.3194   -5.5610  -13.6581 O   0  0  0  0  0  0  0  0  0  0  0  0
  1  5  1  0
  1  2  1  0
  2  3  1  0
  4  3  1  0
  5  4  1  0
  6 12  1  0
  5  6  1  6
  7  6  2  0
  9  8  1  6
  9 11  1  0
 10  9  1  0
 11 12  1  1
 11 13  1  0
 13 14  2  0
 13 20  1  0
 16 15  1  0
 17 16  2  0
 18 16  1  0
 19 18  1  6
 19 21  1  0
 20 19  1  0
 21 23  1  0
 22 21  2  0
M  END
$$$$
