PVN.pdb
     RDKit          3D

 23 23  0  0  1  0  0  0  0  0999 V2000
   27.2756  -20.2112  -15.8238 N   0  0  0  0  0  0  0  0  0  0  0  0
   28.2904  -20.3517  -16.8836 C   0  0  0  0  0  0  0  0  0  0  0  0
   29.3523  -21.1648  -16.1962 C   0  0  0  0  0  0  0  0  0  0  0  0
   28.5834  -22.0855  -15.2843 C   0  0  0  0  0  0  0  0  0  0  0  0
   27.1647  -21.6074  -15.4351 C   0  0  1  0  0  0  0  0  0  0  0  0
   26.2962  -21.8595  -14.2912 C   0  0  0  0  0  0  0  0  0  0  0  0
   26.0047  -23.0547  -14.0375 O   0  0  0  0  0  0  0  0  0  0  0  0
   25.3856  -19.1619  -11.0700 C   0  0  0  0  0  0  0  0  0  0  0  0
   25.4079  -20.6941  -11.0053 C   0  0  1  0  0  0  0  0  0  0  0  0
   24.4164  -21.0469   -9.9004 C   0  0  0  0  0  0  0  0  0  0  0  0
   24.9496  -21.2759  -12.3260 C   0  0  2  0  0  0  0  0  0  0  0  0
   25.7485  -20.8689  -13.4381 N   0  0  0  0  0  0  0  0  0  0  0  0
   23.5326  -20.9830  -12.6054 C   0  0  0  0  0  0  0  0  0  0  0  0
   23.1869  -19.9938  -13.2998 O   0  0  0  0  0  0  0  0  0  0  0  0
   18.2604  -23.1921  -12.9061 N   0  0  0  0  0  0  0  0  0  0  0  0
   18.8435  -22.4672  -11.8003 C   0  0  0  0  0  0  0  0  0  0  0  0
   18.0337  -21.7600  -11.1613 O   0  0  0  0  0  0  0  0  0  0  0  0
   20.2881  -22.6064  -11.5157 C   0  0  0  0  0  0  0  0  0  0  0  0
   21.0947  -21.5909  -12.2671 C   0  0  2  0  0  0  0  0  0  0  0  0
   22.5234  -21.8183  -12.0938 N   0  0  0  0  0  0  0  0  0  0  0  0
   20.7102  -20.2084  -12.0389 C   0  0  0  0  0  0  0  0  0  0  0  0
   21.0663  -19.5510  -11.0592 O   0  0  0  0  0  0  0  0  0  0  0  0
   19.8798  -19.5035  -12.9486 O   0  0  0  0  0  0  0  0  0  0  0  0
  1  5  1  0
  1  2  1  0
  2  3  1  0
  4  3  1  0
  5  4  1  0
  6 12  1  0
  5  6  1  1
  7  6  2  0
  9  8  1  6
  9 11  1  0
 10  9  1  0
 11 12  1  6
 11 13  1  0
 13 14  2  0
 13 20  1  0
 16 15  1  0
 17 16  2  0
 18 16  1  0
 19 18  1  1
 19 21  1  0
 20 19  1  0
 21 23  1  0
 22 21  2  0
M  END
$$$$
