PVN.pdb
     RDKit          3D

 23 23  0  0  1  0  0  0  0  0999 V2000
   18.7745  -11.4522  -18.3694 N   0  0  0  0  0  0  0  0  0  0  0  0
   17.6610  -12.1658  -19.0206 C   0  0  0  0  0  0  0  0  0  0  0  0
   17.3051  -13.2007  -17.9893 C   0  0  0  0  0  0  0  0  0  0  0  0
   17.5446  -12.5102  -16.6716 C   0  0  0  0  0  0  0  0  0  0  0  0
   18.1517  -11.1958  -17.0813 C   0  0  1  0  0  0  0  0  0  0  0  0
   19.0229  -10.5749  -16.0904 C   0  0  0  0  0  0  0  0  0  0  0  0
   18.5068  -10.2356  -14.9968 O   0  0  0  0  0  0  0  0  0  0  0  0
   23.2197  -10.6766  -16.1945 C   0  0  0  0  0  0  0  0  0  0  0  0
   22.4505  -10.4497  -14.8872 C   0  0  1  0  0  0  0  0  0  0  0  0
   23.3623   -9.5526  -14.0552 C   0  0  0  0  0  0  0  0  0  0  0  0
   21.1404   -9.7456  -15.1715 C   0  0  2  0  0  0  0  0  0  0  0  0
   20.4070  -10.3182  -16.2555 N   0  0  0  0  0  0  0  0  0  0  0  0
   21.3201   -8.3022  -15.4078 C   0  0  0  0  0  0  0  0  0  0  0  0
   21.6858   -7.8560  -16.5246 O   0  0  0  0  0  0  0  0  0  0  0  0
   21.1085   -3.2092  -14.8583 N   0  0  0  0  0  0  0  0  0  0  0  0
   19.8266   -3.8760  -14.8323 C   0  0  0  0  0  0  0  0  0  0  0  0
   18.8440   -3.1122  -14.9566 O   0  0  0  0  0  0  0  0  0  0  0  0
   19.7700   -5.3447  -14.6686 C   0  0  0  0  0  0  0  0  0  0  0  0
   21.1409   -5.9329  -14.5237 C   0  0  2  0  0  0  0  0  0  0  0  0
   21.0809   -7.3808  -14.3725 N   0  0  0  0  0  0  0  0  0  0  0  0
   21.9821   -5.2943  -13.5256 C   0  0  0  0  0  0  0  0  0  0  0  0
   22.4030   -4.1400  -13.6214 O   0  0  0  0  0  0  0  0  0  0  0  0
   22.3860   -5.9704  -12.3451 O   0  0  0  0  0  0  0  0  0  0  0  0
  1  5  1  0
  1  2  1  0
  2  3  1  0
  4  3  1  0
  5  4  1  0
  6 12  1  0
  5  6  1  1
  7  6  2  0
  9  8  1  6
  9 11  1  0
 10  9  1  0
 11 12  1  6
 11 13  1  0
 13 14  2  0
 13 20  1  0
 16 15  1  0
 17 16  2  0
 18 16  1  0
 19 18  1  1
 19 21  1  0
 20 19  1  0
 21 23  1  0
 22 21  2  0
M  END
$$$$
