PVN.pdb
     RDKit          3D

 23 23  0  0  1  0  0  0  0  0999 V2000
   25.0959  -12.7130  -15.7282 N   0  0  0  0  0  0  0  0  0  0  0  0
   26.1760  -13.6591  -16.0617 C   0  0  0  0  0  0  0  0  0  0  0  0
   25.4945  -14.5852  -17.0309 C   0  0  0  0  0  0  0  0  0  0  0  0
   24.5422  -13.6959  -17.7878 C   0  0  0  0  0  0  0  0  0  0  0  0
   24.6707  -12.3761  -17.0768 C   0  0  1  0  0  0  0  0  0  0  0  0
   23.5006  -11.5094  -17.1534 C   0  0  0  0  0  0  0  0  0  0  0  0
   23.2034  -11.0355  -18.2780 O   0  0  0  0  0  0  0  0  0  0  0  0
   20.1429  -12.2684  -16.9405 C   0  0  0  0  0  0  0  0  0  0  0  0
   20.2096  -10.9896  -16.0965 C   0  0  1  0  0  0  0  0  0  0  0  0
   20.0797  -11.4728  -14.6550 C   0  0  0  0  0  0  0  0  0  0  0  0
   21.5432  -10.3022  -16.3005 C   0  0  2  0  0  0  0  0  0  0  0  0
   22.6668  -11.1522  -16.0643 N   0  0  0  0  0  0  0  0  0  0  0  0
   21.6729   -9.0792  -15.4886 C   0  0  0  0  0  0  0  0  0  0  0  0
   22.2766   -9.0791  -14.3860 O   0  0  0  0  0  0  0  0  0  0  0  0
   22.9203   -3.6922  -14.8364 N   0  0  0  0  0  0  0  0  0  0  0  0
   21.6607   -4.2096  -15.3204 C   0  0  0  0  0  0  0  0  0  0  0  0
   20.6705   -3.4943  -15.0519 O   0  0  0  0  0  0  0  0  0  0  0  0
   21.6330   -5.4877  -16.0640 C   0  0  0  0  0  0  0  0  0  0  0  0
   21.1550   -6.6144  -15.1988 C   0  0  2  0  0  0  0  0  0  0  0  0
   21.1162   -7.8687  -15.9391 N   0  0  0  0  0  0  0  0  0  0  0  0
   19.9272   -6.3508  -14.4678 C   0  0  0  0  0  0  0  0  0  0  0  0
   18.8017   -6.5852  -14.9118 O   0  0  0  0  0  0  0  0  0  0  0  0
   19.9391   -5.7931  -13.1629 O   0  0  0  0  0  0  0  0  0  0  0  0
  1  5  1  0
  1  2  1  0
  2  3  1  0
  4  3  1  0
  5  4  1  0
  6 12  1  0
  5  6  1  1
  7  6  2  0
  9  8  1  6
  9 11  1  0
 10  9  1  0
 11 12  1  1
 11 13  1  0
 13 14  2  0
 13 20  1  0
 16 15  1  0
 17 16  2  0
 18 16  1  0
 19 18  1  6
 19 21  1  0
 20 19  1  0
 21 23  1  0
 22 21  2  0
M  END
$$$$
