PVN.pdb
     RDKit          3D

 23 23  0  0  1  0  0  0  0  0999 V2000
   18.6702  -11.4209  -18.4180 N   0  0  0  0  0  0  0  0  0  0  0  0
   17.5425  -12.1380  -19.0400 C   0  0  0  0  0  0  0  0  0  0  0  0
   17.1685  -13.1249  -17.9689 C   0  0  0  0  0  0  0  0  0  0  0  0
   17.4232  -12.3883  -16.6792 C   0  0  0  0  0  0  0  0  0  0  0  0
   18.0545  -11.1027  -17.1403 C   0  0  1  0  0  0  0  0  0  0  0  0
   18.9389  -10.4604  -16.1752 C   0  0  0  0  0  0  0  0  0  0  0  0
   18.4336  -10.0807  -15.0897 O   0  0  0  0  0  0  0  0  0  0  0  0
   23.2993  -10.1560  -16.3118 C   0  0  0  0  0  0  0  0  0  0  0  0
   22.4200  -10.3267  -15.0668 C   0  0  1  0  0  0  0  0  0  0  0  0
   23.1881   -9.6201  -13.9536 C   0  0  0  0  0  0  0  0  0  0  0  0
   21.0785   -9.6586  -15.2834 C   0  0  2  0  0  0  0  0  0  0  0  0
   20.3246  -10.2245  -16.3568 N   0  0  0  0  0  0  0  0  0  0  0  0
   21.2031   -8.2040  -15.4836 C   0  0  0  0  0  0  0  0  0  0  0  0
   21.5728   -7.7175  -16.5823 O   0  0  0  0  0  0  0  0  0  0  0  0
   17.3992   -5.5408  -15.4651 N   0  0  0  0  0  0  0  0  0  0  0  0
   18.8332   -5.4122  -15.5900 C   0  0  0  0  0  0  0  0  0  0  0  0
   19.2577   -5.4775  -16.7647 O   0  0  0  0  0  0  0  0  0  0  0  0
   19.6582   -5.2210  -14.3776 C   0  0  0  0  0  0  0  0  0  0  0  0
   21.0031   -5.8663  -14.5230 C   0  0  2  0  0  0  0  0  0  0  0  0
   20.9049   -7.3173  -14.4335 N   0  0  0  0  0  0  0  0  0  0  0  0
   22.0448   -5.3163  -13.6722 C   0  0  0  0  0  0  0  0  0  0  0  0
   22.6589   -5.9731  -12.8294 O   0  0  0  0  0  0  0  0  0  0  0  0
   22.4361   -3.9547  -13.7548 O   0  0  0  0  0  0  0  0  0  0  0  0
  1  5  1  0
  1  2  1  0
  2  3  1  0
  4  3  1  0
  5  4  1  0
  6 12  1  0
  5  6  1  1
  7  6  2  0
  9  8  1  6
  9 11  1  0
 10  9  1  0
 11 12  1  6
 11 13  1  0
 13 14  2  0
 13 20  1  0
 16 15  1  0
 17 16  2  0
 18 16  1  0
 19 18  1  1
 19 21  1  0
 20 19  1  0
 21 23  1  0
 22 21  2  0
M  END
$$$$
