PVN.pdb
     RDKit          3D

 23 23  0  0  1  0  0  0  0  0999 V2000
   18.1596  -11.2142  -15.6956 N   0  0  0  0  0  0  0  0  0  0  0  0
   17.6801  -11.1964  -17.0894 C   0  0  0  0  0  0  0  0  0  0  0  0
   16.3994  -10.4172  -16.9712 C   0  0  0  0  0  0  0  0  0  0  0  0
   16.6803   -9.4013  -15.8944 C   0  0  0  0  0  0  0  0  0  0  0  0
   18.0470   -9.7948  -15.4031 C   0  0  1  0  0  0  0  0  0  0  0  0
   18.3444   -9.4262  -14.0240 C   0  0  0  0  0  0  0  0  0  0  0  0
   17.9384  -10.1958  -13.1182 O   0  0  0  0  0  0  0  0  0  0  0  0
   20.5796   -5.9541  -12.5916 C   0  0  0  0  0  0  0  0  0  0  0  0
   20.5097   -7.3089  -11.8762 C   0  0  1  0  0  0  0  0  0  0  0  0
   20.5459   -6.9619  -10.3908 C   0  0  0  0  0  0  0  0  0  0  0  0
   19.2122   -8.0103  -12.2189 C   0  0  2  0  0  0  0  0  0  0  0  0
   19.0534   -8.2691  -13.6148 N   0  0  0  0  0  0  0  0  0  0  0  0
   18.0329   -7.2833  -11.7166 C   0  0  0  0  0  0  0  0  0  0  0  0
   17.4576   -6.4021  -12.4043 O   0  0  0  0  0  0  0  0  0  0  0  0
   14.1050   -5.8187   -8.7270 N   0  0  0  0  0  0  0  0  0  0  0  0
   14.3271   -7.2282   -8.4978 C   0  0  0  0  0  0  0  0  0  0  0  0
   13.4481   -7.7838   -7.8029 O   0  0  0  0  0  0  0  0  0  0  0  0
   15.5214   -7.8831   -9.0740 C   0  0  0  0  0  0  0  0  0  0  0  0
   16.3579   -6.9113   -9.8502 C   0  0  2  0  0  0  0  0  0  0  0  0
   17.5189   -7.5663  -10.4384 N   0  0  0  0  0  0  0  0  0  0  0  0
   16.6966   -5.6883   -9.1424 C   0  0  0  0  0  0  0  0  0  0  0  0
   17.6149   -5.6017   -8.3250 O   0  0  0  0  0  0  0  0  0  0  0  0
   15.9778   -4.4821   -9.3479 O   0  0  0  0  0  0  0  0  0  0  0  0
  1  5  1  0
  1  2  1  0
  2  3  1  0
  4  3  1  0
  5  4  1  0
  6 12  1  0
  5  6  1  1
  7  6  2  0
  9  8  1  6
  9 11  1  0
 10  9  1  0
 11 12  1  6
 11 13  1  0
 13 14  2  0
 13 20  1  0
 16 15  1  0
 17 16  2  0
 18 16  1  0
 19 18  1  1
 19 21  1  0
 20 19  1  0
 21 23  1  0
 22 21  2  0
M  END
$$$$
