PVN.pdb
     RDKit          3D

 23 23  0  0  1  0  0  0  0  0999 V2000
   27.0591  -19.4078  -16.0903 N   0  0  0  0  0  0  0  0  0  0  0  0
   28.2849  -18.7487  -16.5760 C   0  0  0  0  0  0  0  0  0  0  0  0
   28.8639  -18.1873  -15.3068 C   0  0  0  0  0  0  0  0  0  0  0  0
   28.5088  -19.2053  -14.2541 C   0  0  0  0  0  0  0  0  0  0  0  0
   27.6367  -20.1776  -15.0010 C   0  0  1  0  0  0  0  0  0  0  0  0
   26.6726  -20.9059  -14.1847 C   0  0  0  0  0  0  0  0  0  0  0  0
   26.5807  -22.1456  -14.3644 O   0  0  0  0  0  0  0  0  0  0  0  0
   26.3904  -21.1762  -10.5282 C   0  0  0  0  0  0  0  0  0  0  0  0
   24.9424  -21.0409  -11.0153 C   0  0  1  0  0  0  0  0  0  0  0  0
   24.5233  -19.6366  -10.5905 C   0  0  0  0  0  0  0  0  0  0  0  0
   24.8880  -21.1703  -12.5230 C   0  0  2  0  0  0  0  0  0  0  0  0
   25.8252  -20.3338  -13.2030 N   0  0  0  0  0  0  0  0  0  0  0  0
   23.5360  -20.9291  -13.0573 C   0  0  0  0  0  0  0  0  0  0  0  0
   23.1906  -19.8034  -13.4975 O   0  0  0  0  0  0  0  0  0  0  0  0
   18.9576  -23.5690  -15.7531 N   0  0  0  0  0  0  0  0  0  0  0  0
   19.2674  -23.0717  -14.4321 C   0  0  0  0  0  0  0  0  0  0  0  0
   18.2956  -22.5651  -13.8294 O   0  0  0  0  0  0  0  0  0  0  0  0
   20.6462  -23.1915  -13.9107 C   0  0  0  0  0  0  0  0  0  0  0  0
   21.2405  -21.8466  -13.6199 C   0  0  2  0  0  0  0  0  0  0  0  0
   22.5909  -21.9703  -13.0870 N   0  0  0  0  0  0  0  0  0  0  0  0
   20.4007  -20.9599  -12.8326 C   0  0  0  0  0  0  0  0  0  0  0  0
   20.4241  -20.9081  -11.6015 O   0  0  0  0  0  0  0  0  0  0  0  0
   19.4750  -20.0723  -13.4401 O   0  0  0  0  0  0  0  0  0  0  0  0
  1  5  1  0
  1  2  1  0
  2  3  1  0
  4  3  1  0
  5  4  1  0
  6 12  1  0
  5  6  1  1
  7  6  2  0
  9  8  1  6
  9 11  1  0
 10  9  1  0
 11 12  1  6
 11 13  1  0
 13 14  2  0
 13 20  1  0
 16 15  1  0
 17 16  2  0
 18 16  1  0
 19 18  1  1
 19 21  1  0
 20 19  1  0
 21 23  1  0
 22 21  2  0
M  END
$$$$
