PVN.pdb
     RDKit          3D

 23 23  0  0  1  0  0  0  0  0999 V2000
   20.1929  -12.2491  -18.6608 N   0  0  0  0  0  0  0  0  0  0  0  0
   19.1582  -13.1979  -19.1104 C   0  0  0  0  0  0  0  0  0  0  0  0
   19.3470  -14.3444  -18.1559 C   0  0  0  0  0  0  0  0  0  0  0  0
   19.7442  -13.6872  -16.8594 C   0  0  0  0  0  0  0  0  0  0  0  0
   19.8832  -12.2383  -17.2406 C   0  0  1  0  0  0  0  0  0  0  0  0
   20.8025  -11.4617  -16.4172 C   0  0  0  0  0  0  0  0  0  0  0  0
   20.4745  -11.2517  -15.2231 O   0  0  0  0  0  0  0  0  0  0  0  0
   25.0684   -9.5875  -14.9978 C   0  0  0  0  0  0  0  0  0  0  0  0
   24.3046  -10.4617  -16.0001 C   0  0  1  0  0  0  0  0  0  0  0  0
   24.5739  -11.8931  -15.5455 C   0  0  0  0  0  0  0  0  0  0  0  0
   22.8226  -10.1592  -15.9284 C   0  0  2  0  0  0  0  0  0  0  0  0
   22.0387  -10.9194  -16.8495 N   0  0  0  0  0  0  0  0  0  0  0  0
   22.5346   -8.7248  -16.1048 C   0  0  0  0  0  0  0  0  0  0  0  0
   22.5326   -8.1861  -17.2406 O   0  0  0  0  0  0  0  0  0  0  0  0
   18.7554   -4.5613  -16.0531 N   0  0  0  0  0  0  0  0  0  0  0  0
   20.1143   -4.9295  -15.7272 C   0  0  0  0  0  0  0  0  0  0  0  0
   20.9122   -3.9678  -15.6750 O   0  0  0  0  0  0  0  0  0  0  0  0
   20.4495   -6.3502  -15.4893 C   0  0  0  0  0  0  0  0  0  0  0  0
   21.8760   -6.5115  -15.0584 C   0  0  2  0  0  0  0  0  0  0  0  0
   22.2505   -7.9178  -14.9886 N   0  0  0  0  0  0  0  0  0  0  0  0
   22.2468   -5.7675  -13.8666 C   0  0  0  0  0  0  0  0  0  0  0  0
   22.2050   -6.2344  -12.7269 O   0  0  0  0  0  0  0  0  0  0  0  0
   22.6928   -4.4220  -13.9339 O   0  0  0  0  0  0  0  0  0  0  0  0
  1  5  1  0
  1  2  1  0
  2  3  1  0
  4  3  1  0
  5  4  1  0
  6 12  1  0
  5  6  1  1
  7  6  2  0
  9  8  1  1
  9 11  1  0
 10  9  1  0
 11 12  1  6
 11 13  1  0
 13 14  2  0
 13 20  1  0
 16 15  1  0
 17 16  2  0
 18 16  1  0
 19 18  1  1
 19 21  1  0
 20 19  1  0
 21 23  1  0
 22 21  2  0
M  END
$$$$
