PVN.pdb
     RDKit          3D

 23 23  0  0  1  0  0  0  0  0999 V2000
   26.0717  -13.2888  -16.5188 N   0  0  0  0  0  0  0  0  0  0  0  0
   27.3952  -13.7491  -16.0612 C   0  0  0  0  0  0  0  0  0  0  0  0
   28.2725  -12.5780  -16.4077 C   0  0  0  0  0  0  0  0  0  0  0  0
   27.3920  -11.3755  -16.1861 C   0  0  0  0  0  0  0  0  0  0  0  0
   26.0532  -11.9867  -15.8729 C   0  0  1  0  0  0  0  0  0  0  0  0
   24.8978  -11.1575  -16.1950 C   0  0  0  0  0  0  0  0  0  0  0  0
   24.6893  -10.9000  -17.4065 O   0  0  0  0  0  0  0  0  0  0  0  0
   21.3200  -11.0143  -14.1264 C   0  0  0  0  0  0  0  0  0  0  0  0
   21.5468  -10.6187  -15.5908 C   0  0  1  0  0  0  0  0  0  0  0  0
   20.3790   -9.6952  -15.9251 C   0  0  0  0  0  0  0  0  0  0  0  0
   22.8588   -9.8758  -15.7304 C   0  0  2  0  0  0  0  0  0  0  0  0
   23.9867  -10.6130  -15.2557 N   0  0  0  0  0  0  0  0  0  0  0  0
   22.8261   -8.5542  -15.0793 C   0  0  0  0  0  0  0  0  0  0  0  0
   22.8965   -8.4311  -13.8302 O   0  0  0  0  0  0  0  0  0  0  0  0
   22.5865   -3.4469  -14.4064 N   0  0  0  0  0  0  0  0  0  0  0  0
   22.7441   -3.6360  -15.8305 C   0  0  0  0  0  0  0  0  0  0  0  0
   22.8403   -2.5748  -16.4854 O   0  0  0  0  0  0  0  0  0  0  0  0
   22.7792   -5.0060  -16.3864 C   0  0  0  0  0  0  0  0  0  0  0  0
   22.6225   -6.0378  -15.3106 C   0  0  2  0  0  0  0  0  0  0  0  0
   22.7151   -7.3862  -15.8548 N   0  0  0  0  0  0  0  0  0  0  0  0
   21.4692   -5.8548  -14.4458 C   0  0  0  0  0  0  0  0  0  0  0  0
   21.5272   -5.3457  -13.3250 O   0  0  0  0  0  0  0  0  0  0  0  0
   20.1672   -6.2583  -14.8407 O   0  0  0  0  0  0  0  0  0  0  0  0
  1  5  1  0
  1  2  1  0
  2  3  1  0
  4  3  1  0
  5  4  1  0
  6 12  1  0
  5  6  1  6
  7  6  2  0
  9  8  1  1
  9 11  1  0
 10  9  1  0
 11 12  1  1
 11 13  1  0
 13 14  2  0
 13 20  1  0
 16 15  1  0
 17 16  2  0
 18 16  1  0
 19 18  1  6
 19 21  1  0
 20 19  1  0
 21 23  1  0
 22 21  2  0
M  END
$$$$
