PVN.pdb
     RDKit          3D

 23 23  0  0  1  0  0  0  0  0999 V2000
   25.2306  -13.1963  -15.7927 N   0  0  0  0  0  0  0  0  0  0  0  0
   26.0552  -14.4119  -15.9166 C   0  0  0  0  0  0  0  0  0  0  0  0
   25.3911  -15.1269  -17.0607 C   0  0  0  0  0  0  0  0  0  0  0  0
   24.9246  -14.0200  -17.9704 C   0  0  0  0  0  0  0  0  0  0  0  0
   25.2417  -12.7768  -17.1843 C   0  0  1  0  0  0  0  0  0  0  0  0
   24.4070  -11.6192  -17.4837 C   0  0  0  0  0  0  0  0  0  0  0  0
   24.7313  -10.9104  -18.4686 O   0  0  0  0  0  0  0  0  0  0  0  0
   21.2917  -11.3909  -18.9308 C   0  0  0  0  0  0  0  0  0  0  0  0
   21.1523  -10.4205  -17.7513 C   0  0  1  0  0  0  0  0  0  0  0  0
   20.3366  -11.1887  -16.7155 C   0  0  0  0  0  0  0  0  0  0  0  0
   22.5189  -10.0805  -17.1948 C   0  0  2  0  0  0  0  0  0  0  0  0
   23.2577  -11.2216  -16.7557 N   0  0  0  0  0  0  0  0  0  0  0  0
   22.4495   -9.0909  -16.1051 C   0  0  0  0  0  0  0  0  0  0  0  0
   22.4724   -9.4361  -14.8966 O   0  0  0  0  0  0  0  0  0  0  0  0
   22.1278   -4.6179  -13.5761 N   0  0  0  0  0  0  0  0  0  0  0  0
   22.7098   -4.3157  -14.8638 C   0  0  0  0  0  0  0  0  0  0  0  0
   23.0674   -3.1252  -15.0030 O   0  0  0  0  0  0  0  0  0  0  0  0
   22.8359   -5.3847  -15.8779 C   0  0  0  0  0  0  0  0  0  0  0  0
   22.2197   -6.6657  -15.4029 C   0  0  2  0  0  0  0  0  0  0  0  0
   22.3561   -7.7190  -16.4003 N   0  0  0  0  0  0  0  0  0  0  0  0
   20.8654   -6.5441  -14.8902 C   0  0  0  0  0  0  0  0  0  0  0  0
   20.5862   -6.5266  -13.6900 O   0  0  0  0  0  0  0  0  0  0  0  0
   19.7458   -6.4342  -15.7552 O   0  0  0  0  0  0  0  0  0  0  0  0
  1  5  1  0
  1  2  1  0
  2  3  1  0
  4  3  1  0
  5  4  1  0
  6 12  1  0
  5  6  1  1
  7  6  2  0
  9  8  1  6
  9 11  1  0
 10  9  1  0
 11 12  1  1
 11 13  1  0
 13 14  2  0
 13 20  1  0
 16 15  1  0
 17 16  2  0
 18 16  1  0
 19 18  1  6
 19 21  1  0
 20 19  1  0
 21 23  1  0
 22 21  2  0
M  END
$$$$
