PVN.pdb
     RDKit          3D

 23 23  0  0  1  0  0  0  0  0999 V2000
   16.0056  -20.4194    2.4685 N   0  0  0  0  0  0  0  0  0  0  0  0
   14.7457  -21.0422    2.0240 C   0  0  0  0  0  0  0  0  0  0  0  0
   13.8426  -20.7998    3.2016 C   0  0  0  0  0  0  0  0  0  0  0  0
   14.2757  -19.4577    3.7323 C   0  0  0  0  0  0  0  0  0  0  0  0
   15.4804  -19.1318    2.8918 C   0  0  1  0  0  0  0  0  0  0  0  0
   16.4558  -18.2457    3.5160 C   0  0  0  0  0  0  0  0  0  0  0  0
   17.5113  -18.7647    3.9566 O   0  0  0  0  0  0  0  0  0  0  0  0
   16.1107  -13.9563    4.3077 C   0  0  0  0  0  0  0  0  0  0  0  0
   17.3970  -14.6367    3.8232 C   0  0  1  0  0  0  0  0  0  0  0  0
   18.5197  -13.8903    4.5378 C   0  0  0  0  0  0  0  0  0  0  0  0
   17.3966  -16.0956    4.2287 C   0  0  2  0  0  0  0  0  0  0  0  0
   16.3150  -16.8439    3.6712 N   0  0  0  0  0  0  0  0  0  0  0  0
   17.4123  -16.2701    5.6919 C   0  0  0  0  0  0  0  0  0  0  0  0
   16.3499  -16.3574    6.3583 O   0  0  0  0  0  0  0  0  0  0  0  0
   21.3107  -18.8466    6.7605 N   0  0  0  0  0  0  0  0  0  0  0  0
   20.2309  -18.5170    7.6627 C   0  0  0  0  0  0  0  0  0  0  0  0
   19.4791  -19.4768    7.9417 O   0  0  0  0  0  0  0  0  0  0  0  0
   20.0977  -17.1338    8.1687 C   0  0  0  0  0  0  0  0  0  0  0  0
   18.7626  -16.5491    7.8194 C   0  0  2  0  0  0  0  0  0  0  0  0
   18.6352  -16.3449    6.3824 N   0  0  0  0  0  0  0  0  0  0  0  0
   18.3817  -15.3794    8.5929 C   0  0  0  0  0  0  0  0  0  0  0  0
   18.3520  -14.2355    8.1354 O   0  0  0  0  0  0  0  0  0  0  0  0
   18.0089  -15.4754    9.9588 O   0  0  0  0  0  0  0  0  0  0  0  0
  1  5  1  0
  1  2  1  0
  2  3  1  0
  4  3  1  0
  5  4  1  0
  6 12  1  0
  5  6  1  1
  7  6  2  0
  9  8  1  1
  9 11  1  0
 10  9  1  0
 11 12  1  1
 11 13  1  0
 13 14  2  0
 13 20  1  0
 16 15  1  0
 17 16  2  0
 18 16  1  0
 19 18  1  6
 19 21  1  0
 20 19  1  0
 21 23  1  0
 22 21  2  0
M  END
$$$$
