WHY.pdb
     RDKit          3D

 37 40  0  0  1  0  0  0  0  0999 V2000
    6.4960  -17.6001   24.4167 N   0  0  0  0  0  0  0  0  0  0  0  0
    7.3535  -16.5594   23.8886 C   0  0  1  0  0  0  0  0  0  0  0  0
    7.9071  -15.7939   25.0718 C   0  0  0  0  0  0  0  0  0  0  0  0
    6.9359  -14.8030   25.5554 C   0  0  0  0  0  0  0  0  0  0  0  0
    5.8797  -15.0405   26.4073 C   0  0  0  0  0  0  0  0  0  0  0  0
    5.2749  -13.8503   26.5637 N   0  0  0  0  0  0  0  0  0  0  0  0
    5.8820  -12.8957   25.8695 C   0  0  0  0  0  0  0  0  0  0  0  0
    5.6547  -11.5445   25.7026 C   0  0  0  0  0  0  0  0  0  0  0  0
    6.4828  -10.8024   24.8958 C   0  0  0  0  0  0  0  0  0  0  0  0
    7.5421  -11.3796   24.2451 C   0  0  0  0  0  0  0  0  0  0  0  0
    7.7867  -12.7291   24.3986 C   0  0  0  0  0  0  0  0  0  0  0  0
    6.9475  -13.4660   25.2125 C   0  0  0  0  0  0  0  0  0  0  0  0
    8.4822  -17.0948   23.1133 C   0  0  0  0  0  0  0  0  0  0  0  0
    8.6803  -18.3331   23.1147 O   0  0  0  0  0  0  0  0  0  0  0  0
    9.3927  -16.2961   22.3403 N   0  0  0  0  0  0  0  0  0  0  0  0
   10.3188  -16.9057   21.4093 C   0  0  1  0  0  0  0  0  0  0  0  0
   10.2632  -16.3908   20.0244 C   0  0  0  0  0  0  0  0  0  0  0  0
   11.2037  -16.9296   19.0572 C   0  0  0  0  0  0  0  0  0  0  0  0
   12.4747  -16.5638   18.7469 C   0  0  0  0  0  0  0  0  0  0  0  0
   12.9442  -17.4084   17.7820 N   0  0  0  0  0  0  0  0  0  0  0  0
   11.9640  -18.2782   17.5121 C   0  0  0  0  0  0  0  0  0  0  0  0
   10.8963  -18.0114   18.2713 N   0  0  0  0  0  0  0  0  0  0  0  0
   11.7134  -16.8723   21.9778 C   0  0  0  0  0  0  0  0  0  0  0  0
   12.5013  -17.8145   21.7390 O   0  0  0  0  0  0  0  0  0  0  0  0
   10.5151  -16.0733   30.4627 O   0  0  0  0  0  0  0  0  0  0  0  0
   10.6122  -15.9909   29.0646 C   0  0  0  0  0  0  0  0  0  0  0  0
   11.7500  -15.5059   28.4558 C   0  0  0  0  0  0  0  0  0  0  0  0
   11.8466  -15.4242   27.0731 C   0  0  0  0  0  0  0  0  0  0  0  0
   10.8084  -15.8248   26.2549 C   0  0  0  0  0  0  0  0  0  0  0  0
   10.8916  -15.7442   24.7870 C   0  0  0  0  0  0  0  0  0  0  0  0
   12.2773  -15.8902   24.2344 C   0  0  2  0  0  0  0  0  0  0  0  0
   12.1464  -15.7963   22.7742 N   0  0  0  0  0  0  0  0  0  0  0  0
   12.9725  -17.1158   24.6368 C   0  0  0  0  0  0  0  0  0  0  0  0
   13.9106  -17.0848   25.4550 O   0  0  0  0  0  0  0  0  0  0  0  0
    9.6721  -16.3094   26.8710 C   0  0  0  0  0  0  0  0  0  0  0  0
    9.5714  -16.3928   28.2543 C   0  0  0  0  0  0  0  0  0  0  0  0
   12.6012  -18.3461   24.1143 O   0  0  0  0  0  0  0  0  0  0  0  0
  2  1  1  1
  2 13  1  0
  2  3  1  0
  3  4  1  0
  4  5  2  0
  6  5  1  0
  7  6  1  0
  8  7  2  0
  9  8  1  0
 10 11  1  0
 10  9  2  0
 11 12  2  0
 12  7  1  0
 12  4  1  0
 13 14  2  0
 15 16  1  0
 15 13  1  0
 16 17  1  6
 18 17  1  0
 19 18  2  0
 20 21  1  0
 20 19  1  0
 21 22  2  0
 22 18  1  0
 23 32  1  0
 23 16  1  0
 24 23  2  0
 25 26  1  0
 26 36  2  0
 26 27  1  0
 27 28  2  0
 28 29  1  0
 29 30  1  0
 31 30  1  1
 31 32  1  0
 33 31  1  0
 33 37  1  0
 34 33  2  0
 35 29  2  0
 36 35  1  0
M  END
$$$$
