WHY.pdb
     RDKit          3D

 37 40  0  0  1  0  0  0  0  0999 V2000
    6.3935  -17.9984   25.2235 N   0  0  0  0  0  0  0  0  0  0  0  0
    7.0667  -16.9790   24.4457 C   0  0  1  0  0  0  0  0  0  0  0  0
    7.8656  -16.1332   25.4146 C   0  0  0  0  0  0  0  0  0  0  0  0
    7.0683  -14.9983   25.8999 C   0  0  0  0  0  0  0  0  0  0  0  0
    5.9120  -15.0699   26.6451 C   0  0  0  0  0  0  0  0  0  0  0  0
    5.5417  -13.7940   26.8498 N   0  0  0  0  0  0  0  0  0  0  0  0
    6.3865  -12.9406   26.2844 C   0  0  0  0  0  0  0  0  0  0  0  0
    6.4464  -11.5635   26.2101 C   0  0  0  0  0  0  0  0  0  0  0  0
    7.4753  -10.9555   25.5328 C   0  0  0  0  0  0  0  0  0  0  0  0
    8.4556  -11.6933   24.9218 C   0  0  0  0  0  0  0  0  0  0  0  0
    8.4142  -13.0713   24.9842 C   0  0  0  0  0  0  0  0  0  0  0  0
    7.3748  -13.6725   25.6681 C   0  0  0  0  0  0  0  0  0  0  0  0
    7.9910  -17.5435   23.4514 C   0  0  0  0  0  0  0  0  0  0  0  0
    8.7144  -18.5125   23.7834 O   0  0  0  0  0  0  0  0  0  0  0  0
    8.1332  -17.0631   22.1047 N   0  0  0  0  0  0  0  0  0  0  0  0
    9.3842  -17.1999   21.3890 C   0  0  1  0  0  0  0  0  0  0  0  0
    9.3344  -16.8718   19.9482 C   0  0  0  0  0  0  0  0  0  0  0  0
   10.5177  -17.1328   19.1470 C   0  0  0  0  0  0  0  0  0  0  0  0
   11.7403  -17.6158   19.4894 C   0  0  0  0  0  0  0  0  0  0  0  0
   12.5024  -17.7035   18.3597 N   0  0  0  0  0  0  0  0  0  0  0  0
   11.7452  -17.2770   17.3423 C   0  0  0  0  0  0  0  0  0  0  0  0
   10.5360  -16.9245   17.7910 N   0  0  0  0  0  0  0  0  0  0  0  0
   10.4724  -16.4487   22.1107 C   0  0  0  0  0  0  0  0  0  0  0  0
   10.6103  -15.2205   21.9154 O   0  0  0  0  0  0  0  0  0  0  0  0
    9.6885  -16.3559   29.5662 O   0  0  0  0  0  0  0  0  0  0  0  0
   10.2032  -16.0746   28.2907 C   0  0  0  0  0  0  0  0  0  0  0  0
   10.0262  -14.8385   27.7066 C   0  0  0  0  0  0  0  0  0  0  0  0
   10.5350  -14.5598   26.4452 C   0  0  0  0  0  0  0  0  0  0  0  0
   11.2372  -15.5082   25.7273 C   0  0  0  0  0  0  0  0  0  0  0  0
   11.7827  -15.2318   24.3879 C   0  0  0  0  0  0  0  0  0  0  0  0
   12.4178  -16.4138   23.7198 C   0  0  2  0  0  0  0  0  0  0  0  0
   11.3383  -17.1064   23.0035 N   0  0  0  0  0  0  0  0  0  0  0  0
   13.1336  -17.3183   24.6236 C   0  0  0  0  0  0  0  0  0  0  0  0
   12.7248  -18.4757   24.8328 O   0  0  0  0  0  0  0  0  0  0  0  0
   11.4107  -16.7437   26.3180 C   0  0  0  0  0  0  0  0  0  0  0  0
   10.9032  -17.0268   27.5802 C   0  0  0  0  0  0  0  0  0  0  0  0
   14.2892  -16.9061   25.2711 O   0  0  0  0  0  0  0  0  0  0  0  0
  2  1  1  1
  2 13  1  0
  2  3  1  0
  3  4  1  0
  4  5  2  0
  6  5  1  0
  7  6  1  0
  8  7  2  0
  9  8  1  0
 10 11  1  0
 10  9  2  0
 11 12  2  0
 12  7  1  0
 12  4  1  0
 13 14  2  0
 15 16  1  0
 15 13  1  0
 16 17  1  6
 18 17  1  0
 19 18  2  0
 20 21  1  0
 20 19  1  0
 21 22  2  0
 22 18  1  0
 23 32  1  0
 23 16  1  0
 24 23  2  0
 25 26  1  0
 26 36  2  0
 26 27  1  0
 27 28  2  0
 28 29  1  0
 29 30  1  0
 31 30  1  1
 31 32  1  0
 33 31  1  0
 33 37  1  0
 34 33  2  0
 35 29  2  0
 36 35  1  0
M  END
$$$$
