WHY.pdb
     RDKit          3D

 37 40  0  0  1  0  0  0  0  0999 V2000
    8.4669  -17.9740   20.5520 N   0  0  0  0  0  0  0  0  0  0  0  0
    8.8255  -16.9759   21.5382 C   0  0  1  0  0  0  0  0  0  0  0  0
    7.6006  -16.1166   21.7694 C   0  0  0  0  0  0  0  0  0  0  0  0
    7.3373  -15.2563   20.6077 C   0  0  0  0  0  0  0  0  0  0  0  0
    6.9040  -15.6675   19.3664 C   0  0  0  0  0  0  0  0  0  0  0  0
    6.8068  -14.5445   18.6341 N   0  0  0  0  0  0  0  0  0  0  0  0
    7.1489  -13.4701   19.3344 C   0  0  0  0  0  0  0  0  0  0  0  0
    7.2150  -12.1222   19.0446 C   0  0  0  0  0  0  0  0  0  0  0  0
    7.6179  -11.2304   20.0088 C   0  0  0  0  0  0  0  0  0  0  0  0
    7.9599  -11.6532   21.2669 C   0  0  0  0  0  0  0  0  0  0  0  0
    7.9006  -12.9966   21.5772 C   0  0  0  0  0  0  0  0  0  0  0  0
    7.4940  -13.8849   20.5998 C   0  0  0  0  0  0  0  0  0  0  0  0
    9.2262  -17.5678   22.8231 C   0  0  0  0  0  0  0  0  0  0  0  0
    8.3326  -17.9685   23.6064 O   0  0  0  0  0  0  0  0  0  0  0  0
   10.5859  -17.7259   23.2596 N   0  0  0  0  0  0  0  0  0  0  0  0
   11.3798  -16.5851   23.6650 C   0  0  1  0  0  0  0  0  0  0  0  0
   11.3361  -15.4212   22.7544 C   0  0  0  0  0  0  0  0  0  0  0  0
   12.0742  -15.5027   21.5058 C   0  0  0  0  0  0  0  0  0  0  0  0
   12.8866  -16.4716   21.0095 C   0  0  0  0  0  0  0  0  0  0  0  0
   13.3191  -16.0823   19.7741 N   0  0  0  0  0  0  0  0  0  0  0  0
   12.7712  -14.8870   19.5260 C   0  0  0  0  0  0  0  0  0  0  0  0
   12.0109  -14.5111   20.5596 N   0  0  0  0  0  0  0  0  0  0  0  0
   11.0527  -16.2126   25.0875 C   0  0  0  0  0  0  0  0  0  0  0  0
   10.6402  -15.0599   25.3458 O   0  0  0  0  0  0  0  0  0  0  0  0
    6.8665  -11.6618   27.3400 O   0  0  0  0  0  0  0  0  0  0  0  0
    7.3921  -12.9603   27.2480 C   0  0  0  0  0  0  0  0  0  0  0  0
    8.5680  -13.3005   27.8820 C   0  0  0  0  0  0  0  0  0  0  0  0
    9.0884  -14.5846   27.7914 C   0  0  0  0  0  0  0  0  0  0  0  0
    8.4496  -15.5696   27.0639 C   0  0  0  0  0  0  0  0  0  0  0  0
    8.9868  -16.9362   26.9548 C   0  0  0  0  0  0  0  0  0  0  0  0
   10.4191  -17.0759   27.3741 C   0  0  2  0  0  0  0  0  0  0  0  0
   11.2030  -17.1417   26.1333 N   0  0  0  0  0  0  0  0  0  0  0  0
   10.6941  -18.2195   28.2480 C   0  0  0  0  0  0  0  0  0  0  0  0
   11.1593  -19.2808   27.7923 O   0  0  0  0  0  0  0  0  0  0  0  0
    7.2727  -15.2223   26.4316 C   0  0  0  0  0  0  0  0  0  0  0  0
    6.7486  -13.9384   26.5197 C   0  0  0  0  0  0  0  0  0  0  0  0
   10.4421  -18.1481   29.6103 O   0  0  0  0  0  0  0  0  0  0  0  0
  2  1  1  6
  2 13  1  0
  2  3  1  0
  3  4  1  0
  4  5  2  0
  6  5  1  0
  7  6  1  0
  8  7  2  0
  9  8  1  0
 10 11  1  0
 10  9  2  0
 11 12  2  0
 12  7  1  0
 12  4  1  0
 13 14  2  0
 15 16  1  0
 15 13  1  0
 16 17  1  6
 18 17  1  0
 19 18  2  0
 20 21  1  0
 20 19  1  0
 21 22  2  0
 22 18  1  0
 23 32  1  0
 23 16  1  0
 24 23  2  0
 25 26  1  0
 26 36  2  0
 26 27  1  0
 27 28  2  0
 28 29  1  0
 29 30  1  0
 31 30  1  6
 31 32  1  0
 33 31  1  0
 33 37  1  0
 34 33  2  0
 35 29  2  0
 36 35  1  0
M  END
$$$$
