WHY.pdb
     RDKit          3D

 37 40  0  0  1  0  0  0  0  0999 V2000
    7.6690  -17.5174   26.2703 N   0  0  0  0  0  0  0  0  0  0  0  0
    7.4489  -16.6138   25.1602 C   0  0  1  0  0  0  0  0  0  0  0  0
    8.5367  -15.5624   25.2179 C   0  0  0  0  0  0  0  0  0  0  0  0
    8.3711  -14.7016   26.3972 C   0  0  0  0  0  0  0  0  0  0  0  0
    9.0284  -14.8276   27.6011 C   0  0  0  0  0  0  0  0  0  0  0  0
    8.5578  -13.8297   28.3690 N   0  0  0  0  0  0  0  0  0  0  0  0
    7.6575  -13.0971   27.7252 C   0  0  0  0  0  0  0  0  0  0  0  0
    6.9035  -11.9926   28.0672 C   0  0  0  0  0  0  0  0  0  0  0  0
    6.0331  -11.4453   27.1561 C   0  0  0  0  0  0  0  0  0  0  0  0
    5.8945  -11.9769   25.9004 C   0  0  0  0  0  0  0  0  0  0  0  0
    6.6391  -13.0810   25.5384 C   0  0  0  0  0  0  0  0  0  0  0  0
    7.5115  -13.6235   26.4627 C   0  0  0  0  0  0  0  0  0  0  0  0
    7.5254  -17.2894   23.8565 C   0  0  0  0  0  0  0  0  0  0  0  0
    8.2214  -18.3276   23.7560 O   0  0  0  0  0  0  0  0  0  0  0  0
    6.8530  -16.8451   22.6669 N   0  0  0  0  0  0  0  0  0  0  0  0
    7.2924  -17.2712   21.3549 C   0  0  1  0  0  0  0  0  0  0  0  0
    6.3067  -17.1029   20.2659 C   0  0  0  0  0  0  0  0  0  0  0  0
    6.7105  -17.4623   18.9175 C   0  0  0  0  0  0  0  0  0  0  0  0
    6.9874  -16.6933   17.8325 C   0  0  0  0  0  0  0  0  0  0  0  0
    7.3511  -17.5132   16.8029 N   0  0  0  0  0  0  0  0  0  0  0  0
    7.2949  -18.7684   17.2631 C   0  0  0  0  0  0  0  0  0  0  0  0
    6.9091  -18.7673   18.5433 N   0  0  0  0  0  0  0  0  0  0  0  0
    8.6204  -16.6392   21.0287 C   0  0  0  0  0  0  0  0  0  0  0  0
    8.7966  -16.1143   19.9067 O   0  0  0  0  0  0  0  0  0  0  0  0
    7.8590  -13.3539   16.6871 O   0  0  0  0  0  0  0  0  0  0  0  0
    8.5657  -13.6520   17.8629 C   0  0  0  0  0  0  0  0  0  0  0  0
    9.7730  -14.3162   17.8207 C   0  0  0  0  0  0  0  0  0  0  0  0
   10.4724  -14.6113   18.9834 C   0  0  0  0  0  0  0  0  0  0  0  0
    9.9868  -14.2518   20.2255 C   0  0  0  0  0  0  0  0  0  0  0  0
   10.7131  -14.5575   21.4693 C   0  0  0  0  0  0  0  0  0  0  0  0
   10.9754  -16.0163   21.6929 C   0  0  2  0  0  0  0  0  0  0  0  0
    9.6685  -16.6285   21.9673 N   0  0  0  0  0  0  0  0  0  0  0  0
   11.9431  -16.3104   22.7532 C   0  0  0  0  0  0  0  0  0  0  0  0
   13.1111  -15.8829   22.6955 O   0  0  0  0  0  0  0  0  0  0  0  0
    8.7775  -13.5871   20.2605 C   0  0  0  0  0  0  0  0  0  0  0  0
    8.0745  -13.2898   19.0994 C   0  0  0  0  0  0  0  0  0  0  0  0
   11.5805  -17.0753   23.8523 O   0  0  0  0  0  0  0  0  0  0  0  0
  2  1  1  1
  2 13  1  0
  2  3  1  0
  3  4  1  0
  4  5  2  0
  6  5  1  0
  7  6  1  0
  8  7  2  0
  9  8  1  0
 10 11  1  0
 10  9  2  0
 11 12  2  0
 12  7  1  0
 12  4  1  0
 13 14  2  0
 15 16  1  0
 15 13  1  0
 16 17  1  6
 18 17  1  0
 19 18  2  0
 20 21  1  0
 20 19  1  0
 21 22  2  0
 22 18  1  0
 23 32  1  0
 23 16  1  0
 24 23  2  0
 25 26  1  0
 26 36  2  0
 26 27  1  0
 27 28  2  0
 28 29  1  0
 29 30  1  0
 31 30  1  1
 31 32  1  0
 33 31  1  0
 33 37  1  0
 34 33  2  0
 35 29  2  0
 36 35  1  0
M  END
$$$$
