WHY.pdb
     RDKit          3D

 37 40  0  0  1  0  0  0  0  0999 V2000
    6.3833  -17.7226   24.7455 N   0  0  0  0  0  0  0  0  0  0  0  0
    6.9749  -16.5649   24.1074 C   0  0  1  0  0  0  0  0  0  0  0  0
    7.7173  -15.7951   25.1791 C   0  0  0  0  0  0  0  0  0  0  0  0
    6.8342  -14.8155   25.8270 C   0  0  0  0  0  0  0  0  0  0  0  0
    5.7168  -15.0950   26.5825 C   0  0  0  0  0  0  0  0  0  0  0  0
    5.2355  -13.8985   26.9611 N   0  0  0  0  0  0  0  0  0  0  0  0
    5.9757  -12.9009   26.4936 C   0  0  0  0  0  0  0  0  0  0  0  0
    5.9030  -11.5265   26.5993 C   0  0  0  0  0  0  0  0  0  0  0  0
    6.8457  -10.7387   25.9844 C   0  0  0  0  0  0  0  0  0  0  0  0
    7.8689  -11.2925   25.2598 C   0  0  0  0  0  0  0  0  0  0  0  0
    7.9597  -12.6644   25.1418 C   0  0  0  0  0  0  0  0  0  0  0  0
    7.0062  -13.4473   25.7644 C   0  0  0  0  0  0  0  0  0  0  0  0
    7.9307  -16.9275   23.0505 C   0  0  0  0  0  0  0  0  0  0  0  0
    8.4323  -18.0768   23.0605 O   0  0  0  0  0  0  0  0  0  0  0  0
    8.3425  -16.0524   21.9880 N   0  0  0  0  0  0  0  0  0  0  0  0
    9.2750  -16.4945   20.9726 C   0  0  1  0  0  0  0  0  0  0  0  0
    8.8696  -16.2305   19.5754 C   0  0  0  0  0  0  0  0  0  0  0  0
    9.7042  -16.7594   18.5106 C   0  0  0  0  0  0  0  0  0  0  0  0
   10.8366  -17.5088   18.5509 C   0  0  0  0  0  0  0  0  0  0  0  0
   11.2256  -17.7738   17.2691 N   0  0  0  0  0  0  0  0  0  0  0  0
   10.3341  -17.1891   16.4604 C   0  0  0  0  0  0  0  0  0  0  0  0
    9.3999  -16.5666   17.1866 N   0  0  0  0  0  0  0  0  0  0  0  0
   10.6532  -15.9691   21.2786 C   0  0  0  0  0  0  0  0  0  0  0  0
   10.9703  -14.8151   20.9137 O   0  0  0  0  0  0  0  0  0  0  0  0
   11.2711  -14.9762   29.6038 O   0  0  0  0  0  0  0  0  0  0  0  0
   11.1176  -15.3377   28.2559 C   0  0  0  0  0  0  0  0  0  0  0  0
   10.1274  -16.2112   27.8598 C   0  0  0  0  0  0  0  0  0  0  0  0
    9.9751  -16.5690   26.5269 C   0  0  0  0  0  0  0  0  0  0  0  0
   10.8082  -16.0648   25.5474 C   0  0  0  0  0  0  0  0  0  0  0  0
   10.6633  -16.4338   24.1293 C   0  0  0  0  0  0  0  0  0  0  0  0
   11.9550  -16.5122   23.3728 C   0  0  2  0  0  0  0  0  0  0  0  0
   11.5923  -16.7561   21.9702 N   0  0  0  0  0  0  0  0  0  0  0  0
   12.8973  -17.5183   23.8699 C   0  0  0  0  0  0  0  0  0  0  0  0
   14.0716  -17.2162   24.1529 O   0  0  0  0  0  0  0  0  0  0  0  0
   11.7975  -15.1907   25.9508 C   0  0  0  0  0  0  0  0  0  0  0  0
   11.9533  -14.8301   27.2837 C   0  0  0  0  0  0  0  0  0  0  0  0
   12.5030  -18.8376   24.0383 O   0  0  0  0  0  0  0  0  0  0  0  0
  2  1  1  1
  2 13  1  0
  2  3  1  0
  3  4  1  0
  4  5  2  0
  6  5  1  0
  7  6  1  0
  8  7  2  0
  9  8  1  0
 10 11  1  0
 10  9  2  0
 11 12  2  0
 12  7  1  0
 12  4  1  0
 13 14  2  0
 15 16  1  0
 15 13  1  0
 16 17  1  6
 18 17  1  0
 19 18  2  0
 20 21  1  0
 20 19  1  0
 21 22  2  0
 22 18  1  0
 23 32  1  0
 23 16  1  0
 24 23  2  0
 25 26  1  0
 26 36  2  0
 26 27  1  0
 27 28  2  0
 28 29  1  0
 29 30  1  0
 31 30  1  1
 31 32  1  0
 33 31  1  0
 33 37  1  0
 34 33  2  0
 35 29  2  0
 36 35  1  0
M  END
$$$$
