WHY.pdb
     RDKit          3D

 37 40  0  0  1  0  0  0  0  0999 V2000
    6.6380  -16.7191   23.0089 N   0  0  0  0  0  0  0  0  0  0  0  0
    7.8559  -15.9757   23.2568 C   0  0  1  0  0  0  0  0  0  0  0  0
    8.0289  -15.8904   24.7585 C   0  0  0  0  0  0  0  0  0  0  0  0
    7.0031  -15.0242   25.3555 C   0  0  0  0  0  0  0  0  0  0  0  0
    5.9405  -15.4301   26.1325 C   0  0  0  0  0  0  0  0  0  0  0  0
    5.2786  -14.3030   26.4459 N   0  0  0  0  0  0  0  0  0  0  0  0
    5.8564  -13.2310   25.9181 C   0  0  0  0  0  0  0  0  0  0  0  0
    5.5712  -11.8807   25.9464 C   0  0  0  0  0  0  0  0  0  0  0  0
    6.3819  -10.9926   25.2821 C   0  0  0  0  0  0  0  0  0  0  0  0
    7.4805  -11.4214   24.5835 C   0  0  0  0  0  0  0  0  0  0  0  0
    7.7832  -12.7672   24.5427 C   0  0  0  0  0  0  0  0  0  0  0  0
    6.9610  -13.6517   25.2145 C   0  0  0  0  0  0  0  0  0  0  0  0
    9.0441  -16.6301   22.6894 C   0  0  0  0  0  0  0  0  0  0  0  0
    9.3258  -17.7942   23.0609 O   0  0  0  0  0  0  0  0  0  0  0  0
    9.9238  -16.0294   21.7252 N   0  0  0  0  0  0  0  0  0  0  0  0
   11.1487  -16.6852   21.3182 C   0  0  1  0  0  0  0  0  0  0  0  0
   11.5627  -16.4519   19.9181 C   0  0  0  0  0  0  0  0  0  0  0  0
   10.7113  -16.9661   18.8594 C   0  0  0  0  0  0  0  0  0  0  0  0
   10.2282  -18.2145   18.6278 C   0  0  0  0  0  0  0  0  0  0  0  0
    9.4452  -18.1745   17.5098 N   0  0  0  0  0  0  0  0  0  0  0  0
    9.4550  -16.9110   17.0697 C   0  0  0  0  0  0  0  0  0  0  0  0
   10.2151  -16.1559   17.8695 N   0  0  0  0  0  0  0  0  0  0  0  0
   12.2476  -16.3739   22.3004 C   0  0  0  0  0  0  0  0  0  0  0  0
   12.7648  -15.2347   22.3093 O   0  0  0  0  0  0  0  0  0  0  0  0
   10.9381  -15.3922   30.6141 O   0  0  0  0  0  0  0  0  0  0  0  0
   11.0553  -15.7019   29.2499 C   0  0  0  0  0  0  0  0  0  0  0  0
   10.9321  -16.9991   28.7996 C   0  0  0  0  0  0  0  0  0  0  0  0
   11.0480  -17.3061   27.4505 C   0  0  0  0  0  0  0  0  0  0  0  0
   11.2909  -16.3257   26.5083 C   0  0  0  0  0  0  0  0  0  0  0  0
   11.4186  -16.6320   25.0737 C   0  0  0  0  0  0  0  0  0  0  0  0
   12.7790  -17.1046   24.6581 C   0  0  2  0  0  0  0  0  0  0  0  0
   12.7030  -17.3451   23.2109 N   0  0  0  0  0  0  0  0  0  0  0  0
   13.2647  -18.2853   25.3772 C   0  0  0  0  0  0  0  0  0  0  0  0
   12.8916  -19.4304   25.0608 O   0  0  0  0  0  0  0  0  0  0  0  0
   11.4132  -15.0291   26.9659 C   0  0  0  0  0  0  0  0  0  0  0  0
   11.2979  -14.7177   28.3151 C   0  0  0  0  0  0  0  0  0  0  0  0
   14.1560  -18.1565   26.4324 O   0  0  0  0  0  0  0  0  0  0  0  0
  2  1  1  1
  2 13  1  0
  2  3  1  0
  3  4  1  0
  4  5  2  0
  6  5  1  0
  7  6  1  0
  8  7  2  0
  9  8  1  0
 10 11  1  0
 10  9  2  0
 11 12  2  0
 12  7  1  0
 12  4  1  0
 13 14  2  0
 15 16  1  0
 15 13  1  0
 16 17  1  6
 18 17  1  0
 19 18  2  0
 20 21  1  0
 20 19  1  0
 21 22  2  0
 22 18  1  0
 23 32  1  0
 23 16  1  0
 24 23  2  0
 25 26  1  0
 26 36  2  0
 26 27  1  0
 27 28  2  0
 28 29  1  0
 29 30  1  0
 31 30  1  1
 31 32  1  0
 33 31  1  0
 33 37  1  0
 34 33  2  0
 35 29  2  0
 36 35  1  0
M  END
$$$$
