WHY.pdb
     RDKit          3D

 37 40  0  0  1  0  0  0  0  0999 V2000
    6.6989  -17.5762   24.4373 N   0  0  0  0  0  0  0  0  0  0  0  0
    7.3966  -16.5359   23.7104 C   0  0  1  0  0  0  0  0  0  0  0  0
    7.9525  -15.5707   24.7359 C   0  0  0  0  0  0  0  0  0  0  0  0
    6.8716  -14.8152   25.3840 C   0  0  0  0  0  0  0  0  0  0  0  0
    5.7290  -15.3406   25.9460 C   0  0  0  0  0  0  0  0  0  0  0  0
    5.0420  -14.2821   26.4092 N   0  0  0  0  0  0  0  0  0  0  0  0
    5.6787  -13.1417   26.1734 C   0  0  0  0  0  0  0  0  0  0  0  0
    5.3983  -11.8175   26.4441 C   0  0  0  0  0  0  0  0  0  0  0  0
    6.2805  -10.8359   26.0628 C   0  0  0  0  0  0  0  0  0  0  0  0
    7.4466  -11.1447   25.4120 C   0  0  0  0  0  0  0  0  0  0  0  0
    7.7459  -12.4624   25.1319 C   0  0  0  0  0  0  0  0  0  0  0  0
    6.8514  -13.4417   25.5200 C   0  0  0  0  0  0  0  0  0  0  0  0
    8.5144  -17.0568   22.9098 C   0  0  0  0  0  0  0  0  0  0  0  0
    8.8840  -18.2415   23.0903 O   0  0  0  0  0  0  0  0  0  0  0  0
    9.2297  -16.3012   21.9188 N   0  0  0  0  0  0  0  0  0  0  0  0
   10.3516  -16.8744   21.2057 C   0  0  1  0  0  0  0  0  0  0  0  0
   10.3522  -16.6644   19.7422 C   0  0  0  0  0  0  0  0  0  0  0  0
   11.4162  -17.2760   18.9649 C   0  0  0  0  0  0  0  0  0  0  0  0
   12.7672  -17.1766   19.0655 C   0  0  0  0  0  0  0  0  0  0  0  0
   13.3317  -17.9746   18.1120 N   0  0  0  0  0  0  0  0  0  0  0  0
   12.3286  -18.5523   17.4407 C   0  0  0  0  0  0  0  0  0  0  0  0
   11.1552  -18.1467   17.9371 N   0  0  0  0  0  0  0  0  0  0  0  0
   11.6432  -16.4397   21.8477 C   0  0  0  0  0  0  0  0  0  0  0  0
   12.0996  -15.2995   21.6087 O   0  0  0  0  0  0  0  0  0  0  0  0
   11.1008  -14.9725   30.1116 O   0  0  0  0  0  0  0  0  0  0  0  0
   11.1201  -15.4179   28.7804 C   0  0  0  0  0  0  0  0  0  0  0  0
   11.4723  -14.5724   27.7502 C   0  0  0  0  0  0  0  0  0  0  0  0
   11.4916  -15.0124   26.4334 C   0  0  0  0  0  0  0  0  0  0  0  0
   11.1591  -16.3121   26.1046 C   0  0  0  0  0  0  0  0  0  0  0  0
   11.1721  -16.7965   24.7142 C   0  0  0  0  0  0  0  0  0  0  0  0
   12.5416  -16.9997   24.1400 C   0  0  2  0  0  0  0  0  0  0  0  0
   12.3465  -17.2962   22.7144 N   0  0  0  0  0  0  0  0  0  0  0  0
   13.3378  -18.0357   24.8032 C   0  0  0  0  0  0  0  0  0  0  0  0
   14.3198  -17.7396   25.5092 O   0  0  0  0  0  0  0  0  0  0  0  0
   10.8074  -17.1534   27.1410 C   0  0  0  0  0  0  0  0  0  0  0  0
   10.7868  -16.7170   28.4601 C   0  0  0  0  0  0  0  0  0  0  0  0
   13.0159  -19.3776   24.6608 O   0  0  0  0  0  0  0  0  0  0  0  0
  2  1  1  1
  2 13  1  0
  2  3  1  0
  3  4  1  0
  4  5  2  0
  6  5  1  0
  7  6  1  0
  8  7  2  0
  9  8  1  0
 10 11  1  0
 10  9  2  0
 11 12  2  0
 12  7  1  0
 12  4  1  0
 13 14  2  0
 15 16  1  0
 15 13  1  0
 16 17  1  6
 18 17  1  0
 19 18  2  0
 20 21  1  0
 20 19  1  0
 21 22  2  0
 22 18  1  0
 23 32  1  0
 23 16  1  0
 24 23  2  0
 25 26  1  0
 26 36  2  0
 26 27  1  0
 27 28  2  0
 28 29  1  0
 29 30  1  0
 31 30  1  1
 31 32  1  0
 33 31  1  0
 33 37  1  0
 34 33  2  0
 35 29  2  0
 36 35  1  0
M  END
$$$$
