TLV.pdb
     RDKit          3D

 23 22  0  0  1  0  0  0  0  0999 V2000
    6.6146  -17.2749   19.5140 C   0  0  0  0  0  0  0  0  0  0  0  0
    7.2416  -16.9297   20.8264 C   0  0  1  0  0  0  0  0  0  0  0  0
    8.1852  -17.8661   21.2257 O   0  0  0  0  0  0  0  0  0  0  0  0
    7.8258  -15.5361   20.7318 C   0  0  2  0  0  0  0  0  0  0  0  0
    8.8618  -15.4394   19.7472 N   0  0  0  0  0  0  0  0  0  0  0  0
    8.3337  -15.0696   22.0402 C   0  0  0  0  0  0  0  0  0  0  0  0
    9.5659  -15.0643   22.2670 O   0  0  0  0  0  0  0  0  0  0  0  0
    8.3752  -12.0646   26.4122 C   0  0  0  0  0  0  0  0  0  0  0  0
    7.2651  -13.1095   26.4636 C   0  0  1  0  0  0  0  0  0  0  0  0
    6.1550  -12.5297   27.3002 C   0  0  0  0  0  0  0  0  0  0  0  0
    6.8534  -13.3917   25.0527 C   0  0  0  0  0  0  0  0  0  0  0  0
    7.8792  -14.2233   24.3281 C   0  0  2  0  0  0  0  0  0  0  0  0
    7.4281  -14.6341   23.0234 N   0  0  0  0  0  0  0  0  0  0  0  0
    8.3106  -15.4025   25.0808 C   0  0  0  0  0  0  0  0  0  0  0  0
    7.4707  -16.3109   25.3003 O   0  0  0  0  0  0  0  0  0  0  0  0
   11.8740  -18.6027   25.7921 C   0  0  0  0  0  0  0  0  0  0  0  0
   11.3592  -17.2985   25.2711 C   0  0  1  0  0  0  0  0  0  0  0  0
   11.2701  -17.3435   23.7793 C   0  0  0  0  0  0  0  0  0  0  0  0
   10.0806  -16.8633   25.9388 C   0  0  2  0  0  0  0  0  0  0  0  0
    9.6588  -15.5539   25.5747 N   0  0  0  0  0  0  0  0  0  0  0  0
   10.2312  -16.9405   27.4163 C   0  0  0  0  0  0  0  0  0  0  0  0
    9.9758  -18.1273   28.0758 O   0  0  0  0  0  0  0  0  0  0  0  0
   10.5901  -15.9110   28.0232 O   0  0  0  0  0  0  0  0  0  0  0  0
  2  1  1  6
  2  3  1  0
  4  6  1  0
  4  2  1  0
  4  5  1  6
  6  7  2  0
  9  8  1  6
  9 10  1  0
 11  9  1  0
 12 11  1  1
 13 12  1  0
 13  6  1  0
 14 20  1  0
 14 12  1  0
 15 14  2  0
 17 16  1  1
 18 17  1  0
 19 17  1  0
 19 20  1  1
 21 19  1  0
 21 22  1  0
 23 21  2  0
M  END
$$$$
