TLV.pdb
     RDKit          3D

 23 22  0  0  1  0  0  0  0  0999 V2000
    6.2357  -16.8868   21.1124 C   0  0  0  0  0  0  0  0  0  0  0  0
    7.4696  -16.7087   20.2874 C   0  0  1  0  0  0  0  0  0  0  0  0
    7.2627  -17.0188   18.9504 O   0  0  0  0  0  0  0  0  0  0  0  0
    7.9756  -15.2938   20.4730 C   0  0  2  0  0  0  0  0  0  0  0  0
    9.0512  -14.9729   19.5830 N   0  0  0  0  0  0  0  0  0  0  0  0
    8.3908  -15.0440   21.8703 C   0  0  0  0  0  0  0  0  0  0  0  0
    9.5904  -15.1888   22.2019 O   0  0  0  0  0  0  0  0  0  0  0  0
    8.2249  -11.9981   26.2361 C   0  0  0  0  0  0  0  0  0  0  0  0
    7.1349  -13.0651   26.2265 C   0  0  1  0  0  0  0  0  0  0  0  0
    5.9733  -12.5130   27.0104 C   0  0  0  0  0  0  0  0  0  0  0  0
    6.7991  -13.3459   24.7954 C   0  0  0  0  0  0  0  0  0  0  0  0
    7.8192  -14.2466   24.1496 C   0  0  2  0  0  0  0  0  0  0  0  0
    7.4342  -14.6445   22.8200 N   0  0  0  0  0  0  0  0  0  0  0  0
    8.1252  -15.4408   24.9390 C   0  0  0  0  0  0  0  0  0  0  0  0
    7.2027  -16.2660   25.1553 O   0  0  0  0  0  0  0  0  0  0  0  0
   10.3295  -18.0684   23.7955 C   0  0  0  0  0  0  0  0  0  0  0  0
   10.7524  -17.7560   25.1958 C   0  0  1  0  0  0  0  0  0  0  0  0
   12.0872  -17.0823   25.1882 C   0  0  0  0  0  0  0  0  0  0  0  0
    9.7023  -17.0053   25.9725 C   0  0  2  0  0  0  0  0  0  0  0  0
    9.4417  -15.6987   25.4725 N   0  0  0  0  0  0  0  0  0  0  0  0
   10.0999  -16.9164   27.4028 C   0  0  0  0  0  0  0  0  0  0  0  0
   10.1706  -18.0612   28.1728 O   0  0  0  0  0  0  0  0  0  0  0  0
   10.3615  -15.7888   27.8692 O   0  0  0  0  0  0  0  0  0  0  0  0
  2  1  1  1
  2  3  1  0
  4  6  1  0
  4  2  1  0
  4  5  1  6
  6  7  2  0
  9  8  1  6
  9 10  1  0
 11  9  1  0
 12 11  1  1
 13 12  1  0
 13  6  1  0
 14 20  1  0
 14 12  1  0
 15 14  2  0
 17 16  1  6
 18 17  1  0
 19 17  1  0
 19 20  1  6
 21 19  1  0
 21 22  1  0
 23 21  2  0
M  END
$$$$
