TLV.pdb
     RDKit          3D

 23 22  0  0  1  0  0  0  0  0999 V2000
    6.8684  -16.8231   19.2605 C   0  0  0  0  0  0  0  0  0  0  0  0
    7.4523  -16.7089   20.6320 C   0  0  1  0  0  0  0  0  0  0  0  0
    8.2223  -17.8120   20.9738 O   0  0  0  0  0  0  0  0  0  0  0  0
    8.2370  -15.4169   20.7176 C   0  0  2  0  0  0  0  0  0  0  0  0
    9.3953  -15.4198   19.8748 N   0  0  0  0  0  0  0  0  0  0  0  0
    8.6318  -15.1120   22.1099 C   0  0  0  0  0  0  0  0  0  0  0  0
    9.8084  -15.3212   22.4865 O   0  0  0  0  0  0  0  0  0  0  0  0
    8.5515  -12.0399   26.3452 C   0  0  0  0  0  0  0  0  0  0  0  0
    7.3721  -13.0050   26.4112 C   0  0  1  0  0  0  0  0  0  0  0  0
    6.2703  -12.3010   27.1589 C   0  0  0  0  0  0  0  0  0  0  0  0
    7.0005  -13.3510   25.0034 C   0  0  0  0  0  0  0  0  0  0  0  0
    8.0421  -14.2205   24.3493 C   0  0  2  0  0  0  0  0  0  0  0  0
    7.6819  -14.5881   23.0041 N   0  0  0  0  0  0  0  0  0  0  0  0
    8.3530  -15.4311   25.1114 C   0  0  0  0  0  0  0  0  0  0  0  0
    7.4396  -16.2751   25.2901 O   0  0  0  0  0  0  0  0  0  0  0  0
   11.5462  -18.9247   26.0762 C   0  0  0  0  0  0  0  0  0  0  0  0
   11.1134  -17.6516   25.4212 C   0  0  1  0  0  0  0  0  0  0  0  0
   10.8948  -17.8775   23.9595 C   0  0  0  0  0  0  0  0  0  0  0  0
    9.9421  -17.0041   26.1131 C   0  0  2  0  0  0  0  0  0  0  0  0
    9.6644  -15.6841   25.6597 N   0  0  0  0  0  0  0  0  0  0  0  0
   10.1723  -16.9833   27.5822 C   0  0  0  0  0  0  0  0  0  0  0  0
   10.5370  -15.8068   28.2080 O   0  0  0  0  0  0  0  0  0  0  0  0
   10.0257  -18.0498   28.2133 O   0  0  0  0  0  0  0  0  0  0  0  0
  2  1  1  6
  2  3  1  0
  4  6  1  0
  4  2  1  0
  4  5  1  6
  6  7  2  0
  9  8  1  6
  9 10  1  0
 11  9  1  0
 12 11  1  1
 13 12  1  0
 13  6  1  0
 14 20  1  0
 14 12  1  0
 15 14  2  0
 17 16  1  1
 18 17  1  0
 19 17  1  0
 19 20  1  6
 21 19  1  0
 21 22  1  0
 23 21  2  0
M  END
$$$$
