TLV.pdb
     RDKit          3D

 23 22  0  0  1  0  0  0  0  0999 V2000
    7.3720  -17.5199   19.5914 C   0  0  0  0  0  0  0  0  0  0  0  0
    7.9432  -17.0902   20.9044 C   0  0  1  0  0  0  0  0  0  0  0  0
    8.9406  -17.9445   21.3537 O   0  0  0  0  0  0  0  0  0  0  0  0
    8.4305  -15.6624   20.7759 C   0  0  2  0  0  0  0  0  0  0  0  0
    9.5142  -15.5323   19.8481 N   0  0  0  0  0  0  0  0  0  0  0  0
    8.8241  -15.1023   22.0868 C   0  0  0  0  0  0  0  0  0  0  0  0
   10.0360  -15.0246   22.3955 O   0  0  0  0  0  0  0  0  0  0  0  0
    8.5533  -12.1476   26.4495 C   0  0  0  0  0  0  0  0  0  0  0  0
    7.3754  -13.1147   26.3851 C   0  0  1  0  0  0  0  0  0  0  0  0
    6.2231  -12.4505   27.0919 C   0  0  0  0  0  0  0  0  0  0  0  0
    7.1013  -13.3871   24.9394 C   0  0  0  0  0  0  0  0  0  0  0  0
    8.1605  -14.2654   24.3267 C   0  0  2  0  0  0  0  0  0  0  0  0
    7.8333  -14.6596   22.9806 N   0  0  0  0  0  0  0  0  0  0  0  0
    8.4565  -15.4604   25.1188 C   0  0  0  0  0  0  0  0  0  0  0  0
    7.5781  -16.3550   25.2010 O   0  0  0  0  0  0  0  0  0  0  0  0
   11.6299  -18.8382   26.4040 C   0  0  0  0  0  0  0  0  0  0  0  0
   11.2379  -17.5662   25.7216 C   0  0  1  0  0  0  0  0  0  0  0  0
   11.1499  -17.7845   24.2451 C   0  0  0  0  0  0  0  0  0  0  0  0
   10.0022  -16.9394   26.3132 C   0  0  2  0  0  0  0  0  0  0  0  0
    9.7148  -15.6425   25.8029 N   0  0  0  0  0  0  0  0  0  0  0  0
   10.1306  -16.8703   27.7933 C   0  0  0  0  0  0  0  0  0  0  0  0
    9.8479  -17.9815   28.5640 O   0  0  0  0  0  0  0  0  0  0  0  0
   10.4965  -15.7902   28.2998 O   0  0  0  0  0  0  0  0  0  0  0  0
  2  1  1  6
  2  3  1  0
  4  6  1  0
  4  2  1  0
  4  5  1  6
  6  7  2  0
  9  8  1  6
  9 10  1  0
 11  9  1  0
 12 11  1  1
 13 12  1  0
 13  6  1  0
 14 20  1  0
 14 12  1  0
 15 14  2  0
 17 16  1  1
 18 17  1  0
 19 17  1  0
 19 20  1  6
 21 19  1  0
 21 22  1  0
 23 21  2  0
M  END
$$$$
