TLV.pdb
     RDKit          3D

 23 22  0  0  1  0  0  0  0  0999 V2000
    7.5905  -18.3808   20.5323 C   0  0  0  0  0  0  0  0  0  0  0  0
    8.1214  -17.6338   21.7133 C   0  0  1  0  0  0  0  0  0  0  0  0
    9.2833  -18.1995   22.2198 O   0  0  0  0  0  0  0  0  0  0  0  0
    8.3167  -16.1845   21.3211 C   0  0  2  0  0  0  0  0  0  0  0  0
    9.2889  -16.0219   20.2817 N   0  0  0  0  0  0  0  0  0  0  0  0
    8.6853  -15.3511   22.4860 C   0  0  0  0  0  0  0  0  0  0  0  0
    9.8775  -15.0044   22.6549 O   0  0  0  0  0  0  0  0  0  0  0  0
    8.1706  -11.7257   26.2932 C   0  0  0  0  0  0  0  0  0  0  0  0
    7.1994  -12.8824   26.5069 C   0  0  1  0  0  0  0  0  0  0  0  0
    5.9905  -12.3172   27.2051 C   0  0  0  0  0  0  0  0  0  0  0  0
    6.8871  -13.4563   25.1606 C   0  0  0  0  0  0  0  0  0  0  0  0
    8.0310  -14.2771   24.6251 C   0  0  2  0  0  0  0  0  0  0  0  0
    7.6931  -14.9522   23.3986 N   0  0  0  0  0  0  0  0  0  0  0  0
    8.5466  -15.2545   25.5854 C   0  0  0  0  0  0  0  0  0  0  0  0
    7.8308  -16.2473   25.8693 O   0  0  0  0  0  0  0  0  0  0  0  0
   12.2469  -17.7936   27.3497 C   0  0  0  0  0  0  0  0  0  0  0  0
   11.6898  -16.7057   26.4875 C   0  0  1  0  0  0  0  0  0  0  0  0
   11.7224  -17.1238   25.0523 C   0  0  0  0  0  0  0  0  0  0  0  0
   10.3363  -16.2284   26.9459 C   0  0  2  0  0  0  0  0  0  0  0  0
    9.8401  -15.1153   26.2113 N   0  0  0  0  0  0  0  0  0  0  0  0
   10.3860  -15.8833   28.3917 C   0  0  0  0  0  0  0  0  0  0  0  0
   10.3525  -16.8848   29.3427 O   0  0  0  0  0  0  0  0  0  0  0  0
   10.4577  -14.6772   28.7040 O   0  0  0  0  0  0  0  0  0  0  0  0
  2  1  1  6
  2  3  1  0
  4  6  1  0
  4  2  1  0
  4  5  1  6
  6  7  2  0
  9  8  1  6
  9 10  1  0
 11  9  1  0
 12 11  1  1
 13 12  1  0
 13  6  1  0
 14 20  1  0
 14 12  1  0
 15 14  2  0
 17 16  1  1
 18 17  1  0
 19 17  1  0
 19 20  1  6
 21 19  1  0
 21 22  1  0
 23 21  2  0
M  END
$$$$
