TLV.pdb
     RDKit          3D

 23 22  0  0  1  0  0  0  0  0999 V2000
    6.4385  -17.0356   19.8735 C   0  0  0  0  0  0  0  0  0  0  0  0
    7.2067  -16.9006   21.1488 C   0  0  1  0  0  0  0  0  0  0  0  0
    8.2129  -17.8497   21.2646 O   0  0  0  0  0  0  0  0  0  0  0  0
    7.7420  -15.4875   21.2438 C   0  0  2  0  0  0  0  0  0  0  0  0
    8.6696  -15.1789   20.1968 N   0  0  0  0  0  0  0  0  0  0  0  0
    8.3680  -15.2307   22.5589 C   0  0  0  0  0  0  0  0  0  0  0  0
    9.6158  -15.1741   22.6573 O   0  0  0  0  0  0  0  0  0  0  0  0
    5.9992  -12.0604   26.5333 C   0  0  0  0  0  0  0  0  0  0  0  0
    7.0908  -12.6379   25.6379 C   0  0  1  0  0  0  0  0  0  0  0  0
    8.3644  -11.9062   25.9711 C   0  0  0  0  0  0  0  0  0  0  0  0
    7.1651  -14.1063   25.9170 C   0  0  0  0  0  0  0  0  0  0  0  0
    8.1285  -14.8019   24.9913 C   0  0  2  0  0  0  0  0  0  0  0  0
    7.5568  -15.0512   23.6931 N   0  0  0  0  0  0  0  0  0  0  0  0
    8.6552  -16.0557   25.5332 C   0  0  0  0  0  0  0  0  0  0  0  0
    7.8914  -17.0522   25.5829 O   0  0  0  0  0  0  0  0  0  0  0  0
   12.2803  -19.1753   26.4277 C   0  0  0  0  0  0  0  0  0  0  0  0
   11.8188  -17.8436   25.9267 C   0  0  1  0  0  0  0  0  0  0  0  0
   11.9561  -17.7816   24.4391 C   0  0  0  0  0  0  0  0  0  0  0  0
   10.4444  -17.4744   26.4214 C   0  0  2  0  0  0  0  0  0  0  0  0
   10.0125  -16.1829   26.0085 N   0  0  0  0  0  0  0  0  0  0  0  0
   10.4032  -17.5577   27.9057 C   0  0  0  0  0  0  0  0  0  0  0  0
   10.4150  -18.7905   28.5292 O   0  0  0  0  0  0  0  0  0  0  0  0
   10.3584  -16.4907   28.5513 O   0  0  0  0  0  0  0  0  0  0  0  0
  2  1  1  6
  2  3  1  0
  4  6  1  0
  4  2  1  0
  4  5  1  6
  6  7  2  0
  9  8  1  1
  9 10  1  0
 11  9  1  0
 12 11  1  1
 13 12  1  0
 13  6  1  0
 14 20  1  0
 14 12  1  0
 15 14  2  0
 17 16  1  6
 18 17  1  0
 19 17  1  0
 19 20  1  1
 21 19  1  0
 21 22  1  0
 23 21  2  0
M  END
$$$$
