TLV.pdb
     RDKit          3D

 23 22  0  0  1  0  0  0  0  0999 V2000
    8.7481  -19.7870   19.3284 C   0  0  0  0  0  0  0  0  0  0  0  0
    9.6950  -19.5205   18.2027 C   0  0  1  0  0  0  0  0  0  0  0  0
    9.4740  -20.3545   17.1154 O   0  0  0  0  0  0  0  0  0  0  0  0
    9.6003  -18.0568   17.8273 C   0  0  2  0  0  0  0  0  0  0  0  0
   10.3951  -17.7302   16.6811 N   0  0  0  0  0  0  0  0  0  0  0  0
    9.9707  -17.1802   18.9594 C   0  0  0  0  0  0  0  0  0  0  0  0
   11.1707  -17.0790   19.3056 O   0  0  0  0  0  0  0  0  0  0  0  0
    6.6273  -12.9131   20.1954 C   0  0  0  0  0  0  0  0  0  0  0  0
    7.8935  -13.6952   19.8610 C   0  0  1  0  0  0  0  0  0  0  0  0
    8.9839  -12.6839   19.6228 C   0  0  0  0  0  0  0  0  0  0  0  0
    8.1747  -14.6028   21.0172 C   0  0  0  0  0  0  0  0  0  0  0  0
    9.2974  -15.5603   20.7144 C   0  0  2  0  0  0  0  0  0  0  0  0
    8.9715  -16.4643   19.6416 N   0  0  0  0  0  0  0  0  0  0  0  0
    9.7338  -16.3335   21.8784 C   0  0  0  0  0  0  0  0  0  0  0  0
    9.0015  -17.2721   22.2804 O   0  0  0  0  0  0  0  0  0  0  0  0
   13.2247  -18.2338   24.6786 C   0  0  0  0  0  0  0  0  0  0  0  0
   12.8190  -17.3356   23.5534 C   0  0  1  0  0  0  0  0  0  0  0  0
   13.2419  -17.9291   22.2479 C   0  0  0  0  0  0  0  0  0  0  0  0
   11.3612  -16.9579   23.6002 C   0  0  2  0  0  0  0  0  0  0  0  0
   10.9682  -16.0545   22.5734 N   0  0  0  0  0  0  0  0  0  0  0  0
   11.0346  -16.3700   24.9267 C   0  0  0  0  0  0  0  0  0  0  0  0
   10.8392  -17.1938   26.0184 O   0  0  0  0  0  0  0  0  0  0  0  0
   10.9460  -15.1282   25.0113 O   0  0  0  0  0  0  0  0  0  0  0  0
  2  1  1  1
  2  3  1  0
  4  6  1  0
  4  2  1  0
  4  5  1  6
  6  7  2  0
  9  8  1  1
  9 10  1  0
 11  9  1  0
 12 11  1  1
 13 12  1  0
 13  6  1  0
 14 20  1  0
 14 12  1  0
 15 14  2  0
 17 16  1  1
 18 17  1  0
 19 17  1  0
 19 20  1  6
 21 19  1  0
 21 22  1  0
 23 21  2  0
M  END
$$$$
