TLV.pdb
     RDKit          3D

 23 22  0  0  1  0  0  0  0  0999 V2000
    6.9364  -17.2484   21.7704 C   0  0  0  0  0  0  0  0  0  0  0  0
    8.1335  -16.7042   21.0594 C   0  0  1  0  0  0  0  0  0  0  0  0
    8.0900  -16.9388   19.6921 O   0  0  0  0  0  0  0  0  0  0  0  0
    8.2587  -15.2301   21.3814 C   0  0  2  0  0  0  0  0  0  0  0  0
    9.1109  -14.5365   20.4623 N   0  0  0  0  0  0  0  0  0  0  0  0
    8.7344  -15.0145   22.7651 C   0  0  0  0  0  0  0  0  0  0  0  0
    9.9549  -14.8379   22.9867 O   0  0  0  0  0  0  0  0  0  0  0  0
    5.7936  -12.2064   26.6636 C   0  0  0  0  0  0  0  0  0  0  0  0
    6.9537  -12.6757   25.7914 C   0  0  1  0  0  0  0  0  0  0  0  0
    8.1664  -11.8884   26.2132 C   0  0  0  0  0  0  0  0  0  0  0  0
    7.1044  -14.1491   26.0057 C   0  0  0  0  0  0  0  0  0  0  0  0
    8.2232  -14.7220   25.1757 C   0  0  2  0  0  0  0  0  0  0  0  0
    7.8115  -15.0091   23.8257 N   0  0  0  0  0  0  0  0  0  0  0  0
    8.8268  -15.9212   25.7593 C   0  0  0  0  0  0  0  0  0  0  0  0
    8.8273  -16.0410   27.0101 O   0  0  0  0  0  0  0  0  0  0  0  0
   10.8076  -20.4424   25.4206 C   0  0  0  0  0  0  0  0  0  0  0  0
   10.2186  -19.2689   24.7041 C   0  0  1  0  0  0  0  0  0  0  0  0
    9.0532  -19.7078   23.8765 C   0  0  0  0  0  0  0  0  0  0  0  0
    9.9059  -18.1166   25.6229 C   0  0  2  0  0  0  0  0  0  0  0  0
    9.4165  -16.9618   24.9507 N   0  0  0  0  0  0  0  0  0  0  0  0
   11.1156  -17.7551   26.4087 C   0  0  0  0  0  0  0  0  0  0  0  0
   11.9600  -16.7588   25.9580 O   0  0  0  0  0  0  0  0  0  0  0  0
   11.3322  -18.3755   27.4695 O   0  0  0  0  0  0  0  0  0  0  0  0
  2  1  1  1
  2  3  1  0
  4  6  1  0
  4  2  1  0
  4  5  1  6
  6  7  2  0
  9  8  1  1
  9 10  1  0
 11  9  1  0
 12 11  1  1
 13 12  1  0
 13  6  1  0
 14 20  1  0
 14 12  1  0
 15 14  2  0
 17 16  1  1
 18 17  1  0
 19 17  1  0
 19 20  1  6
 21 19  1  0
 21 22  1  0
 23 21  2  0
M  END
$$$$
