TLV.pdb
     RDKit          3D

 23 22  0  0  1  0  0  0  0  0999 V2000
    5.8358  -15.7320   19.6804 C   0  0  0  0  0  0  0  0  0  0  0  0
    6.6208  -15.8193   20.9497 C   0  0  1  0  0  0  0  0  0  0  0  0
    7.4940  -16.8982   20.9597 O   0  0  0  0  0  0  0  0  0  0  0  0
    7.3376  -14.5035   21.1666 C   0  0  2  0  0  0  0  0  0  0  0  0
    8.2611  -14.2000   20.1143 N   0  0  0  0  0  0  0  0  0  0  0  0
    8.0363  -14.4735   22.4697 C   0  0  0  0  0  0  0  0  0  0  0  0
    9.2871  -14.5350   22.5105 O   0  0  0  0  0  0  0  0  0  0  0  0
    5.7611  -11.9343   26.9157 C   0  0  0  0  0  0  0  0  0  0  0  0
    6.8369  -12.3328   25.9103 C   0  0  1  0  0  0  0  0  0  0  0  0
    8.0743  -11.5474   26.2571 C   0  0  0  0  0  0  0  0  0  0  0  0
    7.0274  -13.8128   26.0251 C   0  0  0  0  0  0  0  0  0  0  0  0
    7.9339  -14.3438   24.9457 C   0  0  2  0  0  0  0  0  0  0  0  0
    7.2905  -14.3759   23.6575 N   0  0  0  0  0  0  0  0  0  0  0  0
    8.4801  -15.6691   25.2431 C   0  0  0  0  0  0  0  0  0  0  0  0
    7.7006  -16.6543   25.2233 O   0  0  0  0  0  0  0  0  0  0  0  0
   12.0773  -18.9473   25.5645 C   0  0  0  0  0  0  0  0  0  0  0  0
   11.6247  -17.5653   25.2145 C   0  0  1  0  0  0  0  0  0  0  0  0
   11.6759  -17.3707   23.7329 C   0  0  0  0  0  0  0  0  0  0  0  0
   10.2928  -17.2119   25.8235 C   0  0  2  0  0  0  0  0  0  0  0  0
    9.8739  -15.8785   25.5559 N   0  0  0  0  0  0  0  0  0  0  0  0
   10.3365  -17.4300   27.2940 C   0  0  0  0  0  0  0  0  0  0  0  0
   10.3654  -18.7146   27.8014 O   0  0  0  0  0  0  0  0  0  0  0  0
   10.3457  -16.4261   28.0351 O   0  0  0  0  0  0  0  0  0  0  0  0
  2  1  1  6
  2  3  1  0
  4  6  1  0
  4  2  1  0
  4  5  1  6
  6  7  2  0
  9  8  1  1
  9 10  1  0
 11  9  1  0
 12 11  1  1
 13 12  1  0
 13  6  1  0
 14 20  1  0
 14 12  1  0
 15 14  2  0
 17 16  1  6
 18 17  1  0
 19 17  1  0
 19 20  1  1
 21 19  1  0
 21 22  1  0
 23 21  2  0
M  END
$$$$
