IGG.pdb
     RDKit          3D

 17 16  0  0  1  0  0  0  0  0999 V2000
   16.6158  -13.4126  -17.7724 C   0  0  0  0  0  0  0  0  0  0  0  0
   17.9997  -13.2347  -18.3401 C   0  0  0  0  0  0  0  0  0  0  0  0
   18.7446  -12.0564  -17.8444 C   0  0  2  0  0  0  0  0  0  0  0  0
   18.0706  -10.7491  -18.3005 C   0  0  0  0  0  0  0  0  0  0  0  0
   20.1738  -11.9361  -18.2341 C   0  0  2  0  0  0  0  0  0  0  0  0
   20.9025  -13.1923  -18.0125 N   0  0  0  0  0  0  0  0  0  0  0  0
   20.9130  -10.7997  -17.6582 C   0  0  0  0  0  0  0  0  0  0  0  0
   21.4708  -10.9388  -16.5447 O   0  0  0  0  0  0  0  0  0  0  0  0
   21.0283   -9.5460  -18.3035 N   0  0  0  0  0  0  0  0  0  0  0  0
   21.8846   -8.4881  -17.8051 C   0  0  0  0  0  0  0  0  0  0  0  0
   21.2494   -7.7818  -16.6820 C   0  0  0  0  0  0  0  0  0  0  0  0
   20.0267   -7.9603  -16.4706 O   0  0  0  0  0  0  0  0  0  0  0  0
   21.9710   -6.9084  -15.8326 N   0  0  0  0  0  0  0  0  0  0  0  0
   21.3456   -6.2827  -14.6782 C   0  0  0  0  0  0  0  0  0  0  0  0
   22.2544   -5.3225  -14.0543 C   0  0  0  0  0  0  0  0  0  0  0  0
   21.7724   -4.5053  -13.0427 O   0  0  0  0  0  0  0  0  0  0  0  0
   23.4601   -5.1879  -14.3796 O   0  0  0  0  0  0  0  0  0  0  0  0
  2  1  1  0
  3  4  1  6
  3  2  1  0
  5  3  1  0
  5  6  1  1
  7  8  2  0
  7  5  1  0
  9  7  1  0
 10  9  1  0
 10 11  1  0
 11 12  2  0
 13 11  1  0
 13 14  1  0
 14 15  1  0
 15 17  2  0
 15 16  1  0
M  END
$$$$
