IGG.pdb
     RDKit          3D

 17 16  0  0  1  0  0  0  0  0999 V2000
   27.0051  -18.4957   -7.1765 C   0  0  0  0  0  0  0  0  0  0  0  0
   27.3646  -19.1454   -8.4871 C   0  0  0  0  0  0  0  0  0  0  0  0
   27.6648  -20.5926   -8.4192 C   0  0  2  0  0  0  0  0  0  0  0  0
   28.9164  -20.8539   -7.5610 C   0  0  0  0  0  0  0  0  0  0  0  0
   27.8943  -21.3054   -9.7030 C   0  0  2  0  0  0  0  0  0  0  0  0
   29.0556  -20.7644  -10.4220 N   0  0  0  0  0  0  0  0  0  0  0  0
   26.7336  -21.4172  -10.6029 C   0  0  0  0  0  0  0  0  0  0  0  0
   26.7911  -20.8887  -11.7377 O   0  0  0  0  0  0  0  0  0  0  0  0
   25.5448  -22.0981  -10.2500 N   0  0  0  0  0  0  0  0  0  0  0  0
   24.4430  -22.2742  -11.1749 C   0  0  0  0  0  0  0  0  0  0  0  0
   23.8253  -20.9820  -11.5102 C   0  0  0  0  0  0  0  0  0  0  0  0
   23.4887  -20.2139  -10.5783 O   0  0  0  0  0  0  0  0  0  0  0  0
   23.5983  -20.5767  -12.8478 N   0  0  0  0  0  0  0  0  0  0  0  0
   22.8504  -19.3687  -13.1590 C   0  0  0  0  0  0  0  0  0  0  0  0
   21.4156  -19.5895  -12.9868 C   0  0  0  0  0  0  0  0  0  0  0  0
   20.5628  -18.4962  -13.0127 O   0  0  0  0  0  0  0  0  0  0  0  0
   20.8981  -20.7211  -12.8147 O   0  0  0  0  0  0  0  0  0  0  0  0
  2  1  1  0
  3  4  1  1
  3  2  1  0
  5  3  1  0
  5  6  1  6
  7  8  2  0
  7  5  1  0
  9  7  1  0
 10  9  1  0
 10 11  1  0
 11 12  2  0
 13 11  1  0
 13 14  1  0
 14 15  1  0
 15 17  2  0
 15 16  1  0
M  END
$$$$
