IGG.pdb
     RDKit          3D

 17 16  0  0  1  0  0  0  0  0999 V2000
   20.3330  -12.5269  -21.5576 C   0  0  0  0  0  0  0  0  0  0  0  0
   21.0439  -12.0378  -20.3229 C   0  0  0  0  0  0  0  0  0  0  0  0
   20.2525  -11.1509  -19.4418 C   0  0  2  0  0  0  0  0  0  0  0  0
   19.7781   -9.9004  -20.2049 C   0  0  0  0  0  0  0  0  0  0  0  0
   20.9091  -10.6502  -18.2061 C   0  0  2  0  0  0  0  0  0  0  0  0
   21.3427  -11.7539  -17.3388 N   0  0  0  0  0  0  0  0  0  0  0  0
   20.1605   -9.6458  -17.4314 C   0  0  0  0  0  0  0  0  0  0  0  0
   19.8840   -8.5471  -17.9671 O   0  0  0  0  0  0  0  0  0  0  0  0
   19.7319   -9.8587  -16.1001 N   0  0  0  0  0  0  0  0  0  0  0  0
   18.9414   -8.8875  -15.3704 C   0  0  0  0  0  0  0  0  0  0  0  0
   19.7807   -8.1190  -14.4383 C   0  0  0  0  0  0  0  0  0  0  0  0
   19.2312   -7.5236  -13.4817 O   0  0  0  0  0  0  0  0  0  0  0  0
   21.1863   -8.0291  -14.5844 N   0  0  0  0  0  0  0  0  0  0  0  0
   22.0002   -7.2691  -13.6490 C   0  0  0  0  0  0  0  0  0  0  0  0
   21.9432   -5.8408  -13.9552 C   0  0  0  0  0  0  0  0  0  0  0  0
   22.6744   -4.9593  -13.1732 O   0  0  0  0  0  0  0  0  0  0  0  0
   21.2654   -5.3535  -14.8939 O   0  0  0  0  0  0  0  0  0  0  0  0
  2  1  1  0
  3  4  1  6
  3  2  1  0
  5  3  1  0
  5  6  1  1
  7  8  2  0
  7  5  1  0
  9  7  1  0
 10  9  1  0
 10 11  1  0
 11 12  2  0
 13 11  1  0
 13 14  1  0
 14 15  1  0
 15 17  2  0
 15 16  1  0
M  END
$$$$
