IGG.pdb
     RDKit          3D

 17 16  0  0  1  0  0  0  0  0999 V2000
   28.6740  -19.9257   -3.9105 C   0  0  0  0  0  0  0  0  0  0  0  0
   27.4505  -20.1481   -4.7605 C   0  0  0  0  0  0  0  0  0  0  0  0
   27.6740  -20.1033   -6.2224 C   0  0  2  0  0  0  0  0  0  0  0  0
   28.2702  -18.7480   -6.6453 C   0  0  0  0  0  0  0  0  0  0  0  0
   26.4967  -20.3235   -7.1023 C   0  0  2  0  0  0  0  0  0  0  0  0
   25.8632  -21.6234   -6.8430 N   0  0  0  0  0  0  0  0  0  0  0  0
   26.7174  -20.1333   -8.5461 C   0  0  0  0  0  0  0  0  0  0  0  0
   26.5741  -18.9895   -9.0376 O   0  0  0  0  0  0  0  0  0  0  0  0
   27.0874  -21.1854   -9.4166 N   0  0  0  0  0  0  0  0  0  0  0  0
   27.4617  -20.9594  -10.7983 C   0  0  0  0  0  0  0  0  0  0  0  0
   26.3554  -21.3004  -11.7059 C   0  0  0  0  0  0  0  0  0  0  0  0
   26.5758  -21.3359  -12.9396 O   0  0  0  0  0  0  0  0  0  0  0  0
   25.0520  -21.5897  -11.2344 N   0  0  0  0  0  0  0  0  0  0  0  0
   23.9626  -21.8915  -12.1495 C   0  0  0  0  0  0  0  0  0  0  0  0
   22.9159  -20.8748  -12.0612 C   0  0  0  0  0  0  0  0  0  0  0  0
   22.7569  -19.9854  -13.1134 O   0  0  0  0  0  0  0  0  0  0  0  0
   22.1404  -20.7531  -11.0806 O   0  0  0  0  0  0  0  0  0  0  0  0
  2  1  1  0
  3  4  1  1
  3  2  1  0
  5  3  1  0
  5  6  1  6
  7  8  2  0
  7  5  1  0
  9  7  1  0
 10  9  1  0
 10 11  1  0
 11 12  2  0
 13 11  1  0
 13 14  1  0
 14 15  1  0
 15 17  2  0
 15 16  1  0
M  END
$$$$
