HVW.pdb
     RDKit          3D

 32 34  0  0  1  0  0  0  0  0999 V2000
   10.8597  -19.1146   17.4612 N   0  0  0  0  0  0  0  0  0  0  0  0
   11.5016  -18.5596   18.6198 C   0  0  1  0  0  0  0  0  0  0  0  0
   12.1205  -17.2169   18.2841 C   0  0  0  0  0  0  0  0  0  0  0  0
   13.3034  -17.4004   17.3776 C   0  0  0  0  0  0  0  0  0  0  0  0
   14.6274  -17.3940   17.7545 C   0  0  0  0  0  0  0  0  0  0  0  0
   15.3768  -17.5853   16.6562 N   0  0  0  0  0  0  0  0  0  0  0  0
   14.5437  -17.7079   15.6232 C   0  0  0  0  0  0  0  0  0  0  0  0
   13.2800  -17.5966   16.0532 N   0  0  0  0  0  0  0  0  0  0  0  0
   10.4919  -18.3680   19.7401 C   0  0  0  0  0  0  0  0  0  0  0  0
    9.3721  -17.8906   19.4855 O   0  0  0  0  0  0  0  0  0  0  0  0
   11.2673  -20.7529   23.2020 C   0  0  0  0  0  0  0  0  0  0  0  0
    9.9235  -20.1514   22.8734 C   0  0  2  0  0  0  0  0  0  0  0  0
    9.2592  -21.0319   21.8359 C   0  0  0  0  0  0  0  0  0  0  0  0
   10.1522  -18.7927   22.2492 C   0  0  2  0  0  0  0  0  0  0  0  0
   10.8732  -18.7444   21.0333 N   0  0  0  0  0  0  0  0  0  0  0  0
   10.6159  -17.8282   23.2634 C   0  0  0  0  0  0  0  0  0  0  0  0
   11.7714  -17.3359   23.3222 O   0  0  0  0  0  0  0  0  0  0  0  0
    9.7320  -17.3578   24.3076 N   0  0  0  0  0  0  0  0  0  0  0  0
   10.1818  -16.3897   25.3089 C   0  0  1  0  0  0  0  0  0  0  0  0
    9.6387  -15.0424   25.0214 C   0  0  0  0  0  0  0  0  0  0  0  0
    8.2586  -14.8474   25.4517 C   0  0  0  0  0  0  0  0  0  0  0  0
    7.2657  -15.8311   25.5355 C   0  0  0  0  0  0  0  0  0  0  0  0
    6.1201  -15.2696   25.9331 N   0  0  0  0  0  0  0  0  0  0  0  0
    6.2825  -13.9503   26.1256 C   0  0  0  0  0  0  0  0  0  0  0  0
    5.4313  -12.9467   26.5450 C   0  0  0  0  0  0  0  0  0  0  0  0
    5.8761  -11.6548   26.6810 C   0  0  0  0  0  0  0  0  0  0  0  0
    7.2028  -11.3433   26.3938 C   0  0  0  0  0  0  0  0  0  0  0  0
    8.0202  -12.3646   25.9788 C   0  0  0  0  0  0  0  0  0  0  0  0
    7.6279  -13.6807   25.8235 C   0  0  0  0  0  0  0  0  0  0  0  0
    9.8497  -16.8885   26.6332 C   0  0  0  0  0  0  0  0  0  0  0  0
   10.3488  -16.4301   27.8441 O   0  0  0  0  0  0  0  0  0  0  0  0
    9.0150  -17.8587   26.7239 O   0  0  0  0  0  0  0  0  0  0  0  0
  2  1  1  6
  2  3  1  0
  3  4  1  0
  4  5  2  0
  6  5  1  0
  7  6  1  0
  8  7  2  0
  8  4  1  0
  9  2  1  0
 10  9  2  0
 12 14  1  0
 12 11  1  6
 13 12  1  0
 14 15  1  6
 15  9  1  0
 16 18  1  0
 16 14  1  0
 17 16  2  0
 19 30  1  0
 19 18  1  0
 19 20  1  6
 21 22  2  0
 21 20  1  0
 23 22  1  0
 24 29  2  0
 24 23  1  0
 25 24  1  0
 26 27  1  0
 26 25  2  0
 27 28  2  0
 28 29  1  0
 29 21  1  0
 30 31  1  0
 32 30  2  0
M  END
$$$$
