HVW.pdb
     RDKit          3D

 32 34  0  0  1  0  0  0  0  0999 V2000
   10.3634  -17.9882   18.1956 N   0  0  0  0  0  0  0  0  0  0  0  0
   11.4975  -17.6037   18.9882 C   0  0  1  0  0  0  0  0  0  0  0  0
   12.5425  -16.9332   18.1183 C   0  0  0  0  0  0  0  0  0  0  0  0
   12.8633  -17.7949   16.9312 C   0  0  0  0  0  0  0  0  0  0  0  0
   12.4634  -17.5744   15.6325 C   0  0  0  0  0  0  0  0  0  0  0  0
   12.9482  -18.5684   14.8701 N   0  0  0  0  0  0  0  0  0  0  0  0
   13.6315  -19.3860   15.6706 C   0  0  0  0  0  0  0  0  0  0  0  0
   13.5850  -18.9228   16.9266 N   0  0  0  0  0  0  0  0  0  0  0  0
   11.0728  -16.6347   20.0799 C   0  0  0  0  0  0  0  0  0  0  0  0
   11.9379  -16.0362   20.7434 O   0  0  0  0  0  0  0  0  0  0  0  0
    6.7705  -16.7577   20.8974 C   0  0  0  0  0  0  0  0  0  0  0  0
    7.5390  -15.4736   21.0878 C   0  0  2  0  0  0  0  0  0  0  0  0
    7.4691  -14.6915   19.7930 C   0  0  0  0  0  0  0  0  0  0  0  0
    8.9891  -15.8220   21.3403 C   0  0  2  0  0  0  0  0  0  0  0  0
    9.7015  -16.4546   20.2949 N   0  0  0  0  0  0  0  0  0  0  0  0
    9.1444  -16.4719   22.6546 C   0  0  0  0  0  0  0  0  0  0  0  0
    9.6017  -17.6278   22.8434 O   0  0  0  0  0  0  0  0  0  0  0  0
    8.7662  -15.7922   23.8745 N   0  0  0  0  0  0  0  0  0  0  0  0
    9.1427  -16.3168   25.1880 C   0  0  1  0  0  0  0  0  0  0  0  0
    9.0362  -15.2661   26.2260 C   0  0  0  0  0  0  0  0  0  0  0  0
    7.7295  -14.6214   26.2955 C   0  0  0  0  0  0  0  0  0  0  0  0
    6.4976  -15.1988   25.9645 C   0  0  0  0  0  0  0  0  0  0  0  0
    5.5287  -14.2917   26.1197 N   0  0  0  0  0  0  0  0  0  0  0  0
    6.0389  -13.1230   26.5414 C   0  0  0  0  0  0  0  0  0  0  0  0
    5.4693  -11.9061   26.8614 C   0  0  0  0  0  0  0  0  0  0  0  0
    6.2414  -10.8590   27.3007 C   0  0  0  0  0  0  0  0  0  0  0  0
    7.6192  -11.0178   27.4280 C   0  0  0  0  0  0  0  0  0  0  0  0
    8.1513  -12.2396   27.1004 C   0  0  0  0  0  0  0  0  0  0  0  0
    7.4245  -13.3268   26.6533 C   0  0  0  0  0  0  0  0  0  0  0  0
    8.3525  -17.5041   25.4684 C   0  0  0  0  0  0  0  0  0  0  0  0
    8.6105  -18.4661   26.4347 O   0  0  0  0  0  0  0  0  0  0  0  0
    7.3037  -17.7156   24.7602 O   0  0  0  0  0  0  0  0  0  0  0  0
  2  1  1  6
  2  3  1  0
  3  4  1  0
  4  5  2  0
  6  5  1  0
  7  6  1  0
  8  7  2  0
  8  4  1  0
  9  2  1  0
 10  9  2  0
 12 14  1  0
 12 11  1  6
 13 12  1  0
 14 15  1  6
 15  9  1  0
 16 18  1  0
 16 14  1  0
 17 16  2  0
 19 30  1  0
 19 18  1  0
 19 20  1  1
 21 22  2  0
 21 20  1  0
 23 22  1  0
 24 29  2  0
 24 23  1  0
 25 24  1  0
 26 27  1  0
 26 25  2  0
 27 28  2  0
 28 29  1  0
 29 21  1  0
 30 31  1  0
 32 30  2  0
M  END
$$$$
