HVW.pdb
     RDKit          3D

 32 34  0  0  1  0  0  0  0  0999 V2000
    8.8777  -19.2201   18.5064 N   0  0  0  0  0  0  0  0  0  0  0  0
    8.4816  -18.7545   19.8059 C   0  0  1  0  0  0  0  0  0  0  0  0
    8.8173  -19.7915   20.8596 C   0  0  0  0  0  0  0  0  0  0  0  0
    7.9806  -21.0229   20.6640 C   0  0  0  0  0  0  0  0  0  0  0  0
    6.6626  -21.1788   21.0296 C   0  0  0  0  0  0  0  0  0  0  0  0
    6.2774  -22.4201   20.6901 N   0  0  0  0  0  0  0  0  0  0  0  0
    7.3255  -23.0216   20.1283 C   0  0  0  0  0  0  0  0  0  0  0  0
    8.3663  -22.1786   20.1084 N   0  0  0  0  0  0  0  0  0  0  0  0
    9.2035  -17.4600   20.1440 C   0  0  0  0  0  0  0  0  0  0  0  0
   10.4341  -17.3805   19.9831 O   0  0  0  0  0  0  0  0  0  0  0  0
    8.3044  -12.6998   21.3442 C   0  0  0  0  0  0  0  0  0  0  0  0
    7.7551  -13.9907   20.7897 C   0  0  2  0  0  0  0  0  0  0  0  0
    6.5286  -14.3609   21.5970 C   0  0  0  0  0  0  0  0  0  0  0  0
    8.7900  -15.0741   20.9971 C   0  0  2  0  0  0  0  0  0  0  0  0
    8.4378  -16.3940   20.6305 N   0  0  0  0  0  0  0  0  0  0  0  0
    9.3959  -14.9621   22.3366 C   0  0  0  0  0  0  0  0  0  0  0  0
    9.9447  -13.9307   22.8012 O   0  0  0  0  0  0  0  0  0  0  0  0
    9.3986  -16.0822   23.2523 N   0  0  0  0  0  0  0  0  0  0  0  0
    9.9847  -15.9730   24.5890 C   0  0  1  0  0  0  0  0  0  0  0  0
    8.9848  -16.2989   25.6316 C   0  0  0  0  0  0  0  0  0  0  0  0
    7.8095  -15.4349   25.6269 C   0  0  0  0  0  0  0  0  0  0  0  0
    6.5294  -15.7730   25.1711 C   0  0  0  0  0  0  0  0  0  0  0  0
    5.7237  -14.7136   25.2913 N   0  0  0  0  0  0  0  0  0  0  0  0
    6.3911  -13.6687   25.8077 C   0  0  0  0  0  0  0  0  0  0  0  0
    6.0167  -12.3811   26.1387 C   0  0  0  0  0  0  0  0  0  0  0  0
    6.9183  -11.5029   26.6878 C   0  0  0  0  0  0  0  0  0  0  0  0
    8.2309  -11.9081   26.9174 C   0  0  0  0  0  0  0  0  0  0  0  0
    8.5683  -13.1937   26.5756 C   0  0  0  0  0  0  0  0  0  0  0  0
    7.7049  -14.1191   26.0204 C   0  0  0  0  0  0  0  0  0  0  0  0
   11.1854  -16.7900   24.6484 C   0  0  0  0  0  0  0  0  0  0  0  0
   12.0991  -16.8514   25.6910 O   0  0  0  0  0  0  0  0  0  0  0  0
   11.4595  -17.5389   23.6433 O   0  0  0  0  0  0  0  0  0  0  0  0
  2  1  1  6
  2  3  1  0
  3  4  1  0
  4  5  2  0
  6  5  1  0
  7  6  1  0
  8  7  2  0
  8  4  1  0
  9  2  1  0
 10  9  2  0
 12 14  1  0
 12 11  1  1
 13 12  1  0
 14 15  1  1
 15  9  1  0
 16 18  1  0
 16 14  1  0
 17 16  2  0
 19 30  1  0
 19 18  1  0
 19 20  1  1
 21 22  2  0
 21 20  1  0
 23 22  1  0
 24 29  2  0
 24 23  1  0
 25 24  1  0
 26 27  1  0
 26 25  2  0
 27 28  2  0
 28 29  1  0
 29 21  1  0
 30 31  1  0
 32 30  2  0
M  END
$$$$
