HVW.pdb
     RDKit          3D

 32 34  0  0  1  0  0  0  0  0999 V2000
    9.5909  -18.8300   18.1394 N   0  0  0  0  0  0  0  0  0  0  0  0
    8.8117  -18.2889   19.2175 C   0  0  1  0  0  0  0  0  0  0  0  0
    8.7992  -19.2501   20.3898 C   0  0  0  0  0  0  0  0  0  0  0  0
    7.9883  -20.4689   20.0558 C   0  0  0  0  0  0  0  0  0  0  0  0
    7.2953  -20.6913   18.8873 C   0  0  0  0  0  0  0  0  0  0  0  0
    6.6973  -21.8908   18.9765 N   0  0  0  0  0  0  0  0  0  0  0  0
    7.0085  -22.4025   20.1671 C   0  0  0  0  0  0  0  0  0  0  0  0
    7.7939  -21.5438   20.8304 N   0  0  0  0  0  0  0  0  0  0  0  0
    9.3968  -16.9630   19.6763 C   0  0  0  0  0  0  0  0  0  0  0  0
   10.6265  -16.7831   19.6302 O   0  0  0  0  0  0  0  0  0  0  0  0
    8.2840  -12.2849   20.8100 C   0  0  0  0  0  0  0  0  0  0  0  0
    7.9073  -13.5546   20.0877 C   0  0  2  0  0  0  0  0  0  0  0  0
    6.4506  -13.8444   20.3821 C   0  0  0  0  0  0  0  0  0  0  0  0
    8.7296  -14.6875   20.6605 C   0  0  2  0  0  0  0  0  0  0  0  0
    8.5099  -15.9839   20.1392 N   0  0  0  0  0  0  0  0  0  0  0  0
    8.7428  -14.6247   22.1336 C   0  0  0  0  0  0  0  0  0  0  0  0
    7.8034  -14.1946   22.8502 O   0  0  0  0  0  0  0  0  0  0  0  0
    9.8893  -15.0768   22.8913 N   0  0  0  0  0  0  0  0  0  0  0  0
    9.7628  -15.4990   24.2870 C   0  0  1  0  0  0  0  0  0  0  0  0
    8.5258  -16.2875   24.4895 C   0  0  0  0  0  0  0  0  0  0  0  0
    7.4263  -15.5364   25.0853 C   0  0  0  0  0  0  0  0  0  0  0  0
    6.1053  -15.9747   25.2385 C   0  0  0  0  0  0  0  0  0  0  0  0
    5.3777  -14.9997   25.7914 N   0  0  0  0  0  0  0  0  0  0  0  0
    6.1377  -13.9170   26.0239 C   0  0  0  0  0  0  0  0  0  0  0  0
    5.8740  -12.6826   26.5845 C   0  0  0  0  0  0  0  0  0  0  0  0
    6.8674  -11.7453   26.7269 C   0  0  0  0  0  0  0  0  0  0  0  0
    8.1618  -12.0352   26.3025 C   0  0  0  0  0  0  0  0  0  0  0  0
    8.3877  -13.2707   25.7493 C   0  0  0  0  0  0  0  0  0  0  0  0
    7.4284  -14.2512   25.5806 C   0  0  0  0  0  0  0  0  0  0  0  0
   10.9760  -16.1941   24.6838 C   0  0  0  0  0  0  0  0  0  0  0  0
   12.0516  -16.5209   23.8702 O   0  0  0  0  0  0  0  0  0  0  0  0
   11.0910  -16.5628   25.9074 O   0  0  0  0  0  0  0  0  0  0  0  0
  2  1  1  6
  2  3  1  0
  3  4  1  0
  4  5  2  0
  6  5  1  0
  7  6  1  0
  8  7  2  0
  8  4  1  0
  9  2  1  0
 10  9  2  0
 12 14  1  0
 12 11  1  1
 13 12  1  0
 14 15  1  1
 15  9  1  0
 16 18  1  0
 16 14  1  0
 17 16  2  0
 19 30  1  0
 19 18  1  0
 19 20  1  6
 21 22  2  0
 21 20  1  0
 23 22  1  0
 24 29  2  0
 24 23  1  0
 25 24  1  0
 26 27  1  0
 26 25  2  0
 27 28  2  0
 28 29  1  0
 29 21  1  0
 30 31  1  0
 32 30  2  0
M  END
$$$$
