HVW.pdb
     RDKit          3D

 32 34  0  0  1  0  0  0  0  0999 V2000
    9.4604  -18.5987   18.1254 N   0  0  0  0  0  0  0  0  0  0  0  0
    8.6512  -18.1346   19.2172 C   0  0  1  0  0  0  0  0  0  0  0  0
    8.5744  -19.1927   20.3002 C   0  0  0  0  0  0  0  0  0  0  0  0
    7.8235  -20.3941   19.8026 C   0  0  0  0  0  0  0  0  0  0  0  0
    7.2188  -20.5250   18.5729 C   0  0  0  0  0  0  0  0  0  0  0  0
    6.6506  -21.7408   18.5125 N   0  0  0  0  0  0  0  0  0  0  0  0
    6.8942  -22.3512   19.6719 C   0  0  0  0  0  0  0  0  0  0  0  0
    7.6074  -21.5388   20.4629 N   0  0  0  0  0  0  0  0  0  0  0  0
    9.2448  -16.8672   19.8109 C   0  0  0  0  0  0  0  0  0  0  0  0
   10.4596  -16.6353   19.6795 O   0  0  0  0  0  0  0  0  0  0  0  0
    7.2253  -13.4017   19.5616 C   0  0  0  0  0  0  0  0  0  0  0  0
    7.4750  -13.7258   21.0136 C   0  0  2  0  0  0  0  0  0  0  0  0
    7.9433  -12.4601   21.7004 C   0  0  0  0  0  0  0  0  0  0  0  0
    8.5989  -14.7354   21.0874 C   0  0  2  0  0  0  0  0  0  0  0  0
    8.3825  -15.9999   20.4919 N   0  0  0  0  0  0  0  0  0  0  0  0
    9.1490  -14.7992   22.4539 C   0  0  0  0  0  0  0  0  0  0  0  0
    9.6229  -13.8248   23.0919 O   0  0  0  0  0  0  0  0  0  0  0  0
    9.1805  -16.0441   23.1902 N   0  0  0  0  0  0  0  0  0  0  0  0
    9.7614  -16.1225   24.5313 C   0  0  1  0  0  0  0  0  0  0  0  0
    8.7324  -16.4884   25.5314 C   0  0  0  0  0  0  0  0  0  0  0  0
    7.6238  -15.5449   25.6244 C   0  0  0  0  0  0  0  0  0  0  0  0
    6.2904  -15.7898   25.2741 C   0  0  0  0  0  0  0  0  0  0  0  0
    5.5730  -14.6781   25.4617 N   0  0  0  0  0  0  0  0  0  0  0  0
    6.3515  -13.6859   25.9238 C   0  0  0  0  0  0  0  0  0  0  0  0
    6.0960  -12.3780   26.2867 C   0  0  0  0  0  0  0  0  0  0  0  0
    7.0984  -11.5687   26.7619 C   0  0  0  0  0  0  0  0  0  0  0  0
    8.3938  -12.0657   26.8827 C   0  0  0  0  0  0  0  0  0  0  0  0
    8.6118  -13.3689   26.5121 C   0  0  0  0  0  0  0  0  0  0  0  0
    7.6435  -14.2280   26.0276 C   0  0  0  0  0  0  0  0  0  0  0  0
   10.9013  -17.0239   24.5022 C   0  0  0  0  0  0  0  0  0  0  0  0
   11.3633  -17.7460   23.4110 O   0  0  0  0  0  0  0  0  0  0  0  0
   11.5664  -17.1954   25.5859 O   0  0  0  0  0  0  0  0  0  0  0  0
  2  1  1  6
  2  3  1  0
  3  4  1  0
  4  5  2  0
  6  5  1  0
  7  6  1  0
  8  7  2  0
  8  4  1  0
  9  2  1  0
 10  9  2  0
 12 14  1  0
 12 11  1  6
 13 12  1  0
 14 15  1  1
 15  9  1  0
 16 18  1  0
 16 14  1  0
 17 16  2  0
 19 30  1  0
 19 18  1  0
 19 20  1  1
 21 22  2  0
 21 20  1  0
 23 22  1  0
 24 29  2  0
 24 23  1  0
 25 24  1  0
 26 27  1  0
 26 25  2  0
 27 28  2  0
 28 29  1  0
 29 21  1  0
 30 31  1  0
 32 30  2  0
M  END
$$$$
