HVW.pdb
     RDKit          3D

 32 34  0  0  1  0  0  0  0  0999 V2000
    9.4134  -16.5843   18.5010 N   0  0  0  0  0  0  0  0  0  0  0  0
    8.6713  -15.8147   19.4598 C   0  0  1  0  0  0  0  0  0  0  0  0
    7.3747  -15.3227   18.8473 C   0  0  0  0  0  0  0  0  0  0  0  0
    7.6553  -14.5101   17.6161 C   0  0  0  0  0  0  0  0  0  0  0  0
    8.0845  -13.2025   17.5834 C   0  0  0  0  0  0  0  0  0  0  0  0
    8.2146  -12.8361   16.2976 N   0  0  0  0  0  0  0  0  0  0  0  0
    7.8763  -13.8857   15.5493 C   0  0  0  0  0  0  0  0  0  0  0  0
    7.5346  -14.9087   16.3435 N   0  0  0  0  0  0  0  0  0  0  0  0
    8.3471  -16.6634   20.6787 C   0  0  0  0  0  0  0  0  0  0  0  0
    7.3631  -17.4237   20.6562 O   0  0  0  0  0  0  0  0  0  0  0  0
   10.3060  -19.5639   23.7558 C   0  0  0  0  0  0  0  0  0  0  0  0
   10.0635  -18.7916   22.4828 C   0  0  2  0  0  0  0  0  0  0  0  0
   11.4045  -18.5439   21.8246 C   0  0  0  0  0  0  0  0  0  0  0  0
    9.4725  -17.4482   22.8487 C   0  0  2  0  0  0  0  0  0  0  0  0
    9.1855  -16.5506   21.7938 N   0  0  0  0  0  0  0  0  0  0  0  0
   10.2156  -16.8432   23.9693 C   0  0  0  0  0  0  0  0  0  0  0  0
   11.3302  -16.2690   23.8753 O   0  0  0  0  0  0  0  0  0  0  0  0
    9.6881  -16.8673   25.3162 N   0  0  0  0  0  0  0  0  0  0  0  0
   10.4323  -16.2911   26.4371 C   0  0  1  0  0  0  0  0  0  0  0  0
    9.9772  -14.9103   26.7184 C   0  0  0  0  0  0  0  0  0  0  0  0
    8.5393  -14.7114   26.5744 C   0  0  0  0  0  0  0  0  0  0  0  0
    7.5604  -15.7118   26.5326 C   0  0  0  0  0  0  0  0  0  0  0  0
    6.3613  -15.1493   26.3551 N   0  0  0  0  0  0  0  0  0  0  0  0
    6.4735  -13.8133   26.2743 C   0  0  0  0  0  0  0  0  0  0  0  0
    5.5512  -12.7975   26.1157 C   0  0  0  0  0  0  0  0  0  0  0  0
    5.9467  -11.4827   26.0899 C   0  0  0  0  0  0  0  0  0  0  0  0
    7.2949  -11.1603   26.2246 C   0  0  0  0  0  0  0  0  0  0  0  0
    8.1835  -12.1946   26.3793 C   0  0  0  0  0  0  0  0  0  0  0  0
    7.8435  -13.5338   26.4120 C   0  0  0  0  0  0  0  0  0  0  0  0
   10.3386  -17.1863   27.5784 C   0  0  0  0  0  0  0  0  0  0  0  0
    9.5813  -18.3458   27.6663 O   0  0  0  0  0  0  0  0  0  0  0  0
   11.0103  -16.8970   28.6326 O   0  0  0  0  0  0  0  0  0  0  0  0
  2  1  1  6
  2  3  1  0
  3  4  1  0
  4  5  2  0
  6  5  1  0
  7  6  1  0
  8  7  2  0
  8  4  1  0
  9  2  1  0
 10  9  2  0
 12 14  1  0
 12 11  1  1
 13 12  1  0
 14 15  1  6
 15  9  1  0
 16 18  1  0
 16 14  1  0
 17 16  2  0
 19 30  1  0
 19 18  1  0
 19 20  1  1
 21 22  2  0
 21 20  1  0
 23 22  1  0
 24 29  2  0
 24 23  1  0
 25 24  1  0
 26 27  1  0
 26 25  2  0
 27 28  2  0
 28 29  1  0
 29 21  1  0
 30 31  1  0
 32 30  2  0
M  END
$$$$
