HVW.pdb
     RDKit          3D

 32 34  0  0  1  0  0  0  0  0999 V2000
    9.7490  -15.2816   19.4522 N   0  0  0  0  0  0  0  0  0  0  0  0
    8.5498  -14.9088   20.1487 C   0  0  1  0  0  0  0  0  0  0  0  0
    7.3553  -14.9930   19.2190 C   0  0  0  0  0  0  0  0  0  0  0  0
    7.6763  -14.3536   17.8988 C   0  0  0  0  0  0  0  0  0  0  0  0
    7.8008  -13.0043   17.6561 C   0  0  0  0  0  0  0  0  0  0  0  0
    8.0879  -12.8373   16.3545 N   0  0  0  0  0  0  0  0  0  0  0  0
    8.1412  -14.0484   15.8009 C   0  0  0  0  0  0  0  0  0  0  0  0
    7.8919  -14.9769   16.7335 N   0  0  0  0  0  0  0  0  0  0  0  0
    8.3177  -15.8358   21.3310 C   0  0  0  0  0  0  0  0  0  0  0  0
    7.1838  -15.9200   21.8348 O   0  0  0  0  0  0  0  0  0  0  0  0
   11.7350  -18.2946   22.2097 C   0  0  0  0  0  0  0  0  0  0  0  0
   10.3649  -18.7111   22.6840 C   0  0  2  0  0  0  0  0  0  0  0  0
    9.7129  -19.5153   21.5789 C   0  0  0  0  0  0  0  0  0  0  0  0
    9.5376  -17.4630   22.8979 C   0  0  2  0  0  0  0  0  0  0  0  0
    9.4102  -16.5682   21.8100 N   0  0  0  0  0  0  0  0  0  0  0  0
    9.8981  -16.8148   24.1722 C   0  0  0  0  0  0  0  0  0  0  0  0
   10.6882  -15.8444   24.2951 O   0  0  0  0  0  0  0  0  0  0  0  0
    9.3400  -17.2698   25.4270 N   0  0  0  0  0  0  0  0  0  0  0  0
    9.7184  -16.6519   26.6987 C   0  0  1  0  0  0  0  0  0  0  0  0
    8.5182  -16.2858   27.4851 C   0  0  0  0  0  0  0  0  0  0  0  0
    7.5945  -15.3955   26.7910 C   0  0  0  0  0  0  0  0  0  0  0  0
    6.4587  -15.7753   26.0656 C   0  0  0  0  0  0  0  0  0  0  0  0
    5.8847  -14.6878   25.5424 N   0  0  0  0  0  0  0  0  0  0  0  0
    6.5729  -13.5836   25.8759 C   0  0  0  0  0  0  0  0  0  0  0  0
    6.3883  -12.2411   25.6092 C   0  0  0  0  0  0  0  0  0  0  0  0
    7.2525  -11.2972   26.1071 C   0  0  0  0  0  0  0  0  0  0  0  0
    8.3330  -11.6907   26.8927 C   0  0  0  0  0  0  0  0  0  0  0  0
    8.4866  -13.0324   27.1366 C   0  0  0  0  0  0  0  0  0  0  0  0
    7.6502  -14.0253   26.6621 C   0  0  0  0  0  0  0  0  0  0  0  0
   10.6357  -17.5346   27.4002 C   0  0  0  0  0  0  0  0  0  0  0  0
   11.3702  -17.2362   28.5391 O   0  0  0  0  0  0  0  0  0  0  0  0
   10.8105  -18.7186   26.9379 O   0  0  0  0  0  0  0  0  0  0  0  0
  2  1  1  6
  2  3  1  0
  3  4  1  0
  4  5  2  0
  6  5  1  0
  7  6  1  0
  8  7  2  0
  8  4  1  0
  9  2  1  0
 10  9  2  0
 12 14  1  0
 12 11  1  6
 13 12  1  0
 14 15  1  6
 15  9  1  0
 16 18  1  0
 16 14  1  0
 17 16  2  0
 19 30  1  0
 19 18  1  0
 19 20  1  1
 21 22  2  0
 21 20  1  0
 23 22  1  0
 24 29  2  0
 24 23  1  0
 25 24  1  0
 26 27  1  0
 26 25  2  0
 27 28  2  0
 28 29  1  0
 29 21  1  0
 30 31  1  0
 32 30  2  0
M  END
$$$$
