IDC.pdb
     RDKit          3D

 23 22  0  0  1  0  0  0  0  0999 V2000
    7.2150  -12.1359   19.3398 C   0  0  0  0  0  0  0  0  0  0  0  0
    7.6941  -13.5534   19.2563 C   0  0  0  0  0  0  0  0  0  0  0  0
    8.0382  -14.1371   20.5918 C   0  0  2  0  0  0  0  0  0  0  0  0
    8.9706  -13.2133   21.3452 C   0  0  0  0  0  0  0  0  0  0  0  0
    8.5074  -15.5498   20.5675 C   0  0  2  0  0  0  0  0  0  0  0  0
    7.5202  -16.3848   19.8296 N   0  0  0  0  0  0  0  0  0  0  0  0
    8.6903  -16.1936   21.8771 C   0  0  0  0  0  0  0  0  0  0  0  0
    7.6467  -16.5147   22.5534 O   0  0  0  0  0  0  0  0  0  0  0  0
    9.9090  -16.5165   22.5046 N   0  0  0  0  0  0  0  0  0  0  0  0
   10.0163  -16.9139   23.8932 C   0  0  1  0  0  0  0  0  0  0  0  0
   10.9360  -18.1067   24.0134 C   0  0  0  0  0  0  0  0  0  0  0  0
   12.2677  -17.8410   23.4356 C   0  0  0  0  0  0  0  0  0  0  0  0
   12.4796  -16.7271   22.8823 O   0  0  0  0  0  0  0  0  0  0  0  0
   10.5852  -15.8457   24.7487 C   0  0  0  0  0  0  0  0  0  0  0  0
   11.0206  -14.7490   24.3260 O   0  0  0  0  0  0  0  0  0  0  0  0
   13.2641  -18.7999   23.5023 O   0  0  0  0  0  0  0  0  0  0  0  0
   10.6293  -16.1084   26.1472 N   0  0  0  0  0  0  0  0  0  0  0  0
   10.5253  -15.1051   27.1670 C   0  0  1  0  0  0  0  0  0  0  0  0
    9.1405  -14.4520   27.0457 C   0  0  0  0  0  0  0  0  0  0  0  0
    8.9424  -13.1949   28.3604 S   0  0  0  0  0  0  0  0  0  0  0  0
   10.6675  -15.7382   28.4977 C   0  0  0  0  0  0  0  0  0  0  0  0
   11.1971  -14.9926   29.5378 O   0  0  0  0  0  0  0  0  0  0  0  0
   10.3403  -16.9192   28.7620 O   0  0  0  0  0  0  0  0  0  0  0  0
  1  2  1  0
  2  3  1  0
  3  5  1  0
  3  4  1  6
  5  7  1  0
  5  6  1  6
  7  9  1  0
  7  8  2  0
  9 10  1  0
 10 14  1  0
 10 11  1  6
 12 11  1  0
 12 16  1  0
 13 12  2  0
 14 17  1  0
 15 14  2  0
 17 18  1  0
 18 21  1  0
 18 19  1  1
 19 20  1  0
 21 23  2  0
 21 22  1  0
M  END
$$$$
