IDC.pdb
     RDKit          3D

 23 22  0  0  1  0  0  0  0  0999 V2000
    6.9641  -11.7922   27.5161 C   0  0  0  0  0  0  0  0  0  0  0  0
    6.2405  -12.8169   26.6961 C   0  0  0  0  0  0  0  0  0  0  0  0
    7.1549  -13.6350   25.8374 C   0  0  2  0  0  0  0  0  0  0  0  0
    8.0162  -12.7341   24.9789 C   0  0  0  0  0  0  0  0  0  0  0  0
    6.4976  -14.7253   25.0657 C   0  0  2  0  0  0  0  0  0  0  0  0
    5.7217  -15.5899   25.9967 N   0  0  0  0  0  0  0  0  0  0  0  0
    7.3943  -15.6244   24.3237 C   0  0  0  0  0  0  0  0  0  0  0  0
    7.9475  -16.5965   24.9551 O   0  0  0  0  0  0  0  0  0  0  0  0
    7.7332  -15.5531   22.9587 N   0  0  0  0  0  0  0  0  0  0  0  0
    8.7375  -16.3905   22.3361 C   0  0  1  0  0  0  0  0  0  0  0  0
    8.6749  -16.2325   20.8346 C   0  0  0  0  0  0  0  0  0  0  0  0
    9.6376  -17.1120   20.1436 C   0  0  0  0  0  0  0  0  0  0  0  0
   10.1547  -18.0690   20.7827 O   0  0  0  0  0  0  0  0  0  0  0  0
   10.1147  -16.0297   22.7482 C   0  0  0  0  0  0  0  0  0  0  0  0
   10.7752  -15.0765   22.2725 O   0  0  0  0  0  0  0  0  0  0  0  0
    9.9641  -16.8874   18.8170 O   0  0  0  0  0  0  0  0  0  0  0  0
   10.7077  -16.8391   23.7581 N   0  0  0  0  0  0  0  0  0  0  0  0
   12.0375  -16.6621   24.2657 C   0  0  1  0  0  0  0  0  0  0  0  0
   12.0161  -16.9884   25.7664 C   0  0  0  0  0  0  0  0  0  0  0  0
   11.0694  -15.7001   26.6565 S   0  0  0  0  0  0  0  0  0  0  0  0
   12.9597  -17.5837   23.5642 C   0  0  0  0  0  0  0  0  0  0  0  0
   14.3174  -17.4927   23.8221 O   0  0  0  0  0  0  0  0  0  0  0  0
   12.6012  -18.4565   22.7387 O   0  0  0  0  0  0  0  0  0  0  0  0
  1  2  1  0
  2  3  1  0
  3  5  1  0
  3  4  1  6
  5  7  1  0
  5  6  1  1
  7  9  1  0
  7  8  2  0
  9 10  1  0
 10 14  1  0
 10 11  1  6
 12 11  1  0
 12 16  1  0
 13 12  2  0
 14 17  1  0
 15 14  2  0
 17 18  1  0
 18 21  1  0
 18 19  1  1
 19 20  1  0
 21 23  2  0
 21 22  1  0
M  END
$$$$
