IDC.pdb
     RDKit          3D

 23 22  0  0  1  0  0  0  0  0999 V2000
    6.2533  -11.8413   27.1343 C   0  0  0  0  0  0  0  0  0  0  0  0
    5.9905  -12.9797   26.1957 C   0  0  0  0  0  0  0  0  0  0  0  0
    7.2375  -13.6945   25.7752 C   0  0  2  0  0  0  0  0  0  0  0  0
    8.2577  -12.7079   25.2495 C   0  0  0  0  0  0  0  0  0  0  0  0
    7.0298  -14.8593   24.8715 C   0  0  2  0  0  0  0  0  0  0  0  0
    5.9181  -15.6987   25.3964 N   0  0  0  0  0  0  0  0  0  0  0  0
    8.1794  -15.7611   24.7033 C   0  0  0  0  0  0  0  0  0  0  0  0
    8.2125  -16.8465   25.3892 O   0  0  0  0  0  0  0  0  0  0  0  0
    9.2870  -15.5795   23.8529 N   0  0  0  0  0  0  0  0  0  0  0  0
   10.4061  -16.4964   23.7853 C   0  0  1  0  0  0  0  0  0  0  0  0
   11.1586  -16.2894   22.4914 C   0  0  0  0  0  0  0  0  0  0  0  0
   10.4823  -16.9311   21.3475 C   0  0  0  0  0  0  0  0  0  0  0  0
    9.5263  -17.7232   21.5721 O   0  0  0  0  0  0  0  0  0  0  0  0
   11.3784  -16.2899   24.8847 C   0  0  0  0  0  0  0  0  0  0  0  0
   12.3853  -17.0073   25.0909 O   0  0  0  0  0  0  0  0  0  0  0  0
   10.8927  -16.6651   20.0522 O   0  0  0  0  0  0  0  0  0  0  0  0
   11.1286  -15.1914   25.7552 N   0  0  0  0  0  0  0  0  0  0  0  0
   11.4199  -15.1839   27.1597 C   0  0  1  0  0  0  0  0  0  0  0  0
   10.4391  -14.2165   27.8388 C   0  0  0  0  0  0  0  0  0  0  0  0
   10.7640  -14.1838   29.6393 S   0  0  0  0  0  0  0  0  0  0  0  0
   11.2411  -16.5476   27.7076 C   0  0  0  0  0  0  0  0  0  0  0  0
   12.2723  -17.1129   28.4390 O   0  0  0  0  0  0  0  0  0  0  0  0
   10.2097  -17.2445   27.5580 O   0  0  0  0  0  0  0  0  0  0  0  0
  1  2  1  0
  2  3  1  0
  3  5  1  0
  3  4  1  6
  5  7  1  0
  5  6  1  1
  7  9  1  0
  7  8  2  0
  9 10  1  0
 10 14  1  0
 10 11  1  6
 12 11  1  0
 12 16  1  0
 13 12  2  0
 14 17  1  0
 15 14  2  0
 17 18  1  0
 18 21  1  0
 18 19  1  1
 19 20  1  0
 21 23  2  0
 21 22  1  0
M  END
$$$$
