IDC.pdb
     RDKit          3D

 23 22  0  0  1  0  0  0  0  0999 V2000
    5.7241  -11.5728   26.7940 C   0  0  0  0  0  0  0  0  0  0  0  0
    5.5475  -12.9023   26.1254 C   0  0  0  0  0  0  0  0  0  0  0  0
    6.8461  -13.5684   25.7897 C   0  0  2  0  0  0  0  0  0  0  0  0
    7.7532  -12.6095   25.0494 C   0  0  0  0  0  0  0  0  0  0  0  0
    6.7279  -14.8946   25.1237 C   0  0  2  0  0  0  0  0  0  0  0  0
    5.7780  -15.7480   25.8890 N   0  0  0  0  0  0  0  0  0  0  0  0
    7.9709  -15.6717   25.0038 C   0  0  0  0  0  0  0  0  0  0  0  0
    8.2043  -16.5919   25.8688 O   0  0  0  0  0  0  0  0  0  0  0  0
    8.9721  -15.5308   24.0236 N   0  0  0  0  0  0  0  0  0  0  0  0
   10.1526  -16.3671   23.9561 C   0  0  1  0  0  0  0  0  0  0  0  0
   10.9351  -16.0460   22.7039 C   0  0  0  0  0  0  0  0  0  0  0  0
   12.0286  -17.0092   22.4706 C   0  0  0  0  0  0  0  0  0  0  0  0
   12.1140  -18.0245   23.2146 O   0  0  0  0  0  0  0  0  0  0  0  0
   11.0688  -16.1522   25.1011 C   0  0  0  0  0  0  0  0  0  0  0  0
   12.2414  -15.7199   25.0054 O   0  0  0  0  0  0  0  0  0  0  0  0
   12.9420  -16.7985   21.4517 O   0  0  0  0  0  0  0  0  0  0  0  0
   10.5567  -16.4669   26.3917 N   0  0  0  0  0  0  0  0  0  0  0  0
   11.3115  -16.3846   27.6086 C   0  0  1  0  0  0  0  0  0  0  0  0
   10.6227  -15.3594   28.5216 C   0  0  0  0  0  0  0  0  0  0  0  0
   10.5814  -13.7313   27.6873 S   0  0  0  0  0  0  0  0  0  0  0  0
   11.3313  -17.7104   28.2671 C   0  0  0  0  0  0  0  0  0  0  0  0
   11.9984  -17.8461   29.4732 O   0  0  0  0  0  0  0  0  0  0  0  0
   10.7815  -18.7400   27.8094 O   0  0  0  0  0  0  0  0  0  0  0  0
  1  2  1  0
  2  3  1  0
  3  5  1  0
  3  4  1  6
  5  7  1  0
  5  6  1  1
  7  9  1  0
  7  8  2  0
  9 10  1  0
 10 14  1  0
 10 11  1  6
 12 11  1  0
 12 16  1  0
 13 12  2  0
 14 17  1  0
 15 14  2  0
 17 18  1  0
 18 21  1  0
 18 19  1  1
 19 20  1  0
 21 23  2  0
 21 22  1  0
M  END
$$$$
