IDC.pdb
     RDKit          3D

 23 22  0  0  1  0  0  0  0  0999 V2000
    8.3685  -13.9399   19.0423 C   0  0  0  0  0  0  0  0  0  0  0  0
    8.6793  -13.9777   20.5079 C   0  0  0  0  0  0  0  0  0  0  0  0
    7.4578  -14.1077   21.3645 C   0  0  2  0  0  0  0  0  0  0  0  0
    6.5127  -12.9530   21.1119 C   0  0  0  0  0  0  0  0  0  0  0  0
    7.7170  -14.3463   22.8110 C   0  0  2  0  0  0  0  0  0  0  0  0
    8.3777  -13.1483   23.3979 N   0  0  0  0  0  0  0  0  0  0  0  0
    8.5830  -15.4905   23.1333 C   0  0  0  0  0  0  0  0  0  0  0  0
    8.0444  -16.6490   23.2647 O   0  0  0  0  0  0  0  0  0  0  0  0
    9.9787  -15.4761   23.3200 N   0  0  0  0  0  0  0  0  0  0  0  0
   10.7508  -16.6434   23.6927 C   0  0  1  0  0  0  0  0  0  0  0  0
   11.9219  -16.8032   22.7513 C   0  0  0  0  0  0  0  0  0  0  0  0
   11.5501  -17.5292   21.5214 C   0  0  0  0  0  0  0  0  0  0  0  0
   10.3964  -18.0327   21.4374 O   0  0  0  0  0  0  0  0  0  0  0  0
   11.3112  -16.5422   25.0610 C   0  0  0  0  0  0  0  0  0  0  0  0
   12.2911  -17.2012   25.4813 O   0  0  0  0  0  0  0  0  0  0  0  0
   12.4547  -17.6527   20.4805 O   0  0  0  0  0  0  0  0  0  0  0  0
   10.6731  -15.6239   25.9421 N   0  0  0  0  0  0  0  0  0  0  0  0
   11.1039  -15.3495   27.2824 C   0  0  1  0  0  0  0  0  0  0  0  0
   10.7305  -13.8958   27.6088 C   0  0  0  0  0  0  0  0  0  0  0  0
    8.9686  -13.6136   27.2034 S   0  0  0  0  0  0  0  0  0  0  0  0
   10.4165  -16.2672   28.2189 C   0  0  0  0  0  0  0  0  0  0  0  0
   10.8070  -16.2797   29.5476 O   0  0  0  0  0  0  0  0  0  0  0  0
    9.4911  -17.0495   27.8972 O   0  0  0  0  0  0  0  0  0  0  0  0
  1  2  1  0
  2  3  1  0
  3  5  1  0
  3  4  1  1
  5  7  1  0
  5  6  1  6
  7  9  1  0
  7  8  2  0
  9 10  1  0
 10 14  1  0
 10 11  1  6
 12 11  1  0
 12 16  1  0
 13 12  2  0
 14 17  1  0
 15 14  2  0
 17 18  1  0
 18 21  1  0
 18 19  1  1
 19 20  1  0
 21 23  2  0
 21 22  1  0
M  END
$$$$
