IDC.pdb
     RDKit          3D

 23 22  0  0  1  0  0  0  0  0999 V2000
    5.7289  -11.6708   26.2740 C   0  0  0  0  0  0  0  0  0  0  0  0
    5.6362  -13.0148   25.6174 C   0  0  0  0  0  0  0  0  0  0  0  0
    6.9732  -13.6472   25.3819 C   0  0  2  0  0  0  0  0  0  0  0  0
    7.8797  -12.6967   24.6301 C   0  0  0  0  0  0  0  0  0  0  0  0
    6.9362  -15.0126   24.7896 C   0  0  2  0  0  0  0  0  0  0  0  0
    5.9709  -15.8537   25.5490 N   0  0  0  0  0  0  0  0  0  0  0  0
    8.2081  -15.7511   24.7859 C   0  0  0  0  0  0  0  0  0  0  0  0
    8.4478  -16.5636   25.7512 O   0  0  0  0  0  0  0  0  0  0  0  0
    9.2319  -15.6792   23.8216 N   0  0  0  0  0  0  0  0  0  0  0  0
   10.4497  -16.4605   23.8841 C   0  0  1  0  0  0  0  0  0  0  0  0
   11.2592  -16.2461   22.6263 C   0  0  0  0  0  0  0  0  0  0  0  0
   10.7350  -17.0273   21.4893 C   0  0  0  0  0  0  0  0  0  0  0  0
    9.9552  -17.9916   21.7216 O   0  0  0  0  0  0  0  0  0  0  0  0
   11.3162  -16.0741   25.0228 C   0  0  0  0  0  0  0  0  0  0  0  0
   12.1042  -15.0993   25.0211 O   0  0  0  0  0  0  0  0  0  0  0  0
   11.0948  -16.7038   20.1921 O   0  0  0  0  0  0  0  0  0  0  0  0
   11.2289  -16.8839   26.1904 N   0  0  0  0  0  0  0  0  0  0  0  0
   11.5517  -16.4387   27.5152 C   0  0  1  0  0  0  0  0  0  0  0  0
   10.5831  -15.3037   27.8796 C   0  0  0  0  0  0  0  0  0  0  0  0
   11.2101  -14.4170   29.3522 S   0  0  0  0  0  0  0  0  0  0  0  0
   11.3899  -17.5619   28.4659 C   0  0  0  0  0  0  0  0  0  0  0  0
   12.0820  -17.5257   29.6650 O   0  0  0  0  0  0  0  0  0  0  0  0
   10.6620  -18.5630   28.2667 O   0  0  0  0  0  0  0  0  0  0  0  0
  1  2  1  0
  2  3  1  0
  3  5  1  0
  3  4  1  6
  5  7  1  0
  5  6  1  1
  7  9  1  0
  7  8  2  0
  9 10  1  0
 10 14  1  0
 10 11  1  6
 12 11  1  0
 12 16  1  0
 13 12  2  0
 14 17  1  0
 15 14  2  0
 17 18  1  0
 18 21  1  0
 18 19  1  1
 19 20  1  0
 21 23  2  0
 21 22  1  0
M  END
$$$$
