IDC.pdb
     RDKit          3D

 23 22  0  0  1  0  0  0  0  0999 V2000
    5.8120  -11.8625   26.3881 C   0  0  0  0  0  0  0  0  0  0  0  0
    5.7069  -13.1849   25.6907 C   0  0  0  0  0  0  0  0  0  0  0  0
    7.0395  -13.8009   25.3952 C   0  0  2  0  0  0  0  0  0  0  0  0
    7.9116  -12.8275   24.6322 C   0  0  0  0  0  0  0  0  0  0  0  0
    6.9922  -15.1540   24.7760 C   0  0  2  0  0  0  0  0  0  0  0  0
    5.9845  -15.9872   25.4877 N   0  0  0  0  0  0  0  0  0  0  0  0
    8.2471  -15.9206   24.7992 C   0  0  0  0  0  0  0  0  0  0  0  0
    8.4851  -16.6764   25.8100 O   0  0  0  0  0  0  0  0  0  0  0  0
    9.2558  -15.9331   23.8166 N   0  0  0  0  0  0  0  0  0  0  0  0
   10.5204  -16.6213   23.9731 C   0  0  1  0  0  0  0  0  0  0  0  0
   11.3578  -16.4405   22.7283 C   0  0  0  0  0  0  0  0  0  0  0  0
   10.7665  -17.1186   21.5585 C   0  0  0  0  0  0  0  0  0  0  0  0
   10.0178  -18.1163   21.7478 O   0  0  0  0  0  0  0  0  0  0  0  0
   11.3180  -16.0960   25.1065 C   0  0  0  0  0  0  0  0  0  0  0  0
   12.0328  -15.0674   25.0598 O   0  0  0  0  0  0  0  0  0  0  0  0
   11.0311  -16.6641   20.2778 O   0  0  0  0  0  0  0  0  0  0  0  0
   11.2506  -16.8301   26.3244 N   0  0  0  0  0  0  0  0  0  0  0  0
   11.5181  -16.2799   27.6217 C   0  0  1  0  0  0  0  0  0  0  0  0
   10.4633  -15.1991   27.9016 C   0  0  0  0  0  0  0  0  0  0  0  0
   10.7945  -14.4315   29.5292 S   0  0  0  0  0  0  0  0  0  0  0  0
   11.4235  -17.3501   28.6403 C   0  0  0  0  0  0  0  0  0  0  0  0
   12.1831  -17.2425   29.7933 O   0  0  0  0  0  0  0  0  0  0  0  0
   10.6960  -18.3661   28.5387 O   0  0  0  0  0  0  0  0  0  0  0  0
  1  2  1  0
  2  3  1  0
  3  5  1  0
  3  4  1  6
  5  7  1  0
  5  6  1  1
  7  9  1  0
  7  8  2  0
  9 10  1  0
 10 14  1  0
 10 11  1  6
 12 11  1  0
 12 16  1  0
 13 12  2  0
 14 17  1  0
 15 14  2  0
 17 18  1  0
 18 21  1  0
 18 19  1  1
 19 20  1  0
 21 23  2  0
 21 22  1  0
M  END
$$$$
