IDC.pdb
     RDKit          3D

 23 22  0  0  1  0  0  0  0  0999 V2000
    7.1976  -11.9370   19.7970 C   0  0  0  0  0  0  0  0  0  0  0  0
    7.5440  -13.3911   19.6895 C   0  0  0  0  0  0  0  0  0  0  0  0
    7.9387  -13.9996   20.9997 C   0  0  2  0  0  0  0  0  0  0  0  0
    9.0392  -13.1869   21.6469 C   0  0  0  0  0  0  0  0  0  0  0  0
    8.2337  -15.4584   20.9611 C   0  0  2  0  0  0  0  0  0  0  0  0
    7.0498  -16.1870   20.4285 N   0  0  0  0  0  0  0  0  0  0  0  0
    8.5557  -16.0879   22.2507 C   0  0  0  0  0  0  0  0  0  0  0  0
    7.6010  -16.3060   23.0816 O   0  0  0  0  0  0  0  0  0  0  0  0
    9.8238  -16.4989   22.7048 N   0  0  0  0  0  0  0  0  0  0  0  0
   10.0828  -16.9611   24.0526 C   0  0  1  0  0  0  0  0  0  0  0  0
   11.2475  -17.9237   24.0475 C   0  0  0  0  0  0  0  0  0  0  0  0
   11.5397  -18.4482   25.3956 C   0  0  0  0  0  0  0  0  0  0  0  0
   10.5952  -18.5537   26.2253 O   0  0  0  0  0  0  0  0  0  0  0  0
   10.4429  -15.8571   24.9737 C   0  0  0  0  0  0  0  0  0  0  0  0
   11.5246  -15.2248   24.9410 O   0  0  0  0  0  0  0  0  0  0  0  0
   12.8292  -18.8173   25.7392 O   0  0  0  0  0  0  0  0  0  0  0  0
    9.4739  -15.5091   25.9569 N   0  0  0  0  0  0  0  0  0  0  0  0
    9.6587  -14.5002   26.9596 C   0  0  1  0  0  0  0  0  0  0  0  0
    8.3140  -13.7863   27.1627 C   0  0  0  0  0  0  0  0  0  0  0  0
    7.7926  -13.0102   25.5899 S   0  0  0  0  0  0  0  0  0  0  0  0
   10.0862  -15.1364   28.2262 C   0  0  0  0  0  0  0  0  0  0  0  0
   10.4033  -14.3277   29.3049 O   0  0  0  0  0  0  0  0  0  0  0  0
   10.1861  -16.3736   28.4023 O   0  0  0  0  0  0  0  0  0  0  0  0
  1  2  1  0
  2  3  1  0
  3  5  1  0
  3  4  1  6
  5  7  1  0
  5  6  1  1
  7  9  1  0
  7  8  2  0
  9 10  1  0
 10 14  1  0
 10 11  1  6
 12 11  1  0
 12 16  1  0
 13 12  2  0
 14 17  1  0
 15 14  2  0
 17 18  1  0
 18 21  1  0
 18 19  1  1
 19 20  1  0
 21 23  2  0
 21 22  1  0
M  END
$$$$
