IDC.pdb
     RDKit          3D

 23 22  0  0  1  0  0  0  0  0999 V2000
    7.1494  -12.0431   20.0056 C   0  0  0  0  0  0  0  0  0  0  0  0
    7.2954  -13.5344   20.0287 C   0  0  0  0  0  0  0  0  0  0  0  0
    7.9606  -14.0406   21.2713 C   0  0  2  0  0  0  0  0  0  0  0  0
    9.3011  -13.3647   21.4631 C   0  0  0  0  0  0  0  0  0  0  0  0
    8.0286  -15.5224   21.3987 C   0  0  2  0  0  0  0  0  0  0  0  0
    6.6590  -16.0917   21.2712 N   0  0  0  0  0  0  0  0  0  0  0  0
    8.5704  -16.0389   22.6647 C   0  0  0  0  0  0  0  0  0  0  0  0
    7.7851  -16.1260   23.6773 O   0  0  0  0  0  0  0  0  0  0  0  0
    9.8881  -16.4679   22.9151 N   0  0  0  0  0  0  0  0  0  0  0  0
   10.3665  -16.8710   24.2213 C   0  0  1  0  0  0  0  0  0  0  0  0
   11.6919  -17.5833   24.0824 C   0  0  0  0  0  0  0  0  0  0  0  0
   11.6164  -18.7168   23.1404 C   0  0  0  0  0  0  0  0  0  0  0  0
   10.5904  -19.4509   23.1527 O   0  0  0  0  0  0  0  0  0  0  0  0
   10.5918  -15.7185   25.1256 C   0  0  0  0  0  0  0  0  0  0  0  0
   11.4384  -14.8146   24.9322 O   0  0  0  0  0  0  0  0  0  0  0  0
   12.6555  -18.9661   22.2599 O   0  0  0  0  0  0  0  0  0  0  0  0
    9.7756  -15.6564   26.2904 N   0  0  0  0  0  0  0  0  0  0  0  0
    9.9860  -14.7521   27.3838 C   0  0  1  0  0  0  0  0  0  0  0  0
    8.6845  -13.9663   27.6021 C   0  0  0  0  0  0  0  0  0  0  0  0
    8.0465  -13.3840   25.9890 S   0  0  0  0  0  0  0  0  0  0  0  0
   10.3185  -15.5224   28.6036 C   0  0  0  0  0  0  0  0  0  0  0  0
   10.6734  -14.8333   29.7514 O   0  0  0  0  0  0  0  0  0  0  0  0
   10.3043  -16.7736   28.6804 O   0  0  0  0  0  0  0  0  0  0  0  0
  1  2  1  0
  2  3  1  0
  3  5  1  0
  3  4  1  6
  5  7  1  0
  5  6  1  1
  7  9  1  0
  7  8  2  0
  9 10  1  0
 10 14  1  0
 10 11  1  6
 12 11  1  0
 12 16  1  0
 13 12  2  0
 14 17  1  0
 15 14  2  0
 17 18  1  0
 18 21  1  0
 18 19  1  1
 19 20  1  0
 21 23  2  0
 21 22  1  0
M  END
$$$$
