IDC.pdb
     RDKit          3D

 23 22  0  0  1  0  0  0  0  0999 V2000
    5.7655  -11.4419   26.3250 C   0  0  0  0  0  0  0  0  0  0  0  0
    5.5895  -12.8245   25.7743 C   0  0  0  0  0  0  0  0  0  0  0  0
    6.8880  -13.5299   25.5311 C   0  0  2  0  0  0  0  0  0  0  0  0
    7.8132  -12.6598   24.7080 C   0  0  0  0  0  0  0  0  0  0  0  0
    6.7700  -14.9184   25.0070 C   0  0  2  0  0  0  0  0  0  0  0  0
    5.8314  -15.6915   25.8657 N   0  0  0  0  0  0  0  0  0  0  0  0
    8.0155  -15.6989   24.9559 C   0  0  0  0  0  0  0  0  0  0  0  0
    8.3629  -16.3674   25.9961 O   0  0  0  0  0  0  0  0  0  0  0  0
    8.9058  -15.8121   23.8708 N   0  0  0  0  0  0  0  0  0  0  0  0
   10.1221  -16.5974   23.9089 C   0  0  1  0  0  0  0  0  0  0  0  0
   10.8811  -16.4266   22.6134 C   0  0  0  0  0  0  0  0  0  0  0  0
   12.0274  -17.3509   22.5161 C   0  0  0  0  0  0  0  0  0  0  0  0
   12.2345  -18.1646   23.4576 O   0  0  0  0  0  0  0  0  0  0  0  0
   11.0352  -16.1800   24.9991 C   0  0  0  0  0  0  0  0  0  0  0  0
   11.7410  -15.1443   24.9816 O   0  0  0  0  0  0  0  0  0  0  0  0
   12.8580  -17.3223   21.4087 O   0  0  0  0  0  0  0  0  0  0  0  0
   11.0973  -17.0336   26.1368 N   0  0  0  0  0  0  0  0  0  0  0  0
   11.3520  -16.5869   27.4759 C   0  0  1  0  0  0  0  0  0  0  0  0
   10.1937  -15.6694   27.8947 C   0  0  0  0  0  0  0  0  0  0  0  0
   10.8661  -14.0921   28.5333 S   0  0  0  0  0  0  0  0  0  0  0  0
   11.4194  -17.7564   28.3812 C   0  0  0  0  0  0  0  0  0  0  0  0
   11.9844  -17.5970   29.6356 O   0  0  0  0  0  0  0  0  0  0  0  0
   10.9974  -18.9019   28.0958 O   0  0  0  0  0  0  0  0  0  0  0  0
  1  2  1  0
  2  3  1  0
  3  5  1  0
  3  4  1  6
  5  7  1  0
  5  6  1  1
  7  9  1  0
  7  8  2  0
  9 10  1  0
 10 14  1  0
 10 11  1  6
 12 11  1  0
 12 16  1  0
 13 12  2  0
 14 17  1  0
 15 14  2  0
 17 18  1  0
 18 21  1  0
 18 19  1  1
 19 20  1  0
 21 23  2  0
 21 22  1  0
M  END
$$$$
