VQP.pdb
     RDKit          3D

 24 24  0  0  1  0  0  0  0  0999 V2000
    6.9155  -13.1017   19.6045 C   0  0  0  0  0  0  0  0  0  0  0  0
    8.2180  -13.8762   19.6498 C   0  0  1  0  0  0  0  0  0  0  0  0
    9.1995  -13.1826   20.5685 C   0  0  0  0  0  0  0  0  0  0  0  0
    8.0222  -15.2728   20.1656 C   0  0  2  0  0  0  0  0  0  0  0  0
    7.1925  -16.0033   19.2496 N   0  0  0  0  0  0  0  0  0  0  0  0
    7.3544  -15.2740   21.5085 C   0  0  0  0  0  0  0  0  0  0  0  0
    6.1236  -15.0528   21.6120 O   0  0  0  0  0  0  0  0  0  0  0  0
    7.3554  -19.7756   24.7349 N   0  0  0  0  0  0  0  0  0  0  0  0
    6.7421  -18.9774   25.7176 C   0  0  0  0  0  0  0  0  0  0  0  0
    6.1858  -19.4599   26.7130 O   0  0  0  0  0  0  0  0  0  0  0  0
    6.7675  -17.4766   25.5444 C   0  0  0  0  0  0  0  0  0  0  0  0
    7.4622  -17.1656   24.2684 C   0  0  0  0  0  0  0  0  0  0  0  0
    7.5589  -15.6807   23.9866 C   0  0  2  0  0  0  0  0  0  0  0  0
    8.1381  -15.5275   22.6397 N   0  0  0  0  0  0  0  0  0  0  0  0
    8.2861  -14.8834   24.9624 C   0  0  0  0  0  0  0  0  0  0  0  0
    9.5569  -15.0779   25.0075 O   0  0  0  0  0  0  0  0  0  0  0  0
    7.8040  -13.9136   25.8696 N   0  0  0  0  0  0  0  0  0  0  0  0
    6.4413  -13.4045   25.8706 C   0  0  0  0  0  0  0  0  0  0  0  0
    6.6394  -11.9614   26.4152 C   0  0  0  0  0  0  0  0  0  0  0  0
    7.5700  -12.3083   27.5613 C   0  0  0  0  0  0  0  0  0  0  0  0
    8.5450  -13.2465   26.9271 C   0  0  1  0  0  0  0  0  0  0  0  0
    9.1483  -14.1926   27.8706 C   0  0  0  0  0  0  0  0  0  0  0  0
    8.7911  -15.3845   27.8666 O   0  0  0  0  0  0  0  0  0  0  0  0
   10.1117  -13.7785   28.7679 O   0  0  0  0  0  0  0  0  0  0  0  0
  2  3  1  1
  2  1  1  0
  4  6  1  0
  4  2  1  0
  4  5  1  6
  6  7  2  0
  8  9  1  0
  9 11  1  0
  9 10  2  0
 11 12  1  0
 13 12  1  1
 14  6  1  0
 14 13  1  0
 15 17  1  0
 15 13  1  0
 16 15  2  0
 17 18  1  0
 19 18  1  0
 20 19  1  0
 21 20  1  0
 21 17  1  0
 22 24  1  0
 21 22  1  1
 23 22  2  0
M  END
$$$$
