VQP.pdb
     RDKit          3D

 24 24  0  0  1  0  0  0  0  0999 V2000
    9.1581  -13.3015   18.6750 C   0  0  0  0  0  0  0  0  0  0  0  0
    8.5154  -13.5237   20.0300 C   0  0  1  0  0  0  0  0  0  0  0  0
    7.2316  -12.7296   20.1290 C   0  0  0  0  0  0  0  0  0  0  0  0
    8.1747  -14.9681   20.2590 C   0  0  2  0  0  0  0  0  0  0  0  0
    7.3446  -15.4343   19.1845 N   0  0  0  0  0  0  0  0  0  0  0  0
    7.4292  -15.1594   21.5462 C   0  0  0  0  0  0  0  0  0  0  0  0
    6.1801  -15.0464   21.5860 O   0  0  0  0  0  0  0  0  0  0  0  0
    7.7195  -19.6854   24.9529 N   0  0  0  0  0  0  0  0  0  0  0  0
    6.9266  -18.9268   25.8331 C   0  0  0  0  0  0  0  0  0  0  0  0
    6.3306  -19.4325   26.7934 O   0  0  0  0  0  0  0  0  0  0  0  0
    6.8028  -17.4405   25.5906 C   0  0  0  0  0  0  0  0  0  0  0  0
    7.5512  -17.1058   24.3515 C   0  0  0  0  0  0  0  0  0  0  0  0
    7.5283  -15.6283   24.0198 C   0  0  2  0  0  0  0  0  0  0  0  0
    8.1615  -15.4664   22.6984 N   0  0  0  0  0  0  0  0  0  0  0  0
    8.1282  -14.7361   25.0000 C   0  0  0  0  0  0  0  0  0  0  0  0
    9.4139  -14.7354   25.0419 O   0  0  0  0  0  0  0  0  0  0  0  0
    7.5065  -13.8570   25.9147 N   0  0  0  0  0  0  0  0  0  0  0  0
    6.0668  -13.6814   26.0262 C   0  0  0  0  0  0  0  0  0  0  0  0
    5.9606  -12.2040   26.4998 C   0  0  0  0  0  0  0  0  0  0  0  0
    7.0390  -12.2594   27.5647 C   0  0  0  0  0  0  0  0  0  0  0  0
    8.1529  -12.9774   26.8742 C   0  0  1  0  0  0  0  0  0  0  0  0
    9.0402  -13.7023   27.7888 C   0  0  0  0  0  0  0  0  0  0  0  0
    9.8069  -13.0711   28.5385 O   0  0  0  0  0  0  0  0  0  0  0  0
    9.0376  -15.0819   27.8307 O   0  0  0  0  0  0  0  0  0  0  0  0
  2  3  1  6
  2  1  1  0
  4  6  1  0
  4  2  1  0
  4  5  1  6
  6  7  2  0
  8  9  1  0
  9 11  1  0
  9 10  2  0
 11 12  1  0
 13 12  1  1
 14  6  1  0
 14 13  1  0
 15 17  1  0
 15 13  1  0
 16 15  2  0
 17 18  1  0
 19 18  1  0
 20 19  1  0
 21 20  1  0
 21 17  1  0
 22 24  1  0
 21 22  1  1
 23 22  2  0
M  END
$$$$
