VQP.pdb
     RDKit          3D

 24 24  0  0  1  0  0  0  0  0999 V2000
    9.1071  -13.3858   18.5925 C   0  0  0  0  0  0  0  0  0  0  0  0
    8.5174  -13.6013   19.9725 C   0  0  1  0  0  0  0  0  0  0  0  0
    7.2344  -12.8127   20.1147 C   0  0  0  0  0  0  0  0  0  0  0  0
    8.1930  -15.0456   20.2244 C   0  0  2  0  0  0  0  0  0  0  0  0
    7.3663  -15.5375   19.1587 N   0  0  0  0  0  0  0  0  0  0  0  0
    7.4518  -15.2252   21.5157 C   0  0  0  0  0  0  0  0  0  0  0  0
    6.2026  -15.1154   21.5579 O   0  0  0  0  0  0  0  0  0  0  0  0
    7.6730  -19.7102   24.9502 N   0  0  0  0  0  0  0  0  0  0  0  0
    6.9845  -18.9154   25.8845 C   0  0  0  0  0  0  0  0  0  0  0  0
    6.4478  -19.3914   26.8938 O   0  0  0  0  0  0  0  0  0  0  0  0
    6.9013  -17.4266   25.6401 C   0  0  0  0  0  0  0  0  0  0  0  0
    7.5754  -17.1270   24.3504 C   0  0  0  0  0  0  0  0  0  0  0  0
    7.5611  -15.6546   23.9961 C   0  0  2  0  0  0  0  0  0  0  0  0
    8.1883  -15.5175   22.6691 N   0  0  0  0  0  0  0  0  0  0  0  0
    8.1724  -14.7518   24.9594 C   0  0  0  0  0  0  0  0  0  0  0  0
    9.4507  -14.8391   25.0740 O   0  0  0  0  0  0  0  0  0  0  0  0
    7.5696  -13.7798   25.7887 N   0  0  0  0  0  0  0  0  0  0  0  0
    6.1884  -13.3420   25.6603 C   0  0  0  0  0  0  0  0  0  0  0  0
    6.2697  -11.8740   26.1668 C   0  0  0  0  0  0  0  0  0  0  0  0
    7.1174  -12.1356   27.3968 C   0  0  0  0  0  0  0  0  0  0  0  0
    8.1866  -13.0420   26.8784 C   0  0  1  0  0  0  0  0  0  0  0  0
    8.7546  -13.9251   27.9014 C   0  0  0  0  0  0  0  0  0  0  0  0
    9.4818  -13.4525   28.7936 O   0  0  0  0  0  0  0  0  0  0  0  0
    8.4933  -15.2803   27.8893 O   0  0  0  0  0  0  0  0  0  0  0  0
  2  3  1  6
  2  1  1  0
  4  6  1  0
  4  2  1  0
  4  5  1  6
  6  7  2  0
  8  9  1  0
  9 11  1  0
  9 10  2  0
 11 12  1  0
 13 12  1  1
 14  6  1  0
 14 13  1  0
 15 17  1  0
 15 13  1  0
 16 15  2  0
 17 18  1  0
 19 18  1  0
 20 19  1  0
 21 20  1  0
 21 17  1  0
 22 24  1  0
 21 22  1  1
 23 22  2  0
M  END
$$$$
