VQP.pdb
     RDKit          3D

 24 24  0  0  1  0  0  0  0  0999 V2000
    8.3177  -12.5341   20.5769 C   0  0  0  0  0  0  0  0  0  0  0  0
    7.7534  -13.5963   19.6539 C   0  0  1  0  0  0  0  0  0  0  0  0
    8.4889  -13.5753   18.3321 C   0  0  0  0  0  0  0  0  0  0  0  0
    7.8969  -14.9748   20.2316 C   0  0  2  0  0  0  0  0  0  0  0  0
    7.2796  -15.9241   19.3492 N   0  0  0  0  0  0  0  0  0  0  0  0
    7.2346  -15.0800   21.5731 C   0  0  0  0  0  0  0  0  0  0  0  0
    5.9948  -14.9253   21.6892 O   0  0  0  0  0  0  0  0  0  0  0  0
    7.6751  -19.6170   24.8668 N   0  0  0  0  0  0  0  0  0  0  0  0
    7.0355  -18.8570   25.8628 C   0  0  0  0  0  0  0  0  0  0  0  0
    6.5817  -19.3647   26.8969 O   0  0  0  0  0  0  0  0  0  0  0  0
    6.9014  -17.3663   25.6553 C   0  0  0  0  0  0  0  0  0  0  0  0
    7.4919  -17.0237   24.3357 C   0  0  0  0  0  0  0  0  0  0  0  0
    7.4722  -15.5387   24.0392 C   0  0  2  0  0  0  0  0  0  0  0  0
    8.0336  -15.3544   22.6886 N   0  0  0  0  0  0  0  0  0  0  0  0
    8.1384  -14.6777   25.0044 C   0  0  0  0  0  0  0  0  0  0  0  0
    9.4238  -14.7277   25.0042 O   0  0  0  0  0  0  0  0  0  0  0  0
    7.5819  -13.7813   25.9440 N   0  0  0  0  0  0  0  0  0  0  0  0
    6.1722  -13.4267   25.9963 C   0  0  0  0  0  0  0  0  0  0  0  0
    6.2273  -11.9790   26.5614 C   0  0  0  0  0  0  0  0  0  0  0  0
    7.2273  -12.2378   27.6718 C   0  0  0  0  0  0  0  0  0  0  0  0
    8.2788  -13.0523   26.9905 C   0  0  1  0  0  0  0  0  0  0  0  0
    9.0132  -13.9398   27.8971 C   0  0  0  0  0  0  0  0  0  0  0  0
    8.8049  -15.1662   27.8673 O   0  0  0  0  0  0  0  0  0  0  0  0
    9.9373  -13.4324   28.7880 O   0  0  0  0  0  0  0  0  0  0  0  0
  2  3  1  6
  2  1  1  0
  4  6  1  0
  4  2  1  0
  4  5  1  6
  6  7  2  0
  8  9  1  0
  9 11  1  0
  9 10  2  0
 11 12  1  0
 13 12  1  1
 14  6  1  0
 14 13  1  0
 15 17  1  0
 15 13  1  0
 16 15  2  0
 17 18  1  0
 19 18  1  0
 20 19  1  0
 21 20  1  0
 21 17  1  0
 22 24  1  0
 21 22  1  1
 23 22  2  0
M  END
$$$$
