VQP.pdb
     RDKit          3D

 24 24  0  0  1  0  0  0  0  0999 V2000
    8.3874  -12.6667   20.7445 C   0  0  0  0  0  0  0  0  0  0  0  0
    7.9062  -13.6784   19.7229 C   0  0  1  0  0  0  0  0  0  0  0  0
    8.7019  -13.5391   18.4440 C   0  0  0  0  0  0  0  0  0  0  0  0
    8.0722  -15.0892   20.2097 C   0  0  2  0  0  0  0  0  0  0  0  0
    7.5516  -15.9939   19.2241 N   0  0  0  0  0  0  0  0  0  0  0  0
    7.3332  -15.3175   21.4946 C   0  0  0  0  0  0  0  0  0  0  0  0
    6.1802  -15.8126   21.4913 O   0  0  0  0  0  0  0  0  0  0  0  0
    7.2734  -19.4816   24.1620 N   0  0  0  0  0  0  0  0  0  0  0  0
    6.7486  -18.8459   25.3019 C   0  0  0  0  0  0  0  0  0  0  0  0
    6.2992  -19.4780   26.2671 O   0  0  0  0  0  0  0  0  0  0  0  0
    6.7366  -17.3355   25.3420 C   0  0  0  0  0  0  0  0  0  0  0  0
    7.3011  -16.8300   24.0640 C   0  0  0  0  0  0  0  0  0  0  0  0
    7.4080  -15.3202   24.0131 C   0  0  2  0  0  0  0  0  0  0  0  0
    7.9618  -14.9647   22.6940 N   0  0  0  0  0  0  0  0  0  0  0  0
    8.1631  -14.6890   25.0847 C   0  0  0  0  0  0  0  0  0  0  0  0
    9.4018  -15.0253   25.1687 O   0  0  0  0  0  0  0  0  0  0  0  0
    7.7392  -13.7482   26.0497 N   0  0  0  0  0  0  0  0  0  0  0  0
    6.3959  -13.1936   26.1124 C   0  0  0  0  0  0  0  0  0  0  0  0
    6.6589  -11.7860   26.7189 C   0  0  0  0  0  0  0  0  0  0  0  0
    7.6061  -12.2192   27.8212 C   0  0  0  0  0  0  0  0  0  0  0  0
    8.5306  -13.1585   27.1167 C   0  0  1  0  0  0  0  0  0  0  0  0
    9.1243  -14.1689   27.9973 C   0  0  0  0  0  0  0  0  0  0  0  0
    8.7365  -15.3496   27.9356 O   0  0  0  0  0  0  0  0  0  0  0  0
   10.1124  -13.8281   28.8987 O   0  0  0  0  0  0  0  0  0  0  0  0
  2  3  1  6
  2  1  1  0
  4  6  1  0
  4  2  1  0
  4  5  1  6
  6  7  2  0
  8  9  1  0
  9 11  1  0
  9 10  2  0
 11 12  1  0
 13 12  1  1
 14  6  1  0
 14 13  1  0
 15 17  1  0
 15 13  1  0
 16 15  2  0
 17 18  1  0
 19 18  1  0
 20 19  1  0
 21 20  1  0
 21 17  1  0
 22 24  1  0
 21 22  1  1
 23 22  2  0
M  END
$$$$
