VQP.pdb
     RDKit          3D

 24 24  0  0  1  0  0  0  0  0999 V2000
    8.2713  -12.6072   20.8330 C   0  0  0  0  0  0  0  0  0  0  0  0
    7.7257  -13.5985   19.8239 C   0  0  1  0  0  0  0  0  0  0  0  0
    8.4854  -13.4802   18.5212 C   0  0  0  0  0  0  0  0  0  0  0  0
    7.8602  -15.0159   20.3011 C   0  0  2  0  0  0  0  0  0  0  0  0
    7.2439  -15.8960   19.3491 N   0  0  0  0  0  0  0  0  0  0  0  0
    7.1901  -15.2148   21.6280 C   0  0  0  0  0  0  0  0  0  0  0  0
    5.9406  -15.1601   21.7291 O   0  0  0  0  0  0  0  0  0  0  0  0
    7.6363  -19.7101   24.9347 N   0  0  0  0  0  0  0  0  0  0  0  0
    7.0829  -18.9365   25.9711 C   0  0  0  0  0  0  0  0  0  0  0  0
    6.6953  -19.4338   27.0367 O   0  0  0  0  0  0  0  0  0  0  0  0
    6.9605  -17.4441   25.7685 C   0  0  0  0  0  0  0  0  0  0  0  0
    7.4068  -17.1223   24.3884 C   0  0  0  0  0  0  0  0  0  0  0  0
    7.4343  -15.6357   24.1001 C   0  0  2  0  0  0  0  0  0  0  0  0
    7.9929  -15.4624   22.7470 N   0  0  0  0  0  0  0  0  0  0  0  0
    8.1345  -14.8026   25.0658 C   0  0  0  0  0  0  0  0  0  0  0  0
    9.4145  -14.9287   25.0883 O   0  0  0  0  0  0  0  0  0  0  0  0
    7.6169  -13.8622   25.9842 N   0  0  0  0  0  0  0  0  0  0  0  0
    6.2390  -13.3960   25.9841 C   0  0  0  0  0  0  0  0  0  0  0  0
    6.3885  -11.9558   26.5514 C   0  0  0  0  0  0  0  0  0  0  0  0
    7.3227  -12.2907   27.6981 C   0  0  0  0  0  0  0  0  0  0  0  0
    8.3304  -13.1884   27.0562 C   0  0  1  0  0  0  0  0  0  0  0  0
    8.9574  -14.1293   27.9893 C   0  0  0  0  0  0  0  0  0  0  0  0
    8.6430  -15.3328   27.9605 O   0  0  0  0  0  0  0  0  0  0  0  0
    9.8963  -13.6974   28.9042 O   0  0  0  0  0  0  0  0  0  0  0  0
  2  3  1  6
  2  1  1  0
  4  6  1  0
  4  2  1  0
  4  5  1  6
  6  7  2  0
  8  9  1  0
  9 11  1  0
  9 10  2  0
 11 12  1  0
 13 12  1  1
 14  6  1  0
 14 13  1  0
 15 17  1  0
 15 13  1  0
 16 15  2  0
 17 18  1  0
 19 18  1  0
 20 19  1  0
 21 20  1  0
 21 17  1  0
 22 24  1  0
 21 22  1  1
 23 22  2  0
M  END
$$$$
