VQP.pdb
     RDKit          3D

 24 24  0  0  1  0  0  0  0  0999 V2000
    8.5240  -13.1567   18.2077 C   0  0  0  0  0  0  0  0  0  0  0  0
    7.8534  -13.2318   19.5654 C   0  0  1  0  0  0  0  0  0  0  0  0
    6.5464  -13.9853   19.4547 C   0  0  0  0  0  0  0  0  0  0  0  0
    8.7062  -13.9474   20.5731 C   0  0  2  0  0  0  0  0  0  0  0  0
    9.0008  -15.2673   20.0913 N   0  0  0  0  0  0  0  0  0  0  0  0
    8.0067  -14.0742   21.8937 C   0  0  0  0  0  0  0  0  0  0  0  0
    7.4915  -13.0714   22.4446 O   0  0  0  0  0  0  0  0  0  0  0  0
    7.0166  -19.6786   24.3171 N   0  0  0  0  0  0  0  0  0  0  0  0
    6.5113  -18.9257   25.3926 C   0  0  0  0  0  0  0  0  0  0  0  0
    6.0412  -19.4530   26.4095 O   0  0  0  0  0  0  0  0  0  0  0  0
    6.5472  -17.4183   25.2953 C   0  0  0  0  0  0  0  0  0  0  0  0
    7.1751  -17.0489   24.0004 C   0  0  0  0  0  0  0  0  0  0  0  0
    7.3408  -15.5543   23.8210 C   0  0  2  0  0  0  0  0  0  0  0  0
    7.9440  -15.3369   22.4935 N   0  0  0  0  0  0  0  0  0  0  0  0
    8.0895  -14.8578   24.8560 C   0  0  0  0  0  0  0  0  0  0  0  0
    9.3458  -15.1281   24.9146 O   0  0  0  0  0  0  0  0  0  0  0  0
    7.6425  -13.9154   25.8089 N   0  0  0  0  0  0  0  0  0  0  0  0
    6.2714  -13.4389   25.9029 C   0  0  0  0  0  0  0  0  0  0  0  0
    6.4700  -12.0010   26.4608 C   0  0  0  0  0  0  0  0  0  0  0  0
    7.4772  -12.3452   27.5411 C   0  0  0  0  0  0  0  0  0  0  0  0
    8.4322  -13.2491   26.8310 C   0  0  1  0  0  0  0  0  0  0  0  0
    9.1138  -14.1966   27.7180 C   0  0  0  0  0  0  0  0  0  0  0  0
    8.7713  -15.3928   27.7276 O   0  0  0  0  0  0  0  0  0  0  0  0
   10.1352  -13.7791   28.5471 O   0  0  0  0  0  0  0  0  0  0  0  0
  2  3  1  6
  2  1  1  0
  4  6  1  0
  4  2  1  0
  4  5  1  6
  6  7  2  0
  8  9  1  0
  9 11  1  0
  9 10  2  0
 11 12  1  0
 13 12  1  1
 14  6  1  0
 14 13  1  0
 15 17  1  0
 15 13  1  0
 16 15  2  0
 17 18  1  0
 19 18  1  0
 20 19  1  0
 21 20  1  0
 21 17  1  0
 22 24  1  0
 21 22  1  1
 23 22  2  0
M  END
$$$$
