VQP.pdb
     RDKit          3D

 24 24  0  0  1  0  0  0  0  0999 V2000
    8.4197  -12.5213   20.5359 C   0  0  0  0  0  0  0  0  0  0  0  0
    7.8267  -13.5540   19.5975 C   0  0  1  0  0  0  0  0  0  0  0  0
    8.5713  -13.5430   18.2808 C   0  0  0  0  0  0  0  0  0  0  0  0
    7.9206  -14.9428   20.1608 C   0  0  2  0  0  0  0  0  0  0  0  0
    7.2927  -15.8636   19.2559 N   0  0  0  0  0  0  0  0  0  0  0  0
    7.2313  -15.0448   21.4888 C   0  0  0  0  0  0  0  0  0  0  0  0
    5.9880  -14.9005   21.5781 O   0  0  0  0  0  0  0  0  0  0  0  0
    7.5667  -19.6222   24.6631 N   0  0  0  0  0  0  0  0  0  0  0  0
    6.9921  -18.8769   25.7086 C   0  0  0  0  0  0  0  0  0  0  0  0
    6.5798  -19.4033   26.7508 O   0  0  0  0  0  0  0  0  0  0  0  0
    6.8775  -17.3791   25.5460 C   0  0  0  0  0  0  0  0  0  0  0  0
    7.4038  -17.0134   24.2056 C   0  0  0  0  0  0  0  0  0  0  0  0
    7.4189  -15.5197   23.9562 C   0  0  2  0  0  0  0  0  0  0  0  0
    8.0093  -15.3044   22.6227 N   0  0  0  0  0  0  0  0  0  0  0  0
    8.0836  -14.7031   24.9604 C   0  0  0  0  0  0  0  0  0  0  0  0
    9.3693  -14.7419   24.9506 O   0  0  0  0  0  0  0  0  0  0  0  0
    7.5251  -13.8606   25.9473 N   0  0  0  0  0  0  0  0  0  0  0  0
    6.0971  -13.6453   26.1223 C   0  0  0  0  0  0  0  0  0  0  0  0
    6.0588  -12.1962   26.6852 C   0  0  0  0  0  0  0  0  0  0  0  0
    7.1713  -12.3501   27.7043 C   0  0  0  0  0  0  0  0  0  0  0  0
    8.2348  -13.0614   26.9322 C   0  0  1  0  0  0  0  0  0  0  0  0
    9.1281  -13.8680   27.7691 C   0  0  0  0  0  0  0  0  0  0  0  0
    9.9741  -13.3091   28.4903 O   0  0  0  0  0  0  0  0  0  0  0  0
    9.0439  -15.2457   27.7690 O   0  0  0  0  0  0  0  0  0  0  0  0
  2  3  1  6
  2  1  1  0
  4  6  1  0
  4  2  1  0
  4  5  1  6
  6  7  2  0
  8  9  1  0
  9 11  1  0
  9 10  2  0
 11 12  1  0
 13 12  1  1
 14  6  1  0
 14 13  1  0
 15 17  1  0
 15 13  1  0
 16 15  2  0
 17 18  1  0
 19 18  1  0
 20 19  1  0
 21 20  1  0
 21 17  1  0
 22 24  1  0
 21 22  1  1
 23 22  2  0
M  END
$$$$
