VQP.pdb
     RDKit          3D

 24 24  0  0  1  0  0  0  0  0999 V2000
    9.3118  -13.3752   18.7314 C   0  0  0  0  0  0  0  0  0  0  0  0
    8.6267  -13.6150   20.0624 C   0  0  1  0  0  0  0  0  0  0  0  0
    7.3438  -12.8168   20.1340 C   0  0  0  0  0  0  0  0  0  0  0  0
    8.2733  -15.0612   20.2586 C   0  0  2  0  0  0  0  0  0  0  0  0
    7.5318  -15.5255   19.1203 N   0  0  0  0  0  0  0  0  0  0  0  0
    7.4294  -15.2595   21.4824 C   0  0  0  0  0  0  0  0  0  0  0  0
    6.3055  -15.8118   21.4029 O   0  0  0  0  0  0  0  0  0  0  0  0
    8.1257  -19.1703   24.5644 N   0  0  0  0  0  0  0  0  0  0  0  0
    7.2664  -18.6267   25.5364 C   0  0  0  0  0  0  0  0  0  0  0  0
    6.9573  -19.2394   26.5671 O   0  0  0  0  0  0  0  0  0  0  0  0
    6.7040  -17.2432   25.3068 C   0  0  0  0  0  0  0  0  0  0  0  0
    7.2779  -16.7096   24.0445 C   0  0  0  0  0  0  0  0  0  0  0  0
    7.3188  -15.1964   23.9987 C   0  0  2  0  0  0  0  0  0  0  0  0
    7.9272  -14.8135   22.7118 N   0  0  0  0  0  0  0  0  0  0  0  0
    7.9846  -14.5337   25.1098 C   0  0  0  0  0  0  0  0  0  0  0  0
    9.2387  -14.7882   25.2418 O   0  0  0  0  0  0  0  0  0  0  0  0
    7.4589  -13.6390   26.0683 N   0  0  0  0  0  0  0  0  0  0  0  0
    6.0538  -13.2735   26.1579 C   0  0  0  0  0  0  0  0  0  0  0  0
    6.1346  -11.8299   26.7303 C   0  0  0  0  0  0  0  0  0  0  0  0
    7.1597  -12.1036   27.8139 C   0  0  0  0  0  0  0  0  0  0  0  0
    8.1874  -12.9221   27.1017 C   0  0  1  0  0  0  0  0  0  0  0  0
    8.9370  -13.8211   27.9843 C   0  0  0  0  0  0  0  0  0  0  0  0
    9.8245  -13.3630   28.7264 O   0  0  0  0  0  0  0  0  0  0  0  0
    8.6713  -15.1753   28.0043 O   0  0  0  0  0  0  0  0  0  0  0  0
  2  3  1  6
  2  1  1  0
  4  6  1  0
  4  2  1  0
  4  5  1  6
  6  7  2  0
  8  9  1  0
  9 11  1  0
  9 10  2  0
 11 12  1  0
 13 12  1  1
 14  6  1  0
 14 13  1  0
 15 17  1  0
 15 13  1  0
 16 15  2  0
 17 18  1  0
 19 18  1  0
 20 19  1  0
 21 20  1  0
 21 17  1  0
 22 24  1  0
 21 22  1  1
 23 22  2  0
M  END
$$$$
