FPS.pdb
     RDKit          3D

 25 26  0  0  1  0  0  0  0  0999 V2000
   18.0760  -12.0040  -16.1331 N   0  0  0  0  0  0  0  0  0  0  0  0
   19.0423  -11.1942  -16.8135 C   0  0  1  0  0  0  0  0  0  0  0  0
   18.4521  -10.6856  -18.1313 C   0  0  0  0  0  0  0  0  0  0  0  0
   18.0009  -11.8768  -18.8892 C   0  0  0  0  0  0  0  0  0  0  0  0
   16.6967  -12.2965  -18.9718 C   0  0  0  0  0  0  0  0  0  0  0  0
   16.3118  -13.4112  -19.6845 C   0  0  0  0  0  0  0  0  0  0  0  0
   17.2808  -14.1367  -20.3438 C   0  0  0  0  0  0  0  0  0  0  0  0
   18.6096  -13.7562  -20.2923 C   0  0  0  0  0  0  0  0  0  0  0  0
   18.9489  -12.6195  -19.5570 C   0  0  0  0  0  0  0  0  0  0  0  0
   19.6388  -10.0984  -16.0405 C   0  0  0  0  0  0  0  0  0  0  0  0
   18.9086   -9.0371  -16.0222 O   0  0  0  0  0  0  0  0  0  0  0  0
   20.8695  -10.1281  -15.3637 N   0  0  0  0  0  0  0  0  0  0  0  0
   21.4009  -11.2533  -14.5508 C   0  0  0  0  0  0  0  0  0  0  0  0
   22.8302  -11.3418  -15.1225 C   0  0  0  0  0  0  0  0  0  0  0  0
   23.0966   -9.9920  -15.7768 C   0  0  0  0  0  0  0  0  0  0  0  0
   21.9272   -9.1770  -15.2093 C   0  0  1  0  0  0  0  0  0  0  0  0
   21.8429   -7.8546  -15.7274 C   0  0  0  0  0  0  0  0  0  0  0  0
   21.8910   -7.4521  -16.9025 O   0  0  0  0  0  0  0  0  0  0  0  0
   19.6197   -5.2656  -13.9423 O   0  0  0  0  0  0  0  0  0  0  0  0
   20.2218   -4.9394  -15.1399 C   0  0  0  0  0  0  0  0  0  0  0  0
   21.6841   -5.4045  -15.1381 C   0  0  2  0  0  0  0  0  0  0  0  0
   21.6739   -6.7935  -14.7443 N   0  0  0  0  0  0  0  0  0  0  0  0
   22.3652   -4.5626  -14.0903 C   0  0  0  0  0  0  0  0  0  0  0  0
   22.7945   -5.0836  -13.0306 O   0  0  0  0  0  0  0  0  0  0  0  0
   22.5451   -3.1957  -14.2481 O   0  0  0  0  0  0  0  0  0  0  0  0
  2  1  1  1
  2 10  1  0
  3  2  1  0
  4  3  1  0
  4  9  1  0
  5  4  2  0
  6  5  1  0
  6  7  2  0
  7  8  1  0
  8  9  2  0
 10 11  2  0
 10 12  1  0
 12 13  1  0
 13 14  1  0
 15 14  1  0
 16 12  1  0
 16 15  1  0
 16 17  1  6
 18 17  2  0
 19 20  1  0
 21 20  1  1
 21 22  1  0
 21 23  1  0
 22 17  1  0
 23 25  1  0
 24 23  2  0
M  END
$$$$
