FPS.pdb
     RDKit          3D

 25 26  0  0  1  0  0  0  0  0999 V2000
   25.0911  -20.0709   -7.6797 N   0  0  0  0  0  0  0  0  0  0  0  0
   26.2103  -20.1240   -8.5725 C   0  0  1  0  0  0  0  0  0  0  0  0
   27.2828  -21.0541   -7.9996 C   0  0  0  0  0  0  0  0  0  0  0  0
   27.7810  -20.4219   -6.7551 C   0  0  0  0  0  0  0  0  0  0  0  0
   27.3213  -20.7174   -5.4960 C   0  0  0  0  0  0  0  0  0  0  0  0
   27.8059  -20.1084   -4.3590 C   0  0  0  0  0  0  0  0  0  0  0  0
   28.7970  -19.1598   -4.4931 C   0  0  0  0  0  0  0  0  0  0  0  0
   29.2949  -18.8256   -5.7395 C   0  0  0  0  0  0  0  0  0  0  0  0
   28.7712  -19.4708   -6.8608 C   0  0  0  0  0  0  0  0  0  0  0  0
   25.9158  -20.4513   -9.9726 C   0  0  0  0  0  0  0  0  0  0  0  0
   24.7915  -21.0621  -10.1229 O   0  0  0  0  0  0  0  0  0  0  0  0
   26.7234  -20.1613  -11.0850 N   0  0  0  0  0  0  0  0  0  0  0  0
   27.8735  -19.2203  -11.1173 C   0  0  0  0  0  0  0  0  0  0  0  0
   28.9203  -20.1050  -11.8239 C   0  0  0  0  0  0  0  0  0  0  0  0
   28.1264  -21.1881  -12.5432 C   0  0  0  0  0  0  0  0  0  0  0  0
   26.7122  -20.6011  -12.4465 C   0  0  1  0  0  0  0  0  0  0  0  0
   25.6982  -21.4559  -12.9616 C   0  0  0  0  0  0  0  0  0  0  0  0
   25.6760  -22.6939  -13.0709 O   0  0  0  0  0  0  0  0  0  0  0  0
   21.9879  -19.8966  -13.0915 O   0  0  0  0  0  0  0  0  0  0  0  0
   22.1574  -21.2590  -13.2280 C   0  0  0  0  0  0  0  0  0  0  0  0
   23.4209  -21.5530  -14.0477 C   0  0  2  0  0  0  0  0  0  0  0  0
   24.4908  -20.7972  -13.4403 N   0  0  0  0  0  0  0  0  0  0  0  0
   23.1246  -21.0328  -15.4305 C   0  0  0  0  0  0  0  0  0  0  0  0
   23.6951  -19.9995  -15.8612 O   0  0  0  0  0  0  0  0  0  0  0  0
   22.2223  -21.6632  -16.2756 O   0  0  0  0  0  0  0  0  0  0  0  0
  2  1  1  1
  2 10  1  0
  3  2  1  0
  4  3  1  0
  4  9  1  0
  5  4  2  0
  6  5  1  0
  6  7  2  0
  7  8  1  0
  8  9  2  0
 10 11  2  0
 10 12  1  0
 12 13  1  0
 13 14  1  0
 15 14  1  0
 16 12  1  0
 16 15  1  0
 16 17  1  1
 18 17  2  0
 19 20  1  0
 21 20  1  1
 21 22  1  0
 21 23  1  0
 22 17  1  0
 23 25  1  0
 24 23  2  0
M  END
$$$$
