FPS.pdb
     RDKit          3D

 25 26  0  0  1  0  0  0  0  0999 V2000
   25.8170  -18.8380   -7.8889 N   0  0  0  0  0  0  0  0  0  0  0  0
   26.6285  -19.7384   -8.6527 C   0  0  1  0  0  0  0  0  0  0  0  0
   27.0050  -20.9479   -7.7931 C   0  0  0  0  0  0  0  0  0  0  0  0
   27.8080  -20.4359   -6.6573 C   0  0  0  0  0  0  0  0  0  0  0  0
   29.1697  -20.2659   -6.6832 C   0  0  0  0  0  0  0  0  0  0  0  0
   29.8861  -19.7889   -5.6072 C   0  0  0  0  0  0  0  0  0  0  0  0
   29.2036  -19.4683   -4.4534 C   0  0  0  0  0  0  0  0  0  0  0  0
   27.8311  -19.6212   -4.3754 C   0  0  0  0  0  0  0  0  0  0  0  0
   27.1507  -20.1081   -5.4925 C   0  0  0  0  0  0  0  0  0  0  0  0
   26.0947  -20.1569   -9.9542 C   0  0  0  0  0  0  0  0  0  0  0  0
   24.8962  -20.6241   -9.8822 O   0  0  0  0  0  0  0  0  0  0  0  0
   26.7585  -20.0857  -11.1903 N   0  0  0  0  0  0  0  0  0  0  0  0
   27.9166  -19.2142  -11.5193 C   0  0  0  0  0  0  0  0  0  0  0  0
   28.8423  -20.2465  -12.1939 C   0  0  0  0  0  0  0  0  0  0  0  0
   27.9369  -21.3949  -12.6209 C   0  0  0  0  0  0  0  0  0  0  0  0
   26.5613  -20.7377  -12.4485 C   0  0  1  0  0  0  0  0  0  0  0  0
   25.4693  -21.6184  -12.6862 C   0  0  0  0  0  0  0  0  0  0  0  0
   25.1862  -22.7033  -12.1496 O   0  0  0  0  0  0  0  0  0  0  0  0
   21.2572  -21.1394  -12.1882 O   0  0  0  0  0  0  0  0  0  0  0  0
   22.5612  -20.7592  -12.4303 C   0  0  0  0  0  0  0  0  0  0  0  0
   23.1257  -21.5431  -13.6225 C   0  0  2  0  0  0  0  0  0  0  0  0
   24.5255  -21.2018  -13.7141 N   0  0  0  0  0  0  0  0  0  0  0  0
   22.3760  -21.0288  -14.8242 C   0  0  0  0  0  0  0  0  0  0  0  0
   22.6893  -19.9327  -15.3527 O   0  0  0  0  0  0  0  0  0  0  0  0
   21.3230  -21.7329  -15.3908 O   0  0  0  0  0  0  0  0  0  0  0  0
  2  1  1  1
  2 10  1  0
  3  2  1  0
  4  3  1  0
  4  9  1  0
  5  4  2  0
  6  5  1  0
  6  7  2  0
  7  8  1  0
  8  9  2  0
 10 11  2  0
 10 12  1  0
 12 13  1  0
 13 14  1  0
 15 14  1  0
 16 12  1  0
 16 15  1  0
 16 17  1  1
 18 17  2  0
 19 20  1  0
 21 20  1  1
 21 22  1  0
 21 23  1  0
 22 17  1  0
 23 25  1  0
 24 23  2  0
M  END
$$$$
