FPS.pdb
     RDKit          3D

 25 26  0  0  1  0  0  0  0  0999 V2000
   23.8311  -12.6844  -16.4708 N   0  0  0  0  0  0  0  0  0  0  0  0
   22.8176  -11.8931  -17.1026 C   0  0  1  0  0  0  0  0  0  0  0  0
   21.4580  -12.5799  -16.9498 C   0  0  0  0  0  0  0  0  0  0  0  0
   21.5611  -13.8948  -17.6259 C   0  0  0  0  0  0  0  0  0  0  0  0
   21.4526  -15.1059  -16.9895 C   0  0  0  0  0  0  0  0  0  0  0  0
   21.5557  -16.3112  -17.6491 C   0  0  0  0  0  0  0  0  0  0  0  0
   21.7779  -16.2990  -19.0094 C   0  0  0  0  0  0  0  0  0  0  0  0
   21.8949  -15.1053  -19.6982 C   0  0  0  0  0  0  0  0  0  0  0  0
   21.7830  -13.9110  -18.9849 C   0  0  0  0  0  0  0  0  0  0  0  0
   22.7475  -10.4816  -16.7068 C   0  0  0  0  0  0  0  0  0  0  0  0
   22.5485  -10.3203  -15.4441 O   0  0  0  0  0  0  0  0  0  0  0  0
   22.8756   -9.3695  -17.5556 N   0  0  0  0  0  0  0  0  0  0  0  0
   23.6982   -9.2946  -18.7913 C   0  0  0  0  0  0  0  0  0  0  0  0
   22.6679   -8.6783  -19.7589 C   0  0  0  0  0  0  0  0  0  0  0  0
   21.6141   -8.0222  -18.8757 C   0  0  0  0  0  0  0  0  0  0  0  0
   22.3383   -8.0439  -17.5233 C   0  0  1  0  0  0  0  0  0  0  0  0
   21.5474   -7.5697  -16.4397 C   0  0  0  0  0  0  0  0  0  0  0  0
   20.4648   -7.9902  -15.9966 O   0  0  0  0  0  0  0  0  0  0  0  0
   22.6595   -6.8381  -12.9857 O   0  0  0  0  0  0  0  0  0  0  0  0
   22.2881   -5.6082  -13.4885 C   0  0  0  0  0  0  0  0  0  0  0  0
   21.3175   -5.7906  -14.6629 C   0  0  2  0  0  0  0  0  0  0  0  0
   22.0703   -6.4128  -15.7263 N   0  0  0  0  0  0  0  0  0  0  0  0
   20.9037   -4.3955  -15.0539 C   0  0  0  0  0  0  0  0  0  0  0  0
   20.1666   -3.7119  -14.3002 O   0  0  0  0  0  0  0  0  0  0  0  0
   21.3128   -3.8139  -16.2456 O   0  0  0  0  0  0  0  0  0  0  0  0
  2  1  1  1
  2 10  1  0
  3  2  1  0
  4  3  1  0
  4  9  1  0
  5  4  2  0
  6  5  1  0
  6  7  2  0
  7  8  1  0
  8  9  2  0
 10 11  2  0
 10 12  1  0
 12 13  1  0
 13 14  1  0
 15 14  1  0
 16 12  1  0
 16 15  1  0
 16 17  1  1
 18 17  2  0
 19 20  1  0
 21 20  1  1
 21 22  1  0
 21 23  1  0
 22 17  1  0
 23 25  1  0
 24 23  2  0
M  END
$$$$
