FPS.pdb
     RDKit          3D

 25 26  0  0  1  0  0  0  0  0999 V2000
   25.3741  -19.3332   -7.8170 N   0  0  0  0  0  0  0  0  0  0  0  0
   26.3726  -19.8849   -8.6837 C   0  0  1  0  0  0  0  0  0  0  0  0
   27.0899  -21.0371   -7.9755 C   0  0  0  0  0  0  0  0  0  0  0  0
   27.7818  -20.4563   -6.8004 C   0  0  0  0  0  0  0  0  0  0  0  0
   28.8608  -19.6113   -6.8738 C   0  0  0  0  0  0  0  0  0  0  0  0
   29.4822  -19.0904   -5.7598 C   0  0  0  0  0  0  0  0  0  0  0  0
   28.9976  -19.4341   -4.5160 C   0  0  0  0  0  0  0  0  0  0  0  0
   27.9125  -20.2823   -4.3871 C   0  0  0  0  0  0  0  0  0  0  0  0
   27.3177  -20.7836   -5.5458 C   0  0  0  0  0  0  0  0  0  0  0  0
   25.9287  -20.2801  -10.0257 C   0  0  0  0  0  0  0  0  0  0  0  0
   24.7587  -20.8195  -10.0324 O   0  0  0  0  0  0  0  0  0  0  0  0
   26.6458  -20.1191  -11.2229 N   0  0  0  0  0  0  0  0  0  0  0  0
   27.8152  -19.2268  -11.4362 C   0  0  0  0  0  0  0  0  0  0  0  0
   28.7720  -20.2077  -12.1433 C   0  0  0  0  0  0  0  0  0  0  0  0
   27.8888  -21.3209  -12.6925 C   0  0  0  0  0  0  0  0  0  0  0  0
   26.5055  -20.6769  -12.5330 C   0  0  1  0  0  0  0  0  0  0  0  0
   25.4270  -21.5369  -12.8822 C   0  0  0  0  0  0  0  0  0  0  0  0
   25.3559  -22.7777  -12.8629 O   0  0  0  0  0  0  0  0  0  0  0  0
   22.0586  -20.0485  -12.2618 O   0  0  0  0  0  0  0  0  0  0  0  0
   21.8228  -20.7934  -13.3989 C   0  0  0  0  0  0  0  0  0  0  0  0
   23.0523  -21.6486  -13.7327 C   0  0  2  0  0  0  0  0  0  0  0  0
   24.2084  -20.8806  -13.3350 N   0  0  0  0  0  0  0  0  0  0  0  0
   23.0202  -21.8197  -15.2294 C   0  0  0  0  0  0  0  0  0  0  0  0
   23.8102  -21.1755  -15.9641 O   0  0  0  0  0  0  0  0  0  0  0  0
   22.1299  -22.6831  -15.8520 O   0  0  0  0  0  0  0  0  0  0  0  0
  2  1  1  1
  2 10  1  0
  3  2  1  0
  4  3  1  0
  4  9  1  0
  5  4  2  0
  6  5  1  0
  6  7  2  0
  7  8  1  0
  8  9  2  0
 10 11  2  0
 10 12  1  0
 12 13  1  0
 13 14  1  0
 15 14  1  0
 16 12  1  0
 16 15  1  0
 16 17  1  1
 18 17  2  0
 19 20  1  0
 21 20  1  6
 21 22  1  0
 21 23  1  0
 22 17  1  0
 23 25  1  0
 24 23  2  0
M  END
$$$$
