CWF.pdb
     RDKit          3D

 32 34  0  0  1  0  0  0  0  0999 V2000
    7.5640  -14.9021   19.4104 N   0  0  0  0  0  0  0  0  0  0  0  0
    8.3458  -15.9750   19.9819 C   0  0  1  0  0  0  0  0  0  0  0  0
    9.5145  -16.3135   19.0754 C   0  0  0  0  0  0  0  0  0  0  0  0
   10.3659  -17.7577   19.7652 S   0  0  0  0  0  0  0  0  0  0  0  0
    8.7852  -15.5704   21.3268 C   0  0  0  0  0  0  0  0  0  0  0  0
    9.3637  -14.4380   21.4981 O   0  0  0  0  0  0  0  0  0  0  0  0
    8.6219  -16.3380   22.4937 N   0  0  0  0  0  0  0  0  0  0  0  0
    9.0712  -16.0193   23.8249 C   0  0  1  0  0  0  0  0  0  0  0  0
    8.0617  -16.5106   24.7807 C   0  0  0  0  0  0  0  0  0  0  0  0
    7.0596  -15.5072   25.1860 C   0  0  0  0  0  0  0  0  0  0  0  0
    5.8011  -15.7318   25.7312 C   0  0  0  0  0  0  0  0  0  0  0  0
    5.2289  -14.5160   25.9239 N   0  0  0  0  0  0  0  0  0  0  0  0
    6.0638  -13.5321   25.5284 C   0  0  0  0  0  0  0  0  0  0  0  0
    5.9949  -12.1619   25.5111 C   0  0  0  0  0  0  0  0  0  0  0  0
    7.0323  -11.3727   25.0449 C   0  0  0  0  0  0  0  0  0  0  0  0
    8.1754  -11.9607   24.5802 C   0  0  0  0  0  0  0  0  0  0  0  0
    8.2390  -13.3357   24.6010 C   0  0  0  0  0  0  0  0  0  0  0  0
    7.2123  -14.1512   25.0643 C   0  0  0  0  0  0  0  0  0  0  0  0
   10.4601  -16.4828   23.9946 C   0  0  0  0  0  0  0  0  0  0  0  0
   11.1823  -16.9804   23.1082 O   0  0  0  0  0  0  0  0  0  0  0  0
   11.0254  -16.3580   25.2909 N   0  0  0  0  0  0  0  0  0  0  0  0
   12.3124  -16.9688   25.6551 C   0  0  1  0  0  0  0  0  0  0  0  0
   12.5716  -16.5383   27.0777 C   0  0  0  0  0  0  0  0  0  0  0  0
   11.4567  -15.6725   27.5364 C   0  0  0  0  0  0  0  0  0  0  0  0
   11.3924  -14.3835   27.0088 C   0  0  0  0  0  0  0  0  0  0  0  0
   10.3661  -13.5681   27.3886 C   0  0  0  0  0  0  0  0  0  0  0  0
    9.4063  -13.9716   28.2640 C   0  0  0  0  0  0  0  0  0  0  0  0
    9.4735  -15.2701   28.7934 C   0  0  0  0  0  0  0  0  0  0  0  0
   10.4987  -16.1004   28.4216 C   0  0  0  0  0  0  0  0  0  0  0  0
   12.2049  -18.4338   25.5675 C   0  0  0  0  0  0  0  0  0  0  0  0
   11.0760  -18.9817   25.2935 O   0  0  0  0  0  0  0  0  0  0  0  0
   13.2737  -19.2879   25.7641 O   0  0  0  0  0  0  0  0  0  0  0  0
  2  3  1  0
  2  1  1  6
  4  3  1  0
  5  2  1  0
  6  5  2  0
  7  5  1  0
  8  7  1  0
  9 10  1  0
  8  9  1  1
 10 18  1  0
 10 11  2  0
 11 12  1  0
 13 12  1  0
 13 14  2  0
 15 14  1  0
 16 15  2  0
 17 16  1  0
 17 18  2  0
 18 13  1  0
 19  8  1  0
 19 21  1  0
 20 19  2  0
 22 21  1  0
 22 30  1  0
 22 23  1  1
 24 29  1  0
 24 23  1  0
 25 24  2  0
 26 27  2  0
 26 25  1  0
 27 28  1  0
 28 29  2  0
 30 32  1  0
 31 30  2  0
M  END
$$$$
