CWF.pdb
     RDKit          3D

 32 34  0  0  1  0  0  0  0  0999 V2000
   10.5014  -17.3944   18.6698 N   0  0  0  0  0  0  0  0  0  0  0  0
   10.1115  -17.9951   19.9253 C   0  0  1  0  0  0  0  0  0  0  0  0
   11.1979  -18.9322   20.4187 C   0  0  0  0  0  0  0  0  0  0  0  0
   12.6454  -17.9359   20.8641 S   0  0  0  0  0  0  0  0  0  0  0  0
    9.8238  -16.9216   20.8898 C   0  0  0  0  0  0  0  0  0  0  0  0
   10.2649  -15.7353   20.6784 O   0  0  0  0  0  0  0  0  0  0  0  0
    9.0767  -17.0772   22.0709 N   0  0  0  0  0  0  0  0  0  0  0  0
    8.6939  -16.0534   23.0096 C   0  0  1  0  0  0  0  0  0  0  0  0
    7.3842  -16.4191   23.5797 C   0  0  0  0  0  0  0  0  0  0  0  0
    6.9121  -15.5279   24.6558 C   0  0  0  0  0  0  0  0  0  0  0  0
    6.5371  -15.8765   25.9478 C   0  0  0  0  0  0  0  0  0  0  0  0
    6.1558  -14.7334   26.5729 N   0  0  0  0  0  0  0  0  0  0  0  0
    6.2717  -13.6776   25.7403 C   0  0  0  0  0  0  0  0  0  0  0  0
    6.0380  -12.3307   25.8576 C   0  0  0  0  0  0  0  0  0  0  0  0
    6.2568  -11.4462   24.8153 C   0  0  0  0  0  0  0  0  0  0  0  0
    6.7222  -11.9119   23.6174 C   0  0  0  0  0  0  0  0  0  0  0  0
    6.9556  -13.2641   23.5061 C   0  0  0  0  0  0  0  0  0  0  0  0
    6.7450  -14.1733   24.5369 C   0  0  0  0  0  0  0  0  0  0  0  0
    9.8062  -15.8098   23.9456 C   0  0  0  0  0  0  0  0  0  0  0  0
   10.3485  -14.7100   24.1722 O   0  0  0  0  0  0  0  0  0  0  0  0
   10.3124  -16.9345   24.6488 N   0  0  0  0  0  0  0  0  0  0  0  0
   11.5438  -16.8780   25.4503 C   0  0  1  0  0  0  0  0  0  0  0  0
   11.1363  -17.2994   26.8405 C   0  0  0  0  0  0  0  0  0  0  0  0
   10.8076  -16.0927   27.6397 C   0  0  0  0  0  0  0  0  0  0  0  0
   10.3047  -16.2967   28.9241 C   0  0  0  0  0  0  0  0  0  0  0  0
   10.0153  -15.2099   29.6971 C   0  0  0  0  0  0  0  0  0  0  0  0
   10.2010  -13.9367   29.2554 C   0  0  0  0  0  0  0  0  0  0  0  0
   10.7077  -13.7345   27.9619 C   0  0  0  0  0  0  0  0  0  0  0  0
   11.0026  -14.8163   27.1736 C   0  0  0  0  0  0  0  0  0  0  0  0
   12.5365  -17.8114   24.8949 C   0  0  0  0  0  0  0  0  0  0  0  0
   13.7120  -17.8820   25.4078 O   0  0  0  0  0  0  0  0  0  0  0  0
   12.2793  -18.6471   23.8245 O   0  0  0  0  0  0  0  0  0  0  0  0
  2  3  1  0
  2  1  1  6
  4  3  1  0
  5  2  1  0
  6  5  2  0
  7  5  1  0
  8  7  1  0
  9 10  1  0
  8  9  1  1
 10 18  1  0
 10 11  2  0
 11 12  1  0
 13 12  1  0
 13 14  2  0
 15 14  1  0
 16 15  2  0
 17 16  1  0
 17 18  2  0
 18 13  1  0
 19  8  1  0
 19 21  1  0
 20 19  2  0
 22 21  1  0
 22 30  1  0
 22 23  1  1
 24 29  1  0
 24 23  1  0
 25 24  2  0
 26 27  2  0
 26 25  1  0
 27 28  1  0
 28 29  2  0
 30 32  1  0
 31 30  2  0
M  END
$$$$
