CWF.pdb
     RDKit          3D

 32 34  0  0  1  0  0  0  0  0999 V2000
   11.0295  -17.2002   19.2516 N   0  0  0  0  0  0  0  0  0  0  0  0
   10.4032  -17.7855   20.4152 C   0  0  1  0  0  0  0  0  0  0  0  0
   11.1524  -19.0336   20.8428 C   0  0  0  0  0  0  0  0  0  0  0  0
   12.6614  -19.1573   19.8457 S   0  0  0  0  0  0  0  0  0  0  0  0
   10.3561  -16.7730   21.4820 C   0  0  0  0  0  0  0  0  0  0  0  0
   11.0419  -15.6941   21.3719 O   0  0  0  0  0  0  0  0  0  0  0  0
    9.5962  -16.8777   22.6605 N   0  0  0  0  0  0  0  0  0  0  0  0
    9.0577  -15.8045   23.4568 C   0  0  1  0  0  0  0  0  0  0  0  0
    7.5922  -15.8024   23.2944 C   0  0  0  0  0  0  0  0  0  0  0  0
    6.8617  -15.0316   24.3179 C   0  0  0  0  0  0  0  0  0  0  0  0
    6.0034  -15.5158   25.2978 C   0  0  0  0  0  0  0  0  0  0  0  0
    5.5500  -14.4424   25.9944 N   0  0  0  0  0  0  0  0  0  0  0  0
    6.0800  -13.3021   25.5043 C   0  0  0  0  0  0  0  0  0  0  0  0
    5.9717  -11.9738   25.8306 C   0  0  0  0  0  0  0  0  0  0  0  0
    6.6542  -10.9834   25.1452 C   0  0  0  0  0  0  0  0  0  0  0  0
    7.4706  -11.3204   24.1020 C   0  0  0  0  0  0  0  0  0  0  0  0
    7.5759  -12.6547   23.7799 C   0  0  0  0  0  0  0  0  0  0  0  0
    6.9023  -13.6687   24.4521 C   0  0  0  0  0  0  0  0  0  0  0  0
    9.5966  -15.8955   24.8257 C   0  0  0  0  0  0  0  0  0  0  0  0
    9.1904  -15.2608   25.8192 O   0  0  0  0  0  0  0  0  0  0  0  0
   10.6853  -16.7835   25.0301 N   0  0  0  0  0  0  0  0  0  0  0  0
   12.0875  -16.3523   24.9307 C   0  0  1  0  0  0  0  0  0  0  0  0
   12.2127  -15.1779   25.8695 C   0  0  0  0  0  0  0  0  0  0  0  0
   11.2777  -15.3609   27.0076 C   0  0  0  0  0  0  0  0  0  0  0  0
   10.3464  -16.3937   26.9073 C   0  0  0  0  0  0  0  0  0  0  0  0
    9.4875  -16.6076   27.9459 C   0  0  0  0  0  0  0  0  0  0  0  0
    9.5105  -15.8467   29.0733 C   0  0  0  0  0  0  0  0  0  0  0  0
   10.4494  -14.8077   29.1716 C   0  0  0  0  0  0  0  0  0  0  0  0
   11.3184  -14.5805   28.1363 C   0  0  0  0  0  0  0  0  0  0  0  0
   12.9718  -17.4503   25.3522 C   0  0  0  0  0  0  0  0  0  0  0  0
   12.4758  -18.5093   25.8836 O   0  0  0  0  0  0  0  0  0  0  0  0
   14.3460  -17.4186   25.2071 O   0  0  0  0  0  0  0  0  0  0  0  0
  2  3  1  0
  2  1  1  6
  4  3  1  0
  5  2  1  0
  6  5  2  0
  7  5  1  0
  8  7  1  0
  9 10  1  0
  8  9  1  1
 10 18  1  0
 10 11  2  0
 11 12  1  0
 13 12  1  0
 13 14  2  0
 15 14  1  0
 16 15  2  0
 17 16  1  0
 17 18  2  0
 18 13  1  0
 19  8  1  0
 19 21  1  0
 20 19  2  0
 22 21  1  0
 22 30  1  0
 22 23  1  1
 24 29  1  0
 24 23  1  0
 25 24  2  0
 26 27  2  0
 26 25  1  0
 27 28  1  0
 28 29  2  0
 30 32  1  0
 31 30  2  0
M  END
$$$$
