CWF.pdb
     RDKit          3D

 32 34  0  0  1  0  0  0  0  0999 V2000
    9.4730  -19.8934   20.9601 N   0  0  0  0  0  0  0  0  0  0  0  0
    8.6270  -19.2684   21.9514 C   0  0  1  0  0  0  0  0  0  0  0  0
    8.5532  -20.1307   23.1975 C   0  0  0  0  0  0  0  0  0  0  0  0
   10.2214  -20.2618   23.8947 S   0  0  0  0  0  0  0  0  0  0  0  0
    9.1528  -17.9239   22.2366 C   0  0  0  0  0  0  0  0  0  0  0  0
   10.3027  -17.5767   21.7852 O   0  0  0  0  0  0  0  0  0  0  0  0
    8.4856  -16.9392   22.9866 N   0  0  0  0  0  0  0  0  0  0  0  0
    8.8736  -15.5643   23.1737 C   0  0  1  0  0  0  0  0  0  0  0  0
    7.6914  -14.7165   22.9338 C   0  0  0  0  0  0  0  0  0  0  0  0
    7.2635  -14.6433   21.5243 C   0  0  0  0  0  0  0  0  0  0  0  0
    6.2473  -15.3602   20.9040 C   0  0  0  0  0  0  0  0  0  0  0  0
    6.2305  -14.9793   19.6011 N   0  0  0  0  0  0  0  0  0  0  0  0
    7.1859  -14.0555   19.3660 C   0  0  0  0  0  0  0  0  0  0  0  0
    7.5881  -13.3482   18.2612 C   0  0  0  0  0  0  0  0  0  0  0  0
    8.6225  -12.4293   18.3046 C   0  0  0  0  0  0  0  0  0  0  0  0
    9.2803  -12.2041   19.4815 C   0  0  0  0  0  0  0  0  0  0  0  0
    8.8717  -12.9160   20.5867 C   0  0  0  0  0  0  0  0  0  0  0  0
    7.8359  -13.8437   20.5704 C   0  0  0  0  0  0  0  0  0  0  0  0
    9.5671  -15.4253   24.4670 C   0  0  0  0  0  0  0  0  0  0  0  0
   10.3501  -14.5089   24.7862 O   0  0  0  0  0  0  0  0  0  0  0  0
    9.3266  -16.4339   25.4368 N   0  0  0  0  0  0  0  0  0  0  0  0
    9.7066  -16.2805   26.8489 C   0  0  1  0  0  0  0  0  0  0  0  0
    8.4098  -16.0761   27.5924 C   0  0  0  0  0  0  0  0  0  0  0  0
    7.9505  -14.6782   27.3976 C   0  0  0  0  0  0  0  0  0  0  0  0
    6.7187  -14.4939   26.7708 C   0  0  0  0  0  0  0  0  0  0  0  0
    6.2529  -13.2229   26.5977 C   0  0  0  0  0  0  0  0  0  0  0  0
    6.9505  -12.1325   27.0159 C   0  0  0  0  0  0  0  0  0  0  0  0
    8.1903  -12.3213   27.6469 C   0  0  0  0  0  0  0  0  0  0  0  0
    8.6714  -13.5919   27.8274 C   0  0  0  0  0  0  0  0  0  0  0  0
   10.3839  -17.5018   27.3125 C   0  0  0  0  0  0  0  0  0  0  0  0
   10.4787  -18.5203   26.5357 O   0  0  0  0  0  0  0  0  0  0  0  0
   10.9461  -17.6295   28.5687 O   0  0  0  0  0  0  0  0  0  0  0  0
  2  3  1  0
  2  1  1  6
  4  3  1  0
  5  2  1  0
  6  5  2  0
  7  5  1  0
  8  7  1  0
  9 10  1  0
  8  9  1  1
 10 18  1  0
 10 11  2  0
 11 12  1  0
 13 12  1  0
 13 14  2  0
 15 14  1  0
 16 15  2  0
 17 16  1  0
 17 18  2  0
 18 13  1  0
 19  8  1  0
 19 21  1  0
 20 19  2  0
 22 21  1  0
 22 30  1  0
 22 23  1  1
 24 29  1  0
 24 23  1  0
 25 24  2  0
 26 27  2  0
 26 25  1  0
 27 28  1  0
 28 29  2  0
 30 32  1  0
 31 30  2  0
M  END
$$$$
