CWF.pdb
     RDKit          3D

 32 34  0  0  1  0  0  0  0  0999 V2000
    3.1369  -18.4487   21.4442 N   0  0  0  0  0  0  0  0  0  0  0  0
    4.2220  -18.9762   22.2400 C   0  0  1  0  0  0  0  0  0  0  0  0
    5.0106  -19.9973   21.4416 C   0  0  0  0  0  0  0  0  0  0  0  0
    5.8155  -19.1385   20.0628 S   0  0  0  0  0  0  0  0  0  0  0  0
    5.0616  -17.8547   22.6905 C   0  0  0  0  0  0  0  0  0  0  0  0
    5.1356  -16.7859   21.9844 O   0  0  0  0  0  0  0  0  0  0  0  0
    5.8213  -17.8403   23.8737 N   0  0  0  0  0  0  0  0  0  0  0  0
    6.7799  -16.8487   24.2903 C   0  0  1  0  0  0  0  0  0  0  0  0
    6.7757  -16.7958   25.7638 C   0  0  0  0  0  0  0  0  0  0  0  0
    7.5899  -15.7105   26.3420 C   0  0  0  0  0  0  0  0  0  0  0  0
    8.8621  -15.8012   26.8942 C   0  0  0  0  0  0  0  0  0  0  0  0
    9.2022  -14.5562   27.3150 N   0  0  0  0  0  0  0  0  0  0  0  0
    8.2081  -13.6811   27.0555 C   0  0  0  0  0  0  0  0  0  0  0  0
    8.0356  -12.3349   27.2567 C   0  0  0  0  0  0  0  0  0  0  0  0
    6.8839  -11.6690   26.8738 C   0  0  0  0  0  0  0  0  0  0  0  0
    5.8696  -12.3601   26.2719 C   0  0  0  0  0  0  0  0  0  0  0  0
    6.0489  -13.7103   26.0719 C   0  0  0  0  0  0  0  0  0  0  0  0
    7.1953  -14.4027   26.4461 C   0  0  0  0  0  0  0  0  0  0  0  0
    8.0662  -17.1008   23.6160 C   0  0  0  0  0  0  0  0  0  0  0  0
    8.5594  -18.2190   23.3684 O   0  0  0  0  0  0  0  0  0  0  0  0
    8.8172  -15.9634   23.2185 N   0  0  0  0  0  0  0  0  0  0  0  0
   10.0870  -16.0705   22.4851 C   0  0  1  0  0  0  0  0  0  0  0  0
   10.4034  -14.6687   22.0255 C   0  0  0  0  0  0  0  0  0  0  0  0
    9.2788  -14.1599   21.2012 C   0  0  0  0  0  0  0  0  0  0  0  0
    8.4060  -13.2546   21.8036 C   0  0  0  0  0  0  0  0  0  0  0  0
    7.3752  -12.7463   21.0678 C   0  0  0  0  0  0  0  0  0  0  0  0
    7.1722  -13.0941   19.7685 C   0  0  0  0  0  0  0  0  0  0  0  0
    8.0528  -14.0056   19.1646 C   0  0  0  0  0  0  0  0  0  0  0  0
    9.0926  -14.5250   19.8911 C   0  0  0  0  0  0  0  0  0  0  0  0
   11.1365  -16.5702   23.3874 C   0  0  0  0  0  0  0  0  0  0  0  0
   11.7866  -17.6376   23.0909 O   0  0  0  0  0  0  0  0  0  0  0  0
   11.4830  -15.9456   24.5708 O   0  0  0  0  0  0  0  0  0  0  0  0
  2  3  1  0
  2  1  1  6
  4  3  1  0
  5  2  1  0
  6  5  2  0
  7  5  1  0
  8  7  1  0
  9 10  1  0
  8  9  1  1
 10 18  1  0
 10 11  2  0
 11 12  1  0
 13 12  1  0
 13 14  2  0
 15 14  1  0
 16 15  2  0
 17 16  1  0
 17 18  2  0
 18 13  1  0
 19  8  1  0
 19 21  1  0
 20 19  2  0
 22 21  1  0
 22 30  1  0
 22 23  1  1
 24 29  1  0
 24 23  1  0
 25 24  2  0
 26 27  2  0
 26 25  1  0
 27 28  1  0
 28 29  2  0
 30 32  1  0
 31 30  2  0
M  END
$$$$
