CWF.pdb
     RDKit          3D

 32 34  0  0  1  0  0  0  0  0999 V2000
    8.0224  -18.7041   22.4604 N   0  0  0  0  0  0  0  0  0  0  0  0
    9.3040  -19.1863   21.9980 C   0  0  1  0  0  0  0  0  0  0  0  0
    9.2376  -19.5182   20.5190 C   0  0  0  0  0  0  0  0  0  0  0  0
    7.8485  -20.6528   20.2554 S   0  0  0  0  0  0  0  0  0  0  0  0
   10.3233  -18.1667   22.2931 C   0  0  0  0  0  0  0  0  0  0  0  0
   11.5519  -18.3836   21.9934 O   0  0  0  0  0  0  0  0  0  0  0  0
   10.0683  -16.9220   22.8955 N   0  0  0  0  0  0  0  0  0  0  0  0
   11.0116  -15.8670   23.1658 C   0  0  1  0  0  0  0  0  0  0  0  0
   10.3794  -14.5831   22.8111 C   0  0  0  0  0  0  0  0  0  0  0  0
    8.9761  -14.6903   22.3699 C   0  0  0  0  0  0  0  0  0  0  0  0
    7.9549  -15.4331   22.9503 C   0  0  0  0  0  0  0  0  0  0  0  0
    6.8451  -15.2431   22.1918 N   0  0  0  0  0  0  0  0  0  0  0  0
    7.1132  -14.4155   21.1600 C   0  0  0  0  0  0  0  0  0  0  0  0
    6.3745  -13.8971   20.1265 C   0  0  0  0  0  0  0  0  0  0  0  0
    6.9160  -13.0386   19.1851 C   0  0  0  0  0  0  0  0  0  0  0  0
    8.2329  -12.6824   19.2706 C   0  0  0  0  0  0  0  0  0  0  0  0
    8.9687  -13.2050   20.3102 C   0  0  0  0  0  0  0  0  0  0  0  0
    8.4494  -14.0682   21.2688 C   0  0  0  0  0  0  0  0  0  0  0  0
   11.5343  -16.0196   24.5356 C   0  0  0  0  0  0  0  0  0  0  0  0
   12.6925  -15.7545   24.9140 O   0  0  0  0  0  0  0  0  0  0  0  0
   10.6366  -16.5230   25.5135 N   0  0  0  0  0  0  0  0  0  0  0  0
   11.0082  -16.6679   26.9287 C   0  0  1  0  0  0  0  0  0  0  0  0
   11.1980  -15.2607   27.4388 C   0  0  0  0  0  0  0  0  0  0  0  0
    9.9171  -14.5207   27.3179 C   0  0  0  0  0  0  0  0  0  0  0  0
    9.1572  -14.3688   28.4770 C   0  0  0  0  0  0  0  0  0  0  0  0
    7.9859  -13.6720   28.4086 C   0  0  0  0  0  0  0  0  0  0  0  0
    7.5366  -13.1226   27.2480 C   0  0  0  0  0  0  0  0  0  0  0  0
    8.3039  -13.2771   26.0826 C   0  0  0  0  0  0  0  0  0  0  0  0
    9.4825  -13.9748   26.1357 C   0  0  0  0  0  0  0  0  0  0  0  0
    9.9217  -17.3419   27.6570 C   0  0  0  0  0  0  0  0  0  0  0  0
    8.8686  -17.7275   27.0309 O   0  0  0  0  0  0  0  0  0  0  0  0
    9.9611  -17.5990   29.0145 O   0  0  0  0  0  0  0  0  0  0  0  0
  2  3  1  0
  2  1  1  6
  4  3  1  0
  5  2  1  0
  6  5  2  0
  7  5  1  0
  8  7  1  0
  9 10  1  0
  8  9  1  1
 10 18  1  0
 10 11  2  0
 11 12  1  0
 13 12  1  0
 13 14  2  0
 15 14  1  0
 16 15  2  0
 17 16  1  0
 17 18  2  0
 18 13  1  0
 19  8  1  0
 19 21  1  0
 20 19  2  0
 22 21  1  0
 22 30  1  0
 22 23  1  1
 24 29  1  0
 24 23  1  0
 25 24  2  0
 26 27  2  0
 26 25  1  0
 27 28  1  0
 28 29  2  0
 30 32  1  0
 31 30  2  0
M  END
$$$$
