CWF.pdb
     RDKit          3D

 32 34  0  0  1  0  0  0  0  0999 V2000
   10.6659  -19.3457   19.7472 N   0  0  0  0  0  0  0  0  0  0  0  0
    9.7794  -18.9034   20.7996 C   0  0  1  0  0  0  0  0  0  0  0  0
    9.2014  -20.0975   21.5356 C   0  0  0  0  0  0  0  0  0  0  0  0
    9.3859  -21.5580   20.4777 S   0  0  0  0  0  0  0  0  0  0  0  0
   10.5261  -18.0066   21.6961 C   0  0  0  0  0  0  0  0  0  0  0  0
   11.8074  -18.0628   21.7366 O   0  0  0  0  0  0  0  0  0  0  0  0
    9.9450  -17.0501   22.5474 N   0  0  0  0  0  0  0  0  0  0  0  0
   10.6080  -16.2278   23.5272 C   0  0  1  0  0  0  0  0  0  0  0  0
   10.2688  -14.8198   23.2509 C   0  0  0  0  0  0  0  0  0  0  0  0
    8.8736  -14.5953   22.8287 C   0  0  0  0  0  0  0  0  0  0  0  0
    7.7121  -14.9072   23.5251 C   0  0  0  0  0  0  0  0  0  0  0  0
    6.6674  -14.5393   22.7401 N   0  0  0  0  0  0  0  0  0  0  0  0
    7.1105  -14.0089   21.5809 C   0  0  0  0  0  0  0  0  0  0  0  0
    6.5014  -13.4833   20.4694 C   0  0  0  0  0  0  0  0  0  0  0  0
    7.2193  -12.9862   19.3952 C   0  0  0  0  0  0  0  0  0  0  0  0
    8.5857  -13.0111   19.4232 C   0  0  0  0  0  0  0  0  0  0  0  0
    9.1910  -13.5388   20.5414 C   0  0  0  0  0  0  0  0  0  0  0  0
    8.4939  -14.0437   21.6336 C   0  0  0  0  0  0  0  0  0  0  0  0
   10.3231  -16.7507   24.8756 C   0  0  0  0  0  0  0  0  0  0  0  0
    9.3117  -17.3965   25.2148 O   0  0  0  0  0  0  0  0  0  0  0  0
   11.2871  -16.4874   25.8840 N   0  0  0  0  0  0  0  0  0  0  0  0
   11.0637  -16.8205   27.2985 C   0  0  1  0  0  0  0  0  0  0  0  0
    9.6014  -16.5454   27.5485 C   0  0  0  0  0  0  0  0  0  0  0  0
    9.3554  -15.0851   27.4481 C   0  0  0  0  0  0  0  0  0  0  0  0
    8.1487  -14.6800   26.8790 C   0  0  0  0  0  0  0  0  0  0  0  0
    7.8775  -13.3453   26.7935 C   0  0  0  0  0  0  0  0  0  0  0  0
    8.7451  -12.3996   27.2444 C   0  0  0  0  0  0  0  0  0  0  0  0
    9.9592  -12.8104   27.8171 C   0  0  0  0  0  0  0  0  0  0  0  0
   10.2458  -14.1476   27.9094 C   0  0  0  0  0  0  0  0  0  0  0  0
   11.3705  -18.2418   27.5245 C   0  0  0  0  0  0  0  0  0  0  0  0
   11.7048  -18.9936   26.5381 O   0  0  0  0  0  0  0  0  0  0  0  0
   11.3243  -18.8414   28.7691 O   0  0  0  0  0  0  0  0  0  0  0  0
  2  3  1  0
  2  1  1  6
  4  3  1  0
  5  2  1  0
  6  5  2  0
  7  5  1  0
  8  7  1  0
  9 10  1  0
  8  9  1  1
 10 18  1  0
 10 11  2  0
 11 12  1  0
 13 12  1  0
 13 14  2  0
 15 14  1  0
 16 15  2  0
 17 16  1  0
 17 18  2  0
 18 13  1  0
 19  8  1  0
 19 21  1  0
 20 19  2  0
 22 21  1  0
 22 30  1  0
 22 23  1  6
 24 29  1  0
 24 23  1  0
 25 24  2  0
 26 27  2  0
 26 25  1  0
 27 28  1  0
 28 29  2  0
 30 32  1  0
 31 30  2  0
M  END
$$$$
