WLW.pdb
     RDKit          3D

 37 40  0  0  1  0  0  0  0  0999 V2000
   11.4905  -19.0432   18.3961 N   0  0  0  0  0  0  0  0  0  0  0  0
   10.5727  -19.1601   19.5394 C   0  0  1  0  0  0  0  0  0  0  0  0
   11.2591  -20.0792   20.5560 C   0  0  0  0  0  0  0  0  0  0  0  0
   10.7631  -21.4589   20.4273 C   0  0  0  0  0  0  0  0  0  0  0  0
   11.1863  -22.4202   19.5140 C   0  0  0  0  0  0  0  0  0  0  0  0
   10.4623  -23.5178   19.7474 N   0  0  0  0  0  0  0  0  0  0  0  0
    9.5968  -23.2967   20.7699 C   0  0  0  0  0  0  0  0  0  0  0  0
    8.6581  -24.1002   21.3755 C   0  0  0  0  0  0  0  0  0  0  0  0
    7.8958  -23.6162   22.4181 C   0  0  0  0  0  0  0  0  0  0  0  0
    8.0863  -22.3164   22.8457 C   0  0  0  0  0  0  0  0  0  0  0  0
    9.0093  -21.4917   22.2677 C   0  0  0  0  0  0  0  0  0  0  0  0
    9.7694  -22.0015   21.2146 C   0  0  0  0  0  0  0  0  0  0  0  0
   10.4461  -17.8451   20.2248 C   0  0  0  0  0  0  0  0  0  0  0  0
   11.4690  -17.1403   20.3284 O   0  0  0  0  0  0  0  0  0  0  0  0
    8.2991  -13.2200   20.8941 C   0  0  0  0  0  0  0  0  0  0  0  0
    7.4821  -14.2290   21.6494 C   0  0  1  0  0  0  0  0  0  0  0  0
    6.0151  -13.8910   21.3111 C   0  0  0  0  0  0  0  0  0  0  0  0
    7.6955  -15.6387   21.2194 C   0  0  0  0  0  0  0  0  0  0  0  0
    9.0935  -16.1665   21.4241 C   0  0  2  0  0  0  0  0  0  0  0  0
    9.1883  -17.4410   20.7291 N   0  0  0  0  0  0  0  0  0  0  0  0
    9.4939  -16.3107   22.8269 C   0  0  0  0  0  0  0  0  0  0  0  0
    9.3543  -17.4434   23.3716 O   0  0  0  0  0  0  0  0  0  0  0  0
   10.0200  -15.1952   23.5281 N   0  0  0  0  0  0  0  0  0  0  0  0
   10.6179  -15.4110   24.8264 C   0  0  1  0  0  0  0  0  0  0  0  0
    9.9187  -14.5809   25.8873 C   0  0  0  0  0  0  0  0  0  0  0  0
    8.4601  -14.5994   25.7595 C   0  0  0  0  0  0  0  0  0  0  0  0
    7.7327  -15.7046   25.3725 C   0  0  0  0  0  0  0  0  0  0  0  0
    6.4280  -15.3891   25.3620 N   0  0  0  0  0  0  0  0  0  0  0  0
    6.3262  -14.0997   25.7374 C   0  0  0  0  0  0  0  0  0  0  0  0
    5.1990  -13.3052   25.8824 C   0  0  0  0  0  0  0  0  0  0  0  0
    5.3747  -11.9922   26.2857 C   0  0  0  0  0  0  0  0  0  0  0  0
    6.6391  -11.4847   26.5376 C   0  0  0  0  0  0  0  0  0  0  0  0
    7.7635  -12.2635   26.3968 C   0  0  0  0  0  0  0  0  0  0  0  0
    7.5759  -13.5669   25.9957 C   0  0  0  0  0  0  0  0  0  0  0  0
   10.3328  -16.8497   25.1781 C   0  0  0  0  0  0  0  0  0  0  0  0
   11.3562  -17.7762   25.3073 O   0  0  0  0  0  0  0  0  0  0  0  0
    9.1555  -17.2705   25.3689 O   0  0  0  0  0  0  0  0  0  0  0  0
  2  1  1  6
  2  3  1  0
  3  4  1  0
  4  5  2  0
  5  6  1  0
  7  8  2  0
  7  6  1  0
  9  8  1  0
 10  9  2  0
 11 10  1  0
 11 12  2  0
 12  4  1  0
 12  7  1  0
 13  2  1  0
 13 14  2  0
 16 18  1  0
 16 17  1  6
 16 15  1  0
 19 20  1  0
 19 18  1  1
 20 13  1  0
 21 19  1  0
 22 21  2  0
 23 21  1  0
 24 23  1  0
 25 26  1  0
 24 25  1  1
 26 27  2  0
 27 28  1  0
 29 28  1  0
 30 29  2  0
 31 30  1  0
 32 33  1  0
 32 31  2  0
 33 34  2  0
 34 26  1  0
 34 29  1  0
 35 24  1  0
 35 36  1  0
 37 35  2  0
M  END
$$$$
