WLW.pdb
     RDKit          3D

 37 40  0  0  1  0  0  0  0  0999 V2000
    6.6344  -20.0874   24.9494 N   0  0  0  0  0  0  0  0  0  0  0  0
    7.4494  -18.8638   24.9912 C   0  0  1  0  0  0  0  0  0  0  0  0
    8.7107  -19.2084   25.7910 C   0  0  0  0  0  0  0  0  0  0  0  0
    8.6055  -18.7048   27.1699 C   0  0  0  0  0  0  0  0  0  0  0  0
    8.0881  -19.3797   28.2718 C   0  0  0  0  0  0  0  0  0  0  0  0
    8.1792  -18.5462   29.3112 N   0  0  0  0  0  0  0  0  0  0  0  0
    8.7324  -17.3700   28.9185 C   0  0  0  0  0  0  0  0  0  0  0  0
    9.0324  -16.2158   29.6050 C   0  0  0  0  0  0  0  0  0  0  0  0
    9.6051  -15.1453   28.9503 C   0  0  0  0  0  0  0  0  0  0  0  0
    9.8729  -15.2467   27.5988 C   0  0  0  0  0  0  0  0  0  0  0  0
    9.5887  -16.3773   26.8868 C   0  0  0  0  0  0  0  0  0  0  0  0
    9.0095  -17.4479   27.5686 C   0  0  0  0  0  0  0  0  0  0  0  0
    7.9331  -18.5296   23.6238 C   0  0  0  0  0  0  0  0  0  0  0  0
    9.0185  -19.0179   23.2535 O   0  0  0  0  0  0  0  0  0  0  0  0
    7.4448  -14.5881   19.7399 C   0  0  0  0  0  0  0  0  0  0  0  0
    7.3632  -14.2845   21.2086 C   0  0  1  0  0  0  0  0  0  0  0  0
    6.2789  -13.1939   21.3328 C   0  0  0  0  0  0  0  0  0  0  0  0
    6.9051  -15.4261   22.0479 C   0  0  0  0  0  0  0  0  0  0  0  0
    7.8290  -16.6180   22.0680 C   0  0  2  0  0  0  0  0  0  0  0  0
    7.1581  -17.6820   22.7989 N   0  0  0  0  0  0  0  0  0  0  0  0
    9.1544  -16.3554   22.6365 C   0  0  0  0  0  0  0  0  0  0  0  0
   10.1498  -16.3713   21.8565 O   0  0  0  0  0  0  0  0  0  0  0  0
    9.2869  -16.0934   24.0245 N   0  0  0  0  0  0  0  0  0  0  0  0
   10.3330  -15.1981   24.4648 C   0  0  1  0  0  0  0  0  0  0  0  0
   10.0503  -14.6851   25.8649 C   0  0  0  0  0  0  0  0  0  0  0  0
    8.6440  -14.3341   26.0730 C   0  0  0  0  0  0  0  0  0  0  0  0
    7.6563  -15.2476   26.3737 C   0  0  0  0  0  0  0  0  0  0  0  0
    6.4870  -14.6016   26.5053 N   0  0  0  0  0  0  0  0  0  0  0  0
    6.7272  -13.2938   26.2910 C   0  0  0  0  0  0  0  0  0  0  0  0
    5.8534  -12.2173   26.3110 C   0  0  0  0  0  0  0  0  0  0  0  0
    6.3657  -10.9572   26.0516 C   0  0  0  0  0  0  0  0  0  0  0  0
    7.7119  -10.7749   25.7796 C   0  0  0  0  0  0  0  0  0  0  0  0
    8.5872  -11.8352   25.7570 C   0  0  0  0  0  0  0  0  0  0  0  0
    8.0661  -13.0825   26.0167 C   0  0  0  0  0  0  0  0  0  0  0  0
   11.5770  -16.0427   24.5813 C   0  0  0  0  0  0  0  0  0  0  0  0
   12.8069  -15.4766   24.8802 O   0  0  0  0  0  0  0  0  0  0  0  0
   11.5525  -17.2958   24.4121 O   0  0  0  0  0  0  0  0  0  0  0  0
  2  1  1  6
  2  3  1  0
  3  4  1  0
  4  5  2  0
  5  6  1  0
  7  8  2  0
  7  6  1  0
  9  8  1  0
 10  9  2  0
 11 10  1  0
 11 12  2  0
 12  4  1  0
 12  7  1  0
 13  2  1  0
 13 14  2  0
 16 18  1  0
 16 17  1  6
 16 15  1  0
 19 20  1  0
 19 18  1  1
 20 13  1  0
 21 19  1  0
 22 21  2  0
 23 21  1  0
 24 23  1  0
 25 26  1  0
 24 25  1  1
 26 27  2  0
 27 28  1  0
 29 28  1  0
 30 29  2  0
 31 30  1  0
 32 33  1  0
 32 31  2  0
 33 34  2  0
 34 26  1  0
 34 29  1  0
 35 24  1  0
 35 36  1  0
 37 35  2  0
M  END
$$$$
