WLW.pdb
     RDKit          3D

 37 40  0  0  1  0  0  0  0  0999 V2000
    6.7774  -20.9477   22.1544 N   0  0  0  0  0  0  0  0  0  0  0  0
    7.0452  -19.8269   23.0682 C   0  0  1  0  0  0  0  0  0  0  0  0
    8.1209  -20.3110   24.0469 C   0  0  0  0  0  0  0  0  0  0  0  0
    7.8590  -19.7993   25.4018 C   0  0  0  0  0  0  0  0  0  0  0  0
    6.6530  -19.8424   26.0957 C   0  0  0  0  0  0  0  0  0  0  0  0
    6.8678  -19.2577   27.2769 N   0  0  0  0  0  0  0  0  0  0  0  0
    8.1582  -18.8446   27.3650 C   0  0  0  0  0  0  0  0  0  0  0  0
    8.8565  -18.2031   28.3621 C   0  0  0  0  0  0  0  0  0  0  0  0
   10.1897  -17.8938   28.1902 C   0  0  0  0  0  0  0  0  0  0  0  0
   10.8137  -18.2358   27.0060 C   0  0  0  0  0  0  0  0  0  0  0  0
   10.1510  -18.8733   25.9959 C   0  0  0  0  0  0  0  0  0  0  0  0
    8.8031  -19.1764   26.1906 C   0  0  0  0  0  0  0  0  0  0  0  0
    7.6737  -18.7029   22.3217 C   0  0  0  0  0  0  0  0  0  0  0  0
    8.6100  -18.9707   21.5437 O   0  0  0  0  0  0  0  0  0  0  0  0
    7.3103  -14.3256   19.4047 C   0  0  0  0  0  0  0  0  0  0  0  0
    7.2434  -14.0079   20.8711 C   0  0  1  0  0  0  0  0  0  0  0  0
    6.1236  -12.9546   21.0023 C   0  0  0  0  0  0  0  0  0  0  0  0
    6.8404  -15.1550   21.7309 C   0  0  0  0  0  0  0  0  0  0  0  0
    7.8172  -16.3037   21.7664 C   0  0  2  0  0  0  0  0  0  0  0  0
    7.1961  -17.3860   22.5142 N   0  0  0  0  0  0  0  0  0  0  0  0
    9.1303  -15.9731   22.3280 C   0  0  0  0  0  0  0  0  0  0  0  0
   10.0564  -15.6553   21.5276 O   0  0  0  0  0  0  0  0  0  0  0  0
    9.3276  -16.0164   23.7322 N   0  0  0  0  0  0  0  0  0  0  0  0
   10.4287  -15.2727   24.3013 C   0  0  1  0  0  0  0  0  0  0  0  0
   10.0778  -14.7654   25.6881 C   0  0  0  0  0  0  0  0  0  0  0  0
    8.6463  -14.5089   25.8585 C   0  0  0  0  0  0  0  0  0  0  0  0
    7.6915  -15.4978   25.9622 C   0  0  0  0  0  0  0  0  0  0  0  0
    6.4854  -14.9285   26.1146 N   0  0  0  0  0  0  0  0  0  0  0  0
    6.6701  -13.5945   26.1079 C   0  0  0  0  0  0  0  0  0  0  0  0
    5.7429  -12.5707   26.2309 C   0  0  0  0  0  0  0  0  0  0  0  0
    6.2038  -11.2656   26.1894 C   0  0  0  0  0  0  0  0  0  0  0  0
    7.5518  -10.9882   26.0296 C   0  0  0  0  0  0  0  0  0  0  0  0
    8.4798  -11.9954   25.9066 C   0  0  0  0  0  0  0  0  0  0  0  0
    8.0094  -13.2884   25.9497 C   0  0  0  0  0  0  0  0  0  0  0  0
   11.5421  -16.2706   24.4996 C   0  0  0  0  0  0  0  0  0  0  0  0
   11.3411  -17.6260   24.2877 O   0  0  0  0  0  0  0  0  0  0  0  0
   12.6997  -15.9165   24.8659 O   0  0  0  0  0  0  0  0  0  0  0  0
  2  1  1  6
  2  3  1  0
  3  4  1  0
  4  5  2  0
  5  6  1  0
  7  8  2  0
  7  6  1  0
  9  8  1  0
 10  9  2  0
 11 10  1  0
 11 12  2  0
 12  4  1  0
 12  7  1  0
 13  2  1  0
 13 14  2  0
 16 18  1  0
 16 17  1  6
 16 15  1  0
 19 20  1  0
 19 18  1  1
 20 13  1  0
 21 19  1  0
 22 21  2  0
 23 21  1  0
 24 23  1  0
 25 26  1  0
 24 25  1  1
 26 27  2  0
 27 28  1  0
 29 28  1  0
 30 29  2  0
 31 30  1  0
 32 33  1  0
 32 31  2  0
 33 34  2  0
 34 26  1  0
 34 29  1  0
 35 24  1  0
 35 36  1  0
 37 35  2  0
M  END
$$$$
