WLW.pdb
     RDKit          3D

 37 40  0  0  1  0  0  0  0  0999 V2000
    6.3267  -18.5135   24.1758 N   0  0  0  0  0  0  0  0  0  0  0  0
    6.7562  -17.1121   24.0542 C   0  0  1  0  0  0  0  0  0  0  0  0
    7.4634  -16.7584   25.3673 C   0  0  0  0  0  0  0  0  0  0  0  0
    6.7682  -15.6563   26.0515 C   0  0  0  0  0  0  0  0  0  0  0  0
    5.8524  -15.7617   27.0944 C   0  0  0  0  0  0  0  0  0  0  0  0
    5.4692  -14.5189   27.3971 N   0  0  0  0  0  0  0  0  0  0  0  0
    6.1016  -13.6268   26.5921 C   0  0  0  0  0  0  0  0  0  0  0  0
    6.0477  -12.2542   26.5131 C   0  0  0  0  0  0  0  0  0  0  0  0
    6.8120  -11.5798   25.5838 C   0  0  0  0  0  0  0  0  0  0  0  0
    7.6309  -12.2990   24.7349 C   0  0  0  0  0  0  0  0  0  0  0  0
    7.7092  -13.6618   24.7863 C   0  0  0  0  0  0  0  0  0  0  0  0
    6.9274  -14.3239   25.7335 C   0  0  0  0  0  0  0  0  0  0  0  0
    7.8025  -16.9918   23.0025 C   0  0  0  0  0  0  0  0  0  0  0  0
    8.3286  -18.0399   22.5803 O   0  0  0  0  0  0  0  0  0  0  0  0
    7.6229  -12.1743   20.3347 C   0  0  0  0  0  0  0  0  0  0  0  0
    7.6441  -13.6297   20.7052 C   0  0  1  0  0  0  0  0  0  0  0  0
    7.0136  -14.3591   19.5006 C   0  0  0  0  0  0  0  0  0  0  0  0
    9.0089  -14.2017   20.8719 C   0  0  0  0  0  0  0  0  0  0  0  0
    9.0510  -15.6236   21.3730 C   0  0  2  0  0  0  0  0  0  0  0  0
    8.1617  -15.7116   22.5210 N   0  0  0  0  0  0  0  0  0  0  0  0
   10.3898  -16.1120   21.7166 C   0  0  0  0  0  0  0  0  0  0  0  0
   11.1606  -16.4482   20.7720 O   0  0  0  0  0  0  0  0  0  0  0  0
   10.7825  -16.1940   23.0773 N   0  0  0  0  0  0  0  0  0  0  0  0
   12.1929  -16.2405   23.3907 C   0  0  1  0  0  0  0  0  0  0  0  0
   12.5011  -15.4020   24.6177 C   0  0  0  0  0  0  0  0  0  0  0  0
   11.6887  -15.7677   25.7797 C   0  0  0  0  0  0  0  0  0  0  0  0
   11.2638  -17.0505   26.0522 C   0  0  0  0  0  0  0  0  0  0  0  0
   10.5481  -17.0434   27.1878 N   0  0  0  0  0  0  0  0  0  0  0  0
   10.5177  -15.7725   27.6324 C   0  0  0  0  0  0  0  0  0  0  0  0
    9.9089  -15.2423   28.7599 C   0  0  0  0  0  0  0  0  0  0  0  0
   10.0315  -13.8820   28.9879 C   0  0  0  0  0  0  0  0  0  0  0  0
   10.7413  -13.0721   28.1162 C   0  0  0  0  0  0  0  0  0  0  0  0
   11.3487  -13.5872   26.9953 C   0  0  0  0  0  0  0  0  0  0  0  0
   11.2199  -14.9406   26.7797 C   0  0  0  0  0  0  0  0  0  0  0  0
   12.4810  -17.6671   23.7865 C   0  0  0  0  0  0  0  0  0  0  0  0
   13.7797  -18.1138   23.9772 O   0  0  0  0  0  0  0  0  0  0  0  0
   11.5563  -18.5123   23.9601 O   0  0  0  0  0  0  0  0  0  0  0  0
  2  1  1  1
  2  3  1  0
  3  4  1  0
  4  5  2  0
  5  6  1  0
  7  8  2  0
  7  6  1  0
  9  8  1  0
 10  9  2  0
 11 10  1  0
 11 12  2  0
 12  4  1  0
 12  7  1  0
 13  2  1  0
 13 14  2  0
 16 18  1  0
 16 17  1  6
 16 15  1  0
 19 20  1  0
 19 18  1  1
 20 13  1  0
 21 19  1  0
 22 21  2  0
 23 21  1  0
 24 23  1  0
 25 26  1  0
 24 25  1  1
 26 27  2  0
 27 28  1  0
 29 28  1  0
 30 29  2  0
 31 30  1  0
 32 33  1  0
 32 31  2  0
 33 34  2  0
 34 26  1  0
 34 29  1  0
 35 24  1  0
 35 36  1  0
 37 35  2  0
M  END
$$$$
