WLW.pdb
     RDKit          3D

 37 40  0  0  1  0  0  0  0  0999 V2000
    6.2848  -18.7877   22.3321 N   0  0  0  0  0  0  0  0  0  0  0  0
    6.7108  -17.4668   22.8185 C   0  0  1  0  0  0  0  0  0  0  0  0
    7.0456  -17.6375   24.3045 C   0  0  0  0  0  0  0  0  0  0  0  0
    6.3598  -16.6162   25.1125 C   0  0  0  0  0  0  0  0  0  0  0  0
    5.2940  -16.8143   25.9856 C   0  0  0  0  0  0  0  0  0  0  0  0
    4.9848  -15.6184   26.4928 N   0  0  0  0  0  0  0  0  0  0  0  0
    5.8078  -14.6677   25.9806 C   0  0  0  0  0  0  0  0  0  0  0  0
    5.8911  -13.3097   26.1867 C   0  0  0  0  0  0  0  0  0  0  0  0
    6.8427  -12.5621   25.5248 C   0  0  0  0  0  0  0  0  0  0  0  0
    7.7094  -13.1932   24.6535 C   0  0  0  0  0  0  0  0  0  0  0  0
    7.6550  -14.5390   24.4257 C   0  0  0  0  0  0  0  0  0  0  0  0
    6.6848  -15.2760   25.1055 C   0  0  0  0  0  0  0  0  0  0  0  0
    7.9934  -17.0774   22.1715 C   0  0  0  0  0  0  0  0  0  0  0  0
    8.7279  -17.9866   21.7384 O   0  0  0  0  0  0  0  0  0  0  0  0
    7.9606  -12.1051   19.9264 C   0  0  0  0  0  0  0  0  0  0  0  0
    8.0863  -13.5457   20.3327 C   0  0  1  0  0  0  0  0  0  0  0  0
    7.9667  -14.3447   19.0182 C   0  0  0  0  0  0  0  0  0  0  0  0
    9.4060  -13.9055   20.9214 C   0  0  0  0  0  0  0  0  0  0  0  0
    9.5455  -15.3447   21.3502 C   0  0  2  0  0  0  0  0  0  0  0  0
    8.3339  -15.7088   22.0685 N   0  0  0  0  0  0  0  0  0  0  0  0
   10.7333  -15.6294   22.1608 C   0  0  0  0  0  0  0  0  0  0  0  0
   11.8499  -15.2001   21.7506 O   0  0  0  0  0  0  0  0  0  0  0  0
   10.6042  -16.3665   23.3660 N   0  0  0  0  0  0  0  0  0  0  0  0
   11.7869  -16.6088   24.1611 C   0  0  1  0  0  0  0  0  0  0  0  0
   11.4343  -17.3391   25.4441 C   0  0  0  0  0  0  0  0  0  0  0  0
   10.4752  -16.6076   26.2742 C   0  0  0  0  0  0  0  0  0  0  0  0
    9.1781  -17.0169   26.4984 C   0  0  0  0  0  0  0  0  0  0  0  0
    8.5714  -16.1301   27.3030 N   0  0  0  0  0  0  0  0  0  0  0  0
    9.4707  -15.1686   27.5872 C   0  0  0  0  0  0  0  0  0  0  0  0
    9.3366  -14.0338   28.3727 C   0  0  0  0  0  0  0  0  0  0  0  0
   10.4322  -13.1966   28.5007 C   0  0  0  0  0  0  0  0  0  0  0  0
   11.6287  -13.4823   27.8632 C   0  0  0  0  0  0  0  0  0  0  0  0
   11.7726  -14.6046   27.0818 C   0  0  0  0  0  0  0  0  0  0  0  0
   10.6768  -15.4290   26.9626 C   0  0  0  0  0  0  0  0  0  0  0  0
   12.6319  -17.5689   23.3620 C   0  0  0  0  0  0  0  0  0  0  0  0
   12.1869  -18.0889   22.1562 O   0  0  0  0  0  0  0  0  0  0  0  0
   13.7756  -17.9393   23.7550 O   0  0  0  0  0  0  0  0  0  0  0  0
  2  1  1  6
  2  3  1  0
  3  4  1  0
  4  5  2  0
  5  6  1  0
  7  8  2  0
  7  6  1  0
  9  8  1  0
 10  9  2  0
 11 10  1  0
 11 12  2  0
 12  4  1  0
 12  7  1  0
 13  2  1  0
 13 14  2  0
 16 18  1  0
 16 17  1  6
 16 15  1  0
 19 20  1  0
 19 18  1  1
 20 13  1  0
 21 19  1  0
 22 21  2  0
 23 21  1  0
 24 23  1  0
 25 26  1  0
 24 25  1  1
 26 27  2  0
 27 28  1  0
 29 28  1  0
 30 29  2  0
 31 30  1  0
 32 33  1  0
 32 31  2  0
 33 34  2  0
 34 26  1  0
 34 29  1  0
 35 24  1  0
 35 36  1  0
 37 35  2  0
M  END
$$$$
