WLW.pdb
     RDKit          3D

 37 40  0  0  1  0  0  0  0  0999 V2000
    6.4352  -18.2833   24.2604 N   0  0  0  0  0  0  0  0  0  0  0  0
    6.9553  -16.9243   24.0470 C   0  0  1  0  0  0  0  0  0  0  0  0
    7.8646  -16.6138   25.2412 C   0  0  0  0  0  0  0  0  0  0  0  0
    7.2928  -15.5353   26.0633 C   0  0  0  0  0  0  0  0  0  0  0  0
    6.2865  -15.6524   27.0179 C   0  0  0  0  0  0  0  0  0  0  0  0
    6.0759  -14.4278   27.5071 N   0  0  0  0  0  0  0  0  0  0  0  0
    6.9048  -13.5364   26.9054 C   0  0  0  0  0  0  0  0  0  0  0  0
    7.0707  -12.1793   27.0604 C   0  0  0  0  0  0  0  0  0  0  0  0
    8.0063  -11.5017   26.3067 C   0  0  0  0  0  0  0  0  0  0  0  0
    8.7731  -12.2019   25.3956 C   0  0  0  0  0  0  0  0  0  0  0  0
    8.6350  -13.5491   25.2164 C   0  0  0  0  0  0  0  0  0  0  0  0
    7.6826  -14.2146   25.9888 C   0  0  0  0  0  0  0  0  0  0  0  0
    7.8512  -16.9049   22.8585 C   0  0  0  0  0  0  0  0  0  0  0  0
    8.1837  -17.9982   22.3607 O   0  0  0  0  0  0  0  0  0  0  0  0
    7.5871  -12.4380   19.8143 C   0  0  0  0  0  0  0  0  0  0  0  0
    7.6975  -13.7741   20.4914 C   0  0  1  0  0  0  0  0  0  0  0  0
    6.8413  -14.7297   19.6344 C   0  0  0  0  0  0  0  0  0  0  0  0
    9.0730  -14.3446   20.5050 C   0  0  0  0  0  0  0  0  0  0  0  0
    9.2099  -15.6706   21.2105 C   0  0  2  0  0  0  0  0  0  0  0  0
    8.2904  -15.6657   22.3379 N   0  0  0  0  0  0  0  0  0  0  0  0
   10.5703  -15.9905   21.6534 C   0  0  0  0  0  0  0  0  0  0  0  0
   11.4476  -16.2086   20.7691 O   0  0  0  0  0  0  0  0  0  0  0  0
   10.8654  -16.0462   23.0399 N   0  0  0  0  0  0  0  0  0  0  0  0
   12.2475  -15.9796   23.4582 C   0  0  1  0  0  0  0  0  0  0  0  0
   12.3746  -15.2607   24.7888 C   0  0  0  0  0  0  0  0  0  0  0  0
   11.5133  -15.8259   25.8294 C   0  0  0  0  0  0  0  0  0  0  0  0
   11.3492  -17.1774   26.0463 C   0  0  0  0  0  0  0  0  0  0  0  0
   10.5025  -17.3571   27.0723 N   0  0  0  0  0  0  0  0  0  0  0  0
   10.1324  -16.1359   27.5030 C   0  0  0  0  0  0  0  0  0  0  0  0
    9.2747  -15.7817   28.5333 C   0  0  0  0  0  0  0  0  0  0  0  0
    9.0620  -14.4341   28.7702 C   0  0  0  0  0  0  0  0  0  0  0  0
    9.6869  -13.4657   28.0011 C   0  0  0  0  0  0  0  0  0  0  0  0
   10.5391  -13.8056   26.9769 C   0  0  0  0  0  0  0  0  0  0  0  0
   10.7426  -15.1482   26.7515 C   0  0  0  0  0  0  0  0  0  0  0  0
   12.6686  -17.4040   23.7202 C   0  0  0  0  0  0  0  0  0  0  0  0
   11.7727  -18.4548   23.5949 O   0  0  0  0  0  0  0  0  0  0  0  0
   13.8493  -17.6995   24.0636 O   0  0  0  0  0  0  0  0  0  0  0  0
  2  1  1  1
  2  3  1  0
  3  4  1  0
  4  5  2  0
  5  6  1  0
  7  8  2  0
  7  6  1  0
  9  8  1  0
 10  9  2  0
 11 10  1  0
 11 12  2  0
 12  4  1  0
 12  7  1  0
 13  2  1  0
 13 14  2  0
 16 18  1  0
 16 17  1  6
 16 15  1  0
 19 20  1  0
 19 18  1  1
 20 13  1  0
 21 19  1  0
 22 21  2  0
 23 21  1  0
 24 23  1  0
 25 26  1  0
 24 25  1  1
 26 27  2  0
 27 28  1  0
 29 28  1  0
 30 29  2  0
 31 30  1  0
 32 33  1  0
 32 31  2  0
 33 34  2  0
 34 26  1  0
 34 29  1  0
 35 24  1  0
 35 36  1  0
 37 35  2  0
M  END
$$$$
