KGW.pdb
     RDKit          3D

 28 29  0  0  1  0  0  0  0  0999 V2000
   23.2878  -19.1774  -14.3757 N   0  0  0  0  0  0  0  0  0  0  0  0
   23.9236  -19.5233  -15.6080 C   0  0  1  0  0  0  0  0  0  0  0  0
   23.9680  -18.4203  -16.5926 C   0  0  0  0  0  0  0  0  0  0  0  0
   22.6101  -17.9676  -17.0366 C   0  0  0  0  0  0  0  0  0  0  0  0
   22.1752  -18.4007  -18.3900 C   0  0  0  0  0  0  0  0  0  0  0  0
   20.8389  -17.8372  -18.8015 C   0  0  0  0  0  0  0  0  0  0  0  0
   20.5270  -18.3601  -20.1214 N   0  0  0  0  0  0  0  0  0  0  0  0
   25.3199  -20.0464  -15.3759 C   0  0  0  0  0  0  0  0  0  0  0  0
   26.0874  -20.2914  -16.3360 O   0  0  0  0  0  0  0  0  0  0  0  0
   25.8164  -20.2815  -14.0577 N   0  0  0  0  0  0  0  0  0  0  0  0
   26.2463  -21.5808  -13.6051 C   0  0  0  0  0  0  0  0  0  0  0  0
   26.3090  -21.7436  -12.1504 C   0  0  0  0  0  0  0  0  0  0  0  0
   26.5403  -22.8889  -11.6416 O   0  0  0  0  0  0  0  0  0  0  0  0
   26.1201  -20.6808  -11.2406 N   0  0  0  0  0  0  0  0  0  0  0  0
   25.8687  -20.9549   -9.8084 C   0  0  1  0  0  0  0  0  0  0  0  0
   26.9964  -20.3970   -9.0178 C   0  0  0  0  0  0  0  0  0  0  0  0
   26.8348  -20.3627   -7.5605 C   0  0  0  0  0  0  0  0  0  0  0  0
   25.7180  -20.7573   -6.8601 C   0  0  0  0  0  0  0  0  0  0  0  0
   25.8985  -20.5655   -5.5420 N   0  0  0  0  0  0  0  0  0  0  0  0
   27.1222  -20.0495   -5.3690 C   0  0  0  0  0  0  0  0  0  0  0  0
   27.8273  -19.6770   -4.2632 C   0  0  0  0  0  0  0  0  0  0  0  0
   29.1010  -19.1749   -4.2999 C   0  0  0  0  0  0  0  0  0  0  0  0
   29.7083  -19.0385   -5.5384 C   0  0  0  0  0  0  0  0  0  0  0  0
   29.0190  -19.4061   -6.6641 C   0  0  0  0  0  0  0  0  0  0  0  0
   27.7342  -19.9103   -6.6122 C   0  0  0  0  0  0  0  0  0  0  0  0
   24.5164  -20.5583   -9.4566 C   0  0  0  0  0  0  0  0  0  0  0  0
   23.8802  -19.7639  -10.1938 O   0  0  0  0  0  0  0  0  0  0  0  0
   23.8906  -21.0349   -8.3231 O   0  0  0  0  0  0  0  0  0  0  0  0
  2  8  1  0
  2  1  1  1
  3  2  1  0
  4  3  1  0
  4  5  1  0
  5  6  1  0
  7  6  1  0
  8  9  2  0
 10 11  1  0
 10  8  1  0
 12 14  1  0
 12 11  1  0
 13 12  2  0
 15 14  1  0
 15 26  1  0
 15 16  1  1
 17 16  1  0
 18 17  2  0
 19 18  1  0
 20 19  1  0
 20 25  2  0
 21 20  1  0
 22 21  2  0
 22 23  1  0
 23 24  2  0
 24 25  1  0
 25 17  1  0
 26 27  2  0
 26 28  1  0
M  END
$$$$
