KGW.pdb
     RDKit          3D

 28 29  0  0  1  0  0  0  0  0999 V2000
   25.5197  -18.4588  -17.1345 N   0  0  0  0  0  0  0  0  0  0  0  0
   24.7092  -18.6554  -15.9740 C   0  0  1  0  0  0  0  0  0  0  0  0
   23.8839  -19.8821  -16.0173 C   0  0  0  0  0  0  0  0  0  0  0  0
   22.8706  -19.8757  -17.1215 C   0  0  0  0  0  0  0  0  0  0  0  0
   23.3278  -19.3639  -18.4396 C   0  0  0  0  0  0  0  0  0  0  0  0
   22.2625  -19.4102  -19.5052 C   0  0  0  0  0  0  0  0  0  0  0  0
   22.8231  -18.8314  -20.7151 N   0  0  0  0  0  0  0  0  0  0  0  0
   25.5437  -18.6550  -14.7167 C   0  0  0  0  0  0  0  0  0  0  0  0
   25.0276  -18.8807  -13.5971 O   0  0  0  0  0  0  0  0  0  0  0  0
   26.9478  -18.3977  -14.7561 N   0  0  0  0  0  0  0  0  0  0  0  0
   27.7938  -18.5010  -13.5936 C   0  0  0  0  0  0  0  0  0  0  0  0
   27.6842  -19.7611  -12.8543 C   0  0  0  0  0  0  0  0  0  0  0  0
   28.1374  -20.8416  -13.3556 O   0  0  0  0  0  0  0  0  0  0  0  0
   27.0856  -19.8650  -11.5800 N   0  0  0  0  0  0  0  0  0  0  0  0
   26.9580  -21.1812  -10.9160 C   0  0  1  0  0  0  0  0  0  0  0  0
   27.8782  -21.2108   -9.7498 C   0  0  0  0  0  0  0  0  0  0  0  0
   27.3625  -20.6850   -8.4814 C   0  0  0  0  0  0  0  0  0  0  0  0
   26.0445  -20.4149   -8.1930 C   0  0  0  0  0  0  0  0  0  0  0  0
   25.9284  -19.9169   -6.9498 N   0  0  0  0  0  0  0  0  0  0  0  0
   27.1563  -19.8575   -6.4184 C   0  0  0  0  0  0  0  0  0  0  0  0
   27.6259  -19.4556   -5.2032 C   0  0  0  0  0  0  0  0  0  0  0  0
   28.9469  -19.4895   -4.8429 C   0  0  0  0  0  0  0  0  0  0  0  0
   29.8601  -19.9621   -5.7723 C   0  0  0  0  0  0  0  0  0  0  0  0
   29.4116  -20.3714   -7.0007 C   0  0  0  0  0  0  0  0  0  0  0  0
   28.0761  -20.3309   -7.3508 C   0  0  0  0  0  0  0  0  0  0  0  0
   25.5564  -21.4934  -10.6973 C   0  0  0  0  0  0  0  0  0  0  0  0
   24.6933  -20.5807  -10.7362 O   0  0  0  0  0  0  0  0  0  0  0  0
   25.1287  -22.7814  -10.4484 O   0  0  0  0  0  0  0  0  0  0  0  0
  2  8  1  0
  2  1  1  6
  3  2  1  0
  4  3  1  0
  4  5  1  0
  5  6  1  0
  7  6  1  0
  8  9  2  0
 10 11  1  0
 10  8  1  0
 12 14  1  0
 12 11  1  0
 13 12  2  0
 15 14  1  0
 15 26  1  0
 15 16  1  1
 17 16  1  0
 18 17  2  0
 19 18  1  0
 20 19  1  0
 20 25  2  0
 21 20  1  0
 22 21  2  0
 22 23  1  0
 23 24  2  0
 24 25  1  0
 25 17  1  0
 26 27  2  0
 26 28  1  0
M  END
$$$$
