KGW.pdb
     RDKit          3D

 28 29  0  0  1  0  0  0  0  0999 V2000
   30.5087  -22.2251  -14.6548 N   0  0  0  0  0  0  0  0  0  0  0  0
   29.8145  -22.3424  -15.8985 C   0  0  1  0  0  0  0  0  0  0  0  0
   29.5695  -23.7385  -16.3214 C   0  0  0  0  0  0  0  0  0  0  0  0
   30.6555  -24.2927  -17.1931 C   0  0  0  0  0  0  0  0  0  0  0  0
   31.7585  -25.0114  -16.5038 C   0  0  0  0  0  0  0  0  0  0  0  0
   32.8760  -25.4254  -17.4270 C   0  0  0  0  0  0  0  0  0  0  0  0
   33.9707  -25.9127  -16.6040 N   0  0  0  0  0  0  0  0  0  0  0  0
   28.5073  -21.5892  -15.8692 C   0  0  0  0  0  0  0  0  0  0  0  0
   27.7633  -21.5443  -16.8769 O   0  0  0  0  0  0  0  0  0  0  0  0
   28.0713  -20.9015  -14.6960 N   0  0  0  0  0  0  0  0  0  0  0  0
   28.3348  -21.3850  -13.3639 C   0  0  0  0  0  0  0  0  0  0  0  0
   27.1478  -21.7651  -12.5938 C   0  0  0  0  0  0  0  0  0  0  0  0
   26.8187  -22.9914  -12.4841 O   0  0  0  0  0  0  0  0  0  0  0  0
   26.3109  -20.8318  -11.9446 N   0  0  0  0  0  0  0  0  0  0  0  0
   25.9419  -21.0163  -10.5235 C   0  0  1  0  0  0  0  0  0  0  0  0
   27.1207  -20.6796   -9.6840 C   0  0  0  0  0  0  0  0  0  0  0  0
   26.8953  -20.5526   -8.2403 C   0  0  0  0  0  0  0  0  0  0  0  0
   25.6719  -20.5264   -7.6110 C   0  0  0  0  0  0  0  0  0  0  0  0
   25.8292  -20.3708   -6.2852 N   0  0  0  0  0  0  0  0  0  0  0  0
   27.1430  -20.2951   -6.0368 C   0  0  0  0  0  0  0  0  0  0  0  0
   27.8666  -20.1531   -4.8901 C   0  0  0  0  0  0  0  0  0  0  0  0
   29.2350  -20.1133   -4.8475 C   0  0  0  0  0  0  0  0  0  0  0  0
   29.9239  -20.2246   -6.0451 C   0  0  0  0  0  0  0  0  0  0  0  0
   29.2181  -20.3679   -7.2107 C   0  0  0  0  0  0  0  0  0  0  0  0
   27.8377  -20.4056   -7.2387 C   0  0  0  0  0  0  0  0  0  0  0  0
   24.6832  -20.3465  -10.2463 C   0  0  0  0  0  0  0  0  0  0  0  0
   24.3805  -19.2929  -10.8609 O   0  0  0  0  0  0  0  0  0  0  0  0
   23.7877  -20.8369   -9.3181 O   0  0  0  0  0  0  0  0  0  0  0  0
  2  8  1  0
  2  1  1  1
  3  2  1  0
  4  3  1  0
  4  5  1  0
  5  6  1  0
  7  6  1  0
  8  9  2  0
 10 11  1  0
 10  8  1  0
 12 14  1  0
 12 11  1  0
 13 12  2  0
 15 14  1  0
 15 26  1  0
 15 16  1  1
 17 16  1  0
 18 17  2  0
 19 18  1  0
 20 19  1  0
 20 25  2  0
 21 20  1  0
 22 21  2  0
 22 23  1  0
 23 24  2  0
 24 25  1  0
 25 17  1  0
 26 27  2  0
 26 28  1  0
M  END
$$$$
