KGW.pdb
     RDKit          3D

 28 29  0  0  1  0  0  0  0  0999 V2000
   26.5192  -21.0671  -17.0758 N   0  0  0  0  0  0  0  0  0  0  0  0
   27.2487  -19.9126  -16.6546 C   0  0  1  0  0  0  0  0  0  0  0  0
   26.8930  -18.6766  -17.3852 C   0  0  0  0  0  0  0  0  0  0  0  0
   27.7212  -18.4561  -18.6147 C   0  0  0  0  0  0  0  0  0  0  0  0
   28.7163  -19.5098  -18.9430 C   0  0  0  0  0  0  0  0  0  0  0  0
   29.4940  -19.2308  -20.2039 C   0  0  0  0  0  0  0  0  0  0  0  0
   30.5057  -20.2661  -20.3365 N   0  0  0  0  0  0  0  0  0  0  0  0
   27.0981  -19.6807  -15.1711 C   0  0  0  0  0  0  0  0  0  0  0  0
   25.9657  -19.5805  -14.6432 O   0  0  0  0  0  0  0  0  0  0  0  0
   28.2367  -19.5667  -14.3168 N   0  0  0  0  0  0  0  0  0  0  0  0
   28.1303  -19.2892  -12.9064 C   0  0  0  0  0  0  0  0  0  0  0  0
   27.3897  -20.2869  -12.1300 C   0  0  0  0  0  0  0  0  0  0  0  0
   27.0160  -21.3767  -12.6748 O   0  0  0  0  0  0  0  0  0  0  0  0
   27.0459  -20.1158  -10.7716 N   0  0  0  0  0  0  0  0  0  0  0  0
   26.3456  -21.1904  -10.0338 C   0  0  1  0  0  0  0  0  0  0  0  0
   27.1620  -21.5554   -8.8471 C   0  0  0  0  0  0  0  0  0  0  0  0
   27.3819  -20.5091   -7.8432 C   0  0  0  0  0  0  0  0  0  0  0  0
   26.8200  -19.2530   -7.8462 C   0  0  0  0  0  0  0  0  0  0  0  0
   27.2587  -18.5398   -6.7947 N   0  0  0  0  0  0  0  0  0  0  0  0
   28.1025  -19.3143   -6.1005 C   0  0  0  0  0  0  0  0  0  0  0  0
   28.8192  -19.1182   -4.9575 C   0  0  0  0  0  0  0  0  0  0  0  0
   29.6300  -20.0648   -4.3896 C   0  0  0  0  0  0  0  0  0  0  0  0
   29.7257  -21.2969   -5.0173 C   0  0  0  0  0  0  0  0  0  0  0  0
   29.0148  -21.5172   -6.1678 C   0  0  0  0  0  0  0  0  0  0  0  0
   28.2014  -20.5527   -6.7299 C   0  0  0  0  0  0  0  0  0  0  0  0
   24.9542  -20.8271   -9.8291 C   0  0  0  0  0  0  0  0  0  0  0  0
   24.5289  -19.7121  -10.2232 O   0  0  0  0  0  0  0  0  0  0  0  0
   24.0636  -21.6799   -9.2099 O   0  0  0  0  0  0  0  0  0  0  0  0
  2  8  1  0
  2  1  1  6
  3  2  1  0
  4  3  1  0
  4  5  1  0
  5  6  1  0
  7  6  1  0
  8  9  2  0
 10 11  1  0
 10  8  1  0
 12 14  1  0
 12 11  1  0
 13 12  2  0
 15 14  1  0
 15 26  1  0
 15 16  1  1
 17 16  1  0
 18 17  2  0
 19 18  1  0
 20 19  1  0
 20 25  2  0
 21 20  1  0
 22 21  2  0
 22 23  1  0
 23 24  2  0
 24 25  1  0
 25 17  1  0
 26 27  2  0
 26 28  1  0
M  END
$$$$
