KGW.pdb
     RDKit          3D

 28 29  0  0  1  0  0  0  0  0999 V2000
   24.9334  -22.9421  -15.8348 N   0  0  0  0  0  0  0  0  0  0  0  0
   25.9130  -21.9246  -16.0524 C   0  0  1  0  0  0  0  0  0  0  0  0
   25.7326  -21.1760  -17.3153 C   0  0  0  0  0  0  0  0  0  0  0  0
   24.4013  -21.4149  -17.9607 C   0  0  0  0  0  0  0  0  0  0  0  0
   24.3857  -21.4853  -19.4450 C   0  0  0  0  0  0  0  0  0  0  0  0
   23.5583  -20.4027  -20.0899 C   0  0  0  0  0  0  0  0  0  0  0  0
   23.5806  -20.6267  -21.5260 N   0  0  0  0  0  0  0  0  0  0  0  0
   25.9626  -20.9558  -14.8965 C   0  0  0  0  0  0  0  0  0  0  0  0
   26.8507  -20.0740  -14.8285 O   0  0  0  0  0  0  0  0  0  0  0  0
   25.0028  -21.0085  -13.8404 N   0  0  0  0  0  0  0  0  0  0  0  0
   25.0122  -20.0895  -12.7299 C   0  0  0  0  0  0  0  0  0  0  0  0
   25.3231  -20.6883  -11.4293 C   0  0  0  0  0  0  0  0  0  0  0  0
   25.3012  -21.9541  -11.2832 O   0  0  0  0  0  0  0  0  0  0  0  0
   25.6533  -19.9314  -10.2844 N   0  0  0  0  0  0  0  0  0  0  0  0
   25.9622  -20.6045   -9.0033 C   0  0  1  0  0  0  0  0  0  0  0  0
   26.9845  -19.8009   -8.2843 C   0  0  0  0  0  0  0  0  0  0  0  0
   27.2995  -20.2015   -6.9090 C   0  0  0  0  0  0  0  0  0  0  0  0
   26.8093  -21.3089   -6.2557 C   0  0  0  0  0  0  0  0  0  0  0  0
   27.2804  -21.3587   -4.9978 N   0  0  0  0  0  0  0  0  0  0  0  0
   28.0753  -20.2959   -4.8179 C   0  0  0  0  0  0  0  0  0  0  0  0
   28.8160  -19.8561   -3.7613 C   0  0  0  0  0  0  0  0  0  0  0  0
   29.5917  -18.7276   -3.7862 C   0  0  0  0  0  0  0  0  0  0  0  0
   29.6241  -17.9895   -4.9590 C   0  0  0  0  0  0  0  0  0  0  0  0
   28.8875  -18.4118   -6.0344 C   0  0  0  0  0  0  0  0  0  0  0  0
   28.1087  -19.5519   -5.9946 C   0  0  0  0  0  0  0  0  0  0  0  0
   24.7313  -20.9374   -8.3077 C   0  0  0  0  0  0  0  0  0  0  0  0
   23.7362  -20.1739   -8.3863 O   0  0  0  0  0  0  0  0  0  0  0  0
   24.6105  -22.0861   -7.5530 O   0  0  0  0  0  0  0  0  0  0  0  0
  2  8  1  0
  2  1  1  1
  3  2  1  0
  4  3  1  0
  4  5  1  0
  5  6  1  0
  7  6  1  0
  8  9  2  0
 10 11  1  0
 10  8  1  0
 12 14  1  0
 12 11  1  0
 13 12  2  0
 15 14  1  0
 15 26  1  0
 15 16  1  1
 17 16  1  0
 18 17  2  0
 19 18  1  0
 20 19  1  0
 20 25  2  0
 21 20  1  0
 22 21  2  0
 22 23  1  0
 23 24  2  0
 24 25  1  0
 25 17  1  0
 26 27  2  0
 26 28  1  0
M  END
$$$$
