KGW.pdb
     RDKit          3D

 28 29  0  0  1  0  0  0  0  0999 V2000
   23.1582  -19.6548  -16.5248 N   0  0  0  0  0  0  0  0  0  0  0  0
   23.7047  -18.3408  -16.3934 C   0  0  1  0  0  0  0  0  0  0  0  0
   22.7018  -17.2588  -16.5001 C   0  0  0  0  0  0  0  0  0  0  0  0
   22.5549  -16.7222  -17.8917 C   0  0  0  0  0  0  0  0  0  0  0  0
   23.3765  -15.5325  -18.2349 C   0  0  0  0  0  0  0  0  0  0  0  0
   23.1712  -15.0468  -19.6472 C   0  0  0  0  0  0  0  0  0  0  0  0
   24.0604  -13.9165  -19.8589 N   0  0  0  0  0  0  0  0  0  0  0  0
   24.4690  -18.1923  -15.1008 C   0  0  0  0  0  0  0  0  0  0  0  0
   24.0526  -18.7121  -14.0391 O   0  0  0  0  0  0  0  0  0  0  0  0
   25.6910  -17.4558  -15.0398 N   0  0  0  0  0  0  0  0  0  0  0  0
   26.4216  -17.2551  -13.8136 C   0  0  0  0  0  0  0  0  0  0  0  0
   27.1023  -18.4436  -13.2932 C   0  0  0  0  0  0  0  0  0  0  0  0
   28.0447  -18.3238  -12.4437 O   0  0  0  0  0  0  0  0  0  0  0  0
   26.7764  -19.7599  -13.6854 N   0  0  0  0  0  0  0  0  0  0  0  0
   27.7630  -20.8528  -13.5377 C   0  0  1  0  0  0  0  0  0  0  0  0
   27.2903  -21.7720  -12.4701 C   0  0  0  0  0  0  0  0  0  0  0  0
   26.6643  -21.1596  -11.2937 C   0  0  0  0  0  0  0  0  0  0  0  0
   25.3582  -20.7370  -11.1991 C   0  0  0  0  0  0  0  0  0  0  0  0
   25.1256  -20.1975   -9.9902 N   0  0  0  0  0  0  0  0  0  0  0  0
   26.2650  -20.2616   -9.2892 C   0  0  0  0  0  0  0  0  0  0  0  0
   26.6014  -19.8835   -8.0233 C   0  0  0  0  0  0  0  0  0  0  0  0
   27.8458  -20.0551   -7.4775 C   0  0  0  0  0  0  0  0  0  0  0  0
   28.8210  -20.6502   -8.2624 C   0  0  0  0  0  0  0  0  0  0  0  0
   28.5064  -21.0384   -9.5382 C   0  0  0  0  0  0  0  0  0  0  0  0
   27.2470  -20.8583  -10.0760 C   0  0  0  0  0  0  0  0  0  0  0  0
   28.0825  -21.4129  -14.8392 C   0  0  0  0  0  0  0  0  0  0  0  0
   28.9394  -22.3267  -14.9396 O   0  0  0  0  0  0  0  0  0  0  0  0
   27.4639  -20.9733  -15.9916 O   0  0  0  0  0  0  0  0  0  0  0  0
  2  8  1  0
  2  1  1  1
  3  2  1  0
  4  3  1  0
  4  5  1  0
  5  6  1  0
  7  6  1  0
  8  9  2  0
 10 11  1  0
 10  8  1  0
 12 14  1  0
 12 11  1  0
 13 12  2  0
 15 14  1  0
 15 26  1  0
 15 16  1  1
 17 16  1  0
 18 17  2  0
 19 18  1  0
 20 19  1  0
 20 25  2  0
 21 20  1  0
 22 21  2  0
 22 23  1  0
 23 24  2  0
 24 25  1  0
 25 17  1  0
 26 27  2  0
 26 28  1  0
M  END
$$$$
