FSE.pdb
     RDKit          3D

 27 27  0  0  1  0  0  0  0  0999 V2000
    7.0238  -14.9162   20.7283 N   0  0  0  0  0  0  0  0  0  0  0  0
    7.4966  -14.4979   22.0294 C   0  0  1  0  0  0  0  0  0  0  0  0
    6.3342  -13.9549   22.8019 C   0  0  0  0  0  0  0  0  0  0  0  0
    6.8146  -13.4595   24.1144 C   0  0  0  0  0  0  0  0  0  0  0  0
    7.5555  -12.2986   24.2315 C   0  0  0  0  0  0  0  0  0  0  0  0
    7.9991  -11.8402   25.4669 C   0  0  0  0  0  0  0  0  0  0  0  0
    7.7088  -12.5359   26.6056 C   0  0  0  0  0  0  0  0  0  0  0  0
    6.9619  -13.7034   26.4741 C   0  0  0  0  0  0  0  0  0  0  0  0
    6.5197  -14.1655   25.2678 C   0  0  0  0  0  0  0  0  0  0  0  0
    8.1823  -15.6140   22.7568 C   0  0  0  0  0  0  0  0  0  0  0  0
    7.5287  -16.5962   23.1890 O   0  0  0  0  0  0  0  0  0  0  0  0
   12.5348  -15.8498   23.0454 O   0  0  0  0  0  0  0  0  0  0  0  0
   11.6729  -16.9167   22.9236 C   0  0  0  0  0  0  0  0  0  0  0  0
   10.3418  -16.6905   23.5660 C   0  0  2  0  0  0  0  0  0  0  0  0
    9.5915  -15.6180   22.9917 N   0  0  0  0  0  0  0  0  0  0  0  0
   10.4671  -16.6116   25.0456 C   0  0  0  0  0  0  0  0  0  0  0  0
   10.6524  -15.5110   25.5993 O   0  0  0  0  0  0  0  0  0  0  0  0
   10.3798  -17.7717   25.8493 N   0  0  0  0  0  0  0  0  0  0  0  0
   10.6247  -17.7753   27.2982 C   0  0  1  0  0  0  0  0  0  0  0  0
    9.6741  -18.7468   27.8779 C   0  0  0  0  0  0  0  0  0  0  0  0
    9.9582  -20.1895   27.8080 C   0  0  0  0  0  0  0  0  0  0  0  0
    9.0188  -21.0980   28.4660 C   0  0  0  0  0  0  0  0  0  0  0  0
    7.9660  -21.4800   27.8928 O   0  0  0  0  0  0  0  0  0  0  0  0
   12.0250  -17.9626   27.5495 C   0  0  0  0  0  0  0  0  0  0  0  0
   12.4896  -17.8023   28.7288 O   0  0  0  0  0  0  0  0  0  0  0  0
    9.2733  -21.5613   29.7491 O   0  0  0  0  0  0  0  0  0  0  0  0
   12.9650  -18.3294   26.5758 O   0  0  0  0  0  0  0  0  0  0  0  0
  2 10  1  0
  2  1  1  6
  3  2  1  0
  4  3  1  0
  5  4  2  0
  6  5  1  0
  7  8  1  0
  7  6  2  0
  8  9  2  0
  9  4  1  0
 10 11  2  0
 13 12  1  0
 14 13  1  6
 15 14  1  0
 15 10  1  0
 16 17  2  0
 16 14  1  0
 18 16  1  0
 19 18  1  0
 20 21  1  0
 19 20  1  1
 22 21  1  0
 23 22  2  0
 24 19  1  0
 24 27  1  0
 25 24  2  0
 26 22  1  0
M  END
$$$$
