FSE.pdb
     RDKit          3D

 27 27  0  0  1  0  0  0  0  0999 V2000
    6.1207  -17.4824   25.3239 N   0  0  0  0  0  0  0  0  0  0  0  0
    7.0099  -16.3629   25.1065 C   0  0  1  0  0  0  0  0  0  0  0  0
    7.2813  -15.7122   26.4277 C   0  0  0  0  0  0  0  0  0  0  0  0
    6.9574  -14.2684   26.3315 C   0  0  0  0  0  0  0  0  0  0  0  0
    7.9419  -13.3013   26.2558 C   0  0  0  0  0  0  0  0  0  0  0  0
    7.6285  -11.9498   26.1628 C   0  0  0  0  0  0  0  0  0  0  0  0
    6.3248  -11.5438   26.1442 C   0  0  0  0  0  0  0  0  0  0  0  0
    5.3428  -12.5277   26.2210 C   0  0  0  0  0  0  0  0  0  0  0  0
    5.6356  -13.8581   26.3127 C   0  0  0  0  0  0  0  0  0  0  0  0
    8.2724  -16.7816   24.4167 C   0  0  0  0  0  0  0  0  0  0  0  0
    9.0347  -17.6354   24.9349 O   0  0  0  0  0  0  0  0  0  0  0  0
    9.7602  -14.6746   20.9499 O   0  0  0  0  0  0  0  0  0  0  0  0
    9.9022  -16.0410   21.0435 C   0  0  0  0  0  0  0  0  0  0  0  0
    9.8685  -16.5540   22.4476 C   0  0  2  0  0  0  0  0  0  0  0  0
    8.6668  -16.2401   23.1549 N   0  0  0  0  0  0  0  0  0  0  0  0
   11.1100  -16.1907   23.1810 C   0  0  0  0  0  0  0  0  0  0  0  0
   11.1676  -15.1241   23.8223 O   0  0  0  0  0  0  0  0  0  0  0  0
   12.2416  -17.0384   23.1673 N   0  0  0  0  0  0  0  0  0  0  0  0
   13.4746  -16.7581   23.9159 C   0  0  1  0  0  0  0  0  0  0  0  0
   13.9583  -18.0593   24.4221 C   0  0  0  0  0  0  0  0  0  0  0  0
   13.7439  -18.4295   25.8307 C   0  0  0  0  0  0  0  0  0  0  0  0
   14.2808  -19.7131   26.2834 C   0  0  0  0  0  0  0  0  0  0  0  0
   15.4691  -19.8226   26.6816 O   0  0  0  0  0  0  0  0  0  0  0  0
   14.3612  -15.9722   23.1064 C   0  0  0  0  0  0  0  0  0  0  0  0
   15.3547  -15.3739   23.6427 O   0  0  0  0  0  0  0  0  0  0  0  0
   13.4810  -20.8472   26.2827 O   0  0  0  0  0  0  0  0  0  0  0  0
   14.2323  -15.8032   21.7204 O   0  0  0  0  0  0  0  0  0  0  0  0
  2 10  1  0
  2  1  1  1
  3  2  1  0
  4  3  1  0
  5  4  2  0
  6  5  1  0
  7  8  1  0
  7  6  2  0
  8  9  2  0
  9  4  1  0
 10 11  2  0
 13 12  1  0
 14 13  1  6
 15 14  1  0
 15 10  1  0
 16 17  2  0
 16 14  1  0
 18 16  1  0
 19 18  1  0
 20 21  1  0
 19 20  1  6
 22 21  1  0
 23 22  2  0
 24 19  1  0
 24 27  1  0
 25 24  2  0
 26 22  1  0
M  END
$$$$
