FSE.pdb
     RDKit          3D

 27 27  0  0  1  0  0  0  0  0999 V2000
   13.0847  -14.6042   18.4077 N   0  0  0  0  0  0  0  0  0  0  0  0
   11.8920  -14.4266   19.2060 C   0  0  1  0  0  0  0  0  0  0  0  0
   10.7072  -14.8179   18.3779 C   0  0  0  0  0  0  0  0  0  0  0  0
    9.4958  -14.1614   18.9260 C   0  0  0  0  0  0  0  0  0  0  0  0
    9.3519  -12.7868   18.9405 C   0  0  0  0  0  0  0  0  0  0  0  0
    8.2109  -12.1802   19.4538 C   0  0  0  0  0  0  0  0  0  0  0  0
    7.1952  -12.9389   19.9611 C   0  0  0  0  0  0  0  0  0  0  0  0
    7.3525  -14.3221   19.9407 C   0  0  0  0  0  0  0  0  0  0  0  0
    8.4670  -14.9315   19.4400 C   0  0  0  0  0  0  0  0  0  0  0  0
   11.9611  -15.1989   20.4881 C   0  0  0  0  0  0  0  0  0  0  0  0
   12.8299  -16.0912   20.6543 O   0  0  0  0  0  0  0  0  0  0  0  0
    8.7737  -15.4214   23.3971 O   0  0  0  0  0  0  0  0  0  0  0  0
   10.0532  -15.1154   23.8034 C   0  0  0  0  0  0  0  0  0  0  0  0
   11.1123  -15.5817   22.8565 C   0  0  2  0  0  0  0  0  0  0  0  0
   11.0573  -14.9633   21.5691 N   0  0  0  0  0  0  0  0  0  0  0  0
   11.1719  -17.0668   22.8080 C   0  0  0  0  0  0  0  0  0  0  0  0
   10.7259  -17.6781   21.8184 O   0  0  0  0  0  0  0  0  0  0  0  0
   11.7302  -17.8109   23.8729 N   0  0  0  0  0  0  0  0  0  0  0  0
   12.2653  -19.1709   23.7194 C   0  0  1  0  0  0  0  0  0  0  0  0
   13.3319  -19.0852   22.7004 C   0  0  0  0  0  0  0  0  0  0  0  0
   14.1573  -20.2651   22.3946 C   0  0  0  0  0  0  0  0  0  0  0  0
   15.2262  -20.1073   21.4080 C   0  0  0  0  0  0  0  0  0  0  0  0
   15.0425  -19.4695   20.3391 O   0  0  0  0  0  0  0  0  0  0  0  0
   12.5990  -19.7053   25.0086 C   0  0  0  0  0  0  0  0  0  0  0  0
   12.6742  -20.9697   25.1761 O   0  0  0  0  0  0  0  0  0  0  0  0
   16.4772  -20.6636   21.6342 O   0  0  0  0  0  0  0  0  0  0  0  0
   12.8689  -18.9295   26.1450 O   0  0  0  0  0  0  0  0  0  0  0  0
  2 10  1  0
  2  1  1  6
  3  2  1  0
  4  3  1  0
  5  4  2  0
  6  5  1  0
  7  8  1  0
  7  6  2  0
  8  9  2  0
  9  4  1  0
 10 11  2  0
 13 12  1  0
 14 13  1  1
 15 14  1  0
 15 10  1  0
 16 17  2  0
 16 14  1  0
 18 16  1  0
 19 18  1  0
 20 21  1  0
 19 20  1  6
 22 21  1  0
 23 22  2  0
 24 19  1  0
 24 27  1  0
 25 24  2  0
 26 22  1  0
M  END
$$$$
