FSE.pdb
     RDKit          3D

 27 27  0  0  1  0  0  0  0  0999 V2000
   12.9640  -14.3983   18.7336 N   0  0  0  0  0  0  0  0  0  0  0  0
   11.8690  -14.4479   19.6770 C   0  0  1  0  0  0  0  0  0  0  0  0
   10.6710  -15.0152   18.9802 C   0  0  0  0  0  0  0  0  0  0  0  0
    9.5052  -14.1326   19.2264 C   0  0  0  0  0  0  0  0  0  0  0  0
    8.9600  -13.3456   18.2294 C   0  0  0  0  0  0  0  0  0  0  0  0
    7.8647  -12.5232   18.4689 C   0  0  0  0  0  0  0  0  0  0  0  0
    7.2969  -12.4747   19.7099 C   0  0  0  0  0  0  0  0  0  0  0  0
    7.8554  -13.2721   20.7052 C   0  0  0  0  0  0  0  0  0  0  0  0
    8.9305  -14.0842   20.4846 C   0  0  0  0  0  0  0  0  0  0  0  0
   12.2275  -15.2294   20.9041 C   0  0  0  0  0  0  0  0  0  0  0  0
   13.2800  -15.9143   20.9447 O   0  0  0  0  0  0  0  0  0  0  0  0
    9.4282  -16.0424   24.0638 O   0  0  0  0  0  0  0  0  0  0  0  0
   10.7045  -15.6408   24.3886 C   0  0  0  0  0  0  0  0  0  0  0  0
   11.7062  -15.8879   23.3065 C   0  0  2  0  0  0  0  0  0  0  0  0
   11.4040  -15.2350   22.0714 N   0  0  0  0  0  0  0  0  0  0  0  0
   11.9944  -17.3398   23.1640 C   0  0  0  0  0  0  0  0  0  0  0  0
   11.5013  -17.9850   22.2191 O   0  0  0  0  0  0  0  0  0  0  0  0
   12.8256  -18.0140   24.0880 N   0  0  0  0  0  0  0  0  0  0  0  0
   13.1786  -19.4359   23.9747 C   0  0  1  0  0  0  0  0  0  0  0  0
   14.0252  -19.5591   22.7699 C   0  0  0  0  0  0  0  0  0  0  0  0
   14.5867  -20.8666   22.3927 C   0  0  0  0  0  0  0  0  0  0  0  0
   15.4947  -20.9089   21.2461 C   0  0  0  0  0  0  0  0  0  0  0  0
   16.7204  -21.1539   21.3895 O   0  0  0  0  0  0  0  0  0  0  0  0
   13.7051  -19.9025   25.2253 C   0  0  0  0  0  0  0  0  0  0  0  0
   14.0561  -19.0643   26.1234 O   0  0  0  0  0  0  0  0  0  0  0  0
   15.0167  -20.6775   19.9641 O   0  0  0  0  0  0  0  0  0  0  0  0
   13.8668  -21.2532   25.5651 O   0  0  0  0  0  0  0  0  0  0  0  0
  2 10  1  0
  2  1  1  6
  3  2  1  0
  4  3  1  0
  5  4  2  0
  6  5  1  0
  7  8  1  0
  7  6  2  0
  8  9  2  0
  9  4  1  0
 10 11  2  0
 13 12  1  0
 14 13  1  1
 15 14  1  0
 15 10  1  0
 16 17  2  0
 16 14  1  0
 18 16  1  0
 19 18  1  0
 20 21  1  0
 19 20  1  6
 22 21  1  0
 23 22  2  0
 24 19  1  0
 24 27  1  0
 25 24  2  0
 26 22  1  0
M  END
$$$$
