FSE.pdb
     RDKit          3D

 27 27  0  0  1  0  0  0  0  0999 V2000
    6.6576  -16.8186   25.8316 N   0  0  0  0  0  0  0  0  0  0  0  0
    7.4538  -15.9220   25.0232 C   0  0  1  0  0  0  0  0  0  0  0  0
    8.1046  -14.9223   25.9286 C   0  0  0  0  0  0  0  0  0  0  0  0
    7.2403  -13.7211   26.0237 C   0  0  0  0  0  0  0  0  0  0  0  0
    6.6395  -13.1623   24.9114 C   0  0  0  0  0  0  0  0  0  0  0  0
    5.8282  -12.0374   25.0108 C   0  0  0  0  0  0  0  0  0  0  0  0
    5.6048  -11.4532   26.2247 C   0  0  0  0  0  0  0  0  0  0  0  0
    6.2157  -12.0257   27.3371 C   0  0  0  0  0  0  0  0  0  0  0  0
    7.0147  -13.1298   27.2546 C   0  0  0  0  0  0  0  0  0  0  0  0
    8.4564  -16.6642   24.1931 C   0  0  0  0  0  0  0  0  0  0  0  0
    8.8773  -17.7926   24.5511 O   0  0  0  0  0  0  0  0  0  0  0  0
   10.3887  -14.8770   20.6160 O   0  0  0  0  0  0  0  0  0  0  0  0
   10.2153  -16.2217   20.8555 C   0  0  0  0  0  0  0  0  0  0  0  0
   10.1638  -16.5719   22.3082 C   0  0  2  0  0  0  0  0  0  0  0  0
    8.9757  -16.1350   22.9720 N   0  0  0  0  0  0  0  0  0  0  0  0
   11.4191  -16.1758   22.9999 C   0  0  0  0  0  0  0  0  0  0  0  0
   11.4879  -15.0818   23.5921 O   0  0  0  0  0  0  0  0  0  0  0  0
   12.5514  -17.0226   23.0012 N   0  0  0  0  0  0  0  0  0  0  0  0
   13.7965  -16.7116   23.7168 C   0  0  1  0  0  0  0  0  0  0  0  0
   14.1057  -17.8947   24.5464 C   0  0  0  0  0  0  0  0  0  0  0  0
   15.3916  -17.9821   25.2576 C   0  0  0  0  0  0  0  0  0  0  0  0
   15.6283  -19.1638   26.0872 C   0  0  0  0  0  0  0  0  0  0  0  0
   14.7243  -19.6420   26.8199 O   0  0  0  0  0  0  0  0  0  0  0  0
   14.7880  -16.2586   22.7836 C   0  0  0  0  0  0  0  0  0  0  0  0
   15.8099  -15.6144   23.1996 O   0  0  0  0  0  0  0  0  0  0  0  0
   16.8681  -19.7874   26.0820 O   0  0  0  0  0  0  0  0  0  0  0  0
   14.7355  -16.4773   21.3996 O   0  0  0  0  0  0  0  0  0  0  0  0
  2 10  1  0
  2  1  1  1
  3  2  1  0
  4  3  1  0
  5  4  2  0
  6  5  1  0
  7  8  1  0
  7  6  2  0
  8  9  2  0
  9  4  1  0
 10 11  2  0
 13 12  1  0
 14 13  1  6
 15 14  1  0
 15 10  1  0
 16 17  2  0
 16 14  1  0
 18 16  1  0
 19 18  1  0
 20 21  1  0
 19 20  1  6
 22 21  1  0
 23 22  2  0
 24 19  1  0
 24 27  1  0
 25 24  2  0
 26 22  1  0
M  END
$$$$
