FSE.pdb
     RDKit          3D

 27 27  0  0  1  0  0  0  0  0999 V2000
    6.2279  -16.4457   25.2213 N   0  0  0  0  0  0  0  0  0  0  0  0
    7.2867  -15.6837   24.5970 C   0  0  1  0  0  0  0  0  0  0  0  0
    8.0470  -14.9660   25.6691 C   0  0  0  0  0  0  0  0  0  0  0  0
    7.3139  -13.7310   26.0380 C   0  0  0  0  0  0  0  0  0  0  0  0
    7.3838  -12.5825   25.2722 C   0  0  0  0  0  0  0  0  0  0  0  0
    6.6904  -11.4299   25.6245 C   0  0  0  0  0  0  0  0  0  0  0  0
    5.9157  -11.4075   26.7488 C   0  0  0  0  0  0  0  0  0  0  0  0
    5.8537  -12.5706   27.5114 C   0  0  0  0  0  0  0  0  0  0  0  0
    6.5290  -13.7095   27.1778 C   0  0  0  0  0  0  0  0  0  0  0  0
    8.1778  -16.5514   23.7614 C   0  0  0  0  0  0  0  0  0  0  0  0
    8.6252  -17.6354   24.2124 O   0  0  0  0  0  0  0  0  0  0  0  0
    9.8767  -14.6812   20.2735 O   0  0  0  0  0  0  0  0  0  0  0  0
    9.8998  -16.0536   20.3812 C   0  0  0  0  0  0  0  0  0  0  0  0
    9.7840  -16.5484   21.7874 C   0  0  2  0  0  0  0  0  0  0  0  0
    8.5573  -16.1959   22.4308 N   0  0  0  0  0  0  0  0  0  0  0  0
   10.9967  -16.2071   22.5773 C   0  0  0  0  0  0  0  0  0  0  0  0
   10.9088  -15.4466   23.5602 O   0  0  0  0  0  0  0  0  0  0  0  0
   12.2640  -16.7322   22.2343 N   0  0  0  0  0  0  0  0  0  0  0  0
   13.3696  -16.8742   23.1918 C   0  0  1  0  0  0  0  0  0  0  0  0
   12.8518  -17.6951   24.3059 C   0  0  0  0  0  0  0  0  0  0  0  0
   13.7663  -18.1808   25.3523 C   0  0  0  0  0  0  0  0  0  0  0  0
   13.1822  -18.9128   26.4765 C   0  0  0  0  0  0  0  0  0  0  0  0
   13.9045  -19.5067   27.3181 O   0  0  0  0  0  0  0  0  0  0  0  0
   14.5461  -17.3256   22.5053 C   0  0  0  0  0  0  0  0  0  0  0  0
   14.4398  -18.1167   21.5077 O   0  0  0  0  0  0  0  0  0  0  0  0
   11.8050  -18.9667   26.6386 O   0  0  0  0  0  0  0  0  0  0  0  0
   15.8551  -16.9525   22.8421 O   0  0  0  0  0  0  0  0  0  0  0  0
  2 10  1  0
  2  1  1  1
  3  2  1  0
  4  3  1  0
  5  4  2  0
  6  5  1  0
  7  8  1  0
  7  6  2  0
  8  9  2  0
  9  4  1  0
 10 11  2  0
 13 12  1  0
 14 13  1  6
 15 14  1  0
 15 10  1  0
 16 17  2  0
 16 14  1  0
 18 16  1  0
 19 18  1  0
 20 21  1  0
 19 20  1  1
 22 21  1  0
 23 22  2  0
 24 19  1  0
 24 27  1  0
 25 24  2  0
 26 22  1  0
M  END
$$$$
