FSE.pdb
     RDKit          3D

 27 27  0  0  1  0  0  0  0  0999 V2000
  -72.0221   44.5445   76.7294 N   0  0  0  0  0  0  0  0  0  0  0  0
  -71.6245   44.7122   78.1097 C   0  0  1  0  0  0  0  0  0  0  0  0
  -70.1808   45.1086   78.1403 C   0  0  0  0  0  0  0  0  0  0  0  0
  -69.5943   44.9042   76.7938 C   0  0  0  0  0  0  0  0  0  0  0  0
  -68.5673   45.6959   76.3154 C   0  0  0  0  0  0  0  0  0  0  0  0
  -68.0216   45.4947   75.0523 C   0  0  0  0  0  0  0  0  0  0  0  0
  -68.4945   44.4983   74.2473 C   0  0  0  0  0  0  0  0  0  0  0  0
  -69.5290   43.7080   74.7409 C   0  0  0  0  0  0  0  0  0  0  0  0
  -70.0746   43.8939   75.9787 C   0  0  0  0  0  0  0  0  0  0  0  0
  -72.4942   45.7027   78.8222 C   0  0  0  0  0  0  0  0  0  0  0  0
  -73.5106   46.1846   78.2624 O   0  0  0  0  0  0  0  0  0  0  0  0
  -75.3666   46.9783   81.0859 O   0  0  0  0  0  0  0  0  0  0  0  0
  -74.1650   46.5359   81.5921 C   0  0  0  0  0  0  0  0  0  0  0  0
  -72.9721   47.1040   80.8922 C   0  0  2  0  0  0  0  0  0  0  0  0
  -72.2164   46.1420   80.1529 N   0  0  0  0  0  0  0  0  0  0  0  0
  -72.1518   47.9311   81.8164 C   0  0  0  0  0  0  0  0  0  0  0  0
  -72.7051   48.6382   82.6801 O   0  0  0  0  0  0  0  0  0  0  0  0
  -70.7401   47.9340   81.7367 N   0  0  0  0  0  0  0  0  0  0  0  0
  -69.8889   48.8944   82.4526 C   0  0  1  0  0  0  0  0  0  0  0  0
  -68.4941   48.4615   82.2278 C   0  0  0  0  0  0  0  0  0  0  0  0
  -68.0001   48.2439   80.8583 C   0  0  0  0  0  0  0  0  0  0  0  0
  -66.6188   47.7880   80.7004 C   0  0  0  0  0  0  0  0  0  0  0  0
  -66.1399   47.5282   79.5664 O   0  0  0  0  0  0  0  0  0  0  0  0
  -70.2533   50.2315   82.0806 C   0  0  0  0  0  0  0  0  0  0  0  0
  -69.3786   51.1624   82.1052 O   0  0  0  0  0  0  0  0  0  0  0  0
  -65.8007   47.6317   81.8104 O   0  0  0  0  0  0  0  0  0  0  0  0
  -71.5358   50.6200   81.6678 O   0  0  0  0  0  0  0  0  0  0  0  0
  2 10  1  0
  2  1  1  6
  3  2  1  0
  4  3  1  0
  5  4  2  0
  6  5  1  0
  7  8  1  0
  7  6  2  0
  8  9  2  0
  9  4  1  0
 10 11  2  0
 13 12  1  0
 14 13  1  1
 15 14  1  0
 15 10  1  0
 16 17  2  0
 16 14  1  0
 18 16  1  0
 19 18  1  0
 20 21  1  0
 19 20  1  6
 22 21  1  0
 23 22  2  0
 24 19  1  0
 24 27  1  0
 25 24  2  0
 26 22  1  0
M  END
$$$$
