QIM.pdb
     RDKit          3D

 26 25  0  0  1  0  0  0  0  0999 V2000
    9.6030  -16.2728   16.0398 N   0  0  0  0  0  0  0  0  0  0  0  0
    8.6679  -16.9795   16.8611 C   0  0  0  0  0  0  0  0  0  0  0  0
    7.4579  -16.8826   16.5558 O   0  0  0  0  0  0  0  0  0  0  0  0
    9.1538  -17.7877   18.0241 C   0  0  0  0  0  0  0  0  0  0  0  0
    9.5864  -16.8408   19.1226 C   0  0  0  0  0  0  0  0  0  0  0  0
    9.2504  -17.3890   20.4900 C   0  0  2  0  0  0  0  0  0  0  0  0
    7.8372  -17.6866   20.5667 N   0  0  0  0  0  0  0  0  0  0  0  0
    9.5822  -16.4252   21.5686 C   0  0  0  0  0  0  0  0  0  0  0  0
   10.7443  -15.8970   21.5635 O   0  0  0  0  0  0  0  0  0  0  0  0
    6.5913  -12.8783   25.5485 C   0  0  0  0  0  0  0  0  0  0  0  0
    7.9000  -13.5036   25.1579 C   0  0  0  0  0  0  0  0  0  0  0  0
    7.8194  -14.5496   24.1265 C   0  0  2  0  0  0  0  0  0  0  0  0
    6.9005  -15.6524   24.6738 C   0  0  0  0  0  0  0  0  0  0  0  0
    9.0704  -15.2239   23.6870 C   0  0  2  0  0  0  0  0  0  0  0  0
    8.6477  -16.0989   22.5703 N   0  0  0  0  0  0  0  0  0  0  0  0
    9.6427  -16.0969   24.7573 C   0  0  0  0  0  0  0  0  0  0  0  0
    8.8977  -17.0183   25.2497 O   0  0  0  0  0  0  0  0  0  0  0  0
   10.4207  -12.7790   29.5773 C   0  0  0  0  0  0  0  0  0  0  0  0
   10.0957  -14.4550   30.1660 S   0  0  0  0  0  0  0  0  0  0  0  0
   10.7727  -15.6904   29.0491 C   0  0  0  0  0  0  0  0  0  0  0  0
   10.5846  -15.2889   27.5895 C   0  0  0  0  0  0  0  0  0  0  0  0
   11.2139  -16.3098   26.6663 C   0  0  2  0  0  0  0  0  0  0  0  0
   10.9498  -15.9861   25.2694 N   0  0  0  0  0  0  0  0  0  0  0  0
   10.7265  -17.6651   26.9410 C   0  0  0  0  0  0  0  0  0  0  0  0
    9.6156  -18.0497   26.4871 O   0  0  0  0  0  0  0  0  0  0  0  0
   11.4487  -18.5734   27.6984 O   0  0  0  0  0  0  0  0  0  0  0  0
  2  1  1  0
  3  2  2  0
  4  2  1  0
  5  4  1  0
  6  5  1  0
  6  7  1  6
  8  6  1  0
  9  8  2  0
 11 10  1  0
 12 14  1  0
 12 11  1  0
 12 13  1  1
 14 15  1  6
 15  8  1  0
 16 17  2  0
 16 14  1  0
 18 19  1  0
 20 19  1  0
 20 21  1  0
 22 21  1  1
 22 23  1  0
 23 16  1  0
 24 22  1  0
 25 24  2  0
 26 24  1  0
M  END
$$$$
