QIM.pdb
     RDKit          3D

 26 25  0  0  1  0  0  0  0  0999 V2000
  -27.8187   61.0380   43.9404 N   0  0  0  0  0  0  0  0  0  0  0  0
  -28.9493   60.2240   44.2686 C   0  0  0  0  0  0  0  0  0  0  0  0
  -29.1536   59.9994   45.4828 O   0  0  0  0  0  0  0  0  0  0  0  0
  -29.8246   59.6842   43.1803 C   0  0  0  0  0  0  0  0  0  0  0  0
  -31.1685   60.3764   43.2539 C   0  0  0  0  0  0  0  0  0  0  0  0
  -31.2507   61.3001   44.4468 C   0  0  2  0  0  0  0  0  0  0  0  0
  -30.1795   62.2703   44.3921 N   0  0  0  0  0  0  0  0  0  0  0  0
  -31.1424   60.5591   45.7280 C   0  0  0  0  0  0  0  0  0  0  0  0
  -32.1955   60.0058   46.1910 O   0  0  0  0  0  0  0  0  0  0  0  0
  -26.7795   59.1760   46.1469 C   0  0  0  0  0  0  0  0  0  0  0  0
  -26.7598   60.4551   45.3595 C   0  0  0  0  0  0  0  0  0  0  0  0
  -28.0770   61.0491   45.0833 C   0  0  2  0  0  0  0  0  0  0  0  0
  -27.8410   62.2676   44.1778 C   0  0  0  0  0  0  0  0  0  0  0  0
  -28.9039   61.5265   46.2240 C   0  0  2  0  0  0  0  0  0  0  0  0
  -29.9178   60.4654   46.4171 N   0  0  0  0  0  0  0  0  0  0  0  0
  -29.6279   62.7939   45.9003 C   0  0  0  0  0  0  0  0  0  0  0  0
  -30.6880   63.0727   46.5672 O   0  0  0  0  0  0  0  0  0  0  0  0
  -31.3523   65.8068   39.5746 C   0  0  0  0  0  0  0  0  0  0  0  0
  -31.0673   66.7329   41.0986 S   0  0  0  0  0  0  0  0  0  0  0  0
  -31.3384   65.7115   42.5529 C   0  0  0  0  0  0  0  0  0  0  0  0
  -30.0360   65.0980   43.0571 C   0  0  0  0  0  0  0  0  0  0  0  0
  -30.1162   64.8120   44.5412 C   0  0  2  0  0  0  0  0  0  0  0  0
  -29.2304   63.7149   44.9119 N   0  0  0  0  0  0  0  0  0  0  0  0
  -31.4826   64.4821   44.9584 C   0  0  0  0  0  0  0  0  0  0  0  0
  -32.0165   65.0798   45.9308 O   0  0  0  0  0  0  0  0  0  0  0  0
  -32.2405   63.5154   44.3171 O   0  0  0  0  0  0  0  0  0  0  0  0
  2  1  1  0
  3  2  2  0
  4  2  1  0
  5  4  1  0
  6  5  1  0
  6  7  1  6
  8  6  1  0
  9  8  2  0
 11 10  1  0
 12 14  1  0
 12 11  1  0
 12 13  1  6
 14 15  1  6
 15  8  1  0
 16 17  2  0
 16 14  1  0
 18 19  1  0
 20 19  1  0
 20 21  1  0
 22 21  1  6
 22 23  1  0
 23 16  1  0
 24 22  1  0
 25 24  2  0
 26 24  1  0
M  END
$$$$
