QIM.pdb
     RDKit          3D

 26 25  0  0  1  0  0  0  0  0999 V2000
   13.7152  -19.0301   18.6815 N   0  0  0  0  0  0  0  0  0  0  0  0
   12.9481  -20.2002   18.3795 C   0  0  0  0  0  0  0  0  0  0  0  0
   13.5836  -21.2227   18.0374 O   0  0  0  0  0  0  0  0  0  0  0  0
   11.4546  -20.1631   18.4801 C   0  0  0  0  0  0  0  0  0  0  0  0
   11.0350  -18.7783   18.9236 C   0  0  0  0  0  0  0  0  0  0  0  0
   10.6065  -18.7674   20.3726 C   0  0  2  0  0  0  0  0  0  0  0  0
    9.2497  -19.2547   20.4876 N   0  0  0  0  0  0  0  0  0  0  0  0
   10.6621  -17.4035   20.9550 C   0  0  0  0  0  0  0  0  0  0  0  0
   11.7179  -16.7124   20.7626 O   0  0  0  0  0  0  0  0  0  0  0  0
    6.4896  -13.9481   20.5437 C   0  0  0  0  0  0  0  0  0  0  0  0
    7.9268  -14.3588   20.6926 C   0  0  0  0  0  0  0  0  0  0  0  0
    8.2852  -14.9501   21.9912 C   0  0  2  0  0  0  0  0  0  0  0  0
    8.0924  -13.8567   23.0529 C   0  0  0  0  0  0  0  0  0  0  0  0
    9.6600  -15.4849   22.1828 C   0  0  2  0  0  0  0  0  0  0  0  0
    9.5858  -16.8816   21.6983 N   0  0  0  0  0  0  0  0  0  0  0  0
   10.0507  -15.5240   23.6254 C   0  0  0  0  0  0  0  0  0  0  0  0
   10.4556  -14.4363   24.1724 O   0  0  0  0  0  0  0  0  0  0  0  0
    9.6692  -12.5583   28.4011 C   0  0  0  0  0  0  0  0  0  0  0  0
   10.4931  -14.1649   28.4388 S   0  0  0  0  0  0  0  0  0  0  0  0
    9.3691  -15.4944   27.9904 C   0  0  0  0  0  0  0  0  0  0  0  0
    9.1899  -15.5903   26.4786 C   0  0  0  0  0  0  0  0  0  0  0  0
   10.1918  -16.5533   25.8790 C   0  0  2  0  0  0  0  0  0  0  0  0
   10.0055  -16.6732   24.4379 N   0  0  0  0  0  0  0  0  0  0  0  0
   10.0950  -17.8855   26.4838 C   0  0  0  0  0  0  0  0  0  0  0  0
   10.3463  -18.0524   27.7072 O   0  0  0  0  0  0  0  0  0  0  0  0
    9.7293  -19.0058   25.7548 O   0  0  0  0  0  0  0  0  0  0  0  0
  2  1  1  0
  3  2  2  0
  4  2  1  0
  5  4  1  0
  6  5  1  0
  6  7  1  6
  8  6  1  0
  9  8  2  0
 11 10  1  0
 12 14  1  0
 12 11  1  0
 12 13  1  1
 14 15  1  1
 15  8  1  0
 16 17  2  0
 16 14  1  0
 18 19  1  0
 20 19  1  0
 20 21  1  0
 22 21  1  1
 22 23  1  0
 23 16  1  0
 24 22  1  0
 25 24  2  0
 26 24  1  0
M  END
$$$$
