QIM.pdb
     RDKit          3D

 26 25  0  0  1  0  0  0  0  0999 V2000
    4.1565  -20.3525   24.2181 N   0  0  0  0  0  0  0  0  0  0  0  0
    4.9398  -21.2201   23.3921 C   0  0  0  0  0  0  0  0  0  0  0  0
    4.8029  -22.4511   23.5718 O   0  0  0  0  0  0  0  0  0  0  0  0
    5.8699  -20.6431   22.3703 C   0  0  0  0  0  0  0  0  0  0  0  0
    5.7455  -19.1351   22.4015 C   0  0  0  0  0  0  0  0  0  0  0  0
    6.1143  -18.5216   21.0707 C   0  0  2  0  0  0  0  0  0  0  0  0
    6.5416  -19.5557   20.1543 N   0  0  0  0  0  0  0  0  0  0  0  0
    7.2139  -17.5339   21.2033 C   0  0  0  0  0  0  0  0  0  0  0  0
    8.4141  -17.9554   21.0962 O   0  0  0  0  0  0  0  0  0  0  0  0
    6.4816  -12.5820   19.2036 C   0  0  0  0  0  0  0  0  0  0  0  0
    7.2111  -13.8328   19.6033 C   0  0  0  0  0  0  0  0  0  0  0  0
    7.5493  -13.9399   21.0311 C   0  0  2  0  0  0  0  0  0  0  0  0
    8.6201  -12.8773   21.3216 C   0  0  0  0  0  0  0  0  0  0  0  0
    8.0836  -15.2281   21.5488 C   0  0  2  0  0  0  0  0  0  0  0  0
    6.9481  -16.1714   21.4399 N   0  0  0  0  0  0  0  0  0  0  0  0
    8.4636  -15.1382   22.9920 C   0  0  0  0  0  0  0  0  0  0  0  0
    7.6067  -14.6528   23.8144 O   0  0  0  0  0  0  0  0  0  0  0  0
   10.0712  -14.0598   29.1523 C   0  0  0  0  0  0  0  0  0  0  0  0
    9.1291  -14.3002   27.6305 S   0  0  0  0  0  0  0  0  0  0  0  0
    8.9799  -16.0428   27.2141 C   0  0  0  0  0  0  0  0  0  0  0  0
    8.8414  -16.2490   25.7090 C   0  0  0  0  0  0  0  0  0  0  0  0
    9.9268  -15.5036   24.9627 C   0  0  2  0  0  0  0  0  0  0  0  0
    9.7005  -15.5517   23.5232 N   0  0  0  0  0  0  0  0  0  0  0  0
   11.2577  -16.0459   25.2535 C   0  0  0  0  0  0  0  0  0  0  0  0
   11.5223  -17.2545   25.0144 O   0  0  0  0  0  0  0  0  0  0  0  0
   12.2714  -15.2718   25.7952 O   0  0  0  0  0  0  0  0  0  0  0  0
  2  1  1  0
  3  2  2  0
  4  2  1  0
  5  4  1  0
  6  5  1  0
  6  7  1  6
  8  6  1  0
  9  8  2  0
 11 10  1  0
 12 14  1  0
 12 11  1  0
 12 13  1  6
 14 15  1  1
 15  8  1  0
 16 17  2  0
 16 14  1  0
 18 19  1  0
 20 19  1  0
 20 21  1  0
 22 21  1  1
 22 23  1  0
 23 16  1  0
 24 22  1  0
 25 24  2  0
 26 24  1  0
M  END
$$$$
