QIM.pdb
     RDKit          3D

 26 25  0  0  1  0  0  0  0  0999 V2000
   10.7853  -19.0053   15.1789 N   0  0  0  0  0  0  0  0  0  0  0  0
   11.1020  -19.5000   16.4841 C   0  0  0  0  0  0  0  0  0  0  0  0
   12.2121  -20.0609   16.6245 O   0  0  0  0  0  0  0  0  0  0  0  0
   10.1235  -19.3351   17.6053 C   0  0  0  0  0  0  0  0  0  0  0  0
   10.5506  -18.1531   18.4485 C   0  0  0  0  0  0  0  0  0  0  0  0
   10.0125  -18.2546   19.8568 C   0  0  2  0  0  0  0  0  0  0  0  0
    8.6255  -18.6631   19.8249 N   0  0  0  0  0  0  0  0  0  0  0  0
   10.0998  -16.9597   20.5765 C   0  0  0  0  0  0  0  0  0  0  0  0
   11.2518  -16.4277   20.7150 O   0  0  0  0  0  0  0  0  0  0  0  0
    7.1271  -12.6862   19.4551 C   0  0  0  0  0  0  0  0  0  0  0  0
    8.2747  -13.5009   19.9802 C   0  0  0  0  0  0  0  0  0  0  0  0
    8.0359  -14.1769   21.2649 C   0  0  2  0  0  0  0  0  0  0  0  0
    7.7813  -13.0806   22.3106 C   0  0  0  0  0  0  0  0  0  0  0  0
    9.0995  -15.0534   21.8247 C   0  0  2  0  0  0  0  0  0  0  0  0
    8.9501  -16.3316   21.0932 N   0  0  0  0  0  0  0  0  0  0  0  0
    8.8881  -15.3336   23.2780 C   0  0  0  0  0  0  0  0  0  0  0  0
    7.8602  -16.0221   23.6184 O   0  0  0  0  0  0  0  0  0  0  0  0
    5.4678  -12.0212   26.5386 C   0  0  0  0  0  0  0  0  0  0  0  0
    7.0230  -12.3163   27.4077 S   0  0  0  0  0  0  0  0  0  0  0  0
    8.2794  -12.9805   26.3066 C   0  0  0  0  0  0  0  0  0  0  0  0
    8.0711  -14.4702   26.0533 C   0  0  0  0  0  0  0  0  0  0  0  0
    9.3805  -15.1436   25.7028 C   0  0  2  0  0  0  0  0  0  0  0  0
    9.7399  -14.8980   24.3113 N   0  0  0  0  0  0  0  0  0  0  0  0
    9.3264  -16.5908   25.9319 C   0  0  0  0  0  0  0  0  0  0  0  0
    9.1550  -17.0487   27.0933 O   0  0  0  0  0  0  0  0  0  0  0  0
    9.4583  -17.5096   24.9030 O   0  0  0  0  0  0  0  0  0  0  0  0
  2  1  1  0
  3  2  2  0
  4  2  1  0
  5  4  1  0
  6  5  1  0
  6  7  1  6
  8  6  1  0
  9  8  2  0
 11 10  1  0
 12 14  1  0
 12 11  1  0
 12 13  1  1
 14 15  1  6
 15  8  1  0
 16 17  2  0
 16 14  1  0
 18 19  1  0
 20 19  1  0
 20 21  1  0
 22 21  1  6
 22 23  1  0
 23 16  1  0
 24 22  1  0
 25 24  2  0
 26 24  1  0
M  END
$$$$
