QIM.pdb
     RDKit          3D

 26 25  0  0  1  0  0  0  0  0999 V2000
   11.7541  -21.0871   22.5419 N   0  0  0  0  0  0  0  0  0  0  0  0
   12.3470  -21.0869   21.2392 C   0  0  0  0  0  0  0  0  0  0  0  0
   12.8486  -22.1633   20.8438 O   0  0  0  0  0  0  0  0  0  0  0  0
   12.3474  -19.8357   20.4167 C   0  0  0  0  0  0  0  0  0  0  0  0
   11.5373  -18.7821   21.1407 C   0  0  0  0  0  0  0  0  0  0  0  0
   11.4595  -17.5000   20.3448 C   0  0  2  0  0  0  0  0  0  0  0  0
   12.7835  -17.1067   19.9157 N   0  0  0  0  0  0  0  0  0  0  0  0
   10.8793  -16.3899   21.1406 C   0  0  0  0  0  0  0  0  0  0  0  0
   11.6772  -15.6514   21.8096 O   0  0  0  0  0  0  0  0  0  0  0  0
    7.2390  -13.0162   19.2070 C   0  0  0  0  0  0  0  0  0  0  0  0
    8.3498  -13.5912   20.0386 C   0  0  0  0  0  0  0  0  0  0  0  0
    7.9244  -14.4057   21.1876 C   0  0  2  0  0  0  0  0  0  0  0  0
    7.1377  -13.4810   22.1290 C   0  0  0  0  0  0  0  0  0  0  0  0
    8.9618  -15.0705   22.0210 C   0  0  2  0  0  0  0  0  0  0  0  0
    9.4913  -16.1528   21.1611 N   0  0  0  0  0  0  0  0  0  0  0  0
    8.3782  -15.7047   23.2427 C   0  0  0  0  0  0  0  0  0  0  0  0
    8.3337  -16.9859   23.2971 O   0  0  0  0  0  0  0  0  0  0  0  0
    7.1182  -10.9294   26.2020 C   0  0  0  0  0  0  0  0  0  0  0  0
    6.9144  -12.2021   27.4668 S   0  0  0  0  0  0  0  0  0  0  0  0
    7.7669  -13.7204   27.0197 C   0  0  0  0  0  0  0  0  0  0  0  0
    6.7910  -14.7898   26.5389 C   0  0  0  0  0  0  0  0  0  0  0  0
    7.4580  -15.7186   25.5473 C   0  0  2  0  0  0  0  0  0  0  0  0
    7.8711  -14.9971   24.3496 N   0  0  0  0  0  0  0  0  0  0  0  0
    6.5751  -16.8223   25.1571 C   0  0  0  0  0  0  0  0  0  0  0  0
    5.8889  -16.7505   24.1027 O   0  0  0  0  0  0  0  0  0  0  0  0
    6.4535  -17.9772   25.9132 O   0  0  0  0  0  0  0  0  0  0  0  0
  2  1  1  0
  3  2  2  0
  4  2  1  0
  5  4  1  0
  6  5  1  0
  6  7  1  1
  8  6  1  0
  9  8  2  0
 11 10  1  0
 12 14  1  0
 12 11  1  0
 12 13  1  1
 14 15  1  6
 15  8  1  0
 16 17  2  0
 16 14  1  0
 18 19  1  0
 20 19  1  0
 20 21  1  0
 22 21  1  1
 22 23  1  0
 23 16  1  0
 24 22  1  0
 25 24  2  0
 26 24  1  0
M  END
$$$$
