QIM.pdb
     RDKit          3D

 26 25  0  0  1  0  0  0  0  0999 V2000
    9.0980  -21.0288   21.6549 N   0  0  0  0  0  0  0  0  0  0  0  0
    8.8754  -20.6975   20.2804 C   0  0  0  0  0  0  0  0  0  0  0  0
    8.9605  -21.6308   19.4508 O   0  0  0  0  0  0  0  0  0  0  0  0
    8.5574  -19.2869   19.8919 C   0  0  0  0  0  0  0  0  0  0  0  0
    8.3772  -18.4683   21.1520 C   0  0  0  0  0  0  0  0  0  0  0  0
    8.0972  -17.0178   20.8345 C   0  0  2  0  0  0  0  0  0  0  0  0
    8.6686  -16.6765   19.5505 N   0  0  0  0  0  0  0  0  0  0  0  0
    8.6715  -16.1075   21.8562 C   0  0  0  0  0  0  0  0  0  0  0  0
    9.8693  -15.6990   21.6892 O   0  0  0  0  0  0  0  0  0  0  0  0
    6.4067  -12.2979   26.0761 C   0  0  0  0  0  0  0  0  0  0  0  0
    7.6284  -12.9224   25.4648 C   0  0  0  0  0  0  0  0  0  0  0  0
    7.3725  -14.0149   24.5133 C   0  0  2  0  0  0  0  0  0  0  0  0
    6.5098  -15.0556   25.2432 C   0  0  0  0  0  0  0  0  0  0  0  0
    8.5288  -14.7546   23.9399 C   0  0  2  0  0  0  0  0  0  0  0  0
    7.9228  -15.7027   22.9782 N   0  0  0  0  0  0  0  0  0  0  0  0
    9.2510  -15.5559   24.9750 C   0  0  0  0  0  0  0  0  0  0  0  0
    8.5601  -16.3204   25.7394 O   0  0  0  0  0  0  0  0  0  0  0  0
   10.6653  -12.7097   29.7445 C   0  0  0  0  0  0  0  0  0  0  0  0
   10.6170  -14.4401   30.2589 S   0  0  0  0  0  0  0  0  0  0  0  0
   11.1446  -15.5375   28.9362 C   0  0  0  0  0  0  0  0  0  0  0  0
   10.6814  -15.0341   27.5727 C   0  0  0  0  0  0  0  0  0  0  0  0
   11.1995  -15.9274   26.4662 C   0  0  2  0  0  0  0  0  0  0  0  0
   10.6448  -15.5377   25.1754 N   0  0  0  0  0  0  0  0  0  0  0  0
   10.8843  -17.3379   26.7133 C   0  0  0  0  0  0  0  0  0  0  0  0
    9.7092  -17.7669   26.5616 O   0  0  0  0  0  0  0  0  0  0  0  0
   11.8439  -18.2521   27.1178 O   0  0  0  0  0  0  0  0  0  0  0  0
  2  1  1  0
  3  2  2  0
  4  2  1  0
  5  4  1  0
  6  5  1  0
  6  7  1  6
  8  6  1  0
  9  8  2  0
 11 10  1  0
 12 14  1  0
 12 11  1  0
 12 13  1  1
 14 15  1  6
 15  8  1  0
 16 17  2  0
 16 14  1  0
 18 19  1  0
 20 19  1  0
 20 21  1  0
 22 21  1  1
 22 23  1  0
 23 16  1  0
 24 22  1  0
 25 24  2  0
 26 24  1  0
M  END
$$$$
