SIC.pdb
     RDKit          3D

 21 20  0  0  1  0  0  0  0  0999 V2000
    8.7840  -18.2572   22.1946 O   0  0  0  0  0  0  0  0  0  0  0  0
    7.7206  -17.5176   21.7484 C   0  0  0  0  0  0  0  0  0  0  0  0
    8.1481  -16.0867   21.4537 C   0  0  2  0  0  0  0  0  0  0  0  0
    9.1906  -16.0976   20.4281 N   0  0  0  0  0  0  0  0  0  0  0  0
    8.7291  -15.4456   22.6482 C   0  0  0  0  0  0  0  0  0  0  0  0
    9.9947  -15.3505   22.8180 O   0  0  0  0  0  0  0  0  0  0  0  0
    6.7362  -11.6190   26.9457 C   0  0  0  0  0  0  0  0  0  0  0  0
    7.8869  -12.4913   26.4874 C   0  0  0  0  0  0  0  0  0  0  0  0
    7.4076  -13.3116   25.3336 C   0  0  2  0  0  0  0  0  0  0  0  0
    6.2231  -14.1443   25.8227 C   0  0  0  0  0  0  0  0  0  0  0  0
    8.4440  -14.2976   24.8402 C   0  0  2  0  0  0  0  0  0  0  0  0
    7.8776  -14.9161   23.6415 N   0  0  0  0  0  0  0  0  0  0  0  0
    8.7990  -15.3062   25.8321 C   0  0  0  0  0  0  0  0  0  0  0  0
    8.0708  -16.3029   26.0169 O   0  0  0  0  0  0  0  0  0  0  0  0
    9.9772  -15.1701   26.6018 N   0  0  0  0  0  0  0  0  0  0  0  0
   10.4696  -16.1524   27.5159 C   0  0  1  0  0  0  0  0  0  0  0  0
   11.9394  -16.4399   27.1957 C   0  0  0  0  0  0  0  0  0  0  0  0
   12.6272  -17.5884   28.4264 S   0  0  0  0  0  0  0  0  0  0  0  0
   10.4380  -15.6023   28.8839 C   0  0  0  0  0  0  0  0  0  0  0  0
   10.4053  -16.4316   29.9884 O   0  0  0  0  0  0  0  0  0  0  0  0
   10.4406  -14.3674   29.0549 O   0  0  0  0  0  0  0  0  0  0  0  0
  2  1  1  0
  3  2  1  0
  3  4  1  6
  5  3  1  0
  6  5  2  0
  7  8  1  0
  9  8  1  0
  9 10  1  1
 11  9  1  0
 11 12  1  6
 12  5  1  0
 13 14  2  0
 13 11  1  0
 15 13  1  0
 16 15  1  0
 16 17  1  6
 18 17  1  0
 19 20  1  0
 19 16  1  0
 21 19  2  0
M  END
$$$$
