SIC.pdb
     RDKit          3D

 21 20  0  0  1  0  0  0  0  0999 V2000
    7.9603  -19.5131   21.9621 O   0  0  0  0  0  0  0  0  0  0  0  0
    6.9709  -19.3940   21.0219 C   0  0  0  0  0  0  0  0  0  0  0  0
    7.4293  -18.5117   19.8693 C   0  0  2  0  0  0  0  0  0  0  0  0
    8.2909  -19.2906   18.9805 N   0  0  0  0  0  0  0  0  0  0  0  0
    8.2318  -17.3731   20.3540 C   0  0  0  0  0  0  0  0  0  0  0  0
    9.5072  -17.3473   20.2431 O   0  0  0  0  0  0  0  0  0  0  0  0
    6.6570  -12.3522   19.5280 C   0  0  0  0  0  0  0  0  0  0  0  0
    7.6396  -13.4872   19.7317 C   0  0  0  0  0  0  0  0  0  0  0  0
    7.5678  -13.9025   21.1657 C   0  0  2  0  0  0  0  0  0  0  0  0
    8.1861  -12.7813   22.0000 C   0  0  0  0  0  0  0  0  0  0  0  0
    8.3774  -15.1463   21.4605 C   0  0  2  0  0  0  0  0  0  0  0  0
    7.5889  -16.2722   20.9595 N   0  0  0  0  0  0  0  0  0  0  0  0
    8.6857  -15.3119   22.8764 C   0  0  0  0  0  0  0  0  0  0  0  0
    9.4414  -14.5098   23.4625 O   0  0  0  0  0  0  0  0  0  0  0  0
    8.1317  -16.3867   23.6091 N   0  0  0  0  0  0  0  0  0  0  0  0
    8.3033  -16.5876   25.0138 C   0  0  1  0  0  0  0  0  0  0  0  0
    6.9804  -17.0724   25.6140 C   0  0  0  0  0  0  0  0  0  0  0  0
    6.3204  -18.4488   24.6256 S   0  0  0  0  0  0  0  0  0  0  0  0
    9.2844  -17.6666   25.2340 C   0  0  0  0  0  0  0  0  0  0  0  0
    9.7793  -17.9377   26.4951 O   0  0  0  0  0  0  0  0  0  0  0  0
    9.6791  -18.3509   24.2696 O   0  0  0  0  0  0  0  0  0  0  0  0
  2  1  1  0
  3  2  1  0
  3  4  1  6
  5  3  1  0
  6  5  2  0
  7  8  1  0
  9  8  1  0
  9 10  1  1
 11  9  1  0
 11 12  1  1
 12  5  1  0
 13 14  2  0
 13 11  1  0
 15 13  1  0
 16 15  1  0
 16 17  1  6
 18 17  1  0
 19 20  1  0
 19 16  1  0
 21 19  2  0
M  END
$$$$
