SIC.pdb
     RDKit          3D

 21 20  0  0  1  0  0  0  0  0999 V2000
    7.3323  -18.7317   24.2850 O   0  0  0  0  0  0  0  0  0  0  0  0
    6.2912  -18.1719   23.5923 C   0  0  0  0  0  0  0  0  0  0  0  0
    6.7111  -16.8477   22.9701 C   0  0  2  0  0  0  0  0  0  0  0  0
    7.4058  -17.1072   21.7096 N   0  0  0  0  0  0  0  0  0  0  0  0
    7.6577  -16.1247   23.8398 C   0  0  0  0  0  0  0  0  0  0  0  0
    8.9227  -16.1650   23.6452 O   0  0  0  0  0  0  0  0  0  0  0  0
    5.6618  -11.7880   26.3302 C   0  0  0  0  0  0  0  0  0  0  0  0
    6.6940  -12.5896   25.5639 C   0  0  0  0  0  0  0  0  0  0  0  0
    7.2871  -13.5888   26.5040 C   0  0  2  0  0  0  0  0  0  0  0  0
    8.2582  -12.8406   27.4166 C   0  0  0  0  0  0  0  0  0  0  0  0
    8.1014  -14.6512   25.7984 C   0  0  2  0  0  0  0  0  0  0  0  0
    7.1698  -15.3613   24.9221 N   0  0  0  0  0  0  0  0  0  0  0  0
    8.7648  -15.5725   26.7140 C   0  0  0  0  0  0  0  0  0  0  0  0
    8.1002  -16.3538   27.4252 O   0  0  0  0  0  0  0  0  0  0  0  0
   10.1752  -15.5949   26.8104 N   0  0  0  0  0  0  0  0  0  0  0  0
   10.9198  -16.4920   27.6371 C   0  0  1  0  0  0  0  0  0  0  0  0
   12.3559  -16.5793   27.1120 C   0  0  0  0  0  0  0  0  0  0  0  0
   12.3416  -16.9179   25.3254 S   0  0  0  0  0  0  0  0  0  0  0  0
   11.0049  -15.9384   29.0014 C   0  0  0  0  0  0  0  0  0  0  0  0
   10.4910  -14.6915   29.3014 O   0  0  0  0  0  0  0  0  0  0  0  0
   11.5490  -16.6017   29.9060 O   0  0  0  0  0  0  0  0  0  0  0  0
  2  1  1  0
  3  2  1  0
  3  4  1  6
  5  3  1  0
  6  5  2  0
  7  8  1  0
  9  8  1  0
  9 10  1  1
 11  9  1  0
 11 12  1  6
 12  5  1  0
 13 14  2  0
 13 11  1  0
 15 13  1  0
 16 15  1  0
 16 17  1  6
 18 17  1  0
 19 20  1  0
 19 16  1  0
 21 19  2  0
M  END
$$$$
