SIC.pdb
     RDKit          3D

 21 20  0  0  1  0  0  0  0  0999 V2000
    8.6863  -19.9652   16.5583 O   0  0  0  0  0  0  0  0  0  0  0  0
    8.7073  -19.0863   17.6089 C   0  0  0  0  0  0  0  0  0  0  0  0
    8.9615  -17.6683   17.1173 C   0  0  2  0  0  0  0  0  0  0  0  0
   10.0017  -17.6947   16.0895 N   0  0  0  0  0  0  0  0  0  0  0  0
    9.4572  -16.8057   18.2061 C   0  0  0  0  0  0  0  0  0  0  0  0
   10.7083  -16.6332   18.4176 O   0  0  0  0  0  0  0  0  0  0  0  0
    6.6907  -12.3611   19.7720 C   0  0  0  0  0  0  0  0  0  0  0  0
    7.8664  -13.2537   19.4315 C   0  0  0  0  0  0  0  0  0  0  0  0
    7.9376  -14.3306   20.4655 C   0  0  2  0  0  0  0  0  0  0  0  0
    8.3128  -13.6700   21.7915 C   0  0  0  0  0  0  0  0  0  0  0  0
    9.0171  -15.3518   20.1801 C   0  0  2  0  0  0  0  0  0  0  0  0
    8.5374  -16.1439   19.0476 N   0  0  0  0  0  0  0  0  0  0  0  0
    9.3220  -16.2041   21.3237 C   0  0  0  0  0  0  0  0  0  0  0  0
    8.4833  -17.0250   21.7486 O   0  0  0  0  0  0  0  0  0  0  0  0
   10.5760  -16.1133   21.9705 N   0  0  0  0  0  0  0  0  0  0  0  0
   10.9891  -16.9369   23.0630 C   0  0  1  0  0  0  0  0  0  0  0  0
   12.4354  -16.5912   23.4297 C   0  0  0  0  0  0  0  0  0  0  0  0
   13.3657  -18.1141   23.7792 S   0  0  0  0  0  0  0  0  0  0  0  0
   10.1690  -16.6207   24.2473 C   0  0  0  0  0  0  0  0  0  0  0  0
    9.7889  -17.6056   25.1386 O   0  0  0  0  0  0  0  0  0  0  0  0
    9.8082  -15.4455   24.4547 O   0  0  0  0  0  0  0  0  0  0  0  0
  2  1  1  0
  3  2  1  0
  3  4  1  6
  5  3  1  0
  6  5  2  0
  7  8  1  0
  9  8  1  0
  9 10  1  1
 11  9  1  0
 11 12  1  6
 12  5  1  0
 13 14  2  0
 13 11  1  0
 15 13  1  0
 16 15  1  0
 16 17  1  1
 18 17  1  0
 19 20  1  0
 19 16  1  0
 21 19  2  0
M  END
$$$$
