SIC.pdb
     RDKit          3D

 21 20  0  0  1  0  0  0  0  0999 V2000
    5.5983  -16.8993   20.4090 O   0  0  0  0  0  0  0  0  0  0  0  0
    6.7985  -16.8255   21.0654 C   0  0  0  0  0  0  0  0  0  0  0  0
    7.3410  -15.4036   21.0334 C   0  0  2  0  0  0  0  0  0  0  0  0
    8.2701  -15.2684   19.9121 N   0  0  0  0  0  0  0  0  0  0  0  0
    8.1009  -15.0937   22.2589 C   0  0  0  0  0  0  0  0  0  0  0  0
    9.3582  -15.3181   22.3513 O   0  0  0  0  0  0  0  0  0  0  0  0
    7.3377  -11.7329   27.2744 C   0  0  0  0  0  0  0  0  0  0  0  0
    8.1181  -12.8728   26.6526 C   0  0  0  0  0  0  0  0  0  0  0  0
    7.4643  -13.2200   25.3541 C   0  0  2  0  0  0  0  0  0  0  0  0
    6.0427  -13.6861   25.6660 C   0  0  0  0  0  0  0  0  0  0  0  0
    8.1413  -14.3708   24.6422 C   0  0  2  0  0  0  0  0  0  0  0  0
    7.4364  -14.5325   23.3705 N   0  0  0  0  0  0  0  0  0  0  0  0
    8.1288  -15.6112   25.4093 C   0  0  0  0  0  0  0  0  0  0  0  0
    7.0641  -16.2354   25.5951 O   0  0  0  0  0  0  0  0  0  0  0  0
    9.3263  -16.1273   25.9559 N   0  0  0  0  0  0  0  0  0  0  0  0
    9.4471  -17.4014   26.5922 C   0  0  1  0  0  0  0  0  0  0  0  0
   10.3418  -18.3036   25.7371 C   0  0  0  0  0  0  0  0  0  0  0  0
   11.9079  -17.4544   25.3722 S   0  0  0  0  0  0  0  0  0  0  0  0
   10.1339  -17.2349   27.8867 C   0  0  0  0  0  0  0  0  0  0  0  0
   10.3332  -18.3074   28.7345 O   0  0  0  0  0  0  0  0  0  0  0  0
   10.5450  -16.1089   28.2292 O   0  0  0  0  0  0  0  0  0  0  0  0
  2  1  1  0
  3  2  1  0
  3  4  1  6
  5  3  1  0
  6  5  2  0
  7  8  1  0
  9  8  1  0
  9 10  1  1
 11  9  1  0
 11 12  1  6
 12  5  1  0
 13 14  2  0
 13 11  1  0
 15 13  1  0
 16 15  1  0
 16 17  1  6
 18 17  1  0
 19 20  1  0
 19 16  1  0
 21 19  2  0
M  END
$$$$
