SIC.pdb
     RDKit          3D

 21 20  0  0  1  0  0  0  0  0999 V2000
    7.4884  -20.1445   20.0959 O   0  0  0  0  0  0  0  0  0  0  0  0
    6.6591  -19.3087   19.3955 C   0  0  0  0  0  0  0  0  0  0  0  0
    7.4679  -18.3038   18.5874 C   0  0  2  0  0  0  0  0  0  0  0  0
    8.4108  -19.0226   17.7310 N   0  0  0  0  0  0  0  0  0  0  0  0
    8.2679  -17.4308   19.4666 C   0  0  0  0  0  0  0  0  0  0  0  0
    9.5061  -17.6576   19.7016 O   0  0  0  0  0  0  0  0  0  0  0  0
    6.8233  -12.1660   19.9261 C   0  0  0  0  0  0  0  0  0  0  0  0
    7.6885  -13.3971   19.7509 C   0  0  0  0  0  0  0  0  0  0  0  0
    7.6967  -14.1388   21.0486 C   0  0  2  0  0  0  0  0  0  0  0  0
    8.4488  -13.2793   22.0641 C   0  0  0  0  0  0  0  0  0  0  0  0
    8.4416  -15.4536   20.9716 C   0  0  2  0  0  0  0  0  0  0  0  0
    7.6648  -16.3082   20.0735 N   0  0  0  0  0  0  0  0  0  0  0  0
    8.6252  -16.0897   22.2712 C   0  0  0  0  0  0  0  0  0  0  0  0
    7.6412  -16.4333   22.9577 O   0  0  0  0  0  0  0  0  0  0  0  0
    9.9248  -16.3276   22.7748 N   0  0  0  0  0  0  0  0  0  0  0  0
   10.2094  -16.9339   24.0374 C   0  0  1  0  0  0  0  0  0  0  0  0
   10.4930  -18.4236   23.8232 C   0  0  0  0  0  0  0  0  0  0  0  0
   10.9875  -19.1913   25.3958 S   0  0  0  0  0  0  0  0  0  0  0  0
   11.4441  -16.3471   24.5910 C   0  0  0  0  0  0  0  0  0  0  0  0
   12.2617  -15.5421   23.8214 O   0  0  0  0  0  0  0  0  0  0  0  0
   11.7624  -16.5770   25.7742 O   0  0  0  0  0  0  0  0  0  0  0  0
  2  1  1  0
  3  2  1  0
  3  4  1  6
  5  3  1  0
  6  5  2  0
  7  8  1  0
  9  8  1  0
  9 10  1  1
 11  9  1  0
 11 12  1  6
 12  5  1  0
 13 14  2  0
 13 11  1  0
 15 13  1  0
 16 15  1  0
 16 17  1  6
 18 17  1  0
 19 20  1  0
 19 16  1  0
 21 19  2  0
M  END
$$$$
