NDI.pdb
     RDKit          3D

 25 24  0  0  1  0  0  0  0  0999 V2000
    7.6087  -12.3656   17.3200 N   0  0  0  0  0  0  0  0  0  0  0  0
    8.3080  -13.3062   18.1018 C   0  0  0  0  0  0  0  0  0  0  0  0
    9.4062  -13.7659   17.6426 O   0  0  0  0  0  0  0  0  0  0  0  0
    7.8658  -13.8001   19.4122 C   0  0  0  0  0  0  0  0  0  0  0  0
    8.2898  -15.2502   19.5900 C   0  0  2  0  0  0  0  0  0  0  0  0
    7.5477  -16.0753   18.6848 N   0  0  0  0  0  0  0  0  0  0  0  0
    8.1290  -15.6644   21.0046 C   0  0  0  0  0  0  0  0  0  0  0  0
    7.0161  -15.3771   21.5477 O   0  0  0  0  0  0  0  0  0  0  0  0
    9.1319  -16.3401   21.7370 N   0  0  0  0  0  0  0  0  0  0  0  0
    8.8727  -16.7283   23.0839 C   0  0  1  0  0  0  0  0  0  0  0  0
    9.5694  -18.0229   23.4857 C   0  0  0  0  0  0  0  0  0  0  0  0
    9.2202  -19.0815   22.5319 C   0  0  0  0  0  0  0  0  0  0  0  0
    8.0699  -19.5195   22.3468 O   0  0  0  0  0  0  0  0  0  0  0  0
    9.2234  -15.6342   24.0552 C   0  0  0  0  0  0  0  0  0  0  0  0
   10.3914  -15.1678   24.0148 O   0  0  0  0  0  0  0  0  0  0  0  0
   10.2543  -19.6351   21.7795 O   0  0  0  0  0  0  0  0  0  0  0  0
    5.5427  -12.2052   26.8354 C   0  0  0  0  0  0  0  0  0  0  0  0
    6.3202  -13.4259   26.3920 C   0  0  0  0  0  0  0  0  0  0  0  0
    7.7147  -13.0054   26.0808 C   0  0  2  0  0  0  0  0  0  0  0  0
    7.6643  -12.2656   24.7379 C   0  0  0  0  0  0  0  0  0  0  0  0
    8.6900  -14.1311   25.9321 C   0  0  2  0  0  0  0  0  0  0  0  0
    8.2792  -15.1341   24.9918 N   0  0  0  0  0  0  0  0  0  0  0  0
    8.8801  -14.7643   27.2520 C   0  0  0  0  0  0  0  0  0  0  0  0
    9.3622  -14.1189   28.2098 O   0  0  0  0  0  0  0  0  0  0  0  0
    8.5247  -16.0831   27.4404 O   0  0  0  0  0  0  0  0  0  0  0  0
  1  2  1  0
  2  4  1  0
  3  2  2  0
  4  5  1  0
  5  7  1  0
  5  6  1  6
  7  8  2  0
  9  7  1  0
  9 10  1  0
 10 14  1  0
 10 11  1  1
 12 11  1  0
 13 12  2  0
 14 15  2  0
 16 12  1  0
 18 17  1  0
 19 18  1  0
 19 21  1  0
 19 20  1  6
 21 23  1  0
 22 14  1  0
 21 22  1  6
 23 25  1  0
 24 23  2  0
M  END
$$$$
