NDI.pdb
     RDKit          3D

 25 24  0  0  1  0  0  0  0  0999 V2000
    9.2661  -14.9426   16.5656 N   0  0  0  0  0  0  0  0  0  0  0  0
    8.2160  -14.3139   17.2634 C   0  0  0  0  0  0  0  0  0  0  0  0
    7.7300  -13.2415   16.7714 O   0  0  0  0  0  0  0  0  0  0  0  0
    7.6358  -14.8023   18.5209 C   0  0  0  0  0  0  0  0  0  0  0  0
    8.3641  -16.0585   18.9745 C   0  0  2  0  0  0  0  0  0  0  0  0
    7.9361  -17.1685   18.1771 N   0  0  0  0  0  0  0  0  0  0  0  0
    8.1530  -16.2811   20.4252 C   0  0  0  0  0  0  0  0  0  0  0  0
    6.9482  -16.4471   20.7954 O   0  0  0  0  0  0  0  0  0  0  0  0
    9.2049  -16.3132   21.3693 N   0  0  0  0  0  0  0  0  0  0  0  0
    8.9498  -16.8005   22.6844 C   0  0  1  0  0  0  0  0  0  0  0  0
    9.6989  -18.0873   23.0093 C   0  0  0  0  0  0  0  0  0  0  0  0
    9.4646  -18.4475   24.4121 C   0  0  0  0  0  0  0  0  0  0  0  0
    8.3795  -18.8503   24.8703 O   0  0  0  0  0  0  0  0  0  0  0  0
    9.2422  -15.7587   23.7298 C   0  0  0  0  0  0  0  0  0  0  0  0
   10.3978  -15.2613   23.7532 O   0  0  0  0  0  0  0  0  0  0  0  0
   10.5373  -18.3289   25.2936 O   0  0  0  0  0  0  0  0  0  0  0  0
    6.6594  -11.1190   26.5309 C   0  0  0  0  0  0  0  0  0  0  0  0
    7.8115  -12.0993   26.5831 C   0  0  0  0  0  0  0  0  0  0  0  0
    7.4718  -13.2675   25.7238 C   0  0  2  0  0  0  0  0  0  0  0  0
    6.2846  -13.9755   26.3889 C   0  0  0  0  0  0  0  0  0  0  0  0
    8.5670  -14.2773   25.5780 C   0  0  2  0  0  0  0  0  0  0  0  0
    8.2580  -15.3405   24.6653 N   0  0  0  0  0  0  0  0  0  0  0  0
    8.8509  -14.8563   26.9059 C   0  0  0  0  0  0  0  0  0  0  0  0
    8.4945  -16.0226   27.1868 O   0  0  0  0  0  0  0  0  0  0  0  0
    9.5166  -14.1093   27.8545 O   0  0  0  0  0  0  0  0  0  0  0  0
  1  2  1  0
  2  4  1  0
  3  2  2  0
  4  5  1  0
  5  7  1  0
  5  6  1  6
  7  8  2  0
  9  7  1  0
  9 10  1  0
 10 14  1  0
 10 11  1  1
 12 11  1  0
 13 12  2  0
 14 15  2  0
 16 12  1  0
 18 17  1  0
 19 18  1  0
 19 21  1  0
 19 20  1  1
 21 23  1  0
 22 14  1  0
 21 22  1  6
 23 25  1  0
 24 23  2  0
M  END
$$$$
