NDI.pdb
     RDKit          3D

 25 24  0  0  1  0  0  0  0  0999 V2000
    8.8166  -12.7101   17.0757 N   0  0  0  0  0  0  0  0  0  0  0  0
    7.7533  -13.6268   17.1945 C   0  0  0  0  0  0  0  0  0  0  0  0
    7.0035  -13.8066   16.1778 O   0  0  0  0  0  0  0  0  0  0  0  0
    7.4415  -14.3949   18.4066 C   0  0  0  0  0  0  0  0  0  0  0  0
    8.2774  -13.8869   19.5718 C   0  0  2  0  0  0  0  0  0  0  0  0
    9.6338  -13.7188   19.1442 N   0  0  0  0  0  0  0  0  0  0  0  0
    8.1525  -14.8009   20.7327 C   0  0  0  0  0  0  0  0  0  0  0  0
    7.0158  -14.8301   21.3009 O   0  0  0  0  0  0  0  0  0  0  0  0
    9.2131  -15.6066   21.2070 N   0  0  0  0  0  0  0  0  0  0  0  0
    9.0440  -16.3458   22.4140 C   0  0  1  0  0  0  0  0  0  0  0  0
    9.9277  -17.5849   22.4941 C   0  0  0  0  0  0  0  0  0  0  0  0
    9.6559  -18.4535   21.3434 C   0  0  0  0  0  0  0  0  0  0  0  0
    8.5596  -18.9919   21.1032 O   0  0  0  0  0  0  0  0  0  0  0  0
    9.2577  -15.4839   23.6286 C   0  0  0  0  0  0  0  0  0  0  0  0
   10.3172  -14.8075   23.6871 O   0  0  0  0  0  0  0  0  0  0  0  0
   10.7038  -18.6912   20.4562 O   0  0  0  0  0  0  0  0  0  0  0  0
    5.8545  -11.9956   25.7538 C   0  0  0  0  0  0  0  0  0  0  0  0
    7.0340  -12.7754   25.2135 C   0  0  0  0  0  0  0  0  0  0  0  0
    7.4813  -13.7342   26.2619 C   0  0  2  0  0  0  0  0  0  0  0  0
    7.9899  -12.8950   27.4409 C   0  0  0  0  0  0  0  0  0  0  0  0
    8.5979  -14.6404   25.8465 C   0  0  2  0  0  0  0  0  0  0  0  0
    8.3054  -15.4250   24.6813 N   0  0  0  0  0  0  0  0  0  0  0  0
    8.9063  -15.5493   26.9682 C   0  0  0  0  0  0  0  0  0  0  0  0
    8.2504  -16.6010   27.1407 O   0  0  0  0  0  0  0  0  0  0  0  0
    9.9283  -15.2428   27.8415 O   0  0  0  0  0  0  0  0  0  0  0  0
  1  2  1  0
  2  4  1  0
  3  2  2  0
  4  5  1  0
  5  7  1  0
  5  6  1  6
  7  8  2  0
  9  7  1  0
  9 10  1  0
 10 14  1  0
 10 11  1  6
 12 11  1  0
 13 12  2  0
 14 15  2  0
 16 12  1  0
 18 17  1  0
 19 18  1  0
 19 21  1  0
 19 20  1  1
 21 23  1  0
 22 14  1  0
 21 22  1  6
 23 25  1  0
 24 23  2  0
M  END
$$$$
