NDI.pdb
     RDKit          3D

 25 24  0  0  1  0  0  0  0  0999 V2000
    8.3288  -12.8684   16.8385 N   0  0  0  0  0  0  0  0  0  0  0  0
    8.4957  -14.2671   16.8070 C   0  0  0  0  0  0  0  0  0  0  0  0
    8.8707  -14.7991   15.7095 O   0  0  0  0  0  0  0  0  0  0  0  0
    8.2695  -15.1632   17.9482 C   0  0  0  0  0  0  0  0  0  0  0  0
    7.6758  -14.3824   19.1109 C   0  0  2  0  0  0  0  0  0  0  0  0
    8.5338  -13.2808   19.4293 N   0  0  0  0  0  0  0  0  0  0  0  0
    7.4428  -15.2793   20.2685 C   0  0  0  0  0  0  0  0  0  0  0  0
    6.5425  -16.1638   20.1175 O   0  0  0  0  0  0  0  0  0  0  0  0
    8.1604  -15.1854   21.4831 N   0  0  0  0  0  0  0  0  0  0  0  0
    7.9122  -16.1346   22.5172 C   0  0  1  0  0  0  0  0  0  0  0  0
    8.2765  -17.5626   22.1286 C   0  0  0  0  0  0  0  0  0  0  0  0
    7.9717  -18.4649   23.2446 C   0  0  0  0  0  0  0  0  0  0  0  0
    8.1833  -18.2078   24.4440 O   0  0  0  0  0  0  0  0  0  0  0  0
    8.6082  -15.7577   23.7967 C   0  0  0  0  0  0  0  0  0  0  0  0
    9.8569  -15.9039   23.8487 O   0  0  0  0  0  0  0  0  0  0  0  0
    7.4038  -19.6994   22.9359 O   0  0  0  0  0  0  0  0  0  0  0  0
    5.7710  -12.2231   27.2403 C   0  0  0  0  0  0  0  0  0  0  0  0
    6.3868  -13.5021   26.7149 C   0  0  0  0  0  0  0  0  0  0  0  0
    7.7754  -13.2036   26.2666 C   0  0  2  0  0  0  0  0  0  0  0  0
    7.6575  -12.2890   25.0408 C   0  0  0  0  0  0  0  0  0  0  0  0
    8.5711  -14.4019   25.8526 C   0  0  2  0  0  0  0  0  0  0  0  0
    7.8940  -15.2527   24.9163 N   0  0  0  0  0  0  0  0  0  0  0  0
    8.8992  -15.1867   27.0591 C   0  0  0  0  0  0  0  0  0  0  0  0
    9.5383  -14.6730   28.0045 O   0  0  0  0  0  0  0  0  0  0  0  0
    8.5002  -16.5031   27.1536 O   0  0  0  0  0  0  0  0  0  0  0  0
  1  2  1  0
  2  4  1  0
  3  2  2  0
  4  5  1  0
  5  7  1  0
  5  6  1  1
  7  8  2  0
  9  7  1  0
  9 10  1  0
 10 14  1  0
 10 11  1  6
 12 11  1  0
 13 12  2  0
 14 15  2  0
 16 12  1  0
 18 17  1  0
 19 18  1  0
 19 21  1  0
 19 20  1  6
 21 23  1  0
 22 14  1  0
 21 22  1  6
 23 25  1  0
 24 23  2  0
M  END
$$$$
