NDI.pdb
     RDKit          3D

 25 24  0  0  1  0  0  0  0  0999 V2000
    2.0143  -19.0362   21.4988 N   0  0  0  0  0  0  0  0  0  0  0  0
    3.4047  -19.1575   21.3063 C   0  0  0  0  0  0  0  0  0  0  0  0
    3.8195  -19.5030   20.1501 O   0  0  0  0  0  0  0  0  0  0  0  0
    4.4176  -18.9151   22.3415 C   0  0  0  0  0  0  0  0  0  0  0  0
    5.1038  -17.5803   22.0931 C   0  0  2  0  0  0  0  0  0  0  0  0
    5.0604  -17.2782   20.6939 N   0  0  0  0  0  0  0  0  0  0  0  0
    6.4854  -17.6031   22.6310 C   0  0  0  0  0  0  0  0  0  0  0  0
    6.6095  -17.9891   23.8358 O   0  0  0  0  0  0  0  0  0  0  0  0
    7.6206  -17.2251   21.8777 N   0  0  0  0  0  0  0  0  0  0  0  0
    8.8877  -17.1278   22.5234 C   0  0  1  0  0  0  0  0  0  0  0  0
   10.0610  -17.0868   21.5517 C   0  0  0  0  0  0  0  0  0  0  0  0
    9.8755  -18.1123   20.5191 C   0  0  0  0  0  0  0  0  0  0  0  0
    9.3425  -19.2213   20.7071 O   0  0  0  0  0  0  0  0  0  0  0  0
    8.9492  -15.9456   23.4521 C   0  0  0  0  0  0  0  0  0  0  0  0
    9.6257  -14.9493   23.0872 O   0  0  0  0  0  0  0  0  0  0  0  0
   10.3305  -17.8203   19.2347 O   0  0  0  0  0  0  0  0  0  0  0  0
    6.3751  -11.8900   26.6783 C   0  0  0  0  0  0  0  0  0  0  0  0
    7.5620  -12.8268   26.7475 C   0  0  0  0  0  0  0  0  0  0  0  0
    7.3878  -13.8808   25.7097 C   0  0  2  0  0  0  0  0  0  0  0  0
    6.1235  -14.6651   26.0837 C   0  0  0  0  0  0  0  0  0  0  0  0
    8.5120  -14.8652   25.6218 C   0  0  2  0  0  0  0  0  0  0  0  0
    8.2721  -15.9393   24.7012 N   0  0  0  0  0  0  0  0  0  0  0  0
    8.7454  -15.4317   26.9649 C   0  0  0  0  0  0  0  0  0  0  0  0
    8.4040  -16.6051   27.2345 O   0  0  0  0  0  0  0  0  0  0  0  0
    9.3465  -14.6649   27.9405 O   0  0  0  0  0  0  0  0  0  0  0  0
  1  2  1  0
  2  4  1  0
  3  2  2  0
  4  5  1  0
  5  7  1  0
  5  6  1  6
  7  8  2  0
  9  7  1  0
  9 10  1  0
 10 14  1  0
 10 11  1  6
 12 11  1  0
 13 12  2  0
 14 15  2  0
 16 12  1  0
 18 17  1  0
 19 18  1  0
 19 21  1  0
 19 20  1  1
 21 23  1  0
 22 14  1  0
 21 22  1  6
 23 25  1  0
 24 23  2  0
M  END
$$$$
