NDI.pdb
     RDKit          3D

 25 24  0  0  1  0  0  0  0  0999 V2000
    9.3613  -14.9938   17.9561 N   0  0  0  0  0  0  0  0  0  0  0  0
    8.1280  -14.5362   17.4514 C   0  0  0  0  0  0  0  0  0  0  0  0
    7.7216  -15.0171   16.3416 O   0  0  0  0  0  0  0  0  0  0  0  0
    7.2707  -13.5424   18.1101 C   0  0  0  0  0  0  0  0  0  0  0  0
    7.9392  -13.0422   19.3817 C   0  0  2  0  0  0  0  0  0  0  0  0
    9.2460  -12.5478   19.0672 N   0  0  0  0  0  0  0  0  0  0  0  0
    7.9641  -14.1135   20.4065 C   0  0  0  0  0  0  0  0  0  0  0  0
    6.8362  -14.6006   20.7330 O   0  0  0  0  0  0  0  0  0  0  0  0
    9.1525  -14.5899   21.0063 N   0  0  0  0  0  0  0  0  0  0  0  0
    9.0747  -15.6103   21.9986 C   0  0  1  0  0  0  0  0  0  0  0  0
   10.0634  -16.7485   21.7758 C   0  0  0  0  0  0  0  0  0  0  0  0
    9.9307  -17.7293   22.8587 C   0  0  0  0  0  0  0  0  0  0  0  0
   10.6644  -17.7824   23.8628 O   0  0  0  0  0  0  0  0  0  0  0  0
    9.2404  -15.0510   23.3855 C   0  0  0  0  0  0  0  0  0  0  0  0
   10.3022  -14.4261   23.6415 O   0  0  0  0  0  0  0  0  0  0  0  0
    8.9072  -18.6690   22.7524 O   0  0  0  0  0  0  0  0  0  0  0  0
    5.7544  -11.9225   25.6782 C   0  0  0  0  0  0  0  0  0  0  0  0
    6.9950  -12.6283   25.1742 C   0  0  0  0  0  0  0  0  0  0  0  0
    7.3176  -13.7372   26.1149 C   0  0  2  0  0  0  0  0  0  0  0  0
    7.7423  -13.0859   27.4372 C   0  0  0  0  0  0  0  0  0  0  0  0
    8.4402  -14.6246   25.6755 C   0  0  2  0  0  0  0  0  0  0  0  0
    8.2415  -15.2143   24.3825 N   0  0  0  0  0  0  0  0  0  0  0  0
    8.6032  -15.7023   26.6711 C   0  0  0  0  0  0  0  0  0  0  0  0
    9.0430  -15.4564   27.8166 O   0  0  0  0  0  0  0  0  0  0  0  0
    8.2690  -16.9991   26.3427 O   0  0  0  0  0  0  0  0  0  0  0  0
  1  2  1  0
  2  4  1  0
  3  2  2  0
  4  5  1  0
  5  7  1  0
  5  6  1  6
  7  8  2  0
  9  7  1  0
  9 10  1  0
 10 14  1  0
 10 11  1  6
 12 11  1  0
 13 12  2  0
 14 15  2  0
 16 12  1  0
 18 17  1  0
 19 18  1  0
 19 21  1  0
 19 20  1  1
 21 23  1  0
 22 14  1  0
 21 22  1  6
 23 25  1  0
 24 23  2  0
M  END
$$$$
