NDI.pdb
     RDKit          3D

 25 24  0  0  1  0  0  0  0  0999 V2000
    7.7047  -12.2837   17.0274 N   0  0  0  0  0  0  0  0  0  0  0  0
    7.7766  -13.6554   17.3408 C   0  0  0  0  0  0  0  0  0  0  0  0
    8.0945  -14.4653   16.4075 O   0  0  0  0  0  0  0  0  0  0  0  0
    7.5117  -14.2261   18.6677 C   0  0  0  0  0  0  0  0  0  0  0  0
    8.7608  -14.1329   19.5310 C   0  0  2  0  0  0  0  0  0  0  0  0
    9.8938  -14.5748   18.7746 N   0  0  0  0  0  0  0  0  0  0  0  0
    8.5774  -14.8991   20.7872 C   0  0  0  0  0  0  0  0  0  0  0  0
    7.5201  -14.6467   21.4462 O   0  0  0  0  0  0  0  0  0  0  0  0
    9.5023  -15.8607   21.2549 N   0  0  0  0  0  0  0  0  0  0  0  0
    9.2765  -16.4951   22.5113 C   0  0  1  0  0  0  0  0  0  0  0  0
   10.2016  -17.6790   22.7669 C   0  0  0  0  0  0  0  0  0  0  0  0
   10.0261  -18.6739   21.7030 C   0  0  0  0  0  0  0  0  0  0  0  0
    8.9521  -19.2414   21.4314 O   0  0  0  0  0  0  0  0  0  0  0  0
    9.3670  -15.5179   23.6518 C   0  0  0  0  0  0  0  0  0  0  0  0
   10.3906  -14.7892   23.7183 O   0  0  0  0  0  0  0  0  0  0  0  0
   11.1458  -19.0057   20.9428 O   0  0  0  0  0  0  0  0  0  0  0  0
    6.3525  -11.3481   26.4794 C   0  0  0  0  0  0  0  0  0  0  0  0
    7.4866  -12.3316   26.6734 C   0  0  0  0  0  0  0  0  0  0  0  0
    7.3463  -13.4141   25.6600 C   0  0  2  0  0  0  0  0  0  0  0  0
    6.0512  -14.1660   25.9924 C   0  0  0  0  0  0  0  0  0  0  0  0
    8.4560  -14.4186   25.6587 C   0  0  2  0  0  0  0  0  0  0  0  0
    8.3401  -15.4098   24.6278 N   0  0  0  0  0  0  0  0  0  0  0  0
    8.4775  -15.0953   26.9706 C   0  0  0  0  0  0  0  0  0  0  0  0
    8.7718  -14.4668   28.0120 O   0  0  0  0  0  0  0  0  0  0  0  0
    8.1707  -16.4366   27.0582 O   0  0  0  0  0  0  0  0  0  0  0  0
  1  2  1  0
  2  4  1  0
  3  2  2  0
  4  5  1  0
  5  7  1  0
  5  6  1  6
  7  8  2  0
  9  7  1  0
  9 10  1  0
 10 14  1  0
 10 11  1  1
 12 11  1  0
 13 12  2  0
 14 15  2  0
 16 12  1  0
 18 17  1  0
 19 18  1  0
 19 21  1  0
 19 20  1  1
 21 23  1  0
 22 14  1  0
 21 22  1  6
 23 25  1  0
 24 23  2  0
M  END
$$$$
