NKA.pdb
     RDKit          3D

 23 22  0  0  1  0  0  0  0  0999 V2000
    8.0993  -12.3692   17.9871 N   0  0  0  0  0  0  0  0  0  0  0  0
    7.6797  -13.6812   18.3253 C   0  0  0  0  0  0  0  0  0  0  0  0
    7.7403  -14.5819   17.4672 O   0  0  0  0  0  0  0  0  0  0  0  0
    7.1825  -13.9404   19.6900 C   0  0  0  0  0  0  0  0  0  0  0  0
    8.2172  -14.5891   20.5576 C   0  0  2  0  0  0  0  0  0  0  0  0
    8.8742  -15.7065   19.9325 N   0  0  0  0  0  0  0  0  0  0  0  0
    7.7328  -14.8693   21.9163 C   0  0  0  0  0  0  0  0  0  0  0  0
    7.0014  -14.0050   22.4661 O   0  0  0  0  0  0  0  0  0  0  0  0
    8.0428  -16.0496   22.6344 N   0  0  0  0  0  0  0  0  0  0  0  0
    7.5643  -16.2643   23.9716 C   0  0  1  0  0  0  0  0  0  0  0  0
    7.6398  -17.7061   24.4220 C   0  0  0  0  0  0  0  0  0  0  0  0
    7.2252  -17.9038   25.8422 C   0  0  0  0  0  0  0  0  0  0  0  0
    7.3948  -19.3727   26.1766 C   0  0  0  0  0  0  0  0  0  0  0  0
    6.9804  -19.6874   27.5822 C   0  0  0  0  0  0  0  0  0  0  0  0
    7.1269  -21.0647   27.9365 N   0  0  0  0  0  0  0  0  0  0  0  0
    8.3135  -15.4034   24.8989 C   0  0  0  0  0  0  0  0  0  0  0  0
    9.5640  -15.4718   24.9376 O   0  0  0  0  0  0  0  0  0  0  0  0
    7.6142  -12.4048   27.0938 C   0  0  0  0  0  0  0  0  0  0  0  0
    8.3903  -13.6278   26.6894 C   0  0  2  0  0  0  0  0  0  0  0  0
    7.6911  -14.4752   25.7755 N   0  0  0  0  0  0  0  0  0  0  0  0
    8.7674  -14.3934   27.9067 C   0  0  0  0  0  0  0  0  0  0  0  0
    9.4075  -13.7786   28.7958 O   0  0  0  0  0  0  0  0  0  0  0  0
    8.4165  -15.7458   28.0422 O   0  0  0  0  0  0  0  0  0  0  0  0
  2  1  1  0
  3  2  2  0
  4  5  1  0
  4  2  1  0
  5  7  1  0
  5  6  1  6
  7  8  2  0
  9 10  1  0
  9  7  1  0
 11 12  1  0
 10 11  1  1
 12 13  1  0
 14 13  1  0
 15 14  1  0
 16 10  1  0
 16 17  2  0
 19 18  1  1
 19 20  1  0
 19 21  1  0
 20 16  1  0
 21 22  2  0
 21 23  1  0
M  END
$$$$
