NKA.pdb
     RDKit          3D

 23 22  0  0  1  0  0  0  0  0999 V2000
   14.0891  -15.5403   20.2915 N   0  0  0  0  0  0  0  0  0  0  0  0
   13.1497  -14.5467   19.9145 C   0  0  0  0  0  0  0  0  0  0  0  0
   13.3904  -13.8206   18.9315 O   0  0  0  0  0  0  0  0  0  0  0  0
   11.9100  -14.4033   20.7015 C   0  0  0  0  0  0  0  0  0  0  0  0
   11.2694  -15.7247   20.9974 C   0  0  2  0  0  0  0  0  0  0  0  0
   10.5963  -16.3045   19.8653 N   0  0  0  0  0  0  0  0  0  0  0  0
   10.4610  -15.7083   22.2244 C   0  0  0  0  0  0  0  0  0  0  0  0
    9.6177  -14.7833   22.3565 O   0  0  0  0  0  0  0  0  0  0  0  0
   10.5793  -16.6692   23.2576 N   0  0  0  0  0  0  0  0  0  0  0  0
    9.6311  -16.7366   24.3344 C   0  0  1  0  0  0  0  0  0  0  0  0
    9.2080  -18.1453   24.6869 C   0  0  0  0  0  0  0  0  0  0  0  0
    8.3337  -18.2147   25.8946 C   0  0  0  0  0  0  0  0  0  0  0  0
    7.9121  -19.6589   26.0819 C   0  0  0  0  0  0  0  0  0  0  0  0
    6.9980  -19.8367   27.2562 C   0  0  0  0  0  0  0  0  0  0  0  0
    6.6839  -21.2009   27.5466 N   0  0  0  0  0  0  0  0  0  0  0  0
   10.1911  -16.0647   25.5165 C   0  0  0  0  0  0  0  0  0  0  0  0
   11.3620  -16.3215   25.8811 O   0  0  0  0  0  0  0  0  0  0  0  0
    9.1677  -13.2798   27.8904 C   0  0  0  0  0  0  0  0  0  0  0  0
    9.9679  -14.4808   27.4674 C   0  0  2  0  0  0  0  0  0  0  0  0
    9.4681  -15.1178   26.2899 N   0  0  0  0  0  0  0  0  0  0  0  0
   10.0203  -15.4545   28.5897 C   0  0  0  0  0  0  0  0  0  0  0  0
   10.5413  -15.0642   29.6641 O   0  0  0  0  0  0  0  0  0  0  0  0
    9.5059  -16.7520   28.4396 O   0  0  0  0  0  0  0  0  0  0  0  0
  2  1  1  0
  3  2  2  0
  4  5  1  0
  4  2  1  0
  5  7  1  0
  5  6  1  6
  7  8  2  0
  9 10  1  0
  9  7  1  0
 11 12  1  0
 10 11  1  1
 12 13  1  0
 14 13  1  0
 15 14  1  0
 16 10  1  0
 16 17  2  0
 19 18  1  1
 19 20  1  0
 19 21  1  0
 20 16  1  0
 21 22  2  0
 21 23  1  0
M  END
$$$$
