NKA.pdb
     RDKit          3D

 23 22  0  0  1  0  0  0  0  0999 V2000
    9.1868  -19.3907   17.6685 N   0  0  0  0  0  0  0  0  0  0  0  0
    8.4738  -18.5473   18.5585 C   0  0  0  0  0  0  0  0  0  0  0  0
    7.2664  -18.3224   18.3513 O   0  0  0  0  0  0  0  0  0  0  0  0
    9.1873  -17.9599   19.7086 C   0  0  0  0  0  0  0  0  0  0  0  0
    8.9959  -16.4769   19.7984 C   0  0  2  0  0  0  0  0  0  0  0  0
    9.6508  -15.7471   18.7451 N   0  0  0  0  0  0  0  0  0  0  0  0
    9.2598  -15.9447   21.1424 C   0  0  0  0  0  0  0  0  0  0  0  0
   10.4584  -15.8836   21.5220 O   0  0  0  0  0  0  0  0  0  0  0  0
    8.2464  -15.5012   22.0262 N   0  0  0  0  0  0  0  0  0  0  0  0
    8.5616  -14.9192   23.3009 C   0  0  1  0  0  0  0  0  0  0  0  0
    7.4545  -14.0595   23.8692 C   0  0  0  0  0  0  0  0  0  0  0  0
    7.7508  -13.5435   25.2380 C   0  0  0  0  0  0  0  0  0  0  0  0
    6.5886  -12.6702   25.6682 C   0  0  0  0  0  0  0  0  0  0  0  0
    6.7637  -12.1341   27.0568 C   0  0  0  0  0  0  0  0  0  0  0  0
    5.6873  -11.3034   27.4987 N   0  0  0  0  0  0  0  0  0  0  0  0
    8.9111  -15.9877   24.2488 C   0  0  0  0  0  0  0  0  0  0  0  0
    8.0588  -16.8555   24.5492 O   0  0  0  0  0  0  0  0  0  0  0  0
   12.0414  -17.5429   25.5767 C   0  0  0  0  0  0  0  0  0  0  0  0
   10.5892  -17.1759   25.7107 C   0  0  2  0  0  0  0  0  0  0  0  0
   10.1883  -16.0997   24.8602 N   0  0  0  0  0  0  0  0  0  0  0  0
   10.2979  -16.8392   27.1292 C   0  0  0  0  0  0  0  0  0  0  0  0
    9.8295  -15.6974   27.3633 O   0  0  0  0  0  0  0  0  0  0  0  0
   10.5419  -17.7684   28.1528 O   0  0  0  0  0  0  0  0  0  0  0  0
  2  1  1  0
  3  2  2  0
  4  5  1  0
  4  2  1  0
  5  7  1  0
  5  6  1  6
  7  8  2  0
  9 10  1  0
  9  7  1  0
 11 12  1  0
 10 11  1  1
 12 13  1  0
 14 13  1  0
 15 14  1  0
 16 10  1  0
 16 17  2  0
 19 18  1  1
 19 20  1  0
 19 21  1  0
 20 16  1  0
 21 22  2  0
 21 23  1  0
M  END
$$$$
