NKA.pdb
     RDKit          3D

 23 22  0  0  1  0  0  0  0  0999 V2000
   10.0197  -16.7684   15.5893 N   0  0  0  0  0  0  0  0  0  0  0  0
    8.8766  -16.7625   16.4291 C   0  0  0  0  0  0  0  0  0  0  0  0
    7.8736  -17.4236   16.0997 O   0  0  0  0  0  0  0  0  0  0  0  0
    8.9110  -15.9705   17.6734 C   0  0  0  0  0  0  0  0  0  0  0  0
    8.9416  -16.8353   18.8962 C   0  0  2  0  0  0  0  0  0  0  0  0
    7.8074  -17.7140   19.0083 N   0  0  0  0  0  0  0  0  0  0  0  0
    9.2331  -16.0826   20.1240 C   0  0  0  0  0  0  0  0  0  0  0  0
   10.4064  -15.6557   20.2834 O   0  0  0  0  0  0  0  0  0  0  0  0
    8.2727  -15.8145   21.1293 N   0  0  0  0  0  0  0  0  0  0  0  0
    8.6407  -15.2098   22.3792 C   0  0  1  0  0  0  0  0  0  0  0  0
    7.5005  -14.4953   23.0699 C   0  0  0  0  0  0  0  0  0  0  0  0
    7.8884  -13.8906   24.3782 C   0  0  0  0  0  0  0  0  0  0  0  0
    6.6510  -13.2580   24.9840 C   0  0  0  0  0  0  0  0  0  0  0  0
    6.9367  -12.5930   26.2964 C   0  0  0  0  0  0  0  0  0  0  0  0
    5.8057  -11.9352   26.8728 N   0  0  0  0  0  0  0  0  0  0  0  0
    9.2073  -16.2365   23.2665 C   0  0  0  0  0  0  0  0  0  0  0  0
    8.5794  -17.3027   23.4638 O   0  0  0  0  0  0  0  0  0  0  0  0
   12.5776  -17.1842   24.5017 C   0  0  0  0  0  0  0  0  0  0  0  0
   11.0886  -17.1137   24.7003 C   0  0  2  0  0  0  0  0  0  0  0  0
   10.4546  -16.0905   23.9301 N   0  0  0  0  0  0  0  0  0  0  0  0
   10.7958  -16.9188   26.1448 C   0  0  0  0  0  0  0  0  0  0  0  0
   10.1908  -15.8672   26.4707 O   0  0  0  0  0  0  0  0  0  0  0  0
   11.1857  -17.8780   27.0927 O   0  0  0  0  0  0  0  0  0  0  0  0
  2  1  1  0
  3  2  2  0
  4  5  1  0
  4  2  1  0
  5  7  1  0
  5  6  1  1
  7  8  2  0
  9 10  1  0
  9  7  1  0
 11 12  1  0
 10 11  1  1
 12 13  1  0
 14 13  1  0
 15 14  1  0
 16 10  1  0
 16 17  2  0
 19 18  1  1
 19 20  1  0
 19 21  1  0
 20 16  1  0
 21 22  2  0
 21 23  1  0
M  END
$$$$
