NKA.pdb
     RDKit          3D

 23 22  0  0  1  0  0  0  0  0999 V2000
    8.9918  -17.3778   16.5542 N   0  0  0  0  0  0  0  0  0  0  0  0
    7.5853  -17.3368   16.7329 C   0  0  0  0  0  0  0  0  0  0  0  0
    6.8424  -17.3439   15.7332 O   0  0  0  0  0  0  0  0  0  0  0  0
    7.0426  -17.2876   18.1040 C   0  0  0  0  0  0  0  0  0  0  0  0
    8.1198  -17.3464   19.1434 C   0  0  2  0  0  0  0  0  0  0  0  0
    8.9632  -18.5073   19.0333 N   0  0  0  0  0  0  0  0  0  0  0  0
    7.6186  -17.1034   20.5032 C   0  0  0  0  0  0  0  0  0  0  0  0
    6.8900  -16.0935   20.6860 O   0  0  0  0  0  0  0  0  0  0  0  0
    7.9097  -17.9374   21.6098 N   0  0  0  0  0  0  0  0  0  0  0  0
    7.3357  -17.6972   22.9044 C   0  0  1  0  0  0  0  0  0  0  0  0
    7.4240  -18.8823   23.8399 C   0  0  0  0  0  0  0  0  0  0  0  0
    6.8421  -18.6152   25.1883 C   0  0  0  0  0  0  0  0  0  0  0  0
    7.1135  -19.8251   26.0605 C   0  0  0  0  0  0  0  0  0  0  0  0
    6.5991  -19.6463   27.4568 C   0  0  0  0  0  0  0  0  0  0  0  0
    6.8529  -20.7601   28.3166 N   0  0  0  0  0  0  0  0  0  0  0  0
    7.9811  -16.5233   23.5109 C   0  0  0  0  0  0  0  0  0  0  0  0
    9.2305  -16.4289   23.5057 O   0  0  0  0  0  0  0  0  0  0  0  0
    6.8995  -13.1349   24.8136 C   0  0  0  0  0  0  0  0  0  0  0  0
    7.8519  -14.2909   24.6790 C   0  0  2  0  0  0  0  0  0  0  0  0
    7.2569  -15.4625   24.1173 N   0  0  0  0  0  0  0  0  0  0  0  0
    8.4336  -14.6040   26.0109 C   0  0  0  0  0  0  0  0  0  0  0  0
    8.1044  -15.6955   26.5385 O   0  0  0  0  0  0  0  0  0  0  0  0
    9.3118  -13.7076   26.6400 O   0  0  0  0  0  0  0  0  0  0  0  0
  2  1  1  0
  3  2  2  0
  4  5  1  0
  4  2  1  0
  5  7  1  0
  5  6  1  1
  7  8  2  0
  9 10  1  0
  9  7  1  0
 11 12  1  0
 10 11  1  1
 12 13  1  0
 14 13  1  0
 15 14  1  0
 16 10  1  0
 16 17  2  0
 19 18  1  1
 19 20  1  0
 19 21  1  0
 20 16  1  0
 21 22  2  0
 21 23  1  0
M  END
$$$$
