NKA.pdb
     RDKit          3D

 23 22  0  0  1  0  0  0  0  0999 V2000
   13.1703  -20.8777   14.5589 N   0  0  0  0  0  0  0  0  0  0  0  0
   12.7208  -19.5451   14.3742 C   0  0  0  0  0  0  0  0  0  0  0  0
   12.8221  -19.0168   13.2508 O   0  0  0  0  0  0  0  0  0  0  0  0
   12.1435  -18.8224   15.5236 C   0  0  0  0  0  0  0  0  0  0  0  0
   10.6476  -18.7666   15.4660 C   0  0  2  0  0  0  0  0  0  0  0  0
   10.1420  -18.0389   14.3321 N   0  0  0  0  0  0  0  0  0  0  0  0
   10.0386  -18.3727   16.7439 C   0  0  0  0  0  0  0  0  0  0  0  0
   10.2890  -17.2187   17.1797 O   0  0  0  0  0  0  0  0  0  0  0  0
    9.1926  -19.2150   17.5052 N   0  0  0  0  0  0  0  0  0  0  0  0
    8.5237  -18.7416   18.6849 C   0  0  1  0  0  0  0  0  0  0  0  0
    7.3044  -19.5533   19.0616 C   0  0  0  0  0  0  0  0  0  0  0  0
    6.1730  -19.4008   18.1000 C   0  0  0  0  0  0  0  0  0  0  0  0
    5.0700  -20.3504   18.5243 C   0  0  0  0  0  0  0  0  0  0  0  0
    3.8910  -20.3015   17.6003 C   0  0  0  0  0  0  0  0  0  0  0  0
    2.8803  -21.2683   17.8966 N   0  0  0  0  0  0  0  0  0  0  0  0
    9.4775  -18.7104   19.8037 C   0  0  0  0  0  0  0  0  0  0  0  0
   10.3898  -19.5669   19.8668 O   0  0  0  0  0  0  0  0  0  0  0  0
   10.3734  -16.3044   22.5934 C   0  0  0  0  0  0  0  0  0  0  0  0
   10.3833  -17.6390   21.9004 C   0  0  2  0  0  0  0  0  0  0  0  0
    9.4272  -17.7442   20.8436 N   0  0  0  0  0  0  0  0  0  0  0  0
   10.1545  -18.7130   22.9026 C   0  0  0  0  0  0  0  0  0  0  0  0
    9.0206  -19.2535   22.9156 O   0  0  0  0  0  0  0  0  0  0  0  0
   11.1722  -19.0957   23.7906 O   0  0  0  0  0  0  0  0  0  0  0  0
  2  1  1  0
  3  2  2  0
  4  5  1  0
  4  2  1  0
  5  7  1  0
  5  6  1  6
  7  8  2  0
  9 10  1  0
  9  7  1  0
 11 12  1  0
 10 11  1  1
 12 13  1  0
 14 13  1  0
 15 14  1  0
 16 10  1  0
 16 17  2  0
 19 18  1  1
 19 20  1  0
 19 21  1  0
 20 16  1  0
 21 22  2  0
 21 23  1  0
M  END
$$$$
