NKA.pdb
     RDKit          3D

 23 22  0  0  1  0  0  0  0  0999 V2000
   10.9766  -17.2868   16.7862 N   0  0  0  0  0  0  0  0  0  0  0  0
   10.5599  -16.5674   17.9354 C   0  0  0  0  0  0  0  0  0  0  0  0
    9.6153  -15.7610   17.8417 O   0  0  0  0  0  0  0  0  0  0  0  0
   11.2608  -16.7981   19.2131 C   0  0  0  0  0  0  0  0  0  0  0  0
   10.3577  -17.3745   20.2600 C   0  0  2  0  0  0  0  0  0  0  0  0
    9.0321  -17.6644   19.7807 N   0  0  0  0  0  0  0  0  0  0  0  0
   10.3813  -16.6164   21.5186 C   0  0  0  0  0  0  0  0  0  0  0  0
   11.4974  -16.4375   22.0724 O   0  0  0  0  0  0  0  0  0  0  0  0
    9.2253  -16.0814   22.1367 N   0  0  0  0  0  0  0  0  0  0  0  0
    9.2586  -15.5678   23.4777 C   0  0  1  0  0  0  0  0  0  0  0  0
    8.0151  -14.8003   23.8677 C   0  0  0  0  0  0  0  0  0  0  0  0
    8.1212  -14.1429   25.2035 C   0  0  0  0  0  0  0  0  0  0  0  0
    6.8678  -13.3173   25.4172 C   0  0  0  0  0  0  0  0  0  0  0  0
    6.9568  -12.4543   26.6393 C   0  0  0  0  0  0  0  0  0  0  0  0
    5.7628  -11.7196   26.9199 N   0  0  0  0  0  0  0  0  0  0  0  0
    9.4852  -16.6768   24.4164 C   0  0  0  0  0  0  0  0  0  0  0  0
    9.1099  -17.8333   24.1143 O   0  0  0  0  0  0  0  0  0  0  0  0
   11.6438  -18.4279   25.8838 C   0  0  0  0  0  0  0  0  0  0  0  0
   10.5630  -17.5885   26.5073 C   0  0  2  0  0  0  0  0  0  0  0  0
   10.1199  -16.5135   25.6766 N   0  0  0  0  0  0  0  0  0  0  0  0
   11.0441  -17.0596   27.8108 C   0  0  0  0  0  0  0  0  0  0  0  0
   11.0506  -15.8119   27.9564 O   0  0  0  0  0  0  0  0  0  0  0  0
   11.4705  -17.9302   28.8261 O   0  0  0  0  0  0  0  0  0  0  0  0
  2  1  1  0
  3  2  2  0
  4  5  1  0
  4  2  1  0
  5  7  1  0
  5  6  1  6
  7  8  2  0
  9 10  1  0
  9  7  1  0
 11 12  1  0
 10 11  1  1
 12 13  1  0
 14 13  1  0
 15 14  1  0
 16 10  1  0
 16 17  2  0
 19 18  1  6
 19 20  1  0
 19 21  1  0
 20 16  1  0
 21 22  2  0
 21 23  1  0
M  END
$$$$
