MQS.pdb
     RDKit          3D

 24 23  0  0  1  0  0  0  0  0999 V2000
    6.4591  -11.2830   27.4618 C   0  0  0  0  0  0  0  0  0  0  0  0
    7.0086  -12.6686   26.4539 S   0  0  0  0  0  0  0  0  0  0  0  0
    5.8209  -14.0425   26.6447 C   0  0  0  0  0  0  0  0  0  0  0  0
    6.1477  -15.0691   25.6095 C   0  0  0  0  0  0  0  0  0  0  0  0
    7.5632  -15.0192   25.1185 C   0  0  2  0  0  0  0  0  0  0  0  0
    8.1339  -13.7225   25.2719 N   0  0  0  0  0  0  0  0  0  0  0  0
    7.7628  -15.6108   23.7740 C   0  0  0  0  0  0  0  0  0  0  0  0
    7.3738  -16.7582   23.5028 O   0  0  0  0  0  0  0  0  0  0  0  0
    8.6614  -12.2464   18.2527 N   0  0  0  0  0  0  0  0  0  0  0  0
    8.3862  -13.6453   17.9716 C   0  0  0  0  0  0  0  0  0  0  0  0
    7.9355  -13.8902   16.8451 O   0  0  0  0  0  0  0  0  0  0  0  0
    8.6435  -14.6429   18.9982 C   0  0  0  0  0  0  0  0  0  0  0  0
    8.5152  -14.2449   20.4099 C   0  0  0  0  0  0  0  0  0  0  0  0
    8.6844  -15.2765   21.4542 C   0  0  2  0  0  0  0  0  0  0  0  0
    8.4186  -14.8506   22.7701 N   0  0  0  0  0  0  0  0  0  0  0  0
   10.0488  -15.8903   21.3232 C   0  0  0  0  0  0  0  0  0  0  0  0
   10.4228  -16.1868   20.1613 O   0  0  0  0  0  0  0  0  0  0  0  0
   12.0983  -17.3666   24.5695 O   0  0  0  0  0  0  0  0  0  0  0  0
   12.9349  -16.8275   23.6174 C   0  0  0  0  0  0  0  0  0  0  0  0
   12.2082  -16.7522   22.2989 C   0  0  2  0  0  0  0  0  0  0  0  0
   10.9100  -16.1438   22.4132 N   0  0  0  0  0  0  0  0  0  0  0  0
   12.1825  -18.0740   21.6692 C   0  0  0  0  0  0  0  0  0  0  0  0
   13.3850  -18.7061   21.3956 O   0  0  0  0  0  0  0  0  0  0  0  0
   11.1238  -18.6747   21.3594 O   0  0  0  0  0  0  0  0  0  0  0  0
  1  2  1  0
  2  3  1  0
  3  4  1  0
  5  4  1  0
  5  7  1  0
  5  6  1  6
  7  8  2  0
  9 10  1  0
 10 12  1  0
 10 11  2  0
 12 13  1  0
 14 13  1  6
 15 14  1  0
 15  7  1  0
 16 17  2  0
 16 14  1  0
 18 19  1  0
 20 19  1  1
 20 22  1  0
 20 21  1  0
 21 16  1  0
 22 23  1  0
 24 22  2  0
M  END
$$$$
