MQS.pdb
     RDKit          3D

 24 23  0  0  1  0  0  0  0  0999 V2000
    7.8126  -11.4922   26.8631 C   0  0  0  0  0  0  0  0  0  0  0  0
    7.1533  -11.9416   25.2503 S   0  0  0  0  0  0  0  0  0  0  0  0
    6.8588  -13.7435   25.2162 C   0  0  0  0  0  0  0  0  0  0  0  0
    6.3314  -14.0893   23.8617 C   0  0  0  0  0  0  0  0  0  0  0  0
    7.3603  -14.6455   22.9241 C   0  0  2  0  0  0  0  0  0  0  0  0
    6.8238  -14.8818   21.6253 N   0  0  0  0  0  0  0  0  0  0  0  0
    8.1331  -15.7847   23.4740 C   0  0  0  0  0  0  0  0  0  0  0  0
    7.5761  -16.8280   23.8516 O   0  0  0  0  0  0  0  0  0  0  0  0
   13.5065  -18.5283   22.2714 N   0  0  0  0  0  0  0  0  0  0  0  0
   12.8326  -17.5385   21.4480 C   0  0  0  0  0  0  0  0  0  0  0  0
   12.9701  -17.6709   20.2251 O   0  0  0  0  0  0  0  0  0  0  0  0
   12.0650  -16.4819   22.0881 C   0  0  0  0  0  0  0  0  0  0  0  0
   11.8135  -16.5768   23.5356 C   0  0  0  0  0  0  0  0  0  0  0  0
   10.4179  -16.7013   24.0049 C   0  0  2  0  0  0  0  0  0  0  0  0
    9.5454  -15.6820   23.5767 N   0  0  0  0  0  0  0  0  0  0  0  0
   10.4131  -16.8594   25.4984 C   0  0  0  0  0  0  0  0  0  0  0  0
   10.7096  -15.8419   26.1725 O   0  0  0  0  0  0  0  0  0  0  0  0
    8.4633  -19.9176   27.4593 O   0  0  0  0  0  0  0  0  0  0  0  0
    8.7813  -18.7501   28.1171 C   0  0  0  0  0  0  0  0  0  0  0  0
   10.0938  -18.2241   27.5944 C   0  0  2  0  0  0  0  0  0  0  0  0
   10.0994  -18.0640   26.1652 N   0  0  0  0  0  0  0  0  0  0  0  0
   11.1950  -19.0487   28.0961 C   0  0  0  0  0  0  0  0  0  0  0  0
   12.0694  -19.6199   27.1852 O   0  0  0  0  0  0  0  0  0  0  0  0
   11.3958  -19.2710   29.3159 O   0  0  0  0  0  0  0  0  0  0  0  0
  1  2  1  0
  2  3  1  0
  3  4  1  0
  5  4  1  0
  5  7  1  0
  5  6  1  6
  7  8  2  0
  9 10  1  0
 10 12  1  0
 10 11  2  0
 12 13  1  0
 14 13  1  1
 15 14  1  0
 15  7  1  0
 16 17  2  0
 16 14  1  0
 18 19  1  0
 20 19  1  6
 20 22  1  0
 20 21  1  0
 21 16  1  0
 22 23  1  0
 24 22  2  0
M  END
$$$$
