MQS.pdb
     RDKit          3D

 24 23  0  0  1  0  0  0  0  0999 V2000
    7.7726  -11.5287   20.2302 C   0  0  0  0  0  0  0  0  0  0  0  0
    6.6927  -12.4289   19.1072 S   0  0  0  0  0  0  0  0  0  0  0  0
    7.7192  -13.4620   18.0055 C   0  0  0  0  0  0  0  0  0  0  0  0
    8.6570  -14.2454   18.8653 C   0  0  0  0  0  0  0  0  0  0  0  0
    9.5210  -15.2117   18.1123 C   0  0  2  0  0  0  0  0  0  0  0  0
    8.7515  -16.0792   17.2840 N   0  0  0  0  0  0  0  0  0  0  0  0
   10.5254  -15.9106   18.9491 C   0  0  0  0  0  0  0  0  0  0  0  0
   10.3431  -17.0702   19.3535 O   0  0  0  0  0  0  0  0  0  0  0  0
   17.0206  -15.0912   19.2464 N   0  0  0  0  0  0  0  0  0  0  0  0
   15.9147  -14.4556   18.5501 C   0  0  0  0  0  0  0  0  0  0  0  0
   16.2085  -13.4762   17.8527 O   0  0  0  0  0  0  0  0  0  0  0  0
   14.5706  -14.9870   18.7118 C   0  0  0  0  0  0  0  0  0  0  0  0
   14.0357  -15.1374   20.0752 C   0  0  0  0  0  0  0  0  0  0  0  0
   12.6728  -15.6825   20.2447 C   0  0  2  0  0  0  0  0  0  0  0  0
   11.7251  -15.2385   19.3022 N   0  0  0  0  0  0  0  0  0  0  0  0
   12.2199  -15.4452   21.6569 C   0  0  0  0  0  0  0  0  0  0  0  0
   11.2185  -14.7023   21.8088 O   0  0  0  0  0  0  0  0  0  0  0  0
    9.8489  -16.3609   24.1719 O   0  0  0  0  0  0  0  0  0  0  0  0
   10.7575  -17.1046   23.4519 C   0  0  0  0  0  0  0  0  0  0  0  0
   12.1559  -16.6996   23.8432 C   0  0  2  0  0  0  0  0  0  0  0  0
   12.8474  -16.0018   22.7928 N   0  0  0  0  0  0  0  0  0  0  0  0
   12.8855  -17.8621   24.3537 C   0  0  0  0  0  0  0  0  0  0  0  0
   12.7392  -18.2085   25.6876 O   0  0  0  0  0  0  0  0  0  0  0  0
   13.6440  -18.5708   23.6467 O   0  0  0  0  0  0  0  0  0  0  0  0
  1  2  1  0
  2  3  1  0
  3  4  1  0
  5  4  1  0
  5  7  1  0
  5  6  1  1
  7  8  2  0
  9 10  1  0
 10 12  1  0
 10 11  2  0
 12 13  1  0
 14 13  1  6
 15 14  1  0
 15  7  1  0
 16 17  2  0
 16 14  1  0
 18 19  1  0
 20 19  1  6
 20 22  1  0
 20 21  1  0
 21 16  1  0
 22 23  1  0
 24 22  2  0
M  END
$$$$
