MQS.pdb
     RDKit          3D

 24 23  0  0  1  0  0  0  0  0999 V2000
    8.1766  -11.1476   19.9129 C   0  0  0  0  0  0  0  0  0  0  0  0
    8.6064  -12.7927   20.5018 S   0  0  0  0  0  0  0  0  0  0  0  0
    7.0689  -13.7022   20.8808 C   0  0  0  0  0  0  0  0  0  0  0  0
    7.4514  -14.9587   21.5931 C   0  0  0  0  0  0  0  0  0  0  0  0
    8.2175  -15.9345   20.7517 C   0  0  2  0  0  0  0  0  0  0  0  0
    7.4934  -16.3134   19.5843 N   0  0  0  0  0  0  0  0  0  0  0  0
    8.7841  -17.0771   21.5075 C   0  0  0  0  0  0  0  0  0  0  0  0
    8.0739  -18.0199   21.8923 O   0  0  0  0  0  0  0  0  0  0  0  0
   14.3974  -19.5426   20.3767 N   0  0  0  0  0  0  0  0  0  0  0  0
   14.1199  -18.1164   20.4029 C   0  0  0  0  0  0  0  0  0  0  0  0
   14.9436  -17.3963   19.8242 O   0  0  0  0  0  0  0  0  0  0  0  0
   12.9319  -17.6337   21.0891 C   0  0  0  0  0  0  0  0  0  0  0  0
   12.0829  -18.6102   21.7916 C   0  0  0  0  0  0  0  0  0  0  0  0
   10.8611  -18.1281   22.4684 C   0  0  2  0  0  0  0  0  0  0  0  0
   10.1724  -17.0947   21.8040 N   0  0  0  0  0  0  0  0  0  0  0  0
   11.1952  -17.7641   23.8868 C   0  0  0  0  0  0  0  0  0  0  0  0
   11.6377  -16.6046   24.0804 O   0  0  0  0  0  0  0  0  0  0  0  0
   10.5419  -17.9964   28.5308 O   0  0  0  0  0  0  0  0  0  0  0  0
   10.1460  -18.2130   27.2296 C   0  0  0  0  0  0  0  0  0  0  0  0
   11.3635  -18.2994   26.3449 C   0  0  2  0  0  0  0  0  0  0  0  0
   11.0401  -18.6380   24.9850 N   0  0  0  0  0  0  0  0  0  0  0  0
   12.3558  -19.1899   26.9505 C   0  0  0  0  0  0  0  0  0  0  0  0
   12.8866  -18.8552   28.1861 O   0  0  0  0  0  0  0  0  0  0  0  0
   12.7582  -20.2501   26.4104 O   0  0  0  0  0  0  0  0  0  0  0  0
  1  2  1  0
  2  3  1  0
  3  4  1  0
  5  4  1  0
  5  7  1  0
  5  6  1  6
  7  8  2  0
  9 10  1  0
 10 12  1  0
 10 11  2  0
 12 13  1  0
 14 13  1  6
 15 14  1  0
 15  7  1  0
 16 17  2  0
 16 14  1  0
 18 19  1  0
 20 19  1  1
 20 22  1  0
 20 21  1  0
 21 16  1  0
 22 23  1  0
 24 22  2  0
M  END
$$$$
