RIF.pdb
     RDKit          3D

 31 31  0  0  1  0  0  0  0  0999 V2000
    8.0565  -12.7703   17.6580 N   0  0  0  0  0  0  0  0  0  0  0  0
    8.2498  -13.9373   16.8279 C   0  0  0  0  0  0  0  0  0  0  0  0
    7.9453  -13.9002   15.5897 N   0  0  0  0  0  0  0  0  0  0  0  0
    8.7777  -15.1341   17.3891 N   0  0  0  0  0  0  0  0  0  0  0  0
    8.8192  -15.3226   18.8161 C   0  0  0  0  0  0  0  0  0  0  0  0
    7.5352  -14.8985   19.4683 C   0  0  0  0  0  0  0  0  0  0  0  0
    7.5086  -15.0550   20.9612 C   0  0  0  0  0  0  0  0  0  0  0  0
    7.1738  -16.4706   21.3008 C   0  0  2  0  0  0  0  0  0  0  0  0
    5.9509  -16.8541   20.6636 N   0  0  0  0  0  0  0  0  0  0  0  0
    7.0269  -16.6593   22.7789 C   0  0  0  0  0  0  0  0  0  0  0  0
    6.1464  -16.0121   23.4133 O   0  0  0  0  0  0  0  0  0  0  0  0
    8.0180  -14.7315   14.9758 C   0  0  0  0  0  0  0  0  0  0  0  0
    6.5516  -20.8095   23.7236 C   0  0  0  0  0  0  0  0  0  0  0  0
    6.3889  -19.8687   24.8954 C   0  0  2  0  0  0  0  0  0  0  0  0
    7.6225  -19.1766   25.3307 C   0  0  0  0  0  0  0  0  0  0  0  0
    7.5376  -19.1245   26.8797 C   0  0  2  0  0  0  0  0  0  0  0  0
    7.8603  -17.7910   24.9043 N   0  0  0  0  0  0  0  0  0  0  0  0
    7.8577  -17.5492   23.4828 C   0  0  0  0  0  0  0  0  0  0  0  0
    8.7550  -16.9446   25.7014 O   0  0  0  0  0  0  0  0  0  0  0  0
    9.9294  -16.7492   25.3184 N   0  0  0  0  0  0  0  0  0  0  0  0
    8.3756  -16.3176   26.8964 C   0  0  1  0  0  0  0  0  0  0  0  0
    9.3191  -15.5218   27.6990 C   0  0  0  0  0  0  0  0  0  0  0  0
    8.7254  -14.2696   28.2237 C   0  0  0  0  0  0  0  0  0  0  0  0
    8.1154  -13.4405   27.1600 C   0  0  0  0  0  0  0  0  0  0  0  0
    6.7559  -13.1557   27.1233 C   0  0  0  0  0  0  0  0  0  0  0  0
    6.1785  -12.3947   26.1521 C   0  0  0  0  0  0  0  0  0  0  0  0
    6.9770  -11.8677   25.1340 C   0  0  0  0  0  0  0  0  0  0  0  0
    8.3281  -12.1322   25.1419 C   0  0  0  0  0  0  0  0  0  0  0  0
    8.8933  -12.9180   26.1556 C   0  0  0  0  0  0  0  0  0  0  0  0
    9.8884  -16.3753   28.8119 O   0  0  0  0  0  0  0  0  0  0  0  0
   10.7870  -15.9329   29.5566 O   0  0  0  0  0  0  0  0  0  0  0  0
  2  1  1  0
  2  3  2  0
  4  2  1  0
  5  4  1  0
  6  5  1  0
  7  6  1  0
  8  7  1  0
  8  9  1  6
 10 11  2  0
 10  8  1  0
 13 14  1  0
 13 12  1  0
 14 15  1  6
 16 17  1  1
 16 14  1  0
 17 10  1  0
 18 16  1  0
 19 18  2  0
 20 18  1  0
 21 20  1  0
 21 22  1  1
 22 23  1  0
 23 24  2  0
 24 25  1  0
 26 25  2  0
 27 26  1  0
 28 27  2  0
 28 23  1  0
 29 21  1  0
 29 31  1  0
 30 29  2  0
M  END
$$$$
