RIF.pdb
     RDKit          3D

 31 31  0  0  1  0  0  0  0  0999 V2000
    8.7002  -15.4169   16.0459 N   0  0  0  0  0  0  0  0  0  0  0  0
    8.1901  -14.0684   15.9473 C   0  0  0  0  0  0  0  0  0  0  0  0
    8.0359  -13.5238   14.8041 N   0  0  0  0  0  0  0  0  0  0  0  0
    7.8607  -13.3409   17.1255 N   0  0  0  0  0  0  0  0  0  0  0  0
    8.1653  -13.8725   18.4286 C   0  0  0  0  0  0  0  0  0  0  0  0
    7.5468  -15.2251   18.6335 C   0  0  0  0  0  0  0  0  0  0  0  0
    6.9376  -15.4373   19.9891 C   0  0  0  0  0  0  0  0  0  0  0  0
    7.7229  -16.4743   20.7235 C   0  0  2  0  0  0  0  0  0  0  0  0
    7.4416  -17.7733   20.1922 N   0  0  0  0  0  0  0  0  0  0  0  0
    7.4008  -16.4716   22.1858 C   0  0  0  0  0  0  0  0  0  0  0  0
    6.1973  -16.5240   22.5671 O   0  0  0  0  0  0  0  0  0  0  0  0
    7.6826  -12.5562   14.6941 C   0  0  0  0  0  0  0  0  0  0  0  0
    6.4750  -19.4934   26.5751 C   0  0  0  0  0  0  0  0  0  0  0  0
    7.2870  -18.2434   26.3240 C   0  0  2  0  0  0  0  0  0  0  0  0
    7.4913  -17.8935   24.9007 C   0  0  0  0  0  0  0  0  0  0  0  0
    8.2387  -19.1062   24.2844 C   0  0  2  0  0  0  0  0  0  0  0  0
    8.3016  -16.7174   24.5567 N   0  0  0  0  0  0  0  0  0  0  0  0
    8.4199  -16.4096   23.1530 C   0  0  0  0  0  0  0  0  0  0  0  0
    9.4614  -16.3834   25.3907 O   0  0  0  0  0  0  0  0  0  0  0  0
   10.3804  -17.2186   25.5391 N   0  0  0  0  0  0  0  0  0  0  0  0
    9.6198  -15.1570   26.0509 C   0  0  2  0  0  0  0  0  0  0  0  0
    9.9813  -15.0736   27.4757 C   0  0  0  0  0  0  0  0  0  0  0  0
    8.8516  -14.6583   28.3399 C   0  0  0  0  0  0  0  0  0  0  0  0
    7.9946  -13.6340   27.7017 C   0  0  0  0  0  0  0  0  0  0  0  0
    8.5178  -12.5582   26.9949 C   0  0  0  0  0  0  0  0  0  0  0  0
    7.7437  -11.6072   26.4017 C   0  0  0  0  0  0  0  0  0  0  0  0
    6.3532  -11.7012   26.4997 C   0  0  0  0  0  0  0  0  0  0  0  0
    5.8037  -12.7555   27.1939 C   0  0  0  0  0  0  0  0  0  0  0  0
    6.6265  -13.7191   27.7928 C   0  0  0  0  0  0  0  0  0  0  0  0
   10.5730  -16.3907   27.9298 O   0  0  0  0  0  0  0  0  0  0  0  0
   11.7502  -16.4515   28.3398 O   0  0  0  0  0  0  0  0  0  0  0  0
  2  1  1  0
  2  3  2  0
  4  2  1  0
  5  4  1  0
  6  5  1  0
  7  6  1  0
  8  7  1  0
  8  9  1  6
 10 11  2  0
 10  8  1  0
 13 14  1  0
 13 12  1  0
 14 15  1  6
 16 17  1  1
 16 14  1  0
 17 10  1  0
 18 16  1  0
 19 18  2  0
 20 18  1  0
 21 20  1  0
 21 22  1  6
 22 23  1  0
 23 24  2  0
 24 25  1  0
 26 25  2  0
 27 26  1  0
 28 27  2  0
 28 23  1  0
 29 21  1  0
 29 31  1  0
 30 29  2  0
M  END
$$$$
