RIF.pdb
     RDKit          3D

 31 31  0  0  1  0  0  0  0  0999 V2000
   11.5998  -19.4267   15.9404 N   0  0  0  0  0  0  0  0  0  0  0  0
   10.6352  -20.3565   15.3989 C   0  0  0  0  0  0  0  0  0  0  0  0
   10.7120  -20.7213   14.1789 N   0  0  0  0  0  0  0  0  0  0  0  0
    9.5933  -20.8667   16.2236 N   0  0  0  0  0  0  0  0  0  0  0  0
    9.5234  -20.5217   17.6198 C   0  0  0  0  0  0  0  0  0  0  0  0
   10.5591  -19.5001   17.9904 C   0  0  0  0  0  0  0  0  0  0  0  0
   10.5344  -19.0756   19.4303 C   0  0  0  0  0  0  0  0  0  0  0  0
    9.3714  -18.1653   19.6541 C   0  0  2  0  0  0  0  0  0  0  0  0
    9.0911  -17.4222   18.4633 N   0  0  0  0  0  0  0  0  0  0  0  0
    9.6353  -17.2039   20.7713 C   0  0  0  0  0  0  0  0  0  0  0  0
   10.8035  -17.0835   21.2375 O   0  0  0  0  0  0  0  0  0  0  0  0
   10.0170  -21.3553   13.7450 C   0  0  0  0  0  0  0  0  0  0  0  0
    7.3196  -12.5560   19.3598 C   0  0  0  0  0  0  0  0  0  0  0  0
    8.2801  -13.5570   19.9599 C   0  0  2  0  0  0  0  0  0  0  0  0
    7.9267  -14.0457   21.3114 C   0  0  0  0  0  0  0  0  0  0  0  0
    8.1013  -12.8206   22.2482 C   0  0  2  0  0  0  0  0  0  0  0  0
    8.7216  -15.1210   21.9198 N   0  0  0  0  0  0  0  0  0  0  0  0
    8.5996  -16.4260   21.3188 C   0  0  0  0  0  0  0  0  0  0  0  0
    8.9625  -15.0967   23.3667 O   0  0  0  0  0  0  0  0  0  0  0  0
    9.5177  -14.1042   23.8870 N   0  0  0  0  0  0  0  0  0  0  0  0
    8.6015  -16.1365   24.2348 C   0  0  1  0  0  0  0  0  0  0  0  0
    8.9282  -16.1097   25.6701 C   0  0  0  0  0  0  0  0  0  0  0  0
    7.7753  -15.7365   26.5230 C   0  0  0  0  0  0  0  0  0  0  0  0
    7.5234  -14.2779   26.5316 C   0  0  0  0  0  0  0  0  0  0  0  0
    6.2744  -13.7347   26.2568 C   0  0  0  0  0  0  0  0  0  0  0  0
    6.0254  -12.3955   26.2605 C   0  0  0  0  0  0  0  0  0  0  0  0
    7.0657  -11.5094   26.5514 C   0  0  0  0  0  0  0  0  0  0  0  0
    8.3155  -12.0164   26.8277 C   0  0  0  0  0  0  0  0  0  0  0  0
    8.5404  -13.3997   26.8171 C   0  0  0  0  0  0  0  0  0  0  0  0
    9.5173  -17.4410   26.0842 O   0  0  0  0  0  0  0  0  0  0  0  0
    9.5834  -18.3872   25.2731 O   0  0  0  0  0  0  0  0  0  0  0  0
  2  1  1  0
  2  3  2  0
  4  2  1  0
  5  4  1  0
  6  5  1  0
  7  6  1  0
  8  7  1  0
  8  9  1  6
 10 11  2  0
 10  8  1  0
 13 14  1  0
 13 12  1  0
 14 15  1  1
 16 17  1  1
 16 14  1  0
 17 10  1  0
 18 16  1  0
 19 18  2  0
 20 18  1  0
 21 20  1  0
 21 22  1  1
 22 23  1  0
 23 24  2  0
 24 25  1  0
 26 25  2  0
 27 26  1  0
 28 27  2  0
 28 23  1  0
 29 21  1  0
 29 31  1  0
 30 29  2  0
M  END
$$$$
