RIF.pdb
     RDKit          3D

 31 31  0  0  1  0  0  0  0  0999 V2000
    8.5253  -14.3291   13.7380 N   0  0  0  0  0  0  0  0  0  0  0  0
    8.1442  -13.5848   14.9167 C   0  0  0  0  0  0  0  0  0  0  0  0
    8.7026  -12.4679   15.1774 N   0  0  0  0  0  0  0  0  0  0  0  0
    7.1465  -14.0965   15.7935 N   0  0  0  0  0  0  0  0  0  0  0  0
    7.2794  -15.4067   16.3757 C   0  0  0  0  0  0  0  0  0  0  0  0
    8.4372  -15.4744   17.3290 C   0  0  0  0  0  0  0  0  0  0  0  0
    8.1121  -15.0765   18.7397 C   0  0  0  0  0  0  0  0  0  0  0  0
    8.5491  -16.1613   19.6690 C   0  0  2  0  0  0  0  0  0  0  0  0
    7.4874  -17.1016   19.8624 N   0  0  0  0  0  0  0  0  0  0  0  0
    8.9541  -15.6109   21.0014 C   0  0  0  0  0  0  0  0  0  0  0  0
    9.8980  -14.7745   21.0781 O   0  0  0  0  0  0  0  0  0  0  0  0
    8.4059  -11.8716   15.9708 C   0  0  0  0  0  0  0  0  0  0  0  0
    6.9261  -12.9596   25.8949 C   0  0  0  0  0  0  0  0  0  0  0  0
    7.9558  -13.9436   25.3886 C   0  0  2  0  0  0  0  0  0  0  0  0
    7.6570  -14.5570   24.0754 C   0  0  0  0  0  0  0  0  0  0  0  0
    6.3068  -15.2981   24.2676 C   0  0  2  0  0  0  0  0  0  0  0  0
    8.5783  -15.5580   23.5210 N   0  0  0  0  0  0  0  0  0  0  0  0
    8.3005  -16.0110   22.1806 C   0  0  0  0  0  0  0  0  0  0  0  0
    9.1850  -16.5435   24.4226 O   0  0  0  0  0  0  0  0  0  0  0  0
    8.4820  -17.4572   24.9072 N   0  0  0  0  0  0  0  0  0  0  0  0
   10.5382  -16.5360   24.7888 C   0  0  2  0  0  0  0  0  0  0  0  0
   10.9712  -16.4141   26.1907 C   0  0  0  0  0  0  0  0  0  0  0  0
   10.8232  -15.0413   26.7287 C   0  0  0  0  0  0  0  0  0  0  0  0
   10.9356  -14.9940   28.2038 C   0  0  0  0  0  0  0  0  0  0  0  0
   10.3132  -14.0149   28.9686 C   0  0  0  0  0  0  0  0  0  0  0  0
   10.4062  -13.9568   30.3263 C   0  0  0  0  0  0  0  0  0  0  0  0
   11.1615  -14.9200   30.9999 C   0  0  0  0  0  0  0  0  0  0  0  0
   11.7910  -15.9034   30.2704 C   0  0  0  0  0  0  0  0  0  0  0  0
   11.6758  -15.9374   28.8741 C   0  0  0  0  0  0  0  0  0  0  0  0
   10.2353  -17.4264   27.0418 O   0  0  0  0  0  0  0  0  0  0  0  0
   10.8602  -18.3145   27.6571 O   0  0  0  0  0  0  0  0  0  0  0  0
  2  1  1  0
  2  3  2  0
  4  2  1  0
  5  4  1  0
  6  5  1  0
  7  6  1  0
  8  7  1  0
  8  9  1  1
 10 11  2  0
 10  8  1  0
 13 14  1  0
 13 12  1  0
 14 15  1  6
 16 17  1  1
 16 14  1  0
 17 10  1  0
 18 16  1  0
 19 18  2  0
 20 18  1  0
 21 20  1  0
 21 22  1  6
 22 23  1  0
 23 24  2  0
 24 25  1  0
 26 25  2  0
 27 26  1  0
 28 27  2  0
 28 23  1  0
 29 21  1  0
 29 31  1  0
 30 29  2  0
M  END
$$$$
