RIF.pdb
     RDKit          3D

 31 31  0  0  1  0  0  0  0  0999 V2000
   13.9306  -20.8072   17.4860 N   0  0  0  0  0  0  0  0  0  0  0  0
   13.3937  -20.0892   16.3526 C   0  0  0  0  0  0  0  0  0  0  0  0
   13.6431  -20.4862   15.1662 N   0  0  0  0  0  0  0  0  0  0  0  0
   12.5870  -18.9341   16.5551 N   0  0  0  0  0  0  0  0  0  0  0  0
   11.7657  -18.8063   17.7309 C   0  0  0  0  0  0  0  0  0  0  0  0
   10.5685  -19.7103   17.6712 C   0  0  0  0  0  0  0  0  0  0  0  0
    9.7505  -19.7515   18.9294 C   0  0  0  0  0  0  0  0  0  0  0  0
    8.7242  -18.6670   18.8838 C   0  0  2  0  0  0  0  0  0  0  0  0
    8.5475  -18.2123   17.5382 N   0  0  0  0  0  0  0  0  0  0  0  0
    9.1195  -17.5026   19.7382 C   0  0  0  0  0  0  0  0  0  0  0  0
   10.2727  -16.9989   19.6242 O   0  0  0  0  0  0  0  0  0  0  0  0
   13.3213  -19.9679   14.3290 C   0  0  0  0  0  0  0  0  0  0  0  0
    7.3482  -12.5998   19.7930 C   0  0  0  0  0  0  0  0  0  0  0  0
    8.2246  -13.7871   20.1199 C   0  0  2  0  0  0  0  0  0  0  0  0
    7.7925  -14.5952   21.2819 C   0  0  0  0  0  0  0  0  0  0  0  0
    8.0337  -13.6921   22.5209 C   0  0  2  0  0  0  0  0  0  0  0  0
    8.4815  -15.8586   21.5774 N   0  0  0  0  0  0  0  0  0  0  0  0
    8.2258  -16.9538   20.6751 C   0  0  0  0  0  0  0  0  0  0  0  0
    8.7353  -16.2207   22.9763 O   0  0  0  0  0  0  0  0  0  0  0  0
    7.8372  -16.7758   23.6465 N   0  0  0  0  0  0  0  0  0  0  0  0
    9.9501  -15.9845   23.6348 C   0  0  2  0  0  0  0  0  0  0  0  0
   10.0177  -15.6929   25.0763 C   0  0  0  0  0  0  0  0  0  0  0  0
    9.8496  -14.2541   25.3880 C   0  0  0  0  0  0  0  0  0  0  0  0
    9.9174  -13.9755   26.8402 C   0  0  0  0  0  0  0  0  0  0  0  0
   10.9523  -14.4416   27.6419 C   0  0  0  0  0  0  0  0  0  0  0  0
   11.0301  -14.1944   28.9792 C   0  0  0  0  0  0  0  0  0  0  0  0
   10.0280  -13.4380   29.5922 C   0  0  0  0  0  0  0  0  0  0  0  0
    8.9887  -12.9620   28.8250 C   0  0  0  0  0  0  0  0  0  0  0  0
    8.9368  -13.2322   27.4508 C   0  0  0  0  0  0  0  0  0  0  0  0
    9.0078  -16.5432   25.8167 O   0  0  0  0  0  0  0  0  0  0  0  0
    7.7989  -16.5079   25.5086 O   0  0  0  0  0  0  0  0  0  0  0  0
  2  1  1  0
  2  3  2  0
  4  2  1  0
  5  4  1  0
  6  5  1  0
  7  6  1  0
  8  7  1  0
  8  9  1  6
 10 11  2  0
 10  8  1  0
 13 14  1  0
 13 12  1  0
 14 15  1  6
 16 17  1  1
 16 14  1  0
 17 10  1  0
 18 16  1  0
 19 18  2  0
 20 18  1  0
 21 20  1  0
 21 22  1  6
 22 23  1  0
 23 24  2  0
 24 25  1  0
 26 25  2  0
 27 26  1  0
 28 27  2  0
 28 23  1  0
 29 21  1  0
 29 31  1  0
 30 29  2  0
M  END
$$$$
