RIF.pdb
     RDKit          3D

 31 31  0  0  1  0  0  0  0  0999 V2000
   11.9300  -21.6367   17.2325 N   0  0  0  0  0  0  0  0  0  0  0  0
   13.0472  -21.1955   16.4291 C   0  0  0  0  0  0  0  0  0  0  0  0
   13.3431  -21.8099   15.3510 N   0  0  0  0  0  0  0  0  0  0  0  0
   13.8242  -20.0756   16.8390 N   0  0  0  0  0  0  0  0  0  0  0  0
   13.5794  -19.4327   18.1040 C   0  0  0  0  0  0  0  0  0  0  0  0
   12.4483  -18.4495   18.0159 C   0  0  0  0  0  0  0  0  0  0  0  0
   12.2200  -17.6428   19.2613 C   0  0  0  0  0  0  0  0  0  0  0  0
   10.7929  -17.7802   19.6808 C   0  0  2  0  0  0  0  0  0  0  0  0
    9.9266  -17.5334   18.5685 N   0  0  0  0  0  0  0  0  0  0  0  0
   10.4506  -16.8229   20.7801 C   0  0  0  0  0  0  0  0  0  0  0  0
   11.2461  -16.6637   21.7488 O   0  0  0  0  0  0  0  0  0  0  0  0
   14.1789  -21.5701   14.7878 C   0  0  0  0  0  0  0  0  0  0  0  0
    7.3080  -12.6244   19.4825 C   0  0  0  0  0  0  0  0  0  0  0  0
    8.3094  -13.1321   20.4944 C   0  0  2  0  0  0  0  0  0  0  0  0
    7.8124  -14.1860   21.4068 C   0  0  0  0  0  0  0  0  0  0  0  0
    7.4331  -13.4468   22.7178 C   0  0  2  0  0  0  0  0  0  0  0  0
    8.7155  -15.2704   21.8153 N   0  0  0  0  0  0  0  0  0  0  0  0
    9.2495  -16.0917   20.7573 C   0  0  0  0  0  0  0  0  0  0  0  0
    8.4873  -15.9407   23.1002 O   0  0  0  0  0  0  0  0  0  0  0  0
    8.0916  -17.1269   23.1199 N   0  0  0  0  0  0  0  0  0  0  0  0
    8.6899  -15.3294   24.3453 C   0  0  2  0  0  0  0  0  0  0  0  0
    8.6258  -16.0823   25.6090 C   0  0  0  0  0  0  0  0  0  0  0  0
    8.7812  -15.2240   26.8069 C   0  0  0  0  0  0  0  0  0  0  0  0
    7.9242  -14.0182   26.7570 C   0  0  0  0  0  0  0  0  0  0  0  0
    6.5444  -14.0765   26.9104 C   0  0  0  0  0  0  0  0  0  0  0  0
    5.7413  -12.9771   26.8674 C   0  0  0  0  0  0  0  0  0  0  0  0
    6.3158  -11.7208   26.6581 C   0  0  0  0  0  0  0  0  0  0  0  0
    7.6806  -11.6296   26.5021 C   0  0  0  0  0  0  0  0  0  0  0  0
    8.4809  -12.7791   26.5524 C   0  0  0  0  0  0  0  0  0  0  0  0
    7.3419  -16.8821   25.6617 O   0  0  0  0  0  0  0  0  0  0  0  0
    7.1536  -17.7242   26.5635 O   0  0  0  0  0  0  0  0  0  0  0  0
  2  1  1  0
  2  3  2  0
  4  2  1  0
  5  4  1  0
  6  5  1  0
  7  6  1  0
  8  7  1  0
  8  9  1  6
 10 11  2  0
 10  8  1  0
 13 14  1  0
 13 12  1  0
 14 15  1  6
 16 17  1  1
 16 14  1  0
 17 10  1  0
 18 16  1  0
 19 18  2  0
 20 18  1  0
 21 20  1  0
 21 22  1  6
 22 23  1  0
 23 24  2  0
 24 25  1  0
 26 25  2  0
 27 26  1  0
 28 27  2  0
 28 23  1  0
 29 21  1  0
 29 31  1  0
 30 29  2  0
M  END
$$$$
