RIF.pdb
     RDKit          3D

 31 31  0  0  1  0  0  0  0  0999 V2000
   11.1203  -21.8093   20.3800 N   0  0  0  0  0  0  0  0  0  0  0  0
   10.8569  -22.8267   19.3880 C   0  0  0  0  0  0  0  0  0  0  0  0
   11.7472  -23.6973   19.1113 N   0  0  0  0  0  0  0  0  0  0  0  0
    9.6041  -22.8596   18.7132 N   0  0  0  0  0  0  0  0  0  0  0  0
    8.5592  -21.9293   19.0542 C   0  0  0  0  0  0  0  0  0  0  0  0
    9.0855  -20.7752   19.8572 C   0  0  0  0  0  0  0  0  0  0  0  0
    8.0442  -19.7816   20.2843 C   0  0  0  0  0  0  0  0  0  0  0  0
    8.1269  -18.5756   19.4067 C   0  0  2  0  0  0  0  0  0  0  0  0
    8.9677  -18.8431   18.2797 N   0  0  0  0  0  0  0  0  0  0  0  0
    8.6750  -17.3956   20.1477 C   0  0  0  0  0  0  0  0  0  0  0  0
    9.9119  -17.3250   20.3957 O   0  0  0  0  0  0  0  0  0  0  0  0
   11.6283  -24.3889   18.3493 C   0  0  0  0  0  0  0  0  0  0  0  0
    7.0890  -12.2705   18.9957 C   0  0  0  0  0  0  0  0  0  0  0  0
    7.7349  -13.5770   19.3968 C   0  0  2  0  0  0  0  0  0  0  0  0
    7.6722  -13.9003   20.8395 C   0  0  0  0  0  0  0  0  0  0  0  0
    8.5132  -12.8012   21.5422 C   0  0  2  0  0  0  0  0  0  0  0  0
    8.2195  -15.1776   21.3164 N   0  0  0  0  0  0  0  0  0  0  0  0
    7.8331  -16.3549   20.5790 C   0  0  0  0  0  0  0  0  0  0  0  0
    8.4471  -15.3621   22.7538 O   0  0  0  0  0  0  0  0  0  0  0  0
    7.5108  -15.1703   23.5603 N   0  0  0  0  0  0  0  0  0  0  0  0
    9.6755  -15.7527   23.3049 C   0  0  1  0  0  0  0  0  0  0  0  0
   10.1032  -15.3290   24.6485 C   0  0  0  0  0  0  0  0  0  0  0  0
    9.1127  -15.6493   25.7030 C   0  0  0  0  0  0  0  0  0  0  0  0
    9.5170  -15.1449   27.0346 C   0  0  0  0  0  0  0  0  0  0  0  0
    9.5248  -13.7915   27.3490 C   0  0  0  0  0  0  0  0  0  0  0  0
    9.8937  -13.3106   28.5689 C   0  0  0  0  0  0  0  0  0  0  0  0
   10.2881  -14.2077   29.5647 C   0  0  0  0  0  0  0  0  0  0  0  0
   10.2916  -15.5556   29.2842 C   0  0  0  0  0  0  0  0  0  0  0  0
    9.9056  -16.0201   28.0195 C   0  0  0  0  0  0  0  0  0  0  0  0
   11.4600  -15.9218   24.9626 O   0  0  0  0  0  0  0  0  0  0  0  0
   12.1067  -15.5378   25.9586 O   0  0  0  0  0  0  0  0  0  0  0  0
  2  1  1  0
  2  3  2  0
  4  2  1  0
  5  4  1  0
  6  5  1  0
  7  6  1  0
  8  7  1  0
  8  9  1  6
 10 11  2  0
 10  8  1  0
 13 14  1  0
 13 12  1  0
 14 15  1  1
 16 17  1  6
 16 14  1  0
 17 10  1  0
 18 16  1  0
 19 18  2  0
 20 18  1  0
 21 20  1  0
 21 22  1  1
 22 23  1  0
 23 24  2  0
 24 25  1  0
 26 25  2  0
 27 26  1  0
 28 27  2  0
 28 23  1  0
 29 21  1  0
 29 31  1  0
 30 29  2  0
M  END
$$$$
