RIF.pdb
     RDKit          3D

 31 31  0  0  1  0  0  0  0  0999 V2000
    7.5135  -21.0321   14.3178 N   0  0  0  0  0  0  0  0  0  0  0  0
    7.5291  -19.9143   15.2335 C   0  0  0  0  0  0  0  0  0  0  0  0
    6.4681  -19.2346   15.4328 N   0  0  0  0  0  0  0  0  0  0  0  0
    8.7291  -19.5649   15.9146 N   0  0  0  0  0  0  0  0  0  0  0  0
    9.4471  -20.5428   16.6903 C   0  0  0  0  0  0  0  0  0  0  0  0
    9.2642  -20.3234   18.1642 C   0  0  0  0  0  0  0  0  0  0  0  0
    9.1427  -18.8842   18.5737 C   0  0  0  0  0  0  0  0  0  0  0  0
    8.9888  -18.8071   20.0576 C   0  0  2  0  0  0  0  0  0  0  0  0
    7.6386  -19.1032   20.4289 N   0  0  0  0  0  0  0  0  0  0  0  0
    9.3440  -17.4477   20.5752 C   0  0  0  0  0  0  0  0  0  0  0  0
   10.5557  -17.0968   20.6476 O   0  0  0  0  0  0  0  0  0  0  0  0
    5.6370  -19.3116   14.8192 C   0  0  0  0  0  0  0  0  0  0  0  0
    7.0832  -11.7171   20.7795 C   0  0  0  0  0  0  0  0  0  0  0  0
    8.0088  -12.7529   21.3754 C   0  0  2  0  0  0  0  0  0  0  0  0
    7.7057  -14.1567   21.0181 C   0  0  0  0  0  0  0  0  0  0  0  0
    6.2828  -14.4234   21.5780 C   0  0  2  0  0  0  0  0  0  0  0  0
    8.5467  -15.2348   21.5552 N   0  0  0  0  0  0  0  0  0  0  0  0
    8.3474  -16.5454   20.9879 C   0  0  0  0  0  0  0  0  0  0  0  0
    8.9373  -15.1960   22.9687 O   0  0  0  0  0  0  0  0  0  0  0  0
    9.7623  -14.3422   23.3616 N   0  0  0  0  0  0  0  0  0  0  0  0
    8.4346  -16.0720   23.9409 C   0  0  1  0  0  0  0  0  0  0  0  0
    8.9430  -16.0863   25.3226 C   0  0  0  0  0  0  0  0  0  0  0  0
    7.8949  -15.8059   26.3318 C   0  0  0  0  0  0  0  0  0  0  0  0
    7.6962  -14.3565   26.5570 C   0  0  0  0  0  0  0  0  0  0  0  0
    6.4629  -13.7379   26.3925 C   0  0  0  0  0  0  0  0  0  0  0  0
    6.2628  -12.4059   26.5957 C   0  0  0  0  0  0  0  0  0  0  0  0
    7.3395  -11.6066   26.9876 C   0  0  0  0  0  0  0  0  0  0  0  0
    8.5749  -12.1896   27.1588 C   0  0  0  0  0  0  0  0  0  0  0  0
    8.7493  -13.5634   26.9431 C   0  0  0  0  0  0  0  0  0  0  0  0
    9.6395  -17.4020   25.5962 O   0  0  0  0  0  0  0  0  0  0  0  0
   10.1511  -17.6309   26.7114 O   0  0  0  0  0  0  0  0  0  0  0  0
  2  1  1  0
  2  3  2  0
  4  2  1  0
  5  4  1  0
  6  5  1  0
  7  6  1  0
  8  7  1  0
  8  9  1  6
 10 11  2  0
 10  8  1  0
 13 14  1  0
 13 12  1  0
 14 15  1  6
 16 17  1  1
 16 14  1  0
 17 10  1  0
 18 16  1  0
 19 18  2  0
 20 18  1  0
 21 20  1  0
 21 22  1  1
 22 23  1  0
 23 24  2  0
 24 25  1  0
 26 25  2  0
 27 26  1  0
 28 27  2  0
 28 23  1  0
 29 21  1  0
 29 31  1  0
 30 29  2  0
M  END
$$$$
