CGD.pdb
     RDKit          3D

 19 18  0  0  1  0  0  0  0  0999 V2000
   17.8908   -9.8560  -14.4198 N   0  0  0  0  0  0  0  0  0  0  0  0
   19.1881  -10.3668  -14.8951 C   0  0  1  0  0  0  0  0  0  0  0  0
   18.8275  -11.5223  -15.8095 C   0  0  0  0  0  0  0  0  0  0  0  0
   18.3160  -12.9344  -14.8344 S   0  0  0  0  0  0  0  0  0  0  0  0
   19.8185   -9.2431  -15.6357 C   0  0  0  0  0  0  0  0  0  0  0  0
   19.3350   -8.8355  -16.7129 O   0  0  0  0  0  0  0  0  0  0  0  0
   20.9975   -8.5610  -15.1800 N   0  0  0  0  0  0  0  0  0  0  0  0
   21.5701   -7.4355  -15.8747 C   0  0  0  0  0  0  0  0  0  0  0  0
   21.1484   -6.1348  -15.2889 C   0  0  0  0  0  0  0  0  0  0  0  0
   20.5874   -6.0685  -14.1684 O   0  0  0  0  0  0  0  0  0  0  0  0
   21.3829   -4.9304  -16.0055 N   0  0  0  0  0  0  0  0  0  0  0  0
   20.9800   -3.6170  -15.5314 C   0  0  1  0  0  0  0  0  0  0  0  0
   22.0841   -2.6459  -15.9769 C   0  0  0  0  0  0  0  0  0  0  0  0
   21.7778   -1.3131  -15.4572 C   0  0  0  0  0  0  0  0  0  0  0  0
   21.1279   -1.2166  -14.3604 O   0  0  0  0  0  0  0  0  0  0  0  0
   19.7108   -3.1791  -16.1859 C   0  0  0  0  0  0  0  0  0  0  0  0
   19.4426   -3.5401  -17.3374 O   0  0  0  0  0  0  0  0  0  0  0  0
   22.1712   -0.1550  -16.1227 O   0  0  0  0  0  0  0  0  0  0  0  0
   18.8121   -2.3521  -15.4988 O   0  0  0  0  0  0  0  0  0  0  0  0
  2  1  1  6
  2  3  1  0
  4  3  1  0
  5  2  1  0
  6  5  2  0
  7  5  1  0
  8  7  1  0
  9  8  1  0
  9 10  2  0
 11  9  1  0
 12 11  1  0
 12 13  1  6
 14 13  1  0
 15 14  2  0
 16 12  1  0
 17 16  2  0
 18 14  1  0
 19 16  1  0
M  END
$$$$
