CGD.pdb
     RDKit          3D

 19 18  0  0  1  0  0  0  0  0999 V2000
   26.9876  -17.6071  -15.6189 N   0  0  0  0  0  0  0  0  0  0  0  0
   26.5637  -17.8193  -17.0136 C   0  0  1  0  0  0  0  0  0  0  0  0
   27.0777  -19.2044  -17.3585 C   0  0  0  0  0  0  0  0  0  0  0  0
   28.7681  -19.3847  -16.7960 S   0  0  0  0  0  0  0  0  0  0  0  0
   25.0788  -17.7616  -16.9984 C   0  0  0  0  0  0  0  0  0  0  0  0
   24.4047  -18.4076  -17.8282 O   0  0  0  0  0  0  0  0  0  0  0  0
   24.3294  -16.9806  -16.0542 N   0  0  0  0  0  0  0  0  0  0  0  0
   22.8893  -16.9230  -16.0520 C   0  0  0  0  0  0  0  0  0  0  0  0
   22.2785  -18.0613  -15.3146 C   0  0  0  0  0  0  0  0  0  0  0  0
   22.9772  -18.9910  -14.8431 O   0  0  0  0  0  0  0  0  0  0  0  0
   20.8702  -18.1076  -15.1316 N   0  0  0  0  0  0  0  0  0  0  0  0
   20.1902  -19.1282  -14.3518 C   0  0  1  0  0  0  0  0  0  0  0  0
   18.8914  -18.4825  -13.8450 C   0  0  0  0  0  0  0  0  0  0  0  0
   18.2270  -19.4130  -12.9324 C   0  0  0  0  0  0  0  0  0  0  0  0
   16.9975  -19.2156  -12.6426 O   0  0  0  0  0  0  0  0  0  0  0  0
   19.8054  -20.2883  -15.2103 C   0  0  0  0  0  0  0  0  0  0  0  0
   19.4188  -21.3453  -14.6988 O   0  0  0  0  0  0  0  0  0  0  0  0
   18.8950  -20.4994  -12.3734 O   0  0  0  0  0  0  0  0  0  0  0  0
   19.8808  -20.1883  -16.6059 O   0  0  0  0  0  0  0  0  0  0  0  0
  2  1  1  1
  2  3  1  0
  4  3  1  0
  5  2  1  0
  6  5  2  0
  7  5  1  0
  8  7  1  0
  9  8  1  0
  9 10  2  0
 11  9  1  0
 12 11  1  0
 12 13  1  6
 14 13  1  0
 15 14  2  0
 16 12  1  0
 17 16  2  0
 18 14  1  0
 19 16  1  0
M  END
$$$$
