CGD.pdb
     RDKit          3D

 19 18  0  0  1  0  0  0  0  0999 V2000
   25.6637  -20.3766   -7.5370 N   0  0  0  0  0  0  0  0  0  0  0  0
   26.9345  -19.9244   -8.1290 C   0  0  1  0  0  0  0  0  0  0  0  0
   27.9443  -20.0587   -7.0048 C   0  0  0  0  0  0  0  0  0  0  0  0
   27.5693  -18.8852   -5.7054 S   0  0  0  0  0  0  0  0  0  0  0  0
   27.2154  -20.8611   -9.2480 C   0  0  0  0  0  0  0  0  0  0  0  0
   27.9958  -21.8245   -9.0956 O   0  0  0  0  0  0  0  0  0  0  0  0
   26.6263  -20.7319  -10.5516 N   0  0  0  0  0  0  0  0  0  0  0  0
   27.4050  -20.6940  -11.7638 C   0  0  0  0  0  0  0  0  0  0  0  0
   26.5601  -20.5057  -12.9735 C   0  0  0  0  0  0  0  0  0  0  0  0
   27.0495  -20.5302  -14.1287 O   0  0  0  0  0  0  0  0  0  0  0  0
   25.1623  -20.2939  -12.8303 N   0  0  0  0  0  0  0  0  0  0  0  0
   24.1649  -20.8507  -13.7288 C   0  0  1  0  0  0  0  0  0  0  0  0
   24.3825  -22.3716  -13.7170 C   0  0  0  0  0  0  0  0  0  0  0  0
   24.5419  -22.8359  -15.0951 C   0  0  0  0  0  0  0  0  0  0  0  0
   24.1970  -22.0573  -16.0488 O   0  0  0  0  0  0  0  0  0  0  0  0
   22.7845  -20.5943  -13.2193 C   0  0  0  0  0  0  0  0  0  0  0  0
   21.8836  -20.2542  -13.9944 O   0  0  0  0  0  0  0  0  0  0  0  0
   25.0541  -24.0961  -15.3930 O   0  0  0  0  0  0  0  0  0  0  0  0
   22.4989  -20.7361  -11.8547 O   0  0  0  0  0  0  0  0  0  0  0  0
  2  1  1  1
  2  3  1  0
  4  3  1  0
  5  2  1  0
  6  5  2  0
  7  5  1  0
  8  7  1  0
  9  8  1  0
  9 10  2  0
 11  9  1  0
 12 11  1  0
 12 13  1  1
 14 13  1  0
 15 14  2  0
 16 12  1  0
 17 16  2  0
 18 14  1  0
 19 16  1  0
M  END
$$$$
