CGD.pdb
     RDKit          3D

 19 18  0  0  1  0  0  0  0  0999 V2000
   20.0049  -10.0230  -16.4403 N   0  0  0  0  0  0  0  0  0  0  0  0
   18.9966  -10.4367  -15.4494 C   0  0  1  0  0  0  0  0  0  0  0  0
   19.3604  -11.8713  -15.1160 C   0  0  0  0  0  0  0  0  0  0  0  0
   18.6001  -12.9828  -16.2962 S   0  0  0  0  0  0  0  0  0  0  0  0
   19.1763   -9.5293  -14.2862 C   0  0  0  0  0  0  0  0  0  0  0  0
   20.2596   -8.9363  -14.0986 O   0  0  0  0  0  0  0  0  0  0  0  0
   18.1461   -9.2736  -13.3187 N   0  0  0  0  0  0  0  0  0  0  0  0
   18.3150   -8.3608  -12.2161 C   0  0  0  0  0  0  0  0  0  0  0  0
   17.0436   -8.1172  -11.4834 C   0  0  0  0  0  0  0  0  0  0  0  0
   15.9814   -8.7094  -11.7930 O   0  0  0  0  0  0  0  0  0  0  0  0
   17.0189   -7.1948  -10.4028 N   0  0  0  0  0  0  0  0  0  0  0  0
   15.8007   -6.7577   -9.7417 C   0  0  1  0  0  0  0  0  0  0  0  0
   15.3268   -7.9468   -8.8919 C   0  0  0  0  0  0  0  0  0  0  0  0
   13.9677   -7.6786   -8.4219 C   0  0  0  0  0  0  0  0  0  0  0  0
   13.4078   -6.5794   -8.7578 O   0  0  0  0  0  0  0  0  0  0  0  0
   16.0765   -5.6249   -8.8081 C   0  0  0  0  0  0  0  0  0  0  0  0
   17.1734   -5.5289   -8.2461 O   0  0  0  0  0  0  0  0  0  0  0  0
   13.2736   -8.5825   -7.6217 O   0  0  0  0  0  0  0  0  0  0  0  0
   15.0912   -4.6599   -8.5599 O   0  0  0  0  0  0  0  0  0  0  0  0
  2  1  1  6
  2  3  1  0
  4  3  1  0
  5  2  1  0
  6  5  2  0
  7  5  1  0
  8  7  1  0
  9  8  1  0
  9 10  2  0
 11  9  1  0
 12 11  1  0
 12 13  1  1
 14 13  1  0
 15 14  2  0
 16 12  1  0
 17 16  2  0
 18 14  1  0
 19 16  1  0
M  END
$$$$
