CGD.pdb
     RDKit          3D

 19 18  0  0  1  0  0  0  0  0999 V2000
   24.4582  -13.3176  -15.4774 N   0  0  0  0  0  0  0  0  0  0  0  0
   24.2615  -12.7519  -16.8233 C   0  0  1  0  0  0  0  0  0  0  0  0
   23.9242  -13.9496  -17.6913 C   0  0  0  0  0  0  0  0  0  0  0  0
   25.3302  -15.0551  -17.7773 S   0  0  0  0  0  0  0  0  0  0  0  0
   23.1192  -11.8090  -16.7028 C   0  0  0  0  0  0  0  0  0  0  0  0
   21.9429  -12.2089  -16.8324 O   0  0  0  0  0  0  0  0  0  0  0  0
   23.2786  -10.4068  -16.4352 N   0  0  0  0  0  0  0  0  0  0  0  0
   22.1677   -9.4916  -16.3604 C   0  0  0  0  0  0  0  0  0  0  0  0
   22.5998   -8.1008  -16.0578 C   0  0  0  0  0  0  0  0  0  0  0  0
   23.7918   -7.8285  -15.7753 O   0  0  0  0  0  0  0  0  0  0  0  0
   21.6489   -7.0453  -16.0880 N   0  0  0  0  0  0  0  0  0  0  0  0
   21.9807   -5.6520  -15.8421 C   0  0  1  0  0  0  0  0  0  0  0  0
   20.7488   -4.8388  -16.2684 C   0  0  0  0  0  0  0  0  0  0  0  0
   21.0880   -3.4162  -16.2349 C   0  0  0  0  0  0  0  0  0  0  0  0
   22.3036   -3.0799  -16.0258 O   0  0  0  0  0  0  0  0  0  0  0  0
   22.1962   -5.4033  -14.3852 C   0  0  0  0  0  0  0  0  0  0  0  0
   22.6625   -4.3268  -13.9955 O   0  0  0  0  0  0  0  0  0  0  0  0
   20.1273   -2.4256  -16.4214 O   0  0  0  0  0  0  0  0  0  0  0  0
   21.8721   -6.3913  -13.4458 O   0  0  0  0  0  0  0  0  0  0  0  0
  2  1  1  1
  2  3  1  0
  4  3  1  0
  5  2  1  0
  6  5  2  0
  7  5  1  0
  8  7  1  0
  9  8  1  0
  9 10  2  0
 11  9  1  0
 12 11  1  0
 12 13  1  1
 14 13  1  0
 15 14  2  0
 16 12  1  0
 17 16  2  0
 18 14  1  0
 19 16  1  0
M  END
$$$$
