YLF.pdb
     RDKit          3D

 32 33  0  0  1  0  0  0  0  0999 V2000
    7.4823  -14.4319   14.2320 O   0  0  0  0  0  0  0  0  0  0  0  0
    7.5843  -14.3383   15.6237 C   0  0  0  0  0  0  0  0  0  0  0  0
    7.9977  -15.4255   16.3565 C   0  0  0  0  0  0  0  0  0  0  0  0
    8.1002  -15.3426   17.7164 C   0  0  0  0  0  0  0  0  0  0  0  0
    7.7969  -14.1866   18.3684 C   0  0  0  0  0  0  0  0  0  0  0  0
    7.8980  -14.0711   19.8318 C   0  0  0  0  0  0  0  0  0  0  0  0
    8.3595  -15.3897   20.4432 C   0  0  2  0  0  0  0  0  0  0  0  0
    7.1683  -16.2369   20.5050 N   0  0  0  0  0  0  0  0  0  0  0  0
    8.8987  -15.1454   21.7971 C   0  0  0  0  0  0  0  0  0  0  0  0
    9.9910  -14.5340   21.9166 O   0  0  0  0  0  0  0  0  0  0  0  0
    7.3750  -13.0591   17.6745 C   0  0  0  0  0  0  0  0  0  0  0  0
    7.2771  -13.1608   16.2994 C   0  0  0  0  0  0  0  0  0  0  0  0
    5.6923  -13.6337   25.8038 C   0  0  0  0  0  0  0  0  0  0  0  0
    6.8709  -13.8074   24.8293 C   0  0  1  0  0  0  0  0  0  0  0  0
    7.8891  -12.7033   25.0822 C   0  0  0  0  0  0  0  0  0  0  0  0
    7.4847  -15.1277   25.1701 C   0  0  0  0  0  0  0  0  0  0  0  0
    8.7447  -15.3019   24.3112 C   0  0  2  0  0  0  0  0  0  0  0  0
    8.2570  -15.5581   22.9694 N   0  0  0  0  0  0  0  0  0  0  0  0
    9.4705  -16.4342   24.9005 C   0  0  0  0  0  0  0  0  0  0  0  0
    9.0727  -17.5948   24.7216 O   0  0  0  0  0  0  0  0  0  0  0  0
   10.6289  -16.1807   25.6684 N   0  0  0  0  0  0  0  0  0  0  0  0
   11.4226  -17.2286   26.2887 C   0  0  1  0  0  0  0  0  0  0  0  0
   12.4750  -16.6270   27.1940 C   0  0  0  0  0  0  0  0  0  0  0  0
   11.8189  -15.8028   28.2234 C   0  0  0  0  0  0  0  0  0  0  0  0
   11.5873  -16.2339   29.5242 C   0  0  0  0  0  0  0  0  0  0  0  0
   10.9891  -15.4433   30.4514 C   0  0  0  0  0  0  0  0  0  0  0  0
   10.5733  -14.1449   30.1472 C   0  0  0  0  0  0  0  0  0  0  0  0
   10.7944  -13.6993   28.8592 C   0  0  0  0  0  0  0  0  0  0  0  0
   11.3967  -14.5011   27.9286 C   0  0  0  0  0  0  0  0  0  0  0  0
   10.6485  -18.2499   26.9467 C   0  0  0  0  0  0  0  0  0  0  0  0
   11.2416  -19.2983   27.3874 O   0  0  0  0  0  0  0  0  0  0  0  0
    9.2864  -18.2330   27.1704 O   0  0  0  0  0  0  0  0  0  0  0  0
  2  3  2  0
  2  1  1  0
  4  3  1  0
  5 11  1  0
  5  4  2  0
  6  7  1  0
  6  5  1  0
  7  9  1  0
  7  8  1  1
  9 10  2  0
 11 12  2  0
 12  2  1  0
 14 13  1  1
 15 14  1  0
 16 14  1  0
 17 16  1  1
 18 17  1  0
 18  9  1  0
 19 20  2  0
 19 17  1  0
 21 19  1  0
 22 21  1  0
 22 23  1  1
 23 24  1  0
 24 25  2  0
 25 26  1  0
 27 26  2  0
 28 27  1  0
 29 24  1  0
 29 28  2  0
 30 22  1  0
 31 30  2  0
 32 30  1  0
M  END
$$$$
