YLF.pdb
     RDKit          3D

 32 33  0  0  1  0  0  0  0  0999 V2000
   10.5731  -24.5301   20.1589 O   0  0  0  0  0  0  0  0  0  0  0  0
   10.6259  -23.2050   20.6033 C   0  0  0  0  0  0  0  0  0  0  0  0
    9.6228  -22.7081   21.4014 C   0  0  0  0  0  0  0  0  0  0  0  0
    9.6666  -21.4149   21.8399 C   0  0  0  0  0  0  0  0  0  0  0  0
   10.7001  -20.5978   21.4969 C   0  0  0  0  0  0  0  0  0  0  0  0
   10.7709  -19.2013   21.9549 C   0  0  0  0  0  0  0  0  0  0  0  0
   10.1872  -18.2622   20.9047 C   0  0  2  0  0  0  0  0  0  0  0  0
   11.0425  -18.4041   19.7262 N   0  0  0  0  0  0  0  0  0  0  0  0
   10.2186  -16.8741   21.4100 C   0  0  0  0  0  0  0  0  0  0  0  0
   11.3204  -16.2705   21.4645 O   0  0  0  0  0  0  0  0  0  0  0  0
   11.7389  -21.0512   20.6929 C   0  0  0  0  0  0  0  0  0  0  0  0
   11.6784  -22.3621   20.2585 C   0  0  0  0  0  0  0  0  0  0  0  0
    6.1574  -13.8005   20.0308 C   0  0  0  0  0  0  0  0  0  0  0  0
    7.5729  -14.3066   20.3612 C   0  0  1  0  0  0  0  0  0  0  0  0
    8.5936  -13.3450   19.7669 C   0  0  0  0  0  0  0  0  0  0  0  0
    7.6760  -14.2707   21.8526 C   0  0  0  0  0  0  0  0  0  0  0  0
    9.0656  -14.7905   22.2455 C   0  0  2  0  0  0  0  0  0  0  0  0
    9.0802  -16.1818   21.8357 N   0  0  0  0  0  0  0  0  0  0  0  0
    9.1604  -14.6035   23.6988 C   0  0  0  0  0  0  0  0  0  0  0  0
    8.8922  -13.5052   24.2081 O   0  0  0  0  0  0  0  0  0  0  0  0
    9.5562  -15.6934   24.5057 N   0  0  0  0  0  0  0  0  0  0  0  0
    9.3976  -15.7185   25.9504 C   0  0  1  0  0  0  0  0  0  0  0  0
    7.9310  -15.6847   26.3204 C   0  0  0  0  0  0  0  0  0  0  0  0
    7.4713  -14.2861   26.3630 C   0  0  0  0  0  0  0  0  0  0  0  0
    6.2455  -13.8617   25.8639 C   0  0  0  0  0  0  0  0  0  0  0  0
    5.8486  -12.5653   25.9295 C   0  0  0  0  0  0  0  0  0  0  0  0
    6.6548  -11.5817   26.5074 C   0  0  0  0  0  0  0  0  0  0  0  0
    7.8769  -11.9843   27.0081 C   0  0  0  0  0  0  0  0  0  0  0  0
    8.2720  -13.2922   26.9382 C   0  0  0  0  0  0  0  0  0  0  0  0
   10.1071  -16.7861   26.6078 C   0  0  0  0  0  0  0  0  0  0  0  0
   10.7613  -17.6320   25.8995 O   0  0  0  0  0  0  0  0  0  0  0  0
   10.1708  -17.0158   27.9674 O   0  0  0  0  0  0  0  0  0  0  0  0
  2  3  2  0
  2  1  1  0
  4  3  1  0
  5 11  1  0
  5  4  2  0
  6  7  1  0
  6  5  1  0
  7  9  1  0
  7  8  1  6
  9 10  2  0
 11 12  2  0
 12  2  1  0
 14 13  1  1
 15 14  1  0
 16 14  1  0
 17 16  1  1
 18 17  1  0
 18  9  1  0
 19 20  2  0
 19 17  1  0
 21 19  1  0
 22 21  1  0
 22 23  1  6
 23 24  1  0
 24 25  2  0
 25 26  1  0
 27 26  2  0
 28 27  1  0
 29 24  1  0
 29 28  2  0
 30 22  1  0
 31 30  2  0
 32 30  1  0
M  END
$$$$
