YLF.pdb
     RDKit          3D

 32 33  0  0  1  0  0  0  0  0999 V2000
    7.9289  -18.0910   27.9157 O   0  0  0  0  0  0  0  0  0  0  0  0
    7.6276  -18.4767   26.6054 C   0  0  0  0  0  0  0  0  0  0  0  0
    8.5533  -19.1727   25.8646 C   0  0  0  0  0  0  0  0  0  0  0  0
    8.2672  -19.5534   24.5841 C   0  0  0  0  0  0  0  0  0  0  0  0
    7.0650  -19.2527   24.0203 C   0  0  0  0  0  0  0  0  0  0  0  0
    6.7321  -19.6500   22.6433 C   0  0  0  0  0  0  0  0  0  0  0  0
    6.5247  -18.4204   21.7655 C   0  0  2  0  0  0  0  0  0  0  0  0
    6.1243  -18.9317   20.4545 N   0  0  0  0  0  0  0  0  0  0  0  0
    7.7898  -17.6632   21.6677 C   0  0  0  0  0  0  0  0  0  0  0  0
    8.8343  -18.2656   21.3107 O   0  0  0  0  0  0  0  0  0  0  0  0
    6.0949  -18.5516   24.7264 C   0  0  0  0  0  0  0  0  0  0  0  0
    6.4013  -18.1746   26.0204 C   0  0  0  0  0  0  0  0  0  0  0  0
    6.5606  -13.8037   22.4626 C   0  0  0  0  0  0  0  0  0  0  0  0
    7.2934  -14.1390   21.1513 C   0  0  1  0  0  0  0  0  0  0  0  0
    7.0139  -13.0411   20.1334 C   0  0  0  0  0  0  0  0  0  0  0  0
    8.7498  -14.1336   21.4906 C   0  0  0  0  0  0  0  0  0  0  0  0
    9.1371  -15.5474   21.9452 C   0  0  2  0  0  0  0  0  0  0  0  0
    7.8957  -16.2976   21.9510 N   0  0  0  0  0  0  0  0  0  0  0  0
    9.7330  -15.3842   23.2773 C   0  0  0  0  0  0  0  0  0  0  0  0
   10.7771  -14.7310   23.4209 O   0  0  0  0  0  0  0  0  0  0  0  0
    9.0965  -15.9776   24.3902 N   0  0  0  0  0  0  0  0  0  0  0  0
    9.6868  -16.0258   25.7176 C   0  0  1  0  0  0  0  0  0  0  0  0
    8.6109  -15.9303   26.7769 C   0  0  0  0  0  0  0  0  0  0  0  0
    7.8876  -14.6565   26.6235 C   0  0  0  0  0  0  0  0  0  0  0  0
    6.5862  -14.5614   26.1451 C   0  0  0  0  0  0  0  0  0  0  0  0
    5.9454  -13.3706   26.0267 C   0  0  0  0  0  0  0  0  0  0  0  0
    6.5623  -12.1692   26.3832 C   0  0  0  0  0  0  0  0  0  0  0  0
    7.8559  -12.2436   26.8601 C   0  0  0  0  0  0  0  0  0  0  0  0
    8.4971  -13.4465   26.9762 C   0  0  0  0  0  0  0  0  0  0  0  0
   10.5748  -17.1395   25.9331 C   0  0  0  0  0  0  0  0  0  0  0  0
   11.1422  -17.2756   27.0754 O   0  0  0  0  0  0  0  0  0  0  0  0
   10.9002  -18.1205   25.0181 O   0  0  0  0  0  0  0  0  0  0  0  0
  2  3  2  0
  2  1  1  0
  4  3  1  0
  5 11  1  0
  5  4  2  0
  6  7  1  0
  6  5  1  0
  7  9  1  0
  7  8  1  6
  9 10  2  0
 11 12  2  0
 12  2  1  0
 14 13  1  1
 15 14  1  0
 16 14  1  0
 17 16  1  1
 18 17  1  0
 18  9  1  0
 19 20  2  0
 19 17  1  0
 21 19  1  0
 22 21  1  0
 22 23  1  1
 23 24  1  0
 24 25  2  0
 25 26  1  0
 27 26  2  0
 28 27  1  0
 29 24  1  0
 29 28  2  0
 30 22  1  0
 31 30  2  0
 32 30  1  0
M  END
$$$$
