YLF.pdb
     RDKit          3D

 32 33  0  0  1  0  0  0  0  0999 V2000
    9.1916  -24.1742   17.0883 O   0  0  0  0  0  0  0  0  0  0  0  0
    9.2619  -22.8417   17.5075 C   0  0  0  0  0  0  0  0  0  0  0  0
    9.0146  -21.8269   16.6136 C   0  0  0  0  0  0  0  0  0  0  0  0
    9.0811  -20.5226   17.0147 C   0  0  0  0  0  0  0  0  0  0  0  0
    9.3913  -20.2046   18.3016 C   0  0  0  0  0  0  0  0  0  0  0  0
    9.4703  -18.8084   18.7590 C   0  0  0  0  0  0  0  0  0  0  0  0
    9.3877  -18.7368   20.2800 C   0  0  2  0  0  0  0  0  0  0  0  0
    7.9787  -18.9500   20.6114 N   0  0  0  0  0  0  0  0  0  0  0  0
    9.8374  -17.4058   20.7379 C   0  0  0  0  0  0  0  0  0  0  0  0
   11.0021  -17.0257   20.4548 O   0  0  0  0  0  0  0  0  0  0  0  0
    9.6495  -21.1926   19.2441 C   0  0  0  0  0  0  0  0  0  0  0  0
    9.5777  -22.5066   18.8210 C   0  0  0  0  0  0  0  0  0  0  0  0
    6.2338  -13.5617   20.6722 C   0  0  0  0  0  0  0  0  0  0  0  0
    7.6161  -14.2258   20.5411 C   0  0  1  0  0  0  0  0  0  0  0  0
    8.5472  -13.2859   19.7866 C   0  0  0  0  0  0  0  0  0  0  0  0
    8.1172  -14.3935   21.9400 C   0  0  0  0  0  0  0  0  0  0  0  0
    9.4246  -15.1954   21.8835 C   0  0  2  0  0  0  0  0  0  0  0  0
    9.0333  -16.5313   21.4761 N   0  0  0  0  0  0  0  0  0  0  0  0
    9.9844  -15.1333   23.2395 C   0  0  0  0  0  0  0  0  0  0  0  0
   11.0359  -14.5127   23.4556 O   0  0  0  0  0  0  0  0  0  0  0  0
    9.3049  -15.7863   24.2921 N   0  0  0  0  0  0  0  0  0  0  0  0
    9.8421  -15.9079   25.6372 C   0  0  1  0  0  0  0  0  0  0  0  0
   10.0700  -14.5390   26.2398 C   0  0  0  0  0  0  0  0  0  0  0  0
    8.8020  -13.7896   26.2405 C   0  0  0  0  0  0  0  0  0  0  0  0
    8.2953  -13.1303   25.1269 C   0  0  0  0  0  0  0  0  0  0  0  0
    7.1168  -12.4575   25.1600 C   0  0  0  0  0  0  0  0  0  0  0  0
    6.3438  -12.3926   26.3216 C   0  0  0  0  0  0  0  0  0  0  0  0
    6.8315  -13.0411   27.4387 C   0  0  0  0  0  0  0  0  0  0  0  0
    8.0206  -13.7167   27.3997 C   0  0  0  0  0  0  0  0  0  0  0  0
    9.0829  -16.7721   26.5045 C   0  0  0  0  0  0  0  0  0  0  0  0
    9.4808  -16.9550   27.7101 O   0  0  0  0  0  0  0  0  0  0  0  0
    7.9280  -17.4545   26.1791 O   0  0  0  0  0  0  0  0  0  0  0  0
  2  3  2  0
  2  1  1  0
  4  3  1  0
  5 11  1  0
  5  4  2  0
  6  7  1  0
  6  5  1  0
  7  9  1  0
  7  8  1  6
  9 10  2  0
 11 12  2  0
 12  2  1  0
 14 13  1  1
 15 14  1  0
 16 14  1  0
 17 16  1  1
 18 17  1  0
 18  9  1  0
 19 20  2  0
 19 17  1  0
 21 19  1  0
 22 21  1  0
 22 23  1  1
 23 24  1  0
 24 25  2  0
 25 26  1  0
 27 26  2  0
 28 27  1  0
 29 24  1  0
 29 28  2  0
 30 22  1  0
 31 30  2  0
 32 30  1  0
M  END
$$$$
