PIF.pdb
     RDKit          3D

 27 28  0  0  1  0  0  0  0  0999 V2000
    8.6287  -15.0706   18.7050 N   0  0  0  0  0  0  0  0  0  0  0  0
    8.3121  -14.4478   17.4506 C   0  0  0  0  0  0  0  0  0  0  0  0
    7.3267  -13.3725   17.8200 C   0  0  0  0  0  0  0  0  0  0  0  0
    7.7792  -12.9096   19.1755 C   0  0  0  0  0  0  0  0  0  0  0  0
    8.6181  -14.0221   19.7090 C   0  0  1  0  0  0  0  0  0  0  0  0
    8.0946  -14.6047   20.9706 C   0  0  0  0  0  0  0  0  0  0  0  0
    7.8376  -13.8738   21.9871 O   0  0  0  0  0  0  0  0  0  0  0  0
    5.4293  -19.3452   20.4446 C   0  0  0  0  0  0  0  0  0  0  0  0
    5.7755  -17.9474   20.9028 C   0  0  0  0  0  0  0  0  0  0  0  0
    6.7888  -17.9129   21.9828 C   0  0  2  0  0  0  0  0  0  0  0  0
    6.2108  -18.6225   23.2178 C   0  0  0  0  0  0  0  0  0  0  0  0
    7.2514  -16.5137   22.3946 C   0  0  2  0  0  0  0  0  0  0  0  0
    7.8468  -15.9918   21.1336 N   0  0  0  0  0  0  0  0  0  0  0  0
    8.2637  -16.5077   23.4495 C   0  0  0  0  0  0  0  0  0  0  0  0
    9.4175  -16.9904   23.1636 O   0  0  0  0  0  0  0  0  0  0  0  0
    8.0403  -16.0022   24.7491 N   0  0  0  0  0  0  0  0  0  0  0  0
    9.1521  -15.9423   25.6887 C   0  0  1  0  0  0  0  0  0  0  0  0
    9.5842  -14.5088   25.9118 C   0  0  0  0  0  0  0  0  0  0  0  0
    8.4750  -13.5993   26.2439 C   0  0  0  0  0  0  0  0  0  0  0  0
    8.2820  -13.1260   27.5294 C   0  0  0  0  0  0  0  0  0  0  0  0
    7.2431  -12.2651   27.8571 C   0  0  0  0  0  0  0  0  0  0  0  0
    6.3619  -11.8579   26.8743 C   0  0  0  0  0  0  0  0  0  0  0  0
    6.5440  -12.3212   25.5968 C   0  0  0  0  0  0  0  0  0  0  0  0
    7.5802  -13.1764   25.2827 C   0  0  0  0  0  0  0  0  0  0  0  0
    8.7980  -16.6292   26.9427 C   0  0  0  0  0  0  0  0  0  0  0  0
    7.6598  -17.0976   27.1912 O   0  0  0  0  0  0  0  0  0  0  0  0
    9.7510  -16.7904   27.9380 O   0  0  0  0  0  0  0  0  0  0  0  0
  1  2  1  0
  3  2  1  0
  4  3  1  0
  4  5  1  0
  5  6  1  1
  5  1  1  0
  6  7  2  0
  9  8  1  0
 10  9  1  0
 10 11  1  1
 12 10  1  0
 13  6  1  0
 12 13  1  6
 14 12  1  0
 14 15  2  0
 16 14  1  0
 17 25  1  0
 17 16  1  0
 17 18  1  1
 19 20  2  0
 19 18  1  0
 21 20  1  0
 22 21  2  0
 23 22  1  0
 23 24  2  0
 24 19  1  0
 25 27  1  0
 26 25  2  0
M  END
$$$$
