PIF.pdb
     RDKit          3D

 27 28  0  0  1  0  0  0  0  0999 V2000
    7.4954  -18.8321   18.8529 N   0  0  0  0  0  0  0  0  0  0  0  0
    7.0958  -20.2113   18.8533 C   0  0  0  0  0  0  0  0  0  0  0  0
    7.3310  -20.6547   20.2717 C   0  0  0  0  0  0  0  0  0  0  0  0
    7.0200  -19.4365   21.0938 C   0  0  0  0  0  0  0  0  0  0  0  0
    7.1280  -18.2880   20.1476 C   0  0  1  0  0  0  0  0  0  0  0  0
    8.1641  -17.2975   20.5361 C   0  0  0  0  0  0  0  0  0  0  0  0
    9.4060  -17.5129   20.3242 O   0  0  0  0  0  0  0  0  0  0  0  0
    6.8181  -11.9629   20.6814 C   0  0  0  0  0  0  0  0  0  0  0  0
    7.1992  -13.2672   21.3428 C   0  0  0  0  0  0  0  0  0  0  0  0
    8.4894  -13.8172   20.8662 C   0  0  2  0  0  0  0  0  0  0  0  0
    8.3847  -14.0675   19.3531 C   0  0  0  0  0  0  0  0  0  0  0  0
    8.9335  -15.1137   21.5468 C   0  0  2  0  0  0  0  0  0  0  0  0
    7.8530  -16.0621   21.1597 N   0  0  0  0  0  0  0  0  0  0  0  0
    9.0055  -15.0267   23.0045 C   0  0  0  0  0  0  0  0  0  0  0  0
    8.7641  -13.8863   23.5406 O   0  0  0  0  0  0  0  0  0  0  0  0
    9.3205  -16.1195   23.8416 N   0  0  0  0  0  0  0  0  0  0  0  0
    9.2460  -15.9516   25.2869 C   0  0  1  0  0  0  0  0  0  0  0  0
    7.8097  -15.7681   25.7284 C   0  0  0  0  0  0  0  0  0  0  0  0
    7.4623  -14.3749   26.0542 C   0  0  0  0  0  0  0  0  0  0  0  0
    8.3759  -13.5139   26.6354 C   0  0  0  0  0  0  0  0  0  0  0  0
    8.0641  -12.1968   26.9450 C   0  0  0  0  0  0  0  0  0  0  0  0
    6.7995  -11.7144   26.6685 C   0  0  0  0  0  0  0  0  0  0  0  0
    5.8863  -12.5595   26.0926 C   0  0  0  0  0  0  0  0  0  0  0  0
    6.2074  -13.8666   25.7892 C   0  0  0  0  0  0  0  0  0  0  0  0
    9.9081  -17.0784   25.9664 C   0  0  0  0  0  0  0  0  0  0  0  0
   10.1200  -18.1953   25.4330 O   0  0  0  0  0  0  0  0  0  0  0  0
   10.3405  -16.9402   27.2774 O   0  0  0  0  0  0  0  0  0  0  0  0
  1  2  1  0
  3  2  1  0
  4  3  1  0
  4  5  1  0
  5  6  1  1
  5  1  1  0
  6  7  2  0
  9  8  1  0
 10  9  1  0
 10 11  1  6
 12 10  1  0
 13  6  1  0
 12 13  1  1
 14 12  1  0
 14 15  2  0
 16 14  1  0
 17 25  1  0
 17 16  1  0
 17 18  1  1
 19 20  2  0
 19 18  1  0
 21 20  1  0
 22 21  2  0
 23 22  1  0
 23 24  2  0
 24 19  1  0
 25 27  1  0
 26 25  2  0
M  END
$$$$
