PIF.pdb
     RDKit          3D

 27 28  0  0  1  0  0  0  0  0999 V2000
    8.6600  -15.1616   18.6100 N   0  0  0  0  0  0  0  0  0  0  0  0
    8.5106  -14.5565   17.3165 C   0  0  0  0  0  0  0  0  0  0  0  0
    7.6563  -13.3464   17.5807 C   0  0  0  0  0  0  0  0  0  0  0  0
    8.0788  -12.8899   18.9480 C   0  0  0  0  0  0  0  0  0  0  0  0
    8.7255  -14.0792   19.5752 C   0  0  1  0  0  0  0  0  0  0  0  0
    8.0490  -14.5341   20.8164 C   0  0  0  0  0  0  0  0  0  0  0  0
    7.8645  -13.7438   21.8039 O   0  0  0  0  0  0  0  0  0  0  0  0
    4.6652  -18.8387   20.4402 C   0  0  0  0  0  0  0  0  0  0  0  0
    5.2201  -17.4995   20.8673 C   0  0  0  0  0  0  0  0  0  0  0  0
    6.2768  -17.5994   21.9007 C   0  0  2  0  0  0  0  0  0  0  0  0
    5.6641  -18.2178   23.1677 C   0  0  0  0  0  0  0  0  0  0  0  0
    6.9446  -16.2750   22.2766 C   0  0  2  0  0  0  0  0  0  0  0  0
    7.5677  -15.8570   20.9906 N   0  0  0  0  0  0  0  0  0  0  0  0
    7.9802  -16.4001   23.3011 C   0  0  0  0  0  0  0  0  0  0  0  0
    9.0787  -16.9706   22.9638 O   0  0  0  0  0  0  0  0  0  0  0  0
    7.8362  -15.9290   24.6246 N   0  0  0  0  0  0  0  0  0  0  0  0
    8.9655  -16.0260   25.5398 C   0  0  1  0  0  0  0  0  0  0  0  0
    9.3659  -14.6542   26.0389 C   0  0  0  0  0  0  0  0  0  0  0  0
    8.2405  -13.8598   26.5587 C   0  0  0  0  0  0  0  0  0  0  0  0
    7.3799  -13.1792   25.7163 C   0  0  0  0  0  0  0  0  0  0  0  0
    6.3122  -12.4291   26.1913 C   0  0  0  0  0  0  0  0  0  0  0  0
    6.0889  -12.3503   27.5523 C   0  0  0  0  0  0  0  0  0  0  0  0
    6.9362  -13.0212   28.3962 C   0  0  0  0  0  0  0  0  0  0  0  0
    7.9939  -13.7635   27.9127 C   0  0  0  0  0  0  0  0  0  0  0  0
    8.6553  -16.9596   26.6361 C   0  0  0  0  0  0  0  0  0  0  0  0
    7.5416  -17.5190   26.7898 O   0  0  0  0  0  0  0  0  0  0  0  0
    9.6247  -17.2681   27.5794 O   0  0  0  0  0  0  0  0  0  0  0  0
  1  2  1  0
  3  2  1  0
  4  3  1  0
  4  5  1  0
  5  6  1  1
  5  1  1  0
  6  7  2  0
  9  8  1  0
 10  9  1  0
 10 11  1  1
 12 10  1  0
 13  6  1  0
 12 13  1  6
 14 12  1  0
 14 15  2  0
 16 14  1  0
 17 25  1  0
 17 16  1  0
 17 18  1  1
 19 20  2  0
 19 18  1  0
 21 20  1  0
 22 21  2  0
 23 22  1  0
 23 24  2  0
 24 19  1  0
 25 27  1  0
 26 25  2  0
M  END
$$$$
