PIF.pdb
     RDKit          3D

 27 28  0  0  1  0  0  0  0  0999 V2000
    7.1508  -15.3967   19.9367 N   0  0  0  0  0  0  0  0  0  0  0  0
    6.3878  -14.8104   18.8710 C   0  0  0  0  0  0  0  0  0  0  0  0
    6.8252  -13.3708   18.8636 C   0  0  0  0  0  0  0  0  0  0  0  0
    8.2742  -13.4251   19.2559 C   0  0  0  0  0  0  0  0  0  0  0  0
    8.4466  -14.7424   19.9350 C   0  0  1  0  0  0  0  0  0  0  0  0
    8.9002  -14.6260   21.3442 C   0  0  0  0  0  0  0  0  0  0  0  0
   10.0748  -14.2149   21.6355 O   0  0  0  0  0  0  0  0  0  0  0  0
    5.8941  -13.1811   26.3774 C   0  0  0  0  0  0  0  0  0  0  0  0
    7.2366  -13.4975   25.7601 C   0  0  0  0  0  0  0  0  0  0  0  0
    7.1400  -14.2491   24.4872 C   0  0  2  0  0  0  0  0  0  0  0  0
    6.3670  -15.5523   24.7469 C   0  0  0  0  0  0  0  0  0  0  0  0
    8.4799  -14.5970   23.8352 C   0  0  2  0  0  0  0  0  0  0  0  0
    8.0745  -14.9579   22.4488 N   0  0  0  0  0  0  0  0  0  0  0  0
    9.1659  -15.7310   24.4524 C   0  0  0  0  0  0  0  0  0  0  0  0
    8.7229  -16.9053   24.1860 O   0  0  0  0  0  0  0  0  0  0  0  0
   10.2778  -15.6020   25.3134 N   0  0  0  0  0  0  0  0  0  0  0  0
   10.9413  -16.8037   25.8014 C   0  0  1  0  0  0  0  0  0  0  0  0
   12.0755  -16.4432   26.7369 C   0  0  0  0  0  0  0  0  0  0  0  0
   11.6591  -15.6221   27.8858 C   0  0  0  0  0  0  0  0  0  0  0  0
   11.5377  -16.1563   29.1561 C   0  0  0  0  0  0  0  0  0  0  0  0
   11.1497  -15.3939   30.2499 C   0  0  0  0  0  0  0  0  0  0  0  0
   10.8714  -14.0517   30.0787 C   0  0  0  0  0  0  0  0  0  0  0  0
   10.9885  -13.5122   28.8236 C   0  0  0  0  0  0  0  0  0  0  0  0
   11.3750  -14.2795   27.7441 C   0  0  0  0  0  0  0  0  0  0  0  0
    9.9613  -17.7114   26.4224 C   0  0  0  0  0  0  0  0  0  0  0  0
    8.8039  -17.3675   26.7672 O   0  0  0  0  0  0  0  0  0  0  0  0
   10.2964  -19.0367   26.6589 O   0  0  0  0  0  0  0  0  0  0  0  0
  1  2  1  0
  3  2  1  0
  4  3  1  0
  4  5  1  0
  5  6  1  1
  5  1  1  0
  6  7  2  0
  9  8  1  0
 10  9  1  0
 10 11  1  1
 12 10  1  0
 13  6  1  0
 12 13  1  6
 14 12  1  0
 14 15  2  0
 16 14  1  0
 17 25  1  0
 17 16  1  0
 17 18  1  1
 19 20  2  0
 19 18  1  0
 21 20  1  0
 22 21  2  0
 23 22  1  0
 23 24  2  0
 24 19  1  0
 25 27  1  0
 26 25  2  0
M  END
$$$$
