PIF.pdb
     RDKit          3D

 27 28  0  0  1  0  0  0  0  0999 V2000
    7.0659  -14.9383   19.9015 N   0  0  0  0  0  0  0  0  0  0  0  0
    6.4660  -14.2624   18.7857 C   0  0  0  0  0  0  0  0  0  0  0  0
    7.2228  -12.9648   18.7004 C   0  0  0  0  0  0  0  0  0  0  0  0
    8.6176  -13.3243   19.1268 C   0  0  0  0  0  0  0  0  0  0  0  0
    8.4775  -14.5997   19.8883 C   0  0  1  0  0  0  0  0  0  0  0  0
    8.9353  -14.5001   21.2975 C   0  0  0  0  0  0  0  0  0  0  0  0
   10.1497  -14.2259   21.5868 O   0  0  0  0  0  0  0  0  0  0  0  0
    6.1805  -12.4927   26.2619 C   0  0  0  0  0  0  0  0  0  0  0  0
    7.4451  -13.1083   25.7092 C   0  0  0  0  0  0  0  0  0  0  0  0
    7.2473  -13.8076   24.4184 C   0  0  2  0  0  0  0  0  0  0  0  0
    6.2496  -14.9572   24.6335 C   0  0  0  0  0  0  0  0  0  0  0  0
    8.5195  -14.3760   23.7863 C   0  0  2  0  0  0  0  0  0  0  0  0
    8.0705  -14.6992   22.4040 N   0  0  0  0  0  0  0  0  0  0  0  0
    9.0149  -15.5899   24.4334 C   0  0  0  0  0  0  0  0  0  0  0  0
    8.6559  -16.7150   23.9320 O   0  0  0  0  0  0  0  0  0  0  0  0
    9.8592  -15.5875   25.5654 N   0  0  0  0  0  0  0  0  0  0  0  0
   10.5571  -16.8122   25.9334 C   0  0  1  0  0  0  0  0  0  0  0  0
   11.7606  -16.5004   26.7970 C   0  0  0  0  0  0  0  0  0  0  0  0
   11.4457  -15.6852   27.9819 C   0  0  0  0  0  0  0  0  0  0  0  0
   11.2196  -14.3235   27.8892 C   0  0  0  0  0  0  0  0  0  0  0  0
   10.9181  -13.5423   28.9968 C   0  0  0  0  0  0  0  0  0  0  0  0
   10.8377  -14.1322   30.2433 C   0  0  0  0  0  0  0  0  0  0  0  0
   11.0601  -15.4812   30.3464 C   0  0  0  0  0  0  0  0  0  0  0  0
   11.3589  -16.2476   29.2387 C   0  0  0  0  0  0  0  0  0  0  0  0
    9.6271  -17.7560   26.5769 C   0  0  0  0  0  0  0  0  0  0  0  0
    8.4397  -17.4791   26.8774 O   0  0  0  0  0  0  0  0  0  0  0  0
   10.0478  -19.0410   26.8877 O   0  0  0  0  0  0  0  0  0  0  0  0
  1  2  1  0
  3  2  1  0
  4  3  1  0
  4  5  1  0
  5  6  1  1
  5  1  1  0
  6  7  2  0
  9  8  1  0
 10  9  1  0
 10 11  1  1
 12 10  1  0
 13  6  1  0
 12 13  1  6
 14 12  1  0
 14 15  2  0
 16 14  1  0
 17 25  1  0
 17 16  1  0
 17 18  1  1
 19 20  2  0
 19 18  1  0
 21 20  1  0
 22 21  2  0
 23 22  1  0
 23 24  2  0
 24 19  1  0
 25 27  1  0
 26 25  2  0
M  END
$$$$
