PIF.pdb
     RDKit          3D

 27 28  0  0  1  0  0  0  0  0999 V2000
    7.9678  -18.6018   20.4709 N   0  0  0  0  0  0  0  0  0  0  0  0
    7.4106  -19.2314   19.3069 C   0  0  0  0  0  0  0  0  0  0  0  0
    8.0171  -18.4701   18.1596 C   0  0  0  0  0  0  0  0  0  0  0  0
    9.3934  -18.1116   18.6433 C   0  0  0  0  0  0  0  0  0  0  0  0
    9.3247  -18.2147   20.1301 C   0  0  1  0  0  0  0  0  0  0  0  0
    9.6221  -16.9368   20.8256 C   0  0  0  0  0  0  0  0  0  0  0  0
   10.7694  -16.3803   20.7376 O   0  0  0  0  0  0  0  0  0  0  0  0
    6.5994  -12.9596   19.9024 C   0  0  0  0  0  0  0  0  0  0  0  0
    7.7760  -13.8099   20.3222 C   0  0  0  0  0  0  0  0  0  0  0  0
    7.8332  -14.0618   21.7808 C   0  0  2  0  0  0  0  0  0  0  0  0
    7.9202  -12.7097   22.5070 C   0  0  0  0  0  0  0  0  0  0  0  0
    8.9973  -14.9408   22.2428 C   0  0  2  0  0  0  0  0  0  0  0  0
    8.6686  -16.2545   21.6240 N   0  0  0  0  0  0  0  0  0  0  0  0
    9.0875  -15.0953   23.6938 C   0  0  0  0  0  0  0  0  0  0  0  0
    9.2899  -14.0362   24.3891 O   0  0  0  0  0  0  0  0  0  0  0  0
    8.9623  -16.3338   24.3608 N   0  0  0  0  0  0  0  0  0  0  0  0
    8.8770  -16.3519   25.8150 C   0  0  1  0  0  0  0  0  0  0  0  0
    7.5086  -15.8956   26.2739 C   0  0  0  0  0  0  0  0  0  0  0  0
    7.4206  -14.4484   26.5305 C   0  0  0  0  0  0  0  0  0  0  0  0
    6.3139  -13.7086   26.1541 C   0  0  0  0  0  0  0  0  0  0  0  0
    6.2149  -12.3443   26.3925 C   0  0  0  0  0  0  0  0  0  0  0  0
    7.2514  -11.6881   27.0275 C   0  0  0  0  0  0  0  0  0  0  0  0
    8.3531  -12.4120   27.4046 C   0  0  0  0  0  0  0  0  0  0  0  0
    8.4405  -13.7675   27.1626 C   0  0  0  0  0  0  0  0  0  0  0  0
    9.2321  -17.6854   26.3305 C   0  0  0  0  0  0  0  0  0  0  0  0
    9.2113  -17.9979   27.5465 O   0  0  0  0  0  0  0  0  0  0  0  0
    9.6190  -18.6877   25.4528 O   0  0  0  0  0  0  0  0  0  0  0  0
  1  2  1  0
  3  2  1  0
  4  3  1  0
  4  5  1  0
  5  6  1  1
  5  1  1  0
  6  7  2  0
  9  8  1  0
 10  9  1  0
 10 11  1  1
 12 10  1  0
 13  6  1  0
 12 13  1  6
 14 12  1  0
 14 15  2  0
 16 14  1  0
 17 25  1  0
 17 16  1  0
 17 18  1  6
 19 20  2  0
 19 18  1  0
 21 20  1  0
 22 21  2  0
 23 22  1  0
 23 24  2  0
 24 19  1  0
 25 27  1  0
 26 25  2  0
M  END
$$$$
