PIF.pdb
     RDKit          3D

 27 28  0  0  1  0  0  0  0  0999 V2000
    6.8576  -14.9619   20.2280 N   0  0  0  0  0  0  0  0  0  0  0  0
    6.2496  -14.2792   19.1207 C   0  0  0  0  0  0  0  0  0  0  0  0
    7.0716  -13.0277   18.9731 C   0  0  0  0  0  0  0  0  0  0  0  0
    8.4612  -13.4540   19.3520 C   0  0  0  0  0  0  0  0  0  0  0  0
    8.2837  -14.7022   20.1498 C   0  0  1  0  0  0  0  0  0  0  0  0
    8.8042  -14.5964   21.5366 C   0  0  0  0  0  0  0  0  0  0  0  0
   10.0424  -14.3826   21.7702 O   0  0  0  0  0  0  0  0  0  0  0  0
    5.6122  -12.1944   25.3207 C   0  0  0  0  0  0  0  0  0  0  0  0
    6.8535  -12.5985   24.5594 C   0  0  0  0  0  0  0  0  0  0  0  0
    7.2674  -13.9996   24.8039 C   0  0  2  0  0  0  0  0  0  0  0  0
    7.5193  -14.1789   26.3097 C   0  0  0  0  0  0  0  0  0  0  0  0
    8.5157  -14.4503   24.0422 C   0  0  2  0  0  0  0  0  0  0  0  0
    7.9764  -14.7232   22.6815 N   0  0  0  0  0  0  0  0  0  0  0  0
    9.1317  -15.6648   24.5742 C   0  0  0  0  0  0  0  0  0  0  0  0
    8.7158  -16.7880   24.1145 O   0  0  0  0  0  0  0  0  0  0  0  0
   10.1495  -15.6648   25.5532 N   0  0  0  0  0  0  0  0  0  0  0  0
   10.8432  -16.9095   25.8565 C   0  0  1  0  0  0  0  0  0  0  0  0
   11.9669  -16.6667   26.8412 C   0  0  0  0  0  0  0  0  0  0  0  0
   11.5414  -15.9731   28.0682 C   0  0  0  0  0  0  0  0  0  0  0  0
   11.2882  -14.6131   28.0849 C   0  0  0  0  0  0  0  0  0  0  0  0
   10.8828  -13.9458   29.2331 C   0  0  0  0  0  0  0  0  0  0  0  0
   10.7223  -14.6524   30.4092 C   0  0  0  0  0  0  0  0  0  0  0  0
   10.9707  -16.0008   30.4037 C   0  0  0  0  0  0  0  0  0  0  0  0
   11.3731  -16.6533   29.2566 C   0  0  0  0  0  0  0  0  0  0  0  0
    9.8863  -17.9254   26.3279 C   0  0  0  0  0  0  0  0  0  0  0  0
    8.6857  -17.6851   26.6069 O   0  0  0  0  0  0  0  0  0  0  0  0
   10.2947  -19.2416   26.4875 O   0  0  0  0  0  0  0  0  0  0  0  0
  1  2  1  0
  3  2  1  0
  4  3  1  0
  4  5  1  0
  5  6  1  1
  5  1  1  0
  6  7  2  0
  9  8  1  0
 10  9  1  0
 10 11  1  1
 12 10  1  0
 13  6  1  0
 12 13  1  6
 14 12  1  0
 14 15  2  0
 16 14  1  0
 17 25  1  0
 17 16  1  0
 17 18  1  1
 19 20  2  0
 19 18  1  0
 21 20  1  0
 22 21  2  0
 23 22  1  0
 23 24  2  0
 24 19  1  0
 25 27  1  0
 26 25  2  0
M  END
$$$$
