PIF.pdb
     RDKit          3D

 27 28  0  0  1  0  0  0  0  0999 V2000
    8.8517  -15.3463   16.7155 N   0  0  0  0  0  0  0  0  0  0  0  0
    7.9182  -14.9861   15.6856 C   0  0  0  0  0  0  0  0  0  0  0  0
    7.5988  -13.5447   15.9760 C   0  0  0  0  0  0  0  0  0  0  0  0
    8.8836  -12.9857   16.5175 C   0  0  0  0  0  0  0  0  0  0  0  0
    9.6643  -14.1718   16.9754 C   0  0  1  0  0  0  0  0  0  0  0  0
    9.9793  -14.1478   18.4264 C   0  0  0  0  0  0  0  0  0  0  0  0
   10.9186  -13.4177   18.8934 O   0  0  0  0  0  0  0  0  0  0  0  0
    5.8217  -14.6252   21.7419 C   0  0  0  0  0  0  0  0  0  0  0  0
    7.1618  -14.1976   21.1896 C   0  0  0  0  0  0  0  0  0  0  0  0
    8.2566  -15.1489   21.4907 C   0  0  2  0  0  0  0  0  0  0  0  0
    8.4574  -15.1962   23.0141 C   0  0  0  0  0  0  0  0  0  0  0  0
    9.5983  -14.8251   20.8304 C   0  0  2  0  0  0  0  0  0  0  0  0
    9.2707  -14.9214   19.3811 N   0  0  0  0  0  0  0  0  0  0  0  0
   10.6644  -15.7723   21.1523 C   0  0  0  0  0  0  0  0  0  0  0  0
   10.4978  -16.9931   20.7944 O   0  0  0  0  0  0  0  0  0  0  0  0
   11.8537  -15.4167   21.8257 N   0  0  0  0  0  0  0  0  0  0  0  0
   12.8295  -16.4522   22.1386 C   0  0  1  0  0  0  0  0  0  0  0  0
   14.2047  -16.0542   21.6469 C   0  0  0  0  0  0  0  0  0  0  0  0
   14.2697  -15.8144   20.1956 C   0  0  0  0  0  0  0  0  0  0  0  0
   14.3551  -16.8558   19.2891 C   0  0  0  0  0  0  0  0  0  0  0  0
   14.4135  -16.6456   17.9178 C   0  0  0  0  0  0  0  0  0  0  0  0
   14.3862  -15.3549   17.4261 C   0  0  0  0  0  0  0  0  0  0  0  0
   14.3017  -14.3154   18.3161 C   0  0  0  0  0  0  0  0  0  0  0  0
   14.2443  -14.5363   19.6767 C   0  0  0  0  0  0  0  0  0  0  0  0
   12.8087  -16.7543   23.5802 C   0  0  0  0  0  0  0  0  0  0  0  0
   12.0746  -16.1657   24.4118 O   0  0  0  0  0  0  0  0  0  0  0  0
   13.6353  -17.7431   24.0935 O   0  0  0  0  0  0  0  0  0  0  0  0
  1  2  1  0
  3  2  1  0
  4  3  1  0
  4  5  1  0
  5  6  1  1
  5  1  1  0
  6  7  2  0
  9  8  1  0
 10  9  1  0
 10 11  1  1
 12 10  1  0
 13  6  1  0
 12 13  1  6
 14 12  1  0
 14 15  2  0
 16 14  1  0
 17 25  1  0
 17 16  1  0
 17 18  1  1
 19 20  2  0
 19 18  1  0
 21 20  1  0
 22 21  2  0
 23 22  1  0
 23 24  2  0
 24 19  1  0
 25 27  1  0
 26 25  2  0
M  END
$$$$
