YWF.pdb
     RDKit          3D

 38 41  0  0  1  0  0  0  0  0999 V2000
    3.2458  -23.3674   25.9806 O   0  0  0  0  0  0  0  0  0  0  0  0
    4.2417  -22.4671   25.5538 C   0  0  0  0  0  0  0  0  0  0  0  0
    3.8627  -21.2454   25.0394 C   0  0  0  0  0  0  0  0  0  0  0  0
    4.8515  -20.3556   24.6171 C   0  0  0  0  0  0  0  0  0  0  0  0
    6.1810  -20.7024   24.7172 C   0  0  0  0  0  0  0  0  0  0  0  0
    7.1974  -19.7309   24.2609 C   0  0  0  0  0  0  0  0  0  0  0  0
    6.9694  -19.3924   22.8011 C   0  0  2  0  0  0  0  0  0  0  0  0
    6.9822  -20.5520   21.9690 N   0  0  0  0  0  0  0  0  0  0  0  0
    7.9509  -18.3525   22.4101 C   0  0  0  0  0  0  0  0  0  0  0  0
    8.8402  -18.6069   21.5359 O   0  0  0  0  0  0  0  0  0  0  0  0
    6.5835  -21.9109   25.2252 C   0  0  0  0  0  0  0  0  0  0  0  0
    5.5652  -22.7744   25.6371 C   0  0  0  0  0  0  0  0  0  0  0  0
    7.9845  -17.0422   22.9503 N   0  0  0  0  0  0  0  0  0  0  0  0
    9.0281  -16.0651   22.5781 C   0  0  1  0  0  0  0  0  0  0  0  0
    8.4341  -14.6877   22.6078 C   0  0  0  0  0  0  0  0  0  0  0  0
    7.6809  -14.4546   23.8440 C   0  0  0  0  0  0  0  0  0  0  0  0
    6.7993  -15.3346   24.4853 C   0  0  0  0  0  0  0  0  0  0  0  0
    6.2829  -14.7462   25.5693 N   0  0  0  0  0  0  0  0  0  0  0  0
    6.7716  -13.5146   25.6908 C   0  0  0  0  0  0  0  0  0  0  0  0
    6.5382  -12.5241   26.6458 C   0  0  0  0  0  0  0  0  0  0  0  0
    7.2078  -11.3306   26.4957 C   0  0  0  0  0  0  0  0  0  0  0  0
    8.0860  -11.0878   25.4501 C   0  0  0  0  0  0  0  0  0  0  0  0
    8.2840  -12.1064   24.5255 C   0  0  0  0  0  0  0  0  0  0  0  0
    7.6371  -13.3075   24.6397 C   0  0  0  0  0  0  0  0  0  0  0  0
   10.1356  -16.2882   23.5165 C   0  0  0  0  0  0  0  0  0  0  0  0
   11.2130  -15.6184   23.3599 O   0  0  0  0  0  0  0  0  0  0  0  0
   10.0664  -17.2029   24.5898 N   0  0  0  0  0  0  0  0  0  0  0  0
   11.1871  -17.2114   25.5339 C   0  0  1  0  0  0  0  0  0  0  0  0
   10.6666  -17.6391   26.9056 C   0  0  0  0  0  0  0  0  0  0  0  0
    9.7079  -16.6213   27.3748 C   0  0  0  0  0  0  0  0  0  0  0  0
    8.8127  -16.9343   28.4008 C   0  0  0  0  0  0  0  0  0  0  0  0
    7.9407  -15.9833   28.8547 C   0  0  0  0  0  0  0  0  0  0  0  0
    7.8836  -14.6994   28.3538 C   0  0  0  0  0  0  0  0  0  0  0  0
    8.7622  -14.3895   27.3458 C   0  0  0  0  0  0  0  0  0  0  0  0
    9.6461  -15.3328   26.8770 C   0  0  0  0  0  0  0  0  0  0  0  0
   12.1864  -18.1627   25.0600 C   0  0  0  0  0  0  0  0  0  0  0  0
   13.3756  -18.3517   25.7286 O   0  0  0  0  0  0  0  0  0  0  0  0
   11.9845  -18.8347   24.0237 O   0  0  0  0  0  0  0  0  0  0  0  0
  2  1  1  0
  3  2  2  0
  4  3  1  0
  5  4  2  0
  5 11  1  0
  6  5  1  0
  7  8  1  6
  7  6  1  0
  9  7  1  0
 10  9  2  0
 11 12  2  0
 12  2  1  0
 13  9  1  0
 14 13  1  0
 14 25  1  0
 14 15  1  1
 16 15  1  0
 17 16  2  0
 18 17  1  0
 19 18  1  0
 19 24  2  0
 20 21  2  0
 20 19  1  0
 21 22  1  0
 22 23  2  0
 24 23  1  0
 24 16  1  0
 25 26  2  0
 27 25  1  0
 27 28  1  0
 28 29  1  1
 29 30  1  0
 30 35  2  0
 31 32  2  0
 31 30  1  0
 32 33  1  0
 33 34  2  0
 35 34  1  0
 36 37  1  0
 36 28  1  0
 38 36  2  0
M  END
$$$$
