YWF.pdb
     RDKit          3D

 38 41  0  0  1  0  0  0  0  0999 V2000
    7.8499  -14.2302   14.6114 O   0  0  0  0  0  0  0  0  0  0  0  0
    8.1366  -14.1799   15.9897 C   0  0  0  0  0  0  0  0  0  0  0  0
    8.6982  -15.2832   16.5966 C   0  0  0  0  0  0  0  0  0  0  0  0
    8.9809  -15.2306   17.9622 C   0  0  0  0  0  0  0  0  0  0  0  0
    8.6996  -14.0903   18.6822 C   0  0  0  0  0  0  0  0  0  0  0  0
    9.0163  -14.0742   20.1261 C   0  0  0  0  0  0  0  0  0  0  0  0
    9.6178  -15.4033   20.5374 C   0  0  2  0  0  0  0  0  0  0  0  0
    8.8837  -16.5123   20.0194 N   0  0  0  0  0  0  0  0  0  0  0  0
    9.7639  -15.4065   22.0127 C   0  0  0  0  0  0  0  0  0  0  0  0
   10.3825  -14.4604   22.5975 O   0  0  0  0  0  0  0  0  0  0  0  0
    8.1415  -12.9801   18.1020 C   0  0  0  0  0  0  0  0  0  0  0  0
    7.8729  -13.0710   16.7338 C   0  0  0  0  0  0  0  0  0  0  0  0
    9.2509  -16.4173   22.8641 N   0  0  0  0  0  0  0  0  0  0  0  0
    9.1906  -16.2535   24.3310 C   0  0  1  0  0  0  0  0  0  0  0  0
    7.7870  -16.5182   24.7902 C   0  0  0  0  0  0  0  0  0  0  0  0
    6.9142  -15.3671   24.5396 C   0  0  0  0  0  0  0  0  0  0  0  0
    5.9924  -15.2056   23.4970 C   0  0  0  0  0  0  0  0  0  0  0  0
    5.4108  -14.0052   23.5903 N   0  0  0  0  0  0  0  0  0  0  0  0
    5.8940  -13.3498   24.6427 C   0  0  0  0  0  0  0  0  0  0  0  0
    5.6037  -12.0813   25.1471 C   0  0  0  0  0  0  0  0  0  0  0  0
    6.2840  -11.6779   26.2738 C   0  0  0  0  0  0  0  0  0  0  0  0
    7.2262  -12.4737   26.9082 C   0  0  0  0  0  0  0  0  0  0  0  0
    7.4792  -13.7285   26.3666 C   0  0  0  0  0  0  0  0  0  0  0  0
    6.8237  -14.1663   25.2473 C   0  0  0  0  0  0  0  0  0  0  0  0
   10.2079  -17.1620   24.8755 C   0  0  0  0  0  0  0  0  0  0  0  0
   10.4364  -18.2605   24.2630 O   0  0  0  0  0  0  0  0  0  0  0  0
   10.9530  -16.8782   26.0407 N   0  0  0  0  0  0  0  0  0  0  0  0
   11.9180  -17.8898   26.4798 C   0  0  1  0  0  0  0  0  0  0  0  0
   12.8947  -17.2401   27.4593 C   0  0  0  0  0  0  0  0  0  0  0  0
   12.1381  -16.3121   28.3202 C   0  0  0  0  0  0  0  0  0  0  0  0
   11.8247  -15.0335   27.8523 C   0  0  0  0  0  0  0  0  0  0  0  0
   11.1005  -14.1810   28.6396 C   0  0  0  0  0  0  0  0  0  0  0  0
   10.6457  -14.5073   29.9002 C   0  0  0  0  0  0  0  0  0  0  0  0
   10.9523  -15.7631   30.3620 C   0  0  0  0  0  0  0  0  0  0  0  0
   11.6792  -16.6335   29.5843 C   0  0  0  0  0  0  0  0  0  0  0  0
   11.1916  -18.9687   27.1403 C   0  0  0  0  0  0  0  0  0  0  0  0
   11.8231  -20.1284   27.5321 O   0  0  0  0  0  0  0  0  0  0  0  0
    9.9653  -18.8649   27.3673 O   0  0  0  0  0  0  0  0  0  0  0  0
  2  1  1  0
  3  2  2  0
  4  3  1  0
  5  4  2  0
  5 11  1  0
  6  5  1  0
  7  8  1  1
  7  6  1  0
  9  7  1  0
 10  9  2  0
 11 12  2  0
 12  2  1  0
 13  9  1  0
 14 13  1  0
 14 25  1  0
 14 15  1  1
 16 15  1  0
 17 16  2  0
 18 17  1  0
 19 18  1  0
 19 24  2  0
 20 21  2  0
 20 19  1  0
 21 22  1  0
 22 23  2  0
 24 23  1  0
 24 16  1  0
 25 26  2  0
 27 25  1  0
 27 28  1  0
 28 29  1  1
 29 30  1  0
 30 35  2  0
 31 32  2  0
 31 30  1  0
 32 33  1  0
 33 34  2  0
 35 34  1  0
 36 37  1  0
 36 28  1  0
 38 36  2  0
M  END
$$$$
