YWF.pdb
     RDKit          3D

 38 41  0  0  1  0  0  0  0  0999 V2000
   17.5727  -15.7209   16.8783 O   0  0  0  0  0  0  0  0  0  0  0  0
   16.4246  -15.4368   17.6436 C   0  0  0  0  0  0  0  0  0  0  0  0
   15.9543  -14.1415   17.6883 C   0  0  0  0  0  0  0  0  0  0  0  0
   14.8168  -13.8631   18.4474 C   0  0  0  0  0  0  0  0  0  0  0  0
   14.1823  -14.8731   19.1367 C   0  0  0  0  0  0  0  0  0  0  0  0
   12.9793  -14.5371   19.9273 C   0  0  0  0  0  0  0  0  0  0  0  0
   12.1204  -15.7725   20.1106 C   0  0  2  0  0  0  0  0  0  0  0  0
   11.3602  -16.0805   18.9425 N   0  0  0  0  0  0  0  0  0  0  0  0
   11.3057  -15.5900   21.3357 C   0  0  0  0  0  0  0  0  0  0  0  0
   11.2518  -14.4536   21.9061 O   0  0  0  0  0  0  0  0  0  0  0  0
   14.6301  -16.1691   19.1081 C   0  0  0  0  0  0  0  0  0  0  0  0
   15.7709  -16.4084   18.3377 C   0  0  0  0  0  0  0  0  0  0  0  0
   10.5488  -16.6180   21.9522 N   0  0  0  0  0  0  0  0  0  0  0  0
    9.7183  -16.3728   23.1490 C   0  0  1  0  0  0  0  0  0  0  0  0
    8.3267  -16.8657   22.8817 C   0  0  0  0  0  0  0  0  0  0  0  0
    7.6871  -16.1080   21.8017 C   0  0  0  0  0  0  0  0  0  0  0  0
    7.0147  -16.6178   20.6833 C   0  0  0  0  0  0  0  0  0  0  0  0
    6.5987  -15.6106   19.9086 N   0  0  0  0  0  0  0  0  0  0  0  0
    6.9567  -14.4481   20.4481 C   0  0  0  0  0  0  0  0  0  0  0  0
    6.7540  -13.1355   20.0194 C   0  0  0  0  0  0  0  0  0  0  0  0
    7.2541  -12.1271   20.8119 C   0  0  0  0  0  0  0  0  0  0  0  0
    7.9367  -12.3691   21.9947 C   0  0  0  0  0  0  0  0  0  0  0  0
    8.1122  -13.6936   22.3777 C   0  0  0  0  0  0  0  0  0  0  0  0
    7.6300  -14.7247   21.6172 C   0  0  0  0  0  0  0  0  0  0  0  0
   10.4137  -17.0365   24.2593 C   0  0  0  0  0  0  0  0  0  0  0  0
   11.1451  -18.0527   24.0015 O   0  0  0  0  0  0  0  0  0  0  0  0
   10.3201  -16.6023   25.5995 N   0  0  0  0  0  0  0  0  0  0  0  0
   11.1158  -17.3270   26.5939 C   0  0  1  0  0  0  0  0  0  0  0  0
   11.7676  -16.3117   27.5318 C   0  0  0  0  0  0  0  0  0  0  0  0
   10.7575  -15.2992   27.8918 C   0  0  0  0  0  0  0  0  0  0  0  0
   10.4658  -15.0600   29.2370 C   0  0  0  0  0  0  0  0  0  0  0  0
    9.5482  -14.1030   29.5731 C   0  0  0  0  0  0  0  0  0  0  0  0
    8.8719  -13.3360   28.6475 C   0  0  0  0  0  0  0  0  0  0  0  0
    9.1569  -13.5691   27.3251 C   0  0  0  0  0  0  0  0  0  0  0  0
   10.0767  -14.5271   26.9686 C   0  0  0  0  0  0  0  0  0  0  0  0
   10.2284  -18.2057   27.3479 C   0  0  0  0  0  0  0  0  0  0  0  0
   10.7070  -19.0387   28.3349 O   0  0  0  0  0  0  0  0  0  0  0  0
    8.9994  -18.2239   27.1120 O   0  0  0  0  0  0  0  0  0  0  0  0
  2  1  1  0
  3  2  2  0
  4  3  1  0
  5  4  2  0
  5 11  1  0
  6  5  1  0
  7  8  1  6
  7  6  1  0
  9  7  1  0
 10  9  2  0
 11 12  2  0
 12  2  1  0
 13  9  1  0
 14 13  1  0
 14 25  1  0
 14 15  1  6
 16 15  1  0
 17 16  2  0
 18 17  1  0
 19 18  1  0
 19 24  2  0
 20 21  2  0
 20 19  1  0
 21 22  1  0
 22 23  2  0
 24 23  1  0
 24 16  1  0
 25 26  2  0
 27 25  1  0
 27 28  1  0
 28 29  1  1
 29 30  1  0
 30 35  2  0
 31 32  2  0
 31 30  1  0
 32 33  1  0
 33 34  2  0
 35 34  1  0
 36 37  1  0
 36 28  1  0
 38 36  2  0
M  END
$$$$
