YWF.pdb
     RDKit          3D

 38 41  0  0  1  0  0  0  0  0999 V2000
   14.3912  -17.7954   15.3314 O   0  0  0  0  0  0  0  0  0  0  0  0
   13.4232  -17.5229   16.3179 C   0  0  0  0  0  0  0  0  0  0  0  0
   13.6182  -18.0011   17.5962 C   0  0  0  0  0  0  0  0  0  0  0  0
   12.6574  -17.7298   18.5714 C   0  0  0  0  0  0  0  0  0  0  0  0
   11.5367  -16.9953   18.2512 C   0  0  0  0  0  0  0  0  0  0  0  0
   10.5439  -16.7279   19.3134 C   0  0  0  0  0  0  0  0  0  0  0  0
   10.9658  -17.4123   20.5983 C   0  0  2  0  0  0  0  0  0  0  0  0
   10.5263  -18.7691   20.6575 N   0  0  0  0  0  0  0  0  0  0  0  0
   10.5134  -16.5764   21.7360 C   0  0  0  0  0  0  0  0  0  0  0  0
   10.9795  -15.4027   21.8940 O   0  0  0  0  0  0  0  0  0  0  0  0
   11.3199  -16.5085   16.9876 C   0  0  0  0  0  0  0  0  0  0  0  0
   12.3035  -16.8007   16.0391 C   0  0  0  0  0  0  0  0  0  0  0  0
    9.5649  -16.9911   22.7046 N   0  0  0  0  0  0  0  0  0  0  0  0
    9.1094  -16.0995   23.7908 C   0  0  1  0  0  0  0  0  0  0  0  0
    7.6135  -16.1709   23.8803 C   0  0  0  0  0  0  0  0  0  0  0  0
    6.9822  -15.8228   22.6035 C   0  0  0  0  0  0  0  0  0  0  0  0
    6.1838  -16.6420   21.7946 C   0  0  0  0  0  0  0  0  0  0  0  0
    5.8217  -15.9746   20.6940 N   0  0  0  0  0  0  0  0  0  0  0  0
    6.3356  -14.7475   20.7203 C   0  0  0  0  0  0  0  0  0  0  0  0
    6.2412  -13.6926   19.8114 C   0  0  0  0  0  0  0  0  0  0  0  0
    6.8977  -12.5247   20.1276 C   0  0  0  0  0  0  0  0  0  0  0  0
    7.6325  -12.3675   21.2934 C   0  0  0  0  0  0  0  0  0  0  0  0
    7.6956  -13.4477   22.1657 C   0  0  0  0  0  0  0  0  0  0  0  0
    7.0566  -14.6260   21.8874 C   0  0  0  0  0  0  0  0  0  0  0  0
    9.8289  -16.5375   24.9938 C   0  0  0  0  0  0  0  0  0  0  0  0
   11.0788  -16.7884   24.9004 O   0  0  0  0  0  0  0  0  0  0  0  0
    9.2084  -16.6887   26.2530 N   0  0  0  0  0  0  0  0  0  0  0  0
   10.0837  -16.9114   27.4069 C   0  0  1  0  0  0  0  0  0  0  0  0
    9.6345  -15.9952   28.5446 C   0  0  0  0  0  0  0  0  0  0  0  0
    9.4207  -14.6440   27.9936 C   0  0  0  0  0  0  0  0  0  0  0  0
   10.4819  -13.7360   27.9557 C   0  0  0  0  0  0  0  0  0  0  0  0
   10.2918  -12.4914   27.4211 C   0  0  0  0  0  0  0  0  0  0  0  0
    9.0891  -12.0596   26.9021 C   0  0  0  0  0  0  0  0  0  0  0  0
    8.0450  -12.9500   26.9381 C   0  0  0  0  0  0  0  0  0  0  0  0
    8.2178  -14.2056   27.4716 C   0  0  0  0  0  0  0  0  0  0  0  0
    9.9686  -18.3073   27.8146 C   0  0  0  0  0  0  0  0  0  0  0  0
    9.1008  -19.1726   27.1858 O   0  0  0  0  0  0  0  0  0  0  0  0
   10.6618  -18.7550   28.7556 O   0  0  0  0  0  0  0  0  0  0  0  0
  2  1  1  0
  3  2  2  0
  4  3  1  0
  5  4  2  0
  5 11  1  0
  6  5  1  0
  7  8  1  1
  7  6  1  0
  9  7  1  0
 10  9  2  0
 11 12  2  0
 12  2  1  0
 13  9  1  0
 14 13  1  0
 14 25  1  0
 14 15  1  1
 16 15  1  0
 17 16  2  0
 18 17  1  0
 19 18  1  0
 19 24  2  0
 20 21  2  0
 20 19  1  0
 21 22  1  0
 22 23  2  0
 24 23  1  0
 24 16  1  0
 25 26  2  0
 27 25  1  0
 27 28  1  0
 28 29  1  1
 29 30  1  0
 30 35  2  0
 31 32  2  0
 31 30  1  0
 32 33  1  0
 33 34  2  0
 35 34  1  0
 36 37  1  0
 36 28  1  0
 38 36  2  0
M  END
$$$$
