YWF.pdb
     RDKit          3D

 38 41  0  0  1  0  0  0  0  0999 V2000
    7.1258  -14.4320   14.7357 O   0  0  0  0  0  0  0  0  0  0  0  0
    7.5202  -14.3864   16.0873 C   0  0  0  0  0  0  0  0  0  0  0  0
    6.8499  -13.5470   16.9515 C   0  0  0  0  0  0  0  0  0  0  0  0
    7.2429  -13.5038   18.2900 C   0  0  0  0  0  0  0  0  0  0  0  0
    8.2845  -14.2910   18.7295 C   0  0  0  0  0  0  0  0  0  0  0  0
    8.6685  -14.2176   20.1552 C   0  0  0  0  0  0  0  0  0  0  0  0
    9.2671  -15.5382   20.5972 C   0  0  2  0  0  0  0  0  0  0  0  0
    8.4394  -16.6490   20.2531 N   0  0  0  0  0  0  0  0  0  0  0  0
    9.5836  -15.4403   22.0422 C   0  0  0  0  0  0  0  0  0  0  0  0
   10.3121  -14.4911   22.4758 O   0  0  0  0  0  0  0  0  0  0  0  0
    8.9667  -15.1340   17.8901 C   0  0  0  0  0  0  0  0  0  0  0  0
    8.5444  -15.1494   16.5582 C   0  0  0  0  0  0  0  0  0  0  0  0
    9.1238  -16.3534   23.0244 N   0  0  0  0  0  0  0  0  0  0  0  0
    9.3152  -16.1155   24.4697 C   0  0  1  0  0  0  0  0  0  0  0  0
    8.1435  -16.6857   25.2133 C   0  0  0  0  0  0  0  0  0  0  0  0
    7.0908  -15.6835   25.4060 C   0  0  0  0  0  0  0  0  0  0  0  0
    5.7241  -15.9102   25.6147 C   0  0  0  0  0  0  0  0  0  0  0  0
    5.0824  -14.7413   25.7133 N   0  0  0  0  0  0  0  0  0  0  0  0
    5.9471  -13.7387   25.5816 C   0  0  0  0  0  0  0  0  0  0  0  0
    5.7613  -12.3558   25.6107 C   0  0  0  0  0  0  0  0  0  0  0  0
    6.8748  -11.5644   25.4410 C   0  0  0  0  0  0  0  0  0  0  0  0
    8.1451  -12.0860   25.2467 C   0  0  0  0  0  0  0  0  0  0  0  0
    8.2772  -13.4694   25.2257 C   0  0  0  0  0  0  0  0  0  0  0  0
    7.1944  -14.2907   25.3908 C   0  0  0  0  0  0  0  0  0  0  0  0
   10.6160  -16.7104   24.8026 C   0  0  0  0  0  0  0  0  0  0  0  0
   11.4071  -17.0223   23.8482 O   0  0  0  0  0  0  0  0  0  0  0  0
   11.0401  -16.9488   26.1280 N   0  0  0  0  0  0  0  0  0  0  0  0
   12.3578  -17.5642   26.3076 C   0  0  1  0  0  0  0  0  0  0  0  0
   12.8630  -17.2350   27.7118 C   0  0  0  0  0  0  0  0  0  0  0  0
   12.0193  -16.1604   28.2672 C   0  0  0  0  0  0  0  0  0  0  0  0
   12.1764  -14.8501   27.8087 C   0  0  0  0  0  0  0  0  0  0  0  0
   11.3767  -13.8570   28.3040 C   0  0  0  0  0  0  0  0  0  0  0  0
   10.3977  -14.0676   29.2525 C   0  0  0  0  0  0  0  0  0  0  0  0
   10.2414  -15.3542   29.7043 C   0  0  0  0  0  0  0  0  0  0  0  0
   11.0362  -16.3653   29.2176 C   0  0  0  0  0  0  0  0  0  0  0  0
   12.2212  -19.0081   26.1516 C   0  0  0  0  0  0  0  0  0  0  0  0
   13.3167  -19.8426   26.1771 O   0  0  0  0  0  0  0  0  0  0  0  0
   11.0941  -19.5270   25.9880 O   0  0  0  0  0  0  0  0  0  0  0  0
  2  1  1  0
  3  2  2  0
  4  3  1  0
  5  4  2  0
  5 11  1  0
  6  5  1  0
  7  8  1  1
  7  6  1  0
  9  7  1  0
 10  9  2  0
 11 12  2  0
 12  2  1  0
 13  9  1  0
 14 13  1  0
 14 25  1  0
 14 15  1  1
 16 15  1  0
 17 16  2  0
 18 17  1  0
 19 18  1  0
 19 24  2  0
 20 21  2  0
 20 19  1  0
 21 22  1  0
 22 23  2  0
 24 23  1  0
 24 16  1  0
 25 26  2  0
 27 25  1  0
 27 28  1  0
 28 29  1  1
 29 30  1  0
 30 35  2  0
 31 32  2  0
 31 30  1  0
 32 33  1  0
 33 34  2  0
 35 34  1  0
 36 37  1  0
 36 28  1  0
 38 36  2  0
M  END
$$$$
