YWF.pdb
     RDKit          3D

 38 41  0  0  1  0  0  0  0  0999 V2000
    8.7840  -14.7133   13.8468 O   0  0  0  0  0  0  0  0  0  0  0  0
    8.6992  -14.5233   15.2400 C   0  0  0  0  0  0  0  0  0  0  0  0
    9.5887  -15.1843   16.0604 C   0  0  0  0  0  0  0  0  0  0  0  0
    9.5021  -14.9944   17.4403 C   0  0  0  0  0  0  0  0  0  0  0  0
    8.5403  -14.1583   17.9634 C   0  0  0  0  0  0  0  0  0  0  0  0
    8.4834  -13.9824   19.4300 C   0  0  0  0  0  0  0  0  0  0  0  0
    8.1735  -15.3077   20.0971 C   0  0  2  0  0  0  0  0  0  0  0  0
    6.8875  -15.8086   19.7328 N   0  0  0  0  0  0  0  0  0  0  0  0
    8.3718  -15.1464   21.5574 C   0  0  0  0  0  0  0  0  0  0  0  0
    8.1154  -14.0340   22.1200 O   0  0  0  0  0  0  0  0  0  0  0  0
    7.6445  -13.4896   17.1689 C   0  0  0  0  0  0  0  0  0  0  0  0
    7.7626  -13.7052   15.7934 C   0  0  0  0  0  0  0  0  0  0  0  0
    8.8430  -16.1701   22.4176 N   0  0  0  0  0  0  0  0  0  0  0  0
    9.0583  -15.9462   23.8618 C   0  0  1  0  0  0  0  0  0  0  0  0
    8.0152  -16.7031   24.6297 C   0  0  0  0  0  0  0  0  0  0  0  0
    6.9910  -15.8051   25.1722 C   0  0  0  0  0  0  0  0  0  0  0  0
    5.6603  -16.1156   25.4811 C   0  0  0  0  0  0  0  0  0  0  0  0
    5.0321  -15.0212   25.9234 N   0  0  0  0  0  0  0  0  0  0  0  0
    5.8721  -13.9892   25.9281 C   0  0  0  0  0  0  0  0  0  0  0  0
    5.6876  -12.6566   26.2996 C   0  0  0  0  0  0  0  0  0  0  0  0
    6.7703  -11.8137   26.1894 C   0  0  0  0  0  0  0  0  0  0  0  0
    8.0091  -12.2372   25.7316 C   0  0  0  0  0  0  0  0  0  0  0  0
    8.1412  -13.5738   25.3741 C   0  0  0  0  0  0  0  0  0  0  0  0
    7.0884  -14.4438   25.4693 C   0  0  0  0  0  0  0  0  0  0  0  0
   10.4451  -16.3515   24.1253 C   0  0  0  0  0  0  0  0  0  0  0  0
   11.0897  -16.9585   23.2033 O   0  0  0  0  0  0  0  0  0  0  0  0
   11.1055  -16.0969   25.3470 N   0  0  0  0  0  0  0  0  0  0  0  0
   12.4668  -16.6195   25.4923 C   0  0  1  0  0  0  0  0  0  0  0  0
   13.1776  -15.8311   26.5917 C   0  0  0  0  0  0  0  0  0  0  0  0
   12.2052  -15.5548   27.6656 C   0  0  0  0  0  0  0  0  0  0  0  0
   11.4299  -14.3937   27.6155 C   0  0  0  0  0  0  0  0  0  0  0  0
   10.5092  -14.1491   28.5971 C   0  0  0  0  0  0  0  0  0  0  0  0
   10.2881  -14.9954   29.6636 C   0  0  0  0  0  0  0  0  0  0  0  0
   11.0486  -16.1369   29.7149 C   0  0  0  0  0  0  0  0  0  0  0  0
   11.9788  -16.3993   28.7368 C   0  0  0  0  0  0  0  0  0  0  0  0
   12.3864  -18.0287   25.8606 C   0  0  0  0  0  0  0  0  0  0  0  0
   13.5114  -18.8203   25.9320 O   0  0  0  0  0  0  0  0  0  0  0  0
   11.2821  -18.5566   26.1215 O   0  0  0  0  0  0  0  0  0  0  0  0
  2  1  1  0
  3  2  2  0
  4  3  1  0
  5  4  2  0
  5 11  1  0
  6  5  1  0
  7  8  1  1
  7  6  1  0
  9  7  1  0
 10  9  2  0
 11 12  2  0
 12  2  1  0
 13  9  1  0
 14 13  1  0
 14 25  1  0
 14 15  1  1
 16 15  1  0
 17 16  2  0
 18 17  1  0
 19 18  1  0
 19 24  2  0
 20 21  2  0
 20 19  1  0
 21 22  1  0
 22 23  2  0
 24 23  1  0
 24 16  1  0
 25 26  2  0
 27 25  1  0
 27 28  1  0
 28 29  1  1
 29 30  1  0
 30 35  2  0
 31 32  2  0
 31 30  1  0
 32 33  1  0
 33 34  2  0
 35 34  1  0
 36 37  1  0
 36 28  1  0
 38 36  2  0
M  END
$$$$
