YWF.pdb
     RDKit          3D

 38 41  0  0  1  0  0  0  0  0999 V2000
   13.8797  -21.2779   15.5464 O   0  0  0  0  0  0  0  0  0  0  0  0
   13.4549  -20.5021   16.6428 C   0  0  0  0  0  0  0  0  0  0  0  0
   14.1091  -19.3204   16.9194 C   0  0  0  0  0  0  0  0  0  0  0  0
   13.6862  -18.5542   18.0065 C   0  0  0  0  0  0  0  0  0  0  0  0
   12.6316  -18.9807   18.7835 C   0  0  0  0  0  0  0  0  0  0  0  0
   12.2132  -18.1390   19.9245 C   0  0  0  0  0  0  0  0  0  0  0  0
   10.8538  -17.5295   19.6449 C   0  0  2  0  0  0  0  0  0  0  0  0
   10.8497  -16.7397   18.4560 N   0  0  0  0  0  0  0  0  0  0  0  0
   10.4163  -16.8014   20.8600 C   0  0  0  0  0  0  0  0  0  0  0  0
   10.8111  -15.6099   21.0701 O   0  0  0  0  0  0  0  0  0  0  0  0
   11.9647  -20.1517   18.5291 C   0  0  0  0  0  0  0  0  0  0  0  0
   12.4170  -20.8910   17.4331 C   0  0  0  0  0  0  0  0  0  0  0  0
    9.5584  -17.3429   21.8503 N   0  0  0  0  0  0  0  0  0  0  0  0
    9.1551  -16.5750   23.0460 C   0  0  1  0  0  0  0  0  0  0  0  0
    7.6574  -16.5691   23.1349 C   0  0  0  0  0  0  0  0  0  0  0  0
    7.1966  -15.9686   24.3906 C   0  0  0  0  0  0  0  0  0  0  0  0
    6.6130  -16.6203   25.4849 C   0  0  0  0  0  0  0  0  0  0  0  0
    6.2985  -15.7261   26.4279 N   0  0  0  0  0  0  0  0  0  0  0  0
    6.6406  -14.5051   26.0246 C   0  0  0  0  0  0  0  0  0  0  0  0
    6.5166  -13.2632   26.6492 C   0  0  0  0  0  0  0  0  0  0  0  0
    6.9730  -12.1612   25.9618 C   0  0  0  0  0  0  0  0  0  0  0  0
    7.5386  -12.2447   24.6983 C   0  0  0  0  0  0  0  0  0  0  0  0
    7.6394  -13.5044   24.1196 C   0  0  0  0  0  0  0  0  0  0  0  0
    7.1973  -14.6246   24.7706 C   0  0  0  0  0  0  0  0  0  0  0  0
    9.8456  -17.2075   24.1773 C   0  0  0  0  0  0  0  0  0  0  0  0
    9.8257  -18.4823   24.2696 O   0  0  0  0  0  0  0  0  0  0  0  0
   10.5382  -16.4759   25.1666 N   0  0  0  0  0  0  0  0  0  0  0  0
   11.3500  -17.2403   26.1174 C   0  0  1  0  0  0  0  0  0  0  0  0
   12.3188  -16.2837   26.8116 C   0  0  0  0  0  0  0  0  0  0  0  0
   11.5297  -15.2501   27.5073 C   0  0  0  0  0  0  0  0  0  0  0  0
   11.4290  -13.9695   26.9579 C   0  0  0  0  0  0  0  0  0  0  0  0
   10.6761  -13.0174   27.5885 C   0  0  0  0  0  0  0  0  0  0  0  0
    9.9899  -13.2423   28.7637 C   0  0  0  0  0  0  0  0  0  0  0  0
   10.0872  -14.4998   29.3053 C   0  0  0  0  0  0  0  0  0  0  0  0
   10.8394  -15.4696   28.6851 C   0  0  0  0  0  0  0  0  0  0  0  0
   10.4618  -17.8519   27.0998 C   0  0  0  0  0  0  0  0  0  0  0  0
   10.9204  -18.7837   28.0045 O   0  0  0  0  0  0  0  0  0  0  0  0
    9.2501  -17.5417   27.1427 O   0  0  0  0  0  0  0  0  0  0  0  0
  2  1  1  0
  3  2  2  0
  4  3  1  0
  5  4  2  0
  5 11  1  0
  6  5  1  0
  7  8  1  6
  7  6  1  0
  9  7  1  0
 10  9  2  0
 11 12  2  0
 12  2  1  0
 13  9  1  0
 14 13  1  0
 14 25  1  0
 14 15  1  1
 16 15  1  0
 17 16  2  0
 18 17  1  0
 19 18  1  0
 19 24  2  0
 20 21  2  0
 20 19  1  0
 21 22  1  0
 22 23  2  0
 24 23  1  0
 24 16  1  0
 25 26  2  0
 27 25  1  0
 27 28  1  0
 28 29  1  1
 29 30  1  0
 30 35  2  0
 31 32  2  0
 31 30  1  0
 32 33  1  0
 33 34  2  0
 35 34  1  0
 36 37  1  0
 36 28  1  0
 38 36  2  0
M  END
$$$$
