YWF.pdb
     RDKit          3D

 38 41  0  0  1  0  0  0  0  0999 V2000
   10.7658  -24.9000   20.3121 O   0  0  0  0  0  0  0  0  0  0  0  0
   10.7350  -23.5848   20.8159 C   0  0  0  0  0  0  0  0  0  0  0  0
   10.8508  -23.3865   22.1754 C   0  0  0  0  0  0  0  0  0  0  0  0
   10.8197  -22.0824   22.6716 C   0  0  0  0  0  0  0  0  0  0  0  0
   10.6754  -21.0184   21.8085 C   0  0  0  0  0  0  0  0  0  0  0  0
   10.6494  -19.6528   22.3739 C   0  0  0  0  0  0  0  0  0  0  0  0
   10.3392  -18.6480   21.2823 C   0  0  2  0  0  0  0  0  0  0  0  0
   11.2392  -18.7530   20.1793 N   0  0  0  0  0  0  0  0  0  0  0  0
   10.2861  -17.3003   21.8976 C   0  0  0  0  0  0  0  0  0  0  0  0
   11.3052  -16.5389   21.8618 O   0  0  0  0  0  0  0  0  0  0  0  0
   10.5585  -21.1893   20.4528 C   0  0  0  0  0  0  0  0  0  0  0  0
   10.5939  -22.5087   19.9942 C   0  0  0  0  0  0  0  0  0  0  0  0
    9.1475  -16.7644   22.5505 N   0  0  0  0  0  0  0  0  0  0  0  0
    9.1100  -15.3754   23.0519 C   0  0  1  0  0  0  0  0  0  0  0  0
    7.7494  -14.8016   22.7865 C   0  0  0  0  0  0  0  0  0  0  0  0
    7.4234  -14.8322   21.3574 C   0  0  0  0  0  0  0  0  0  0  0  0
    6.6951  -15.8110   20.6686 C   0  0  0  0  0  0  0  0  0  0  0  0
    6.6387  -15.5010   19.3691 N   0  0  0  0  0  0  0  0  0  0  0  0
    7.2919  -14.3632   19.1474 C   0  0  0  0  0  0  0  0  0  0  0  0
    7.5093  -13.6431   17.9719 C   0  0  0  0  0  0  0  0  0  0  0  0
    8.2385  -12.4795   18.0687 C   0  0  0  0  0  0  0  0  0  0  0  0
    8.7515  -12.0117   19.2693 C   0  0  0  0  0  0  0  0  0  0  0  0
    8.5073  -12.7652   20.4114 C   0  0  0  0  0  0  0  0  0  0  0  0
    7.7867  -13.9279   20.3568 C   0  0  0  0  0  0  0  0  0  0  0  0
    9.4900  -15.4528   24.4683 C   0  0  0  0  0  0  0  0  0  0  0  0
   10.1691  -14.4939   24.9717 O   0  0  0  0  0  0  0  0  0  0  0  0
    9.1355  -16.5331   25.3055 N   0  0  0  0  0  0  0  0  0  0  0  0
    9.4521  -16.4060   26.7306 C   0  0  1  0  0  0  0  0  0  0  0  0
    8.1518  -16.1802   27.5012 C   0  0  0  0  0  0  0  0  0  0  0  0
    7.7474  -14.7730   27.3243 C   0  0  0  0  0  0  0  0  0  0  0  0
    8.5904  -13.7498   27.7651 C   0  0  0  0  0  0  0  0  0  0  0  0
    8.2285  -12.4440   27.5781 C   0  0  0  0  0  0  0  0  0  0  0  0
    7.0542  -12.0579   26.9663 C   0  0  0  0  0  0  0  0  0  0  0  0
    6.2244  -13.0614   26.5322 C   0  0  0  0  0  0  0  0  0  0  0  0
    6.5719  -14.3797   26.7115 C   0  0  0  0  0  0  0  0  0  0  0  0
   10.0892  -17.6401   27.1767 C   0  0  0  0  0  0  0  0  0  0  0  0
   10.5275  -17.7972   28.4730 O   0  0  0  0  0  0  0  0  0  0  0  0
   10.2550  -18.5938   26.3834 O   0  0  0  0  0  0  0  0  0  0  0  0
  2  1  1  0
  3  2  2  0
  4  3  1  0
  5  4  2  0
  5 11  1  0
  6  5  1  0
  7  8  1  6
  7  6  1  0
  9  7  1  0
 10  9  2  0
 11 12  2  0
 12  2  1  0
 13  9  1  0
 14 13  1  0
 14 25  1  0
 14 15  1  1
 16 15  1  0
 17 16  2  0
 18 17  1  0
 19 18  1  0
 19 24  2  0
 20 21  2  0
 20 19  1  0
 21 22  1  0
 22 23  2  0
 24 23  1  0
 24 16  1  0
 25 26  2  0
 27 25  1  0
 27 28  1  0
 28 29  1  1
 29 30  1  0
 30 35  2  0
 31 32  2  0
 31 30  1  0
 32 33  1  0
 33 34  2  0
 35 34  1  0
 36 37  1  0
 36 28  1  0
 38 36  2  0
M  END
$$$$
