YWF.pdb
     RDKit          3D

 38 41  0  0  1  0  0  0  0  0999 V2000
   13.5627  -21.3956   15.7465 O   0  0  0  0  0  0  0  0  0  0  0  0
   12.8544  -20.3719   16.4059 C   0  0  0  0  0  0  0  0  0  0  0  0
   13.1595  -19.0576   16.1221 C   0  0  0  0  0  0  0  0  0  0  0  0
   12.4563  -18.0456   16.7771 C   0  0  0  0  0  0  0  0  0  0  0  0
   11.4756  -18.3657   17.6901 C   0  0  0  0  0  0  0  0  0  0  0  0
   10.7525  -17.2644   18.3606 C   0  0  0  0  0  0  0  0  0  0  0  0
    9.6537  -17.8280   19.2395 C   0  0  2  0  0  0  0  0  0  0  0  0
    8.4766  -18.1448   18.4970 N   0  0  0  0  0  0  0  0  0  0  0  0
    9.4299  -16.8840   20.3604 C   0  0  0  0  0  0  0  0  0  0  0  0
    8.7277  -15.8370   20.1860 O   0  0  0  0  0  0  0  0  0  0  0  0
   11.1534  -19.6646   17.9896 C   0  0  0  0  0  0  0  0  0  0  0  0
   11.8789  -20.6493   17.3140 C   0  0  0  0  0  0  0  0  0  0  0  0
    9.9540  -17.0558   21.6664 N   0  0  0  0  0  0  0  0  0  0  0  0
    9.4155  -16.3251   22.8319 C   0  0  1  0  0  0  0  0  0  0  0  0
    7.9360  -16.5611   22.9097 C   0  0  0  0  0  0  0  0  0  0  0  0
    7.3458  -15.8897   24.0718 C   0  0  0  0  0  0  0  0  0  0  0  0
    6.7041  -16.4840   25.1663 C   0  0  0  0  0  0  0  0  0  0  0  0
    6.2720  -15.5369   26.0054 N   0  0  0  0  0  0  0  0  0  0  0  0
    6.5898  -14.3347   25.5318 C   0  0  0  0  0  0  0  0  0  0  0  0
    6.3576  -13.0562   26.0410 C   0  0  0  0  0  0  0  0  0  0  0  0
    6.8181  -11.9886   25.3039 C   0  0  0  0  0  0  0  0  0  0  0  0
    7.4896  -12.1404   24.0999 C   0  0  0  0  0  0  0  0  0  0  0  0
    7.6957  -13.4342   23.6359 C   0  0  0  0  0  0  0  0  0  0  0  0
    7.2532  -14.5220   24.3395 C   0  0  0  0  0  0  0  0  0  0  0  0
   10.1855  -16.7987   23.9894 C   0  0  0  0  0  0  0  0  0  0  0  0
   10.2974  -18.0586   24.1744 O   0  0  0  0  0  0  0  0  0  0  0  0
   10.8157  -15.9293   24.9062 N   0  0  0  0  0  0  0  0  0  0  0  0
   11.7483  -16.5298   25.8637 C   0  0  1  0  0  0  0  0  0  0  0  0
   12.2683  -15.4330   26.7922 C   0  0  0  0  0  0  0  0  0  0  0  0
   11.1475  -14.9648   27.6287 C   0  0  0  0  0  0  0  0  0  0  0  0
   10.4559  -13.8042   27.2729 C   0  0  0  0  0  0  0  0  0  0  0  0
    9.3996  -13.3833   28.0332 C   0  0  0  0  0  0  0  0  0  0  0  0
    8.9583  -14.0459   29.1595 C   0  0  0  0  0  0  0  0  0  0  0  0
    9.6361  -15.1866   29.5109 C   0  0  0  0  0  0  0  0  0  0  0  0
   10.7003  -15.6249   28.7583 C   0  0  0  0  0  0  0  0  0  0  0  0
   11.0344  -17.5409   26.6358 C   0  0  0  0  0  0  0  0  0  0  0  0
    9.6829  -17.7509   26.4728 O   0  0  0  0  0  0  0  0  0  0  0  0
   11.6394  -18.2470   27.4734 O   0  0  0  0  0  0  0  0  0  0  0  0
  2  1  1  0
  3  2  2  0
  4  3  1  0
  5  4  2  0
  5 11  1  0
  6  5  1  0
  7  8  1  6
  7  6  1  0
  9  7  1  0
 10  9  2  0
 11 12  2  0
 12  2  1  0
 13  9  1  0
 14 13  1  0
 14 25  1  0
 14 15  1  1
 16 15  1  0
 17 16  2  0
 18 17  1  0
 19 18  1  0
 19 24  2  0
 20 21  2  0
 20 19  1  0
 21 22  1  0
 22 23  2  0
 24 23  1  0
 24 16  1  0
 25 26  2  0
 27 25  1  0
 27 28  1  0
 28 29  1  1
 29 30  1  0
 30 35  2  0
 31 32  2  0
 31 30  1  0
 32 33  1  0
 33 34  2  0
 35 34  1  0
 36 37  1  0
 36 28  1  0
 38 36  2  0
M  END
$$$$
