YWF.pdb
     RDKit          3D

 38 41  0  0  1  0  0  0  0  0999 V2000
    7.9605  -13.8861   14.7817 O   0  0  0  0  0  0  0  0  0  0  0  0
    8.1303  -13.9050   16.1800 C   0  0  0  0  0  0  0  0  0  0  0  0
    8.5877  -15.0577   16.7826 C   0  0  0  0  0  0  0  0  0  0  0  0
    8.7547  -15.0735   18.1681 C   0  0  0  0  0  0  0  0  0  0  0  0
    8.4646  -13.9506   18.9115 C   0  0  0  0  0  0  0  0  0  0  0  0
    8.6571  -14.0078   20.3761 C   0  0  0  0  0  0  0  0  0  0  0  0
    9.2475  -15.3479   20.7672 C   0  0  2  0  0  0  0  0  0  0  0  0
    8.4516  -16.4424   20.3134 N   0  0  0  0  0  0  0  0  0  0  0  0
    9.4883  -15.3365   22.2300 C   0  0  0  0  0  0  0  0  0  0  0  0
   10.2121  -14.4298   22.7533 O   0  0  0  0  0  0  0  0  0  0  0  0
    8.0087  -12.7923   18.3361 C   0  0  0  0  0  0  0  0  0  0  0  0
    7.8542  -12.8152   16.9476 C   0  0  0  0  0  0  0  0  0  0  0  0
    8.9578  -16.2906   23.1344 N   0  0  0  0  0  0  0  0  0  0  0  0
    9.1134  -16.1582   24.5975 C   0  0  1  0  0  0  0  0  0  0  0  0
    7.8546  -16.6312   25.2628 C   0  0  0  0  0  0  0  0  0  0  0  0
    6.8317  -15.5811   25.2840 C   0  0  0  0  0  0  0  0  0  0  0  0
    5.4740  -15.7051   24.9610 C   0  0  0  0  0  0  0  0  0  0  0  0
    4.8732  -14.5157   25.0707 N   0  0  0  0  0  0  0  0  0  0  0  0
    5.7570  -13.5966   25.4511 C   0  0  0  0  0  0  0  0  0  0  0  0
    5.6130  -12.2304   25.6969 C   0  0  0  0  0  0  0  0  0  0  0  0
    6.7365  -11.5357   26.0844 C   0  0  0  0  0  0  0  0  0  0  0  0
    7.9773  -12.1368   26.2345 C   0  0  0  0  0  0  0  0  0  0  0  0
    8.0681  -13.4997   25.9776 C   0  0  0  0  0  0  0  0  0  0  0  0
    6.9741  -14.2258   25.5903 C   0  0  0  0  0  0  0  0  0  0  0  0
   10.3238  -16.9164   24.9396 C   0  0  0  0  0  0  0  0  0  0  0  0
   10.8047  -17.7231   24.0723 O   0  0  0  0  0  0  0  0  0  0  0  0
   10.9883  -16.7929   26.1792 N   0  0  0  0  0  0  0  0  0  0  0  0
   12.1435  -17.6649   26.4080 C   0  0  1  0  0  0  0  0  0  0  0  0
   13.0969  -16.9678   27.3778 C   0  0  0  0  0  0  0  0  0  0  0  0
   12.2963  -16.1398   28.2990 C   0  0  0  0  0  0  0  0  0  0  0  0
   11.9543  -14.8345   27.9369 C   0  0  0  0  0  0  0  0  0  0  0  0
   11.1899  -14.0745   28.7789 C   0  0  0  0  0  0  0  0  0  0  0  0
   10.7202  -14.5222   29.9960 C   0  0  0  0  0  0  0  0  0  0  0  0
   11.0548  -15.8044   30.3538 C   0  0  0  0  0  0  0  0  0  0  0  0
   11.8223  -16.5831   29.5199 C   0  0  0  0  0  0  0  0  0  0  0  0
   11.6718  -18.9186   26.9858 C   0  0  0  0  0  0  0  0  0  0  0  0
   12.5388  -19.9473   27.2811 O   0  0  0  0  0  0  0  0  0  0  0  0
   10.4559  -19.0905   27.2277 O   0  0  0  0  0  0  0  0  0  0  0  0
  2  1  1  0
  3  2  2  0
  4  3  1  0
  5  4  2  0
  5 11  1  0
  6  5  1  0
  7  8  1  1
  7  6  1  0
  9  7  1  0
 10  9  2  0
 11 12  2  0
 12  2  1  0
 13  9  1  0
 14 13  1  0
 14 25  1  0
 14 15  1  1
 16 15  1  0
 17 16  2  0
 18 17  1  0
 19 18  1  0
 19 24  2  0
 20 21  2  0
 20 19  1  0
 21 22  1  0
 22 23  2  0
 24 23  1  0
 24 16  1  0
 25 26  2  0
 27 25  1  0
 27 28  1  0
 28 29  1  1
 29 30  1  0
 30 35  2  0
 31 32  2  0
 31 30  1  0
 32 33  1  0
 33 34  2  0
 35 34  1  0
 36 37  1  0
 36 28  1  0
 38 36  2  0
M  END
$$$$
