YWF.pdb
     RDKit          3D

 38 41  0  0  1  0  0  0  0  0999 V2000
   13.5579  -22.7529   16.9525 O   0  0  0  0  0  0  0  0  0  0  0  0
   13.2751  -21.7766   17.9278 C   0  0  0  0  0  0  0  0  0  0  0  0
   12.3293  -22.0498   18.8931 C   0  0  0  0  0  0  0  0  0  0  0  0
   12.0511  -21.0805   19.8578 C   0  0  0  0  0  0  0  0  0  0  0  0
   12.7163  -19.8743   19.8367 C   0  0  0  0  0  0  0  0  0  0  0  0
   12.3941  -18.8752   20.8776 C   0  0  0  0  0  0  0  0  0  0  0  0
   11.0860  -18.1859   20.5441 C   0  0  2  0  0  0  0  0  0  0  0  0
   11.1256  -17.5368   19.2735 N   0  0  0  0  0  0  0  0  0  0  0  0
   10.7353  -17.2914   21.6732 C   0  0  0  0  0  0  0  0  0  0  0  0
   11.4079  -16.2318   21.8842 O   0  0  0  0  0  0  0  0  0  0  0  0
   13.6610  -19.5785   18.8876 C   0  0  0  0  0  0  0  0  0  0  0  0
   13.9118  -20.5734   17.9392 C   0  0  0  0  0  0  0  0  0  0  0  0
    9.6682  -17.5261   22.5766 N   0  0  0  0  0  0  0  0  0  0  0  0
    9.3170  -16.5674   23.6443 C   0  0  1  0  0  0  0  0  0  0  0  0
    7.8414  -16.3015   23.5896 C   0  0  0  0  0  0  0  0  0  0  0  0
    7.4675  -15.6015   22.3568 C   0  0  0  0  0  0  0  0  0  0  0  0
    6.8673  -16.1465   21.2142 C   0  0  0  0  0  0  0  0  0  0  0  0
    6.7138  -15.1951   20.2873 N   0  0  0  0  0  0  0  0  0  0  0  0
    7.1801  -14.0369   20.7473 C   0  0  0  0  0  0  0  0  0  0  0  0
    7.2407  -12.7726   20.1593 C   0  0  0  0  0  0  0  0  0  0  0  0
    7.7908  -11.7542   20.9046 C   0  0  0  0  0  0  0  0  0  0  0  0
    8.2750  -11.9410   22.1907 C   0  0  0  0  0  0  0  0  0  0  0  0
    8.1917  -13.2188   22.7312 C   0  0  0  0  0  0  0  0  0  0  0  0
    7.6516  -14.2580   22.0223 C   0  0  0  0  0  0  0  0  0  0  0  0
    9.7974  -17.1699   24.8945 C   0  0  0  0  0  0  0  0  0  0  0  0
    9.5473  -18.4043   25.1131 O   0  0  0  0  0  0  0  0  0  0  0  0
   10.5298  -16.4534   25.8659 N   0  0  0  0  0  0  0  0  0  0  0  0
   10.0641  -16.5405   27.2526 C   0  0  1  0  0  0  0  0  0  0  0  0
    8.5579  -16.2829   27.2788 C   0  0  0  0  0  0  0  0  0  0  0  0
    8.3390  -14.8281   27.3819 C   0  0  0  0  0  0  0  0  0  0  0  0
    7.1603  -14.2683   26.8826 C   0  0  0  0  0  0  0  0  0  0  0  0
    6.9444  -12.9228   27.0009 C   0  0  0  0  0  0  0  0  0  0  0  0
    7.8369  -12.0564   27.5968 C   0  0  0  0  0  0  0  0  0  0  0  0
    8.9956  -12.6041   28.0883 C   0  0  0  0  0  0  0  0  0  0  0  0
    9.2296  -13.9547   27.9784 C   0  0  0  0  0  0  0  0  0  0  0  0
   10.3506  -17.8796   27.7554 C   0  0  0  0  0  0  0  0  0  0  0  0
   10.8437  -18.0823   29.0254 O   0  0  0  0  0  0  0  0  0  0  0  0
   10.1542  -18.8851   27.0366 O   0  0  0  0  0  0  0  0  0  0  0  0
  2  1  1  0
  3  2  2  0
  4  3  1  0
  5  4  2  0
  5 11  1  0
  6  5  1  0
  7  8  1  6
  7  6  1  0
  9  7  1  0
 10  9  2  0
 11 12  2  0
 12  2  1  0
 13  9  1  0
 14 13  1  0
 14 25  1  0
 14 15  1  1
 16 15  1  0
 17 16  2  0
 18 17  1  0
 19 18  1  0
 19 24  2  0
 20 21  2  0
 20 19  1  0
 21 22  1  0
 22 23  2  0
 24 23  1  0
 24 16  1  0
 25 26  2  0
 27 25  1  0
 27 28  1  0
 28 29  1  6
 29 30  1  0
 30 35  2  0
 31 32  2  0
 31 30  1  0
 32 33  1  0
 33 34  2  0
 35 34  1  0
 36 37  1  0
 36 28  1  0
 38 36  2  0
M  END
$$$$
