YWF.pdb
     RDKit          3D

 38 41  0  0  1  0  0  0  0  0999 V2000
    9.3572  -22.9142   15.8381 O   0  0  0  0  0  0  0  0  0  0  0  0
    9.5867  -22.0450   16.9226 C   0  0  0  0  0  0  0  0  0  0  0  0
   10.8835  -21.8071   17.3261 C   0  0  0  0  0  0  0  0  0  0  0  0
   11.1077  -20.9457   18.4010 C   0  0  0  0  0  0  0  0  0  0  0  0
   10.0440  -20.3484   19.0409 C   0  0  0  0  0  0  0  0  0  0  0  0
   10.3242  -19.4408   20.1736 C   0  0  0  0  0  0  0  0  0  0  0  0
   10.1784  -17.9993   19.7283 C   0  0  2  0  0  0  0  0  0  0  0  0
   10.9875  -17.7003   18.5912 N   0  0  0  0  0  0  0  0  0  0  0  0
   10.4304  -17.1269   20.9002 C   0  0  0  0  0  0  0  0  0  0  0  0
   11.5849  -16.6261   21.0899 O   0  0  0  0  0  0  0  0  0  0  0  0
    8.7455  -20.5686   18.6586 C   0  0  0  0  0  0  0  0  0  0  0  0
    8.5613  -21.4366   17.5793 C   0  0  0  0  0  0  0  0  0  0  0  0
    9.4524  -16.7885   21.8692 N   0  0  0  0  0  0  0  0  0  0  0  0
    9.7258  -15.8313   22.9608 C   0  0  1  0  0  0  0  0  0  0  0  0
    8.7675  -14.6824   22.8483 C   0  0  0  0  0  0  0  0  0  0  0  0
    7.7825  -14.6969   23.9342 C   0  0  0  0  0  0  0  0  0  0  0  0
    7.0342  -15.7886   24.3935 C   0  0  0  0  0  0  0  0  0  0  0  0
    6.2191  -15.3954   25.3778 N   0  0  0  0  0  0  0  0  0  0  0  0
    6.3801  -14.0942   25.6049 C   0  0  0  0  0  0  0  0  0  0  0  0
    5.7644  -13.2385   26.5194 C   0  0  0  0  0  0  0  0  0  0  0  0
    6.1535  -11.9180   26.5108 C   0  0  0  0  0  0  0  0  0  0  0  0
    7.1152  -11.4235   25.6425 C   0  0  0  0  0  0  0  0  0  0  0  0
    7.6985  -12.3162   24.7512 C   0  0  0  0  0  0  0  0  0  0  0  0
    7.3389  -13.6370   24.7284 C   0  0  0  0  0  0  0  0  0  0  0  0
    9.6284  -16.6067   24.2042 C   0  0  0  0  0  0  0  0  0  0  0  0
    9.0168  -17.7289   24.1778 O   0  0  0  0  0  0  0  0  0  0  0  0
   10.1844  -16.1764   25.4286 N   0  0  0  0  0  0  0  0  0  0  0  0
   11.1179  -17.0879   26.0956 C   0  0  1  0  0  0  0  0  0  0  0  0
   11.1776  -16.7260   27.5792 C   0  0  0  0  0  0  0  0  0  0  0  0
   10.6595  -15.3549   27.7422 C   0  0  0  0  0  0  0  0  0  0  0  0
   11.5152  -14.3381   28.1735 C   0  0  0  0  0  0  0  0  0  0  0  0
   11.0424  -13.0609   28.3001 C   0  0  0  0  0  0  0  0  0  0  0  0
    9.7409  -12.6982   28.0229 C   0  0  0  0  0  0  0  0  0  0  0  0
    8.8983  -13.6954   27.5989 C   0  0  0  0  0  0  0  0  0  0  0  0
    9.3562  -14.9851   27.4656 C   0  0  0  0  0  0  0  0  0  0  0  0
   10.6297  -18.4530   25.9338 C   0  0  0  0  0  0  0  0  0  0  0  0
    9.4090  -18.7178   25.3534 O   0  0  0  0  0  0  0  0  0  0  0  0
   11.3152  -19.4248   26.3237 O   0  0  0  0  0  0  0  0  0  0  0  0
  2  1  1  0
  3  2  2  0
  4  3  1  0
  5  4  2  0
  5 11  1  0
  6  5  1  0
  7  8  1  6
  7  6  1  0
  9  7  1  0
 10  9  2  0
 11 12  2  0
 12  2  1  0
 13  9  1  0
 14 13  1  0
 14 25  1  0
 14 15  1  1
 16 15  1  0
 17 16  2  0
 18 17  1  0
 19 18  1  0
 19 24  2  0
 20 21  2  0
 20 19  1  0
 21 22  1  0
 22 23  2  0
 24 23  1  0
 24 16  1  0
 25 26  2  0
 27 25  1  0
 27 28  1  0
 28 29  1  1
 29 30  1  0
 30 35  2  0
 31 32  2  0
 31 30  1  0
 32 33  1  0
 33 34  2  0
 35 34  1  0
 36 37  1  0
 36 28  1  0
 38 36  2  0
M  END
$$$$
