GSI.pdb
     RDKit          3D

 19 18  0  0  1  0  0  0  0  0999 V2000
   11.0862  -17.1789   18.3041 N   0  0  0  0  0  0  0  0  0  0  0  0
   11.1830  -17.3965   19.7154 C   0  0  0  0  0  0  0  0  0  0  0  0
    9.9610  -16.9068   20.4356 C   0  0  0  0  0  0  0  0  0  0  0  0
    9.1687  -16.1744   19.8117 O   0  0  0  0  0  0  0  0  0  0  0  0
    8.6821  -18.7577   23.8739 O   0  0  0  0  0  0  0  0  0  0  0  0
    7.8293  -18.1662   22.9461 C   0  0  0  0  0  0  0  0  0  0  0  0
    8.4862  -16.8962   22.4780 C   0  0  2  0  0  0  0  0  0  0  0  0
    9.7015  -17.2566   21.7815 N   0  0  0  0  0  0  0  0  0  0  0  0
    8.8196  -15.9930   23.6233 C   0  0  0  0  0  0  0  0  0  0  0  0
    9.9849  -15.9967   24.0981 O   0  0  0  0  0  0  0  0  0  0  0  0
    6.6490  -11.0895   26.8815 C   0  0  0  0  0  0  0  0  0  0  0  0
    7.6317  -12.2110   26.6467 C   0  0  0  0  0  0  0  0  0  0  0  0
    7.2515  -13.1622   25.5775 C   0  0  2  0  0  0  0  0  0  0  0  0
    5.9401  -13.8210   25.9999 C   0  0  0  0  0  0  0  0  0  0  0  0
    8.2152  -14.2617   25.2815 C   0  0  2  0  0  0  0  0  0  0  0  0
    7.8534  -15.1221   24.1985 N   0  0  0  0  0  0  0  0  0  0  0  0
    8.3961  -15.0943   26.4873 C   0  0  0  0  0  0  0  0  0  0  0  0
    7.8048  -16.1899   26.5770 O   0  0  0  0  0  0  0  0  0  0  0  0
    9.2116  -14.6757   27.5155 O   0  0  0  0  0  0  0  0  0  0  0  0
  2  1  1  0
  3  4  2  0
  3  2  1  0
  6  5  1  0
  7  8  1  0
  7  6  1  1
  8  3  1  0
  9  7  1  0
 10  9  2  0
 11 12  1  0
 12 13  1  0
 13 14  1  1
 15 16  1  6
 15 13  1  0
 16  9  1  0
 17 15  1  0
 18 17  2  0
 19 17  1  0
M  END
$$$$
