GSI.pdb
     RDKit          3D

 19 18  0  0  1  0  0  0  0  0999 V2000
    8.4554  -17.2873   18.3710 N   0  0  0  0  0  0  0  0  0  0  0  0
    8.6330  -17.9026   19.6509 C   0  0  0  0  0  0  0  0  0  0  0  0
    7.9479  -17.1268   20.7374 C   0  0  0  0  0  0  0  0  0  0  0  0
    7.6884  -15.9266   20.5244 O   0  0  0  0  0  0  0  0  0  0  0  0
    6.9625  -18.9948   24.2815 O   0  0  0  0  0  0  0  0  0  0  0  0
    6.0416  -18.1046   23.7363 C   0  0  0  0  0  0  0  0  0  0  0  0
    6.8190  -17.0559   22.9885 C   0  0  2  0  0  0  0  0  0  0  0  0
    7.6004  -17.7246   21.9716 N   0  0  0  0  0  0  0  0  0  0  0  0
    7.7328  -16.2947   23.8962 C   0  0  0  0  0  0  0  0  0  0  0  0
    8.9477  -16.6150   23.9652 O   0  0  0  0  0  0  0  0  0  0  0  0
    6.2208  -11.7838   27.4255 C   0  0  0  0  0  0  0  0  0  0  0  0
    6.4163  -13.0123   26.5706 C   0  0  0  0  0  0  0  0  0  0  0  0
    7.7192  -13.0864   25.8707 C   0  0  2  0  0  0  0  0  0  0  0  0
    7.5959  -12.2617   24.5914 C   0  0  0  0  0  0  0  0  0  0  0  0
    8.1910  -14.4436   25.4698 C   0  0  2  0  0  0  0  0  0  0  0  0
    7.2690  -15.2105   24.6914 N   0  0  0  0  0  0  0  0  0  0  0  0
    8.5297  -15.2225   26.6774 C   0  0  0  0  0  0  0  0  0  0  0  0
    7.8244  -16.2002   27.0010 O   0  0  0  0  0  0  0  0  0  0  0  0
    9.6171  -14.8828   27.4517 O   0  0  0  0  0  0  0  0  0  0  0  0
  2  1  1  0
  3  4  2  0
  3  2  1  0
  6  5  1  0
  7  8  1  0
  7  6  1  1
  8  3  1  0
  9  7  1  0
 10  9  2  0
 11 12  1  0
 12 13  1  0
 13 14  1  6
 15 16  1  1
 15 13  1  0
 16  9  1  0
 17 15  1  0
 18 17  2  0
 19 17  1  0
M  END
$$$$
