GSI.pdb
     RDKit          3D

 19 18  0  0  1  0  0  0  0  0999 V2000
    8.4331  -12.3445   18.2910 N   0  0  0  0  0  0  0  0  0  0  0  0
    8.7629  -13.6575   18.7551 C   0  0  0  0  0  0  0  0  0  0  0  0
    8.0705  -13.9776   20.0473 C   0  0  0  0  0  0  0  0  0  0  0  0
    7.5399  -13.0403   20.6742 O   0  0  0  0  0  0  0  0  0  0  0  0
    8.2999  -17.7264   22.0452 O   0  0  0  0  0  0  0  0  0  0  0  0
    7.0734  -17.1677   21.6967 C   0  0  0  0  0  0  0  0  0  0  0  0
    7.2392  -15.6725   21.7155 C   0  0  2  0  0  0  0  0  0  0  0  0
    8.0129  -15.2978   20.5524 N   0  0  0  0  0  0  0  0  0  0  0  0
    7.9456  -15.2114   22.9512 C   0  0  0  0  0  0  0  0  0  0  0  0
    9.1939  -15.0539   22.9307 O   0  0  0  0  0  0  0  0  0  0  0  0
    6.9203  -11.1173   27.3513 C   0  0  0  0  0  0  0  0  0  0  0  0
    7.7260  -12.2945   26.8579 C   0  0  0  0  0  0  0  0  0  0  0  0
    7.1049  -13.0578   25.7515 C   0  0  2  0  0  0  0  0  0  0  0  0
    5.7814  -13.6156   26.2703 C   0  0  0  0  0  0  0  0  0  0  0  0
    7.8814  -14.2113   25.2114 C   0  0  2  0  0  0  0  0  0  0  0  0
    7.2459  -14.9425   24.1599 N   0  0  0  0  0  0  0  0  0  0  0  0
    8.1858  -15.1542   26.3059 C   0  0  0  0  0  0  0  0  0  0  0  0
    7.5849  -16.2466   26.3665 O   0  0  0  0  0  0  0  0  0  0  0  0
    9.1271  -14.8422   27.2620 O   0  0  0  0  0  0  0  0  0  0  0  0
  2  1  1  0
  3  4  2  0
  3  2  1  0
  6  5  1  0
  7  8  1  0
  7  6  1  1
  8  3  1  0
  9  7  1  0
 10  9  2  0
 11 12  1  0
 12 13  1  0
 13 14  1  1
 15 16  1  6
 15 13  1  0
 16  9  1  0
 17 15  1  0
 18 17  2  0
 19 17  1  0
M  END
$$$$
