GSI.pdb
     RDKit          3D

 19 18  0  0  1  0  0  0  0  0999 V2000
    8.1023  -12.7470   18.1694 N   0  0  0  0  0  0  0  0  0  0  0  0
    8.5233  -13.9931   18.7336 C   0  0  0  0  0  0  0  0  0  0  0  0
    7.9409  -14.2065   20.1000 C   0  0  0  0  0  0  0  0  0  0  0  0
    7.4581  -13.2208   20.6903 O   0  0  0  0  0  0  0  0  0  0  0  0
    8.2872  -17.8424   22.1126 O   0  0  0  0  0  0  0  0  0  0  0  0
    7.0271  -17.2575   22.0226 C   0  0  0  0  0  0  0  0  0  0  0  0
    7.2276  -15.7686   21.9433 C   0  0  2  0  0  0  0  0  0  0  0  0
    7.9325  -15.4812   20.7135 N   0  0  0  0  0  0  0  0  0  0  0  0
    8.0230  -15.2566   23.1026 C   0  0  0  0  0  0  0  0  0  0  0  0
    9.2693  -15.1240   22.9903 O   0  0  0  0  0  0  0  0  0  0  0  0
    5.7015  -11.8659   27.1280 C   0  0  0  0  0  0  0  0  0  0  0  0
    6.2249  -13.1341   26.4986 C   0  0  0  0  0  0  0  0  0  0  0  0
    7.5918  -13.0361   25.9376 C   0  0  2  0  0  0  0  0  0  0  0  0
    7.5467  -12.0121   24.8057 C   0  0  0  0  0  0  0  0  0  0  0  0
    8.1773  -14.2856   25.3710 C   0  0  2  0  0  0  0  0  0  0  0  0
    7.4108  -14.9115   24.3391 N   0  0  0  0  0  0  0  0  0  0  0  0
    8.3774  -15.2693   26.4537 C   0  0  0  0  0  0  0  0  0  0  0  0
    7.7753  -16.3621   26.4158 O   0  0  0  0  0  0  0  0  0  0  0  0
    9.2226  -14.9950   27.5062 O   0  0  0  0  0  0  0  0  0  0  0  0
  2  1  1  0
  3  4  2  0
  3  2  1  0
  6  5  1  0
  7  8  1  0
  7  6  1  1
  8  3  1  0
  9  7  1  0
 10  9  2  0
 11 12  1  0
 12 13  1  0
 13 14  1  6
 15 16  1  6
 15 13  1  0
 16  9  1  0
 17 15  1  0
 18 17  2  0
 19 17  1  0
M  END
$$$$
