GSI.pdb
     RDKit          3D

 19 18  0  0  1  0  0  0  0  0999 V2000
    7.8954  -17.1112   18.8040 N   0  0  0  0  0  0  0  0  0  0  0  0
    8.1112  -17.8984   19.9796 C   0  0  0  0  0  0  0  0  0  0  0  0
    7.4436  -17.2943   21.1800 C   0  0  0  0  0  0  0  0  0  0  0  0
    6.9630  -16.1499   21.0678 O   0  0  0  0  0  0  0  0  0  0  0  0
    7.4234  -19.3197   24.7761 O   0  0  0  0  0  0  0  0  0  0  0  0
    6.2624  -18.6344   24.4291 C   0  0  0  0  0  0  0  0  0  0  0  0
    6.6692  -17.4675   23.5710 C   0  0  2  0  0  0  0  0  0  0  0  0
    7.3541  -17.9893   22.4090 N   0  0  0  0  0  0  0  0  0  0  0  0
    7.5785  -16.5333   24.3053 C   0  0  0  0  0  0  0  0  0  0  0  0
    8.8060  -16.5168   24.0294 O   0  0  0  0  0  0  0  0  0  0  0  0
    5.6858  -11.5802   26.2401 C   0  0  0  0  0  0  0  0  0  0  0  0
    6.5121  -12.6534   25.5737 C   0  0  0  0  0  0  0  0  0  0  0  0
    7.3057  -13.4957   26.4975 C   0  0  2  0  0  0  0  0  0  0  0  0
    8.4079  -12.6153   27.0825 C   0  0  0  0  0  0  0  0  0  0  0  0
    7.9719  -14.6943   25.9103 C   0  0  2  0  0  0  0  0  0  0  0  0
    7.0963  -15.6549   25.3147 N   0  0  0  0  0  0  0  0  0  0  0  0
    8.7607  -15.3786   26.9540 C   0  0  0  0  0  0  0  0  0  0  0  0
    9.8126  -14.8561   27.3767 O   0  0  0  0  0  0  0  0  0  0  0  0
    8.3483  -16.5882   27.4678 O   0  0  0  0  0  0  0  0  0  0  0  0
  2  1  1  0
  3  4  2  0
  3  2  1  0
  6  5  1  0
  7  8  1  0
  7  6  1  1
  8  3  1  0
  9  7  1  0
 10  9  2  0
 11 12  1  0
 12 13  1  0
 13 14  1  6
 15 16  1  1
 15 13  1  0
 16  9  1  0
 17 15  1  0
 18 17  2  0
 19 17  1  0
M  END
$$$$
