GSI.pdb
     RDKit          3D

 19 18  0  0  1  0  0  0  0  0999 V2000
    8.1209  -12.8784   17.8116 N   0  0  0  0  0  0  0  0  0  0  0  0
    8.7512  -13.8421   18.6615 C   0  0  0  0  0  0  0  0  0  0  0  0
    8.0087  -14.0085   19.9548 C   0  0  0  0  0  0  0  0  0  0  0  0
    7.4775  -12.9997   20.4581 O   0  0  0  0  0  0  0  0  0  0  0  0
    7.9180  -17.6572   22.1285 O   0  0  0  0  0  0  0  0  0  0  0  0
    6.7571  -16.9449   21.8406 C   0  0  0  0  0  0  0  0  0  0  0  0
    7.1248  -15.4869   21.7933 C   0  0  2  0  0  0  0  0  0  0  0  0
    7.9054  -15.2653   20.5960 N   0  0  0  0  0  0  0  0  0  0  0  0
    7.9255  -15.0808   22.9902 C   0  0  0  0  0  0  0  0  0  0  0  0
    9.1788  -15.0095   22.9037 O   0  0  0  0  0  0  0  0  0  0  0  0
    5.6915  -11.8561   27.1505 C   0  0  0  0  0  0  0  0  0  0  0  0
    6.1589  -13.0904   26.4180 C   0  0  0  0  0  0  0  0  0  0  0  0
    7.5828  -13.0753   26.0120 C   0  0  2  0  0  0  0  0  0  0  0  0
    7.7672  -11.9096   25.0428 C   0  0  0  0  0  0  0  0  0  0  0  0
    8.1002  -14.2958   25.3281 C   0  0  2  0  0  0  0  0  0  0  0  0
    7.3107  -14.7697   24.2345 N   0  0  0  0  0  0  0  0  0  0  0  0
    8.2283  -15.3916   26.3092 C   0  0  0  0  0  0  0  0  0  0  0  0
    8.9580  -15.2429   27.3110 O   0  0  0  0  0  0  0  0  0  0  0  0
    7.5505  -16.5775   26.1320 O   0  0  0  0  0  0  0  0  0  0  0  0
  2  1  1  0
  3  4  2  0
  3  2  1  0
  6  5  1  0
  7  8  1  0
  7  6  1  1
  8  3  1  0
  9  7  1  0
 10  9  2  0
 11 12  1  0
 12 13  1  0
 13 14  1  6
 15 16  1  6
 15 13  1  0
 16  9  1  0
 17 15  1  0
 18 17  2  0
 19 17  1  0
M  END
$$$$
