GSI.pdb
     RDKit          3D

 19 18  0  0  1  0  0  0  0  0999 V2000
    8.1632  -17.6513   18.5113 N   0  0  0  0  0  0  0  0  0  0  0  0
    8.9665  -17.3303   19.6514 C   0  0  0  0  0  0  0  0  0  0  0  0
    8.1258  -16.8936   20.8151 C   0  0  0  0  0  0  0  0  0  0  0  0
    7.3949  -15.8951   20.6664 O   0  0  0  0  0  0  0  0  0  0  0  0
    8.0542  -19.1752   24.2273 O   0  0  0  0  0  0  0  0  0  0  0  0
    6.9011  -18.4805   23.8729 C   0  0  0  0  0  0  0  0  0  0  0  0
    7.3331  -17.2143   23.1848 C   0  0  2  0  0  0  0  0  0  0  0  0
    8.1504  -17.5833   22.0501 N   0  0  0  0  0  0  0  0  0  0  0  0
    8.1225  -16.3314   24.0991 C   0  0  0  0  0  0  0  0  0  0  0  0
    9.3771  -16.3043   24.0057 O   0  0  0  0  0  0  0  0  0  0  0  0
    5.6258  -11.9816   26.4866 C   0  0  0  0  0  0  0  0  0  0  0  0
    6.8098  -12.6358   25.8169 C   0  0  0  0  0  0  0  0  0  0  0  0
    7.5426  -13.6116   26.6557 C   0  0  2  0  0  0  0  0  0  0  0  0
    8.5693  -12.8293   27.4719 C   0  0  0  0  0  0  0  0  0  0  0  0
    8.2852  -14.6894   25.9403 C   0  0  2  0  0  0  0  0  0  0  0  0
    7.4955  -15.5138   25.0796 N   0  0  0  0  0  0  0  0  0  0  0  0
    8.9529  -15.5632   26.9255 C   0  0  0  0  0  0  0  0  0  0  0  0
    8.3522  -16.5609   27.3748 O   0  0  0  0  0  0  0  0  0  0  0  0
   10.2330  -15.2901   27.3545 O   0  0  0  0  0  0  0  0  0  0  0  0
  2  1  1  0
  3  4  2  0
  3  2  1  0
  6  5  1  0
  7  8  1  0
  7  6  1  1
  8  3  1  0
  9  7  1  0
 10  9  2  0
 11 12  1  0
 12 13  1  0
 13 14  1  6
 15 16  1  1
 15 13  1  0
 16  9  1  0
 17 15  1  0
 18 17  2  0
 19 17  1  0
M  END
$$$$
