GSI.pdb
     RDKit          3D

 19 18  0  0  1  0  0  0  0  0999 V2000
    7.2080  -20.2152   29.3103 N   0  0  0  0  0  0  0  0  0  0  0  0
    6.4359  -20.1042   28.1104 C   0  0  0  0  0  0  0  0  0  0  0  0
    7.1640  -19.3257   27.0542 C   0  0  0  0  0  0  0  0  0  0  0  0
    8.2549  -18.8057   27.3588 O   0  0  0  0  0  0  0  0  0  0  0  0
    5.6700  -19.0740   23.1567 O   0  0  0  0  0  0  0  0  0  0  0  0
    7.0311  -19.2417   23.3957 C   0  0  0  0  0  0  0  0  0  0  0  0
    7.3548  -18.5194   24.6751 C   0  0  2  0  0  0  0  0  0  0  0  0
    6.6417  -19.1770   25.7479 N   0  0  0  0  0  0  0  0  0  0  0  0
    6.9459  -17.0814   24.6154 C   0  0  0  0  0  0  0  0  0  0  0  0
    5.7344  -16.7870   24.4451 O   0  0  0  0  0  0  0  0  0  0  0  0
    6.0239  -12.8229   27.4259 C   0  0  0  0  0  0  0  0  0  0  0  0
    6.0946  -13.7425   26.2310 C   0  0  0  0  0  0  0  0  0  0  0  0
    7.3868  -13.7304   25.5080 C   0  0  2  0  0  0  0  0  0  0  0  0
    7.5709  -12.3295   24.9287 C   0  0  0  0  0  0  0  0  0  0  0  0
    7.5336  -14.6918   24.3769 C   0  0  2  0  0  0  0  0  0  0  0  0
    7.8905  -16.0262   24.7460 N   0  0  0  0  0  0  0  0  0  0  0  0
    8.5526  -14.1893   23.4341 C   0  0  0  0  0  0  0  0  0  0  0  0
    8.1951  -13.6136   22.3858 O   0  0  0  0  0  0  0  0  0  0  0  0
    9.8951  -14.3478   23.6987 O   0  0  0  0  0  0  0  0  0  0  0  0
  2  1  1  0
  3  4  2  0
  3  2  1  0
  6  5  1  0
  7  8  1  0
  7  6  1  6
  8  3  1  0
  9  7  1  0
 10  9  2  0
 11 12  1  0
 12 13  1  0
 13 14  1  6
 15 16  1  1
 15 13  1  0
 16  9  1  0
 17 15  1  0
 18 17  2  0
 19 17  1  0
M  END
$$$$
