GSI.pdb
     RDKit          3D

 19 18  0  0  1  0  0  0  0  0999 V2000
    8.2307  -12.7653   17.8228 N   0  0  0  0  0  0  0  0  0  0  0  0
    8.8473  -13.7560   18.6514 C   0  0  0  0  0  0  0  0  0  0  0  0
    8.0060  -14.0739   19.8527 C   0  0  0  0  0  0  0  0  0  0  0  0
    7.1254  -13.2561   20.1827 O   0  0  0  0  0  0  0  0  0  0  0  0
    8.4545  -17.6865   21.8281 O   0  0  0  0  0  0  0  0  0  0  0  0
    7.2020  -17.0809   21.7787 C   0  0  0  0  0  0  0  0  0  0  0  0
    7.4224  -15.5927   21.7760 C   0  0  2  0  0  0  0  0  0  0  0  0
    8.1941  -15.2612   20.5985 N   0  0  0  0  0  0  0  0  0  0  0  0
    8.1610  -15.1422   22.9967 C   0  0  0  0  0  0  0  0  0  0  0  0
    9.4110  -15.0053   22.9508 O   0  0  0  0  0  0  0  0  0  0  0  0
    5.6048  -12.1119   27.1423 C   0  0  0  0  0  0  0  0  0  0  0  0
    6.1797  -13.3075   26.4223 C   0  0  0  0  0  0  0  0  0  0  0  0
    7.5983  -13.1725   26.0197 C   0  0  2  0  0  0  0  0  0  0  0  0
    7.6865  -11.9947   25.0518 C   0  0  0  0  0  0  0  0  0  0  0  0
    8.2179  -14.3448   25.3362 C   0  0  2  0  0  0  0  0  0  0  0  0
    7.4903  -14.8608   24.2189 N   0  0  0  0  0  0  0  0  0  0  0  0
    8.4012  -15.4402   26.3090 C   0  0  0  0  0  0  0  0  0  0  0  0
    9.1222  -15.2623   27.3123 O   0  0  0  0  0  0  0  0  0  0  0  0
    7.7844  -16.6575   26.1223 O   0  0  0  0  0  0  0  0  0  0  0  0
  2  1  1  0
  3  4  2  0
  3  2  1  0
  6  5  1  0
  7  8  1  0
  7  6  1  1
  8  3  1  0
  9  7  1  0
 10  9  2  0
 11 12  1  0
 12 13  1  0
 13 14  1  6
 15 16  1  6
 15 13  1  0
 16  9  1  0
 17 15  1  0
 18 17  2  0
 19 17  1  0
M  END
$$$$
