WRE.pdb
     RDKit          3D

 35 36  0  0  1  0  0  0  0  0999 V2000
   25.8783  -22.8346  -11.1442 N   0  0  0  0  0  0  0  0  0  0  0  0
   25.4130  -21.9179  -10.0807 C   0  0  1  0  0  0  0  0  0  0  0  0
   26.1267  -20.6362  -10.3343 C   0  0  0  0  0  0  0  0  0  0  0  0
   27.5356  -20.5666   -9.9236 C   0  0  0  0  0  0  0  0  0  0  0  0
   28.6875  -20.7542  -10.6293 C   0  0  0  0  0  0  0  0  0  0  0  0
   29.7284  -20.5818   -9.7919 N   0  0  0  0  0  0  0  0  0  0  0  0
   29.2638  -20.2908   -8.5831 C   0  0  0  0  0  0  0  0  0  0  0  0
   29.8946  -20.0207   -7.3796 C   0  0  0  0  0  0  0  0  0  0  0  0
   29.1556  -19.7345   -6.2349 C   0  0  0  0  0  0  0  0  0  0  0  0
   27.7812  -19.7136   -6.2702 C   0  0  0  0  0  0  0  0  0  0  0  0
   27.1449  -19.9812   -7.4599 C   0  0  0  0  0  0  0  0  0  0  0  0
   27.8893  -20.2647   -8.5953 C   0  0  0  0  0  0  0  0  0  0  0  0
   23.9356  -21.8530  -10.2113 C   0  0  0  0  0  0  0  0  0  0  0  0
   23.3673  -21.7606  -11.3515 O   0  0  0  0  0  0  0  0  0  0  0  0
   16.4566  -23.6804   -7.6237 N   0  0  0  0  0  0  0  0  0  0  0  0
   17.1768  -24.4938   -6.7145 C   0  0  0  0  0  0  0  0  0  0  0  0
   16.5804  -25.0360   -5.6893 N   0  0  0  0  0  0  0  0  0  0  0  0
   18.5564  -24.7162   -6.9300 N   0  0  0  0  0  0  0  0  0  0  0  0
   19.2021  -24.2710   -8.1469 C   0  0  0  0  0  0  0  0  0  0  0  0
   19.5109  -22.8033   -8.0886 C   0  0  0  0  0  0  0  0  0  0  0  0
   20.9893  -22.5371   -7.9364 C   0  0  0  0  0  0  0  0  0  0  0  0
   21.6115  -22.1430   -9.2197 C   0  0  2  0  0  0  0  0  0  0  0  0
   23.0532  -21.8895   -9.0933 N   0  0  0  0  0  0  0  0  0  0  0  0
   20.9668  -21.1091  -10.0206 C   0  0  0  0  0  0  0  0  0  0  0  0
   21.4771  -19.9751  -10.2509 O   0  0  0  0  0  0  0  0  0  0  0  0
   17.0815  -25.6233   -5.0052 N   0  0  0  0  0  0  0  0  0  0  0  0
   19.6767  -21.3234  -10.6062 C   0  0  2  0  0  0  0  0  0  0  0  0
   19.3139  -20.6728  -11.8402 C   0  0  0  0  0  0  0  0  0  0  0  0
   20.2070  -21.1155  -12.9302 C   0  0  0  0  0  0  0  0  0  0  0  0
   21.0147  -20.0560  -13.5935 C   0  0  0  0  0  0  0  0  0  0  0  0
   20.7701  -19.8881  -15.0349 O   0  0  0  0  0  0  0  0  0  0  0  0
   19.9709  -20.5882  -15.7262 C   0  0  0  0  0  0  0  0  0  0  0  0
   17.8794  -20.9250  -12.0951 O   0  0  0  0  0  0  0  0  0  0  0  0
   17.1869  -22.0379  -11.6335 O   0  0  0  0  0  0  0  0  0  0  0  0
   21.4611  -18.8853  -15.7145 O   0  0  0  0  0  0  0  0  0  0  0  0
  2  1  1  6
  3  4  1  0
  3  2  1  0
  4  5  2  0
  5  6  1  0
  7  6  1  0
  8  7  2  0
  9  8  1  0
 10 11  1  0
 10  9  2  0
 11 12  2  0
 12  4  1  0
 12  7  1  0
 13  2  1  0
 13 14  2  0
 15 16  1  0
 16 17  2  0
 18 16  1  0
 18 19  1  0
 20 21  1  0
 20 19  1  0
 22 21  1  1
 22 23  1  0
 23 13  1  0
 24 22  1  0
 25 24  2  0
 26 24  1  0
 27 26  1  0
 27 28  1  6
 29 28  1  0
 30 34  1  0
 30 29  1  0
 31 30  2  0
 32 27  1  0
 32 33  1  0
 35 32  2  0
M  END
$$$$
