WRE.pdb
     RDKit          3D

 35 36  0  0  1  0  0  0  0  0999 V2000
   25.7638  -19.0091  -18.1796 N   0  0  0  0  0  0  0  0  0  0  0  0
   26.8176  -19.7429  -17.4454 C   0  0  1  0  0  0  0  0  0  0  0  0
   26.8089  -19.1641  -16.0737 C   0  0  0  0  0  0  0  0  0  0  0  0
   27.2002  -17.7539  -15.9442 C   0  0  0  0  0  0  0  0  0  0  0  0
   26.6112  -16.7148  -15.2858 C   0  0  0  0  0  0  0  0  0  0  0  0
   27.3633  -15.6137  -15.4762 N   0  0  0  0  0  0  0  0  0  0  0  0
   28.4064  -15.9314  -16.2329 C   0  0  0  0  0  0  0  0  0  0  0  0
   29.4713  -15.1885  -16.7160 C   0  0  0  0  0  0  0  0  0  0  0  0
   30.4555  -15.7801  -17.5031 C   0  0  0  0  0  0  0  0  0  0  0  0
   30.3948  -17.1165  -17.8212 C   0  0  0  0  0  0  0  0  0  0  0  0
   29.3412  -17.8630  -17.3474 C   0  0  0  0  0  0  0  0  0  0  0  0
   28.3656  -17.2652  -16.5636 C   0  0  0  0  0  0  0  0  0  0  0  0
   26.4504  -21.1791  -17.5256 C   0  0  0  0  0  0  0  0  0  0  0  0
   25.2331  -21.5554  -17.6139 O   0  0  0  0  0  0  0  0  0  0  0  0
   28.1126  -29.2052  -15.7643 N   0  0  0  0  0  0  0  0  0  0  0  0
   28.1715  -29.2398  -17.1794 C   0  0  0  0  0  0  0  0  0  0  0  0
   27.7242  -30.2716  -17.8396 N   0  0  0  0  0  0  0  0  0  0  0  0
   28.7212  -28.1383  -17.8749 N   0  0  0  0  0  0  0  0  0  0  0  0
   29.0250  -26.9000  -17.1893 C   0  0  0  0  0  0  0  0  0  0  0  0
   27.8351  -25.9851  -17.1741 C   0  0  0  0  0  0  0  0  0  0  0  0
   28.2211  -24.5434  -17.4023 C   0  0  0  0  0  0  0  0  0  0  0  0
   27.0549  -23.6390  -17.2968 C   0  0  2  0  0  0  0  0  0  0  0  0
   27.4123  -22.2301  -17.5115 N   0  0  0  0  0  0  0  0  0  0  0  0
   26.1595  -23.7834  -16.1551 C   0  0  0  0  0  0  0  0  0  0  0  0
   26.5277  -23.6658  -14.9510 O   0  0  0  0  0  0  0  0  0  0  0  0
   27.7484  -30.3217  -18.8696 N   0  0  0  0  0  0  0  0  0  0  0  0
   24.7697  -24.0809  -16.3375 C   0  0  2  0  0  0  0  0  0  0  0  0
   23.8811  -24.1584  -15.2052 C   0  0  0  0  0  0  0  0  0  0  0  0
   23.1876  -22.8684  -15.0138 C   0  0  0  0  0  0  0  0  0  0  0  0
   22.1682  -22.8211  -13.9307 C   0  0  0  0  0  0  0  0  0  0  0  0
   21.4415  -21.5475  -13.8058 O   0  0  0  0  0  0  0  0  0  0  0  0
   20.1885  -21.4340  -13.6514 C   0  0  0  0  0  0  0  0  0  0  0  0
   22.9732  -25.3084  -15.4039 O   0  0  0  0  0  0  0  0  0  0  0  0
   22.3159  -25.9727  -14.3753 O   0  0  0  0  0  0  0  0  0  0  0  0
   22.1688  -20.3587  -13.8584 O   0  0  0  0  0  0  0  0  0  0  0  0
  2  1  1  6
  3  4  1  0
  3  2  1  0
  4  5  2  0
  5  6  1  0
  7  6  1  0
  8  7  2  0
  9  8  1  0
 10 11  1  0
 10  9  2  0
 11 12  2  0
 12  4  1  0
 12  7  1  0
 13  2  1  0
 13 14  2  0
 15 16  1  0
 16 17  2  0
 18 16  1  0
 18 19  1  0
 20 21  1  0
 20 19  1  0
 22 21  1  1
 22 23  1  0
 23 13  1  0
 24 22  1  0
 25 24  2  0
 26 24  1  0
 27 26  1  0
 27 28  1  6
 29 28  1  0
 30 34  1  0
 30 29  1  0
 31 30  2  0
 32 27  1  0
 32 33  1  0
 35 32  2  0
M  END
$$$$
