WRE.pdb
     RDKit          3D

 35 36  0  0  1  0  0  0  0  0999 V2000
   26.7400  -18.7771   -9.7535 N   0  0  0  0  0  0  0  0  0  0  0  0
   26.9170  -20.2375   -9.9079 C   0  0  1  0  0  0  0  0  0  0  0  0
   26.4031  -20.8262   -8.6407 C   0  0  0  0  0  0  0  0  0  0  0  0
   26.9140  -20.2558   -7.3868 C   0  0  0  0  0  0  0  0  0  0  0  0
   26.4563  -19.2290   -6.6147 C   0  0  0  0  0  0  0  0  0  0  0  0
   27.2840  -19.0917   -5.5609 N   0  0  0  0  0  0  0  0  0  0  0  0
   28.2460  -20.0020   -5.6487 C   0  0  0  0  0  0  0  0  0  0  0  0
   29.3319  -20.2950   -4.8399 C   0  0  0  0  0  0  0  0  0  0  0  0
   30.2059  -21.3287   -5.1652 C   0  0  0  0  0  0  0  0  0  0  0  0
   30.0136  -22.0840   -6.2980 C   0  0  0  0  0  0  0  0  0  0  0  0
   28.9389  -21.8009   -7.1085 C   0  0  0  0  0  0  0  0  0  0  0  0
   28.0732  -20.7696   -6.7761 C   0  0  0  0  0  0  0  0  0  0  0  0
   26.1634  -20.6160  -11.1297 C   0  0  0  0  0  0  0  0  0  0  0  0
   24.9440  -20.2751  -11.2971 O   0  0  0  0  0  0  0  0  0  0  0  0
   29.5198  -24.3885  -16.0223 N   0  0  0  0  0  0  0  0  0  0  0  0
   28.4002  -25.2563  -16.0426 C   0  0  0  0  0  0  0  0  0  0  0  0
   28.5328  -26.5214  -15.7554 N   0  0  0  0  0  0  0  0  0  0  0  0
   27.1288  -24.7359  -16.3773 N   0  0  0  0  0  0  0  0  0  0  0  0
   26.9634  -23.3417  -16.7304 C   0  0  0  0  0  0  0  0  0  0  0  0
   26.1164  -22.6253  -15.7193 C   0  0  0  0  0  0  0  0  0  0  0  0
   26.8571  -22.3784  -14.4270 C   0  0  0  0  0  0  0  0  0  0  0  0
   26.0077  -21.6909  -13.4295 C   0  0  2  0  0  0  0  0  0  0  0  0
   26.7339  -21.3751  -12.1919 N   0  0  0  0  0  0  0  0  0  0  0  0
   24.6893  -22.2406  -13.1366 C   0  0  0  0  0  0  0  0  0  0  0  0
   24.4972  -23.2800  -12.4423 O   0  0  0  0  0  0  0  0  0  0  0  0
   27.7247  -27.1572  -15.6725 N   0  0  0  0  0  0  0  0  0  0  0  0
   23.4999  -21.6185  -13.6383 C   0  0  2  0  0  0  0  0  0  0  0  0
   22.1997  -22.1373  -13.2948 C   0  0  0  0  0  0  0  0  0  0  0  0
   21.2001  -21.0499  -13.3022 C   0  0  0  0  0  0  0  0  0  0  0  0
   19.7999  -21.4380  -12.9804 C   0  0  0  0  0  0  0  0  0  0  0  0
   18.8015  -20.3663  -13.1225 O   0  0  0  0  0  0  0  0  0  0  0  0
   19.0518  -19.1793  -13.4901 C   0  0  0  0  0  0  0  0  0  0  0  0
   21.8859  -23.2523  -14.2138 O   0  0  0  0  0  0  0  0  0  0  0  0
   21.0760  -24.3326  -13.8849 O   0  0  0  0  0  0  0  0  0  0  0  0
   17.4680  -20.6571  -12.8357 O   0  0  0  0  0  0  0  0  0  0  0  0
  2  1  1  1
  3  4  1  0
  3  2  1  0
  4  5  2  0
  5  6  1  0
  7  6  1  0
  8  7  2  0
  9  8  1  0
 10 11  1  0
 10  9  2  0
 11 12  2  0
 12  4  1  0
 12  7  1  0
 13  2  1  0
 13 14  2  0
 15 16  1  0
 16 17  2  0
 18 16  1  0
 18 19  1  0
 20 21  1  0
 20 19  1  0
 22 21  1  1
 22 23  1  0
 23 13  1  0
 24 22  1  0
 25 24  2  0
 26 24  1  0
 27 26  1  0
 27 28  1  6
 29 28  1  0
 30 34  1  0
 30 29  1  0
 31 30  2  0
 32 27  1  0
 32 33  1  0
 35 32  2  0
M  END
$$$$
