WRE.pdb
     RDKit          3D

 35 36  0  0  1  0  0  0  0  0999 V2000
   22.8868  -18.4693  -17.8011 N   0  0  0  0  0  0  0  0  0  0  0  0
   22.9112  -18.0448  -16.3844 C   0  0  1  0  0  0  0  0  0  0  0  0
   22.1179  -16.7857  -16.3434 C   0  0  0  0  0  0  0  0  0  0  0  0
   22.6853  -15.6190  -17.0330 C   0  0  0  0  0  0  0  0  0  0  0  0
   22.1797  -14.8248  -18.0198 C   0  0  0  0  0  0  0  0  0  0  0  0
   23.0968  -13.8836  -18.3157 N   0  0  0  0  0  0  0  0  0  0  0  0
   24.1613  -14.0633  -17.5436 C   0  0  0  0  0  0  0  0  0  0  0  0
   25.3647  -13.3849  -17.4385 C   0  0  0  0  0  0  0  0  0  0  0  0
   26.3326  -13.7862  -16.5218 C   0  0  0  0  0  0  0  0  0  0  0  0
   26.1186  -14.8665  -15.6984 C   0  0  0  0  0  0  0  0  0  0  0  0
   24.9276  -15.5476  -15.7952 C   0  0  0  0  0  0  0  0  0  0  0  0
   23.9690  -15.1402  -16.7110 C   0  0  0  0  0  0  0  0  0  0  0  0
   22.3416  -19.1740  -15.6071 C   0  0  0  0  0  0  0  0  0  0  0  0
   21.4767  -19.9664  -16.1125 O   0  0  0  0  0  0  0  0  0  0  0  0
   27.2752  -22.4285   -9.6533 N   0  0  0  0  0  0  0  0  0  0  0  0
   27.6325  -21.8533  -10.8977 C   0  0  0  0  0  0  0  0  0  0  0  0
   28.8415  -21.9833  -11.3688 N   0  0  0  0  0  0  0  0  0  0  0  0
   26.6607  -21.1339  -11.6306 N   0  0  0  0  0  0  0  0  0  0  0  0
   25.2618  -21.5024  -11.5755 C   0  0  0  0  0  0  0  0  0  0  0  0
   24.4237  -20.5647  -12.3949 C   0  0  0  0  0  0  0  0  0  0  0  0
   22.9473  -20.8485  -12.2544 C   0  0  0  0  0  0  0  0  0  0  0  0
   22.2227  -20.6315  -13.5260 C   0  0  2  0  0  0  0  0  0  0  0  0
   22.7110  -19.4562  -14.2602 N   0  0  0  0  0  0  0  0  0  0  0  0
   20.7652  -20.6735  -13.5159 C   0  0  0  0  0  0  0  0  0  0  0  0
   20.0423  -19.8982  -12.8263 O   0  0  0  0  0  0  0  0  0  0  0  0
   29.1445  -21.5327  -12.2459 N   0  0  0  0  0  0  0  0  0  0  0  0
   20.0468  -21.6283  -14.3069 C   0  0  2  0  0  0  0  0  0  0  0  0
   18.7924  -22.1679  -13.8454 C   0  0  0  0  0  0  0  0  0  0  0  0
   18.9871  -22.8894  -12.5714 C   0  0  0  0  0  0  0  0  0  0  0  0
   17.7873  -23.5625  -12.0037 C   0  0  0  0  0  0  0  0  0  0  0  0
   18.0660  -24.7141  -11.1309 O   0  0  0  0  0  0  0  0  0  0  0  0
   18.8305  -25.6824  -11.4217 C   0  0  0  0  0  0  0  0  0  0  0  0
   17.8106  -21.0648  -13.7707 O   0  0  0  0  0  0  0  0  0  0  0  0
   18.0807  -19.7513  -14.1352 O   0  0  0  0  0  0  0  0  0  0  0  0
   17.4512  -24.7649   -9.8802 O   0  0  0  0  0  0  0  0  0  0  0  0
  2  1  1  6
  3  4  1  0
  3  2  1  0
  4  5  2  0
  5  6  1  0
  7  6  1  0
  8  7  2  0
  9  8  1  0
 10 11  1  0
 10  9  2  0
 11 12  2  0
 12  4  1  0
 12  7  1  0
 13  2  1  0
 13 14  2  0
 15 16  1  0
 16 17  2  0
 18 16  1  0
 18 19  1  0
 20 21  1  0
 20 19  1  0
 22 21  1  1
 22 23  1  0
 23 13  1  0
 24 22  1  0
 25 24  2  0
 26 24  1  0
 27 26  1  0
 27 28  1  6
 29 28  1  0
 30 34  1  0
 30 29  1  0
 31 30  2  0
 32 27  1  0
 32 33  1  0
 35 32  2  0
M  END
$$$$
