WRE.pdb
     RDKit          3D

 35 36  0  0  1  0  0  0  0  0999 V2000
   26.8009  -18.8571   -8.5113 N   0  0  0  0  0  0  0  0  0  0  0  0
   26.5619  -20.2452   -8.9629 C   0  0  1  0  0  0  0  0  0  0  0  0
   25.6812  -20.8448   -7.9231 C   0  0  0  0  0  0  0  0  0  0  0  0
   26.1021  -20.6889   -6.5242 C   0  0  0  0  0  0  0  0  0  0  0  0
   25.3900  -20.7307   -5.3617 C   0  0  0  0  0  0  0  0  0  0  0  0
   26.2408  -20.5248   -4.3378 N   0  0  0  0  0  0  0  0  0  0  0  0
   27.4645  -20.3563   -4.8234 C   0  0  0  0  0  0  0  0  0  0  0  0
   28.6868  -20.1204   -4.2153 C   0  0  0  0  0  0  0  0  0  0  0  0
   29.8466  -19.9842   -4.9733 C   0  0  0  0  0  0  0  0  0  0  0  0
   29.8077  -20.0797   -6.3445 C   0  0  0  0  0  0  0  0  0  0  0  0
   28.5991  -20.3129   -6.9583 C   0  0  0  0  0  0  0  0  0  0  0  0
   27.4490  -20.4477   -6.1950 C   0  0  0  0  0  0  0  0  0  0  0  0
   25.9585  -20.1393  -10.3152 C   0  0  0  0  0  0  0  0  0  0  0  0
   25.0882  -19.2465  -10.5924 O   0  0  0  0  0  0  0  0  0  0  0  0
   28.8170  -18.2987  -16.9906 N   0  0  0  0  0  0  0  0  0  0  0  0
   28.5323  -19.6863  -17.0176 C   0  0  0  0  0  0  0  0  0  0  0  0
   28.1578  -20.2680  -18.1229 N   0  0  0  0  0  0  0  0  0  0  0  0
   28.6602  -20.4408  -15.8287 N   0  0  0  0  0  0  0  0  0  0  0  0
   29.0392  -19.8095  -14.5822 C   0  0  0  0  0  0  0  0  0  0  0  0
   27.8624  -19.6887  -13.6583 C   0  0  0  0  0  0  0  0  0  0  0  0
   26.9371  -20.8780  -13.7547 C   0  0  0  0  0  0  0  0  0  0  0  0
   25.8370  -20.7996  -12.7684 C   0  0  2  0  0  0  0  0  0  0  0  0
   26.2991  -21.0106  -11.3898 N   0  0  0  0  0  0  0  0  0  0  0  0
   24.6105  -21.5439  -13.0287 C   0  0  0  0  0  0  0  0  0  0  0  0
   24.4985  -22.7941  -12.8747 O   0  0  0  0  0  0  0  0  0  0  0  0
   27.9998  -21.2854  -18.1862 N   0  0  0  0  0  0  0  0  0  0  0  0
   23.4275  -20.8820  -13.4931 C   0  0  2  0  0  0  0  0  0  0  0  0
   22.1968  -21.6129  -13.6635 C   0  0  0  0  0  0  0  0  0  0  0  0
   21.0445  -20.6915  -13.5946 C   0  0  0  0  0  0  0  0  0  0  0  0
   19.7017  -21.2962  -13.8095 C   0  0  0  0  0  0  0  0  0  0  0  0
   18.7256  -21.0593  -12.7340 O   0  0  0  0  0  0  0  0  0  0  0  0
   17.6031  -20.4888  -12.8795 C   0  0  0  0  0  0  0  0  0  0  0  0
   22.2819  -22.3800  -14.9247 O   0  0  0  0  0  0  0  0  0  0  0  0
   21.5302  -23.5155  -15.2017 O   0  0  0  0  0  0  0  0  0  0  0  0
   19.0392  -21.4883  -11.4446 O   0  0  0  0  0  0  0  0  0  0  0  0
  2  1  1  1
  3  4  1  0
  3  2  1  0
  4  5  2  0
  5  6  1  0
  7  6  1  0
  8  7  2  0
  9  8  1  0
 10 11  1  0
 10  9  2  0
 11 12  2  0
 12  4  1  0
 12  7  1  0
 13  2  1  0
 13 14  2  0
 15 16  1  0
 16 17  2  0
 18 16  1  0
 18 19  1  0
 20 21  1  0
 20 19  1  0
 22 21  1  6
 22 23  1  0
 23 13  1  0
 24 22  1  0
 25 24  2  0
 26 24  1  0
 27 26  1  0
 27 28  1  6
 29 28  1  0
 30 34  1  0
 30 29  1  0
 31 30  2  0
 32 27  1  0
 32 33  1  0
 35 32  2  0
M  END
$$$$
