WRE.pdb
     RDKit          3D

 35 36  0  0  1  0  0  0  0  0999 V2000
   27.3834  -22.3276  -13.9289 N   0  0  0  0  0  0  0  0  0  0  0  0
   26.4193  -21.7481  -12.9684 C   0  0  1  0  0  0  0  0  0  0  0  0
   26.9633  -20.4024  -12.6375 C   0  0  0  0  0  0  0  0  0  0  0  0
   28.0251  -20.3449  -11.6236 C   0  0  0  0  0  0  0  0  0  0  0  0
   29.3822  -20.4154  -11.7389 C   0  0  0  0  0  0  0  0  0  0  0  0
   29.9163  -20.3170  -10.5062 N   0  0  0  0  0  0  0  0  0  0  0  0
   28.9350  -20.1859   -9.6220 C   0  0  0  0  0  0  0  0  0  0  0  0
   28.9316  -20.0456   -8.2437 C   0  0  0  0  0  0  0  0  0  0  0  0
   27.7358  -19.9190   -7.5422 C   0  0  0  0  0  0  0  0  0  0  0  0
   26.5282  -19.9309   -8.1997 C   0  0  0  0  0  0  0  0  0  0  0  0
   26.5203  -20.0705   -9.5680 C   0  0  0  0  0  0  0  0  0  0  0  0
   27.7166  -20.1955  -10.2586 C   0  0  0  0  0  0  0  0  0  0  0  0
   25.1044  -21.7441  -13.6577 C   0  0  0  0  0  0  0  0  0  0  0  0
   24.9545  -21.2173  -14.8115 O   0  0  0  0  0  0  0  0  0  0  0  0
   20.0606  -28.0221  -15.6009 N   0  0  0  0  0  0  0  0  0  0  0  0
   21.3712  -27.4842  -15.5923 C   0  0  0  0  0  0  0  0  0  0  0  0
   22.3965  -28.2229  -15.9141 N   0  0  0  0  0  0  0  0  0  0  0  0
   21.5597  -26.1301  -15.2313 N   0  0  0  0  0  0  0  0  0  0  0  0
   20.4292  -25.2548  -15.0043 C   0  0  0  0  0  0  0  0  0  0  0  0
   20.8793  -23.8442  -14.7578 C   0  0  0  0  0  0  0  0  0  0  0  0
   22.1808  -23.7860  -13.9946 C   0  0  0  0  0  0  0  0  0  0  0  0
   22.6506  -22.3945  -13.8151 C   0  0  2  0  0  0  0  0  0  0  0  0
   23.9288  -22.3191  -13.0944 N   0  0  0  0  0  0  0  0  0  0  0  0
   21.7099  -21.3979  -13.3173 C   0  0  0  0  0  0  0  0  0  0  0  0
   21.3607  -21.3013  -12.1056 O   0  0  0  0  0  0  0  0  0  0  0  0
   23.3644  -27.8673  -15.8868 N   0  0  0  0  0  0  0  0  0  0  0  0
   21.1048  -20.4451  -14.2001 C   0  0  2  0  0  0  0  0  0  0  0  0
   20.2195  -19.4294  -13.6881 C   0  0  0  0  0  0  0  0  0  0  0  0
   19.9241  -18.4351  -14.7397 C   0  0  0  0  0  0  0  0  0  0  0  0
   18.5795  -18.5220  -15.3716 C   0  0  0  0  0  0  0  0  0  0  0  0
   18.5512  -18.2921  -16.8249 O   0  0  0  0  0  0  0  0  0  0  0  0
   19.5616  -18.0223  -17.5411 C   0  0  0  0  0  0  0  0  0  0  0  0
   19.0214  -20.0937  -13.1316 O   0  0  0  0  0  0  0  0  0  0  0  0
   18.1817  -19.5245  -12.1818 O   0  0  0  0  0  0  0  0  0  0  0  0
   17.3267  -18.3727  -17.4874 O   0  0  0  0  0  0  0  0  0  0  0  0
  2  1  1  6
  3  4  1  0
  3  2  1  0
  4  5  2  0
  5  6  1  0
  7  6  1  0
  8  7  2  0
  9  8  1  0
 10 11  1  0
 10  9  2  0
 11 12  2  0
 12  4  1  0
 12  7  1  0
 13  2  1  0
 13 14  2  0
 15 16  1  0
 16 17  2  0
 18 16  1  0
 18 19  1  0
 20 21  1  0
 20 19  1  0
 22 21  1  1
 22 23  1  0
 23 13  1  0
 24 22  1  0
 25 24  2  0
 26 24  1  0
 27 26  1  0
 27 28  1  6
 29 28  1  0
 30 34  1  0
 30 29  1  0
 31 30  2  0
 32 27  1  0
 32 33  1  0
 35 32  2  0
M  END
$$$$
