WRE.pdb
     RDKit          3D

 35 36  0  0  1  0  0  0  0  0999 V2000
   25.8874  -18.9074  -11.8505 N   0  0  0  0  0  0  0  0  0  0  0  0
   26.8283  -20.0370  -12.0140 C   0  0  1  0  0  0  0  0  0  0  0  0
   26.2978  -21.1138  -11.1335 C   0  0  0  0  0  0  0  0  0  0  0  0
   26.1200  -20.7843   -9.7127 C   0  0  0  0  0  0  0  0  0  0  0  0
   24.9980  -20.5097   -8.9877 C   0  0  0  0  0  0  0  0  0  0  0  0
   25.3669  -20.2649   -7.7155 N   0  0  0  0  0  0  0  0  0  0  0  0
   26.6859  -20.3788   -7.6211 C   0  0  0  0  0  0  0  0  0  0  0  0
   27.5625  -20.2361   -6.5578 C   0  0  0  0  0  0  0  0  0  0  0  0
   28.9316  -20.4190   -6.7320 C   0  0  0  0  0  0  0  0  0  0  0  0
   29.4480  -20.7451   -7.9639 C   0  0  0  0  0  0  0  0  0  0  0  0
   28.5864  -20.8884   -9.0265 C   0  0  0  0  0  0  0  0  0  0  0  0
   27.2240  -20.7048   -8.8435 C   0  0  0  0  0  0  0  0  0  0  0  0
   26.8389  -20.3565  -13.4637 C   0  0  0  0  0  0  0  0  0  0  0  0
   25.8187  -20.1478  -14.2032 O   0  0  0  0  0  0  0  0  0  0  0  0
   31.9583  -24.6000  -14.5002 N   0  0  0  0  0  0  0  0  0  0  0  0
   31.7870  -25.2139  -15.7655 C   0  0  0  0  0  0  0  0  0  0  0  0
   31.9970  -26.4916  -15.9197 N   0  0  0  0  0  0  0  0  0  0  0  0
   31.3820  -24.4250  -16.8668 N   0  0  0  0  0  0  0  0  0  0  0  0
   31.1234  -23.0088  -16.7144 C   0  0  0  0  0  0  0  0  0  0  0  0
   29.7625  -22.7683  -16.1284 C   0  0  0  0  0  0  0  0  0  0  0  0
   29.4172  -21.2995  -16.0722 C   0  0  0  0  0  0  0  0  0  0  0  0
   28.0366  -21.0779  -15.5884 C   0  0  2  0  0  0  0  0  0  0  0  0
   27.9699  -20.9104  -14.1303 N   0  0  0  0  0  0  0  0  0  0  0  0
   26.9793  -21.9632  -16.0621 C   0  0  0  0  0  0  0  0  0  0  0  0
   26.8751  -23.1785  -15.7282 O   0  0  0  0  0  0  0  0  0  0  0  0
   31.9627  -26.9500  -16.8432 N   0  0  0  0  0  0  0  0  0  0  0  0
   25.9701  -21.4941  -16.9648 C   0  0  1  0  0  0  0  0  0  0  0  0
   24.7691  -22.2601  -17.1849 C   0  0  0  0  0  0  0  0  0  0  0  0
   24.0397  -22.4389  -15.9130 C   0  0  0  0  0  0  0  0  0  0  0  0
   22.7566  -23.1892  -15.9875 C   0  0  0  0  0  0  0  0  0  0  0  0
   22.0531  -23.3611  -14.7064 O   0  0  0  0  0  0  0  0  0  0  0  0
   20.9470  -23.9617  -14.5558 C   0  0  0  0  0  0  0  0  0  0  0  0
   23.9809  -21.5955  -18.2447 O   0  0  0  0  0  0  0  0  0  0  0  0
   22.8709  -22.1582  -18.8631 O   0  0  0  0  0  0  0  0  0  0  0  0
   22.6307  -22.8295  -13.5537 O   0  0  0  0  0  0  0  0  0  0  0  0
  2  1  1  6
  3  4  1  0
  3  2  1  0
  4  5  2  0
  5  6  1  0
  7  6  1  0
  8  7  2  0
  9  8  1  0
 10 11  1  0
 10  9  2  0
 11 12  2  0
 12  4  1  0
 12  7  1  0
 13  2  1  0
 13 14  2  0
 15 16  1  0
 16 17  2  0
 18 16  1  0
 18 19  1  0
 20 21  1  0
 20 19  1  0
 22 21  1  1
 22 23  1  0
 23 13  1  0
 24 22  1  0
 25 24  2  0
 26 24  1  0
 27 26  1  0
 27 28  1  6
 29 28  1  0
 30 34  1  0
 30 29  1  0
 31 30  2  0
 32 27  1  0
 32 33  1  0
 35 32  2  0
M  END
$$$$
