WRE.pdb
     RDKit          3D

 35 36  0  0  1  0  0  0  0  0999 V2000
   28.7287  -21.2747  -10.3329 N   0  0  0  0  0  0  0  0  0  0  0  0
   27.3547  -21.0421   -9.8369 C   0  0  1  0  0  0  0  0  0  0  0  0
   27.5053  -20.0681   -8.7210 C   0  0  0  0  0  0  0  0  0  0  0  0
   28.5193  -20.3744   -7.7028 C   0  0  0  0  0  0  0  0  0  0  0  0
   29.6197  -21.1791   -7.7443 C   0  0  0  0  0  0  0  0  0  0  0  0
   30.2277  -21.1251   -6.5435 N   0  0  0  0  0  0  0  0  0  0  0  0
   29.5423  -20.3100   -5.7512 C   0  0  0  0  0  0  0  0  0  0  0  0
   29.7304  -19.9049   -4.4398 C   0  0  0  0  0  0  0  0  0  0  0  0
   28.8458  -19.0175   -3.8331 C   0  0  0  0  0  0  0  0  0  0  0  0
   27.7628  -18.5216   -4.5201 C   0  0  0  0  0  0  0  0  0  0  0  0
   27.5664  -18.9180   -5.8225 C   0  0  0  0  0  0  0  0  0  0  0  0
   28.4531  -19.8021   -6.4188 C   0  0  0  0  0  0  0  0  0  0  0  0
   26.5751  -20.5511  -11.0009 C   0  0  0  0  0  0  0  0  0  0  0  0
   27.1476  -20.0600  -12.0316 O   0  0  0  0  0  0  0  0  0  0  0  0
   22.1699  -23.4727  -16.0809 N   0  0  0  0  0  0  0  0  0  0  0  0
   23.3064  -24.0372  -16.7107 C   0  0  0  0  0  0  0  0  0  0  0  0
   23.2138  -24.5725  -17.8963 N   0  0  0  0  0  0  0  0  0  0  0  0
   24.5508  -24.0139  -16.0399 N   0  0  0  0  0  0  0  0  0  0  0  0
   24.6182  -24.0137  -14.5937 C   0  0  0  0  0  0  0  0  0  0  0  0
   24.1278  -22.7117  -14.0304 C   0  0  0  0  0  0  0  0  0  0  0  0
   24.9291  -22.2724  -12.8284 C   0  0  0  0  0  0  0  0  0  0  0  0
   24.4094  -21.0126  -12.2522 C   0  0  2  0  0  0  0  0  0  0  0  0
   25.1519  -20.5905  -11.0568 N   0  0  0  0  0  0  0  0  0  0  0  0
   22.9717  -20.8774  -12.0499 C   0  0  0  0  0  0  0  0  0  0  0  0
   22.3162  -21.5325  -11.1894 O   0  0  0  0  0  0  0  0  0  0  0  0
   24.0160  -25.0209  -18.3646 N   0  0  0  0  0  0  0  0  0  0  0  0
   22.1948  -19.9707  -12.8421 C   0  0  2  0  0  0  0  0  0  0  0  0
   20.7883  -19.7904  -12.5835 C   0  0  0  0  0  0  0  0  0  0  0  0
   20.2555  -18.6908  -13.4134 C   0  0  0  0  0  0  0  0  0  0  0  0
   19.2350  -17.8162  -12.7746 C   0  0  0  0  0  0  0  0  0  0  0  0
   18.7233  -16.7254  -13.6197 O   0  0  0  0  0  0  0  0  0  0  0  0
   18.4310  -16.8297  -14.8487 C   0  0  0  0  0  0  0  0  0  0  0  0
   20.1074  -21.0867  -12.7892 O   0  0  0  0  0  0  0  0  0  0  0  0
   19.0435  -21.5420  -12.0198 O   0  0  0  0  0  0  0  0  0  0  0  0
   18.5371  -15.4690  -13.0437 O   0  0  0  0  0  0  0  0  0  0  0  0
  2  1  1  6
  3  4  1  0
  3  2  1  0
  4  5  2  0
  5  6  1  0
  7  6  1  0
  8  7  2  0
  9  8  1  0
 10 11  1  0
 10  9  2  0
 11 12  2  0
 12  4  1  0
 12  7  1  0
 13  2  1  0
 13 14  2  0
 15 16  1  0
 16 17  2  0
 18 16  1  0
 18 19  1  0
 20 21  1  0
 20 19  1  0
 22 21  1  1
 22 23  1  0
 23 13  1  0
 24 22  1  0
 25 24  2  0
 26 24  1  0
 27 26  1  0
 27 28  1  6
 29 28  1  0
 30 34  1  0
 30 29  1  0
 31 30  2  0
 32 27  1  0
 32 33  1  0
 35 32  2  0
M  END
$$$$
