WRE.pdb
     RDKit          3D

 35 36  0  0  1  0  0  0  0  0999 V2000
   27.4358  -20.4833  -15.9763 N   0  0  0  0  0  0  0  0  0  0  0  0
   26.5382  -20.7669  -14.8354 C   0  0  1  0  0  0  0  0  0  0  0  0
   26.8263  -19.6974  -13.8405 C   0  0  0  0  0  0  0  0  0  0  0  0
   28.1330  -19.7465  -13.1707 C   0  0  0  0  0  0  0  0  0  0  0  0
   29.3186  -19.1417  -13.4686 C   0  0  0  0  0  0  0  0  0  0  0  0
   30.2252  -19.5112  -12.5434 N   0  0  0  0  0  0  0  0  0  0  0  0
   29.6435  -20.3283  -11.6741 C   0  0  0  0  0  0  0  0  0  0  0  0
   30.1139  -20.9818  -10.5467 C   0  0  0  0  0  0  0  0  0  0  0  0
   29.2744  -21.7960   -9.7914 C   0  0  0  0  0  0  0  0  0  0  0  0
   27.9577  -21.9726  -10.1460 C   0  0  0  0  0  0  0  0  0  0  0  0
   27.4807  -21.3289  -11.2641 C   0  0  0  0  0  0  0  0  0  0  0  0
   28.3242  -20.5193  -12.0101 C   0  0  0  0  0  0  0  0  0  0  0  0
   25.1594  -20.7606  -15.3857 C   0  0  0  0  0  0  0  0  0  0  0  0
   24.7328  -19.8013  -16.1131 O   0  0  0  0  0  0  0  0  0  0  0  0
   21.6848  -26.6374  -13.0415 N   0  0  0  0  0  0  0  0  0  0  0  0
   20.3818  -26.1069  -12.8748 C   0  0  0  0  0  0  0  0  0  0  0  0
   19.6798  -26.3862  -11.8119 N   0  0  0  0  0  0  0  0  0  0  0  0
   19.8455  -25.2650  -13.8762 N   0  0  0  0  0  0  0  0  0  0  0  0
   20.6597  -24.8125  -14.9844 C   0  0  0  0  0  0  0  0  0  0  0  0
   21.3777  -23.5394  -14.6427 C   0  0  0  0  0  0  0  0  0  0  0  0
   22.1881  -23.0126  -15.8026 C   0  0  0  0  0  0  0  0  0  0  0  0
   22.7985  -21.7003  -15.4954 C   0  0  2  0  0  0  0  0  0  0  0  0
   24.2223  -21.8075  -15.1492 N   0  0  0  0  0  0  0  0  0  0  0  0
   22.1035  -20.8035  -14.5795 C   0  0  0  0  0  0  0  0  0  0  0  0
   22.1992  -20.8693  -13.3202 O   0  0  0  0  0  0  0  0  0  0  0  0
   18.7242  -26.0249  -11.6698 N   0  0  0  0  0  0  0  0  0  0  0  0
   21.2421  -19.7681  -15.0685 C   0  0  2  0  0  0  0  0  0  0  0  0
   20.6154  -18.8437  -14.1573 C   0  0  0  0  0  0  0  0  0  0  0  0
   20.4054  -17.5402  -14.8196 C   0  0  0  0  0  0  0  0  0  0  0  0
   19.7299  -16.4897  -14.0104 C   0  0  0  0  0  0  0  0  0  0  0  0
   19.4982  -15.2128  -14.7044 O   0  0  0  0  0  0  0  0  0  0  0  0
   18.5637  -14.3979  -14.4411 C   0  0  0  0  0  0  0  0  0  0  0  0
   19.3768  -19.4656  -13.6421 O   0  0  0  0  0  0  0  0  0  0  0  0
   18.8101  -19.1737  -12.4073 O   0  0  0  0  0  0  0  0  0  0  0  0
   20.3630  -14.8503  -15.7366 O   0  0  0  0  0  0  0  0  0  0  0  0
  2  1  1  6
  3  4  1  0
  3  2  1  0
  4  5  2  0
  5  6  1  0
  7  6  1  0
  8  7  2  0
  9  8  1  0
 10 11  1  0
 10  9  2  0
 11 12  2  0
 12  4  1  0
 12  7  1  0
 13  2  1  0
 13 14  2  0
 15 16  1  0
 16 17  2  0
 18 16  1  0
 18 19  1  0
 20 21  1  0
 20 19  1  0
 22 21  1  1
 22 23  1  0
 23 13  1  0
 24 22  1  0
 25 24  2  0
 26 24  1  0
 27 26  1  0
 27 28  1  6
 29 28  1  0
 30 34  1  0
 30 29  1  0
 31 30  2  0
 32 27  1  0
 32 33  1  0
 35 32  2  0
M  END
$$$$
