WRE.pdb
     RDKit          3D

 35 36  0  0  1  0  0  0  0  0999 V2000
   27.3951  -19.3987  -17.7835 N   0  0  0  0  0  0  0  0  0  0  0  0
   27.0544  -18.8585  -16.4493 C   0  0  1  0  0  0  0  0  0  0  0  0
   26.3916  -17.5527  -16.7176 C   0  0  0  0  0  0  0  0  0  0  0  0
   27.2344  -16.4774  -17.2580 C   0  0  0  0  0  0  0  0  0  0  0  0
   27.8896  -16.3616  -18.4486 C   0  0  0  0  0  0  0  0  0  0  0  0
   28.5331  -15.1783  -18.4630 N   0  0  0  0  0  0  0  0  0  0  0  0
   28.3000  -14.5485  -17.3181 C   0  0  0  0  0  0  0  0  0  0  0  0
   28.7108  -13.3200  -16.8270 C   0  0  0  0  0  0  0  0  0  0  0  0
   28.3103  -12.8851  -15.5666 C   0  0  0  0  0  0  0  0  0  0  0  0
   27.4976  -13.6645  -14.7774 C   0  0  0  0  0  0  0  0  0  0  0  0
   27.0847  -14.8864  -15.2552 C   0  0  0  0  0  0  0  0  0  0  0  0
   27.4883  -15.3112  -16.5122 C   0  0  0  0  0  0  0  0  0  0  0  0
   26.1949  -19.8797  -15.7996 C   0  0  0  0  0  0  0  0  0  0  0  0
   25.3241  -20.5407  -16.4599 O   0  0  0  0  0  0  0  0  0  0  0  0
   24.3318  -19.5941   -8.9387 N   0  0  0  0  0  0  0  0  0  0  0  0
   24.5478  -20.9876   -8.8031 C   0  0  0  0  0  0  0  0  0  0  0  0
   23.7373  -21.7213   -8.0921 N   0  0  0  0  0  0  0  0  0  0  0  0
   25.6559  -21.5811   -9.4506 N   0  0  0  0  0  0  0  0  0  0  0  0
   26.6231  -20.7735  -10.1635 C   0  0  0  0  0  0  0  0  0  0  0  0
   26.0759  -20.3160  -11.4843 C   0  0  0  0  0  0  0  0  0  0  0  0
   25.7307  -21.4733  -12.3904 C   0  0  0  0  0  0  0  0  0  0  0  0
   25.2699  -21.0127  -13.7188 C   0  0  2  0  0  0  0  0  0  0  0  0
   26.2749  -20.1959  -14.4126 N   0  0  0  0  0  0  0  0  0  0  0  0
   23.9438  -20.4168  -13.8306 C   0  0  0  0  0  0  0  0  0  0  0  0
   23.6936  -19.2021  -13.5833 O   0  0  0  0  0  0  0  0  0  0  0  0
   23.8871  -22.7319   -7.9502 N   0  0  0  0  0  0  0  0  0  0  0  0
   22.8128  -21.1985  -14.2345 C   0  0  2  0  0  0  0  0  0  0  0  0
   21.4974  -20.6117  -14.2899 C   0  0  0  0  0  0  0  0  0  0  0  0
   20.6105  -21.4310  -15.1407 C   0  0  0  0  0  0  0  0  0  0  0  0
   19.2030  -20.9649  -15.2686 C   0  0  0  0  0  0  0  0  0  0  0  0
   18.3457  -21.7838  -16.1405 O   0  0  0  0  0  0  0  0  0  0  0  0
   18.7012  -22.8564  -16.7148 C   0  0  0  0  0  0  0  0  0  0  0  0
   21.0093  -20.4320  -12.9058 O   0  0  0  0  0  0  0  0  0  0  0  0
   20.1920  -19.3861  -12.4944 O   0  0  0  0  0  0  0  0  0  0  0  0
   17.0346  -21.3659  -16.3667 O   0  0  0  0  0  0  0  0  0  0  0  0
  2  1  1  6
  3  4  1  0
  3  2  1  0
  4  5  2  0
  5  6  1  0
  7  6  1  0
  8  7  2  0
  9  8  1  0
 10 11  1  0
 10  9  2  0
 11 12  2  0
 12  4  1  0
 12  7  1  0
 13  2  1  0
 13 14  2  0
 15 16  1  0
 16 17  2  0
 18 16  1  0
 18 19  1  0
 20 21  1  0
 20 19  1  0
 22 21  1  1
 22 23  1  0
 23 13  1  0
 24 22  1  0
 25 24  2  0
 26 24  1  0
 27 26  1  0
 27 28  1  6
 29 28  1  0
 30 34  1  0
 30 29  1  0
 31 30  2  0
 32 27  1  0
 32 33  1  0
 35 32  2  0
M  END
$$$$
