GKL.pdb
     RDKit          3D

 22 21  0  0  1  0  0  0  0  0999 V2000
   20.7064  -15.1792  -17.9345 N   0  0  0  0  0  0  0  0  0  0  0  0
   19.6535  -14.2165  -17.8048 C   0  0  0  0  0  0  0  0  0  0  0  0
   20.1776  -12.8204  -17.7795 C   0  0  0  0  0  0  0  0  0  0  0  0
   21.3145  -12.6082  -18.3105 O   0  0  0  0  0  0  0  0  0  0  0  0
   19.4093  -11.8074  -17.1802 N   0  0  0  0  0  0  0  0  0  0  0  0
   19.8280  -10.4195  -17.3193 C   0  0  1  0  0  0  0  0  0  0  0  0
   18.6327   -9.5562  -16.9880 C   0  0  0  0  0  0  0  0  0  0  0  0
   18.9594   -8.1101  -17.1394 C   0  0  0  0  0  0  0  0  0  0  0  0
   17.7727   -7.2167  -16.8250 C   0  0  0  0  0  0  0  0  0  0  0  0
   18.2431   -5.7648  -16.9856 C   0  0  0  0  0  0  0  0  0  0  0  0
   17.1834   -4.8838  -16.5687 N   0  0  0  0  0  0  0  0  0  0  0  0
   20.9642  -10.1266  -16.4101 C   0  0  0  0  0  0  0  0  0  0  0  0
   20.9478  -10.4755  -15.2165 O   0  0  0  0  0  0  0  0  0  0  0  0
   25.5259  -10.3482  -14.2942 C   0  0  0  0  0  0  0  0  0  0  0  0
   25.6213  -10.1272  -15.7977 C   0  0  2  0  0  0  0  0  0  0  0  0
   26.6321   -9.1084  -16.1995 C   0  0  0  0  0  0  0  0  0  0  0  0
   24.3136  -10.0918  -16.4835 C   0  0  0  0  0  0  0  0  0  0  0  0
   23.2804   -9.1323  -16.0701 C   0  0  2  0  0  0  0  0  0  0  0  0
   22.0912   -9.4393  -16.8977 N   0  0  0  0  0  0  0  0  0  0  0  0
   23.5738   -7.7126  -16.0824 C   0  0  0  0  0  0  0  0  0  0  0  0
   23.4556   -7.0587  -17.1495 O   0  0  0  0  0  0  0  0  0  0  0  0
   23.9854   -6.9825  -14.9880 O   0  0  0  0  0  0  0  0  0  0  0  0
  2  1  1  0
  3  2  1  0
  4  3  2  0
  5  3  1  0
  6  5  1  0
  6  7  1  1
  8  7  1  0
  9  8  1  0
 10  9  1  0
 11 10  1  0
 12  6  1  0
 12 19  1  0
 13 12  2  0
 15 14  1  1
 16 15  1  0
 17 15  1  0
 18 17  1  6
 18 19  1  0
 18 20  1  0
 20 21  2  0
 20 22  1  0
M  END
$$$$
