GKL.pdb
     RDKit          3D

 22 21  0  0  1  0  0  0  0  0999 V2000
   18.5350    3.4909   -4.1286 N   0  0  0  0  0  0  0  0  0  0  0  0
   19.6334    4.4105   -4.1332 C   0  0  0  0  0  0  0  0  0  0  0  0
   20.9166    3.7409   -4.4928 C   0  0  0  0  0  0  0  0  0  0  0  0
   20.8671    2.5147   -4.8297 O   0  0  0  0  0  0  0  0  0  0  0  0
   22.1134    4.4766   -4.4471 N   0  0  0  0  0  0  0  0  0  0  0  0
   23.3612    3.8311   -4.8310 C   0  0  1  0  0  0  0  0  0  0  0  0
   24.1846    4.8563   -5.5759 C   0  0  0  0  0  0  0  0  0  0  0  0
   23.9066    4.8043   -7.0391 C   0  0  0  0  0  0  0  0  0  0  0  0
   24.6825    5.8576   -7.8094 C   0  0  0  0  0  0  0  0  0  0  0  0
   24.3713    5.6519   -9.2981 C   0  0  0  0  0  0  0  0  0  0  0  0
   25.1236    6.6087  -10.0670 N   0  0  0  0  0  0  0  0  0  0  0  0
   24.0824    3.3402   -3.6300 C   0  0  0  0  0  0  0  0  0  0  0  0
   24.0993    3.9917   -2.5709 O   0  0  0  0  0  0  0  0  0  0  0  0
   24.9263   -1.8116   -0.8811 C   0  0  0  0  0  0  0  0  0  0  0  0
   25.2354   -0.3210   -0.8489 C   0  0  2  0  0  0  0  0  0  0  0  0
   24.9892    0.3226    0.4725 C   0  0  0  0  0  0  0  0  0  0  0  0
   24.7904    0.4105   -2.0526 C   0  0  0  0  0  0  0  0  0  0  0  0
   25.5493    1.5685   -2.5446 C   0  0  2  0  0  0  0  0  0  0  0  0
   24.7662    2.1112   -3.6783 N   0  0  0  0  0  0  0  0  0  0  0  0
   26.9459    1.4121   -2.9008 C   0  0  0  0  0  0  0  0  0  0  0  0
   27.2685    1.2318   -4.1024 O   0  0  0  0  0  0  0  0  0  0  0  0
   27.9963    1.4457   -2.0088 O   0  0  0  0  0  0  0  0  0  0  0  0
  2  1  1  0
  3  2  1  0
  4  3  2  0
  5  3  1  0
  6  5  1  0
  6  7  1  1
  8  7  1  0
  9  8  1  0
 10  9  1  0
 11 10  1  0
 12  6  1  0
 12 19  1  0
 13 12  2  0
 15 14  1  1
 16 15  1  0
 17 15  1  0
 18 17  1  6
 18 19  1  0
 18 20  1  0
 20 21  2  0
 20 22  1  0
M  END
$$$$
