GKL.pdb
     RDKit          3D

 22 21  0  0  1  0  0  0  0  0999 V2000
   26.1781  -20.1904   -9.0259 N   0  0  0  0  0  0  0  0  0  0  0  0
   26.0683  -21.3256   -9.8929 C   0  0  0  0  0  0  0  0  0  0  0  0
   25.4141  -20.9750  -11.1865 C   0  0  0  0  0  0  0  0  0  0  0  0
   24.9859  -19.7849  -11.3268 O   0  0  0  0  0  0  0  0  0  0  0  0
   25.2966  -21.9558  -12.1865 N   0  0  0  0  0  0  0  0  0  0  0  0
   24.6156  -21.6260  -13.4308 C   0  0  1  0  0  0  0  0  0  0  0  0
   25.0631  -22.6320  -14.4660 C   0  0  0  0  0  0  0  0  0  0  0  0
   26.4479  -22.3391  -14.9324 C   0  0  0  0  0  0  0  0  0  0  0  0
   26.9140  -23.3148  -15.9981 C   0  0  0  0  0  0  0  0  0  0  0  0
   28.2981  -22.8467  -16.4674 C   0  0  0  0  0  0  0  0  0  0  0  0
   28.1624  -21.5659  -17.1108 N   0  0  0  0  0  0  0  0  0  0  0  0
   23.1436  -21.6727  -13.2450 C   0  0  0  0  0  0  0  0  0  0  0  0
   22.6363  -21.9361  -12.1405 O   0  0  0  0  0  0  0  0  0  0  0  0
   20.5645  -16.9954  -13.8651 C   0  0  0  0  0  0  0  0  0  0  0  0
   20.3074  -18.3894  -13.3090 C   0  0  2  0  0  0  0  0  0  0  0  0
   19.7701  -18.3999  -11.9190 C   0  0  0  0  0  0  0  0  0  0  0  0
   21.3629  -19.3699  -13.6351 C   0  0  0  0  0  0  0  0  0  0  0  0
   21.0155  -20.6742  -14.2159 C   0  0  2  0  0  0  0  0  0  0  0  0
   22.2923  -21.4149  -14.3354 N   0  0  0  0  0  0  0  0  0  0  0  0
   20.2604  -20.7306  -15.4522 C   0  0  0  0  0  0  0  0  0  0  0  0
   20.8583  -20.6456  -16.5548 O   0  0  0  0  0  0  0  0  0  0  0  0
   18.8921  -20.8765  -15.5351 O   0  0  0  0  0  0  0  0  0  0  0  0
  2  1  1  0
  3  2  1  0
  4  3  2  0
  5  3  1  0
  6  5  1  0
  6  7  1  6
  8  7  1  0
  9  8  1  0
 10  9  1  0
 11 10  1  0
 12  6  1  0
 12 19  1  0
 13 12  2  0
 15 14  1  1
 16 15  1  0
 17 15  1  0
 18 17  1  6
 18 19  1  0
 18 20  1  0
 20 21  2  0
 20 22  1  0
M  END
$$$$
