GKL.pdb
     RDKit          3D

 22 21  0  0  1  0  0  0  0  0999 V2000
   14.1037  -12.9591  -13.9563 N   0  0  0  0  0  0  0  0  0  0  0  0
   14.2045  -11.5449  -14.1613 C   0  0  0  0  0  0  0  0  0  0  0  0
   15.4919  -11.1689  -14.8137 C   0  0  0  0  0  0  0  0  0  0  0  0
   16.4773  -11.9619  -14.6733 O   0  0  0  0  0  0  0  0  0  0  0  0
   15.5681   -9.9724  -15.5475 N   0  0  0  0  0  0  0  0  0  0  0  0
   16.7932   -9.6563  -16.2688 C   0  0  1  0  0  0  0  0  0  0  0  0
   16.4282   -8.6819  -17.3648 C   0  0  0  0  0  0  0  0  0  0  0  0
   15.7513   -9.3782  -18.4953 C   0  0  0  0  0  0  0  0  0  0  0  0
   15.4202   -8.4334  -19.6367 C   0  0  0  0  0  0  0  0  0  0  0  0
   14.7445   -9.2670  -20.7339 C   0  0  0  0  0  0  0  0  0  0  0  0
   14.2201   -8.3775  -21.7372 N   0  0  0  0  0  0  0  0  0  0  0  0
   17.8001   -9.0699  -15.3493 C   0  0  0  0  0  0  0  0  0  0  0  0
   17.4623   -8.3958  -14.3603 O   0  0  0  0  0  0  0  0  0  0  0  0
   23.2862   -8.2697  -14.4340 C   0  0  0  0  0  0  0  0  0  0  0  0
   22.5028   -9.4395  -13.8542 C   0  0  2  0  0  0  0  0  0  0  0  0
   23.3477  -10.6038  -13.4650 C   0  0  0  0  0  0  0  0  0  0  0  0
   21.2390   -9.7259  -14.5631 C   0  0  0  0  0  0  0  0  0  0  0  0
   20.2437   -8.6652  -14.7714 C   0  0  2  0  0  0  0  0  0  0  0  0
   19.1713   -9.2743  -15.5911 N   0  0  0  0  0  0  0  0  0  0  0  0
   20.6596   -7.3889  -15.3189 C   0  0  0  0  0  0  0  0  0  0  0  0
   20.9433   -6.4391  -14.5457 O   0  0  0  0  0  0  0  0  0  0  0  0
   20.7798   -7.1084  -16.6632 O   0  0  0  0  0  0  0  0  0  0  0  0
  2  1  1  0
  3  2  1  0
  4  3  2  0
  5  3  1  0
  6  5  1  0
  6  7  1  6
  8  7  1  0
  9  8  1  0
 10  9  1  0
 11 10  1  0
 12  6  1  0
 12 19  1  0
 13 12  2  0
 15 14  1  6
 16 15  1  0
 17 15  1  0
 18 17  1  6
 18 19  1  0
 18 20  1  0
 20 21  2  0
 20 22  1  0
M  END
$$$$
