GKL.pdb
     RDKit          3D

 22 21  0  0  1  0  0  0  0  0999 V2000
   15.6346  -23.7854   -3.3926 N   0  0  0  0  0  0  0  0  0  0  0  0
   15.1534  -24.0427   -2.0680 C   0  0  0  0  0  0  0  0  0  0  0  0
   14.8428  -22.7813   -1.3354 C   0  0  0  0  0  0  0  0  0  0  0  0
   15.6444  -21.8035   -1.4794 O   0  0  0  0  0  0  0  0  0  0  0  0
   13.6950  -22.7200   -0.5263 N   0  0  0  0  0  0  0  0  0  0  0  0
   13.3872  -21.4844    0.1805 C   0  0  1  0  0  0  0  0  0  0  0  0
   11.9480  -21.5744    0.6328 C   0  0  0  0  0  0  0  0  0  0  0  0
   11.4121  -20.2282    0.9814 C   0  0  0  0  0  0  0  0  0  0  0  0
   11.0031  -19.4364   -0.2478 C   0  0  0  0  0  0  0  0  0  0  0  0
   10.4975  -18.0717    0.2393 C   0  0  0  0  0  0  0  0  0  0  0  0
   10.1590  -17.2658   -0.9046 N   0  0  0  0  0  0  0  0  0  0  0  0
   14.2988  -21.3079    1.3385 C   0  0  0  0  0  0  0  0  0  0  0  0
   14.7317  -22.2821    1.9789 O   0  0  0  0  0  0  0  0  0  0  0  0
   18.5211  -20.4207    2.6402 C   0  0  0  0  0  0  0  0  0  0  0  0
   17.8838  -19.3111    1.8150 C   0  0  2  0  0  0  0  0  0  0  0  0
   18.8525  -18.3002    1.3043 C   0  0  0  0  0  0  0  0  0  0  0  0
   16.6084  -18.8098    2.3662 C   0  0  0  0  0  0  0  0  0  0  0  0
   15.5950  -19.7461    2.8714 C   0  0  2  0  0  0  0  0  0  0  0  0
   14.6897  -20.0141    1.7304 N   0  0  0  0  0  0  0  0  0  0  0  0
   14.8454  -19.4152    4.0673 C   0  0  0  0  0  0  0  0  0  0  0  0
   13.7548  -18.7973    3.9710 O   0  0  0  0  0  0  0  0  0  0  0  0
   15.2316  -19.7291    5.3528 O   0  0  0  0  0  0  0  0  0  0  0  0
  2  1  1  0
  3  2  1  0
  4  3  2  0
  5  3  1  0
  6  5  1  0
  6  7  1  1
  8  7  1  0
  9  8  1  0
 10  9  1  0
 11 10  1  0
 12  6  1  0
 12 19  1  0
 13 12  2  0
 15 14  1  1
 16 15  1  0
 17 15  1  0
 18 17  1  6
 18 19  1  0
 18 20  1  0
 20 21  2  0
 20 22  1  0
M  END
$$$$
