GKL.pdb
     RDKit          3D

 22 21  0  0  1  0  0  0  0  0999 V2000
   27.6813  -22.6498  -17.0366 N   0  0  0  0  0  0  0  0  0  0  0  0
   27.7383  -21.5582  -16.1105 C   0  0  0  0  0  0  0  0  0  0  0  0
   26.7779  -21.7357  -14.9834 C   0  0  0  0  0  0  0  0  0  0  0  0
   25.7779  -22.4987  -15.1760 O   0  0  0  0  0  0  0  0  0  0  0  0
   27.0089  -21.0646  -13.7701 N   0  0  0  0  0  0  0  0  0  0  0  0
   25.9979  -21.1179  -12.7232 C   0  0  1  0  0  0  0  0  0  0  0  0
   26.6345  -20.5882  -11.4590 C   0  0  0  0  0  0  0  0  0  0  0  0
   25.7324  -20.7749  -10.2876 C   0  0  0  0  0  0  0  0  0  0  0  0
   26.3345  -20.2280   -9.0056 C   0  0  0  0  0  0  0  0  0  0  0  0
   25.3810  -20.6001   -7.8621 C   0  0  0  0  0  0  0  0  0  0  0  0
   25.9063  -20.0745   -6.6289 N   0  0  0  0  0  0  0  0  0  0  0  0
   24.8143  -20.3067  -13.1031 C   0  0  0  0  0  0  0  0  0  0  0  0
   24.9361  -19.1948  -13.6468 O   0  0  0  0  0  0  0  0  0  0  0  0
   20.1234  -20.2137  -15.5721 C   0  0  0  0  0  0  0  0  0  0  0  0
   21.5505  -19.7893  -15.8908 C   0  0  2  0  0  0  0  0  0  0  0  0
   21.8930  -19.8478  -17.3400 C   0  0  0  0  0  0  0  0  0  0  0  0
   22.5557  -20.2983  -14.9356 C   0  0  0  0  0  0  0  0  0  0  0  0
   22.3010  -20.2514  -13.4892 C   0  0  2  0  0  0  0  0  0  0  0  0
   23.5197  -20.7957  -12.8477 N   0  0  0  0  0  0  0  0  0  0  0  0
   21.1056  -20.8705  -12.9510 C   0  0  0  0  0  0  0  0  0  0  0  0
   20.1388  -20.1533  -12.5885 O   0  0  0  0  0  0  0  0  0  0  0  0
   20.9218  -22.2277  -12.7949 O   0  0  0  0  0  0  0  0  0  0  0  0
  2  1  1  0
  3  2  1  0
  4  3  2  0
  5  3  1  0
  6  5  1  0
  6  7  1  1
  8  7  1  0
  9  8  1  0
 10  9  1  0
 11 10  1  0
 12  6  1  0
 12 19  1  0
 13 12  2  0
 15 14  1  6
 16 15  1  0
 17 15  1  0
 18 17  1  6
 18 19  1  0
 18 20  1  0
 20 21  2  0
 20 22  1  0
M  END
$$$$
