GKL.pdb
     RDKit          3D

 22 21  0  0  1  0  0  0  0  0999 V2000
   29.1997  -25.3396  -16.6488 N   0  0  0  0  0  0  0  0  0  0  0  0
   28.3050  -24.4018  -17.2589 C   0  0  0  0  0  0  0  0  0  0  0  0
   28.0900  -23.2008  -16.4012 C   0  0  0  0  0  0  0  0  0  0  0  0
   28.5558  -23.2312  -15.2173 O   0  0  0  0  0  0  0  0  0  0  0  0
   27.3924  -22.0979  -16.9234 N   0  0  0  0  0  0  0  0  0  0  0  0
   27.1661  -20.9335  -16.0785 C   0  0  1  0  0  0  0  0  0  0  0  0
   26.8108  -19.7816  -16.9900 C   0  0  0  0  0  0  0  0  0  0  0  0
   28.0355  -19.1639  -17.5729 C   0  0  0  0  0  0  0  0  0  0  0  0
   27.7133  -17.9721  -18.4565 C   0  0  0  0  0  0  0  0  0  0  0  0
   29.0461  -17.4293  -18.9895 C   0  0  0  0  0  0  0  0  0  0  0  0
   28.7863  -16.2583  -19.7859 N   0  0  0  0  0  0  0  0  0  0  0  0
   26.0748  -21.2005  -15.1084 C   0  0  0  0  0  0  0  0  0  0  0  0
   25.1804  -22.0305  -15.3489 O   0  0  0  0  0  0  0  0  0  0  0  0
   23.7758  -20.3556  -10.1536 C   0  0  0  0  0  0  0  0  0  0  0  0
   25.2172  -20.8402  -10.2299 C   0  0  2  0  0  0  0  0  0  0  0  0
   26.0254  -20.5381   -9.0148 C   0  0  0  0  0  0  0  0  0  0  0  0
   25.8570  -20.6166  -11.5424 C   0  0  0  0  0  0  0  0  0  0  0  0
   25.1051  -20.8355  -12.7856 C   0  0  2  0  0  0  0  0  0  0  0  0
   26.0402  -20.5051  -13.8855 N   0  0  0  0  0  0  0  0  0  0  0  0
   23.8245  -20.1824  -12.9738 C   0  0  0  0  0  0  0  0  0  0  0  0
   23.7815  -19.0033  -13.4078 O   0  0  0  0  0  0  0  0  0  0  0  0
   22.5994  -20.7576  -12.7124 O   0  0  0  0  0  0  0  0  0  0  0  0
  2  1  1  0
  3  2  1  0
  4  3  2  0
  5  3  1  0
  6  5  1  0
  6  7  1  6
  8  7  1  0
  9  8  1  0
 10  9  1  0
 11 10  1  0
 12  6  1  0
 12 19  1  0
 13 12  2  0
 15 14  1  6
 16 15  1  0
 17 15  1  0
 18 17  1  1
 18 19  1  0
 18 20  1  0
 20 21  2  0
 20 22  1  0
M  END
$$$$
