GKL.pdb
     RDKit          3D

 22 21  0  0  1  0  0  0  0  0999 V2000
   24.4670  -20.2148   -8.1269 N   0  0  0  0  0  0  0  0  0  0  0  0
   25.2563  -21.0016   -9.0271 C   0  0  0  0  0  0  0  0  0  0  0  0
   25.0976  -20.5541  -10.4409 C   0  0  0  0  0  0  0  0  0  0  0  0
   24.4153  -19.5009  -10.6525 O   0  0  0  0  0  0  0  0  0  0  0  0
   25.6975  -21.2997  -11.4705 N   0  0  0  0  0  0  0  0  0  0  0  0
   25.5432  -20.8607  -12.8505 C   0  0  1  0  0  0  0  0  0  0  0  0
   26.6769  -21.4694  -13.6430 C   0  0  0  0  0  0  0  0  0  0  0  0
   27.3267  -20.4506  -14.5152 C   0  0  0  0  0  0  0  0  0  0  0  0
   27.3726  -20.8842  -15.9695 C   0  0  0  0  0  0  0  0  0  0  0  0
   28.1532  -19.8098  -16.7386 C   0  0  0  0  0  0  0  0  0  0  0  0
   28.2376  -20.1975  -18.1226 N   0  0  0  0  0  0  0  0  0  0  0  0
   24.2278  -21.2902  -13.3877 C   0  0  0  0  0  0  0  0  0  0  0  0
   23.7500  -22.4068  -13.1201 O   0  0  0  0  0  0  0  0  0  0  0  0
   20.1556  -21.6325  -12.5224 C   0  0  0  0  0  0  0  0  0  0  0  0
   20.6396  -20.2255  -12.1995 C   0  0  2  0  0  0  0  0  0  0  0  0
   19.5966  -19.3465  -11.5990 C   0  0  0  0  0  0  0  0  0  0  0  0
   21.5066  -19.6353  -13.2396 C   0  0  0  0  0  0  0  0  0  0  0  0
   22.0197  -20.4625  -14.3404 C   0  0  2  0  0  0  0  0  0  0  0  0
   23.4952  -20.4235  -14.2197 N   0  0  0  0  0  0  0  0  0  0  0  0
   21.5986  -20.1882  -15.7002 C   0  0  0  0  0  0  0  0  0  0  0  0
   22.2363  -19.3587  -16.3972 O   0  0  0  0  0  0  0  0  0  0  0  0
   20.5213  -20.7773  -16.3267 O   0  0  0  0  0  0  0  0  0  0  0  0
  2  1  1  0
  3  2  1  0
  4  3  2  0
  5  3  1  0
  6  5  1  0
  6  7  1  6
  8  7  1  0
  9  8  1  0
 10  9  1  0
 11 10  1  0
 12  6  1  0
 12 19  1  0
 13 12  2  0
 15 14  1  6
 16 15  1  0
 17 15  1  0
 18 17  1  1
 18 19  1  0
 18 20  1  0
 20 21  2  0
 20 22  1  0
M  END
$$$$
