MGC.pdb
     RDKit          3D

 19 18  0  0  1  0  0  0  0  0999 V2000
    7.9793  -11.8085   20.6500 C   0  0  0  0  0  0  0  0  0  0  0  0
    7.5623  -13.0865   19.4248 S   0  0  0  0  0  0  0  0  0  0  0  0
    6.9299  -14.5178   20.3327 C   0  0  0  0  0  0  0  0  0  0  0  0
    7.6406  -14.5865   21.6773 C   0  0  0  0  0  0  0  0  0  0  0  0
    8.6284  -15.7603   21.6297 C   0  0  2  0  0  0  0  0  0  0  0  0
    7.9431  -16.9751   21.3112 N   0  0  0  0  0  0  0  0  0  0  0  0
    9.1969  -15.8733   22.9893 C   0  0  0  0  0  0  0  0  0  0  0  0
    9.1303  -14.8867   23.7591 O   0  0  0  0  0  0  0  0  0  0  0  0
    9.8073  -17.0526   23.4392 N   0  0  0  0  0  0  0  0  0  0  0  0
   11.1926  -17.0371   23.8039 C   0  0  0  0  0  0  0  0  0  0  0  0
   11.3446  -16.4321   25.1335 C   0  0  0  0  0  0  0  0  0  0  0  0
   12.4761  -16.3481   25.6513 O   0  0  0  0  0  0  0  0  0  0  0  0
   10.2124  -15.9372   25.8443 N   0  0  0  0  0  0  0  0  0  0  0  0
   10.4329  -15.2876   27.1048 C   0  0  1  0  0  0  0  0  0  0  0  0
    9.3115  -14.2842   27.3290 C   0  0  0  0  0  0  0  0  0  0  0  0
    9.6608  -13.3845   28.8639 S   0  0  0  0  0  0  0  0  0  0  0  0
   10.5131  -16.2780   28.1802 C   0  0  0  0  0  0  0  0  0  0  0  0
   11.2441  -16.0788   29.3449 O   0  0  0  0  0  0  0  0  0  0  0  0
    9.9038  -17.3622   28.0691 O   0  0  0  0  0  0  0  0  0  0  0  0
  2  1  1  0
  3  2  1  0
  4  3  1  0
  5  4  1  0
  5  6  1  1
  7  5  1  0
  7  8  2  0
  9  7  1  0
 10  9  1  0
 10 11  1  0
 11 13  1  0
 11 12  2  0
 13 14  1  0
 14 15  1  1
 15 16  1  0
 17 14  1  0
 17 18  1  0
 19 17  2  0
M  END
$$$$
