MGC.pdb
     RDKit          3D

 19 18  0  0  1  0  0  0  0  0999 V2000
    7.9002  -11.4754   20.2228 C   0  0  0  0  0  0  0  0  0  0  0  0
    7.1614  -12.9971   19.5544 S   0  0  0  0  0  0  0  0  0  0  0  0
    8.2442  -14.3705   20.0170 C   0  0  0  0  0  0  0  0  0  0  0  0
    7.5660  -15.6733   19.6163 C   0  0  0  0  0  0  0  0  0  0  0  0
    7.7047  -16.6570   20.7864 C   0  0  2  0  0  0  0  0  0  0  0  0
    6.7220  -16.3802   21.7887 N   0  0  0  0  0  0  0  0  0  0  0  0
    9.0488  -16.4284   21.3573 C   0  0  0  0  0  0  0  0  0  0  0  0
   10.0563  -16.6551   20.6475 O   0  0  0  0  0  0  0  0  0  0  0  0
    9.2254  -15.9656   22.6688 N   0  0  0  0  0  0  0  0  0  0  0  0
   10.5494  -15.7341   23.1646 C   0  0  0  0  0  0  0  0  0  0  0  0
   10.4786  -15.2526   24.5503 C   0  0  0  0  0  0  0  0  0  0  0  0
   11.5288  -15.0642   25.1961 O   0  0  0  0  0  0  0  0  0  0  0  0
    9.2212  -14.9960   25.1709 N   0  0  0  0  0  0  0  0  0  0  0  0
    9.2135  -14.5925   26.5481 C   0  0  1  0  0  0  0  0  0  0  0  0
    7.8635  -13.9613   26.8545 C   0  0  0  0  0  0  0  0  0  0  0  0
    7.4714  -12.7977   25.5205 S   0  0  0  0  0  0  0  0  0  0  0  0
    9.4993  -15.7372   27.4151 C   0  0  0  0  0  0  0  0  0  0  0  0
    9.5846  -17.0430   26.9477 O   0  0  0  0  0  0  0  0  0  0  0  0
    9.6789  -15.5575   28.6376 O   0  0  0  0  0  0  0  0  0  0  0  0
  2  1  1  0
  3  2  1  0
  4  3  1  0
  5  4  1  0
  5  6  1  1
  7  5  1  0
  7  8  2  0
  9  7  1  0
 10  9  1  0
 10 11  1  0
 11 13  1  0
 11 12  2  0
 13 14  1  0
 14 15  1  1
 15 16  1  0
 17 14  1  0
 17 18  1  0
 19 17  2  0
M  END
$$$$
