MGC.pdb
     RDKit          3D

 19 18  0  0  1  0  0  0  0  0999 V2000
    6.9875  -11.4432   27.0167 C   0  0  0  0  0  0  0  0  0  0  0  0
    5.4862  -12.0623   26.1975 S   0  0  0  0  0  0  0  0  0  0  0  0
    5.8414  -13.7382   25.6160 C   0  0  0  0  0  0  0  0  0  0  0  0
    7.1957  -13.7287   24.9207 C   0  0  0  0  0  0  0  0  0  0  0  0
    7.3015  -15.0059   24.0759 C   0  0  2  0  0  0  0  0  0  0  0  0
    6.6325  -16.0902   24.7268 N   0  0  0  0  0  0  0  0  0  0  0  0
    8.7432  -15.3186   23.9840 C   0  0  0  0  0  0  0  0  0  0  0  0
    9.5136  -14.4814   23.4588 O   0  0  0  0  0  0  0  0  0  0  0  0
    9.2699  -16.5244   24.4678 N   0  0  0  0  0  0  0  0  0  0  0  0
   10.6564  -16.8224   24.2647 C   0  0  0  0  0  0  0  0  0  0  0  0
   11.3799  -16.6876   25.5357 C   0  0  0  0  0  0  0  0  0  0  0  0
   12.6202  -16.8162   25.5602 O   0  0  0  0  0  0  0  0  0  0  0  0
   10.6821  -16.4107   26.7474 N   0  0  0  0  0  0  0  0  0  0  0  0
   11.4220  -16.4306   27.9769 C   0  0  1  0  0  0  0  0  0  0  0  0
   10.9172  -15.2976   28.8580 C   0  0  0  0  0  0  0  0  0  0  0  0
   10.5776  -13.8681   27.7957 S   0  0  0  0  0  0  0  0  0  0  0  0
   11.2940  -17.7365   28.6264 C   0  0  0  0  0  0  0  0  0  0  0  0
   11.9526  -18.0683   29.8041 O   0  0  0  0  0  0  0  0  0  0  0  0
   10.5634  -18.6117   28.1170 O   0  0  0  0  0  0  0  0  0  0  0  0
  2  1  1  0
  3  2  1  0
  4  3  1  0
  5  4  1  0
  5  6  1  1
  7  5  1  0
  7  8  2  0
  9  7  1  0
 10  9  1  0
 10 11  1  0
 11 13  1  0
 11 12  2  0
 13 14  1  0
 14 15  1  1
 15 16  1  0
 17 14  1  0
 17 18  1  0
 19 17  2  0
M  END
$$$$
