MGC.pdb
     RDKit          3D

 19 18  0  0  1  0  0  0  0  0999 V2000
    6.6685  -12.0201   19.2558 C   0  0  0  0  0  0  0  0  0  0  0  0
    7.8951  -12.5054   20.5081 S   0  0  0  0  0  0  0  0  0  0  0  0
    8.1996  -14.2773   20.3064 C   0  0  0  0  0  0  0  0  0  0  0  0
    9.1621  -14.7268   21.3969 C   0  0  0  0  0  0  0  0  0  0  0  0
    9.4015  -16.2330   21.2238 C   0  0  2  0  0  0  0  0  0  0  0  0
    8.1861  -16.9578   21.4345 N   0  0  0  0  0  0  0  0  0  0  0  0
   10.3750  -16.6162   22.2678 C   0  0  0  0  0  0  0  0  0  0  0  0
   11.5457  -16.1746   22.1977 O   0  0  0  0  0  0  0  0  0  0  0  0
   10.0238  -17.4588   23.3319 N   0  0  0  0  0  0  0  0  0  0  0  0
   11.0105  -17.8143   24.3077 C   0  0  0  0  0  0  0  0  0  0  0  0
   11.1499  -16.7271   25.2852 C   0  0  0  0  0  0  0  0  0  0  0  0
   12.1554  -15.9899   25.2541 O   0  0  0  0  0  0  0  0  0  0  0  0
   10.1480  -16.5010   26.2736 N   0  0  0  0  0  0  0  0  0  0  0  0
   10.4111  -15.5302   27.2974 C   0  0  1  0  0  0  0  0  0  0  0  0
    9.2463  -14.5524   27.3407 C   0  0  0  0  0  0  0  0  0  0  0  0
    9.5384  -13.3901   28.7012 S   0  0  0  0  0  0  0  0  0  0  0  0
   10.6252  -16.1939   28.5847 C   0  0  0  0  0  0  0  0  0  0  0  0
   11.3046  -15.6017   29.6423 O   0  0  0  0  0  0  0  0  0  0  0  0
   10.1856  -17.3485   28.7660 O   0  0  0  0  0  0  0  0  0  0  0  0
  2  1  1  0
  3  2  1  0
  4  3  1  0
  5  4  1  0
  5  6  1  1
  7  5  1  0
  7  8  2  0
  9  7  1  0
 10  9  1  0
 10 11  1  0
 11 13  1  0
 11 12  2  0
 13 14  1  0
 14 15  1  1
 15 16  1  0
 17 14  1  0
 17 18  1  0
 19 17  2  0
M  END
$$$$
