MGC.pdb
     RDKit          3D

 19 18  0  0  1  0  0  0  0  0999 V2000
    5.7069  -12.2427   28.0159 C   0  0  0  0  0  0  0  0  0  0  0  0
    6.3551  -11.9544   26.3412 S   0  0  0  0  0  0  0  0  0  0  0  0
    7.3009  -13.4225   25.8690 C   0  0  0  0  0  0  0  0  0  0  0  0
    6.3518  -14.4145   25.2109 C   0  0  0  0  0  0  0  0  0  0  0  0
    7.1629  -15.6596   24.8260 C   0  0  2  0  0  0  0  0  0  0  0  0
    8.2133  -15.8814   25.7717 N   0  0  0  0  0  0  0  0  0  0  0  0
    7.7604  -15.3679   23.5060 C   0  0  0  0  0  0  0  0  0  0  0  0
    7.0193  -15.3465   22.4957 O   0  0  0  0  0  0  0  0  0  0  0  0
    9.1311  -15.1153   23.3551 N   0  0  0  0  0  0  0  0  0  0  0  0
    9.6780  -14.9433   22.0422 C   0  0  0  0  0  0  0  0  0  0  0  0
   10.8333  -15.8336   21.8700 C   0  0  0  0  0  0  0  0  0  0  0  0
   11.2927  -16.0403   20.7290 O   0  0  0  0  0  0  0  0  0  0  0  0
   11.4401  -16.4680   22.9930 N   0  0  0  0  0  0  0  0  0  0  0  0
   12.6546  -17.2032   22.7833 C   0  0  1  0  0  0  0  0  0  0  0  0
   13.6637  -16.7713   23.8368 C   0  0  0  0  0  0  0  0  0  0  0  0
   13.7340  -14.9596   23.8385 S   0  0  0  0  0  0  0  0  0  0  0  0
   12.3915  -18.6429   22.8257 C   0  0  0  0  0  0  0  0  0  0  0  0
   13.3971  -19.6013   22.7955 O   0  0  0  0  0  0  0  0  0  0  0  0
   11.2146  -19.0547   22.8925 O   0  0  0  0  0  0  0  0  0  0  0  0
  2  1  1  0
  3  2  1  0
  4  3  1  0
  5  4  1  0
  5  6  1  1
  7  5  1  0
  7  8  2  0
  9  7  1  0
 10  9  1  0
 10 11  1  0
 11 13  1  0
 11 12  2  0
 13 14  1  0
 14 15  1  1
 15 16  1  0
 17 14  1  0
 17 18  1  0
 19 17  2  0
M  END
$$$$
