MGC.pdb
     RDKit          3D

 19 18  0  0  1  0  0  0  0  0999 V2000
    5.3400  -11.6807   27.3292 C   0  0  0  0  0  0  0  0  0  0  0  0
    6.8348  -11.9744   26.3354 S   0  0  0  0  0  0  0  0  0  0  0  0
    6.4704  -13.3378   25.2035 C   0  0  0  0  0  0  0  0  0  0  0  0
    7.6826  -13.5568   24.3089 C   0  0  0  0  0  0  0  0  0  0  0  0
    7.5957  -14.9781   23.7358 C   0  0  2  0  0  0  0  0  0  0  0  0
    6.9043  -15.8400   24.6446 N   0  0  0  0  0  0  0  0  0  0  0  0
    8.9894  -15.4495   23.5950 C   0  0  0  0  0  0  0  0  0  0  0  0
    9.8203  -14.7200   23.0051 O   0  0  0  0  0  0  0  0  0  0  0  0
    9.4052  -16.6883   24.1029 N   0  0  0  0  0  0  0  0  0  0  0  0
   10.7762  -17.0824   23.9713 C   0  0  0  0  0  0  0  0  0  0  0  0
   11.4830  -16.8337   25.2344 C   0  0  0  0  0  0  0  0  0  0  0  0
   12.6988  -17.0959   25.3272 O   0  0  0  0  0  0  0  0  0  0  0  0
   10.7966  -16.2943   26.3613 N   0  0  0  0  0  0  0  0  0  0  0  0
   11.5217  -16.1460   27.5909 C   0  0  1  0  0  0  0  0  0  0  0  0
   11.3626  -14.7109   28.0705 C   0  0  0  0  0  0  0  0  0  0  0  0
    9.5917  -14.3239   28.1079 S   0  0  0  0  0  0  0  0  0  0  0  0
   11.0490  -17.1162   28.5803 C   0  0  0  0  0  0  0  0  0  0  0  0
   11.6408  -17.2817   29.8265 O   0  0  0  0  0  0  0  0  0  0  0  0
   10.0681  -17.8419   28.3152 O   0  0  0  0  0  0  0  0  0  0  0  0
  2  1  1  0
  3  2  1  0
  4  3  1  0
  5  4  1  0
  5  6  1  1
  7  5  1  0
  7  8  2  0
  9  7  1  0
 10  9  1  0
 10 11  1  0
 11 13  1  0
 11 12  2  0
 13 14  1  0
 14 15  1  1
 15 16  1  0
 17 14  1  0
 17 18  1  0
 19 17  2  0
M  END
$$$$
