MGC.pdb
     RDKit          3D

 19 18  0  0  1  0  0  0  0  0999 V2000
    9.2308  -14.0024   29.0892 C   0  0  0  0  0  0  0  0  0  0  0  0
   10.5727  -14.6224   28.0295 S   0  0  0  0  0  0  0  0  0  0  0  0
   10.5798  -16.4262   28.1684 C   0  0  0  0  0  0  0  0  0  0  0  0
    9.1535  -16.8943   28.4222 C   0  0  0  0  0  0  0  0  0  0  0  0
    8.9382  -18.1973   27.6401 C   0  0  2  0  0  0  0  0  0  0  0  0
    9.9958  -18.3923   26.6966 N   0  0  0  0  0  0  0  0  0  0  0  0
    7.6663  -18.0296   26.9060 C   0  0  0  0  0  0  0  0  0  0  0  0
    6.6716  -17.5682   27.5127 O   0  0  0  0  0  0  0  0  0  0  0  0
    7.5440  -18.3724   25.5521 N   0  0  0  0  0  0  0  0  0  0  0  0
    6.3244  -18.0852   24.8574 C   0  0  0  0  0  0  0  0  0  0  0  0
    6.4286  -16.7753   24.2015 C   0  0  0  0  0  0  0  0  0  0  0  0
    5.9918  -16.6250   23.0430 O   0  0  0  0  0  0  0  0  0  0  0  0
    7.0243  -15.6678   24.8727 N   0  0  0  0  0  0  0  0  0  0  0  0
    7.4031  -14.5246   24.0923 C   0  0  1  0  0  0  0  0  0  0  0  0
    7.0587  -13.2704   24.8818 C   0  0  0  0  0  0  0  0  0  0  0  0
    5.5852  -13.6206   25.8784 S   0  0  0  0  0  0  0  0  0  0  0  0
    8.8252  -14.5907   23.7503 C   0  0  0  0  0  0  0  0  0  0  0  0
    9.7008  -15.5116   24.3126 O   0  0  0  0  0  0  0  0  0  0  0  0
    9.2984  -13.7916   22.9157 O   0  0  0  0  0  0  0  0  0  0  0  0
  2  1  1  0
  3  2  1  0
  4  3  1  0
  5  4  1  0
  5  6  1  6
  7  5  1  0
  7  8  2  0
  9  7  1  0
 10  9  1  0
 10 11  1  0
 11 13  1  0
 11 12  2  0
 13 14  1  0
 14 15  1  1
 15 16  1  0
 17 14  1  0
 17 18  1  0
 19 17  2  0
M  END
$$$$
