MGC.pdb
     RDKit          3D

 19 18  0  0  1  0  0  0  0  0999 V2000
   10.6407  -16.2908   36.7530 C   0  0  0  0  0  0  0  0  0  0  0  0
   11.8621  -16.9149   35.5586 S   0  0  0  0  0  0  0  0  0  0  0  0
   11.0435  -17.0056   33.9478 C   0  0  0  0  0  0  0  0  0  0  0  0
    9.7750  -17.8338   34.0992 C   0  0  0  0  0  0  0  0  0  0  0  0
   10.1764  -19.3153   34.1043 C   0  0  2  0  0  0  0  0  0  0  0  0
   11.5956  -19.4471   33.9804 N   0  0  0  0  0  0  0  0  0  0  0  0
    9.5339  -19.9183   32.9176 C   0  0  0  0  0  0  0  0  0  0  0  0
    8.2936  -19.8078   32.7769 O   0  0  0  0  0  0  0  0  0  0  0  0
   10.2740  -20.6088   31.9476 N   0  0  0  0  0  0  0  0  0  0  0  0
    9.6478  -20.9844   30.7151 C   0  0  0  0  0  0  0  0  0  0  0  0
   10.1863  -20.1667   29.6204 C   0  0  0  0  0  0  0  0  0  0  0  0
    9.9812  -20.5018   28.4367 O   0  0  0  0  0  0  0  0  0  0  0  0
   10.9435  -18.9900   29.8923 N   0  0  0  0  0  0  0  0  0  0  0  0
   11.4582  -18.2419   28.7809 C   0  0  1  0  0  0  0  0  0  0  0  0
   11.5175  -16.7744   29.1778 C   0  0  0  0  0  0  0  0  0  0  0  0
    9.8198  -16.1931   29.4364 S   0  0  0  0  0  0  0  0  0  0  0  0
   12.7677  -18.7609   28.3813 C   0  0  0  0  0  0  0  0  0  0  0  0
   13.4351  -19.7604   29.0788 O   0  0  0  0  0  0  0  0  0  0  0  0
   13.3329  -18.2994   27.3681 O   0  0  0  0  0  0  0  0  0  0  0  0
  2  1  1  0
  3  2  1  0
  4  3  1  0
  5  4  1  0
  5  6  1  6
  7  5  1  0
  7  8  2  0
  9  7  1  0
 10  9  1  0
 10 11  1  0
 11 13  1  0
 11 12  2  0
 13 14  1  0
 14 15  1  1
 15 16  1  0
 17 14  1  0
 17 18  1  0
 19 17  2  0
M  END
$$$$
