FAK.pdb
     RDKit          3D

 26 26  0  0  1  0  0  0  0  0999 V2000
   20.0138  -12.5630  -18.4336 N   0  0  0  0  0  0  0  0  0  0  0  0
   20.9250  -11.4397  -18.5330 C   0  0  1  0  0  0  0  0  0  0  0  0
   21.0511  -11.0736  -19.9897 C   0  0  0  0  0  0  0  0  0  0  0  0
   21.8579  -12.0900  -20.7127 C   0  0  0  0  0  0  0  0  0  0  0  0
   23.2274  -12.1496  -20.5610 C   0  0  0  0  0  0  0  0  0  0  0  0
   23.9627  -13.0985  -21.2397 C   0  0  0  0  0  0  0  0  0  0  0  0
   23.3050  -13.9895  -22.0751 C   0  0  0  0  0  0  0  0  0  0  0  0
   21.9360  -13.9159  -22.2152 C   0  0  0  0  0  0  0  0  0  0  0  0
   21.2026  -12.9753  -21.5430 C   0  0  0  0  0  0  0  0  0  0  0  0
   20.4648  -10.3508  -17.6690 C   0  0  0  0  0  0  0  0  0  0  0  0
   19.2528   -9.9493  -17.7409 O   0  0  0  0  0  0  0  0  0  0  0  0
   21.8128   -8.3980  -14.7388 C   0  0  0  0  0  0  0  0  0  0  0  0
   20.7823   -8.6379  -15.8506 C   0  0  2  0  0  0  0  0  0  0  0  0
   21.2692   -9.6740  -16.7227 N   0  0  0  0  0  0  0  0  0  0  0  0
   20.5987   -7.3267  -16.5131 C   0  0  0  0  0  0  0  0  0  0  0  0
   21.3051   -6.9317  -17.4710 O   0  0  0  0  0  0  0  0  0  0  0  0
   19.5748   -6.4908  -16.0326 N   0  0  0  0  0  0  0  0  0  0  0  0
   19.3379   -5.1715  -16.7470 C   0  0  1  0  0  0  0  0  0  0  0  0
   17.8778   -4.9309  -16.6037 C   0  0  0  0  0  0  0  0  0  0  0  0
   17.2598   -3.7470  -17.1800 C   0  0  0  0  0  0  0  0  0  0  0  0
   15.8245   -3.4598  -16.9786 C   0  0  0  0  0  0  0  0  0  0  0  0
   15.4441   -2.1292  -17.6866 C   0  0  0  0  0  0  0  0  0  0  0  0
   14.1208   -1.7446  -17.2631 N   0  0  0  0  0  0  0  0  0  0  0  0
   20.1651   -4.2557  -15.8975 C   0  0  0  0  0  0  0  0  0  0  0  0
   20.7640   -3.0869  -16.2721 O   0  0  0  0  0  0  0  0  0  0  0  0
   20.3296   -4.6233  -14.6722 O   0  0  0  0  0  0  0  0  0  0  0  0
  2  1  1  6
  2 10  1  0
  3  2  1  0
  3  4  1  0
  4  5  2  0
  4  9  1  0
  5  6  1  0
  6  7  2  0
  8  7  1  0
  9  8  2  0
 10 11  2  0
 13 12  1  1
 13 15  1  0
 14 10  1  0
 14 13  1  0
 15 16  2  0
 17 15  1  0
 17 18  1  0
 18 24  1  0
 19 20  1  0
 18 19  1  1
 21 20  1  0
 22 23  1  0
 22 21  1  0
 24 25  1  0
 26 24  2  0
M  END
$$$$
