FAK.pdb
     RDKit          3D

 26 26  0  0  1  0  0  0  0  0999 V2000
   24.9358  -20.9438   -9.7672 N   0  0  0  0  0  0  0  0  0  0  0  0
   26.1241  -20.3114  -10.3057 C   0  0  1  0  0  0  0  0  0  0  0  0
   27.3247  -21.0402   -9.7585 C   0  0  0  0  0  0  0  0  0  0  0  0
   27.7870  -20.4059   -8.4973 C   0  0  0  0  0  0  0  0  0  0  0  0
   28.9501  -20.8163   -7.8801 C   0  0  0  0  0  0  0  0  0  0  0  0
   29.3656  -20.2182   -6.7090 C   0  0  0  0  0  0  0  0  0  0  0  0
   28.5975  -19.2001   -6.1632 C   0  0  0  0  0  0  0  0  0  0  0  0
   27.4381  -18.8023   -6.7930 C   0  0  0  0  0  0  0  0  0  0  0  0
   27.0223  -19.3938   -7.9557 C   0  0  0  0  0  0  0  0  0  0  0  0
   26.0471  -20.2762  -11.7674 C   0  0  0  0  0  0  0  0  0  0  0  0
   25.1150  -20.9096  -12.3718 O   0  0  0  0  0  0  0  0  0  0  0  0
   28.1110  -18.8905  -14.6149 C   0  0  0  0  0  0  0  0  0  0  0  0
   26.8606  -19.5738  -14.0448 C   0  0  2  0  0  0  0  0  0  0  0  0
   26.9446  -19.5773  -12.6081 N   0  0  0  0  0  0  0  0  0  0  0  0
   26.8327  -20.9237  -14.6521 C   0  0  0  0  0  0  0  0  0  0  0  0
   27.2689  -21.9492  -14.0771 O   0  0  0  0  0  0  0  0  0  0  0  0
   26.2855  -21.0475  -15.9418 N   0  0  0  0  0  0  0  0  0  0  0  0
   25.5379  -22.3261  -16.2789 C   0  0  1  0  0  0  0  0  0  0  0  0
   24.3810  -22.3346  -15.3452 C   0  0  0  0  0  0  0  0  0  0  0  0
   23.3543  -23.3602  -15.4437 C   0  0  0  0  0  0  0  0  0  0  0  0
   22.2248  -23.4041  -14.4921 C   0  0  0  0  0  0  0  0  0  0  0  0
   21.2369  -24.5360  -14.8914 C   0  0  0  0  0  0  0  0  0  0  0  0
   20.1245  -24.5203  -13.9746 N   0  0  0  0  0  0  0  0  0  0  0  0
   25.1416  -22.0380  -17.6947 C   0  0  0  0  0  0  0  0  0  0  0  0
   24.8880  -22.9399  -18.6884 O   0  0  0  0  0  0  0  0  0  0  0  0
   25.0336  -20.7906  -18.0043 O   0  0  0  0  0  0  0  0  0  0  0  0
  2  1  1  1
  2 10  1  0
  3  2  1  0
  3  4  1  0
  4  5  2  0
  4  9  1  0
  5  6  1  0
  6  7  2  0
  8  7  1  0
  9  8  2  0
 10 11  2  0
 13 12  1  6
 13 15  1  0
 14 10  1  0
 14 13  1  0
 15 16  2  0
 17 15  1  0
 17 18  1  0
 18 24  1  0
 19 20  1  0
 18 19  1  1
 21 20  1  0
 22 23  1  0
 22 21  1  0
 24 25  1  0
 26 24  2  0
M  END
$$$$
