FAK.pdb
     RDKit          3D

 26 26  0  0  1  0  0  0  0  0999 V2000
   21.0156  -12.3177  -18.9136 N   0  0  0  0  0  0  0  0  0  0  0  0
   22.2298  -11.7667  -18.3443 C   0  0  1  0  0  0  0  0  0  0  0  0
   22.9752  -11.0552  -19.4443 C   0  0  0  0  0  0  0  0  0  0  0  0
   23.3927  -12.0178  -20.4959 C   0  0  0  0  0  0  0  0  0  0  0  0
   22.8361  -11.9782  -21.7572 C   0  0  0  0  0  0  0  0  0  0  0  0
   23.2336  -12.8793  -22.7225 C   0  0  0  0  0  0  0  0  0  0  0  0
   24.1993  -13.8234  -22.4058 C   0  0  0  0  0  0  0  0  0  0  0  0
   24.7451  -13.8490  -21.1407 C   0  0  0  0  0  0  0  0  0  0  0  0
   24.3530  -12.9560  -20.1797 C   0  0  0  0  0  0  0  0  0  0  0  0
   21.8996  -10.9277  -17.1908 C   0  0  0  0  0  0  0  0  0  0  0  0
   20.8639  -10.1783  -17.2237 O   0  0  0  0  0  0  0  0  0  0  0  0
   23.3479  -10.2245  -13.7664 C   0  0  0  0  0  0  0  0  0  0  0  0
   22.3852   -9.9378  -14.9268 C   0  0  2  0  0  0  0  0  0  0  0  0
   22.6504  -10.8667  -15.9936 N   0  0  0  0  0  0  0  0  0  0  0  0
   22.6099   -8.5202  -15.2896 C   0  0  0  0  0  0  0  0  0  0  0  0
   23.4157   -8.1537  -16.1778 O   0  0  0  0  0  0  0  0  0  0  0  0
   21.8744   -7.5443  -14.5934 N   0  0  0  0  0  0  0  0  0  0  0  0
   22.0502   -6.0924  -15.0035 C   0  0  1  0  0  0  0  0  0  0  0  0
   20.8745   -5.8078  -15.8679 C   0  0  0  0  0  0  0  0  0  0  0  0
   20.5498   -4.4439  -16.2553 C   0  0  0  0  0  0  0  0  0  0  0  0
   20.4459   -4.0581  -17.6777 C   0  0  0  0  0  0  0  0  0  0  0  0
   20.0120   -2.5699  -17.7946 C   0  0  0  0  0  0  0  0  0  0  0  0
   20.0227   -2.1956  -19.1867 N   0  0  0  0  0  0  0  0  0  0  0  0
   21.9640   -5.4248  -13.6650 C   0  0  0  0  0  0  0  0  0  0  0  0
   22.5699   -4.2657  -13.2721 O   0  0  0  0  0  0  0  0  0  0  0  0
   21.2342   -6.0229  -12.7858 O   0  0  0  0  0  0  0  0  0  0  0  0
  2  1  1  6
  2 10  1  0
  3  2  1  0
  3  4  1  0
  4  5  2  0
  4  9  1  0
  5  6  1  0
  6  7  2  0
  8  7  1  0
  9  8  2  0
 10 11  2  0
 13 12  1  1
 13 15  1  0
 14 10  1  0
 14 13  1  0
 15 16  2  0
 17 15  1  0
 17 18  1  0
 18 24  1  0
 19 20  1  0
 18 19  1  6
 21 20  1  0
 22 23  1  0
 22 21  1  0
 24 25  1  0
 26 24  2  0
M  END
$$$$
