FAK.pdb
     RDKit          3D

 26 26  0  0  1  0  0  0  0  0999 V2000
   23.9320  -13.0839  -18.1694 N   0  0  0  0  0  0  0  0  0  0  0  0
   23.7927  -12.6303  -16.7995 C   0  0  1  0  0  0  0  0  0  0  0  0
   25.1630  -12.2587  -16.2934 C   0  0  0  0  0  0  0  0  0  0  0  0
   25.9930  -13.4755  -16.1003 C   0  0  0  0  0  0  0  0  0  0  0  0
   25.9056  -14.2191  -14.9421 C   0  0  0  0  0  0  0  0  0  0  0  0
   26.6834  -15.3459  -14.7773 C   0  0  0  0  0  0  0  0  0  0  0  0
   27.5527  -15.7185  -15.7921 C   0  0  0  0  0  0  0  0  0  0  0  0
   27.6276  -14.9642  -16.9430 C   0  0  0  0  0  0  0  0  0  0  0  0
   26.8569  -13.8449  -17.1101 C   0  0  0  0  0  0  0  0  0  0  0  0
   22.8056  -11.5509  -16.7331 C   0  0  0  0  0  0  0  0  0  0  0  0
   22.8320  -10.6094  -17.5980 O   0  0  0  0  0  0  0  0  0  0  0  0
   19.8888  -10.5958  -14.5185 C   0  0  0  0  0  0  0  0  0  0  0  0
   20.8594  -10.3479  -15.6813 C   0  0  2  0  0  0  0  0  0  0  0  0
   21.7829  -11.4487  -15.7614 N   0  0  0  0  0  0  0  0  0  0  0  0
   21.4977   -9.0429  -15.3957 C   0  0  0  0  0  0  0  0  0  0  0  0
   22.6846   -8.9242  -15.0090 O   0  0  0  0  0  0  0  0  0  0  0  0
   20.7202   -7.8842  -15.5717 N   0  0  0  0  0  0  0  0  0  0  0  0
   21.4167   -6.5377  -15.4775 C   0  0  1  0  0  0  0  0  0  0  0  0
   22.0464   -6.3535  -16.8117 C   0  0  0  0  0  0  0  0  0  0  0  0
   22.6760   -5.0917  -17.1683 C   0  0  0  0  0  0  0  0  0  0  0  0
   23.4257   -4.9426  -18.4328 C   0  0  0  0  0  0  0  0  0  0  0  0
   24.0784   -3.5335  -18.5009 C   0  0  0  0  0  0  0  0  0  0  0  0
   24.6810   -3.3679  -19.8000 N   0  0  0  0  0  0  0  0  0  0  0  0
   20.2360   -5.6409  -15.2621 C   0  0  0  0  0  0  0  0  0  0  0  0
   18.9509   -5.8417  -15.6783 O   0  0  0  0  0  0  0  0  0  0  0  0
   20.4698   -4.5526  -14.6106 O   0  0  0  0  0  0  0  0  0  0  0  0
  2  1  1  6
  2 10  1  0
  3  2  1  0
  3  4  1  0
  4  5  2  0
  4  9  1  0
  5  6  1  0
  6  7  2  0
  8  7  1  0
  9  8  2  0
 10 11  2  0
 13 12  1  1
 13 15  1  0
 14 10  1  0
 14 13  1  0
 15 16  2  0
 17 15  1  0
 17 18  1  0
 18 24  1  0
 19 20  1  0
 18 19  1  6
 21 20  1  0
 22 23  1  0
 22 21  1  0
 24 25  1  0
 26 24  2  0
M  END
$$$$
