FAK.pdb
     RDKit          3D

 26 26  0  0  1  0  0  0  0  0999 V2000
   27.4891  -21.7985  -14.3647 N   0  0  0  0  0  0  0  0  0  0  0  0
   26.5826  -21.2692  -13.3645 C   0  0  1  0  0  0  0  0  0  0  0  0
   27.2239  -20.0468  -12.7593 C   0  0  0  0  0  0  0  0  0  0  0  0
   28.3718  -20.4340  -11.8997 C   0  0  0  0  0  0  0  0  0  0  0  0
   28.1713  -21.0313  -10.6728 C   0  0  0  0  0  0  0  0  0  0  0  0
   29.2473  -21.3843   -9.8858 C   0  0  0  0  0  0  0  0  0  0  0  0
   30.5309  -21.1299  -10.3464 C   0  0  0  0  0  0  0  0  0  0  0  0
   30.7133  -20.5324  -11.5747 C   0  0  0  0  0  0  0  0  0  0  0  0
   29.6475  -20.1805  -12.3589 C   0  0  0  0  0  0  0  0  0  0  0  0
   25.2674  -21.0338  -13.9633 C   0  0  0  0  0  0  0  0  0  0  0  0
   25.1823  -20.5630  -15.1492 O   0  0  0  0  0  0  0  0  0  0  0  0
   21.6925  -21.9038  -13.2076 C   0  0  0  0  0  0  0  0  0  0  0  0
   22.7495  -21.0679  -13.9421 C   0  0  2  0  0  0  0  0  0  0  0  0
   24.0310  -21.2897  -13.3258 N   0  0  0  0  0  0  0  0  0  0  0  0
   22.2750  -19.6677  -13.8634 C   0  0  0  0  0  0  0  0  0  0  0  0
   22.3264  -18.9785  -12.8170 O   0  0  0  0  0  0  0  0  0  0  0  0
   21.7411  -19.0934  -15.0309 N   0  0  0  0  0  0  0  0  0  0  0  0
   21.2463  -17.6592  -14.9574 C   0  0  1  0  0  0  0  0  0  0  0  0
   21.5057  -17.1090  -16.3140 C   0  0  0  0  0  0  0  0  0  0  0  0
   21.1267  -15.7449  -16.6476 C   0  0  0  0  0  0  0  0  0  0  0  0
   21.3071  -15.2147  -18.0149 C   0  0  0  0  0  0  0  0  0  0  0  0
   20.7680  -13.7590  -18.0960 C   0  0  0  0  0  0  0  0  0  0  0  0
   21.1415  -13.2004  -19.3715 N   0  0  0  0  0  0  0  0  0  0  0  0
   19.7903  -17.8924  -14.6922 C   0  0  0  0  0  0  0  0  0  0  0  0
   19.0346  -18.9624  -15.0781 O   0  0  0  0  0  0  0  0  0  0  0  0
   19.1867  -16.9683  -14.0249 O   0  0  0  0  0  0  0  0  0  0  0  0
  2  1  1  6
  2 10  1  0
  3  2  1  0
  3  4  1  0
  4  5  2  0
  4  9  1  0
  5  6  1  0
  6  7  2  0
  8  7  1  0
  9  8  2  0
 10 11  2  0
 13 12  1  1
 13 15  1  0
 14 10  1  0
 14 13  1  0
 15 16  2  0
 17 15  1  0
 17 18  1  0
 18 24  1  0
 19 20  1  0
 18 19  1  6
 21 20  1  0
 22 23  1  0
 22 21  1  0
 24 25  1  0
 26 24  2  0
M  END
$$$$
