FAK.pdb
     RDKit          3D

 26 26  0  0  1  0  0  0  0  0999 V2000
   19.3679  -10.8144  -17.0346 N   0  0  0  0  0  0  0  0  0  0  0  0
   19.6755   -9.6707  -17.8708 C   0  0  1  0  0  0  0  0  0  0  0  0
   18.5303   -9.4785  -18.8317 C   0  0  0  0  0  0  0  0  0  0  0  0
   18.4824  -10.5933  -19.8124 C   0  0  0  0  0  0  0  0  0  0  0  0
   19.4074  -10.6838  -20.8314 C   0  0  0  0  0  0  0  0  0  0  0  0
   19.3492  -11.7243  -21.7345 C   0  0  0  0  0  0  0  0  0  0  0  0
   18.3485  -12.6759  -21.6023 C   0  0  0  0  0  0  0  0  0  0  0  0
   17.4323  -12.5704  -20.5783 C   0  0  0  0  0  0  0  0  0  0  0  0
   17.4869  -11.5388  -19.6797 C   0  0  0  0  0  0  0  0  0  0  0  0
   19.9675   -8.5074  -17.0309 C   0  0  0  0  0  0  0  0  0  0  0  0
   19.1078   -8.1100  -16.1718 O   0  0  0  0  0  0  0  0  0  0  0  0
   22.8393   -6.1059  -16.5018 C   0  0  0  0  0  0  0  0  0  0  0  0
   21.3740   -6.5345  -16.3448 C   0  0  2  0  0  0  0  0  0  0  0  0
   21.1618   -7.7514  -17.0832 N   0  0  0  0  0  0  0  0  0  0  0  0
   20.5701   -5.3878  -16.8252 C   0  0  0  0  0  0  0  0  0  0  0  0
   20.2703   -5.2107  -18.0299 O   0  0  0  0  0  0  0  0  0  0  0  0
   20.1263   -4.4563  -15.8695 N   0  0  0  0  0  0  0  0  0  0  0  0
   19.3562   -3.2430  -16.3611 C   0  0  1  0  0  0  0  0  0  0  0  0
   17.9277   -3.6285  -16.2159 C   0  0  0  0  0  0  0  0  0  0  0  0
   16.9310   -3.1586  -17.1654 C   0  0  0  0  0  0  0  0  0  0  0  0
   15.5185   -3.5792  -17.0611 C   0  0  0  0  0  0  0  0  0  0  0  0
   14.6925   -2.9617  -18.2242 C   0  0  0  0  0  0  0  0  0  0  0  0
   13.3479   -3.4772  -18.1580 N   0  0  0  0  0  0  0  0  0  0  0  0
   19.7899   -2.2245  -15.3515 C   0  0  0  0  0  0  0  0  0  0  0  0
   20.0713   -0.9057  -15.5671 O   0  0  0  0  0  0  0  0  0  0  0  0
   19.9137   -2.6521  -14.1410 O   0  0  0  0  0  0  0  0  0  0  0  0
  2  1  1  1
  2 10  1  0
  3  2  1  0
  3  4  1  0
  4  5  2  0
  4  9  1  0
  5  6  1  0
  6  7  2  0
  8  7  1  0
  9  8  2  0
 10 11  2  0
 13 12  1  6
 13 15  1  0
 14 10  1  0
 14 13  1  0
 15 16  2  0
 17 15  1  0
 17 18  1  0
 18 24  1  0
 19 20  1  0
 18 19  1  1
 21 20  1  0
 22 23  1  0
 22 21  1  0
 24 25  1  0
 26 24  2  0
M  END
$$$$
