FAK.pdb
     RDKit          3D

 26 26  0  0  1  0  0  0  0  0999 V2000
   16.5198  -11.1525  -13.4029 N   0  0  0  0  0  0  0  0  0  0  0  0
   15.6170  -10.1817  -12.8159 C   0  0  1  0  0  0  0  0  0  0  0  0
   15.2484  -10.6668  -11.4373 C   0  0  0  0  0  0  0  0  0  0  0  0
   14.1972  -11.7132  -11.5186 C   0  0  0  0  0  0  0  0  0  0  0  0
   14.4741  -13.0253  -11.1965 C   0  0  0  0  0  0  0  0  0  0  0  0
   13.4876  -13.9856  -11.2779 C   0  0  0  0  0  0  0  0  0  0  0  0
   12.2161  -13.6119  -11.6875 C   0  0  0  0  0  0  0  0  0  0  0  0
   11.9566  -12.2964  -12.0056 C   0  0  0  0  0  0  0  0  0  0  0  0
   12.9334  -11.3403  -11.9260 C   0  0  0  0  0  0  0  0  0  0  0  0
   16.2292   -8.8521  -12.8503 C   0  0  0  0  0  0  0  0  0  0  0  0
   17.4543   -8.7059  -12.5139 O   0  0  0  0  0  0  0  0  0  0  0  0
   15.3834   -5.4452  -14.1853 C   0  0  0  0  0  0  0  0  0  0  0  0
   16.1859   -6.3674  -13.2573 C   0  0  2  0  0  0  0  0  0  0  0  0
   15.5644   -7.6652  -13.2375 N   0  0  0  0  0  0  0  0  0  0  0  0
   16.2081   -5.6875  -11.9423 C   0  0  0  0  0  0  0  0  0  0  0  0
   16.8033   -4.6034  -11.7350 O   0  0  0  0  0  0  0  0  0  0  0  0
   15.5214   -6.3009  -10.8793 N   0  0  0  0  0  0  0  0  0  0  0  0
   15.5675   -5.6276   -9.5184 C   0  0  1  0  0  0  0  0  0  0  0  0
   14.1602   -5.6644   -9.0403 C   0  0  0  0  0  0  0  0  0  0  0  0
   13.5730   -6.9029   -8.5535 C   0  0  0  0  0  0  0  0  0  0  0  0
   12.1800   -6.9467   -8.0629 C   0  0  0  0  0  0  0  0  0  0  0  0
   11.8013   -8.4013   -7.6666 C   0  0  0  0  0  0  0  0  0  0  0  0
   10.4857   -8.3900   -7.0772 N   0  0  0  0  0  0  0  0  0  0  0  0
   16.4584   -6.5792   -8.7800 C   0  0  0  0  0  0  0  0  0  0  0  0
   16.9385   -7.7805   -9.2176 O   0  0  0  0  0  0  0  0  0  0  0  0
   16.8043   -6.2163   -7.5916 O   0  0  0  0  0  0  0  0  0  0  0  0
  2  1  1  1
  2 10  1  0
  3  2  1  0
  3  4  1  0
  4  5  2  0
  4  9  1  0
  5  6  1  0
  6  7  2  0
  8  7  1  0
  9  8  2  0
 10 11  2  0
 13 12  1  6
 13 15  1  0
 14 10  1  0
 14 13  1  0
 15 16  2  0
 17 15  1  0
 17 18  1  0
 18 24  1  0
 19 20  1  0
 18 19  1  1
 21 20  1  0
 22 23  1  0
 22 21  1  0
 24 25  1  0
 26 24  2  0
M  END
$$$$
