FAK.pdb
     RDKit          3D

 26 26  0  0  1  0  0  0  0  0999 V2000
   29.6732  -27.5860  -16.1525 N   0  0  0  0  0  0  0  0  0  0  0  0
   29.4866  -26.5762  -17.1759 C   0  0  1  0  0  0  0  0  0  0  0  0
   28.7898  -27.2249  -18.3445 C   0  0  0  0  0  0  0  0  0  0  0  0
   29.7416  -28.0652  -19.1156 C   0  0  0  0  0  0  0  0  0  0  0  0
   29.7900  -29.4318  -18.9359 C   0  0  0  0  0  0  0  0  0  0  0  0
   30.6799  -30.1983  -19.6587 C   0  0  0  0  0  0  0  0  0  0  0  0
   31.5231  -29.5749  -20.5669 C   0  0  0  0  0  0  0  0  0  0  0  0
   31.4615  -28.2084  -20.7341 C   0  0  0  0  0  0  0  0  0  0  0  0
   30.5794  -27.4440  -20.0182 C   0  0  0  0  0  0  0  0  0  0  0  0
   28.7833  -25.4228  -16.6112 C   0  0  0  0  0  0  0  0  0  0  0  0
   28.0090  -25.5786  -15.6055 O   0  0  0  0  0  0  0  0  0  0  0  0
   28.7125  -21.6838  -17.1610 C   0  0  0  0  0  0  0  0  0  0  0  0
   28.2001  -22.9752  -16.5089 C   0  0  2  0  0  0  0  0  0  0  0  0
   28.8851  -24.0974  -17.0943 N   0  0  0  0  0  0  0  0  0  0  0  0
   26.7361  -22.9787  -16.7292 C   0  0  0  0  0  0  0  0  0  0  0  0
   26.1796  -23.6014  -17.6646 O   0  0  0  0  0  0  0  0  0  0  0  0
   25.9402  -22.2406  -15.8348 N   0  0  0  0  0  0  0  0  0  0  0  0
   24.4397  -22.2167  -16.0692 C   0  0  1  0  0  0  0  0  0  0  0  0
   23.8780  -21.6602  -14.8103 C   0  0  0  0  0  0  0  0  0  0  0  0
   22.4414  -21.5074  -14.6413 C   0  0  0  0  0  0  0  0  0  0  0  0
   21.8776  -20.8735  -13.4316 C   0  0  0  0  0  0  0  0  0  0  0  0
   20.3396  -20.7087  -13.5854 C   0  0  0  0  0  0  0  0  0  0  0  0
   19.8027  -20.2180  -12.3406 N   0  0  0  0  0  0  0  0  0  0  0  0
   24.3640  -21.2552  -17.2157 C   0  0  0  0  0  0  0  0  0  0  0  0
   23.3751  -21.1516  -18.1518 O   0  0  0  0  0  0  0  0  0  0  0  0
   25.3541  -20.4362  -17.3271 O   0  0  0  0  0  0  0  0  0  0  0  0
  2  1  1  1
  2 10  1  0
  3  2  1  0
  3  4  1  0
  4  5  2  0
  4  9  1  0
  5  6  1  0
  6  7  2  0
  8  7  1  0
  9  8  2  0
 10 11  2  0
 13 12  1  6
 13 15  1  0
 14 10  1  0
 14 13  1  0
 15 16  2  0
 17 15  1  0
 17 18  1  0
 18 24  1  0
 19 20  1  0
 18 19  1  1
 21 20  1  0
 22 23  1  0
 22 21  1  0
 24 25  1  0
 26 24  2  0
M  END
$$$$
