FAK.pdb
     RDKit          3D

 26 26  0  0  1  0  0  0  0  0999 V2000
   24.6274  -19.6977  -17.9226 N   0  0  0  0  0  0  0  0  0  0  0  0
   23.3726  -20.3099  -18.3133 C   0  0  1  0  0  0  0  0  0  0  0  0
   23.6905  -21.5453  -19.1162 C   0  0  0  0  0  0  0  0  0  0  0  0
   22.4401  -22.1967  -19.5841 C   0  0  0  0  0  0  0  0  0  0  0  0
   21.7846  -21.7490  -20.7119 C   0  0  0  0  0  0  0  0  0  0  0  0
   20.6242  -22.3638  -21.1332 C   0  0  0  0  0  0  0  0  0  0  0  0
   20.1283  -23.4365  -20.4068 C   0  0  0  0  0  0  0  0  0  0  0  0
   20.7959  -23.8710  -19.2823 C   0  0  0  0  0  0  0  0  0  0  0  0
   21.9482  -23.2632  -18.8609 C   0  0  0  0  0  0  0  0  0  0  0  0
   22.5482  -20.5498  -17.1272 C   0  0  0  0  0  0  0  0  0  0  0  0
   23.0781  -21.0398  -16.0716 O   0  0  0  0  0  0  0  0  0  0  0  0
   19.1664  -19.5993  -15.8483 C   0  0  0  0  0  0  0  0  0  0  0  0
   20.3656  -20.5569  -15.8714 C   0  0  2  0  0  0  0  0  0  0  0  0
   21.1631  -20.2783  -17.0365 N   0  0  0  0  0  0  0  0  0  0  0  0
   19.7873  -21.9196  -15.8462 C   0  0  0  0  0  0  0  0  0  0  0  0
   19.4937  -22.5648  -16.8807 O   0  0  0  0  0  0  0  0  0  0  0  0
   19.5609  -22.5089  -14.5895 N   0  0  0  0  0  0  0  0  0  0  0  0
   18.9566  -23.9020  -14.5542 C   0  0  1  0  0  0  0  0  0  0  0  0
   19.6650  -24.5838  -13.4390 C   0  0  0  0  0  0  0  0  0  0  0  0
   19.2907  -25.9296  -13.0335 C   0  0  0  0  0  0  0  0  0  0  0  0
   19.9110  -26.5731  -11.8569 C   0  0  0  0  0  0  0  0  0  0  0  0
   19.1836  -27.9090  -11.5365 C   0  0  0  0  0  0  0  0  0  0  0  0
   19.7406  -28.4570  -10.3249 N   0  0  0  0  0  0  0  0  0  0  0  0
   17.5343  -23.5677  -14.2227 C   0  0  0  0  0  0  0  0  0  0  0  0
   17.0827  -22.5902  -13.3828 O   0  0  0  0  0  0  0  0  0  0  0  0
   16.6383  -24.2951  -14.7984 O   0  0  0  0  0  0  0  0  0  0  0  0
  2  1  1  1
  2 10  1  0
  3  2  1  0
  3  4  1  0
  4  5  2  0
  4  9  1  0
  5  6  1  0
  6  7  2  0
  8  7  1  0
  9  8  2  0
 10 11  2  0
 13 12  1  6
 13 15  1  0
 14 10  1  0
 14 13  1  0
 15 16  2  0
 17 15  1  0
 17 18  1  0
 18 24  1  0
 19 20  1  0
 18 19  1  1
 21 20  1  0
 22 23  1  0
 22 21  1  0
 24 25  1  0
 26 24  2  0
M  END
$$$$
