FAK.pdb
     RDKit          3D

 26 26  0  0  1  0  0  0  0  0999 V2000
   29.3913  -20.3940    9.9323 N   0  0  0  0  0  0  0  0  0  0  0  0
   30.6872  -20.4423   10.5806 C   0  0  1  0  0  0  0  0  0  0  0  0
   30.4576  -20.5672   12.0651 C   0  0  0  0  0  0  0  0  0  0  0  0
   30.1438  -19.2407   12.6556 C   0  0  0  0  0  0  0  0  0  0  0  0
   31.1043  -18.2544   12.7382 C   0  0  0  0  0  0  0  0  0  0  0  0
   30.7978  -17.0282   13.2900 C   0  0  0  0  0  0  0  0  0  0  0  0
   29.5119  -16.8032   13.7592 C   0  0  0  0  0  0  0  0  0  0  0  0
   28.5643  -17.7998   13.6688 C   0  0  0  0  0  0  0  0  0  0  0  0
   28.8649  -19.0184   13.1217 C   0  0  0  0  0  0  0  0  0  0  0  0
   31.4935  -21.5159    9.9966 C   0  0  0  0  0  0  0  0  0  0  0  0
   31.0047  -22.6926    9.8878 O   0  0  0  0  0  0  0  0  0  0  0  0
   34.9166  -21.8801    8.4314 C   0  0  0  0  0  0  0  0  0  0  0  0
   33.6102  -22.4490    9.0016 C   0  0  2  0  0  0  0  0  0  0  0  0
   32.8172  -21.3664    9.5214 N   0  0  0  0  0  0  0  0  0  0  0  0
   34.0195  -23.4421   10.0204 C   0  0  0  0  0  0  0  0  0  0  0  0
   34.1420  -23.1717   11.2388 O   0  0  0  0  0  0  0  0  0  0  0  0
   34.2815  -24.7534    9.5847 N   0  0  0  0  0  0  0  0  0  0  0  0
   34.6690  -25.7869   10.6282 C   0  0  1  0  0  0  0  0  0  0  0  0
   33.6758  -26.8792   10.4528 C   0  0  0  0  0  0  0  0  0  0  0  0
   33.6567  -27.6780    9.2374 C   0  0  0  0  0  0  0  0  0  0  0  0
   32.7313  -28.8202    9.0885 C   0  0  0  0  0  0  0  0  0  0  0  0
   32.8781  -29.4420    7.6713 C   0  0  0  0  0  0  0  0  0  0  0  0
   31.9983  -30.5800    7.5749 N   0  0  0  0  0  0  0  0  0  0  0  0
   36.0359  -26.1589   10.1407 C   0  0  0  0  0  0  0  0  0  0  0  0
   36.9039  -27.0539   10.6982 O   0  0  0  0  0  0  0  0  0  0  0  0
   36.4335  -25.5562    9.0720 O   0  0  0  0  0  0  0  0  0  0  0  0
  2  1  1  6
  2 10  1  0
  3  2  1  0
  3  4  1  0
  4  5  2  0
  4  9  1  0
  5  6  1  0
  6  7  2  0
  8  7  1  0
  9  8  2  0
 10 11  2  0
 13 12  1  1
 13 15  1  0
 14 10  1  0
 14 13  1  0
 15 16  2  0
 17 15  1  0
 17 18  1  0
 18 24  1  0
 19 20  1  0
 18 19  1  6
 21 20  1  0
 22 23  1  0
 22 21  1  0
 24 25  1  0
 26 24  2  0
M  END
$$$$
