FAK.pdb
     RDKit          3D

 26 26  0  0  1  0  0  0  0  0999 V2000
   25.1125  -20.0563  -18.2226 N   0  0  0  0  0  0  0  0  0  0  0  0
   23.8102  -19.4194  -18.2063 C   0  0  1  0  0  0  0  0  0  0  0  0
   23.0897  -19.8066  -19.4723 C   0  0  0  0  0  0  0  0  0  0  0  0
   23.7083  -19.1397  -20.6468 C   0  0  0  0  0  0  0  0  0  0  0  0
   23.4662  -17.8092  -20.9177 C   0  0  0  0  0  0  0  0  0  0  0  0
   24.0473  -17.2045  -22.0125 C   0  0  0  0  0  0  0  0  0  0  0  0
   24.8767  -17.9533  -22.8345 C   0  0  0  0  0  0  0  0  0  0  0  0
   25.1078  -19.2816  -22.5492 C   0  0  0  0  0  0  0  0  0  0  0  0
   24.5327  -19.8855  -21.4632 C   0  0  0  0  0  0  0  0  0  0  0  0
   23.1036  -19.7684  -16.9723 C   0  0  0  0  0  0  0  0  0  0  0  0
   23.1852  -20.9562  -16.5056 O   0  0  0  0  0  0  0  0  0  0  0  0
   20.9205  -18.0113  -14.4311 C   0  0  0  0  0  0  0  0  0  0  0  0
   21.5554  -19.2633  -15.0516 C   0  0  2  0  0  0  0  0  0  0  0  0
   22.3065  -18.8771  -16.2168 N   0  0  0  0  0  0  0  0  0  0  0  0
   20.4294  -20.1818  -15.3351 C   0  0  0  0  0  0  0  0  0  0  0  0
   19.8868  -20.2828  -16.4611 O   0  0  0  0  0  0  0  0  0  0  0  0
   19.9538  -20.9767  -14.2768 N   0  0  0  0  0  0  0  0  0  0  0  0
   18.8711  -21.9971  -14.5829 C   0  0  1  0  0  0  0  0  0  0  0  0
   19.0534  -23.0503  -13.5495 C   0  0  0  0  0  0  0  0  0  0  0  0
   18.2115  -24.2364  -13.5408 C   0  0  0  0  0  0  0  0  0  0  0  0
   18.4261  -25.3183  -12.5576 C   0  0  0  0  0  0  0  0  0  0  0  0
   17.4106  -26.4692  -12.8035 C   0  0  0  0  0  0  0  0  0  0  0  0
   17.6734  -27.5246  -11.8573 N   0  0  0  0  0  0  0  0  0  0  0  0
   17.6470  -21.1638  -14.3554 C   0  0  0  0  0  0  0  0  0  0  0  0
   16.4105  -21.3315  -14.9102 O   0  0  0  0  0  0  0  0  0  0  0  0
   17.7868  -20.1718  -13.5429 O   0  0  0  0  0  0  0  0  0  0  0  0
  2  1  1  1
  2 10  1  0
  3  2  1  0
  3  4  1  0
  4  5  2  0
  4  9  1  0
  5  6  1  0
  6  7  2  0
  8  7  1  0
  9  8  2  0
 10 11  2  0
 13 12  1  6
 13 15  1  0
 14 10  1  0
 14 13  1  0
 15 16  2  0
 17 15  1  0
 17 18  1  0
 18 24  1  0
 19 20  1  0
 18 19  1  1
 21 20  1  0
 22 23  1  0
 22 21  1  0
 24 25  1  0
 26 24  2  0
M  END
$$$$
