IPH.pdb
     RDKit          3D

 26 27  0  0  1  0  0  0  0  0999 V2000
   14.4232  -10.2697  -17.5006 C   0  0  0  0  0  0  0  0  0  0  0  0
   15.7646  -10.9195  -17.7148 C   0  0  0  0  0  0  0  0  0  0  0  0
   16.7782  -10.3306  -16.7595 C   0  0  2  0  0  0  0  0  0  0  0  0
   16.9577   -8.8463  -17.0085 C   0  0  0  0  0  0  0  0  0  0  0  0
   18.1109  -11.0522  -16.7930 C   0  0  2  0  0  0  0  0  0  0  0  0
   17.8113  -12.4495  -16.4650 N   0  0  0  0  0  0  0  0  0  0  0  0
   19.1226  -10.5019  -15.8893 C   0  0  0  0  0  0  0  0  0  0  0  0
   18.9874  -10.6362  -14.6361 O   0  0  0  0  0  0  0  0  0  0  0  0
   20.2510   -9.8200  -16.3953 N   0  0  0  0  0  0  0  0  0  0  0  0
   20.6398   -9.6201  -17.7515 C   0  0  0  0  0  0  0  0  0  0  0  0
   21.9482   -8.8379  -17.7339 C   0  0  0  0  0  0  0  0  0  0  0  0
   22.4854   -9.0102  -16.3547 C   0  0  0  0  0  0  0  0  0  0  0  0
   21.2387   -9.1898  -15.5351 C   0  0  1  0  0  0  0  0  0  0  0  0
   20.7564   -7.8991  -14.9789 C   0  0  0  0  0  0  0  0  0  0  0  0
   19.9752   -7.1848  -15.6599 O   0  0  0  0  0  0  0  0  0  0  0  0
   21.1459   -7.4402  -13.7045 N   0  0  0  0  0  0  0  0  0  0  0  0
   20.6730   -6.1699  -13.1221 C   0  0  1  0  0  0  0  0  0  0  0  0
   20.4033   -6.3317  -11.6711 C   0  0  0  0  0  0  0  0  0  0  0  0
   19.2428   -7.1948  -11.4155 C   0  0  0  0  0  0  0  0  0  0  0  0
   18.4100   -7.6919  -12.4400 C   0  0  0  0  0  0  0  0  0  0  0  0
   17.4473   -8.4460  -11.8835 N   0  0  0  0  0  0  0  0  0  0  0  0
   17.6370   -8.4450  -10.5625 C   0  0  0  0  0  0  0  0  0  0  0  0
   18.7091   -7.6959  -10.3044 N   0  0  0  0  0  0  0  0  0  0  0  0
   21.6963   -5.1254  -13.3545 C   0  0  0  0  0  0  0  0  0  0  0  0
   21.3347   -3.7895  -13.0914 O   0  0  0  0  0  0  0  0  0  0  0  0
   22.8523   -5.2905  -13.7593 O   0  0  0  0  0  0  0  0  0  0  0  0
  2  3  1  0
  2  1  1  0
  3  4  1  6
  5  6  1  1
  5  3  1  0
  7  5  1  0
  8  7  2  0
  9  7  1  0
 10  9  1  0
 11 10  1  0
 11 12  1  0
 12 13  1  0
 13  9  1  0
 14 15  2  0
 13 14  1  6
 16 14  1  0
 17 16  1  0
 17 24  1  0
 17 18  1  1
 19 18  1  0
 20 19  2  0
 21 22  1  0
 21 20  1  0
 22 23  2  0
 23 19  1  0
 24 26  2  0
 24 25  1  0
M  END
$$$$
