IPH.pdb
     RDKit          3D

 26 27  0  0  1  0  0  0  0  0999 V2000
   19.0927  -18.6183  -14.4466 C   0  0  0  0  0  0  0  0  0  0  0  0
   20.4549  -19.0630  -13.9838 C   0  0  0  0  0  0  0  0  0  0  0  0
   20.3207  -19.9248  -12.7486 C   0  0  2  0  0  0  0  0  0  0  0  0
   19.6176  -19.1716  -11.6370 C   0  0  0  0  0  0  0  0  0  0  0  0
   21.6463  -20.4846  -12.2715 C   0  0  2  0  0  0  0  0  0  0  0  0
   22.2626  -21.0991  -13.4517 N   0  0  0  0  0  0  0  0  0  0  0  0
   21.5399  -21.4435  -11.1706 C   0  0  0  0  0  0  0  0  0  0  0  0
   20.9696  -22.5596  -11.3604 O   0  0  0  0  0  0  0  0  0  0  0  0
   22.0646  -21.1417   -9.8946 N   0  0  0  0  0  0  0  0  0  0  0  0
   22.7754  -19.9809   -9.4729 C   0  0  0  0  0  0  0  0  0  0  0  0
   23.1293  -20.1791   -8.0034 C   0  0  0  0  0  0  0  0  0  0  0  0
   22.9937  -21.6438   -7.7652 C   0  0  0  0  0  0  0  0  0  0  0  0
   21.9429  -22.0443   -8.7619 C   0  0  1  0  0  0  0  0  0  0  0  0
   20.5819  -22.0166   -8.1662 C   0  0  0  0  0  0  0  0  0  0  0  0
   19.8907  -20.9679   -8.2497 O   0  0  0  0  0  0  0  0  0  0  0  0
   20.0311  -23.1319   -7.5037 N   0  0  0  0  0  0  0  0  0  0  0  0
   18.6760  -23.1394   -6.9204 C   0  0  1  0  0  0  0  0  0  0  0  0
   17.6640  -22.7986   -7.9520 C   0  0  0  0  0  0  0  0  0  0  0  0
   17.6935  -23.7302   -9.0870 C   0  0  0  0  0  0  0  0  0  0  0  0
   18.6271  -24.7819   -9.1983 C   0  0  0  0  0  0  0  0  0  0  0  0
   18.3899  -25.4482  -10.3406 N   0  0  0  0  0  0  0  0  0  0  0  0
   17.3546  -24.8655  -10.9485 C   0  0  0  0  0  0  0  0  0  0  0  0
   16.9548  -23.8464  -10.1876 N   0  0  0  0  0  0  0  0  0  0  0  0
   18.4098  -24.4762   -6.3426 C   0  0  0  0  0  0  0  0  0  0  0  0
   17.1904  -24.6604   -5.6616 O   0  0  0  0  0  0  0  0  0  0  0  0
   19.1451  -25.4687   -6.3885 O   0  0  0  0  0  0  0  0  0  0  0  0
  2  3  1  0
  2  1  1  0
  3  4  1  1
  5  6  1  6
  5  3  1  0
  7  5  1  0
  8  7  2  0
  9  7  1  0
 10  9  1  0
 11 10  1  0
 11 12  1  0
 12 13  1  0
 13  9  1  0
 14 15  2  0
 13 14  1  1
 16 14  1  0
 17 16  1  0
 17 24  1  0
 17 18  1  6
 19 18  1  0
 20 19  2  0
 21 22  1  0
 21 20  1  0
 22 23  2  0
 23 19  1  0
 24 26  2  0
 24 25  1  0
M  END
$$$$
