IPH.pdb
     RDKit          3D

 26 27  0  0  1  0  0  0  0  0999 V2000
   26.8209  -17.1481  -18.2594 C   0  0  0  0  0  0  0  0  0  0  0  0
   27.8735  -18.1078  -17.7709 C   0  0  0  0  0  0  0  0  0  0  0  0
   27.3446  -18.8919  -16.5911 C   0  0  2  0  0  0  0  0  0  0  0  0
   27.1194  -17.9864  -15.3966 C   0  0  0  0  0  0  0  0  0  0  0  0
   28.2247  -20.0696  -16.2217 C   0  0  2  0  0  0  0  0  0  0  0  0
   28.2748  -20.9153  -17.4185 N   0  0  0  0  0  0  0  0  0  0  0  0
   27.7668  -20.8285  -15.0566 C   0  0  0  0  0  0  0  0  0  0  0  0
   26.7542  -21.5844  -15.1557 O   0  0  0  0  0  0  0  0  0  0  0  0
   28.4388  -20.7293  -13.8185 N   0  0  0  0  0  0  0  0  0  0  0  0
   29.6392  -20.0273  -13.5075 C   0  0  0  0  0  0  0  0  0  0  0  0
   29.9328  -20.2699  -12.0313 C   0  0  0  0  0  0  0  0  0  0  0  0
   29.1266  -21.4688  -11.6667 C   0  0  0  0  0  0  0  0  0  0  0  0
   27.9609  -21.3822  -12.6110 C   0  0  1  0  0  0  0  0  0  0  0  0
   26.8124  -20.6629  -12.0013 C   0  0  0  0  0  0  0  0  0  0  0  0
   26.7850  -19.4048  -12.0283 O   0  0  0  0  0  0  0  0  0  0  0  0
   25.7424  -21.3441  -11.3872 N   0  0  0  0  0  0  0  0  0  0  0  0
   24.4608  -20.6981  -11.0457 C   0  0  1  0  0  0  0  0  0  0  0  0
   23.3269  -21.4373  -11.6560 C   0  0  0  0  0  0  0  0  0  0  0  0
   22.0266  -20.8693  -11.2773 C   0  0  0  0  0  0  0  0  0  0  0  0
   21.8919  -19.7042  -10.4934 C   0  0  0  0  0  0  0  0  0  0  0  0
   20.5838  -19.4468  -10.3269 N   0  0  0  0  0  0  0  0  0  0  0  0
   19.8943  -20.3929  -10.9676 C   0  0  0  0  0  0  0  0  0  0  0  0
   20.7699  -21.2289  -11.5262 N   0  0  0  0  0  0  0  0  0  0  0  0
   24.3258  -20.6494   -9.5721 C   0  0  0  0  0  0  0  0  0  0  0  0
   24.9044  -21.6979   -8.8301 O   0  0  0  0  0  0  0  0  0  0  0  0
   23.7550  -19.7806   -8.9035 O   0  0  0  0  0  0  0  0  0  0  0  0
  2  3  1  0
  2  1  1  0
  3  4  1  1
  5  6  1  6
  5  3  1  0
  7  5  1  0
  8  7  2  0
  9  7  1  0
 10  9  1  0
 11 10  1  0
 11 12  1  0
 12 13  1  0
 13  9  1  0
 14 15  2  0
 13 14  1  1
 16 14  1  0
 17 16  1  0
 17 24  1  0
 17 18  1  6
 19 18  1  0
 20 19  2  0
 21 22  1  0
 21 20  1  0
 22 23  2  0
 23 19  1  0
 24 26  2  0
 24 25  1  0
M  END
$$$$
