CGP.pdb
     RDKit          3D

 18 18  0  0  1  0  0  0  0  0999 V2000
   24.9260  -22.5331  -12.1647 N   0  0  0  0  0  0  0  0  0  0  0  0
   25.5383  -21.2356  -12.4948 C   0  0  1  0  0  0  0  0  0  0  0  0
   27.0347  -21.4741  -12.3844 C   0  0  0  0  0  0  0  0  0  0  0  0
   27.6405  -21.2987  -10.6951 S   0  0  0  0  0  0  0  0  0  0  0  0
   25.0983  -20.8645  -13.8428 C   0  0  0  0  0  0  0  0  0  0  0  0
   25.5118  -21.5152  -14.8645 O   0  0  0  0  0  0  0  0  0  0  0  0
   24.2148  -19.8011  -14.1347 N   0  0  0  0  0  0  0  0  0  0  0  0
   23.8183  -19.4976  -15.4961 C   0  0  0  0  0  0  0  0  0  0  0  0
   22.7941  -18.4529  -15.5686 C   0  0  0  0  0  0  0  0  0  0  0  0
   22.2707  -18.0424  -14.4805 O   0  0  0  0  0  0  0  0  0  0  0  0
   22.4049  -17.9222  -16.8161 N   0  0  0  0  0  0  0  0  0  0  0  0
   23.0396  -18.2298  -18.0837 C   0  0  0  0  0  0  0  0  0  0  0  0
   21.8259  -18.1928  -19.0218 C   0  0  0  0  0  0  0  0  0  0  0  0
   21.2176  -16.8589  -18.5723 C   0  0  0  0  0  0  0  0  0  0  0  0
   21.3091  -16.9762  -17.0836 C   0  0  1  0  0  0  0  0  0  0  0  0
   20.0466  -17.4407  -16.5049 C   0  0  0  0  0  0  0  0  0  0  0  0
   19.7517  -18.6603  -16.4747 O   0  0  0  0  0  0  0  0  0  0  0  0
   19.1394  -16.5399  -15.9725 O   0  0  0  0  0  0  0  0  0  0  0  0
  2  1  1  6
  2  3  1  0
  3  4  1  0
  5  6  2  0
  5  2  1  0
  7  5  1  0
  8  9  1  0
  8  7  1  0
  9 11  1  0
 10  9  2  0
 11 12  1  0
 12 13  1  0
 14 13  1  0
 15 11  1  0
 15 14  1  0
 15 16  1  6
 16 17  2  0
 16 18  1  0
M  END
$$$$
