CGP.pdb
     RDKit          3D

 18 18  0  0  1  0  0  0  0  0999 V2000
   17.9464  -13.2817  -16.3063 N   0  0  0  0  0  0  0  0  0  0  0  0
   18.0977  -11.8240  -16.1675 C   0  0  1  0  0  0  0  0  0  0  0  0
   17.3938  -11.4836  -14.8648 C   0  0  0  0  0  0  0  0  0  0  0  0
   15.6413  -11.1287  -15.0976 S   0  0  0  0  0  0  0  0  0  0  0  0
   19.5322  -11.5230  -16.1587 C   0  0  0  0  0  0  0  0  0  0  0  0
   20.3198  -12.1317  -15.3539 O   0  0  0  0  0  0  0  0  0  0  0  0
   20.1591  -10.5754  -16.9987 N   0  0  0  0  0  0  0  0  0  0  0  0
   21.5901  -10.3465  -16.9470 C   0  0  0  0  0  0  0  0  0  0  0  0
   21.9316   -8.9876  -16.5199 C   0  0  0  0  0  0  0  0  0  0  0  0
   20.9834   -8.2005  -16.1916 O   0  0  0  0  0  0  0  0  0  0  0  0
   23.2787   -8.5718  -16.4769 N   0  0  0  0  0  0  0  0  0  0  0  0
   24.4241   -9.4530  -16.6036 C   0  0  0  0  0  0  0  0  0  0  0  0
   25.3998   -8.5387  -17.3564 C   0  0  0  0  0  0  0  0  0  0  0  0
   25.2694   -7.2828  -16.4863 C   0  0  0  0  0  0  0  0  0  0  0  0
   23.7871   -7.2015  -16.3005 C   0  0  1  0  0  0  0  0  0  0  0  0
   23.1779   -6.2761  -17.2580 C   0  0  0  0  0  0  0  0  0  0  0  0
   22.8065   -6.6619  -18.3932 O   0  0  0  0  0  0  0  0  0  0  0  0
   22.9945   -4.9423  -16.9334 O   0  0  0  0  0  0  0  0  0  0  0  0
  2  1  1  1
  2  3  1  0
  3  4  1  0
  5  6  2  0
  5  2  1  0
  7  5  1  0
  8  9  1  0
  8  7  1  0
  9 11  1  0
 10  9  2  0
 11 12  1  0
 12 13  1  0
 14 13  1  0
 15 11  1  0
 15 14  1  0
 15 16  1  6
 16 17  2  0
 16 18  1  0
M  END
$$$$
