CGP.pdb
     RDKit          3D

 18 18  0  0  1  0  0  0  0  0999 V2000
   15.2256  -17.3509    3.3000 N   0  0  0  0  0  0  0  0  0  0  0  0
   15.0398  -18.6355    3.9947 C   0  0  1  0  0  0  0  0  0  0  0  0
   13.8025  -19.2452    3.3578 C   0  0  0  0  0  0  0  0  0  0  0  0
   14.1124  -19.8555    1.6897 S   0  0  0  0  0  0  0  0  0  0  0  0
   16.2562  -19.4293    3.7980 C   0  0  0  0  0  0  0  0  0  0  0  0
   17.2025  -18.9960    3.0528 O   0  0  0  0  0  0  0  0  0  0  0  0
   16.4942  -20.6926    4.3843 N   0  0  0  0  0  0  0  0  0  0  0  0
   17.7566  -21.3841    4.2078 C   0  0  0  0  0  0  0  0  0  0  0  0
   17.5910  -22.7394    3.6774 C   0  0  0  0  0  0  0  0  0  0  0  0
   16.4073  -23.1728    3.4839 O   0  0  0  0  0  0  0  0  0  0  0  0
   18.7198  -23.5355    3.3918 N   0  0  0  0  0  0  0  0  0  0  0  0
   20.0900  -23.0594    3.3802 C   0  0  0  0  0  0  0  0  0  0  0  0
   20.8225  -24.2991    3.9104 C   0  0  0  0  0  0  0  0  0  0  0  0
   20.1858  -25.3587    3.0029 C   0  0  0  0  0  0  0  0  0  0  0  0
   18.7425  -24.9688    3.0569 C   0  0  1  0  0  0  0  0  0  0  0  0
   18.0107  -25.7623    4.0465 C   0  0  0  0  0  0  0  0  0  0  0  0
   17.9196  -25.3921    5.2423 O   0  0  0  0  0  0  0  0  0  0  0  0
   17.3960  -26.9498    3.6858 O   0  0  0  0  0  0  0  0  0  0  0  0
  2  1  1  6
  2  3  1  0
  3  4  1  0
  5  6  2  0
  5  2  1  0
  7  5  1  0
  8  9  1  0
  8  7  1  0
  9 11  1  0
 10  9  2  0
 11 12  1  0
 12 13  1  0
 14 13  1  0
 15 11  1  0
 15 14  1  0
 15 16  1  1
 16 17  2  0
 16 18  1  0
M  END
$$$$
