CGP.pdb
     RDKit          3D

 18 18  0  0  1  0  0  0  0  0999 V2000
   15.7807  -24.8395   -3.0833 N   0  0  0  0  0  0  0  0  0  0  0  0
   14.7169  -24.1056   -2.3782 C   0  0  1  0  0  0  0  0  0  0  0  0
   13.7855  -25.1842   -1.8515 C   0  0  0  0  0  0  0  0  0  0  0  0
   12.6508  -25.7949   -3.1128 S   0  0  0  0  0  0  0  0  0  0  0  0
   15.3489  -23.3064   -1.3246 C   0  0  0  0  0  0  0  0  0  0  0  0
   16.3706  -23.7513   -0.6947 O   0  0  0  0  0  0  0  0  0  0  0  0
   14.9137  -22.0249   -0.9184 N   0  0  0  0  0  0  0  0  0  0  0  0
   15.6082  -21.2811    0.1147 C   0  0  0  0  0  0  0  0  0  0  0  0
   15.0166  -21.4672    1.4417 C   0  0  0  0  0  0  0  0  0  0  0  0
   13.9408  -22.1456    1.5347 O   0  0  0  0  0  0  0  0  0  0  0  0
   15.6306  -20.9053    2.5805 N   0  0  0  0  0  0  0  0  0  0  0  0
   16.9729  -20.3565    2.6144 C   0  0  0  0  0  0  0  0  0  0  0  0
   16.7803  -19.2045    3.6095 C   0  0  0  0  0  0  0  0  0  0  0  0
   16.0466  -19.9678    4.7188 C   0  0  0  0  0  0  0  0  0  0  0  0
   15.0561  -20.7630    3.9284 C   0  0  1  0  0  0  0  0  0  0  0  0
   13.7500  -20.1021    3.8876 C   0  0  0  0  0  0  0  0  0  0  0  0
   13.4479  -19.3094    2.9626 O   0  0  0  0  0  0  0  0  0  0  0  0
   12.8080  -20.3364    4.8755 O   0  0  0  0  0  0  0  0  0  0  0  0
  2  1  1  1
  2  3  1  0
  3  4  1  0
  5  6  2  0
  5  2  1  0
  7  5  1  0
  8  9  1  0
  8  7  1  0
  9 11  1  0
 10  9  2  0
 11 12  1  0
 12 13  1  0
 14 13  1  0
 15 11  1  0
 15 14  1  0
 15 16  1  6
 16 17  2  0
 16 18  1  0
M  END
$$$$
