CGP.pdb
     RDKit          3D

 18 18  0  0  1  0  0  0  0  0999 V2000
   25.5157  -20.9453  -12.7219 N   0  0  0  0  0  0  0  0  0  0  0  0
   25.1420  -20.3668  -11.4208 C   0  0  1  0  0  0  0  0  0  0  0  0
   23.8334  -21.0469  -11.0559 C   0  0  0  0  0  0  0  0  0  0  0  0
   23.0776  -20.3446   -9.5770 S   0  0  0  0  0  0  0  0  0  0  0  0
   26.2320  -20.6424  -10.4803 C   0  0  0  0  0  0  0  0  0  0  0  0
   26.7035  -21.8262  -10.3595 O   0  0  0  0  0  0  0  0  0  0  0  0
   26.8423  -19.6736   -9.6524 N   0  0  0  0  0  0  0  0  0  0  0  0
   27.9402  -20.0154   -8.7688 C   0  0  0  0  0  0  0  0  0  0  0  0
   27.5235  -20.1430   -7.3703 C   0  0  0  0  0  0  0  0  0  0  0  0
   26.2853  -20.0128   -7.0938 O   0  0  0  0  0  0  0  0  0  0  0  0
   28.4767  -20.4035   -6.3639 N   0  0  0  0  0  0  0  0  0  0  0  0
   29.8565  -20.7808   -6.6049 C   0  0  0  0  0  0  0  0  0  0  0  0
   30.5487  -20.0809   -5.4277 C   0  0  0  0  0  0  0  0  0  0  0  0
   29.6276  -20.5514   -4.2955 C   0  0  0  0  0  0  0  0  0  0  0  0
   28.2771  -20.3486   -4.9064 C   0  0  1  0  0  0  0  0  0  0  0  0
   27.6893  -19.0725   -4.4934 C   0  0  0  0  0  0  0  0  0  0  0  0
   27.7976  -18.0434   -5.2037 O   0  0  0  0  0  0  0  0  0  0  0  0
   26.9939  -18.9677   -3.3003 O   0  0  0  0  0  0  0  0  0  0  0  0
  2  1  1  6
  2  3  1  0
  3  4  1  0
  5  6  2  0
  5  2  1  0
  7  5  1  0
  8  9  1  0
  8  7  1  0
  9 11  1  0
 10  9  2  0
 11 12  1  0
 12 13  1  0
 14 13  1  0
 15 11  1  0
 15 14  1  0
 15 16  1  6
 16 17  2  0
 16 18  1  0
M  END
$$$$
