CGP.pdb
     RDKit          3D

 18 18  0  0  1  0  0  0  0  0999 V2000
   24.0657  -21.0517  -11.0970 N   0  0  0  0  0  0  0  0  0  0  0  0
   25.4996  -21.0044  -11.4271 C   0  0  1  0  0  0  0  0  0  0  0  0
   25.5744  -20.2040  -12.7163 C   0  0  0  0  0  0  0  0  0  0  0  0
   27.2713  -19.9052  -13.2477 S   0  0  0  0  0  0  0  0  0  0  0  0
   26.1962  -20.3753  -10.3012 C   0  0  0  0  0  0  0  0  0  0  0  0
   25.7215  -19.3229   -9.7484 O   0  0  0  0  0  0  0  0  0  0  0  0
   27.4045  -20.8462   -9.7403 N   0  0  0  0  0  0  0  0  0  0  0  0
   28.0916  -20.1118   -8.6956 C   0  0  0  0  0  0  0  0  0  0  0  0
   27.6709  -20.5121   -7.3508 C   0  0  0  0  0  0  0  0  0  0  0  0
   26.5795  -21.1601   -7.2262 O   0  0  0  0  0  0  0  0  0  0  0  0
   28.4612  -20.1835   -6.2297 N   0  0  0  0  0  0  0  0  0  0  0  0
   29.7293  -19.4811   -6.2850 C   0  0  0  0  0  0  0  0  0  0  0  0
   29.6539  -18.6631   -4.9889 C   0  0  0  0  0  0  0  0  0  0  0  0
   29.2377  -19.7810   -4.0253 C   0  0  0  0  0  0  0  0  0  0  0  0
   28.1738  -20.4750   -4.8157 C   0  0  1  0  0  0  0  0  0  0  0  0
   26.8373  -20.0140   -4.4341 C   0  0  0  0  0  0  0  0  0  0  0  0
   26.2022  -20.5564   -3.4972 O   0  0  0  0  0  0  0  0  0  0  0  0
   26.2356  -18.9603   -5.1019 O   0  0  0  0  0  0  0  0  0  0  0  0
  2  1  1  1
  2  3  1  0
  3  4  1  0
  5  6  2  0
  5  2  1  0
  7  5  1  0
  8  9  1  0
  8  7  1  0
  9 11  1  0
 10  9  2  0
 11 12  1  0
 12 13  1  0
 14 13  1  0
 15 11  1  0
 15 14  1  0
 15 16  1  1
 16 17  2  0
 16 18  1  0
M  END
$$$$
