CGP.pdb
     RDKit          3D

 18 18  0  0  1  0  0  0  0  0999 V2000
   27.9976  -18.6856   -6.9470 N   0  0  0  0  0  0  0  0  0  0  0  0
   27.5008  -20.0703   -6.8902 C   0  0  1  0  0  0  0  0  0  0  0  0
   27.1439  -20.2944   -5.4305 C   0  0  0  0  0  0  0  0  0  0  0  0
   28.5861  -20.2404   -4.3495 S   0  0  0  0  0  0  0  0  0  0  0  0
   26.3555  -20.1712   -7.7993 C   0  0  0  0  0  0  0  0  0  0  0  0
   25.6157  -19.1523   -8.0296 O   0  0  0  0  0  0  0  0  0  0  0  0
   25.9722  -21.3483   -8.4805 N   0  0  0  0  0  0  0  0  0  0  0  0
   26.6144  -21.7516   -9.7164 C   0  0  0  0  0  0  0  0  0  0  0  0
   26.1304  -21.0013  -10.8777 C   0  0  0  0  0  0  0  0  0  0  0  0
   24.8710  -20.8793  -11.0369 O   0  0  0  0  0  0  0  0  0  0  0  0
   27.0439  -20.4328  -11.7897 N   0  0  0  0  0  0  0  0  0  0  0  0
   28.4809  -20.3762  -11.5992 C   0  0  0  0  0  0  0  0  0  0  0  0
   28.9629  -20.5476  -13.0458 C   0  0  0  0  0  0  0  0  0  0  0  0
   28.0609  -19.5083  -13.7224 C   0  0  0  0  0  0  0  0  0  0  0  0
   26.7399  -19.7989  -13.0831 C   0  0  1  0  0  0  0  0  0  0  0  0
   25.9172  -20.6687  -13.9263 C   0  0  0  0  0  0  0  0  0  0  0  0
   25.1265  -20.1945  -14.7779 O   0  0  0  0  0  0  0  0  0  0  0  0
   25.9910  -22.0463  -13.8049 O   0  0  0  0  0  0  0  0  0  0  0  0
  2  1  1  1
  2  3  1  0
  3  4  1  0
  5  6  2  0
  5  2  1  0
  7  5  1  0
  8  9  1  0
  8  7  1  0
  9 11  1  0
 10  9  2  0
 11 12  1  0
 12 13  1  0
 14 13  1  0
 15 11  1  0
 15 14  1  0
 15 16  1  6
 16 17  2  0
 16 18  1  0
M  END
$$$$
