CGP.pdb
     RDKit          3D

 18 18  0  0  1  0  0  0  0  0999 V2000
   14.7861  -22.9920    0.6472 N   0  0  0  0  0  0  0  0  0  0  0  0
   14.6319  -22.0190    1.7411 C   0  0  1  0  0  0  0  0  0  0  0  0
   13.7608  -22.7239    2.7670 C   0  0  0  0  0  0  0  0  0  0  0  0
   12.0085  -22.3532    2.5584 S   0  0  0  0  0  0  0  0  0  0  0  0
   15.9715  -21.6860    2.2343 C   0  0  0  0  0  0  0  0  0  0  0  0
   16.8520  -22.6011    2.3944 O   0  0  0  0  0  0  0  0  0  0  0  0
   16.4039  -20.3824    2.5662 N   0  0  0  0  0  0  0  0  0  0  0  0
   17.7142  -20.1416    3.1389 C   0  0  0  0  0  0  0  0  0  0  0  0
   17.6544  -19.7694    4.5543 C   0  0  0  0  0  0  0  0  0  0  0  0
   16.5079  -19.6285    5.0948 O   0  0  0  0  0  0  0  0  0  0  0  0
   18.8417  -19.5744    5.2904 N   0  0  0  0  0  0  0  0  0  0  0  0
   20.1727  -19.9144    4.8245 C   0  0  0  0  0  0  0  0  0  0  0  0
   20.9910  -18.7845    5.4636 C   0  0  0  0  0  0  0  0  0  0  0  0
   20.4425  -18.8718    6.8929 C   0  0  0  0  0  0  0  0  0  0  0  0
   18.9737  -19.0036    6.6410 C   0  0  1  0  0  0  0  0  0  0  0  0
   18.2948  -17.7104    6.7453 C   0  0  0  0  0  0  0  0  0  0  0  0
   18.1479  -16.9674    5.7445 O   0  0  0  0  0  0  0  0  0  0  0  0
   17.7941  -17.2708    7.9594 O   0  0  0  0  0  0  0  0  0  0  0  0
  2  1  1  6
  2  3  1  0
  3  4  1  0
  5  6  2  0
  5  2  1  0
  7  5  1  0
  8  9  1  0
  8  7  1  0
  9 11  1  0
 10  9  2  0
 11 12  1  0
 12 13  1  0
 14 13  1  0
 15 11  1  0
 15 14  1  0
 15 16  1  6
 16 17  2  0
 16 18  1  0
M  END
$$$$
