GYY.pdb
     RDKit          3D

 29 30  0  0  1  0  0  0  0  0999 V2000
    7.9124  -23.6308   17.9498 N   0  0  0  0  0  0  0  0  0  0  0  0
    7.9708  -22.4202   18.7430 C   0  0  0  0  0  0  0  0  0  0  0  0
    9.3770  -21.9307   18.7541 C   0  0  0  0  0  0  0  0  0  0  0  0
   10.2823  -22.5425   18.1307 O   0  0  0  0  0  0  0  0  0  0  0  0
   10.2147  -19.4084   13.1350 O   0  0  0  0  0  0  0  0  0  0  0  0
   10.4454  -19.2848   14.5125 C   0  0  0  0  0  0  0  0  0  0  0  0
    9.4169  -19.1327   15.4107 C   0  0  0  0  0  0  0  0  0  0  0  0
    9.6742  -19.0134   16.7614 C   0  0  0  0  0  0  0  0  0  0  0  0
   10.9550  -19.0403   17.2700 C   0  0  0  0  0  0  0  0  0  0  0  0
   11.1805  -18.9106   18.7166 C   0  0  0  0  0  0  0  0  0  0  0  0
   11.1145  -20.2243   19.4622 C   0  0  2  0  0  0  0  0  0  0  0  0
    9.7613  -20.7597   19.4627 N   0  0  0  0  0  0  0  0  0  0  0  0
   11.6683  -20.1552   20.8301 C   0  0  0  0  0  0  0  0  0  0  0  0
   10.9743  -19.5758   21.7158 O   0  0  0  0  0  0  0  0  0  0  0  0
   11.9789  -19.1928   16.3654 C   0  0  0  0  0  0  0  0  0  0  0  0
   11.7339  -19.3146   14.9976 C   0  0  0  0  0  0  0  0  0  0  0  0
    9.1612  -25.1871   23.9045 O   0  0  0  0  0  0  0  0  0  0  0  0
   10.3010  -24.3970   23.6779 C   0  0  0  0  0  0  0  0  0  0  0  0
   10.9884  -24.4939   22.4999 C   0  0  0  0  0  0  0  0  0  0  0  0
   12.1094  -23.7394   22.2359 C   0  0  0  0  0  0  0  0  0  0  0  0
   12.5573  -22.8536   23.1917 C   0  0  0  0  0  0  0  0  0  0  0  0
   13.7429  -22.0032   23.0201 C   0  0  0  0  0  0  0  0  0  0  0  0
   13.4199  -20.5844   22.5872 C   0  0  2  0  0  0  0  0  0  0  0  0
   12.9059  -20.6830   21.2312 N   0  0  0  0  0  0  0  0  0  0  0  0
   14.5622  -19.6824   22.7083 C   0  0  0  0  0  0  0  0  0  0  0  0
   15.0831  -19.0907   21.7359 O   0  0  0  0  0  0  0  0  0  0  0  0
   11.8701  -22.7484   24.3846 C   0  0  0  0  0  0  0  0  0  0  0  0
   10.7562  -23.5096   24.6259 C   0  0  0  0  0  0  0  0  0  0  0  0
   15.1213  -19.4484   23.9544 O   0  0  0  0  0  0  0  0  0  0  0  0
  1  2  1  0
  3  4  2  0
  3  2  1  0
  6  5  1  0
  6 16  2  0
  7  6  1  0
  8  7  2  0
  8  9  1  0
  9 15  2  0
 10  9  1  0
 11 10  1  1
 11 12  1  0
 12  3  1  0
 13 24  1  0
 13 11  1  0
 14 13  2  0
 15 16  1  0
 18 28  2  0
 18 17  1  0
 19 18  1  0
 20 21  1  0
 20 19  2  0
 21 27  2  0
 22 21  1  0
 23 22  1  6
 23 24  1  0
 25 29  1  0
 25 23  1  0
 26 25  2  0
 27 28  1  0
M  END
$$$$
