GYY.pdb
     RDKit          3D

 29 30  0  0  1  0  0  0  0  0999 V2000
   10.1855  -18.8483   19.1781 N   0  0  0  0  0  0  0  0  0  0  0  0
    9.4315  -18.8513   20.4149 C   0  0  0  0  0  0  0  0  0  0  0  0
    9.6925  -17.5717   21.1300 C   0  0  0  0  0  0  0  0  0  0  0  0
   10.8270  -17.0290   21.0963 O   0  0  0  0  0  0  0  0  0  0  0  0
    7.5634  -13.0690   16.9084 O   0  0  0  0  0  0  0  0  0  0  0  0
    7.6371  -13.4557   18.2542 C   0  0  0  0  0  0  0  0  0  0  0  0
    8.4120  -12.7776   19.1636 C   0  0  0  0  0  0  0  0  0  0  0  0
    8.4652  -13.1813   20.4823 C   0  0  0  0  0  0  0  0  0  0  0  0
    7.7553  -14.2677   20.9468 C   0  0  0  0  0  0  0  0  0  0  0  0
    7.8422  -14.6600   22.3605 C   0  0  0  0  0  0  0  0  0  0  0  0
    8.9134  -15.6896   22.6408 C   0  0  2  0  0  0  0  0  0  0  0  0
    8.6828  -16.9075   21.8783 N   0  0  0  0  0  0  0  0  0  0  0  0
    9.0927  -15.9785   24.0785 C   0  0  0  0  0  0  0  0  0  0  0  0
    8.0761  -16.3512   24.7336 O   0  0  0  0  0  0  0  0  0  0  0  0
    6.9822  -14.9412   20.0310 C   0  0  0  0  0  0  0  0  0  0  0  0
    6.9187  -14.5447   18.6952 C   0  0  0  0  0  0  0  0  0  0  0  0
    5.1184  -12.0947   26.8661 O   0  0  0  0  0  0  0  0  0  0  0  0
    6.4138  -12.6307   26.7709 C   0  0  0  0  0  0  0  0  0  0  0  0
    6.8412  -13.2082   25.6074 C   0  0  0  0  0  0  0  0  0  0  0  0
    8.1013  -13.7454   25.4701 C   0  0  0  0  0  0  0  0  0  0  0  0
    8.9656  -13.7009   26.5424 C   0  0  0  0  0  0  0  0  0  0  0  0
   10.3294  -14.2464   26.5106 C   0  0  0  0  0  0  0  0  0  0  0  0
   10.3852  -15.7365   26.2259 C   0  0  2  0  0  0  0  0  0  0  0  0
   10.3038  -15.8751   24.7813 N   0  0  0  0  0  0  0  0  0  0  0  0
    9.3540  -16.4871   26.9375 C   0  0  0  0  0  0  0  0  0  0  0  0
    9.2233  -16.4742   28.1825 O   0  0  0  0  0  0  0  0  0  0  0  0
    8.5436  -13.1200   27.7216 C   0  0  0  0  0  0  0  0  0  0  0  0
    7.2843  -12.5912   27.8358 C   0  0  0  0  0  0  0  0  0  0  0  0
    8.4565  -17.2645   26.2232 O   0  0  0  0  0  0  0  0  0  0  0  0
  1  2  1  0
  3  4  2  0
  3  2  1  0
  6  5  1  0
  6 16  2  0
  7  6  1  0
  8  7  2  0
  8  9  1  0
  9 15  2  0
 10  9  1  0
 11 10  1  1
 11 12  1  0
 12  3  1  0
 13 24  1  0
 13 11  1  0
 14 13  2  0
 15 16  1  0
 18 28  2  0
 18 17  1  0
 19 18  1  0
 20 21  1  0
 20 19  2  0
 21 27  2  0
 22 21  1  0
 23 22  1  6
 23 24  1  0
 25 29  1  0
 25 23  1  0
 26 25  2  0
 27 28  1  0
M  END
$$$$
