GYY.pdb
     RDKit          3D

 29 30  0  0  1  0  0  0  0  0999 V2000
    9.5578  -25.5993   23.3762 N   0  0  0  0  0  0  0  0  0  0  0  0
    9.8044  -26.6974   24.2880 C   0  0  0  0  0  0  0  0  0  0  0  0
    9.3746  -26.2839   25.6522 C   0  0  0  0  0  0  0  0  0  0  0  0
    8.5734  -25.3284   25.8186 O   0  0  0  0  0  0  0  0  0  0  0  0
    3.7318  -28.7583   26.1488 O   0  0  0  0  0  0  0  0  0  0  0  0
    4.9362  -28.4830   26.8118 C   0  0  0  0  0  0  0  0  0  0  0  0
    5.0144  -27.5533   27.8203 C   0  0  0  0  0  0  0  0  0  0  0  0
    6.2140  -27.3032   28.4553 C   0  0  0  0  0  0  0  0  0  0  0  0
    7.3759  -27.9624   28.1158 C   0  0  0  0  0  0  0  0  0  0  0  0
    8.6304  -27.6635   28.8209 C   0  0  0  0  0  0  0  0  0  0  0  0
    9.4469  -26.5692   28.1712 C   0  0  2  0  0  0  0  0  0  0  0  0
    9.8439  -26.9419   26.8216 N   0  0  0  0  0  0  0  0  0  0  0  0
   10.6089  -26.1420   28.9774 C   0  0  0  0  0  0  0  0  0  0  0  0
   11.6749  -26.8163   28.8739 O   0  0  0  0  0  0  0  0  0  0  0  0
    7.2900  -28.8912   27.1059 C   0  0  0  0  0  0  0  0  0  0  0  0
    6.0845  -29.1544   26.4553 C   0  0  0  0  0  0  0  0  0  0  0  0
   16.5454  -21.0491   32.9792 O   0  0  0  0  0  0  0  0  0  0  0  0
   15.4328  -21.5853   32.3090 C   0  0  0  0  0  0  0  0  0  0  0  0
   14.1904  -21.5346   32.8779 C   0  0  0  0  0  0  0  0  0  0  0  0
   13.0735  -22.0473   32.2571 C   0  0  0  0  0  0  0  0  0  0  0  0
   13.2095  -22.6333   31.0175 C   0  0  0  0  0  0  0  0  0  0  0  0
   12.0895  -23.2163   30.2664 C   0  0  0  0  0  0  0  0  0  0  0  0
   11.7936  -24.6596   30.6323 C   0  0  2  0  0  0  0  0  0  0  0  0
   10.6293  -25.0437   29.8516 N   0  0  0  0  0  0  0  0  0  0  0  0
   11.6161  -24.8537   32.0689 C   0  0  0  0  0  0  0  0  0  0  0  0
   12.5634  -25.0512   32.8631 O   0  0  0  0  0  0  0  0  0  0  0  0
   14.4598  -22.6895   30.4346 C   0  0  0  0  0  0  0  0  0  0  0  0
   15.5582  -22.1726   31.0709 C   0  0  0  0  0  0  0  0  0  0  0  0
   10.3417  -24.8224   32.6121 O   0  0  0  0  0  0  0  0  0  0  0  0
  1  2  1  0
  3  4  2  0
  3  2  1  0
  6  5  1  0
  6 16  2  0
  7  6  1  0
  8  7  2  0
  8  9  1  0
  9 15  2  0
 10  9  1  0
 11 10  1  1
 11 12  1  0
 12  3  1  0
 13 24  1  0
 13 11  1  0
 14 13  2  0
 15 16  1  0
 18 28  2  0
 18 17  1  0
 19 18  1  0
 20 21  1  0
 20 19  2  0
 21 27  2  0
 22 21  1  0
 23 22  1  1
 23 24  1  0
 25 29  1  0
 25 23  1  0
 26 25  2  0
 27 28  1  0
M  END
$$$$
