GYY.pdb
     RDKit          3D

 29 30  0  0  1  0  0  0  0  0999 V2000
    8.1981  -19.6195   20.4159 N   0  0  0  0  0  0  0  0  0  0  0  0
    7.2008  -18.8348   21.1142 C   0  0  0  0  0  0  0  0  0  0  0  0
    7.8994  -17.8280   21.9599 C   0  0  0  0  0  0  0  0  0  0  0  0
    9.1404  -17.8936   22.1556 O   0  0  0  0  0  0  0  0  0  0  0  0
    7.7338  -12.5006   17.8944 O   0  0  0  0  0  0  0  0  0  0  0  0
    7.6237  -12.9642   19.2131 C   0  0  0  0  0  0  0  0  0  0  0  0
    8.5069  -12.5823   20.1937 C   0  0  0  0  0  0  0  0  0  0  0  0
    8.3738  -13.0549   21.4835 C   0  0  0  0  0  0  0  0  0  0  0  0
    7.3646  -13.9200   21.8480 C   0  0  0  0  0  0  0  0  0  0  0  0
    7.2618  -14.3963   23.2347 C   0  0  0  0  0  0  0  0  0  0  0  0
    7.8438  -15.7754   23.4483 C   0  0  2  0  0  0  0  0  0  0  0  0
    7.2053  -16.7543   22.5811 N   0  0  0  0  0  0  0  0  0  0  0  0
    7.8261  -16.2114   24.8597 C   0  0  0  0  0  0  0  0  0  0  0  0
    6.7133  -16.5572   25.3534 O   0  0  0  0  0  0  0  0  0  0  0  0
    6.4847  -14.2977   20.8616 C   0  0  0  0  0  0  0  0  0  0  0  0
    6.6068  -13.8282   19.5538 C   0  0  0  0  0  0  0  0  0  0  0  0
    5.0417  -22.2102   27.5678 O   0  0  0  0  0  0  0  0  0  0  0  0
    6.0438  -21.3237   27.1383 C   0  0  0  0  0  0  0  0  0  0  0  0
    6.8840  -20.7365   28.0432 C   0  0  0  0  0  0  0  0  0  0  0  0
    7.8789  -19.8625   27.6667 C   0  0  0  0  0  0  0  0  0  0  0  0
    8.0362  -19.5669   26.3301 C   0  0  0  0  0  0  0  0  0  0  0  0
    9.0592  -18.6463   25.8159 C   0  0  0  0  0  0  0  0  0  0  0  0
    9.1959  -17.3700   26.6265 C   0  0  2  0  0  0  0  0  0  0  0  0
    8.9473  -16.2760   25.7024 N   0  0  0  0  0  0  0  0  0  0  0  0
   10.4830  -17.2689   27.3091 C   0  0  0  0  0  0  0  0  0  0  0  0
   11.5292  -16.8595   26.7569 O   0  0  0  0  0  0  0  0  0  0  0  0
    7.1929  -20.1547   25.4084 C   0  0  0  0  0  0  0  0  0  0  0  0
    6.2090  -21.0221   25.8059 C   0  0  0  0  0  0  0  0  0  0  0  0
   10.5831  -17.6384   28.6409 O   0  0  0  0  0  0  0  0  0  0  0  0
  1  2  1  0
  3  4  2  0
  3  2  1  0
  6  5  1  0
  6 16  2  0
  7  6  1  0
  8  7  2  0
  8  9  1  0
  9 15  2  0
 10  9  1  0
 11 10  1  1
 11 12  1  0
 12  3  1  0
 13 24  1  0
 13 11  1  0
 14 13  2  0
 15 16  1  0
 18 28  2  0
 18 17  1  0
 19 18  1  0
 20 21  1  0
 20 19  2  0
 21 27  2  0
 22 21  1  0
 23 22  1  6
 23 24  1  0
 25 29  1  0
 25 23  1  0
 26 25  2  0
 27 28  1  0
M  END
$$$$
