GYY.pdb
     RDKit          3D

 29 30  0  0  1  0  0  0  0  0999 V2000
    7.3477  -13.3208   18.3657 N   0  0  0  0  0  0  0  0  0  0  0  0
    8.6487  -13.2527   18.9988 C   0  0  0  0  0  0  0  0  0  0  0  0
    8.8715  -14.5149   19.7566 C   0  0  0  0  0  0  0  0  0  0  0  0
    7.9044  -15.1761   20.2151 O   0  0  0  0  0  0  0  0  0  0  0  0
    9.4295  -19.3548   15.2369 O   0  0  0  0  0  0  0  0  0  0  0  0
    9.9242  -18.8041   16.4278 C   0  0  0  0  0  0  0  0  0  0  0  0
   10.9361  -17.8749   16.4332 C   0  0  0  0  0  0  0  0  0  0  0  0
   11.4030  -17.3499   17.6212 C   0  0  0  0  0  0  0  0  0  0  0  0
   10.8864  -17.7248   18.8429 C   0  0  0  0  0  0  0  0  0  0  0  0
   11.4148  -17.1378   20.0824 C   0  0  0  0  0  0  0  0  0  0  0  0
   10.4380  -16.2231   20.7862 C   0  0  2  0  0  0  0  0  0  0  0  0
   10.1748  -15.0294   19.9965 N   0  0  0  0  0  0  0  0  0  0  0  0
   10.8397  -15.8801   22.1659 C   0  0  0  0  0  0  0  0  0  0  0  0
   11.8381  -15.1166   22.3140 O   0  0  0  0  0  0  0  0  0  0  0  0
    9.8741  -18.6549   18.8295 C   0  0  0  0  0  0  0  0  0  0  0  0
    9.3923  -19.1940   17.6367 C   0  0  0  0  0  0  0  0  0  0  0  0
   10.0460  -14.6461   30.9393 O   0  0  0  0  0  0  0  0  0  0  0  0
    9.8618  -14.9901   29.5894 C   0  0  0  0  0  0  0  0  0  0  0  0
   10.1134  -16.2630   29.1580 C   0  0  0  0  0  0  0  0  0  0  0  0
    9.9466  -16.6435   27.8454 C   0  0  0  0  0  0  0  0  0  0  0  0
    9.5103  -15.7097   26.9308 C   0  0  0  0  0  0  0  0  0  0  0  0
    9.3023  -16.0024   25.5062 C   0  0  0  0  0  0  0  0  0  0  0  0
   10.5634  -15.8897   24.6686 C   0  0  2  0  0  0  0  0  0  0  0  0
   10.2013  -16.3315   23.3321 N   0  0  0  0  0  0  0  0  0  0  0  0
   11.6876  -16.6288   25.2370 C   0  0  0  0  0  0  0  0  0  0  0  0
   12.5661  -16.1053   25.9589 O   0  0  0  0  0  0  0  0  0  0  0  0
    9.2534  -14.4216   27.3564 C   0  0  0  0  0  0  0  0  0  0  0  0
    9.4265  -14.0650   28.6684 C   0  0  0  0  0  0  0  0  0  0  0  0
   11.8153  -17.9847   24.9816 O   0  0  0  0  0  0  0  0  0  0  0  0
  1  2  1  0
  3  4  2  0
  3  2  1  0
  6  5  1  0
  6 16  2  0
  7  6  1  0
  8  7  2  0
  8  9  1  0
  9 15  2  0
 10  9  1  0
 11 10  1  6
 11 12  1  0
 12  3  1  0
 13 24  1  0
 13 11  1  0
 14 13  2  0
 15 16  1  0
 18 28  2  0
 18 17  1  0
 19 18  1  0
 20 21  1  0
 20 19  2  0
 21 27  2  0
 22 21  1  0
 23 22  1  1
 23 24  1  0
 25 29  1  0
 25 23  1  0
 26 25  2  0
 27 28  1  0
M  END
$$$$
