GYY.pdb
     RDKit          3D

 29 30  0  0  1  0  0  0  0  0999 V2000
    8.8611  -19.2123   18.5786 N   0  0  0  0  0  0  0  0  0  0  0  0
    8.3230  -18.6118   19.7819 C   0  0  0  0  0  0  0  0  0  0  0  0
    9.3141  -17.6307   20.3037 C   0  0  0  0  0  0  0  0  0  0  0  0
   10.4579  -17.5279   19.7901 O   0  0  0  0  0  0  0  0  0  0  0  0
    6.4865  -12.7161   17.2955 O   0  0  0  0  0  0  0  0  0  0  0  0
    7.1427  -13.1356   18.4614 C   0  0  0  0  0  0  0  0  0  0  0  0
    6.4757  -13.7663   19.4836 C   0  0  0  0  0  0  0  0  0  0  0  0
    7.1480  -14.1682   20.6199 C   0  0  0  0  0  0  0  0  0  0  0  0
    8.5007  -13.9608   20.7848 C   0  0  0  0  0  0  0  0  0  0  0  0
    9.1744  -14.4073   22.0124 C   0  0  0  0  0  0  0  0  0  0  0  0
    9.9117  -15.7184   21.8585 C   0  0  2  0  0  0  0  0  0  0  0  0
    9.0192  -16.7710   21.3966 N   0  0  0  0  0  0  0  0  0  0  0  0
   10.6470  -16.1281   23.0726 C   0  0  0  0  0  0  0  0  0  0  0  0
   11.7617  -15.5732   23.2990 O   0  0  0  0  0  0  0  0  0  0  0  0
    9.1613  -13.3291   19.7579 C   0  0  0  0  0  0  0  0  0  0  0  0
    8.4949  -12.9174   18.6037 C   0  0  0  0  0  0  0  0  0  0  0  0
   10.7029  -14.7030   31.4412 O   0  0  0  0  0  0  0  0  0  0  0  0
   10.5324  -14.9586   30.0701 C   0  0  0  0  0  0  0  0  0  0  0  0
   10.7368  -16.2141   29.5684 C   0  0  0  0  0  0  0  0  0  0  0  0
   10.5812  -16.5090   28.2327 C   0  0  0  0  0  0  0  0  0  0  0  0
   10.2058  -15.5045   27.3673 C   0  0  0  0  0  0  0  0  0  0  0  0
   10.0153  -15.7035   25.9242 C   0  0  0  0  0  0  0  0  0  0  0  0
   10.5326  -17.0378   25.4177 C   0  0  2  0  0  0  0  0  0  0  0  0
   10.2087  -17.0853   24.0015 N   0  0  0  0  0  0  0  0  0  0  0  0
   10.0031  -18.1720   26.1701 C   0  0  0  0  0  0  0  0  0  0  0  0
   10.5038  -18.5878   27.2395 O   0  0  0  0  0  0  0  0  0  0  0  0
    9.9970  -14.2333   27.8640 C   0  0  0  0  0  0  0  0  0  0  0  0
   10.1578  -13.9624   29.1979 C   0  0  0  0  0  0  0  0  0  0  0  0
    8.8862  -18.8443   25.7004 O   0  0  0  0  0  0  0  0  0  0  0  0
  1  2  1  0
  3  4  2  0
  3  2  1  0
  6  5  1  0
  6 16  2  0
  7  6  1  0
  8  7  2  0
  8  9  1  0
  9 15  2  0
 10  9  1  0
 11 10  1  1
 11 12  1  0
 12  3  1  0
 13 24  1  0
 13 11  1  0
 14 13  2  0
 15 16  1  0
 18 28  2  0
 18 17  1  0
 19 18  1  0
 20 21  1  0
 20 19  2  0
 21 27  2  0
 22 21  1  0
 23 22  1  1
 23 24  1  0
 25 29  1  0
 25 23  1  0
 26 25  2  0
 27 28  1  0
M  END
$$$$
