GYY.pdb
     RDKit          3D

 29 30  0  0  1  0  0  0  0  0999 V2000
   10.8349  -18.0683   17.9526 N   0  0  0  0  0  0  0  0  0  0  0  0
    9.8447  -18.3213   18.9791 C   0  0  0  0  0  0  0  0  0  0  0  0
   10.0189  -17.3138   20.0615 C   0  0  0  0  0  0  0  0  0  0  0  0
   11.0978  -16.6798   20.1907 O   0  0  0  0  0  0  0  0  0  0  0  0
    7.0045  -12.2286   17.4185 O   0  0  0  0  0  0  0  0  0  0  0  0
    7.2362  -12.9551   18.5951 C   0  0  0  0  0  0  0  0  0  0  0  0
    6.6243  -14.1612   18.8367 C   0  0  0  0  0  0  0  0  0  0  0  0
    6.8716  -14.8543   20.0043 C   0  0  0  0  0  0  0  0  0  0  0  0
    7.7309  -14.3799   20.9719 C   0  0  0  0  0  0  0  0  0  0  0  0
    7.9642  -15.1536   22.1995 C   0  0  0  0  0  0  0  0  0  0  0  0
    9.1401  -16.0997   22.1073 C   0  0  2  0  0  0  0  0  0  0  0  0
    8.9850  -17.0222   20.9925 N   0  0  0  0  0  0  0  0  0  0  0  0
    9.4199  -16.8180   23.3676 C   0  0  0  0  0  0  0  0  0  0  0  0
    8.4648  -17.4477   23.9089 O   0  0  0  0  0  0  0  0  0  0  0  0
    8.3395  -13.1725   20.7232 C   0  0  0  0  0  0  0  0  0  0  0  0
    8.0992  -12.4609   19.5478 C   0  0  0  0  0  0  0  0  0  0  0  0
   11.0426  -14.7221   31.4626 O   0  0  0  0  0  0  0  0  0  0  0  0
   10.9048  -14.8839   30.0736 C   0  0  0  0  0  0  0  0  0  0  0  0
   10.1629  -13.9977   29.3428 C   0  0  0  0  0  0  0  0  0  0  0  0
   10.0014  -14.1180   27.9809 C   0  0  0  0  0  0  0  0  0  0  0  0
   10.6082  -15.1687   27.3276 C   0  0  0  0  0  0  0  0  0  0  0  0
   10.5003  -15.3976   25.8804 C   0  0  0  0  0  0  0  0  0  0  0  0
   10.8184  -16.8216   25.4615 C   0  0  2  0  0  0  0  0  0  0  0  0
   10.6641  -16.8617   24.0168 N   0  0  0  0  0  0  0  0  0  0  0  0
   10.0011  -17.8118   26.1578 C   0  0  0  0  0  0  0  0  0  0  0  0
    8.7493  -17.8043   26.1513 O   0  0  0  0  0  0  0  0  0  0  0  0
   11.3595  -16.0690   28.0565 C   0  0  0  0  0  0  0  0  0  0  0  0
   11.5068  -15.9296   29.4121 C   0  0  0  0  0  0  0  0  0  0  0  0
   10.6161  -18.8272   26.8725 O   0  0  0  0  0  0  0  0  0  0  0  0
  1  2  1  0
  3  4  2  0
  3  2  1  0
  6  5  1  0
  6 16  2  0
  7  6  1  0
  8  7  2  0
  8  9  1  0
  9 15  2  0
 10  9  1  0
 11 10  1  1
 11 12  1  0
 12  3  1  0
 13 24  1  0
 13 11  1  0
 14 13  2  0
 15 16  1  0
 18 28  2  0
 18 17  1  0
 19 18  1  0
 20 21  1  0
 20 19  2  0
 21 27  2  0
 22 21  1  0
 23 22  1  1
 23 24  1  0
 25 29  1  0
 25 23  1  0
 26 25  2  0
 27 28  1  0
M  END
$$$$
