WQF.pdb
     RDKit          3D

 35 37  0  0  1  0  0  0  0  0999 V2000
   10.1444  -15.7377   22.2668 N   0  0  0  0  0  0  0  0  0  0  0  0
    9.4864  -16.2052   23.4991 C   0  0  1  0  0  0  0  0  0  0  0  0
    8.0191  -16.1608   23.3184 C   0  0  0  0  0  0  0  0  0  0  0  0
    7.4198  -14.8574   23.0260 C   0  0  0  0  0  0  0  0  0  0  0  0
    7.0663  -14.4372   21.7410 C   0  0  0  0  0  0  0  0  0  0  0  0
    6.5056  -13.2284   21.8489 N   0  0  0  0  0  0  0  0  0  0  0  0
    6.4883  -12.8625   23.1436 C   0  0  0  0  0  0  0  0  0  0  0  0
    6.0261  -11.7107   23.7330 C   0  0  0  0  0  0  0  0  0  0  0  0
    6.1082  -11.5074   25.0810 C   0  0  0  0  0  0  0  0  0  0  0  0
    6.6738  -12.5016   25.8363 C   0  0  0  0  0  0  0  0  0  0  0  0
    7.1398  -13.6605   25.2543 C   0  0  0  0  0  0  0  0  0  0  0  0
    7.0597  -13.8753   23.8933 C   0  0  0  0  0  0  0  0  0  0  0  0
   10.0319  -17.4957   23.9710 C   0  0  0  0  0  0  0  0  0  0  0  0
    9.5281  -18.0414   24.9811 O   0  0  0  0  0  0  0  0  0  0  0  0
   12.6865  -18.8136   19.5167 N   0  0  0  0  0  0  0  0  0  0  0  0
   13.7578  -18.7036   20.4335 C   0  0  0  0  0  0  0  0  0  0  0  0
   14.9312  -19.0224   20.1240 O   0  0  0  0  0  0  0  0  0  0  0  0
   13.4895  -18.2062   21.7920 C   0  0  0  0  0  0  0  0  0  0  0  0
   13.2194  -19.2616   22.8004 C   0  0  0  0  0  0  0  0  0  0  0  0
   12.0896  -19.0312   23.7465 C   0  0  2  0  0  0  0  0  0  0  0  0
   11.1036  -18.1234   23.3177 N   0  0  0  0  0  0  0  0  0  0  0  0
   12.6114  -18.8300   25.1256 C   0  0  0  0  0  0  0  0  0  0  0  0
   13.7009  -19.2528   25.5327 O   0  0  0  0  0  0  0  0  0  0  0  0
   11.8136  -18.0939   26.0693 N   0  0  0  0  0  0  0  0  0  0  0  0
   12.1631  -18.0604   27.4851 C   0  0  1  0  0  0  0  0  0  0  0  0
   12.6557  -16.7167   27.9062 C   0  0  0  0  0  0  0  0  0  0  0  0
   11.5183  -15.7949   28.0785 C   0  0  0  0  0  0  0  0  0  0  0  0
   11.1021  -15.4251   29.3486 C   0  0  0  0  0  0  0  0  0  0  0  0
   10.0573  -14.5547   29.5608 C   0  0  0  0  0  0  0  0  0  0  0  0
    9.4052  -14.0354   28.4639 C   0  0  0  0  0  0  0  0  0  0  0  0
    9.7717  -14.3642   27.1785 C   0  0  0  0  0  0  0  0  0  0  0  0
   10.8253  -15.2407   27.0254 C   0  0  0  0  0  0  0  0  0  0  0  0
   11.0543  -18.6021   28.3094 C   0  0  0  0  0  0  0  0  0  0  0  0
   11.0747  -18.7197   29.5569 O   0  0  0  0  0  0  0  0  0  0  0  0
    9.8542  -19.0374   27.7064 O   0  0  0  0  0  0  0  0  0  0  0  0
  2  1  1  6
  2  3  1  0
  4 12  1  0
  4  3  1  0
  5  4  2  0
  6  5  1  0
  6  7  1  0
  7 12  2  0
  8  7  1  0
  8  9  2  0
  9 10  1  0
 10 11  2  0
 12 11  1  0
 13  2  1  0
 13 21  1  0
 14 13  2  0
 16 15  1  0
 17 16  2  0
 18 16  1  0
 19 18  1  0
 20 21  1  0
 20 19  1  6
 22 20  1  0
 23 22  2  0
 24 22  1  0
 25 24  1  0
 25 33  1  0
 25 26  1  1
 27 26  1  0
 28 27  2  0
 29 28  1  0
 30 29  2  0
 30 31  1  0
 31 32  2  0
 32 27  1  0
 33 35  1  0
 34 33  2  0
M  END
$$$$
