WQF.pdb
     RDKit          3D

 35 37  0  0  1  0  0  0  0  0999 V2000
    6.5970  -17.9438   24.0895 N   0  0  0  0  0  0  0  0  0  0  0  0
    7.7668  -17.1647   23.6484 C   0  0  1  0  0  0  0  0  0  0  0  0
    8.1916  -16.2590   24.7378 C   0  0  0  0  0  0  0  0  0  0  0  0
    7.2090  -15.2880   25.2227 C   0  0  0  0  0  0  0  0  0  0  0  0
    6.3242  -15.5396   26.2746 C   0  0  0  0  0  0  0  0  0  0  0  0
    5.6120  -14.4272   26.4810 N   0  0  0  0  0  0  0  0  0  0  0  0
    6.0043  -13.4820   25.6074 C   0  0  0  0  0  0  0  0  0  0  0  0
    5.5557  -12.1951   25.4332 C   0  0  0  0  0  0  0  0  0  0  0  0
    6.0713  -11.3759   24.4697 C   0  0  0  0  0  0  0  0  0  0  0  0
    7.0628  -11.8854   23.6719 C   0  0  0  0  0  0  0  0  0  0  0  0
    7.5195  -13.1746   23.8393 C   0  0  0  0  0  0  0  0  0  0  0  0
    7.0056  -14.0091   24.8111 C   0  0  0  0  0  0  0  0  0  0  0  0
    8.8294  -18.0215   23.0807 C   0  0  0  0  0  0  0  0  0  0  0  0
    8.9029  -19.2221   23.4342 O   0  0  0  0  0  0  0  0  0  0  0  0
    8.7248  -16.7253   18.9249 N   0  0  0  0  0  0  0  0  0  0  0  0
   10.1368  -16.6651   18.8710 C   0  0  0  0  0  0  0  0  0  0  0  0
   10.7396  -15.7176   18.3114 O   0  0  0  0  0  0  0  0  0  0  0  0
   10.9234  -17.7471   19.4837 C   0  0  0  0  0  0  0  0  0  0  0  0
   11.7132  -17.3462   20.6750 C   0  0  0  0  0  0  0  0  0  0  0  0
   11.1516  -17.6857   22.0144 C   0  0  2  0  0  0  0  0  0  0  0  0
    9.7614  -17.5221   22.1579 N   0  0  0  0  0  0  0  0  0  0  0  0
   11.9961  -17.0935   23.0871 C   0  0  0  0  0  0  0  0  0  0  0  0
   12.5182  -15.9729   23.0315 O   0  0  0  0  0  0  0  0  0  0  0  0
   12.2349  -17.8558   24.2832 N   0  0  0  0  0  0  0  0  0  0  0  0
   12.0963  -17.2488   25.6024 C   0  0  1  0  0  0  0  0  0  0  0  0
   10.8311  -16.4684   25.7269 C   0  0  0  0  0  0  0  0  0  0  0  0
   10.7792  -15.7997   27.0397 C   0  0  0  0  0  0  0  0  0  0  0  0
   10.7408  -14.4159   27.1203 C   0  0  0  0  0  0  0  0  0  0  0  0
   10.6746  -13.7460   28.3208 C   0  0  0  0  0  0  0  0  0  0  0  0
   10.6457  -14.4863   29.4823 C   0  0  0  0  0  0  0  0  0  0  0  0
   10.6812  -15.8622   29.4674 C   0  0  0  0  0  0  0  0  0  0  0  0
   10.7473  -16.4803   28.2364 C   0  0  0  0  0  0  0  0  0  0  0  0
   12.3100  -18.2601   26.6674 C   0  0  0  0  0  0  0  0  0  0  0  0
   12.9359  -18.0613   27.7347 O   0  0  0  0  0  0  0  0  0  0  0  0
   11.7954  -19.5679   26.5330 O   0  0  0  0  0  0  0  0  0  0  0  0
  2  1  1  1
  2  3  1  0
  4 12  1  0
  4  3  1  0
  5  4  2  0
  6  5  1  0
  6  7  1  0
  7 12  2  0
  8  7  1  0
  8  9  2  0
  9 10  1  0
 10 11  2  0
 12 11  1  0
 13  2  1  0
 13 21  1  0
 14 13  2  0
 16 15  1  0
 17 16  2  0
 18 16  1  0
 19 18  1  0
 20 21  1  0
 20 19  1  6
 22 20  1  0
 23 22  2  0
 24 22  1  0
 25 24  1  0
 25 33  1  0
 25 26  1  6
 27 26  1  0
 28 27  2  0
 29 28  1  0
 30 29  2  0
 30 31  1  0
 31 32  2  0
 32 27  1  0
 33 35  1  0
 34 33  2  0
M  END
$$$$
