WQF.pdb
     RDKit          3D

 35 37  0  0  1  0  0  0  0  0999 V2000
    6.5551  -17.6116   24.6551 N   0  0  0  0  0  0  0  0  0  0  0  0
    7.4809  -17.1612   23.6016 C   0  0  1  0  0  0  0  0  0  0  0  0
    7.3134  -15.7069   23.3908 C   0  0  0  0  0  0  0  0  0  0  0  0
    6.9525  -14.8986   24.5569 C   0  0  0  0  0  0  0  0  0  0  0  0
    6.3758  -15.4241   25.7162 C   0  0  0  0  0  0  0  0  0  0  0  0
    6.2278  -14.4206   26.5870 N   0  0  0  0  0  0  0  0  0  0  0  0
    6.6835  -13.2825   26.0325 C   0  0  0  0  0  0  0  0  0  0  0  0
    6.7259  -12.0055   26.5376 C   0  0  0  0  0  0  0  0  0  0  0  0
    7.2171  -10.9587   25.8110 C   0  0  0  0  0  0  0  0  0  0  0  0
    7.6718  -11.2262   24.5458 C   0  0  0  0  0  0  0  0  0  0  0  0
    7.6338  -12.5037   24.0308 C   0  0  0  0  0  0  0  0  0  0  0  0
    7.1406  -13.5679   24.7581 C   0  0  0  0  0  0  0  0  0  0  0  0
    8.8672  -17.6151   23.8417 C   0  0  0  0  0  0  0  0  0  0  0  0
    9.1323  -18.2456   24.8924 O   0  0  0  0  0  0  0  0  0  0  0  0
   14.4804  -18.4087   19.3882 N   0  0  0  0  0  0  0  0  0  0  0  0
   14.0962  -17.4075   20.3103 C   0  0  0  0  0  0  0  0  0  0  0  0
   14.3307  -16.1920   20.1059 O   0  0  0  0  0  0  0  0  0  0  0  0
   13.4060  -17.8016   21.5487 C   0  0  0  0  0  0  0  0  0  0  0  0
   11.9982  -17.3420   21.6512 C   0  0  0  0  0  0  0  0  0  0  0  0
   11.2755  -17.6290   22.9239 C   0  0  2  0  0  0  0  0  0  0  0  0
    9.8955  -17.3538   22.9231 N   0  0  0  0  0  0  0  0  0  0  0  0
   12.0491  -17.1014   24.0805 C   0  0  0  0  0  0  0  0  0  0  0  0
   12.8221  -16.1365   24.0268 O   0  0  0  0  0  0  0  0  0  0  0  0
   11.9036  -17.7386   25.3618 N   0  0  0  0  0  0  0  0  0  0  0  0
   12.5653  -17.2044   26.5471 C   0  0  1  0  0  0  0  0  0  0  0  0
   12.3797  -15.7296   26.6722 C   0  0  0  0  0  0  0  0  0  0  0  0
   11.0260  -15.4334   27.1753 C   0  0  0  0  0  0  0  0  0  0  0  0
   10.7563  -15.4866   28.5345 C   0  0  0  0  0  0  0  0  0  0  0  0
    9.5140  -15.2021   29.0542 C   0  0  0  0  0  0  0  0  0  0  0  0
    8.5052  -14.8520   28.1837 C   0  0  0  0  0  0  0  0  0  0  0  0
    8.7110  -14.7817   26.8245 C   0  0  0  0  0  0  0  0  0  0  0  0
    9.9753  -15.0770   26.3597 C   0  0  0  0  0  0  0  0  0  0  0  0
   12.1858  -17.9830   27.7522 C   0  0  0  0  0  0  0  0  0  0  0  0
   12.6410  -17.7948   28.9045 O   0  0  0  0  0  0  0  0  0  0  0  0
   11.2443  -19.0315   27.6658 O   0  0  0  0  0  0  0  0  0  0  0  0
  2  1  1  1
  2  3  1  0
  4 12  1  0
  4  3  1  0
  5  4  2  0
  6  5  1  0
  6  7  1  0
  7 12  2  0
  8  7  1  0
  8  9  2  0
  9 10  1  0
 10 11  2  0
 12 11  1  0
 13  2  1  0
 13 21  1  0
 14 13  2  0
 16 15  1  0
 17 16  2  0
 18 16  1  0
 19 18  1  0
 20 21  1  0
 20 19  1  6
 22 20  1  0
 23 22  2  0
 24 22  1  0
 25 24  1  0
 25 33  1  0
 25 26  1  1
 27 26  1  0
 28 27  2  0
 29 28  1  0
 30 29  2  0
 30 31  1  0
 31 32  2  0
 32 27  1  0
 33 35  1  0
 34 33  2  0
M  END
$$$$
