WQF.pdb
     RDKit          3D

 35 37  0  0  1  0  0  0  0  0999 V2000
    8.9600  -15.4754   22.6462 N   0  0  0  0  0  0  0  0  0  0  0  0
    9.0963  -15.9842   24.0219 C   0  0  1  0  0  0  0  0  0  0  0  0
    7.7594  -16.0654   24.6493 C   0  0  0  0  0  0  0  0  0  0  0  0
    6.9183  -14.8686   24.5900 C   0  0  0  0  0  0  0  0  0  0  0  0
    5.7315  -14.7905   23.8564 C   0  0  0  0  0  0  0  0  0  0  0  0
    5.2024  -13.5811   24.0673 N   0  0  0  0  0  0  0  0  0  0  0  0
    6.0001  -12.8882   24.9006 C   0  0  0  0  0  0  0  0  0  0  0  0
    5.8748  -11.6102   25.3891 C   0  0  0  0  0  0  0  0  0  0  0  0
    6.8065  -11.0630   26.2244 C   0  0  0  0  0  0  0  0  0  0  0  0
    7.8840  -11.8394   26.5636 C   0  0  0  0  0  0  0  0  0  0  0  0
    8.0181  -13.1223   26.0791 C   0  0  0  0  0  0  0  0  0  0  0  0
    7.0810  -13.6842   25.2358 C   0  0  0  0  0  0  0  0  0  0  0  0
    9.9065  -17.2191   24.0853 C   0  0  0  0  0  0  0  0  0  0  0  0
    9.5575  -18.1421   24.8587 O   0  0  0  0  0  0  0  0  0  0  0  0
   16.3989  -19.7195   21.1861 N   0  0  0  0  0  0  0  0  0  0  0  0
   15.1775  -19.0119   21.0976 C   0  0  0  0  0  0  0  0  0  0  0  0
   14.9625  -18.1703   20.1923 O   0  0  0  0  0  0  0  0  0  0  0  0
   14.1294  -19.2648   22.0989 C   0  0  0  0  0  0  0  0  0  0  0  0
   13.1346  -18.1734   22.2494 C   0  0  0  0  0  0  0  0  0  0  0  0
   12.0942  -18.3365   23.3056 C   0  0  2  0  0  0  0  0  0  0  0  0
   11.0602  -17.3821   23.3030 N   0  0  0  0  0  0  0  0  0  0  0  0
   12.7386  -18.6021   24.6204 C   0  0  0  0  0  0  0  0  0  0  0  0
   13.5329  -19.5255   24.8392 O   0  0  0  0  0  0  0  0  0  0  0  0
   12.4354  -17.7379   25.7295 N   0  0  0  0  0  0  0  0  0  0  0  0
   12.9273  -18.0342   27.0704 C   0  0  1  0  0  0  0  0  0  0  0  0
   13.2999  -16.7957   27.8139 C   0  0  0  0  0  0  0  0  0  0  0  0
   12.1173  -15.9304   27.9751 C   0  0  0  0  0  0  0  0  0  0  0  0
   11.4444  -15.8818   29.1867 C   0  0  0  0  0  0  0  0  0  0  0  0
   10.3465  -15.0774   29.3917 C   0  0  0  0  0  0  0  0  0  0  0  0
    9.9057  -14.2936   28.3480 C   0  0  0  0  0  0  0  0  0  0  0  0
   10.5314  -14.2981   27.1220 C   0  0  0  0  0  0  0  0  0  0  0  0
   11.6264  -15.1231   26.9733 C   0  0  0  0  0  0  0  0  0  0  0  0
   11.9844  -18.9290   27.7865 C   0  0  0  0  0  0  0  0  0  0  0  0
   10.8600  -19.2808   27.3596 O   0  0  0  0  0  0  0  0  0  0  0  0
   12.3161  -19.4614   29.0513 O   0  0  0  0  0  0  0  0  0  0  0  0
  2  1  1  6
  2  3  1  0
  4 12  1  0
  4  3  1  0
  5  4  2  0
  6  5  1  0
  6  7  1  0
  7 12  2  0
  8  7  1  0
  8  9  2  0
  9 10  1  0
 10 11  2  0
 12 11  1  0
 13  2  1  0
 13 21  1  0
 14 13  2  0
 16 15  1  0
 17 16  2  0
 18 16  1  0
 19 18  1  0
 20 21  1  0
 20 19  1  6
 22 20  1  0
 23 22  2  0
 24 22  1  0
 25 24  1  0
 25 33  1  0
 25 26  1  1
 27 26  1  0
 28 27  2  0
 29 28  1  0
 30 29  2  0
 30 31  1  0
 31 32  2  0
 32 27  1  0
 33 35  1  0
 34 33  2  0
M  END
$$$$
