WQF.pdb
     RDKit          3D

 35 37  0  0  1  0  0  0  0  0999 V2000
    5.5672  -17.1177   23.5100 N   0  0  0  0  0  0  0  0  0  0  0  0
    6.9509  -16.7018   23.7973 C   0  0  1  0  0  0  0  0  0  0  0  0
    7.1833  -16.7473   25.2572 C   0  0  0  0  0  0  0  0  0  0  0  0
    6.6134  -15.6637   26.0600 C   0  0  0  0  0  0  0  0  0  0  0  0
    5.7737  -15.8709   27.1576 C   0  0  0  0  0  0  0  0  0  0  0  0
    5.4848  -14.6744   27.6794 N   0  0  0  0  0  0  0  0  0  0  0  0
    6.1022  -13.7179   26.9621 C   0  0  0  0  0  0  0  0  0  0  0  0
    6.0913  -12.3522   27.1113 C   0  0  0  0  0  0  0  0  0  0  0  0
    6.7768  -11.5288   26.2644 C   0  0  0  0  0  0  0  0  0  0  0  0
    7.4844  -12.1161   25.2478 C   0  0  0  0  0  0  0  0  0  0  0  0
    7.5017  -13.4849   25.0904 C   0  0  0  0  0  0  0  0  0  0  0  0
    6.8134  -14.3249   25.9422 C   0  0  0  0  0  0  0  0  0  0  0  0
    7.9379  -17.4294   22.9716 C   0  0  0  0  0  0  0  0  0  0  0  0
    8.5576  -18.3990   23.4693 O   0  0  0  0  0  0  0  0  0  0  0  0
    8.4443  -12.8841   17.9428 N   0  0  0  0  0  0  0  0  0  0  0  0
    9.3721  -13.8213   18.4538 C   0  0  0  0  0  0  0  0  0  0  0  0
   10.0598  -14.5522   17.7008 O   0  0  0  0  0  0  0  0  0  0  0  0
    9.5330  -13.9481   19.9109 C   0  0  0  0  0  0  0  0  0  0  0  0
    8.5839  -14.8843   20.5639 C   0  0  0  0  0  0  0  0  0  0  0  0
    9.1325  -16.1793   21.0603 C   0  0  2  0  0  0  0  0  0  0  0  0
    8.2015  -17.0583   21.6440 N   0  0  0  0  0  0  0  0  0  0  0  0
   10.3833  -15.9422   21.8308 C   0  0  0  0  0  0  0  0  0  0  0  0
   11.3603  -15.3119   21.4069 O   0  0  0  0  0  0  0  0  0  0  0  0
   10.4877  -16.4699   23.1648 N   0  0  0  0  0  0  0  0  0  0  0  0
   11.6671  -16.2150   23.9845 C   0  0  1  0  0  0  0  0  0  0  0  0
   11.4447  -16.5859   25.4122 C   0  0  0  0  0  0  0  0  0  0  0  0
   10.4237  -15.7051   26.0080 C   0  0  0  0  0  0  0  0  0  0  0  0
    9.3081  -16.2457   26.6294 C   0  0  0  0  0  0  0  0  0  0  0  0
    8.3366  -15.4662   27.2150 C   0  0  0  0  0  0  0  0  0  0  0  0
    8.4859  -14.0972   27.1779 C   0  0  0  0  0  0  0  0  0  0  0  0
    9.5709  -13.5012   26.5760 C   0  0  0  0  0  0  0  0  0  0  0  0
   10.5132  -14.3310   26.0055 C   0  0  0  0  0  0  0  0  0  0  0  0
   12.8732  -16.8195   23.3660 C   0  0  0  0  0  0  0  0  0  0  0  0
   14.0269  -16.7861   23.8542 O   0  0  0  0  0  0  0  0  0  0  0  0
   12.7861  -17.5001   22.1321 O   0  0  0  0  0  0  0  0  0  0  0  0
  2  1  1  1
  2  3  1  0
  4 12  1  0
  4  3  1  0
  5  4  2  0
  6  5  1  0
  6  7  1  0
  7 12  2  0
  8  7  1  0
  8  9  2  0
  9 10  1  0
 10 11  2  0
 12 11  1  0
 13  2  1  0
 13 21  1  0
 14 13  2  0
 16 15  1  0
 17 16  2  0
 18 16  1  0
 19 18  1  0
 20 21  1  0
 20 19  1  1
 22 20  1  0
 23 22  2  0
 24 22  1  0
 25 24  1  0
 25 33  1  0
 25 26  1  1
 27 26  1  0
 28 27  2  0
 29 28  1  0
 30 29  2  0
 30 31  1  0
 31 32  2  0
 32 27  1  0
 33 35  1  0
 34 33  2  0
M  END
$$$$
