WQF.pdb
     RDKit          3D

 35 37  0  0  1  0  0  0  0  0999 V2000
    7.1462  -18.1450   22.3280 N   0  0  0  0  0  0  0  0  0  0  0  0
    8.1042  -17.0612   22.6065 C   0  0  1  0  0  0  0  0  0  0  0  0
    7.3644  -15.8052   22.8563 C   0  0  0  0  0  0  0  0  0  0  0  0
    7.0338  -14.9802   21.6928 C   0  0  0  0  0  0  0  0  0  0  0  0
    5.7973  -15.0163   21.0428 C   0  0  0  0  0  0  0  0  0  0  0  0
    5.8264  -14.1062   20.0639 N   0  0  0  0  0  0  0  0  0  0  0  0
    7.0253  -13.4953   20.0630 C   0  0  0  0  0  0  0  0  0  0  0  0
    7.5176  -12.5104   19.2412 C   0  0  0  0  0  0  0  0  0  0  0  0
    8.7832  -12.0177   19.3843 C   0  0  0  0  0  0  0  0  0  0  0  0
    9.5563  -12.5442   20.3864 C   0  0  0  0  0  0  0  0  0  0  0  0
    9.0713  -13.5318   21.2159 C   0  0  0  0  0  0  0  0  0  0  0  0
    7.7932  -14.0347   21.0798 C   0  0  0  0  0  0  0  0  0  0  0  0
    9.0904  -17.4370   23.6417 C   0  0  0  0  0  0  0  0  0  0  0  0
    8.6981  -18.0242   24.6776 O   0  0  0  0  0  0  0  0  0  0  0  0
   14.5925  -14.8588   23.2963 N   0  0  0  0  0  0  0  0  0  0  0  0
   13.8639  -15.3412   22.1842 C   0  0  0  0  0  0  0  0  0  0  0  0
   13.9914  -14.8417   21.0403 O   0  0  0  0  0  0  0  0  0  0  0  0
   12.9245  -16.4578   22.3734 C   0  0  0  0  0  0  0  0  0  0  0  0
   12.8976  -17.0243   23.7451 C   0  0  0  0  0  0  0  0  0  0  0  0
   11.5603  -17.2684   24.3587 C   0  0  2  0  0  0  0  0  0  0  0  0
   10.4560  -17.1484   23.4949 N   0  0  0  0  0  0  0  0  0  0  0  0
   11.4568  -16.5524   25.6592 C   0  0  0  0  0  0  0  0  0  0  0  0
   12.3011  -15.7583   26.0926 O   0  0  0  0  0  0  0  0  0  0  0  0
   10.3030  -16.7802   26.4873 N   0  0  0  0  0  0  0  0  0  0  0  0
   10.2995  -16.3963   27.8946 C   0  0  1  0  0  0  0  0  0  0  0  0
    9.0458  -15.6830   28.2749 C   0  0  0  0  0  0  0  0  0  0  0  0
    8.8911  -14.4662   27.4571 C   0  0  0  0  0  0  0  0  0  0  0  0
    7.9612  -14.4262   26.4292 C   0  0  0  0  0  0  0  0  0  0  0  0
    7.7676  -13.3087   25.6494 C   0  0  0  0  0  0  0  0  0  0  0  0
    8.5311  -12.1912   25.9066 C   0  0  0  0  0  0  0  0  0  0  0  0
    9.4701  -12.1692   26.9129 C   0  0  0  0  0  0  0  0  0  0  0  0
    9.6214  -13.3169   27.6624 C   0  0  0  0  0  0  0  0  0  0  0  0
   10.6382  -17.5583   28.7535 C   0  0  0  0  0  0  0  0  0  0  0  0
   10.7577  -18.7397   28.3531 O   0  0  0  0  0  0  0  0  0  0  0  0
   10.8562  -17.3915   30.1384 O   0  0  0  0  0  0  0  0  0  0  0  0
  2  1  1  1
  2  3  1  0
  4 12  1  0
  4  3  1  0
  5  4  2  0
  6  5  1  0
  6  7  1  0
  7 12  2  0
  8  7  1  0
  8  9  2  0
  9 10  1  0
 10 11  2  0
 12 11  1  0
 13  2  1  0
 13 21  1  0
 14 13  2  0
 16 15  1  0
 17 16  2  0
 18 16  1  0
 19 18  1  0
 20 21  1  0
 20 19  1  6
 22 20  1  0
 23 22  2  0
 24 22  1  0
 25 24  1  0
 25 33  1  0
 25 26  1  1
 27 26  1  0
 28 27  2  0
 29 28  1  0
 30 29  2  0
 30 31  1  0
 31 32  2  0
 32 27  1  0
 33 35  1  0
 34 33  2  0
M  END
$$$$
