WQF.pdb
     RDKit          3D

 35 37  0  0  1  0  0  0  0  0999 V2000
    9.5636  -16.3883   21.3442 N   0  0  0  0  0  0  0  0  0  0  0  0
    8.7034  -15.9551   22.4588 C   0  0  1  0  0  0  0  0  0  0  0  0
    7.3017  -15.8750   21.9938 C   0  0  0  0  0  0  0  0  0  0  0  0
    7.0503  -15.1493   20.7474 C   0  0  0  0  0  0  0  0  0  0  0  0
    6.3906  -15.7034   19.6471 C   0  0  0  0  0  0  0  0  0  0  0  0
    6.2924  -14.7532   18.7118 N   0  0  0  0  0  0  0  0  0  0  0  0
    6.8604  -13.6222   19.1684 C   0  0  0  0  0  0  0  0  0  0  0  0
    7.0090  -12.3979   18.5629 C   0  0  0  0  0  0  0  0  0  0  0  0
    7.6363  -11.3568   19.1855 C   0  0  0  0  0  0  0  0  0  0  0  0
    8.1193  -11.5755   20.4496 C   0  0  0  0  0  0  0  0  0  0  0  0
    7.9747  -12.7997   21.0654 C   0  0  0  0  0  0  0  0  0  0  0  0
    7.3409  -13.8569   20.4445 C   0  0  0  0  0  0  0  0  0  0  0  0
    8.9248  -16.7557   23.6818 C   0  0  0  0  0  0  0  0  0  0  0  0
    8.0598  -16.7406   24.5891 O   0  0  0  0  0  0  0  0  0  0  0  0
   13.9624  -20.7509   24.1719 N   0  0  0  0  0  0  0  0  0  0  0  0
   13.4452  -20.7659   25.4882 C   0  0  0  0  0  0  0  0  0  0  0  0
   13.9310  -21.4984   26.3835 O   0  0  0  0  0  0  0  0  0  0  0  0
   12.3006  -19.9019   25.8177 C   0  0  0  0  0  0  0  0  0  0  0  0
   11.8056  -19.0675   24.6942 C   0  0  0  0  0  0  0  0  0  0  0  0
   10.6662  -18.1471   24.9756 C   0  0  2  0  0  0  0  0  0  0  0  0
   10.0827  -17.5297   23.8537 N   0  0  0  0  0  0  0  0  0  0  0  0
   11.0023  -17.2522   26.1161 C   0  0  0  0  0  0  0  0  0  0  0  0
   11.9175  -16.4192   26.1090 O   0  0  0  0  0  0  0  0  0  0  0  0
   10.2221  -17.3404   27.3213 N   0  0  0  0  0  0  0  0  0  0  0  0
   10.6544  -16.6790   28.5474 C   0  0  1  0  0  0  0  0  0  0  0  0
    9.5322  -15.9623   29.2199 C   0  0  0  0  0  0  0  0  0  0  0  0
    8.8820  -15.0413   28.2700 C   0  0  0  0  0  0  0  0  0  0  0  0
    7.7708  -15.4491   27.5475 C   0  0  0  0  0  0  0  0  0  0  0  0
    7.1190  -14.6212   26.6621 C   0  0  0  0  0  0  0  0  0  0  0  0
    7.5952  -13.3395   26.4930 C   0  0  0  0  0  0  0  0  0  0  0  0
    8.6937  -12.8765   27.1813 C   0  0  0  0  0  0  0  0  0  0  0  0
    9.3072  -13.7493   28.0551 C   0  0  0  0  0  0  0  0  0  0  0  0
   11.3972  -17.6251   29.4168 C   0  0  0  0  0  0  0  0  0  0  0  0
   11.9407  -17.3277   30.5061 O   0  0  0  0  0  0  0  0  0  0  0  0
   11.5413  -18.9805   29.0489 O   0  0  0  0  0  0  0  0  0  0  0  0
  2  1  1  6
  2  3  1  0
  4 12  1  0
  4  3  1  0
  5  4  2  0
  6  5  1  0
  6  7  1  0
  7 12  2  0
  8  7  1  0
  8  9  2  0
  9 10  1  0
 10 11  2  0
 12 11  1  0
 13  2  1  0
 13 21  1  0
 14 13  2  0
 16 15  1  0
 17 16  2  0
 18 16  1  0
 19 18  1  0
 20 21  1  0
 20 19  1  6
 22 20  1  0
 23 22  2  0
 24 22  1  0
 25 24  1  0
 25 33  1  0
 25 26  1  1
 27 26  1  0
 28 27  2  0
 29 28  1  0
 30 29  2  0
 30 31  1  0
 31 32  2  0
 32 27  1  0
 33 35  1  0
 34 33  2  0
M  END
$$$$
