WQF.pdb
     RDKit          3D

 35 37  0  0  1  0  0  0  0  0999 V2000
    6.0722  -18.0370   24.8093 N   0  0  0  0  0  0  0  0  0  0  0  0
    6.7684  -16.8947   24.1924 C   0  0  1  0  0  0  0  0  0  0  0  0
    7.4921  -16.1391   25.2378 C   0  0  0  0  0  0  0  0  0  0  0  0
    6.7647  -15.0600   25.9086 C   0  0  0  0  0  0  0  0  0  0  0  0
    5.5910  -15.2548   26.6416 C   0  0  0  0  0  0  0  0  0  0  0  0
    5.2304  -14.0731   27.1523 N   0  0  0  0  0  0  0  0  0  0  0  0
    6.1214  -13.1377   26.7758 C   0  0  0  0  0  0  0  0  0  0  0  0
    6.1598  -11.7910   27.0451 C   0  0  0  0  0  0  0  0  0  0  0  0
    7.1487  -10.9859   26.5564 C   0  0  0  0  0  0  0  0  0  0  0  0
    8.1135  -11.5718   25.7786 C   0  0  0  0  0  0  0  0  0  0  0  0
    8.0837  -12.9216   25.5035 C   0  0  0  0  0  0  0  0  0  0  0  0
    7.0892  -13.7433   25.9942 C   0  0  0  0  0  0  0  0  0  0  0  0
    7.5764  -17.2964   23.0214 C   0  0  0  0  0  0  0  0  0  0  0  0
    8.2417  -18.3579   23.0709 O   0  0  0  0  0  0  0  0  0  0  0  0
    9.5876  -12.6701   17.8327 N   0  0  0  0  0  0  0  0  0  0  0  0
    8.9392  -13.9268   17.8567 C   0  0  0  0  0  0  0  0  0  0  0  0
    8.0293  -14.2194   17.0439 O   0  0  0  0  0  0  0  0  0  0  0  0
    9.3383  -14.9192   18.8671 C   0  0  0  0  0  0  0  0  0  0  0  0
    8.3337  -15.1631   19.9323 C   0  0  0  0  0  0  0  0  0  0  0  0
    8.6431  -16.2228   20.9352 C   0  0  2  0  0  0  0  0  0  0  0  0
    7.6201  -16.5157   21.8560 N   0  0  0  0  0  0  0  0  0  0  0  0
    9.9987  -16.0033   21.5085 C   0  0  0  0  0  0  0  0  0  0  0  0
   11.0384  -15.9237   20.8420 O   0  0  0  0  0  0  0  0  0  0  0  0
   10.1363  -15.8683   22.9339 N   0  0  0  0  0  0  0  0  0  0  0  0
   11.4447  -15.6710   23.5480 C   0  0  1  0  0  0  0  0  0  0  0  0
   11.4533  -14.5063   24.4800 C   0  0  0  0  0  0  0  0  0  0  0  0
   10.5818  -14.7808   25.6368 C   0  0  0  0  0  0  0  0  0  0  0  0
    9.2112  -14.5925   25.5421 C   0  0  0  0  0  0  0  0  0  0  0  0
    8.3546  -14.8509   26.5879 C   0  0  0  0  0  0  0  0  0  0  0  0
    8.8875  -15.3143   27.7708 C   0  0  0  0  0  0  0  0  0  0  0  0
   10.2394  -15.5212   27.9264 C   0  0  0  0  0  0  0  0  0  0  0  0
   11.0503  -15.2456   26.8455 C   0  0  0  0  0  0  0  0  0  0  0  0
   11.9426  -16.9401   24.1347 C   0  0  0  0  0  0  0  0  0  0  0  0
   11.2973  -18.0132   24.1840 O   0  0  0  0  0  0  0  0  0  0  0  0
   13.2349  -17.0152   24.6984 O   0  0  0  0  0  0  0  0  0  0  0  0
  2  1  1  1
  2  3  1  0
  4 12  1  0
  4  3  1  0
  5  4  2  0
  6  5  1  0
  6  7  1  0
  7 12  2  0
  8  7  1  0
  8  9  2  0
  9 10  1  0
 10 11  2  0
 12 11  1  0
 13  2  1  0
 13 21  1  0
 14 13  2  0
 16 15  1  0
 17 16  2  0
 18 16  1  0
 19 18  1  0
 20 21  1  0
 20 19  1  1
 22 20  1  0
 23 22  2  0
 24 22  1  0
 25 24  1  0
 25 33  1  0
 25 26  1  1
 27 26  1  0
 28 27  2  0
 29 28  1  0
 30 29  2  0
 30 31  1  0
 31 32  2  0
 32 27  1  0
 33 35  1  0
 34 33  2  0
M  END
$$$$
