WQF.pdb
     RDKit          3D

 35 37  0  0  1  0  0  0  0  0999 V2000
    6.4919  -18.6097   20.8465 N   0  0  0  0  0  0  0  0  0  0  0  0
    6.7452  -17.3982   21.6453 C   0  0  1  0  0  0  0  0  0  0  0  0
    5.9198  -16.2866   21.1252 C   0  0  0  0  0  0  0  0  0  0  0  0
    6.5682  -15.3398   20.2161 C   0  0  0  0  0  0  0  0  0  0  0  0
    6.6692  -15.5350   18.8360 C   0  0  0  0  0  0  0  0  0  0  0  0
    7.2704  -14.4598   18.3167 N   0  0  0  0  0  0  0  0  0  0  0  0
    7.5560  -13.5920   19.3046 C   0  0  0  0  0  0  0  0  0  0  0  0
    8.1770  -12.3674   19.2565 C   0  0  0  0  0  0  0  0  0  0  0  0
    8.3971  -11.6258   20.3820 C   0  0  0  0  0  0  0  0  0  0  0  0
    7.9736  -12.1493   21.5760 C   0  0  0  0  0  0  0  0  0  0  0  0
    7.3495  -13.3764   21.6342 C   0  0  0  0  0  0  0  0  0  0  0  0
    7.1215  -14.1320   20.5020 C   0  0  0  0  0  0  0  0  0  0  0  0
    6.6327  -17.6505   23.0976 C   0  0  0  0  0  0  0  0  0  0  0  0
    5.5885  -17.3069   23.7003 O   0  0  0  0  0  0  0  0  0  0  0  0
    6.7428  -21.7377   26.3926 N   0  0  0  0  0  0  0  0  0  0  0  0
    7.5442  -21.1626   27.4062 C   0  0  0  0  0  0  0  0  0  0  0  0
    7.5050  -21.5680   28.5929 O   0  0  0  0  0  0  0  0  0  0  0  0
    8.4470  -20.0529   27.0619 C   0  0  0  0  0  0  0  0  0  0  0  0
    8.5003  -19.7179   25.6168 C   0  0  0  0  0  0  0  0  0  0  0  0
    7.9231  -18.4086   25.1959 C   0  0  2  0  0  0  0  0  0  0  0  0
    7.6690  -18.2624   23.8196 N   0  0  0  0  0  0  0  0  0  0  0  0
    8.6590  -17.2924   25.8495 C   0  0  0  0  0  0  0  0  0  0  0  0
    8.7591  -16.1500   25.3844 O   0  0  0  0  0  0  0  0  0  0  0  0
    9.3053  -17.5321   27.1119 N   0  0  0  0  0  0  0  0  0  0  0  0
    9.6617  -16.4280   27.9961 C   0  0  1  0  0  0  0  0  0  0  0  0
    8.4786  -15.5891   28.3453 C   0  0  0  0  0  0  0  0  0  0  0  0
    8.3631  -14.4635   27.4003 C   0  0  0  0  0  0  0  0  0  0  0  0
    7.3181  -14.4173   26.4899 C   0  0  0  0  0  0  0  0  0  0  0  0
    7.1575  -13.3801   25.5996 C   0  0  0  0  0  0  0  0  0  0  0  0
    8.0745  -12.3521   25.6204 C   0  0  0  0  0  0  0  0  0  0  0  0
    9.1329  -12.3411   26.5004 C   0  0  0  0  0  0  0  0  0  0  0  0
    9.2444  -13.4059   27.3696 C   0  0  0  0  0  0  0  0  0  0  0  0
   10.4390  -16.9214   29.1602 C   0  0  0  0  0  0  0  0  0  0  0  0
   10.9358  -16.1972   30.0541 O   0  0  0  0  0  0  0  0  0  0  0  0
   10.6748  -18.3023   29.3361 O   0  0  0  0  0  0  0  0  0  0  0  0
  2  1  1  6
  2  3  1  0
  4 12  1  0
  4  3  1  0
  5  4  2  0
  6  5  1  0
  6  7  1  0
  7 12  2  0
  8  7  1  0
  8  9  2  0
  9 10  1  0
 10 11  2  0
 12 11  1  0
 13  2  1  0
 13 21  1  0
 14 13  2  0
 16 15  1  0
 17 16  2  0
 18 16  1  0
 19 18  1  0
 20 21  1  0
 20 19  1  6
 22 20  1  0
 23 22  2  0
 24 22  1  0
 25 24  1  0
 25 33  1  0
 25 26  1  1
 27 26  1  0
 28 27  2  0
 29 28  1  0
 30 29  2  0
 30 31  1  0
 31 32  2  0
 32 27  1  0
 33 35  1  0
 34 33  2  0
M  END
$$$$
