WQF.pdb
     RDKit          3D

 35 37  0  0  1  0  0  0  0  0999 V2000
    7.5808  -19.2630   22.2808 N   0  0  0  0  0  0  0  0  0  0  0  0
    8.2428  -17.9512   22.3857 C   0  0  1  0  0  0  0  0  0  0  0  0
    7.2530  -16.9348   22.8038 C   0  0  0  0  0  0  0  0  0  0  0  0
    6.8667  -15.9290   21.8125 C   0  0  0  0  0  0  0  0  0  0  0  0
    5.6571  -15.9540   21.1133 C   0  0  0  0  0  0  0  0  0  0  0  0
    5.6149  -14.8673   20.3358 N   0  0  0  0  0  0  0  0  0  0  0  0
    6.7431  -14.1548   20.5093 C   0  0  0  0  0  0  0  0  0  0  0  0
    7.1498  -12.9817   19.9211 C   0  0  0  0  0  0  0  0  0  0  0  0
    8.3532  -12.4069   20.2153 C   0  0  0  0  0  0  0  0  0  0  0  0
    9.1523  -13.0462   21.1274 C   0  0  0  0  0  0  0  0  0  0  0  0
    8.7529  -14.2228   21.7229 C   0  0  0  0  0  0  0  0  0  0  0  0
    7.5380  -14.8101   21.4330 C   0  0  0  0  0  0  0  0  0  0  0  0
    9.4779  -18.0096   23.1960 C   0  0  0  0  0  0  0  0  0  0  0  0
    9.6133  -18.9251   24.0418 O   0  0  0  0  0  0  0  0  0  0  0  0
   14.8722  -15.6890   22.0904 N   0  0  0  0  0  0  0  0  0  0  0  0
   14.8797  -15.2763   23.4432 C   0  0  0  0  0  0  0  0  0  0  0  0
   15.9446  -15.0013   24.0469 O   0  0  0  0  0  0  0  0  0  0  0  0
   13.6028  -15.1711   24.1667 C   0  0  0  0  0  0  0  0  0  0  0  0
   12.4041  -15.5413   23.3732 C   0  0  0  0  0  0  0  0  0  0  0  0
   11.6276  -16.7331   23.8218 C   0  0  2  0  0  0  0  0  0  0  0  0
   10.5018  -17.0620   23.0443 N   0  0  0  0  0  0  0  0  0  0  0  0
   11.4155  -16.6799   25.2938 C   0  0  0  0  0  0  0  0  0  0  0  0
   12.3232  -16.6074   26.1318 O   0  0  0  0  0  0  0  0  0  0  0  0
   10.0707  -16.7107   25.8031 N   0  0  0  0  0  0  0  0  0  0  0  0
    9.8085  -16.6710   27.2375 C   0  0  1  0  0  0  0  0  0  0  0  0
    8.3831  -16.3468   27.5350 C   0  0  0  0  0  0  0  0  0  0  0  0
    8.0769  -14.9734   27.0954 C   0  0  0  0  0  0  0  0  0  0  0  0
    6.9668  -14.7222   26.3033 C   0  0  0  0  0  0  0  0  0  0  0  0
    6.6295  -13.4561   25.8819 C   0  0  0  0  0  0  0  0  0  0  0  0
    7.4308  -12.4035   26.2663 C   0  0  0  0  0  0  0  0  0  0  0  0
    8.5458  -12.5890   27.0519 C   0  0  0  0  0  0  0  0  0  0  0  0
    8.8358  -13.8787   27.4448 C   0  0  0  0  0  0  0  0  0  0  0  0
   10.3164  -17.9007   27.8952 C   0  0  0  0  0  0  0  0  0  0  0  0
   10.2713  -18.1305   29.1263 O   0  0  0  0  0  0  0  0  0  0  0  0
   10.9085  -18.9325   27.1349 O   0  0  0  0  0  0  0  0  0  0  0  0
  2  1  1  1
  2  3  1  0
  4 12  1  0
  4  3  1  0
  5  4  2  0
  6  5  1  0
  6  7  1  0
  7 12  2  0
  8  7  1  0
  8  9  2  0
  9 10  1  0
 10 11  2  0
 12 11  1  0
 13  2  1  0
 13 21  1  0
 14 13  2  0
 16 15  1  0
 17 16  2  0
 18 16  1  0
 19 18  1  0
 20 21  1  0
 20 19  1  6
 22 20  1  0
 23 22  2  0
 24 22  1  0
 25 24  1  0
 25 33  1  0
 25 26  1  6
 27 26  1  0
 28 27  2  0
 29 28  1  0
 30 29  2  0
 30 31  1  0
 31 32  2  0
 32 27  1  0
 33 35  1  0
 34 33  2  0
M  END
$$$$
