WQF.pdb
     RDKit          3D

 35 37  0  0  1  0  0  0  0  0999 V2000
    6.2646  -19.0341   22.4451 N   0  0  0  0  0  0  0  0  0  0  0  0
    7.1218  -17.8436   22.3107 C   0  0  1  0  0  0  0  0  0  0  0  0
    6.2761  -16.6304   22.2903 C   0  0  0  0  0  0  0  0  0  0  0  0
    6.6459  -15.5722   21.3485 C   0  0  0  0  0  0  0  0  0  0  0  0
    6.6794  -15.7449   19.9622 C   0  0  0  0  0  0  0  0  0  0  0  0
    7.0066  -14.5701   19.4144 N   0  0  0  0  0  0  0  0  0  0  0  0
    7.1829  -13.6605   20.3902 C   0  0  0  0  0  0  0  0  0  0  0  0
    7.5347  -12.3347   20.3129 C   0  0  0  0  0  0  0  0  0  0  0  0
    7.6833  -11.5618   21.4290 C   0  0  0  0  0  0  0  0  0  0  0  0
    7.4680  -12.1590   22.6439 C   0  0  0  0  0  0  0  0  0  0  0  0
    7.1144  -13.4879   22.7316 C   0  0  0  0  0  0  0  0  0  0  0  0
    6.9604  -14.2762   21.6092 C   0  0  0  0  0  0  0  0  0  0  0  0
    8.2264  -17.8343   23.2931 C   0  0  0  0  0  0  0  0  0  0  0  0
    7.9836  -18.1130   24.4911 O   0  0  0  0  0  0  0  0  0  0  0  0
   14.2561  -18.6888   22.0247 N   0  0  0  0  0  0  0  0  0  0  0  0
   14.2505  -18.0709   23.2969 C   0  0  0  0  0  0  0  0  0  0  0  0
   15.0702  -18.3884   24.1922 O   0  0  0  0  0  0  0  0  0  0  0  0
   13.2515  -17.0291   23.5825 C   0  0  0  0  0  0  0  0  0  0  0  0
   11.9729  -17.1715   22.8420 C   0  0  0  0  0  0  0  0  0  0  0  0
   10.7283  -17.3277   23.6489 C   0  0  2  0  0  0  0  0  0  0  0  0
    9.5409  -17.5168   22.9178 N   0  0  0  0  0  0  0  0  0  0  0  0
   10.6818  -16.2962   24.7205 C   0  0  0  0  0  0  0  0  0  0  0  0
   11.3181  -15.2350   24.7017 O   0  0  0  0  0  0  0  0  0  0  0  0
    9.8441  -16.5238   25.8675 N   0  0  0  0  0  0  0  0  0  0  0  0
   10.0093  -15.7405   27.0869 C   0  0  1  0  0  0  0  0  0  0  0  0
    8.8165  -14.8903   27.3694 C   0  0  0  0  0  0  0  0  0  0  0  0
    8.6624  -13.8726   26.3140 C   0  0  0  0  0  0  0  0  0  0  0  0
    9.4114  -12.7061   26.3506 C   0  0  0  0  0  0  0  0  0  0  0  0
    9.3159  -11.7346   25.3805 C   0  0  0  0  0  0  0  0  0  0  0  0
    8.4403  -11.9366   24.3362 C   0  0  0  0  0  0  0  0  0  0  0  0
    7.6699  -13.0736   24.2443 C   0  0  0  0  0  0  0  0  0  0  0  0
    7.8067  -14.0133   25.2444 C   0  0  0  0  0  0  0  0  0  0  0  0
   10.4332  -16.6101   28.2124 C   0  0  0  0  0  0  0  0  0  0  0  0
   10.6546  -16.2182   29.3820 O   0  0  0  0  0  0  0  0  0  0  0  0
   10.6204  -17.9963   28.0211 O   0  0  0  0  0  0  0  0  0  0  0  0
  2  1  1  1
  2  3  1  0
  4 12  1  0
  4  3  1  0
  5  4  2  0
  6  5  1  0
  6  7  1  0
  7 12  2  0
  8  7  1  0
  8  9  2  0
  9 10  1  0
 10 11  2  0
 12 11  1  0
 13  2  1  0
 13 21  1  0
 14 13  2  0
 16 15  1  0
 17 16  2  0
 18 16  1  0
 19 18  1  0
 20 21  1  0
 20 19  1  6
 22 20  1  0
 23 22  2  0
 24 22  1  0
 25 24  1  0
 25 33  1  0
 25 26  1  1
 27 26  1  0
 28 27  2  0
 29 28  1  0
 30 29  2  0
 30 31  1  0
 31 32  2  0
 32 27  1  0
 33 35  1  0
 34 33  2  0
M  END
$$$$
