HHV.pdb
     RDKit          3D

 28 29  0  0  1  0  0  0  0  0999 V2000
    8.8607  -15.8728   20.1585 N   0  0  0  0  0  0  0  0  0  0  0  0
    7.9093  -14.9187   20.6693 C   0  0  1  0  0  0  0  0  0  0  0  0
    6.7392  -14.7098   19.7346 C   0  0  0  0  0  0  0  0  0  0  0  0
    7.2977  -14.3396   18.4112 C   0  0  0  0  0  0  0  0  0  0  0  0
    8.1089  -13.2663   18.1559 C   0  0  0  0  0  0  0  0  0  0  0  0
    8.4342  -13.2189   16.8612 N   0  0  0  0  0  0  0  0  0  0  0  0
    7.8275  -14.2676   16.2869 C   0  0  0  0  0  0  0  0  0  0  0  0
    7.1328  -14.9581   17.2171 N   0  0  0  0  0  0  0  0  0  0  0  0
    7.4737  -15.2699   22.0467 C   0  0  0  0  0  0  0  0  0  0  0  0
    6.4660  -14.7014   22.5385 O   0  0  0  0  0  0  0  0  0  0  0  0
    8.1725  -16.2333   22.8164 N   0  0  0  0  0  0  0  0  0  0  0  0
    7.7504  -16.4899   24.2098 C   0  0  1  0  0  0  0  0  0  0  0  0
    8.0273  -17.9212   24.5476 C   0  0  0  0  0  0  0  0  0  0  0  0
    7.0993  -18.9154   24.0064 C   0  0  0  0  0  0  0  0  0  0  0  0
    5.9547  -18.5928   23.2677 C   0  0  0  0  0  0  0  0  0  0  0  0
    5.3191  -19.7177   22.9174 N   0  0  0  0  0  0  0  0  0  0  0  0
    6.0173  -20.7510   23.4064 C   0  0  0  0  0  0  0  0  0  0  0  0
    7.0868  -20.2582   24.0602 N   0  0  0  0  0  0  0  0  0  0  0  0
    8.3689  -15.5037   25.1080 C   0  0  0  0  0  0  0  0  0  0  0  0
    9.6434  -15.3026   25.0830 O   0  0  0  0  0  0  0  0  0  0  0  0
    7.2160  -11.9609   25.8445 C   0  0  0  0  0  0  0  0  0  0  0  0
    7.4179  -12.6345   27.1609 C   0  0  1  0  0  0  0  0  0  0  0  0
    6.1249  -13.0834   27.7585 C   0  0  0  0  0  0  0  0  0  0  0  0
    8.3607  -13.8160   26.9668 C   0  0  2  0  0  0  0  0  0  0  0  0
    7.6810  -14.7012   26.0466 N   0  0  0  0  0  0  0  0  0  0  0  0
    8.6910  -14.4158   28.2634 C   0  0  0  0  0  0  0  0  0  0  0  0
    8.3472  -15.5562   28.6250 O   0  0  0  0  0  0  0  0  0  0  0  0
    9.4531  -13.6096   29.1309 O   0  0  0  0  0  0  0  0  0  0  0  0
  2  9  1  0
  2  1  1  6
  3  2  1  0
  4  3  1  0
  5  4  2  0
  6  7  1  0
  6  5  1  0
  7  8  2  0
  8  4  1  0
  9 11  1  0
 10  9  2  0
 11 12  1  0
 12 13  1  1
 13 14  1  0
 14 18  1  0
 15 14  2  0
 15 16  1  0
 16 17  1  0
 18 17  2  0
 19 12  1  0
 19 20  2  0
 22 21  1  6
 22 24  1  0
 23 22  1  0
 24 26  1  0
 24 25  1  6
 25 19  1  0
 26 28  1  0
 27 26  2  0
M  END
$$$$
