HHV.pdb
     RDKit          3D

 28 29  0  0  1  0  0  0  0  0999 V2000
   10.8034  -21.9224   22.4317 N   0  0  0  0  0  0  0  0  0  0  0  0
   10.0431  -21.8082   23.6505 C   0  0  1  0  0  0  0  0  0  0  0  0
    9.6771  -23.1545   24.2335 C   0  0  0  0  0  0  0  0  0  0  0  0
    8.7049  -23.7828   23.3059 C   0  0  0  0  0  0  0  0  0  0  0  0
    8.2088  -23.2170   22.1617 C   0  0  0  0  0  0  0  0  0  0  0  0
    7.3547  -24.0475   21.5575 N   0  0  0  0  0  0  0  0  0  0  0  0
    7.3053  -25.1493   22.3199 C   0  0  0  0  0  0  0  0  0  0  0  0
    8.1212  -25.0028   23.3864 N   0  0  0  0  0  0  0  0  0  0  0  0
   10.7288  -20.9345   24.6388 C   0  0  0  0  0  0  0  0  0  0  0  0
   11.9072  -21.2021   24.9854 O   0  0  0  0  0  0  0  0  0  0  0  0
   10.0797  -19.8053   25.1980 N   0  0  0  0  0  0  0  0  0  0  0  0
   10.8082  -18.9587   26.1666 C   0  0  1  0  0  0  0  0  0  0  0  0
   10.6629  -17.5241   25.7664 C   0  0  0  0  0  0  0  0  0  0  0  0
   11.3079  -17.1225   24.5152 C   0  0  0  0  0  0  0  0  0  0  0  0
   10.7018  -17.2258   23.2575 C   0  0  0  0  0  0  0  0  0  0  0  0
   11.5453  -16.7792   22.3188 N   0  0  0  0  0  0  0  0  0  0  0  0
   12.6719  -16.3928   22.9319 C   0  0  0  0  0  0  0  0  0  0  0  0
   12.5194  -16.6033   24.2534 N   0  0  0  0  0  0  0  0  0  0  0  0
   10.3695  -19.2747   27.5339 C   0  0  0  0  0  0  0  0  0  0  0  0
    9.1523  -19.0521   27.9000 O   0  0  0  0  0  0  0  0  0  0  0  0
    9.6552  -22.1018   29.2292 C   0  0  0  0  0  0  0  0  0  0  0  0
   10.6802  -21.5088   30.1374 C   0  0  1  0  0  0  0  0  0  0  0  0
   12.0288  -22.1132   29.9216 C   0  0  0  0  0  0  0  0  0  0  0  0
   10.7224  -20.0024   29.9108 C   0  0  2  0  0  0  0  0  0  0  0  0
   11.1798  -19.8326   28.5490 N   0  0  0  0  0  0  0  0  0  0  0  0
   11.5667  -19.3633   30.9251 C   0  0  0  0  0  0  0  0  0  0  0  0
   11.3488  -19.3935   32.1503 O   0  0  0  0  0  0  0  0  0  0  0  0
   12.6944  -18.6771   30.4344 O   0  0  0  0  0  0  0  0  0  0  0  0
  2  9  1  0
  2  1  1  6
  3  2  1  0
  4  3  1  0
  5  4  2  0
  6  7  1  0
  6  5  1  0
  7  8  2  0
  8  4  1  0
  9 11  1  0
 10  9  2  0
 11 12  1  0
 12 13  1  6
 13 14  1  0
 14 18  1  0
 15 14  2  0
 15 16  1  0
 16 17  1  0
 18 17  2  0
 19 12  1  0
 19 20  2  0
 22 21  1  6
 22 24  1  0
 23 22  1  0
 24 26  1  0
 24 25  1  6
 25 19  1  0
 26 28  1  0
 27 26  2  0
M  END
$$$$
