HHV.pdb
     RDKit          3D

 28 29  0  0  1  0  0  0  0  0999 V2000
    9.1775  -15.7901   20.6354 N   0  0  0  0  0  0  0  0  0  0  0  0
    8.3152  -14.9346   21.4107 C   0  0  1  0  0  0  0  0  0  0  0  0
    7.0213  -14.6152   20.6963 C   0  0  0  0  0  0  0  0  0  0  0  0
    7.3724  -14.2301   19.3075 C   0  0  0  0  0  0  0  0  0  0  0  0
    7.8959  -13.0261   18.9182 C   0  0  0  0  0  0  0  0  0  0  0  0
    8.0962  -13.0042   17.5977 N   0  0  0  0  0  0  0  0  0  0  0  0
    7.6983  -14.2006   17.1415 C   0  0  0  0  0  0  0  0  0  0  0  0
    7.2558  -14.9565   18.1698 N   0  0  0  0  0  0  0  0  0  0  0  0
    8.0853  -15.4851   22.7724 C   0  0  0  0  0  0  0  0  0  0  0  0
    7.1935  -14.9788   23.4997 O   0  0  0  0  0  0  0  0  0  0  0  0
    8.8520  -16.5698   23.2668 N   0  0  0  0  0  0  0  0  0  0  0  0
    8.5639  -17.1037   24.6150 C   0  0  1  0  0  0  0  0  0  0  0  0
    8.4073  -18.5894   24.5281 C   0  0  0  0  0  0  0  0  0  0  0  0
    7.2161  -19.0852   23.8366 C   0  0  0  0  0  0  0  0  0  0  0  0
    7.1839  -19.4119   22.4758 C   0  0  0  0  0  0  0  0  0  0  0  0
    5.9562  -19.8331   22.1479 N   0  0  0  0  0  0  0  0  0  0  0  0
    5.1998  -19.7875   23.2525 C   0  0  0  0  0  0  0  0  0  0  0  0
    5.9668  -19.3362   24.2635 N   0  0  0  0  0  0  0  0  0  0  0  0
    9.5840  -16.6363   25.5650 C   0  0  0  0  0  0  0  0  0  0  0  0
   10.8332  -16.6420   25.2413 O   0  0  0  0  0  0  0  0  0  0  0  0
    9.9966  -13.4247   27.2038 C   0  0  0  0  0  0  0  0  0  0  0  0
    9.9891  -14.4089   28.3257 C   0  0  1  0  0  0  0  0  0  0  0  0
    8.6555  -14.4774   28.9947 C   0  0  0  0  0  0  0  0  0  0  0  0
   10.3896  -15.7748   27.7814 C   0  0  2  0  0  0  0  0  0  0  0  0
    9.3323  -16.1480   26.8675 N   0  0  0  0  0  0  0  0  0  0  0  0
   10.6048  -16.7146   28.8863 C   0  0  0  0  0  0  0  0  0  0  0  0
    9.8744  -17.6902   29.1395 O   0  0  0  0  0  0  0  0  0  0  0  0
   11.7298  -16.4579   29.6937 O   0  0  0  0  0  0  0  0  0  0  0  0
  2  9  1  0
  2  1  1  6
  3  2  1  0
  4  3  1  0
  5  4  2  0
  6  7  1  0
  6  5  1  0
  7  8  2  0
  8  4  1  0
  9 11  1  0
 10  9  2  0
 11 12  1  0
 12 13  1  6
 13 14  1  0
 14 18  1  0
 15 14  2  0
 15 16  1  0
 16 17  1  0
 18 17  2  0
 19 12  1  0
 19 20  2  0
 22 21  1  6
 22 24  1  0
 23 22  1  0
 24 26  1  0
 24 25  1  6
 25 19  1  0
 26 28  1  0
 27 26  2  0
M  END
$$$$
