HHV.pdb
     RDKit          3D

 28 29  0  0  1  0  0  0  0  0999 V2000
    9.1976  -15.7936   20.2032 N   0  0  0  0  0  0  0  0  0  0  0  0
    8.0545  -14.9943   20.5649 C   0  0  1  0  0  0  0  0  0  0  0  0
    6.9357  -15.0913   19.5523 C   0  0  0  0  0  0  0  0  0  0  0  0
    7.4516  -14.5377   18.2765 C   0  0  0  0  0  0  0  0  0  0  0  0
    8.4422  -13.6003   18.1526 C   0  0  0  0  0  0  0  0  0  0  0  0
    8.6670  -13.3196   16.8661 N   0  0  0  0  0  0  0  0  0  0  0  0
    7.8154  -14.0819   16.1651 C   0  0  0  0  0  0  0  0  0  0  0  0
    7.0701  -14.8277   17.0093 N   0  0  0  0  0  0  0  0  0  0  0  0
    7.5928  -15.2994   21.9448 C   0  0  0  0  0  0  0  0  0  0  0  0
    6.5579  -14.7390   22.3869 O   0  0  0  0  0  0  0  0  0  0  0  0
    8.2968  -16.2102   22.7718 N   0  0  0  0  0  0  0  0  0  0  0  0
    7.8590  -16.4034   24.1707 C   0  0  1  0  0  0  0  0  0  0  0  0
    8.2583  -17.7732   24.6219 C   0  0  0  0  0  0  0  0  0  0  0  0
    7.3832  -18.8771   24.2239 C   0  0  0  0  0  0  0  0  0  0  0  0
    6.1650  -18.7045   23.5562 C   0  0  0  0  0  0  0  0  0  0  0  0
    5.6055  -19.9002   23.3344 N   0  0  0  0  0  0  0  0  0  0  0  0
    6.4236  -20.8341   23.8374 C   0  0  0  0  0  0  0  0  0  0  0  0
    7.4907  -20.2086   24.3705 N   0  0  0  0  0  0  0  0  0  0  0  0
    8.3557  -15.2997   25.0056 C   0  0  0  0  0  0  0  0  0  0  0  0
    9.6055  -14.9786   24.9926 O   0  0  0  0  0  0  0  0  0  0  0  0
    7.0903  -11.8577   25.3021 C   0  0  0  0  0  0  0  0  0  0  0  0
    7.1927  -12.3287   26.7146 C   0  0  1  0  0  0  0  0  0  0  0  0
    5.8570  -12.6895   27.2772 C   0  0  0  0  0  0  0  0  0  0  0  0
    8.1390  -13.5221   26.7654 C   0  0  2  0  0  0  0  0  0  0  0  0
    7.5685  -14.5018   25.8670 N   0  0  0  0  0  0  0  0  0  0  0  0
    8.2996  -13.9797   28.1492 C   0  0  0  0  0  0  0  0  0  0  0  0
    8.8325  -13.3163   29.0578 O   0  0  0  0  0  0  0  0  0  0  0  0
    7.8014  -15.2674   28.4266 O   0  0  0  0  0  0  0  0  0  0  0  0
  2  9  1  0
  2  1  1  6
  3  2  1  0
  4  3  1  0
  5  4  2  0
  6  7  1  0
  6  5  1  0
  7  8  2  0
  8  4  1  0
  9 11  1  0
 10  9  2  0
 11 12  1  0
 12 13  1  1
 13 14  1  0
 14 18  1  0
 15 14  2  0
 15 16  1  0
 16 17  1  0
 18 17  2  0
 19 12  1  0
 19 20  2  0
 22 21  1  6
 22 24  1  0
 23 22  1  0
 24 26  1  0
 24 25  1  6
 25 19  1  0
 26 28  1  0
 27 26  2  0
M  END
$$$$
