HHV.pdb
     RDKit          3D

 28 29  0  0  1  0  0  0  0  0999 V2000
    8.8663  -15.9226   19.6829 N   0  0  0  0  0  0  0  0  0  0  0  0
    7.9898  -14.9143   20.2228 C   0  0  1  0  0  0  0  0  0  0  0  0
    6.8481  -14.5790   19.2898 C   0  0  0  0  0  0  0  0  0  0  0  0
    7.4382  -14.3105   17.9557 C   0  0  0  0  0  0  0  0  0  0  0  0
    8.2901  -13.2832   17.6487 C   0  0  0  0  0  0  0  0  0  0  0  0
    8.6356  -13.3270   16.3591 N   0  0  0  0  0  0  0  0  0  0  0  0
    8.0009  -14.3879   15.8401 C   0  0  0  0  0  0  0  0  0  0  0  0
    7.2692  -14.9956   16.7991 N   0  0  0  0  0  0  0  0  0  0  0  0
    7.5160  -15.2785   21.5841 C   0  0  0  0  0  0  0  0  0  0  0  0
    6.5989  -14.6048   22.1186 O   0  0  0  0  0  0  0  0  0  0  0  0
    8.0781  -16.3708   22.2912 N   0  0  0  0  0  0  0  0  0  0  0  0
    7.6170  -16.6557   23.6667 C   0  0  1  0  0  0  0  0  0  0  0  0
    7.9235  -18.0825   23.9981 C   0  0  0  0  0  0  0  0  0  0  0  0
    7.7327  -18.4890   25.3913 C   0  0  0  0  0  0  0  0  0  0  0  0
    8.7366  -19.0624   26.1807 C   0  0  0  0  0  0  0  0  0  0  0  0
    8.2507  -19.3201   27.4011 N   0  0  0  0  0  0  0  0  0  0  0  0
    6.9690  -18.9313   27.4213 C   0  0  0  0  0  0  0  0  0  0  0  0
    6.6664  -18.4325   26.2074 N   0  0  0  0  0  0  0  0  0  0  0  0
    8.1765  -15.6631   24.5959 C   0  0  0  0  0  0  0  0  0  0  0  0
    9.4238  -15.3377   24.5349 O   0  0  0  0  0  0  0  0  0  0  0  0
    7.5651  -12.0717   27.8611 C   0  0  0  0  0  0  0  0  0  0  0  0
    6.9906  -13.0737   26.9160 C   0  0  1  0  0  0  0  0  0  0  0  0
    6.4132  -12.4236   25.7016 C   0  0  0  0  0  0  0  0  0  0  0  0
    8.0823  -14.0643   26.5294 C   0  0  2  0  0  0  0  0  0  0  0  0
    7.4559  -14.9826   25.6039 N   0  0  0  0  0  0  0  0  0  0  0  0
    8.6424  -14.6915   27.7306 C   0  0  0  0  0  0  0  0  0  0  0  0
    8.3473  -15.8297   28.1392 O   0  0  0  0  0  0  0  0  0  0  0  0
    9.5774  -13.9159   28.4430 O   0  0  0  0  0  0  0  0  0  0  0  0
  2  9  1  0
  2  1  1  6
  3  2  1  0
  4  3  1  0
  5  4  2  0
  6  7  1  0
  6  5  1  0
  7  8  2  0
  8  4  1  0
  9 11  1  0
 10  9  2  0
 11 12  1  0
 12 13  1  1
 13 14  1  0
 14 18  1  0
 15 14  2  0
 15 16  1  0
 16 17  1  0
 18 17  2  0
 19 12  1  0
 19 20  2  0
 22 21  1  1
 22 24  1  0
 23 22  1  0
 24 26  1  0
 24 25  1  6
 25 19  1  0
 26 28  1  0
 27 26  2  0
M  END
$$$$
