CYM.pdb
     RDKit          3D

 27 27  0  0  1  0  0  0  0  0999 V2000
    4.0234  -22.5783   22.4559 N   0  0  0  0  0  0  0  0  0  0  0  0
    4.8975  -21.4989   22.0849 C   0  0  1  0  0  0  0  0  0  0  0  0
    4.1918  -20.6264   21.0710 C   0  0  0  0  0  0  0  0  0  0  0  0
    5.2329  -19.2404   20.5419 S   0  0  0  0  0  0  0  0  0  0  0  0
    5.2432  -20.6628   23.2666 C   0  0  0  0  0  0  0  0  0  0  0  0
    4.3685  -20.2456   24.0644 O   0  0  0  0  0  0  0  0  0  0  0  0
    9.4805  -18.1666   30.4308 O   0  0  0  0  0  0  0  0  0  0  0  0
    9.1568  -18.6011   29.1533 C   0  0  0  0  0  0  0  0  0  0  0  0
    8.0255  -19.3344   28.8975 C   0  0  0  0  0  0  0  0  0  0  0  0
    7.7283  -19.7531   27.6196 C   0  0  0  0  0  0  0  0  0  0  0  0
    8.5490  -19.4603   26.5242 C   0  0  0  0  0  0  0  0  0  0  0  0
    8.1644  -19.9789   25.2214 C   0  0  0  0  0  0  0  0  0  0  0  0
    6.9361  -19.3662   24.6151 C   0  0  2  0  0  0  0  0  0  0  0  0
    6.5841  -20.3154   23.5196 N   0  0  0  0  0  0  0  0  0  0  0  0
    7.2645  -18.0861   23.9655 C   0  0  0  0  0  0  0  0  0  0  0  0
    8.3585  -18.0518   23.2872 O   0  0  0  0  0  0  0  0  0  0  0  0
    9.6699  -18.7266   26.8145 C   0  0  0  0  0  0  0  0  0  0  0  0
    9.9718  -18.3069   28.0836 C   0  0  0  0  0  0  0  0  0  0  0  0
    7.2071  -11.2238   27.3862 C   0  0  0  0  0  0  0  0  0  0  0  0
    6.3001  -12.7736   27.1220 S   0  0  0  0  0  0  0  0  0  0  0  0
    7.2037  -13.7062   25.8391 C   0  0  0  0  0  0  0  0  0  0  0  0
    6.5065  -14.9713   25.4833 C   0  0  0  0  0  0  0  0  0  0  0  0
    7.1836  -15.6410   24.2986 C   0  0  2  0  0  0  0  0  0  0  0  0
    6.4971  -16.9003   24.0077 N   0  0  0  0  0  0  0  0  0  0  0  0
    8.6209  -15.8419   24.5566 C   0  0  0  0  0  0  0  0  0  0  0  0
    9.6224  -15.3662   23.6973 O   0  0  0  0  0  0  0  0  0  0  0  0
    9.0744  -16.4582   25.5684 O   0  0  0  0  0  0  0  0  0  0  0  0
  2  1  1  1
  2  3  1  0
  4  3  1  0
  5  2  1  0
  6  5  2  0
  8  7  1  0
  8  9  2  0
 10  9  1  0
 11 10  2  0
 13 12  1  6
 12 11  1  0
 13 14  1  0
 14  5  1  0
 15 24  1  0
 15 13  1  0
 16 15  2  0
 17 18  2  0
 17 11  1  0
 18  8  1  0
 20 19  1  0
 21 20  1  0
 22 21  1  0
 23 22  1  1
 23 24  1  0
 25 23  1  0
 25 26  1  0
 27 25  2  0
M  END
$$$$
