CYM.pdb
     RDKit          3D

 27 27  0  0  1  0  0  0  0  0999 V2000
   10.8543  -17.4995   18.3660 N   0  0  0  0  0  0  0  0  0  0  0  0
   10.0279  -17.9021   19.4712 C   0  0  1  0  0  0  0  0  0  0  0  0
   10.5199  -19.2358   19.9875 C   0  0  0  0  0  0  0  0  0  0  0  0
   10.2793  -20.5547   18.7680 S   0  0  0  0  0  0  0  0  0  0  0  0
   10.1008  -16.9118   20.5798 C   0  0  0  0  0  0  0  0  0  0  0  0
   11.1502  -16.2700   20.8297 O   0  0  0  0  0  0  0  0  0  0  0  0
    6.4295  -12.1984   27.3006 O   0  0  0  0  0  0  0  0  0  0  0  0
    6.6996  -12.9718   26.1806 C   0  0  0  0  0  0  0  0  0  0  0  0
    6.3025  -14.2820   26.0864 C   0  0  0  0  0  0  0  0  0  0  0  0
    6.5841  -15.0269   24.9628 C   0  0  0  0  0  0  0  0  0  0  0  0
    7.2802  -14.5006   23.8686 C   0  0  0  0  0  0  0  0  0  0  0  0
    7.5577  -15.3806   22.7448 C   0  0  0  0  0  0  0  0  0  0  0  0
    9.0092  -15.6381   22.4644 C   0  0  2  0  0  0  0  0  0  0  0  0
    8.9729  -16.6691   21.3870 N   0  0  0  0  0  0  0  0  0  0  0  0
    9.6546  -16.2735   23.6254 C   0  0  0  0  0  0  0  0  0  0  0  0
    9.0316  -17.2690   24.1537 O   0  0  0  0  0  0  0  0  0  0  0  0
    7.6617  -13.1901   23.9953 C   0  0  0  0  0  0  0  0  0  0  0  0
    7.3851  -12.4431   25.1103 C   0  0  0  0  0  0  0  0  0  0  0  0
    9.9004  -12.8529   28.7450 C   0  0  0  0  0  0  0  0  0  0  0  0
    9.3107  -14.5571   28.9495 S   0  0  0  0  0  0  0  0  0  0  0  0
   10.3753  -15.6161   27.9118 C   0  0  0  0  0  0  0  0  0  0  0  0
   10.1609  -15.3612   26.4619 C   0  0  0  0  0  0  0  0  0  0  0  0
   11.1032  -16.2098   25.6238 C   0  0  2  0  0  0  0  0  0  0  0  0
   10.8875  -15.9042   24.2090 N   0  0  0  0  0  0  0  0  0  0  0  0
   10.9210  -17.6435   25.9135 C   0  0  0  0  0  0  0  0  0  0  0  0
   10.3755  -18.5442   24.9867 O   0  0  0  0  0  0  0  0  0  0  0  0
   11.2373  -18.1838   27.0169 O   0  0  0  0  0  0  0  0  0  0  0  0
  2  1  1  6
  2  3  1  0
  4  3  1  0
  5  2  1  0
  6  5  2  0
  8  7  1  0
  8  9  2  0
 10  9  1  0
 11 10  2  0
 13 12  1  1
 12 11  1  0
 13 14  1  0
 14  5  1  0
 15 24  1  0
 15 13  1  0
 16 15  2  0
 17 18  2  0
 17 11  1  0
 18  8  1  0
 20 19  1  0
 21 20  1  0
 22 21  1  0
 23 22  1  1
 23 24  1  0
 25 23  1  0
 25 26  1  0
 27 25  2  0
M  END
$$$$
