CYM.pdb
     RDKit          3D

 27 27  0  0  1  0  0  0  0  0999 V2000
   10.3880  -17.0997   18.8423 N   0  0  0  0  0  0  0  0  0  0  0  0
    9.1922  -17.0424   19.6382 C   0  0  1  0  0  0  0  0  0  0  0  0
    8.7785  -18.4517   19.9989 C   0  0  0  0  0  0  0  0  0  0  0  0
    9.9993  -19.2527   21.0726 S   0  0  0  0  0  0  0  0  0  0  0  0
    9.4255  -16.2832   20.8968 C   0  0  0  0  0  0  0  0  0  0  0  0
   10.5807  -16.0632   21.3359 O   0  0  0  0  0  0  0  0  0  0  0  0
    6.6452  -11.7607   28.1397 O   0  0  0  0  0  0  0  0  0  0  0  0
    6.7766  -12.3982   26.9142 C   0  0  0  0  0  0  0  0  0  0  0  0
    6.1956  -13.6150   26.6594 C   0  0  0  0  0  0  0  0  0  0  0  0
    6.3423  -14.2256   25.4337 C   0  0  0  0  0  0  0  0  0  0  0  0
    7.0805  -13.6509   24.3927 C   0  0  0  0  0  0  0  0  0  0  0  0
    7.2041  -14.3934   23.1486 C   0  0  0  0  0  0  0  0  0  0  0  0
    8.5501  -15.0031   22.8870 C   0  0  2  0  0  0  0  0  0  0  0  0
    8.3348  -15.7860   21.6356 N   0  0  0  0  0  0  0  0  0  0  0  0
    8.8867  -15.9806   23.9355 C   0  0  0  0  0  0  0  0  0  0  0  0
    8.1726  -17.0516   23.9710 O   0  0  0  0  0  0  0  0  0  0  0  0
    7.6470  -12.4363   24.6804 C   0  0  0  0  0  0  0  0  0  0  0  0
    7.5052  -11.8231   25.8977 C   0  0  0  0  0  0  0  0  0  0  0  0
   13.4362  -19.6331   22.7126 C   0  0  0  0  0  0  0  0  0  0  0  0
   13.3257  -18.8695   24.3553 S   0  0  0  0  0  0  0  0  0  0  0  0
   11.6534  -18.1517   24.4964 C   0  0  0  0  0  0  0  0  0  0  0  0
   11.4374  -17.5132   25.8226 C   0  0  0  0  0  0  0  0  0  0  0  0
   10.0436  -16.9129   25.9075 C   0  0  2  0  0  0  0  0  0  0  0  0
    9.9157  -15.8623   24.8968 N   0  0  0  0  0  0  0  0  0  0  0  0
    9.7673  -16.4101   27.2653 C   0  0  0  0  0  0  0  0  0  0  0  0
    9.5579  -15.0517   27.5461 O   0  0  0  0  0  0  0  0  0  0  0  0
    9.6965  -17.1545   28.2901 O   0  0  0  0  0  0  0  0  0  0  0  0
  2  1  1  6
  2  3  1  0
  4  3  1  0
  5  2  1  0
  6  5  2  0
  8  7  1  0
  8  9  2  0
 10  9  1  0
 11 10  2  0
 13 12  1  1
 12 11  1  0
 13 14  1  0
 14  5  1  0
 15 24  1  0
 15 13  1  0
 16 15  2  0
 17 18  2  0
 17 11  1  0
 18  8  1  0
 20 19  1  0
 21 20  1  0
 22 21  1  0
 23 22  1  1
 23 24  1  0
 25 23  1  0
 25 26  1  0
 27 25  2  0
M  END
$$$$
