CYM.pdb
     RDKit          3D

 27 27  0  0  1  0  0  0  0  0999 V2000
   10.8129  -17.2158   18.9587 N   0  0  0  0  0  0  0  0  0  0  0  0
    9.5886  -17.2375   19.7119 C   0  0  1  0  0  0  0  0  0  0  0  0
    9.2623  -18.6700   20.0710 C   0  0  0  0  0  0  0  0  0  0  0  0
   10.3333  -19.2875   21.3963 S   0  0  0  0  0  0  0  0  0  0  0  0
    9.7233  -16.4552   20.9707 C   0  0  0  0  0  0  0  0  0  0  0  0
   10.8431  -16.1187   21.4275 O   0  0  0  0  0  0  0  0  0  0  0  0
    6.4126  -11.4561   27.6560 O   0  0  0  0  0  0  0  0  0  0  0  0
    6.6372  -12.2390   26.5325 C   0  0  0  0  0  0  0  0  0  0  0  0
    7.3856  -11.7943   25.4717 C   0  0  0  0  0  0  0  0  0  0  0  0
    7.5926  -12.5925   24.3687 C   0  0  0  0  0  0  0  0  0  0  0  0
    7.0607  -13.8831   24.2659 C   0  0  0  0  0  0  0  0  0  0  0  0
    7.3082  -14.6314   23.0440 C   0  0  0  0  0  0  0  0  0  0  0  0
    8.6862  -15.2089   22.9039 C   0  0  2  0  0  0  0  0  0  0  0  0
    8.5761  -16.0685   21.6897 N   0  0  0  0  0  0  0  0  0  0  0  0
    8.9835  -16.1134   24.0271 C   0  0  0  0  0  0  0  0  0  0  0  0
    8.2798  -17.1895   24.0981 O   0  0  0  0  0  0  0  0  0  0  0  0
    6.3190  -14.2959   25.3422 C   0  0  0  0  0  0  0  0  0  0  0  0
    6.1089  -13.5071   26.4428 C   0  0  0  0  0  0  0  0  0  0  0  0
   14.6104  -17.5193   24.7025 C   0  0  0  0  0  0  0  0  0  0  0  0
   13.3653  -18.8240   24.4989 S   0  0  0  0  0  0  0  0  0  0  0  0
   11.7301  -18.0228   24.6254 C   0  0  0  0  0  0  0  0  0  0  0  0
   11.4410  -17.5761   26.0147 C   0  0  0  0  0  0  0  0  0  0  0  0
   10.0736  -16.9168   26.0917 C   0  0  2  0  0  0  0  0  0  0  0  0
    9.9650  -15.9205   25.0253 N   0  0  0  0  0  0  0  0  0  0  0  0
    9.8460  -16.3277   27.4236 C   0  0  0  0  0  0  0  0  0  0  0  0
    9.6275  -14.9564   27.6222 O   0  0  0  0  0  0  0  0  0  0  0  0
    9.8291  -17.0026   28.4976 O   0  0  0  0  0  0  0  0  0  0  0  0
  2  1  1  1
  2  3  1  0
  4  3  1  0
  5  2  1  0
  6  5  2  0
  8  7  1  0
  8  9  2  0
 10  9  1  0
 11 10  2  0
 13 12  1  1
 12 11  1  0
 13 14  1  0
 14  5  1  0
 15 24  1  0
 15 13  1  0
 16 15  2  0
 17 18  2  0
 17 11  1  0
 18  8  1  0
 20 19  1  0
 21 20  1  0
 22 21  1  0
 23 22  1  1
 23 24  1  0
 25 23  1  0
 25 26  1  0
 27 25  2  0
M  END
$$$$
