CYM.pdb
     RDKit          3D

 27 27  0  0  1  0  0  0  0  0999 V2000
    7.8708  -16.2802   19.3891 N   0  0  0  0  0  0  0  0  0  0  0  0
    8.2870  -15.4457   20.4832 C   0  0  1  0  0  0  0  0  0  0  0  0
    7.1379  -14.5424   20.8720 C   0  0  0  0  0  0  0  0  0  0  0  0
    7.4858  -13.6406   22.4052 S   0  0  0  0  0  0  0  0  0  0  0  0
    8.6625  -16.2663   21.6666 C   0  0  0  0  0  0  0  0  0  0  0  0
    7.9382  -17.2034   22.0825 O   0  0  0  0  0  0  0  0  0  0  0  0
   11.8430  -21.6766   19.5831 O   0  0  0  0  0  0  0  0  0  0  0  0
   11.8109  -20.5981   20.4555 C   0  0  0  0  0  0  0  0  0  0  0  0
   11.3229  -20.7083   21.7333 C   0  0  0  0  0  0  0  0  0  0  0  0
   11.3027  -19.6212   22.5786 C   0  0  0  0  0  0  0  0  0  0  0  0
   11.7711  -18.3605   22.1909 C   0  0  0  0  0  0  0  0  0  0  0  0
   11.6732  -17.2690   23.1466 C   0  0  0  0  0  0  0  0  0  0  0  0
   10.2798  -16.8497   23.5132 C   0  0  2  0  0  0  0  0  0  0  0  0
    9.8608  -16.0041   22.3579 N   0  0  0  0  0  0  0  0  0  0  0  0
   10.2997  -15.9645   24.6898 C   0  0  0  0  0  0  0  0  0  0  0  0
   11.2914  -15.1476   24.7756 O   0  0  0  0  0  0  0  0  0  0  0  0
   12.2516  -18.2853   20.9094 C   0  0  0  0  0  0  0  0  0  0  0  0
   12.2745  -19.3628   20.0629 C   0  0  0  0  0  0  0  0  0  0  0  0
    6.5690  -11.2238   25.4121 C   0  0  0  0  0  0  0  0  0  0  0  0
    6.5961  -12.8191   26.2772 S   0  0  0  0  0  0  0  0  0  0  0  0
    8.3394  -13.1717   26.6875 C   0  0  0  0  0  0  0  0  0  0  0  0
    8.4805  -14.4412   27.4502 C   0  0  0  0  0  0  0  0  0  0  0  0
    9.6884  -15.2260   26.9651 C   0  0  2  0  0  0  0  0  0  0  0  0
    9.3386  -15.9193   25.7247 N   0  0  0  0  0  0  0  0  0  0  0  0
   10.1642  -16.1577   28.0036 C   0  0  0  0  0  0  0  0  0  0  0  0
   10.7535  -15.7263   29.2012 O   0  0  0  0  0  0  0  0  0  0  0  0
   10.0845  -17.4200   27.9059 O   0  0  0  0  0  0  0  0  0  0  0  0
  2  1  1  6
  2  3  1  0
  4  3  1  0
  5  2  1  0
  6  5  2  0
  8  7  1  0
  8  9  2  0
 10  9  1  0
 11 10  2  0
 13 12  1  6
 12 11  1  0
 13 14  1  0
 14  5  1  0
 15 24  1  0
 15 13  1  0
 16 15  2  0
 17 18  2  0
 17 11  1  0
 18  8  1  0
 20 19  1  0
 21 20  1  0
 22 21  1  0
 23 22  1  1
 23 24  1  0
 25 23  1  0
 25 26  1  0
 27 25  2  0
M  END
$$$$
