FPN.pdb
     RDKit          3D

 27 28  0  0  1  0  0  0  0  0999 V2000
    5.7018  -17.8596   25.2826 N   0  0  0  0  0  0  0  0  0  0  0  0
    6.3714  -16.5999   25.1579 C   0  0  1  0  0  0  0  0  0  0  0  0
    6.9950  -16.1587   26.4767 C   0  0  0  0  0  0  0  0  0  0  0  0
    7.0368  -14.6961   26.5740 C   0  0  0  0  0  0  0  0  0  0  0  0
    5.8802  -13.9177   26.6497 C   0  0  0  0  0  0  0  0  0  0  0  0
    5.9189  -12.5575   26.7362 C   0  0  0  0  0  0  0  0  0  0  0  0
    7.1119  -11.8779   26.7535 C   0  0  0  0  0  0  0  0  0  0  0  0
    8.2756  -12.6072   26.6807 C   0  0  0  0  0  0  0  0  0  0  0  0
    8.2271  -13.9808   26.5935 C   0  0  0  0  0  0  0  0  0  0  0  0
    7.4177  -16.6302   24.1226 C   0  0  0  0  0  0  0  0  0  0  0  0
    8.1392  -17.6946   24.1445 O   0  0  0  0  0  0  0  0  0  0  0  0
    7.6584  -15.6187   23.1674 N   0  0  0  0  0  0  0  0  0  0  0  0
    7.0172  -14.3411   23.0518 C   0  0  0  0  0  0  0  0  0  0  0  0
    7.2646  -13.9935   21.5730 C   0  0  0  0  0  0  0  0  0  0  0  0
    8.7030  -14.4247   21.4149 C   0  0  0  0  0  0  0  0  0  0  0  0
    8.6758  -15.7640   22.1198 C   0  0  1  0  0  0  0  0  0  0  0  0
   10.0035  -16.0724   22.7266 C   0  0  0  0  0  0  0  0  0  0  0  0
   10.3405  -15.5567   23.8024 O   0  0  0  0  0  0  0  0  0  0  0  0
   15.2635  -17.1110   20.7247 N   0  0  0  0  0  0  0  0  0  0  0  0
   14.5005  -16.1121   21.3772 C   0  0  0  0  0  0  0  0  0  0  0  0
   15.0689  -15.2476   22.0819 O   0  0  0  0  0  0  0  0  0  0  0  0
   13.0441  -16.0875   21.2294 C   0  0  0  0  0  0  0  0  0  0  0  0
   12.3230  -16.9643   22.1930 C   0  0  2  0  0  0  0  0  0  0  0  0
   10.8915  -16.9648   22.0680 N   0  0  0  0  0  0  0  0  0  0  0  0
   12.8233  -16.7819   23.5860 C   0  0  0  0  0  0  0  0  0  0  0  0
   13.3780  -17.7940   24.0995 O   0  0  0  0  0  0  0  0  0  0  0  0
   12.7036  -15.6182   24.2876 O   0  0  0  0  0  0  0  0  0  0  0  0
  2  1  1  1
  3  2  1  0
  4  5  2  0
  4  3  1  0
  6  5  1  0
  7  6  2  0
  8  7  1  0
  8  9  2  0
  9  4  1  0
 10 11  2  0
 10  2  1  0
 12 10  1  0
 13 12  1  0
 14 13  1  0
 15 14  1  0
 15 16  1  0
 16 12  1  0
 16 17  1  1
 17 18  2  0
 20 21  2  0
 20 19  1  0
 22 20  1  0
 23 24  1  0
 23 22  1  6
 24 17  1  0
 25 23  1  0
 26 25  2  0
 27 25  1  0
M  END
$$$$
