FPN.pdb
     RDKit          3D

 27 28  0  0  1  0  0  0  0  0999 V2000
    5.8604  -17.8467   25.2846 N   0  0  0  0  0  0  0  0  0  0  0  0
    6.4206  -16.5328   25.1827 C   0  0  1  0  0  0  0  0  0  0  0  0
    6.8556  -15.9971   26.5416 C   0  0  0  0  0  0  0  0  0  0  0  0
    6.9919  -14.5374   26.5111 C   0  0  0  0  0  0  0  0  0  0  0  0
    8.2345  -13.9012   26.5301 C   0  0  0  0  0  0  0  0  0  0  0  0
    8.3612  -12.5438   26.5058 C   0  0  0  0  0  0  0  0  0  0  0  0
    7.2594  -11.7256   26.4608 C   0  0  0  0  0  0  0  0  0  0  0  0
    6.0156  -12.3122   26.4408 C   0  0  0  0  0  0  0  0  0  0  0  0
    5.8970  -13.6841   26.4657 C   0  0  0  0  0  0  0  0  0  0  0  0
    7.5704  -16.4918   24.2640 C   0  0  0  0  0  0  0  0  0  0  0  0
    8.4359  -17.4197   24.4738 O   0  0  0  0  0  0  0  0  0  0  0  0
    7.7639  -15.5491   23.2310 N   0  0  0  0  0  0  0  0  0  0  0  0
    6.9538  -14.4098   22.9104 C   0  0  0  0  0  0  0  0  0  0  0  0
    7.3155  -14.1674   21.4341 C   0  0  0  0  0  0  0  0  0  0  0  0
    8.8112  -14.3711   21.4693 C   0  0  0  0  0  0  0  0  0  0  0  0
    8.9062  -15.6245   22.3127 C   0  0  1  0  0  0  0  0  0  0  0  0
   10.1858  -15.6536   23.0795 C   0  0  0  0  0  0  0  0  0  0  0  0
   10.3530  -14.9089   24.0562 O   0  0  0  0  0  0  0  0  0  0  0  0
   12.1041  -18.2142   25.9777 N   0  0  0  0  0  0  0  0  0  0  0  0
   12.1232  -18.5830   24.6104 C   0  0  0  0  0  0  0  0  0  0  0  0
   11.3656  -19.4881   24.1933 O   0  0  0  0  0  0  0  0  0  0  0  0
   13.0295  -17.9068   23.6805 C   0  0  0  0  0  0  0  0  0  0  0  0
   12.5522  -16.5681   23.2360 C   0  0  2  0  0  0  0  0  0  0  0  0
   11.2237  -16.5419   22.6889 N   0  0  0  0  0  0  0  0  0  0  0  0
   13.5757  -15.8631   22.4117 C   0  0  0  0  0  0  0  0  0  0  0  0
   13.3660  -15.8688   21.1660 O   0  0  0  0  0  0  0  0  0  0  0  0
   14.6756  -15.2476   22.9332 O   0  0  0  0  0  0  0  0  0  0  0  0
  2  1  1  1
  3  2  1  0
  4  5  2  0
  4  3  1  0
  6  5  1  0
  7  6  2  0
  8  7  1  0
  8  9  2  0
  9  4  1  0
 10 11  2  0
 10  2  1  0
 12 10  1  0
 13 12  1  0
 14 13  1  0
 15 14  1  0
 15 16  1  0
 16 12  1  0
 16 17  1  1
 17 18  2  0
 20 21  2  0
 20 19  1  0
 22 20  1  0
 23 24  1  0
 23 22  1  6
 24 17  1  0
 25 23  1  0
 26 25  2  0
 27 25  1  0
M  END
$$$$
