FPN.pdb
     RDKit          3D

 27 28  0  0  1  0  0  0  0  0999 V2000
    6.0631  -18.0035   25.3081 N   0  0  0  0  0  0  0  0  0  0  0  0
    6.5597  -16.6659   25.1860 C   0  0  1  0  0  0  0  0  0  0  0  0
    7.0659  -16.1274   26.5189 C   0  0  0  0  0  0  0  0  0  0  0  0
    6.9383  -14.6678   26.5776 C   0  0  0  0  0  0  0  0  0  0  0  0
    8.0472  -13.8209   26.6265 C   0  0  0  0  0  0  0  0  0  0  0  0
    7.9285  -12.4638   26.6851 C   0  0  0  0  0  0  0  0  0  0  0  0
    6.6974  -11.8557   26.6991 C   0  0  0  0  0  0  0  0  0  0  0  0
    5.5785  -12.6540   26.6523 C   0  0  0  0  0  0  0  0  0  0  0  0
    5.7078  -14.0239   26.5933 C   0  0  0  0  0  0  0  0  0  0  0  0
    7.6400  -16.5661   24.1906 C   0  0  0  0  0  0  0  0  0  0  0  0
    8.5042  -17.5157   24.2652 O   0  0  0  0  0  0  0  0  0  0  0  0
    7.7720  -15.5491   23.2202 N   0  0  0  0  0  0  0  0  0  0  0  0
    7.0715  -14.2998   23.1477 C   0  0  0  0  0  0  0  0  0  0  0  0
    7.2019  -13.9479   21.6550 C   0  0  0  0  0  0  0  0  0  0  0  0
    8.6428  -14.3196   21.3987 C   0  0  0  0  0  0  0  0  0  0  0  0
    8.7201  -15.6560   22.1051 C   0  0  1  0  0  0  0  0  0  0  0  0
   10.0981  -15.9066   22.6195 C   0  0  0  0  0  0  0  0  0  0  0  0
   10.4615  -15.4336   23.7062 O   0  0  0  0  0  0  0  0  0  0  0  0
   15.1684  -15.7549   24.1260 N   0  0  0  0  0  0  0  0  0  0  0  0
   14.5568  -15.9357   22.8615 C   0  0  0  0  0  0  0  0  0  0  0  0
   15.2466  -16.2719   21.8724 O   0  0  0  0  0  0  0  0  0  0  0  0
   13.1156  -15.7299   22.7073 C   0  0  0  0  0  0  0  0  0  0  0  0
   12.3884  -16.9152   22.1747 C   0  0  2  0  0  0  0  0  0  0  0  0
   11.0041  -16.6939   21.8592 N   0  0  0  0  0  0  0  0  0  0  0  0
   12.6505  -18.1357   22.9906 C   0  0  0  0  0  0  0  0  0  0  0  0
   12.2055  -18.1034   24.1724 O   0  0  0  0  0  0  0  0  0  0  0  0
   13.3236  -19.2274   22.5260 O   0  0  0  0  0  0  0  0  0  0  0  0
  2  1  1  1
  3  2  1  0
  4  5  2  0
  4  3  1  0
  6  5  1  0
  7  6  2  0
  8  7  1  0
  8  9  2  0
  9  4  1  0
 10 11  2  0
 10  2  1  0
 12 10  1  0
 13 12  1  0
 14 13  1  0
 15 14  1  0
 15 16  1  0
 16 12  1  0
 16 17  1  1
 17 18  2  0
 20 21  2  0
 20 19  1  0
 22 20  1  0
 23 24  1  0
 23 22  1  1
 24 17  1  0
 25 23  1  0
 26 25  2  0
 27 25  1  0
M  END
$$$$
