FPN.pdb
     RDKit          3D

 27 28  0  0  1  0  0  0  0  0999 V2000
    7.1304  -16.5739   24.3853 N   0  0  0  0  0  0  0  0  0  0  0  0
    7.3568  -15.3068   23.7578 C   0  0  1  0  0  0  0  0  0  0  0  0
    8.2625  -14.4141   24.5979 C   0  0  0  0  0  0  0  0  0  0  0  0
    7.4740  -13.5542   25.4863 C   0  0  0  0  0  0  0  0  0  0  0  0
    6.1147  -13.3113   25.2801 C   0  0  0  0  0  0  0  0  0  0  0  0
    5.3824  -12.5086   26.1038 C   0  0  0  0  0  0  0  0  0  0  0  0
    5.9528  -11.8921   27.1902 C   0  0  0  0  0  0  0  0  0  0  0  0
    7.2903  -12.1050   27.4294 C   0  0  0  0  0  0  0  0  0  0  0  0
    8.0223  -12.9173   26.5920 C   0  0  0  0  0  0  0  0  0  0  0  0
    7.9433  -15.4517   22.4152 C   0  0  0  0  0  0  0  0  0  0  0  0
    8.5193  -16.5849   22.2197 O   0  0  0  0  0  0  0  0  0  0  0  0
    7.9111  -14.4767   21.3946 N   0  0  0  0  0  0  0  0  0  0  0  0
    7.1817  -13.2421   21.3739 C   0  0  0  0  0  0  0  0  0  0  0  0
    7.0856  -12.9544   19.8649 C   0  0  0  0  0  0  0  0  0  0  0  0
    8.4812  -13.3159   19.4158 C   0  0  0  0  0  0  0  0  0  0  0  0
    8.6885  -14.6188   20.1580 C   0  0  1  0  0  0  0  0  0  0  0  0
   10.1317  -14.8263   20.4747 C   0  0  0  0  0  0  0  0  0  0  0  0
   10.5867  -14.5066   21.5826 O   0  0  0  0  0  0  0  0  0  0  0  0
   15.1437  -15.1348   21.9074 N   0  0  0  0  0  0  0  0  0  0  0  0
   14.5194  -14.7724   20.6889 C   0  0  0  0  0  0  0  0  0  0  0  0
   15.2108  -14.5644   19.6663 O   0  0  0  0  0  0  0  0  0  0  0  0
   13.0629  -14.6400   20.6216 C   0  0  0  0  0  0  0  0  0  0  0  0
   12.4186  -15.5403   19.6257 C   0  0  2  0  0  0  0  0  0  0  0  0
   10.9946  -15.3952   19.4997 N   0  0  0  0  0  0  0  0  0  0  0  0
   12.8875  -16.9486   19.7703 C   0  0  0  0  0  0  0  0  0  0  0  0
   13.5990  -17.3830   18.8212 O   0  0  0  0  0  0  0  0  0  0  0  0
   12.5850  -17.7419   20.8379 O   0  0  0  0  0  0  0  0  0  0  0  0
  2  1  1  1
  3  2  1  0
  4  5  2  0
  4  3  1  0
  6  5  1  0
  7  6  2  0
  8  7  1  0
  8  9  2  0
  9  4  1  0
 10 11  2  0
 10  2  1  0
 12 10  1  0
 13 12  1  0
 14 13  1  0
 15 14  1  0
 15 16  1  0
 16 12  1  0
 16 17  1  1
 17 18  2  0
 20 21  2  0
 20 19  1  0
 22 20  1  0
 23 24  1  0
 23 22  1  1
 24 17  1  0
 25 23  1  0
 26 25  2  0
 27 25  1  0
M  END
$$$$
