FPN.pdb
     RDKit          3D

 27 28  0  0  1  0  0  0  0  0999 V2000
   10.1048  -16.4192   19.3385 N   0  0  0  0  0  0  0  0  0  0  0  0
    8.8523  -16.4745   20.0306 C   0  0  1  0  0  0  0  0  0  0  0  0
    8.1773  -17.8313   19.8695 C   0  0  0  0  0  0  0  0  0  0  0  0
    6.8240  -17.8145   20.4339 C   0  0  0  0  0  0  0  0  0  0  0  0
    6.5017  -18.4676   21.6251 C   0  0  0  0  0  0  0  0  0  0  0  0
    5.2425  -18.4552   22.1479 C   0  0  0  0  0  0  0  0  0  0  0  0
    4.2167  -17.7918   21.5210 C   0  0  0  0  0  0  0  0  0  0  0  0
    4.4916  -17.1351   20.3443 C   0  0  0  0  0  0  0  0  0  0  0  0
    5.7664  -17.1528   19.8234 C   0  0  0  0  0  0  0  0  0  0  0  0
    9.0008  -16.1837   21.4663 C   0  0  0  0  0  0  0  0  0  0  0  0
    9.7841  -16.9967   22.0825 O   0  0  0  0  0  0  0  0  0  0  0  0
    8.3701  -15.1285   22.1607 N   0  0  0  0  0  0  0  0  0  0  0  0
    7.4343  -14.1690   21.6504 C   0  0  0  0  0  0  0  0  0  0  0  0
    7.5834  -13.0132   22.6559 C   0  0  0  0  0  0  0  0  0  0  0  0
    7.6476  -13.7743   23.9584 C   0  0  0  0  0  0  0  0  0  0  0  0
    8.6051  -14.8869   23.5890 C   0  0  1  0  0  0  0  0  0  0  0  0
    8.3163  -16.1204   24.3772 C   0  0  0  0  0  0  0  0  0  0  0  0
    7.6752  -17.0547   23.8743 O   0  0  0  0  0  0  0  0  0  0  0  0
   10.0918  -19.8359   27.4638 N   0  0  0  0  0  0  0  0  0  0  0  0
   10.4888  -19.5642   26.1318 C   0  0  0  0  0  0  0  0  0  0  0  0
   11.2002  -20.3843   25.5086 O   0  0  0  0  0  0  0  0  0  0  0  0
   10.0682  -18.3228   25.4794 C   0  0  0  0  0  0  0  0  0  0  0  0
    9.2471  -17.4321   26.3453 C   0  0  2  0  0  0  0  0  0  0  0  0
    8.7789  -16.2280   25.7163 N   0  0  0  0  0  0  0  0  0  0  0  0
    9.8766  -17.2286   27.6818 C   0  0  0  0  0  0  0  0  0  0  0  0
    9.9077  -18.2480   28.4271 O   0  0  0  0  0  0  0  0  0  0  0  0
   10.3897  -16.0373   28.1040 O   0  0  0  0  0  0  0  0  0  0  0  0
  2  1  1  6
  3  2  1  0
  4  5  2  0
  4  3  1  0
  6  5  1  0
  7  6  2  0
  8  7  1  0
  8  9  2  0
  9  4  1  0
 10 11  2  0
 10  2  1  0
 12 10  1  0
 13 12  1  0
 14 13  1  0
 15 14  1  0
 15 16  1  0
 16 12  1  0
 16 17  1  1
 17 18  2  0
 20 21  2  0
 20 19  1  0
 22 20  1  0
 23 24  1  0
 23 22  1  6
 24 17  1  0
 25 23  1  0
 26 25  2  0
 27 25  1  0
M  END
$$$$
