MIY.pdb
     RDKit          3D

 29 29  0  0  1  0  0  0  0  0999 V2000
    6.7256  -11.3101   26.6878 C   0  0  0  0  0  0  0  0  0  0  0  0
    5.3407  -12.4487   26.8516 S   0  0  0  0  0  0  0  0  0  0  0  0
    5.9004  -14.1114   27.3930 C   0  0  0  0  0  0  0  0  0  0  0  0
    6.9227  -14.6544   26.4417 C   0  0  0  0  0  0  0  0  0  0  0  0
    6.2875  -15.5020   25.3973 C   0  0  2  0  0  0  0  0  0  0  0  0
    5.6087  -16.6651   25.9358 N   0  0  0  0  0  0  0  0  0  0  0  0
    7.2047  -15.8906   24.2843 C   0  0  0  0  0  0  0  0  0  0  0  0
    7.9190  -16.9426   24.3653 O   0  0  0  0  0  0  0  0  0  0  0  0
    8.0539  -12.4028   19.8195 C   0  0  0  0  0  0  0  0  0  0  0  0
    8.3557  -13.1870   21.0782 C   0  0  0  0  0  0  0  0  0  0  0  0
    8.2171  -14.6848   20.8334 C   0  0  2  0  0  0  0  0  0  0  0  0
    6.9099  -15.0075   20.1488 C   0  0  0  0  0  0  0  0  0  0  0  0
    8.3646  -15.4680   22.1075 C   0  0  2  0  0  0  0  0  0  0  0  0
    7.3552  -15.1473   23.0842 N   0  0  0  0  0  0  0  0  0  0  0  0
    9.7138  -15.2234   22.6807 C   0  0  0  0  0  0  0  0  0  0  0  0
    9.8252  -14.2744   23.5047 O   0  0  0  0  0  0  0  0  0  0  0  0
   10.1918  -13.9290   29.0886 O   0  0  0  0  0  0  0  0  0  0  0  0
   10.4486  -14.7245   27.9932 C   0  0  0  0  0  0  0  0  0  0  0  0
   11.0533  -15.9606   28.0878 C   0  0  0  0  0  0  0  0  0  0  0  0
   11.2917  -16.7235   26.9701 C   0  0  0  0  0  0  0  0  0  0  0  0
   10.9347  -16.2835   25.6989 C   0  0  0  0  0  0  0  0  0  0  0  0
   11.2103  -17.0993   24.5009 C   0  0  0  0  0  0  0  0  0  0  0  0
   11.8651  -16.3114   23.3959 C   0  0  2  0  0  0  0  0  0  0  0  0
   10.8671  -15.9745   22.3677 N   0  0  0  0  0  0  0  0  0  0  0  0
   12.9522  -17.0732   22.7655 C   0  0  0  0  0  0  0  0  0  0  0  0
   14.0201  -17.3086   23.3841 O   0  0  0  0  0  0  0  0  0  0  0  0
   10.3326  -15.0532   25.6011 C   0  0  0  0  0  0  0  0  0  0  0  0
   10.0944  -14.2903   26.7226 C   0  0  0  0  0  0  0  0  0  0  0  0
   12.8353  -17.5560   21.4764 O   0  0  0  0  0  0  0  0  0  0  0  0
  1  2  1  0
  3  4  1  0
  3  2  1  0
  5  4  1  0
  5  6  1  1
  7  5  1  0
  8  7  2  0
  9 10  1  0
 10 11  1  0
 11 12  1  1
 11 13  1  0
 13 14  1  1
 14  7  1  0
 15 24  1  0
 15 13  1  0
 16 15  2  0
 18 17  1  0
 19 18  2  0
 20 19  1  0
 21 27  1  0
 21 20  2  0
 23 22  1  1
 22 21  1  0
 23 24  1  0
 23 25  1  0
 25 29  1  0
 26 25  2  0
 27 28  2  0
 28 18  1  0
M  END
$$$$
