MIY.pdb
     RDKit          3D

 29 29  0  0  1  0  0  0  0  0999 V2000
    2.9048  -19.7994   24.2903 C   0  0  0  0  0  0  0  0  0  0  0  0
    1.8975  -18.8537   23.1360 S   0  0  0  0  0  0  0  0  0  0  0  0
    2.7820  -18.5682   21.5527 C   0  0  0  0  0  0  0  0  0  0  0  0
    4.1746  -18.0803   21.8124 C   0  0  0  0  0  0  0  0  0  0  0  0
    4.8345  -17.6443   20.5525 C   0  0  2  0  0  0  0  0  0  0  0  0
    4.9282  -18.6968   19.5590 N   0  0  0  0  0  0  0  0  0  0  0  0
    6.1592  -16.9842   20.7531 C   0  0  0  0  0  0  0  0  0  0  0  0
    7.2375  -17.6623   20.7189 O   0  0  0  0  0  0  0  0  0  0  0  0
    7.2583  -11.8483   19.1151 C   0  0  0  0  0  0  0  0  0  0  0  0
    7.3555  -13.3267   19.4240 C   0  0  0  0  0  0  0  0  0  0  0  0
    7.6873  -13.5556   20.8937 C   0  0  2  0  0  0  0  0  0  0  0  0
    9.0375  -12.9766   21.2452 C   0  0  0  0  0  0  0  0  0  0  0  0
    7.6165  -15.0127   21.2548 C   0  0  2  0  0  0  0  0  0  0  0  0
    6.3251  -15.5946   20.9918 N   0  0  0  0  0  0  0  0  0  0  0  0
    7.9597  -15.1797   22.6911 C   0  0  0  0  0  0  0  0  0  0  0  0
    7.1331  -14.7365   23.5351 O   0  0  0  0  0  0  0  0  0  0  0  0
   10.2860  -15.4266   30.8990 O   0  0  0  0  0  0  0  0  0  0  0  0
    9.8800  -15.5841   29.5917 C   0  0  0  0  0  0  0  0  0  0  0  0
   10.3352  -16.6035   28.7815 C   0  0  0  0  0  0  0  0  0  0  0  0
    9.9050  -16.7256   27.4823 C   0  0  0  0  0  0  0  0  0  0  0  0
    8.9950  -15.8294   26.9296 C   0  0  0  0  0  0  0  0  0  0  0  0
    8.5514  -15.9553   25.5281 C   0  0  0  0  0  0  0  0  0  0  0  0
    9.6199  -15.5643   24.5401 C   0  0  2  0  0  0  0  0  0  0  0  0
    9.1368  -15.7948   23.1690 N   0  0  0  0  0  0  0  0  0  0  0  0
   10.8494  -16.3432   24.7435 C   0  0  0  0  0  0  0  0  0  0  0  0
   10.9920  -17.4753   24.2177 O   0  0  0  0  0  0  0  0  0  0  0  0
    8.5399  -14.8132   27.7334 C   0  0  0  0  0  0  0  0  0  0  0  0
    8.9721  -14.6928   29.0354 C   0  0  0  0  0  0  0  0  0  0  0  0
   11.8866  -15.8568   25.5156 O   0  0  0  0  0  0  0  0  0  0  0  0
  1  2  1  0
  3  4  1  0
  3  2  1  0
  5  4  1  0
  5  6  1  6
  7  5  1  0
  8  7  2  0
  9 10  1  0
 10 11  1  0
 11 12  1  6
 11 13  1  0
 13 14  1  1
 14  7  1  0
 15 24  1  0
 15 13  1  0
 16 15  2  0
 18 17  1  0
 19 18  2  0
 20 19  1  0
 21 27  1  0
 21 20  2  0
 23 22  1  1
 22 21  1  0
 23 24  1  0
 23 25  1  0
 25 29  1  0
 26 25  2  0
 27 28  2  0
 28 18  1  0
M  END
$$$$
