MIY.pdb
     RDKit          3D

 29 29  0  0  1  0  0  0  0  0999 V2000
   11.2577  -21.4973   19.7270 C   0  0  0  0  0  0  0  0  0  0  0  0
    9.4969  -21.8684   19.7829 S   0  0  0  0  0  0  0  0  0  0  0  0
    8.5519  -20.8117   18.6162 C   0  0  0  0  0  0  0  0  0  0  0  0
    8.9841  -19.3823   18.7380 C   0  0  0  0  0  0  0  0  0  0  0  0
    8.4244  -18.7548   19.9651 C   0  0  2  0  0  0  0  0  0  0  0  0
    6.9744  -18.7328   19.9890 N   0  0  0  0  0  0  0  0  0  0  0  0
    8.9809  -17.4024   20.2684 C   0  0  0  0  0  0  0  0  0  0  0  0
   10.2393  -17.2021   20.2774 O   0  0  0  0  0  0  0  0  0  0  0  0
    6.6221  -12.5684   18.9518 C   0  0  0  0  0  0  0  0  0  0  0  0
    7.6098  -13.6849   19.2137 C   0  0  0  0  0  0  0  0  0  0  0  0
    7.8810  -13.8336   20.7059 C   0  0  2  0  0  0  0  0  0  0  0  0
    8.4708  -12.5681   21.2825 C   0  0  0  0  0  0  0  0  0  0  0  0
    8.7629  -15.0165   20.9911 C   0  0  2  0  0  0  0  0  0  0  0  0
    8.1846  -16.2647   20.5632 N   0  0  0  0  0  0  0  0  0  0  0  0
    9.0549  -15.0712   22.4473 C   0  0  0  0  0  0  0  0  0  0  0  0
    8.1341  -14.7140   23.2324 O   0  0  0  0  0  0  0  0  0  0  0  0
   10.6901  -15.2871   30.8123 O   0  0  0  0  0  0  0  0  0  0  0  0
   10.3987  -15.4389   29.4741 C   0  0  0  0  0  0  0  0  0  0  0  0
   10.3691  -16.6668   28.8464 C   0  0  0  0  0  0  0  0  0  0  0  0
   10.0737  -16.7752   27.5089 C   0  0  0  0  0  0  0  0  0  0  0  0
    9.7929  -15.6548   26.7325 C   0  0  0  0  0  0  0  0  0  0  0  0
    9.4949  -15.7764   25.2926 C   0  0  0  0  0  0  0  0  0  0  0  0
   10.6041  -15.2482   24.4201 C   0  0  2  0  0  0  0  0  0  0  0  0
   10.2815  -15.4919   23.0048 N   0  0  0  0  0  0  0  0  0  0  0  0
   11.8855  -15.8976   24.7298 C   0  0  0  0  0  0  0  0  0  0  0  0
   12.4421  -15.7314   25.8438 O   0  0  0  0  0  0  0  0  0  0  0  0
    9.8218  -14.4307   27.3542 C   0  0  0  0  0  0  0  0  0  0  0  0
   10.1179  -14.3244   28.6949 C   0  0  0  0  0  0  0  0  0  0  0  0
   12.5173  -16.7115   23.8096 O   0  0  0  0  0  0  0  0  0  0  0  0
  1  2  1  0
  3  4  1  0
  3  2  1  0
  5  4  1  0
  5  6  1  6
  7  5  1  0
  8  7  2  0
  9 10  1  0
 10 11  1  0
 11 12  1  6
 11 13  1  0
 13 14  1  1
 14  7  1  0
 15 24  1  0
 15 13  1  0
 16 15  2  0
 18 17  1  0
 19 18  2  0
 20 19  1  0
 21 27  1  0
 21 20  2  0
 23 22  1  1
 22 21  1  0
 23 24  1  0
 23 25  1  0
 25 29  1  0
 26 25  2  0
 27 28  2  0
 28 18  1  0
M  END
$$$$
