MIY.pdb
     RDKit          3D

 29 29  0  0  1  0  0  0  0  0999 V2000
    2.4321  -17.3674   19.9755 C   0  0  0  0  0  0  0  0  0  0  0  0
    3.1701  -18.9379   19.4959 S   0  0  0  0  0  0  0  0  0  0  0  0
    4.6273  -19.3397   20.5381 C   0  0  0  0  0  0  0  0  0  0  0  0
    5.5504  -18.1626   20.6223 C   0  0  0  0  0  0  0  0  0  0  0  0
    6.7129  -18.4539   21.5035 C   0  0  2  0  0  0  0  0  0  0  0  0
    6.3360  -19.0281   22.7809 N   0  0  0  0  0  0  0  0  0  0  0  0
    7.6404  -17.2987   21.6937 C   0  0  0  0  0  0  0  0  0  0  0  0
    8.3865  -16.8980   20.7417 O   0  0  0  0  0  0  0  0  0  0  0  0
    6.8874  -13.2261   25.6311 C   0  0  0  0  0  0  0  0  0  0  0  0
    7.5440  -14.4625   25.0557 C   0  0  0  0  0  0  0  0  0  0  0  0
    7.9681  -14.2315   23.6103 C   0  0  2  0  0  0  0  0  0  0  0  0
    6.7938  -13.8144   22.7567 C   0  0  0  0  0  0  0  0  0  0  0  0
    8.6482  -15.4419   23.0349 C   0  0  2  0  0  0  0  0  0  0  0  0
    7.7668  -16.5745   22.9081 N   0  0  0  0  0  0  0  0  0  0  0  0
    9.8109  -15.8031   23.8870 C   0  0  0  0  0  0  0  0  0  0  0  0
   10.7266  -14.9431   24.0052 O   0  0  0  0  0  0  0  0  0  0  0  0
    9.7979  -12.6186   29.4357 O   0  0  0  0  0  0  0  0  0  0  0  0
   10.0750  -13.8019   28.7864 C   0  0  0  0  0  0  0  0  0  0  0  0
   11.2342  -14.0112   28.0686 C   0  0  0  0  0  0  0  0  0  0  0  0
   11.4727  -15.2069   27.4352 C   0  0  0  0  0  0  0  0  0  0  0  0
   10.5583  -16.2547   27.4901 C   0  0  0  0  0  0  0  0  0  0  0  0
   10.8120  -17.5296   26.7922 C   0  0  0  0  0  0  0  0  0  0  0  0
   11.1706  -17.3395   25.3410 C   0  0  2  0  0  0  0  0  0  0  0  0
    9.9577  -17.0319   24.5659 N   0  0  0  0  0  0  0  0  0  0  0  0
   11.7945  -18.5461   24.7803 C   0  0  0  0  0  0  0  0  0  0  0  0
   12.8699  -18.9956   25.2493 O   0  0  0  0  0  0  0  0  0  0  0  0
    9.4031  -16.0496   28.2037 C   0  0  0  0  0  0  0  0  0  0  0  0
    9.1661  -14.8504   28.8380 C   0  0  0  0  0  0  0  0  0  0  0  0
   11.2196  -19.2252   23.7235 O   0  0  0  0  0  0  0  0  0  0  0  0
  1  2  1  0
  3  4  1  0
  3  2  1  0
  5  4  1  0
  5  6  1  1
  7  5  1  0
  8  7  2  0
  9 10  1  0
 10 11  1  0
 11 12  1  6
 11 13  1  0
 13 14  1  1
 14  7  1  0
 15 24  1  0
 15 13  1  0
 16 15  2  0
 18 17  1  0
 19 18  2  0
 20 19  1  0
 21 27  1  0
 21 20  2  0
 23 22  1  1
 22 21  1  0
 23 24  1  0
 23 25  1  0
 25 29  1  0
 26 25  2  0
 27 28  2  0
 28 18  1  0
M  END
$$$$
