MIY.pdb
     RDKit          3D

 29 29  0  0  1  0  0  0  0  0999 V2000
    7.1052  -11.6342   26.4850 C   0  0  0  0  0  0  0  0  0  0  0  0
    5.6187  -12.5772   26.8621 S   0  0  0  0  0  0  0  0  0  0  0  0
    5.9574  -14.3815   26.8853 C   0  0  0  0  0  0  0  0  0  0  0  0
    6.9780  -14.7353   25.8470 C   0  0  0  0  0  0  0  0  0  0  0  0
    6.5923  -15.9710   25.1141 C   0  0  2  0  0  0  0  0  0  0  0  0
    6.4916  -17.1383   25.9690 N   0  0  0  0  0  0  0  0  0  0  0  0
    7.4375  -16.2608   23.9173 C   0  0  0  0  0  0  0  0  0  0  0  0
    8.0420  -17.3764   23.8007 O   0  0  0  0  0  0  0  0  0  0  0  0
    7.4999  -12.5321   19.7859 C   0  0  0  0  0  0  0  0  0  0  0  0
    7.3456  -13.9249   20.3577 C   0  0  0  0  0  0  0  0  0  0  0  0
    8.6909  -14.4810   20.8086 C   0  0  2  0  0  0  0  0  0  0  0  0
    9.5474  -14.8647   19.6250 C   0  0  0  0  0  0  0  0  0  0  0  0
    8.5212  -15.6413   21.7483 C   0  0  2  0  0  0  0  0  0  0  0  0
    7.6341  -15.3506   22.8457 N   0  0  0  0  0  0  0  0  0  0  0  0
    9.8514  -16.0476   22.2718 C   0  0  0  0  0  0  0  0  0  0  0  0
   10.5529  -16.7984   21.5395 O   0  0  0  0  0  0  0  0  0  0  0  0
    9.9228  -16.3654   29.8094 O   0  0  0  0  0  0  0  0  0  0  0  0
   10.4542  -15.9656   28.6026 C   0  0  0  0  0  0  0  0  0  0  0  0
   11.0047  -16.8470   27.6954 C   0  0  0  0  0  0  0  0  0  0  0  0
   11.5244  -16.4074   26.5019 C   0  0  0  0  0  0  0  0  0  0  0  0
   11.5182  -15.0589   26.1580 C   0  0  0  0  0  0  0  0  0  0  0  0
   12.0948  -14.5912   24.8830 C   0  0  0  0  0  0  0  0  0  0  0  0
   11.8279  -15.5362   23.7400 C   0  0  2  0  0  0  0  0  0  0  0  0
   10.3771  -15.6534   23.5211 N   0  0  0  0  0  0  0  0  0  0  0  0
   12.3729  -16.8737   24.0115 C   0  0  0  0  0  0  0  0  0  0  0  0
   13.5952  -17.0374   24.2514 O   0  0  0  0  0  0  0  0  0  0  0  0
   10.9712  -14.1786   27.0590 C   0  0  0  0  0  0  0  0  0  0  0  0
   10.4506  -14.6213   28.2546 C   0  0  0  0  0  0  0  0  0  0  0  0
   11.5611  -17.9915   24.0139 O   0  0  0  0  0  0  0  0  0  0  0  0
  1  2  1  0
  3  4  1  0
  3  2  1  0
  5  4  1  0
  5  6  1  1
  7  5  1  0
  8  7  2  0
  9 10  1  0
 10 11  1  0
 11 12  1  6
 11 13  1  0
 13 14  1  1
 14  7  1  0
 15 24  1  0
 15 13  1  0
 16 15  2  0
 18 17  1  0
 19 18  2  0
 20 19  1  0
 21 27  1  0
 21 20  2  0
 23 22  1  1
 22 21  1  0
 23 24  1  0
 23 25  1  0
 25 29  1  0
 26 25  2  0
 27 28  2  0
 28 18  1  0
M  END
$$$$
