MIY.pdb
     RDKit          3D

 29 29  0  0  1  0  0  0  0  0999 V2000
    7.7128  -11.9714   27.1703 C   0  0  0  0  0  0  0  0  0  0  0  0
    6.0605  -12.5693   27.5625 S   0  0  0  0  0  0  0  0  0  0  0  0
    5.6551  -14.0887   26.6149 C   0  0  0  0  0  0  0  0  0  0  0  0
    6.7801  -14.4448   25.6915 C   0  0  0  0  0  0  0  0  0  0  0  0
    6.4025  -15.5694   24.7941 C   0  0  2  0  0  0  0  0  0  0  0  0
    6.0823  -16.7911   25.5073 N   0  0  0  0  0  0  0  0  0  0  0  0
    7.3847  -15.8351   23.7006 C   0  0  0  0  0  0  0  0  0  0  0  0
    8.0594  -16.9157   23.6786 O   0  0  0  0  0  0  0  0  0  0  0  0
    8.3049  -12.0013   19.5587 C   0  0  0  0  0  0  0  0  0  0  0  0
    8.6723  -12.8810   20.7342 C   0  0  0  0  0  0  0  0  0  0  0  0
    8.4720  -14.3535   20.3963 C   0  0  2  0  0  0  0  0  0  0  0  0
    7.1375  -14.5835   19.7271 C   0  0  0  0  0  0  0  0  0  0  0  0
    8.6209  -15.2237   21.6125 C   0  0  2  0  0  0  0  0  0  0  0  0
    7.6426  -14.9381   22.6308 N   0  0  0  0  0  0  0  0  0  0  0  0
    9.9887  -15.0588   22.1696 C   0  0  0  0  0  0  0  0  0  0  0  0
   10.5009  -13.9075   22.1055 O   0  0  0  0  0  0  0  0  0  0  0  0
   11.7406  -15.1912   30.4667 O   0  0  0  0  0  0  0  0  0  0  0  0
   11.3306  -15.3698   29.1634 C   0  0  0  0  0  0  0  0  0  0  0  0
   11.0894  -16.6126   28.6155 C   0  0  0  0  0  0  0  0  0  0  0  0
   10.6814  -16.7477   27.3104 C   0  0  0  0  0  0  0  0  0  0  0  0
   10.4947  -15.6407   26.4879 C   0  0  0  0  0  0  0  0  0  0  0  0
   10.0744  -15.7937   25.0819 C   0  0  0  0  0  0  0  0  0  0  0  0
   11.2366  -15.9918   24.1434 C   0  0  2  0  0  0  0  0  0  0  0  0
   10.7454  -16.0940   22.7596 N   0  0  0  0  0  0  0  0  0  0  0  0
   11.9864  -17.2130   24.4685 C   0  0  0  0  0  0  0  0  0  0  0  0
   11.6427  -18.3269   23.9999 O   0  0  0  0  0  0  0  0  0  0  0  0
   10.7342  -14.4019   27.0300 C   0  0  0  0  0  0  0  0  0  0  0  0
   11.1429  -14.2687   28.3384 C   0  0  0  0  0  0  0  0  0  0  0  0
   13.0920  -17.1764   25.2960 O   0  0  0  0  0  0  0  0  0  0  0  0
  1  2  1  0
  3  4  1  0
  3  2  1  0
  5  4  1  0
  5  6  1  1
  7  5  1  0
  8  7  2  0
  9 10  1  0
 10 11  1  0
 11 12  1  1
 11 13  1  0
 13 14  1  1
 14  7  1  0
 15 24  1  0
 15 13  1  0
 16 15  2  0
 18 17  1  0
 19 18  2  0
 20 19  1  0
 21 27  1  0
 21 20  2  0
 23 22  1  1
 22 21  1  0
 23 24  1  0
 23 25  1  0
 25 29  1  0
 26 25  2  0
 27 28  2  0
 28 18  1  0
M  END
$$$$
