MIY.pdb
     RDKit          3D

 29 29  0  0  1  0  0  0  0  0999 V2000
    7.8742  -20.2547   20.8210 C   0  0  0  0  0  0  0  0  0  0  0  0
    6.3675  -19.3475   20.4364 S   0  0  0  0  0  0  0  0  0  0  0  0
    6.6815  -17.5417   20.3286 C   0  0  0  0  0  0  0  0  0  0  0  0
    7.4435  -17.0710   21.5297 C   0  0  0  0  0  0  0  0  0  0  0  0
    7.6136  -15.5933   21.5124 C   0  0  2  0  0  0  0  0  0  0  0  0
    8.2485  -15.1020   20.3044 N   0  0  0  0  0  0  0  0  0  0  0  0
    8.2846  -15.0410   22.7271 C   0  0  0  0  0  0  0  0  0  0  0  0
    9.5479  -14.8770   22.7564 O   0  0  0  0  0  0  0  0  0  0  0  0
    5.9626  -11.4635   26.2080 C   0  0  0  0  0  0  0  0  0  0  0  0
    6.9655  -12.1972   25.3440 C   0  0  0  0  0  0  0  0  0  0  0  0
    7.4694  -13.4546   26.0421 C   0  0  2  0  0  0  0  0  0  0  0  0
    8.2393  -13.1118   27.2956 C   0  0  0  0  0  0  0  0  0  0  0  0
    8.2960  -14.3046   25.1188 C   0  0  2  0  0  0  0  0  0  0  0  0
    7.5977  -14.6657   23.9115 N   0  0  0  0  0  0  0  0  0  0  0  0
    8.7270  -15.5327   25.8362 C   0  0  0  0  0  0  0  0  0  0  0  0
    7.8279  -16.3597   26.1520 O   0  0  0  0  0  0  0  0  0  0  0  0
   11.4454  -18.3594   20.6497 O   0  0  0  0  0  0  0  0  0  0  0  0
   11.4994  -18.2111   22.0186 C   0  0  0  0  0  0  0  0  0  0  0  0
   11.0013  -19.1515   22.8962 C   0  0  0  0  0  0  0  0  0  0  0  0
   11.0749  -18.9655   24.2556 C   0  0  0  0  0  0  0  0  0  0  0  0
   11.6530  -17.8244   24.8038 C   0  0  0  0  0  0  0  0  0  0  0  0
   11.7121  -17.6221   26.2640 C   0  0  0  0  0  0  0  0  0  0  0  0
   10.4172  -17.1042   26.8347 C   0  0  2  0  0  0  0  0  0  0  0  0
   10.0616  -15.8324   26.1845 N   0  0  0  0  0  0  0  0  0  0  0  0
   10.5213  -16.8797   28.2832 C   0  0  0  0  0  0  0  0  0  0  0  0
   10.7108  -17.8374   29.0740 O   0  0  0  0  0  0  0  0  0  0  0  0
   12.1497  -16.8859   23.9329 C   0  0  0  0  0  0  0  0  0  0  0  0
   12.0750  -17.0744   22.5708 C   0  0  0  0  0  0  0  0  0  0  0  0
   10.4166  -15.6117   28.8214 O   0  0  0  0  0  0  0  0  0  0  0  0
  1  2  1  0
  3  4  1  0
  3  2  1  0
  5  4  1  0
  5  6  1  6
  7  5  1  0
  8  7  2  0
  9 10  1  0
 10 11  1  0
 11 12  1  1
 11 13  1  0
 13 14  1  6
 14  7  1  0
 15 24  1  0
 15 13  1  0
 16 15  2  0
 18 17  1  0
 19 18  2  0
 20 19  1  0
 21 27  1  0
 21 20  2  0
 23 22  1  6
 22 21  1  0
 23 24  1  0
 23 25  1  0
 25 29  1  0
 26 25  2  0
 27 28  2  0
 28 18  1  0
M  END
$$$$
