PTF.pdb
     RDKit          3D

 26 27  0  0  1  0  0  0  0  0999 V2000
    9.1182  -14.4788   19.1772 N   0  0  0  0  0  0  0  0  0  0  0  0
    9.3088  -13.5830   18.0379 C   0  0  0  0  0  0  0  0  0  0  0  0
    8.0632  -12.7600   17.9458 C   0  0  0  0  0  0  0  0  0  0  0  0
    7.2984  -13.0724   19.2234 C   0  0  0  0  0  0  0  0  0  0  0  0
    8.3933  -13.6415   20.1025 C   0  0  1  0  0  0  0  0  0  0  0  0
    7.8533  -14.3831   21.2512 C   0  0  0  0  0  0  0  0  0  0  0  0
    7.0374  -13.8277   22.0028 O   0  0  0  0  0  0  0  0  0  0  0  0
    6.6792  -18.1923   20.9630 C   0  0  0  0  0  0  0  0  0  0  0  0
    7.6016  -17.9602   22.1390 C   0  0  1  0  0  0  0  0  0  0  0  0
    8.8873  -18.4334   21.9069 O   0  0  0  0  0  0  0  0  0  0  0  0
    7.5816  -16.5110   22.5722 C   0  0  2  0  0  0  0  0  0  0  0  0
    8.2309  -15.7267   21.5413 N   0  0  0  0  0  0  0  0  0  0  0  0
    8.3282  -16.3028   23.8360 C   0  0  0  0  0  0  0  0  0  0  0  0
    9.5246  -15.8685   23.8176 O   0  0  0  0  0  0  0  0  0  0  0  0
    7.7702  -16.5680   25.1150 N   0  0  0  0  0  0  0  0  0  0  0  0
    8.5443  -16.3242   26.2906 C   0  0  1  0  0  0  0  0  0  0  0  0
    7.7870  -15.5734   27.3566 C   0  0  0  0  0  0  0  0  0  0  0  0
    7.4265  -14.2117   26.9822 C   0  0  0  0  0  0  0  0  0  0  0  0
    8.3736  -13.2103   26.9755 C   0  0  0  0  0  0  0  0  0  0  0  0
    8.0265  -11.9017   26.6155 C   0  0  0  0  0  0  0  0  0  0  0  0
    6.7392  -11.5804   26.2606 C   0  0  0  0  0  0  0  0  0  0  0  0
    5.7950  -12.5767   26.2668 C   0  0  0  0  0  0  0  0  0  0  0  0
    6.1460  -13.8615   26.6225 C   0  0  0  0  0  0  0  0  0  0  0  0
    9.0758  -17.6189   26.7940 C   0  0  0  0  0  0  0  0  0  0  0  0
    8.6690  -18.7083   26.3422 O   0  0  0  0  0  0  0  0  0  0  0  0
   10.0462  -17.6519   27.7878 O   0  0  0  0  0  0  0  0  0  0  0  0
  1  2  1  0
  1  5  1  0
  2  3  1  0
  3  4  1  0
  5  4  1  0
  5  6  1  1
  6  7  2  0
  9  8  1  6
 10  9  1  0
 11  9  1  0
 12  6  1  0
 11 12  1  6
 13 11  1  0
 13 14  2  0
 15 13  1  0
 16 15  1  0
 16 17  1  1
 18 23  1  0
 18 17  1  0
 19 18  2  0
 20 21  2  0
 20 19  1  0
 21 22  1  0
 22 23  2  0
 24 26  1  0
 24 16  1  0
 25 24  2  0
M  END
$$$$
