PTF.pdb
     RDKit          3D

 26 27  0  0  1  0  0  0  0  0999 V2000
    9.0446  -14.5275   19.2698 N   0  0  0  0  0  0  0  0  0  0  0  0
    9.2380  -13.5928   18.1627 C   0  0  0  0  0  0  0  0  0  0  0  0
    8.0589  -12.6728   18.1872 C   0  0  0  0  0  0  0  0  0  0  0  0
    7.3490  -12.9894   19.4950 C   0  0  0  0  0  0  0  0  0  0  0  0
    8.4452  -13.6847   20.2763 C   0  0  1  0  0  0  0  0  0  0  0  0
    7.9170  -14.4395   21.4219 C   0  0  0  0  0  0  0  0  0  0  0  0
    7.2441  -13.8479   22.2801 O   0  0  0  0  0  0  0  0  0  0  0  0
    6.6018  -18.3112   21.1604 C   0  0  0  0  0  0  0  0  0  0  0  0
    7.5689  -18.0524   22.2941 C   0  0  1  0  0  0  0  0  0  0  0  0
    8.8421  -18.5411   22.0280 O   0  0  0  0  0  0  0  0  0  0  0  0
    7.5739  -16.5914   22.6861 C   0  0  2  0  0  0  0  0  0  0  0  0
    8.1473  -15.8360   21.5906 N   0  0  0  0  0  0  0  0  0  0  0  0
    8.4057  -16.3458   23.8885 C   0  0  0  0  0  0  0  0  0  0  0  0
    9.6078  -15.9435   23.7734 O   0  0  0  0  0  0  0  0  0  0  0  0
    7.9262  -16.5388   25.2115 N   0  0  0  0  0  0  0  0  0  0  0  0
    8.7605  -16.2085   26.3231 C   0  0  1  0  0  0  0  0  0  0  0  0
    8.0726  -15.3402   27.3461 C   0  0  0  0  0  0  0  0  0  0  0  0
    7.6274  -14.0521   26.8294 C   0  0  0  0  0  0  0  0  0  0  0  0
    8.5108  -13.0014   26.7047 C   0  0  0  0  0  0  0  0  0  0  0  0
    8.0824  -11.7636   26.2080 C   0  0  0  0  0  0  0  0  0  0  0  0
    6.7766  -11.5622   25.8330 C   0  0  0  0  0  0  0  0  0  0  0  0
    5.8958  -12.6076   25.9567 C   0  0  0  0  0  0  0  0  0  0  0  0
    6.3266  -13.8221   26.4465 C   0  0  0  0  0  0  0  0  0  0  0  0
    9.2834  -17.4653   26.9225 C   0  0  0  0  0  0  0  0  0  0  0  0
   10.0839  -17.4453   27.8791 O   0  0  0  0  0  0  0  0  0  0  0  0
    8.8928  -18.7047   26.4308 O   0  0  0  0  0  0  0  0  0  0  0  0
  1  2  1  0
  1  5  1  0
  2  3  1  0
  3  4  1  0
  5  4  1  0
  5  6  1  1
  6  7  2  0
  9  8  1  6
 10  9  1  0
 11  9  1  0
 12  6  1  0
 11 12  1  6
 13 11  1  0
 13 14  2  0
 15 13  1  0
 16 15  1  0
 16 17  1  1
 18 23  1  0
 18 17  1  0
 19 18  2  0
 20 21  2  0
 20 19  1  0
 21 22  1  0
 22 23  2  0
 24 26  1  0
 24 16  1  0
 25 24  2  0
M  END
$$$$
