PTF.pdb
     RDKit          3D

 26 27  0  0  1  0  0  0  0  0999 V2000
    8.9564  -14.5044   19.1536 N   0  0  0  0  0  0  0  0  0  0  0  0
    9.1773  -13.5795   18.0435 C   0  0  0  0  0  0  0  0  0  0  0  0
    8.0379  -12.6111   18.0789 C   0  0  0  0  0  0  0  0  0  0  0  0
    7.3288  -12.8967   19.3944 C   0  0  0  0  0  0  0  0  0  0  0  0
    8.4031  -13.6365   20.1652 C   0  0  1  0  0  0  0  0  0  0  0  0
    7.8556  -14.3677   21.3171 C   0  0  0  0  0  0  0  0  0  0  0  0
    7.2629  -13.7402   22.2082 O   0  0  0  0  0  0  0  0  0  0  0  0
    6.3487  -18.2136   21.0605 C   0  0  0  0  0  0  0  0  0  0  0  0
    7.3345  -17.9720   22.1818 C   0  0  1  0  0  0  0  0  0  0  0  0
    8.5904  -18.4994   21.9076 O   0  0  0  0  0  0  0  0  0  0  0  0
    7.3852  -16.5081   22.5597 C   0  0  2  0  0  0  0  0  0  0  0  0
    7.9780  -15.7811   21.4553 N   0  0  0  0  0  0  0  0  0  0  0  0
    8.2277  -16.2765   23.7574 C   0  0  0  0  0  0  0  0  0  0  0  0
    9.4509  -15.9465   23.6349 O   0  0  0  0  0  0  0  0  0  0  0  0
    7.7359  -16.4049   25.0837 N   0  0  0  0  0  0  0  0  0  0  0  0
    8.5991  -16.1334   26.1892 C   0  0  1  0  0  0  0  0  0  0  0  0
    7.9329  -15.3370   27.2827 C   0  0  0  0  0  0  0  0  0  0  0  0
    7.4805  -14.0161   26.8646 C   0  0  0  0  0  0  0  0  0  0  0  0
    8.3826  -12.9913   26.6749 C   0  0  0  0  0  0  0  0  0  0  0  0
    7.9472  -11.7220   26.2731 C   0  0  0  0  0  0  0  0  0  0  0  0
    6.6157  -11.4631   26.0575 C   0  0  0  0  0  0  0  0  0  0  0  0
    5.7162  -12.4827   26.2459 C   0  0  0  0  0  0  0  0  0  0  0  0
    6.1541  -13.7285   26.6415 C   0  0  0  0  0  0  0  0  0  0  0  0
    9.1515  -17.4182   26.6953 C   0  0  0  0  0  0  0  0  0  0  0  0
   10.0304  -17.4443   27.5803 O   0  0  0  0  0  0  0  0  0  0  0  0
    8.7016  -18.6333   26.1935 O   0  0  0  0  0  0  0  0  0  0  0  0
  1  2  1  0
  1  5  1  0
  2  3  1  0
  3  4  1  0
  5  4  1  0
  5  6  1  1
  6  7  2  0
  9  8  1  6
 10  9  1  0
 11  9  1  0
 12  6  1  0
 11 12  1  6
 13 11  1  0
 13 14  2  0
 15 13  1  0
 16 15  1  0
 16 17  1  1
 18 23  1  0
 18 17  1  0
 19 18  2  0
 20 21  2  0
 20 19  1  0
 21 22  1  0
 22 23  2  0
 24 26  1  0
 24 16  1  0
 25 24  2  0
M  END
$$$$
