PTF.pdb
     RDKit          3D

 26 27  0  0  1  0  0  0  0  0999 V2000
    8.5687  -14.9920   18.3611 N   0  0  0  0  0  0  0  0  0  0  0  0
    8.6486  -14.1532   17.1667 C   0  0  0  0  0  0  0  0  0  0  0  0
    7.8801  -12.9094   17.4824 C   0  0  0  0  0  0  0  0  0  0  0  0
    7.5920  -13.0013   18.9735 C   0  0  0  0  0  0  0  0  0  0  0  0
    8.6253  -14.0148   19.4215 C   0  0  1  0  0  0  0  0  0  0  0  0
    8.3135  -14.5779   20.7432 C   0  0  0  0  0  0  0  0  0  0  0  0
    8.3181  -13.8342   21.7362 O   0  0  0  0  0  0  0  0  0  0  0  0
    6.0747  -18.0956   20.9155 C   0  0  0  0  0  0  0  0  0  0  0  0
    7.1324  -17.9268   21.9832 C   0  0  1  0  0  0  0  0  0  0  0  0
    8.2516  -18.7172   21.7517 O   0  0  0  0  0  0  0  0  0  0  0  0
    7.4787  -16.4680   22.1845 C   0  0  2  0  0  0  0  0  0  0  0  0
    8.0029  -15.9559   20.9345 N   0  0  0  0  0  0  0  0  0  0  0  0
    8.5236  -16.2871   23.2206 C   0  0  0  0  0  0  0  0  0  0  0  0
    9.7549  -16.2526   22.8997 O   0  0  0  0  0  0  0  0  0  0  0  0
    8.2247  -16.1444   24.6018 N   0  0  0  0  0  0  0  0  0  0  0  0
    9.2795  -15.9008   25.5340 C   0  0  1  0  0  0  0  0  0  0  0  0
    9.6366  -14.4414   25.6605 C   0  0  0  0  0  0  0  0  0  0  0  0
    8.4994  -13.5731   25.9378 C   0  0  0  0  0  0  0  0  0  0  0  0
    7.5331  -13.3526   24.9799 C   0  0  0  0  0  0  0  0  0  0  0  0
    6.4403  -12.5179   25.2470 C   0  0  0  0  0  0  0  0  0  0  0  0
    6.3006  -11.8983   26.4647 C   0  0  0  0  0  0  0  0  0  0  0  0
    7.2621  -12.1170   27.4197 C   0  0  0  0  0  0  0  0  0  0  0  0
    8.3340  -12.9400   27.1476 C   0  0  0  0  0  0  0  0  0  0  0  0
    8.9104  -16.4983   26.8451 C   0  0  0  0  0  0  0  0  0  0  0  0
    7.7887  -17.0109   27.0332 O   0  0  0  0  0  0  0  0  0  0  0  0
    9.8101  -16.5023   27.9039 O   0  0  0  0  0  0  0  0  0  0  0  0
  1  2  1  0
  1  5  1  0
  2  3  1  0
  3  4  1  0
  5  4  1  0
  5  6  1  1
  6  7  2  0
  9  8  1  6
 10  9  1  0
 11  9  1  0
 12  6  1  0
 11 12  1  6
 13 11  1  0
 13 14  2  0
 15 13  1  0
 16 15  1  0
 16 17  1  1
 18 23  1  0
 18 17  1  0
 19 18  2  0
 20 21  2  0
 20 19  1  0
 21 22  1  0
 22 23  2  0
 24 26  1  0
 24 16  1  0
 25 24  2  0
M  END
$$$$
