PTF.pdb
     RDKit          3D

 26 27  0  0  1  0  0  0  0  0999 V2000
    9.1668  -14.5899   19.0989 N   0  0  0  0  0  0  0  0  0  0  0  0
    9.3303  -13.6596   17.9833 C   0  0  0  0  0  0  0  0  0  0  0  0
    8.1281  -12.7700   18.0068 C   0  0  0  0  0  0  0  0  0  0  0  0
    7.4335  -13.0940   19.3211 C   0  0  0  0  0  0  0  0  0  0  0  0
    8.5513  -13.7545   20.1019 C   0  0  1  0  0  0  0  0  0  0  0  0
    8.0488  -14.5132   21.2564 C   0  0  0  0  0  0  0  0  0  0  0  0
    7.3550  -13.9349   22.1070 O   0  0  0  0  0  0  0  0  0  0  0  0
    6.9660  -18.4753   21.0625 C   0  0  0  0  0  0  0  0  0  0  0  0
    7.8867  -18.1253   22.2103 C   0  0  1  0  0  0  0  0  0  0  0  0
    9.1931  -18.5440   21.9897 O   0  0  0  0  0  0  0  0  0  0  0  0
    7.7946  -16.6557   22.5570 C   0  0  2  0  0  0  0  0  0  0  0  0
    8.3273  -15.8987   21.4422 N   0  0  0  0  0  0  0  0  0  0  0  0
    8.5989  -16.3206   23.7564 C   0  0  0  0  0  0  0  0  0  0  0  0
    9.8130  -15.9558   23.6410 O   0  0  0  0  0  0  0  0  0  0  0  0
    8.0793  -16.3836   25.0768 N   0  0  0  0  0  0  0  0  0  0  0  0
    8.8884  -15.9667   26.1778 C   0  0  1  0  0  0  0  0  0  0  0  0
    8.1149  -15.2216   27.2362 C   0  0  0  0  0  0  0  0  0  0  0  0
    7.4887  -13.9942   26.7613 C   0  0  0  0  0  0  0  0  0  0  0  0
    6.1250  -13.9284   26.5720 C   0  0  0  0  0  0  0  0  0  0  0  0
    5.5236  -12.7484   26.1155 C   0  0  0  0  0  0  0  0  0  0  0  0
    6.2716  -11.6288   25.8447 C   0  0  0  0  0  0  0  0  0  0  0  0
    7.6298  -11.6929   26.0328 C   0  0  0  0  0  0  0  0  0  0  0  0
    8.2126  -12.8584   26.4823 C   0  0  0  0  0  0  0  0  0  0  0  0
    9.5913  -17.1532   26.7350 C   0  0  0  0  0  0  0  0  0  0  0  0
   10.5167  -17.0312   27.5626 O   0  0  0  0  0  0  0  0  0  0  0  0
    9.2347  -18.4388   26.3470 O   0  0  0  0  0  0  0  0  0  0  0  0
  1  2  1  0
  1  5  1  0
  2  3  1  0
  3  4  1  0
  5  4  1  0
  5  6  1  1
  6  7  2  0
  9  8  1  6
 10  9  1  0
 11  9  1  0
 12  6  1  0
 11 12  1  6
 13 11  1  0
 13 14  2  0
 15 13  1  0
 16 15  1  0
 16 17  1  1
 18 23  1  0
 18 17  1  0
 19 18  2  0
 20 21  2  0
 20 19  1  0
 21 22  1  0
 22 23  2  0
 24 26  1  0
 24 16  1  0
 25 24  2  0
M  END
$$$$
