IWP.pdb
     RDKit          3D

 30 32  0  0  1  0  0  0  0  0999 V2000
    8.7488  -12.3156   19.5725 C   0  0  0  0  0  0  0  0  0  0  0  0
    8.3759  -13.5251   20.3638 C   0  0  0  0  0  0  0  0  0  0  0  0
    9.4258  -14.6242   20.2599 C   0  0  2  0  0  0  0  0  0  0  0  0
    9.4541  -15.0783   18.8227 C   0  0  0  0  0  0  0  0  0  0  0  0
    9.0442  -15.7574   21.1989 C   0  0  2  0  0  0  0  0  0  0  0  0
    7.7177  -16.2663   20.7989 N   0  0  0  0  0  0  0  0  0  0  0  0
    8.9123  -15.3413   22.6075 C   0  0  0  0  0  0  0  0  0  0  0  0
    8.5954  -14.1381   22.8734 O   0  0  0  0  0  0  0  0  0  0  0  0
    9.1132  -16.1944   23.6879 N   0  0  0  0  0  0  0  0  0  0  0  0
    9.1136  -15.6607   25.0797 C   0  0  1  0  0  0  0  0  0  0  0  0
    7.7940  -16.0700   25.6554 C   0  0  0  0  0  0  0  0  0  0  0  0
    6.7052  -15.0995   25.6335 C   0  0  0  0  0  0  0  0  0  0  0  0
    5.3680  -15.3222   25.3187 C   0  0  0  0  0  0  0  0  0  0  0  0
    4.6938  -14.1620   25.3917 N   0  0  0  0  0  0  0  0  0  0  0  0
    5.5423  -13.1692   25.7464 C   0  0  0  0  0  0  0  0  0  0  0  0
    5.4039  -11.8137   25.9653 C   0  0  0  0  0  0  0  0  0  0  0  0
    6.4688  -11.0203   26.3289 C   0  0  0  0  0  0  0  0  0  0  0  0
    7.7118  -11.5979   26.4788 C   0  0  0  0  0  0  0  0  0  0  0  0
    7.8719  -12.9487   26.2648 C   0  0  0  0  0  0  0  0  0  0  0  0
    6.7788  -13.7357   25.8965 C   0  0  0  0  0  0  0  0  0  0  0  0
   10.3041  -16.1296   25.7804 C   0  0  0  0  0  0  0  0  0  0  0  0
   11.2251  -16.6502   25.0454 O   0  0  0  0  0  0  0  0  0  0  0  0
   10.5959  -16.0868   27.1530 N   0  0  0  0  0  0  0  0  0  0  0  0
    9.7888  -15.5732   28.2315 C   0  0  0  0  0  0  0  0  0  0  0  0
   10.7692  -14.9863   29.2355 C   0  0  0  0  0  0  0  0  0  0  0  0
   12.1114  -15.3312   28.6758 C   0  0  0  0  0  0  0  0  0  0  0  0
   11.8525  -16.5310   27.8016 C   0  0  1  0  0  0  0  0  0  0  0  0
   11.6301  -17.7095   28.6609 C   0  0  0  0  0  0  0  0  0  0  0  0
   12.6303  -18.1250   29.3079 O   0  0  0  0  0  0  0  0  0  0  0  0
   10.4416  -18.3837   28.8133 O   0  0  0  0  0  0  0  0  0  0  0  0
  2  1  1  0
  3  2  1  0
  3  4  1  6
  5  6  1  6
  5  3  1  0
  7  5  1  0
  8  7  2  0
  9  7  1  0
 10 21  1  0
 10  9  1  0
 10 11  1  1
 12 11  1  0
 13 12  2  0
 14 13  1  0
 15 14  1  0
 15 20  2  0
 16 15  1  0
 17 16  2  0
 17 18  1  0
 18 19  2  0
 19 20  1  0
 20 12  1  0
 21 22  2  0
 23 27  1  0
 23 21  1  0
 24 25  1  0
 24 23  1  0
 25 26  1  0
 27 26  1  0
 28 30  1  0
 27 28  1  1
 29 28  2  0
M  END
$$$$
