IWP.pdb
     RDKit          3D

 30 32  0  0  1  0  0  0  0  0999 V2000
   12.5827  -18.5691   19.4530 C   0  0  0  0  0  0  0  0  0  0  0  0
   12.2598  -17.1767   19.0229 C   0  0  0  0  0  0  0  0  0  0  0  0
   11.8050  -16.3075   20.1886 C   0  0  2  0  0  0  0  0  0  0  0  0
   12.9080  -16.3281   21.2158 C   0  0  0  0  0  0  0  0  0  0  0  0
   10.5087  -16.8736   20.7460 C   0  0  2  0  0  0  0  0  0  0  0  0
    9.4719  -16.7791   19.6998 N   0  0  0  0  0  0  0  0  0  0  0  0
    9.9859  -16.1270   21.9053 C   0  0  0  0  0  0  0  0  0  0  0  0
   10.0382  -14.8558   21.9014 O   0  0  0  0  0  0  0  0  0  0  0  0
    9.4255  -16.7320   23.0258 N   0  0  0  0  0  0  0  0  0  0  0  0
    9.0894  -15.9218   24.2310 C   0  0  1  0  0  0  0  0  0  0  0  0
    7.7176  -16.3672   24.6311 C   0  0  0  0  0  0  0  0  0  0  0  0
    6.8505  -15.4028   25.2987 C   0  0  0  0  0  0  0  0  0  0  0  0
    5.6014  -15.6283   25.8693 C   0  0  0  0  0  0  0  0  0  0  0  0
    5.1205  -14.4732   26.3599 N   0  0  0  0  0  0  0  0  0  0  0  0
    6.0127  -13.4812   26.1334 C   0  0  0  0  0  0  0  0  0  0  0  0
    6.0450  -12.1300   26.4125 C   0  0  0  0  0  0  0  0  0  0  0  0
    7.1124  -11.3364   26.0568 C   0  0  0  0  0  0  0  0  0  0  0  0
    8.1818  -11.9091   25.4015 C   0  0  0  0  0  0  0  0  0  0  0  0
    8.1697  -13.2554   25.1130 C   0  0  0  0  0  0  0  0  0  0  0  0
    7.0772  -14.0429   25.4824 C   0  0  0  0  0  0  0  0  0  0  0  0
   10.1418  -16.0752   25.2296 C   0  0  0  0  0  0  0  0  0  0  0  0
   11.2025  -16.6957   24.8431 O   0  0  0  0  0  0  0  0  0  0  0  0
   10.1675  -15.6322   26.5615 N   0  0  0  0  0  0  0  0  0  0  0  0
    9.2187  -14.7951   27.2525 C   0  0  0  0  0  0  0  0  0  0  0  0
   10.0375  -13.9641   28.2285 C   0  0  0  0  0  0  0  0  0  0  0  0
   11.4251  -14.5010   28.0865 C   0  0  0  0  0  0  0  0  0  0  0  0
   11.2306  -15.8992   27.5592 C   0  0  1  0  0  0  0  0  0  0  0  0
   10.7412  -16.7591   28.6537 C   0  0  0  0  0  0  0  0  0  0  0  0
   11.5750  -17.0403   29.5578 O   0  0  0  0  0  0  0  0  0  0  0  0
    9.4711  -17.2727   28.7693 O   0  0  0  0  0  0  0  0  0  0  0  0
  2  1  1  0
  3  2  1  0
  3  4  1  1
  5  6  1  6
  5  3  1  0
  7  5  1  0
  8  7  2  0
  9  7  1  0
 10 21  1  0
 10  9  1  0
 10 11  1  1
 12 11  1  0
 13 12  2  0
 14 13  1  0
 15 14  1  0
 15 20  2  0
 16 15  1  0
 17 16  2  0
 17 18  1  0
 18 19  2  0
 19 20  1  0
 20 12  1  0
 21 22  2  0
 23 27  1  0
 23 21  1  0
 24 25  1  0
 24 23  1  0
 25 26  1  0
 27 26  1  0
 28 30  1  0
 27 28  1  1
 29 28  2  0
M  END
$$$$
