IWP.pdb
     RDKit          3D

 30 32  0  0  1  0  0  0  0  0999 V2000
    8.1248  -12.7985   18.6589 C   0  0  0  0  0  0  0  0  0  0  0  0
    8.6219  -13.8644   19.5781 C   0  0  0  0  0  0  0  0  0  0  0  0
   10.0268  -14.3271   19.2127 C   0  0  2  0  0  0  0  0  0  0  0  0
    9.9761  -14.8230   17.7901 C   0  0  0  0  0  0  0  0  0  0  0  0
   10.4470  -15.4264   20.1754 C   0  0  2  0  0  0  0  0  0  0  0  0
    9.6244  -16.6215   19.9045 N   0  0  0  0  0  0  0  0  0  0  0  0
   10.2219  -15.0905   21.5935 C   0  0  0  0  0  0  0  0  0  0  0  0
   10.8292  -14.0941   22.1007 O   0  0  0  0  0  0  0  0  0  0  0  0
    9.3704  -15.8037   22.4314 N   0  0  0  0  0  0  0  0  0  0  0  0
    9.0487  -15.2900   23.7932 C   0  0  1  0  0  0  0  0  0  0  0  0
    7.5664  -15.4464   23.9297 C   0  0  0  0  0  0  0  0  0  0  0  0
    6.9225  -14.8807   25.1100 C   0  0  0  0  0  0  0  0  0  0  0  0
    6.2289  -15.5546   26.1108 C   0  0  0  0  0  0  0  0  0  0  0  0
    5.7672  -14.6671   27.0081 N   0  0  0  0  0  0  0  0  0  0  0  0
    6.1322  -13.4183   26.6356 C   0  0  0  0  0  0  0  0  0  0  0  0
    5.9394  -12.1584   27.1648 C   0  0  0  0  0  0  0  0  0  0  0  0
    6.4382  -11.0275   26.5580 C   0  0  0  0  0  0  0  0  0  0  0  0
    7.1522  -11.1578   25.3857 C   0  0  0  0  0  0  0  0  0  0  0  0
    7.3557  -12.4058   24.8405 C   0  0  0  0  0  0  0  0  0  0  0  0
    6.8413  -13.5402   25.4717 C   0  0  0  0  0  0  0  0  0  0  0  0
    9.8708  -15.9807   24.7807 C   0  0  0  0  0  0  0  0  0  0  0  0
   10.6469  -16.9028   24.3256 O   0  0  0  0  0  0  0  0  0  0  0  0
    9.9438  -15.7771   26.1678 N   0  0  0  0  0  0  0  0  0  0  0  0
    9.0700  -15.0024   27.0133 C   0  0  0  0  0  0  0  0  0  0  0  0
    9.9607  -14.4163   28.0982 C   0  0  0  0  0  0  0  0  0  0  0  0
   11.3005  -15.0240   27.8347 C   0  0  0  0  0  0  0  0  0  0  0  0
   10.9921  -16.2916   27.0806 C   0  0  1  0  0  0  0  0  0  0  0  0
   10.4472  -17.2877   28.0228 C   0  0  0  0  0  0  0  0  0  0  0  0
    9.2059  -17.5018   27.9525 O   0  0  0  0  0  0  0  0  0  0  0  0
   11.1683  -17.9920   28.9578 O   0  0  0  0  0  0  0  0  0  0  0  0
  2  1  1  0
  3  2  1  0
  3  4  1  6
  5  6  1  6
  5  3  1  0
  7  5  1  0
  8  7  2  0
  9  7  1  0
 10 21  1  0
 10  9  1  0
 10 11  1  1
 12 11  1  0
 13 12  2  0
 14 13  1  0
 15 14  1  0
 15 20  2  0
 16 15  1  0
 17 16  2  0
 17 18  1  0
 18 19  2  0
 19 20  1  0
 20 12  1  0
 21 22  2  0
 23 27  1  0
 23 21  1  0
 24 25  1  0
 24 23  1  0
 25 26  1  0
 27 26  1  0
 28 30  1  0
 27 28  1  1
 29 28  2  0
M  END
$$$$
