IWP.pdb
     RDKit          3D

 30 32  0  0  1  0  0  0  0  0999 V2000
    8.6773  -14.1652   15.3074 C   0  0  0  0  0  0  0  0  0  0  0  0
    8.5400  -15.3898   16.1497 C   0  0  0  0  0  0  0  0  0  0  0  0
    9.0863  -15.1822   17.5566 C   0  0  2  0  0  0  0  0  0  0  0  0
    9.3487  -16.5480   18.1382 C   0  0  0  0  0  0  0  0  0  0  0  0
    8.0598  -14.4128   18.3728 C   0  0  2  0  0  0  0  0  0  0  0  0
    8.0872  -13.0010   17.9429 N   0  0  0  0  0  0  0  0  0  0  0  0
    8.3404  -14.4026   19.8205 C   0  0  0  0  0  0  0  0  0  0  0  0
    9.2999  -13.6939   20.2631 O   0  0  0  0  0  0  0  0  0  0  0  0
    7.6096  -15.1296   20.7548 N   0  0  0  0  0  0  0  0  0  0  0  0
    7.9263  -15.0232   22.2075 C   0  0  1  0  0  0  0  0  0  0  0  0
    6.5988  -14.9077   22.8893 C   0  0  0  0  0  0  0  0  0  0  0  0
    6.5795  -14.8372   24.3462 C   0  0  0  0  0  0  0  0  0  0  0  0
    6.3003  -15.8599   25.2477 C   0  0  0  0  0  0  0  0  0  0  0  0
    6.3622  -15.3786   26.5009 N   0  0  0  0  0  0  0  0  0  0  0  0
    6.6749  -14.0624   26.4632 C   0  0  0  0  0  0  0  0  0  0  0  0
    6.8659  -13.0881   27.4217 C   0  0  0  0  0  0  0  0  0  0  0  0
    7.1872  -11.7909   27.0903 C   0  0  0  0  0  0  0  0  0  0  0  0
    7.3220  -11.4550   25.7598 C   0  0  0  0  0  0  0  0  0  0  0  0
    7.1352  -12.4118   24.7874 C   0  0  0  0  0  0  0  0  0  0  0  0
    6.8098  -13.7219   25.1447 C   0  0  0  0  0  0  0  0  0  0  0  0
    8.7681  -16.1461   22.6056 C   0  0  0  0  0  0  0  0  0  0  0  0
    8.6538  -17.2174   21.8994 O   0  0  0  0  0  0  0  0  0  0  0  0
    9.6996  -16.2243   23.6531 N   0  0  0  0  0  0  0  0  0  0  0  0
   10.1309  -15.1869   24.5565 C   0  0  0  0  0  0  0  0  0  0  0  0
   11.5964  -15.4752   24.8444 C   0  0  0  0  0  0  0  0  0  0  0  0
   11.8557  -16.7695   24.1434 C   0  0  0  0  0  0  0  0  0  0  0  0
   10.4974  -17.4132   24.0365 C   0  0  1  0  0  0  0  0  0  0  0  0
   10.1042  -17.9229   25.3641 C   0  0  0  0  0  0  0  0  0  0  0  0
   10.9080  -17.6956   26.3096 O   0  0  0  0  0  0  0  0  0  0  0  0
    8.9522  -18.6154   25.6532 O   0  0  0  0  0  0  0  0  0  0  0  0
  2  1  1  0
  3  2  1  0
  3  4  1  1
  5  6  1  6
  5  3  1  0
  7  5  1  0
  8  7  2  0
  9  7  1  0
 10 21  1  0
 10  9  1  0
 10 11  1  1
 12 11  1  0
 13 12  2  0
 14 13  1  0
 15 14  1  0
 15 20  2  0
 16 15  1  0
 17 16  2  0
 17 18  1  0
 18 19  2  0
 19 20  1  0
 20 12  1  0
 21 22  2  0
 23 27  1  0
 23 21  1  0
 24 25  1  0
 24 23  1  0
 25 26  1  0
 27 26  1  0
 28 30  1  0
 27 28  1  1
 29 28  2  0
M  END
$$$$
