IWP.pdb
     RDKit          3D

 30 32  0  0  1  0  0  0  0  0999 V2000
    5.3814  -23.2300   20.8186 C   0  0  0  0  0  0  0  0  0  0  0  0
    4.9871  -22.4350   22.0188 C   0  0  0  0  0  0  0  0  0  0  0  0
    5.6742  -21.0757   22.0572 C   0  0  2  0  0  0  0  0  0  0  0  0
    7.1603  -21.3280   22.0553 C   0  0  0  0  0  0  0  0  0  0  0  0
    5.2320  -20.3378   23.3109 C   0  0  2  0  0  0  0  0  0  0  0  0
    3.7620  -20.2089   23.2808 N   0  0  0  0  0  0  0  0  0  0  0  0
    5.7589  -18.9639   23.4070 C   0  0  0  0  0  0  0  0  0  0  0  0
    5.7493  -18.2204   22.3745 O   0  0  0  0  0  0  0  0  0  0  0  0
    6.2748  -18.4135   24.5760 N   0  0  0  0  0  0  0  0  0  0  0  0
    6.9734  -17.0971   24.5449 C   0  0  1  0  0  0  0  0  0  0  0  0
    6.7857  -16.5228   25.9143 C   0  0  0  0  0  0  0  0  0  0  0  0
    7.5554  -15.3366   26.2724 C   0  0  0  0  0  0  0  0  0  0  0  0
    8.8562  -15.2780   26.7635 C   0  0  0  0  0  0  0  0  0  0  0  0
    9.1892  -13.9961   26.9913 N   0  0  0  0  0  0  0  0  0  0  0  0
    8.1476  -13.1954   26.6666 C   0  0  0  0  0  0  0  0  0  0  0  0
    7.9324  -11.8325   26.6956 C   0  0  0  0  0  0  0  0  0  0  0  0
    6.7401  -11.2729   26.2941 C   0  0  0  0  0  0  0  0  0  0  0  0
    5.7302  -12.0995   25.8496 C   0  0  0  0  0  0  0  0  0  0  0  0
    5.9239  -13.4623   25.8130 C   0  0  0  0  0  0  0  0  0  0  0  0
    7.1407  -14.0099   26.2247 C   0  0  0  0  0  0  0  0  0  0  0  0
    8.3499  -17.2870   24.1007 C   0  0  0  0  0  0  0  0  0  0  0  0
    8.8472  -18.4610   24.2850 O   0  0  0  0  0  0  0  0  0  0  0  0
    9.2155  -16.3671   23.4881 N   0  0  0  0  0  0  0  0  0  0  0  0
    9.0380  -14.9489   23.2989 C   0  0  0  0  0  0  0  0  0  0  0  0
    9.7046  -14.6245   21.9707 C   0  0  0  0  0  0  0  0  0  0  0  0
   10.3303  -15.9163   21.5540 C   0  0  0  0  0  0  0  0  0  0  0  0
   10.5148  -16.6731   22.8439 C   0  0  1  0  0  0  0  0  0  0  0  0
   11.6411  -16.0794   23.5895 C   0  0  0  0  0  0  0  0  0  0  0  0
   11.3366  -15.2881   24.5236 O   0  0  0  0  0  0  0  0  0  0  0  0
   12.9756  -16.3125   23.3549 O   0  0  0  0  0  0  0  0  0  0  0  0
  2  1  1  0
  3  2  1  0
  3  4  1  1
  5  6  1  6
  5  3  1  0
  7  5  1  0
  8  7  2  0
  9  7  1  0
 10 21  1  0
 10  9  1  0
 10 11  1  1
 12 11  1  0
 13 12  2  0
 14 13  1  0
 15 14  1  0
 15 20  2  0
 16 15  1  0
 17 16  2  0
 17 18  1  0
 18 19  2  0
 19 20  1  0
 20 12  1  0
 21 22  2  0
 23 27  1  0
 23 21  1  0
 24 25  1  0
 24 23  1  0
 25 26  1  0
 27 26  1  0
 28 30  1  0
 27 28  1  1
 29 28  2  0
M  END
$$$$
