IWP.pdb
     RDKit          3D

 30 32  0  0  1  0  0  0  0  0999 V2000
   12.1709  -16.2881   18.2671 C   0  0  0  0  0  0  0  0  0  0  0  0
   11.4994  -17.1206   19.3084 C   0  0  0  0  0  0  0  0  0  0  0  0
   11.2563  -16.3426   20.5955 C   0  0  2  0  0  0  0  0  0  0  0  0
   12.3965  -16.6595   21.5292 C   0  0  0  0  0  0  0  0  0  0  0  0
    9.9183  -16.7668   21.1798 C   0  0  2  0  0  0  0  0  0  0  0  0
    8.8561  -16.4043   20.2212 N   0  0  0  0  0  0  0  0  0  0  0  0
    9.5786  -16.0827   22.4412 C   0  0  0  0  0  0  0  0  0  0  0  0
    9.5353  -14.8113   22.4671 O   0  0  0  0  0  0  0  0  0  0  0  0
    9.2941  -16.7480   23.6295 N   0  0  0  0  0  0  0  0  0  0  0  0
    9.1470  -15.9872   24.9028 C   0  0  1  0  0  0  0  0  0  0  0  0
    7.7856  -16.3409   25.4143 C   0  0  0  0  0  0  0  0  0  0  0  0
    6.7666  -15.2974   25.4316 C   0  0  0  0  0  0  0  0  0  0  0  0
    5.3837  -15.4534   25.4401 C   0  0  0  0  0  0  0  0  0  0  0  0
    4.7987  -14.2435   25.4297 N   0  0  0  0  0  0  0  0  0  0  0  0
    5.7514  -13.2824   25.4143 C   0  0  0  0  0  0  0  0  0  0  0  0
    5.7299  -11.9026   25.3996 C   0  0  0  0  0  0  0  0  0  0  0  0
    6.8858  -11.1546   25.3864 C   0  0  0  0  0  0  0  0  0  0  0  0
    8.1021  -11.8041   25.3878 C   0  0  0  0  0  0  0  0  0  0  0  0
    8.1459  -13.1803   25.4019 C   0  0  0  0  0  0  0  0  0  0  0  0
    6.9619  -13.9204   25.4151 C   0  0  0  0  0  0  0  0  0  0  0  0
   10.2720  -16.2872   25.7817 C   0  0  0  0  0  0  0  0  0  0  0  0
   11.2531  -16.9279   25.2465 O   0  0  0  0  0  0  0  0  0  0  0  0
   10.4434  -15.9676   27.1380 N   0  0  0  0  0  0  0  0  0  0  0  0
    9.5604  -15.2355   28.0112 C   0  0  0  0  0  0  0  0  0  0  0  0
   10.4657  -14.4660   28.9609 C   0  0  0  0  0  0  0  0  0  0  0  0
   11.8411  -14.9327   28.6083 C   0  0  0  0  0  0  0  0  0  0  0  0
   11.6248  -16.2831   27.9757 C   0  0  1  0  0  0  0  0  0  0  0  0
   11.2936  -17.2584   29.0321 C   0  0  0  0  0  0  0  0  0  0  0  0
   12.2373  -17.5903   29.8008 O   0  0  0  0  0  0  0  0  0  0  0  0
   10.0607  -17.8280   29.2458 O   0  0  0  0  0  0  0  0  0  0  0  0
  2  1  1  0
  3  2  1  0
  3  4  1  1
  5  6  1  6
  5  3  1  0
  7  5  1  0
  8  7  2  0
  9  7  1  0
 10 21  1  0
 10  9  1  0
 10 11  1  1
 12 11  1  0
 13 12  2  0
 14 13  1  0
 15 14  1  0
 15 20  2  0
 16 15  1  0
 17 16  2  0
 17 18  1  0
 18 19  2  0
 19 20  1  0
 20 12  1  0
 21 22  2  0
 23 27  1  0
 23 21  1  0
 24 25  1  0
 24 23  1  0
 25 26  1  0
 27 26  1  0
 28 30  1  0
 27 28  1  1
 29 28  2  0
M  END
$$$$
