IWP.pdb
     RDKit          3D

 30 32  0  0  1  0  0  0  0  0999 V2000
    7.1204  -14.1350   20.1167 C   0  0  0  0  0  0  0  0  0  0  0  0
    8.3526  -13.4519   20.6097 C   0  0  0  0  0  0  0  0  0  0  0  0
    9.6198  -14.1997   20.2145 C   0  0  2  0  0  0  0  0  0  0  0  0
    9.4702  -14.5951   18.7675 C   0  0  0  0  0  0  0  0  0  0  0  0
    9.7732  -15.4149   21.1152 C   0  0  2  0  0  0  0  0  0  0  0  0
    8.6620  -16.3450   20.8350 N   0  0  0  0  0  0  0  0  0  0  0  0
    9.6883  -15.1012   22.5536 C   0  0  0  0  0  0  0  0  0  0  0  0
   10.3037  -14.0835   23.0056 O   0  0  0  0  0  0  0  0  0  0  0  0
    8.9634  -15.8581   23.4686 N   0  0  0  0  0  0  0  0  0  0  0  0
    8.9455  -15.4825   24.9111 C   0  0  1  0  0  0  0  0  0  0  0  0
    7.6268  -15.9694   25.4252 C   0  0  0  0  0  0  0  0  0  0  0  0
    6.6188  -14.9759   25.7782 C   0  0  0  0  0  0  0  0  0  0  0  0
    5.2561  -15.1750   25.9787 C   0  0  0  0  0  0  0  0  0  0  0  0
    4.6712  -13.9992   26.2642 N   0  0  0  0  0  0  0  0  0  0  0  0
    5.6043  -13.0190   26.2602 C   0  0  0  0  0  0  0  0  0  0  0  0
    5.5741  -11.6571   26.4811 C   0  0  0  0  0  0  0  0  0  0  0  0
    6.7092  -10.8808   26.4113 C   0  0  0  0  0  0  0  0  0  0  0  0
    7.9129  -11.4827   26.1115 C   0  0  0  0  0  0  0  0  0  0  0  0
    7.9651  -12.8402   25.8871 C   0  0  0  0  0  0  0  0  0  0  0  0
    6.8022  -13.6096   25.9626 C   0  0  0  0  0  0  0  0  0  0  0  0
   10.1364  -16.0117   25.5666 C   0  0  0  0  0  0  0  0  0  0  0  0
   11.0014  -16.5776   24.7977 O   0  0  0  0  0  0  0  0  0  0  0  0
   10.4818  -15.9851   26.9271 N   0  0  0  0  0  0  0  0  0  0  0  0
    9.7662  -15.3903   28.0282 C   0  0  0  0  0  0  0  0  0  0  0  0
   10.8331  -14.8885   28.9892 C   0  0  0  0  0  0  0  0  0  0  0  0
   12.1161  -15.3606   28.3850 C   0  0  0  0  0  0  0  0  0  0  0  0
   11.7154  -16.5383   27.5346 C   0  0  1  0  0  0  0  0  0  0  0  0
   11.4175  -17.6843   28.4149 C   0  0  0  0  0  0  0  0  0  0  0  0
   10.1973  -17.9597   28.5789 O   0  0  0  0  0  0  0  0  0  0  0  0
   12.3448  -18.4659   29.0627 O   0  0  0  0  0  0  0  0  0  0  0  0
  2  1  1  0
  3  2  1  0
  3  4  1  6
  5  6  1  6
  5  3  1  0
  7  5  1  0
  8  7  2  0
  9  7  1  0
 10 21  1  0
 10  9  1  0
 10 11  1  1
 12 11  1  0
 13 12  2  0
 14 13  1  0
 15 14  1  0
 15 20  2  0
 16 15  1  0
 17 16  2  0
 17 18  1  0
 18 19  2  0
 19 20  1  0
 20 12  1  0
 21 22  2  0
 23 27  1  0
 23 21  1  0
 24 25  1  0
 24 23  1  0
 25 26  1  0
 27 26  1  0
 28 30  1  0
 27 28  1  1
 29 28  2  0
M  END
$$$$
