IWP.pdb
     RDKit          3D

 30 32  0  0  1  0  0  0  0  0999 V2000
    8.4384  -22.6732   21.7031 C   0  0  0  0  0  0  0  0  0  0  0  0
    7.4011  -21.9040   22.4518 C   0  0  0  0  0  0  0  0  0  0  0  0
    7.4520  -22.1804   23.9492 C   0  0  2  0  0  0  0  0  0  0  0  0
    7.2278  -23.6593   24.1367 C   0  0  0  0  0  0  0  0  0  0  0  0
    6.3737  -21.3580   24.6367 C   0  0  2  0  0  0  0  0  0  0  0  0
    5.0656  -21.7379   24.0685 N   0  0  0  0  0  0  0  0  0  0  0  0
    6.5059  -19.9056   24.4177 C   0  0  0  0  0  0  0  0  0  0  0  0
    5.8950  -19.3658   23.4409 O   0  0  0  0  0  0  0  0  0  0  0  0
    7.2681  -19.0680   25.2258 N   0  0  0  0  0  0  0  0  0  0  0  0
    7.4650  -17.6377   24.8551 C   0  0  1  0  0  0  0  0  0  0  0  0
    7.4851  -16.8964   26.1553 C   0  0  0  0  0  0  0  0  0  0  0  0
    6.8554  -15.5816   26.2052 C   0  0  0  0  0  0  0  0  0  0  0  0
    5.5032  -15.2764   26.0824 C   0  0  0  0  0  0  0  0  0  0  0  0
    5.3381  -13.9449   26.1593 N   0  0  0  0  0  0  0  0  0  0  0  0
    6.5419  -13.3506   26.3300 C   0  0  0  0  0  0  0  0  0  0  0  0
    6.9618  -12.0433   26.4681 C   0  0  0  0  0  0  0  0  0  0  0  0
    8.2890  -11.7163   26.6338 C   0  0  0  0  0  0  0  0  0  0  0  0
    9.2273  -12.7261   26.6626 C   0  0  0  0  0  0  0  0  0  0  0  0
    8.8298  -14.0374   26.5262 C   0  0  0  0  0  0  0  0  0  0  0  0
    7.4786  -14.3477   26.3591 C   0  0  0  0  0  0  0  0  0  0  0  0
    8.6504  -17.5115   24.0143 C   0  0  0  0  0  0  0  0  0  0  0  0
    9.4349  -18.5329   23.9853 O   0  0  0  0  0  0  0  0  0  0  0  0
    9.0582  -16.4292   23.2186 N   0  0  0  0  0  0  0  0  0  0  0  0
    8.5394  -15.0844   23.1897 C   0  0  0  0  0  0  0  0  0  0  0  0
    8.6529  -14.6307   21.7424 C   0  0  0  0  0  0  0  0  0  0  0  0
    9.3610  -15.7583   21.0634 C   0  0  0  0  0  0  0  0  0  0  0  0
   10.1092  -16.4498   22.1737 C   0  0  1  0  0  0  0  0  0  0  0  0
   11.2687  -15.6217   22.5567 C   0  0  0  0  0  0  0  0  0  0  0  0
   11.1365  -14.9250   23.6002 O   0  0  0  0  0  0  0  0  0  0  0  0
   12.4640  -15.5462   21.8815 O   0  0  0  0  0  0  0  0  0  0  0  0
  2  1  1  0
  3  2  1  0
  3  4  1  6
  5  6  1  6
  5  3  1  0
  7  5  1  0
  8  7  2  0
  9  7  1  0
 10 21  1  0
 10  9  1  0
 10 11  1  1
 12 11  1  0
 13 12  2  0
 14 13  1  0
 15 14  1  0
 15 20  2  0
 16 15  1  0
 17 16  2  0
 17 18  1  0
 18 19  2  0
 19 20  1  0
 20 12  1  0
 21 22  2  0
 23 27  1  0
 23 21  1  0
 24 25  1  0
 24 23  1  0
 25 26  1  0
 27 26  1  0
 28 30  1  0
 27 28  1  1
 29 28  2  0
M  END
$$$$
