IWP.pdb
     RDKit          3D

 30 32  0  0  1  0  0  0  0  0999 V2000
    6.9472  -23.8479   21.7356 C   0  0  0  0  0  0  0  0  0  0  0  0
    6.1021  -22.8025   22.3846 C   0  0  0  0  0  0  0  0  0  0  0  0
    6.8195  -21.4617   22.4775 C   0  0  2  0  0  0  0  0  0  0  0  0
    8.0720  -21.6822   23.2868 C   0  0  0  0  0  0  0  0  0  0  0  0
    5.8932  -20.4547   23.1407 C   0  0  2  0  0  0  0  0  0  0  0  0
    4.7174  -20.2604   22.2700 N   0  0  0  0  0  0  0  0  0  0  0  0
    6.4956  -19.1200   23.3146 C   0  0  0  0  0  0  0  0  0  0  0  0
    6.7802  -18.4273   22.2860 O   0  0  0  0  0  0  0  0  0  0  0  0
    6.7775  -18.5544   24.5540 N   0  0  0  0  0  0  0  0  0  0  0  0
    7.4283  -17.2162   24.6413 C   0  0  1  0  0  0  0  0  0  0  0  0
    6.8436  -16.5763   25.8616 C   0  0  0  0  0  0  0  0  0  0  0  0
    7.2431  -15.2096   26.1780 C   0  0  0  0  0  0  0  0  0  0  0  0
    6.7224  -14.0261   25.6633 C   0  0  0  0  0  0  0  0  0  0  0  0
    7.3821  -12.9816   26.1923 N   0  0  0  0  0  0  0  0  0  0  0  0
    8.3299  -13.4331   27.0465 C   0  0  0  0  0  0  0  0  0  0  0  0
    9.2750  -12.8256   27.8478 C   0  0  0  0  0  0  0  0  0  0  0  0
   10.1359  -13.5515   28.6401 C   0  0  0  0  0  0  0  0  0  0  0  0
   10.0512  -14.9277   28.6325 C   0  0  0  0  0  0  0  0  0  0  0  0
    9.1154  -15.5539   27.8398 C   0  0  0  0  0  0  0  0  0  0  0  0
    8.2516  -14.7992   27.0435 C   0  0  0  0  0  0  0  0  0  0  0  0
    8.8779  -17.3776   24.6209 C   0  0  0  0  0  0  0  0  0  0  0  0
    9.3378  -18.4343   25.1966 O   0  0  0  0  0  0  0  0  0  0  0  0
    9.8521  -16.5425   24.0512 N   0  0  0  0  0  0  0  0  0  0  0  0
    9.7266  -15.1720   23.6218 C   0  0  0  0  0  0  0  0  0  0  0  0
   10.6349  -15.0360   22.4094 C   0  0  0  0  0  0  0  0  0  0  0  0
   11.3161  -16.3630   22.3160 C   0  0  0  0  0  0  0  0  0  0  0  0
   11.2468  -16.9158   23.7161 C   0  0  1  0  0  0  0  0  0  0  0  0
   12.2175  -16.1961   24.5628 C   0  0  0  0  0  0  0  0  0  0  0  0
   13.4351  -16.4577   24.3617 O   0  0  0  0  0  0  0  0  0  0  0  0
   11.9108  -15.2777   25.5389 O   0  0  0  0  0  0  0  0  0  0  0  0
  2  1  1  0
  3  2  1  0
  3  4  1  1
  5  6  1  6
  5  3  1  0
  7  5  1  0
  8  7  2  0
  9  7  1  0
 10 21  1  0
 10  9  1  0
 10 11  1  1
 12 11  1  0
 13 12  2  0
 14 13  1  0
 15 14  1  0
 15 20  2  0
 16 15  1  0
 17 16  2  0
 17 18  1  0
 18 19  2  0
 19 20  1  0
 20 12  1  0
 21 22  2  0
 23 27  1  0
 23 21  1  0
 24 25  1  0
 24 23  1  0
 25 26  1  0
 27 26  1  0
 28 30  1  0
 27 28  1  1
 29 28  2  0
M  END
$$$$
