IWP.pdb
     RDKit          3D

 30 32  0  0  1  0  0  0  0  0999 V2000
   11.8517  -16.5017   18.3709 C   0  0  0  0  0  0  0  0  0  0  0  0
   10.8433  -17.0327   19.3349 C   0  0  0  0  0  0  0  0  0  0  0  0
   10.7786  -16.2037   20.6115 C   0  0  2  0  0  0  0  0  0  0  0  0
   12.1645  -16.1906   21.2044 C   0  0  0  0  0  0  0  0  0  0  0  0
    9.7699  -16.8367   21.5567 C   0  0  2  0  0  0  0  0  0  0  0  0
    8.4367  -16.7700   20.9270 N   0  0  0  0  0  0  0  0  0  0  0  0
    9.6456  -16.1347   22.8477 C   0  0  0  0  0  0  0  0  0  0  0  0
    9.7537  -14.8674   22.8794 O   0  0  0  0  0  0  0  0  0  0  0  0
    9.4110  -16.7784   24.0585 N   0  0  0  0  0  0  0  0  0  0  0  0
    9.3531  -15.9990   25.3277 C   0  0  1  0  0  0  0  0  0  0  0  0
    7.9867  -16.2560   25.8821 C   0  0  0  0  0  0  0  0  0  0  0  0
    6.9127  -15.3410   25.5119 C   0  0  0  0  0  0  0  0  0  0  0  0
    5.6966  -15.6496   24.9097 C   0  0  0  0  0  0  0  0  0  0  0  0
    4.9973  -14.5191   24.7125 N   0  0  0  0  0  0  0  0  0  0  0  0
    5.7115  -13.4626   25.1656 C   0  0  0  0  0  0  0  0  0  0  0  0
    5.4923  -12.1011   25.2190 C   0  0  0  0  0  0  0  0  0  0  0  0
    6.4190  -11.2327   25.7508 C   0  0  0  0  0  0  0  0  0  0  0  0
    7.6024  -11.7389   26.2452 C   0  0  0  0  0  0  0  0  0  0  0  0
    7.8414  -13.0943   26.2013 C   0  0  0  0  0  0  0  0  0  0  0  0
    6.8883  -13.9580   25.6576 C   0  0  0  0  0  0  0  0  0  0  0  0
   10.4809  -16.3668   26.1767 C   0  0  0  0  0  0  0  0  0  0  0  0
   11.4572  -16.9696   25.5909 O   0  0  0  0  0  0  0  0  0  0  0  0
   10.6597  -16.1487   27.5519 N   0  0  0  0  0  0  0  0  0  0  0  0
    9.7683  -15.5099   28.4877 C   0  0  0  0  0  0  0  0  0  0  0  0
   10.6645  -14.7927   29.4857 C   0  0  0  0  0  0  0  0  0  0  0  0
   12.0473  -15.1942   29.0849 C   0  0  0  0  0  0  0  0  0  0  0  0
   11.8583  -16.4968   28.3514 C   0  0  1  0  0  0  0  0  0  0  0  0
   11.5643  -17.5593   29.3320 C   0  0  0  0  0  0  0  0  0  0  0  0
   10.3643  -17.9436   29.3954 O   0  0  0  0  0  0  0  0  0  0  0  0
   12.4751  -18.1570   30.1707 O   0  0  0  0  0  0  0  0  0  0  0  0
  2  1  1  0
  3  2  1  0
  3  4  1  1
  5  6  1  6
  5  3  1  0
  7  5  1  0
  8  7  2  0
  9  7  1  0
 10 21  1  0
 10  9  1  0
 10 11  1  1
 12 11  1  0
 13 12  2  0
 14 13  1  0
 15 14  1  0
 15 20  2  0
 16 15  1  0
 17 16  2  0
 17 18  1  0
 18 19  2  0
 19 20  1  0
 20 12  1  0
 21 22  2  0
 23 27  1  0
 23 21  1  0
 24 25  1  0
 24 23  1  0
 25 26  1  0
 27 26  1  0
 28 30  1  0
 27 28  1  1
 29 28  2  0
M  END
$$$$
