FAC.pdb
     RDKit          3D

 23 23  0  0  1  0  0  0  0  0999 V2000
   23.6715  -18.5380  -14.9587 N   0  0  0  0  0  0  0  0  0  0  0  0
   24.0763  -19.5161  -15.9146 C   0  0  1  0  0  0  0  0  0  0  0  0
   24.3912  -18.7786  -17.2226 C   0  0  0  0  0  0  0  0  0  0  0  0
   23.1261  -18.1415  -17.6709 C   0  0  0  0  0  0  0  0  0  0  0  0
   22.9861  -16.7508  -17.6674 C   0  0  0  0  0  0  0  0  0  0  0  0
   21.8322  -16.1364  -18.0749 C   0  0  0  0  0  0  0  0  0  0  0  0
   20.7668  -16.8918  -18.5044 C   0  0  0  0  0  0  0  0  0  0  0  0
   20.8573  -18.2734  -18.5261 C   0  0  0  0  0  0  0  0  0  0  0  0
   22.0402  -18.8722  -18.1070 C   0  0  0  0  0  0  0  0  0  0  0  0
   25.3074  -20.2578  -15.4627 C   0  0  0  0  0  0  0  0  0  0  0  0
   25.8072  -21.1811  -16.1191 O   0  0  0  0  0  0  0  0  0  0  0  0
   28.1937  -19.6024  -13.5957 C   0  0  0  0  0  0  0  0  0  0  0  0
   27.0336  -20.5766  -13.7095 C   0  0  2  0  0  0  0  0  0  0  0  0
   25.9045  -19.8784  -14.2457 N   0  0  0  0  0  0  0  0  0  0  0  0
   26.7837  -21.1408  -12.3564 C   0  0  0  0  0  0  0  0  0  0  0  0
   27.6639  -21.6798  -11.6568 O   0  0  0  0  0  0  0  0  0  0  0  0
   25.4696  -21.0544  -11.8468 N   0  0  0  0  0  0  0  0  0  0  0  0
   25.1449  -21.0622  -10.4375 C   0  0  1  0  0  0  0  0  0  0  0  0
   25.9688  -20.0006   -9.7394 C   0  0  0  0  0  0  0  0  0  0  0  0
   26.2824  -20.3984   -8.0198 S   0  0  0  0  0  0  0  0  0  0  0  0
   23.7056  -20.7639  -10.2898 C   0  0  0  0  0  0  0  0  0  0  0  0
   22.9727  -21.3659   -9.2886 O   0  0  0  0  0  0  0  0  0  0  0  0
   23.1414  -19.9652  -11.0696 O   0  0  0  0  0  0  0  0  0  0  0  0
  2  1  1  1
  2 10  1  0
  3  2  1  0
  4  3  1  0
  5  4  2  0
  6  5  1  0
  7  8  1  0
  7  6  2  0
  8  9  2  0
  9  4  1  0
 10 14  1  0
 10 11  2  0
 13 12  1  1
 14 13  1  0
 15 13  1  0
 15 17  1  0
 16 15  2  0
 18 17  1  0
 18 21  1  0
 18 19  1  1
 19 20  1  0
 21 22  1  0
 23 21  2  0
M  END
$$$$
