FAC.pdb
     RDKit          3D

 23 23  0  0  1  0  0  0  0  0999 V2000
   27.3932  -28.8845  -17.5539 N   0  0  0  0  0  0  0  0  0  0  0  0
   27.5117  -30.3045  -17.6149 C   0  0  1  0  0  0  0  0  0  0  0  0
   28.9892  -30.6530  -17.3932 C   0  0  0  0  0  0  0  0  0  0  0  0
   29.7085  -30.2837  -18.6398 C   0  0  0  0  0  0  0  0  0  0  0  0
   30.6101  -29.2158  -18.6548 C   0  0  0  0  0  0  0  0  0  0  0  0
   31.2869  -28.8531  -19.7886 C   0  0  0  0  0  0  0  0  0  0  0  0
   31.0881  -29.5472  -20.9586 C   0  0  0  0  0  0  0  0  0  0  0  0
   30.2047  -30.6130  -20.9938 C   0  0  0  0  0  0  0  0  0  0  0  0
   29.5303  -30.9606  -19.8286 C   0  0  0  0  0  0  0  0  0  0  0  0
   26.6854  -30.9768  -16.5494 C   0  0  0  0  0  0  0  0  0  0  0  0
   26.5093  -30.4784  -15.4297 O   0  0  0  0  0  0  0  0  0  0  0  0
   24.4368  -33.9333  -16.6242 C   0  0  0  0  0  0  0  0  0  0  0  0
   25.3115  -32.9335  -15.8871 C   0  0  2  0  0  0  0  0  0  0  0  0
   26.0953  -32.2193  -16.8489 N   0  0  0  0  0  0  0  0  0  0  0  0
   26.1351  -33.6907  -14.9074 C   0  0  0  0  0  0  0  0  0  0  0  0
   27.3768  -33.6051  -14.8330 O   0  0  0  0  0  0  0  0  0  0  0  0
   25.4592  -34.5527  -14.0162 N   0  0  0  0  0  0  0  0  0  0  0  0
   25.7464  -34.6426  -12.6016 C   0  0  1  0  0  0  0  0  0  0  0  0
   25.4063  -33.3197  -11.9479 C   0  0  0  0  0  0  0  0  0  0  0  0
   26.8564  -32.3063  -11.6588 S   0  0  0  0  0  0  0  0  0  0  0  0
   24.9156  -35.7199  -12.0256 C   0  0  0  0  0  0  0  0  0  0  0  0
   25.2685  -36.2999  -10.8252 O   0  0  0  0  0  0  0  0  0  0  0  0
   23.8882  -36.1136  -12.6204 O   0  0  0  0  0  0  0  0  0  0  0  0
  2  1  1  1
  2 10  1  0
  3  2  1  0
  4  3  1  0
  5  4  2  0
  6  5  1  0
  7  8  1  0
  7  6  2  0
  8  9  2  0
  9  4  1  0
 10 14  1  0
 10 11  2  0
 13 12  1  6
 14 13  1  0
 15 13  1  0
 15 17  1  0
 16 15  2  0
 18 17  1  0
 18 21  1  0
 18 19  1  1
 19 20  1  0
 21 22  1  0
 23 21  2  0
M  END
$$$$
