FAC.pdb
     RDKit          3D

 23 23  0  0  1  0  0  0  0  0999 V2000
   23.3452  -21.7321  -14.8656 N   0  0  0  0  0  0  0  0  0  0  0  0
   23.9150  -20.6623  -14.1139 C   0  0  1  0  0  0  0  0  0  0  0  0
   22.7591  -19.7950  -13.5987 C   0  0  0  0  0  0  0  0  0  0  0  0
   22.1454  -19.1483  -14.7874 C   0  0  0  0  0  0  0  0  0  0  0  0
   22.7929  -18.0976  -15.4432 C   0  0  0  0  0  0  0  0  0  0  0  0
   22.2512  -17.4831  -16.5405 C   0  0  0  0  0  0  0  0  0  0  0  0
   21.0342  -17.8970  -17.0284 C   0  0  0  0  0  0  0  0  0  0  0  0
   20.3542  -18.9343  -16.4127 C   0  0  0  0  0  0  0  0  0  0  0  0
   20.9264  -19.5411  -15.3002 C   0  0  0  0  0  0  0  0  0  0  0  0
   24.7070  -21.1707  -12.9374 C   0  0  0  0  0  0  0  0  0  0  0  0
   24.1833  -21.7790  -11.9948 O   0  0  0  0  0  0  0  0  0  0  0  0
   28.3328  -20.8509  -12.0672 C   0  0  0  0  0  0  0  0  0  0  0  0
   26.8788  -21.1435  -11.7383 C   0  0  2  0  0  0  0  0  0  0  0  0
   26.0956  -20.9398  -12.9193 N   0  0  0  0  0  0  0  0  0  0  0  0
   26.4829  -20.2549  -10.6134 C   0  0  0  0  0  0  0  0  0  0  0  0
   26.1022  -19.0769  -10.7616 O   0  0  0  0  0  0  0  0  0  0  0  0
   26.5467  -20.7889   -9.3077 N   0  0  0  0  0  0  0  0  0  0  0  0
   26.2469  -20.0368   -8.1093 C   0  0  1  0  0  0  0  0  0  0  0  0
   25.2143  -20.7943   -7.3013 C   0  0  0  0  0  0  0  0  0  0  0  0
   25.9470  -22.0732   -6.2809 S   0  0  0  0  0  0  0  0  0  0  0  0
   27.4922  -19.8900   -7.3282 C   0  0  0  0  0  0  0  0  0  0  0  0
   27.5564  -18.9836   -6.2907 O   0  0  0  0  0  0  0  0  0  0  0  0
   28.4960  -20.5847   -7.6008 O   0  0  0  0  0  0  0  0  0  0  0  0
  2  1  1  1
  2 10  1  0
  3  2  1  0
  4  3  1  0
  5  4  2  0
  6  5  1  0
  7  8  1  0
  7  6  2  0
  8  9  2  0
  9  4  1  0
 10 14  1  0
 10 11  2  0
 13 12  1  6
 14 13  1  0
 15 13  1  0
 15 17  1  0
 16 15  2  0
 18 17  1  0
 18 21  1  0
 18 19  1  1
 19 20  1  0
 21 22  1  0
 23 21  2  0
M  END
$$$$
