FAC.pdb
     RDKit          3D

 23 23  0  0  1  0  0  0  0  0999 V2000
   28.7855  -27.7979  -16.3799 N   0  0  0  0  0  0  0  0  0  0  0  0
   28.7866  -26.5869  -17.1333 C   0  0  1  0  0  0  0  0  0  0  0  0
   27.9604  -26.8334  -18.4022 C   0  0  0  0  0  0  0  0  0  0  0  0
   28.8622  -27.4972  -19.3788 C   0  0  0  0  0  0  0  0  0  0  0  0
   28.7225  -28.8570  -19.6706 C   0  0  0  0  0  0  0  0  0  0  0  0
   29.5390  -29.4949  -20.5659 C   0  0  0  0  0  0  0  0  0  0  0  0
   30.5327  -28.7950  -21.2085 C   0  0  0  0  0  0  0  0  0  0  0  0
   30.7105  -27.4457  -20.9527 C   0  0  0  0  0  0  0  0  0  0  0  0
   29.8679  -26.8222  -20.0392 C   0  0  0  0  0  0  0  0  0  0  0  0
   28.1682  -25.4513  -16.3599 C   0  0  0  0  0  0  0  0  0  0  0  0
   27.4715  -25.6330  -15.3527 O   0  0  0  0  0  0  0  0  0  0  0  0
   28.4763  -21.7439  -16.7269 C   0  0  0  0  0  0  0  0  0  0  0  0
   27.8936  -22.9993  -16.1004 C   0  0  2  0  0  0  0  0  0  0  0  0
   28.3978  -24.1369  -16.8085 N   0  0  0  0  0  0  0  0  0  0  0  0
   26.4119  -22.8854  -16.1558 C   0  0  0  0  0  0  0  0  0  0  0  0
   25.7050  -23.4485  -17.0147 O   0  0  0  0  0  0  0  0  0  0  0  0
   25.7823  -22.0905  -15.1730 N   0  0  0  0  0  0  0  0  0  0  0  0
   24.3568  -21.8538  -15.1135 C   0  0  1  0  0  0  0  0  0  0  0  0
   24.0198  -21.2271  -13.7769 C   0  0  0  0  0  0  0  0  0  0  0  0
   22.2674  -20.8939  -13.5993 S   0  0  0  0  0  0  0  0  0  0  0  0
   23.9916  -20.9338  -16.2101 C   0  0  0  0  0  0  0  0  0  0  0  0
   22.8202  -21.1239  -16.9127 O   0  0  0  0  0  0  0  0  0  0  0  0
   24.7399  -19.9773  -16.5096 O   0  0  0  0  0  0  0  0  0  0  0  0
  2  1  1  1
  2 10  1  0
  3  2  1  0
  4  3  1  0
  5  4  2  0
  6  5  1  0
  7  8  1  0
  7  6  2  0
  8  9  2  0
  9  4  1  0
 10 14  1  0
 10 11  2  0
 13 12  1  6
 14 13  1  0
 15 13  1  0
 15 17  1  0
 16 15  2  0
 18 17  1  0
 18 21  1  0
 18 19  1  1
 19 20  1  0
 21 22  1  0
 23 21  2  0
M  END
$$$$
