FAC.pdb
     RDKit          3D

 23 23  0  0  1  0  0  0  0  0999 V2000
   24.5164  -19.6357  -10.1088 N   0  0  0  0  0  0  0  0  0  0  0  0
   25.6712  -20.0226  -10.8511 C   0  0  1  0  0  0  0  0  0  0  0  0
   26.2550  -21.2709  -10.1768 C   0  0  0  0  0  0  0  0  0  0  0  0
   26.9462  -20.8093   -8.9452 C   0  0  0  0  0  0  0  0  0  0  0  0
   26.2180  -20.4729   -7.8007 C   0  0  0  0  0  0  0  0  0  0  0  0
   26.8281  -20.0447   -6.6519 C   0  0  0  0  0  0  0  0  0  0  0  0
   28.1976  -19.9352   -6.6016 C   0  0  0  0  0  0  0  0  0  0  0  0
   28.9625  -20.2570   -7.7102 C   0  0  0  0  0  0  0  0  0  0  0  0
   28.3181  -20.6892   -8.8640 C   0  0  0  0  0  0  0  0  0  0  0  0
   25.3273  -20.3542  -12.2800 C   0  0  0  0  0  0  0  0  0  0  0  0
   24.1713  -20.6051  -12.6458 O   0  0  0  0  0  0  0  0  0  0  0  0
   27.4368  -19.9658  -15.3319 C   0  0  0  0  0  0  0  0  0  0  0  0
   26.1156  -20.2268  -14.6290 C   0  0  2  0  0  0  0  0  0  0  0  0
   26.3680  -20.3769  -13.2277 N   0  0  0  0  0  0  0  0  0  0  0  0
   25.5069  -21.4350  -15.2464 C   0  0  0  0  0  0  0  0  0  0  0  0
   25.2707  -21.5462  -16.4656 O   0  0  0  0  0  0  0  0  0  0  0  0
   25.1826  -22.5108  -14.3910 N   0  0  0  0  0  0  0  0  0  0  0  0
   24.4997  -23.7108  -14.8215 C   0  0  1  0  0  0  0  0  0  0  0  0
   24.5956  -24.7493  -13.7236 C   0  0  0  0  0  0  0  0  0  0  0  0
   23.6608  -26.2318  -14.1002 S   0  0  0  0  0  0  0  0  0  0  0  0
   23.0842  -23.3744  -15.0774 C   0  0  0  0  0  0  0  0  0  0  0  0
   22.3762  -22.6186  -14.1666 O   0  0  0  0  0  0  0  0  0  0  0  0
   22.5177  -23.7712  -16.1195 O   0  0  0  0  0  0  0  0  0  0  0  0
  2  1  1  1
  2 10  1  0
  3  2  1  0
  4  3  1  0
  5  4  2  0
  6  5  1  0
  7  8  1  0
  7  6  2  0
  8  9  2  0
  9  4  1  0
 10 14  1  0
 10 11  2  0
 13 12  1  6
 14 13  1  0
 15 13  1  0
 15 17  1  0
 16 15  2  0
 18 17  1  0
 18 21  1  0
 18 19  1  1
 19 20  1  0
 21 22  1  0
 23 21  2  0
M  END
$$$$
