FAC.pdb
     RDKit          3D

 23 23  0  0  1  0  0  0  0  0999 V2000
   18.3901  -11.3864  -18.4305 N   0  0  0  0  0  0  0  0  0  0  0  0
   18.8204  -11.2075  -17.0825 C   0  0  1  0  0  0  0  0  0  0  0  0
   20.1985  -11.8682  -16.9477 C   0  0  0  0  0  0  0  0  0  0  0  0
   19.9919  -13.3296  -17.1185 C   0  0  0  0  0  0  0  0  0  0  0  0
   19.5895  -14.1249  -16.0419 C   0  0  0  0  0  0  0  0  0  0  0  0
   19.3915  -15.4738  -16.1700 C   0  0  0  0  0  0  0  0  0  0  0  0
   19.5888  -16.0844  -17.3859 C   0  0  0  0  0  0  0  0  0  0  0  0
   19.9877  -15.3385  -18.4823 C   0  0  0  0  0  0  0  0  0  0  0  0
   20.1817  -13.9707  -18.3252 C   0  0  0  0  0  0  0  0  0  0  0  0
   18.9408   -9.7483  -16.7272 C   0  0  0  0  0  0  0  0  0  0  0  0
   19.5405   -8.9357  -17.4434 O   0  0  0  0  0  0  0  0  0  0  0  0
   17.4628   -7.7232  -13.9614 C   0  0  0  0  0  0  0  0  0  0  0  0
   18.4378   -7.9386  -15.1064 C   0  0  2  0  0  0  0  0  0  0  0  0
   18.3446   -9.3021  -15.5326 N   0  0  0  0  0  0  0  0  0  0  0  0
   19.7937   -7.5691  -14.6201 C   0  0  0  0  0  0  0  0  0  0  0  0
   20.7040   -8.3951  -14.4111 O   0  0  0  0  0  0  0  0  0  0  0  0
   20.0514   -6.2007  -14.3855 N   0  0  0  0  0  0  0  0  0  0  0  0
   21.3599   -5.6623  -14.0863 C   0  0  1  0  0  0  0  0  0  0  0  0
   22.3054   -6.0179  -15.2144 C   0  0  0  0  0  0  0  0  0  0  0  0
   23.8723   -5.1557  -15.0918 S   0  0  0  0  0  0  0  0  0  0  0  0
   21.2433   -4.1944  -13.9677 C   0  0  0  0  0  0  0  0  0  0  0  0
   22.0005   -3.5122  -13.0386 O   0  0  0  0  0  0  0  0  0  0  0  0
   20.4588   -3.5600  -14.7069 O   0  0  0  0  0  0  0  0  0  0  0  0
  2  1  1  6
  2 10  1  0
  3  2  1  0
  4  3  1  0
  5  4  2  0
  6  5  1  0
  7  8  1  0
  7  6  2  0
  8  9  2  0
  9  4  1  0
 10 14  1  0
 10 11  2  0
 13 12  1  1
 14 13  1  0
 15 13  1  0
 15 17  1  0
 16 15  2  0
 18 17  1  0
 18 21  1  0
 18 19  1  6
 19 20  1  0
 21 22  1  0
 23 21  2  0
M  END
$$$$
