FAC.pdb
     RDKit          3D

 23 23  0  0  1  0  0  0  0  0999 V2000
   21.2390  -10.6116  -20.3108 N   0  0  0  0  0  0  0  0  0  0  0  0
   22.4377  -10.3165  -19.5964 C   0  0  1  0  0  0  0  0  0  0  0  0
   23.2212   -9.2849  -20.4184 C   0  0  0  0  0  0  0  0  0  0  0  0
   23.7052   -9.9851  -21.6362 C   0  0  0  0  0  0  0  0  0  0  0  0
   24.6129  -11.0434  -21.5387 C   0  0  0  0  0  0  0  0  0  0  0  0
   25.0758  -11.7068  -22.6436 C   0  0  0  0  0  0  0  0  0  0  0  0
   24.6474  -11.3365  -23.8964 C   0  0  0  0  0  0  0  0  0  0  0  0
   23.7483  -10.2937  -24.0443 C   0  0  0  0  0  0  0  0  0  0  0  0
   23.2939   -9.6368  -22.9061 C   0  0  0  0  0  0  0  0  0  0  0  0
   22.1452   -9.7381  -18.2363 C   0  0  0  0  0  0  0  0  0  0  0  0
   21.1863   -8.9837  -18.0255 O   0  0  0  0  0  0  0  0  0  0  0  0
   23.8531  -10.1495  -14.9331 C   0  0  0  0  0  0  0  0  0  0  0  0
   22.8464   -9.5017  -15.8683 C   0  0  2  0  0  0  0  0  0  0  0  0
   23.0015  -10.0749  -17.1710 N   0  0  0  0  0  0  0  0  0  0  0  0
   23.0859   -8.0342  -15.8426 C   0  0  0  0  0  0  0  0  0  0  0  0
   23.8170   -7.4368  -16.6571 O   0  0  0  0  0  0  0  0  0  0  0  0
   22.4422   -7.2864  -14.8324 N   0  0  0  0  0  0  0  0  0  0  0  0
   22.5211   -5.8471  -14.7150 C   0  0  1  0  0  0  0  0  0  0  0  0
   21.9162   -5.2208  -15.9539 C   0  0  0  0  0  0  0  0  0  0  0  0
   21.6626   -3.4553  -15.7743 S   0  0  0  0  0  0  0  0  0  0  0  0
   21.7605   -5.4355  -13.5173 C   0  0  0  0  0  0  0  0  0  0  0  0
   22.1651   -4.3409  -12.7822 O   0  0  0  0  0  0  0  0  0  0  0  0
   20.7462   -6.0746  -13.1610 O   0  0  0  0  0  0  0  0  0  0  0  0
  2  1  1  6
  2 10  1  0
  3  2  1  0
  4  3  1  0
  5  4  2  0
  6  5  1  0
  7  8  1  0
  7  6  2  0
  8  9  2  0
  9  4  1  0
 10 14  1  0
 10 11  2  0
 13 12  1  1
 14 13  1  0
 15 13  1  0
 15 17  1  0
 16 15  2  0
 18 17  1  0
 18 21  1  0
 18 19  1  6
 19 20  1  0
 21 22  1  0
 23 21  2  0
M  END
$$$$
