FAC.pdb
     RDKit          3D

 23 23  0  0  1  0  0  0  0  0999 V2000
   25.3012  -19.2936   -7.7236 N   0  0  0  0  0  0  0  0  0  0  0  0
   26.3915  -19.7121   -8.5422 C   0  0  1  0  0  0  0  0  0  0  0  0
   26.9805  -20.9805   -7.9113 C   0  0  0  0  0  0  0  0  0  0  0  0
   27.7658  -20.5456   -6.7273 C   0  0  0  0  0  0  0  0  0  0  0  0
   27.1699  -20.4627   -5.4658 C   0  0  0  0  0  0  0  0  0  0  0  0
   27.8689  -20.0651   -4.3575 C   0  0  0  0  0  0  0  0  0  0  0  0
   29.1985  -19.7328   -4.4669 C   0  0  0  0  0  0  0  0  0  0  0  0
   29.8334  -19.7991   -5.6958 C   0  0  0  0  0  0  0  0  0  0  0  0
   29.1007  -20.2059   -6.8053 C   0  0  0  0  0  0  0  0  0  0  0  0
   25.9432  -20.0269   -9.9457 C   0  0  0  0  0  0  0  0  0  0  0  0
   24.7927  -20.4010  -10.2092 O   0  0  0  0  0  0  0  0  0  0  0  0
   27.7176  -19.9694  -13.2319 C   0  0  0  0  0  0  0  0  0  0  0  0
   26.4741  -19.8742  -12.3644 C   0  0  2  0  0  0  0  0  0  0  0  0
   26.8763  -19.8868  -10.9904 N   0  0  0  0  0  0  0  0  0  0  0  0
   25.5849  -21.0106  -12.7240 C   0  0  0  0  0  0  0  0  0  0  0  0
   25.8315  -22.1999  -12.4420 O   0  0  0  0  0  0  0  0  0  0  0  0
   24.3961  -20.7113  -13.4250 N   0  0  0  0  0  0  0  0  0  0  0  0
   23.4378  -21.7049  -13.8562 C   0  0  1  0  0  0  0  0  0  0  0  0
   22.0527  -21.2674  -13.4285 C   0  0  0  0  0  0  0  0  0  0  0  0
   21.8564  -21.2617  -11.6467 S   0  0  0  0  0  0  0  0  0  0  0  0
   23.5039  -21.8071  -15.3285 C   0  0  0  0  0  0  0  0  0  0  0  0
   23.0300  -22.9342  -15.9665 O   0  0  0  0  0  0  0  0  0  0  0  0
   23.9889  -20.8747  -16.0066 O   0  0  0  0  0  0  0  0  0  0  0  0
  2  1  1  1
  2 10  1  0
  3  2  1  0
  4  3  1  0
  5  4  2  0
  6  5  1  0
  7  8  1  0
  7  6  2  0
  8  9  2  0
  9  4  1  0
 10 14  1  0
 10 11  2  0
 13 12  1  6
 14 13  1  0
 15 13  1  0
 15 17  1  0
 16 15  2  0
 18 17  1  0
 18 21  1  0
 18 19  1  6
 19 20  1  0
 21 22  1  0
 23 21  2  0
M  END
$$$$
