EGV.pdb
     RDKit          3D

 21 20  0  0  1  0  0  0  0  0999 V2000
    9.6158  -18.6531   19.4698 N   0  0  0  0  0  0  0  0  0  0  0  0
    9.7697  -18.2948   20.8621 C   0  0  1  0  0  0  0  0  0  0  0  0
   11.1897  -18.1159   21.2734 C   0  0  0  0  0  0  0  0  0  0  0  0
   11.9165  -17.0190   20.5813 C   0  0  0  0  0  0  0  0  0  0  0  0
   13.3723  -16.9679   20.8507 C   0  0  0  0  0  0  0  0  0  0  0  0
   14.0101  -18.0219   21.1663 O   0  0  0  0  0  0  0  0  0  0  0  0
    9.0598  -16.9851   21.0662 C   0  0  0  0  0  0  0  0  0  0  0  0
    8.1882  -16.5828   20.2553 O   0  0  0  0  0  0  0  0  0  0  0  0
   14.1474  -15.8199   20.7878 O   0  0  0  0  0  0  0  0  0  0  0  0
    9.3516  -16.1580   22.1845 N   0  0  0  0  0  0  0  0  0  0  0  0
    8.4571  -15.0852   22.6078 C   0  0  0  0  0  0  0  0  0  0  0  0
    8.4594  -14.9828   24.0922 C   0  0  0  0  0  0  0  0  0  0  0  0
    9.1518  -15.8177   24.7670 O   0  0  0  0  0  0  0  0  0  0  0  0
    7.7495  -11.3838   26.1691 C   0  0  0  0  0  0  0  0  0  0  0  0
    7.0768  -12.6318   26.6857 C   0  0  1  0  0  0  0  0  0  0  0  0
    5.6077  -12.6811   26.3879 C   0  0  0  0  0  0  0  0  0  0  0  0
    7.8220  -13.8562   26.2010 C   0  0  2  0  0  0  0  0  0  0  0  0
    7.7142  -13.9859   24.7508 N   0  0  0  0  0  0  0  0  0  0  0  0
    7.2441  -15.0324   26.8699 C   0  0  0  0  0  0  0  0  0  0  0  0
    6.2582  -15.6076   26.3533 O   0  0  0  0  0  0  0  0  0  0  0  0
    7.7726  -15.5043   28.0507 O   0  0  0  0  0  0  0  0  0  0  0  0
  2  1  1  6
  3  2  1  0
  4  5  1  0
  4  3  1  0
  5  6  2  0
  7  2  1  0
  8  7  2  0
  9  5  1  0
 10  7  1  0
 11 12  1  0
 11 10  1  0
 12 18  1  0
 13 12  2  0
 15 14  1  6
 15 16  1  0
 17 18  1  6
 17 15  1  0
 19 17  1  0
 20 19  2  0
 21 19  1  0
M  END
$$$$
