EGV.pdb
     RDKit          3D

 21 20  0  0  1  0  0  0  0  0999 V2000
    9.6547  -19.1018   21.3661 N   0  0  0  0  0  0  0  0  0  0  0  0
    9.8759  -17.8507   20.6758 C   0  0  1  0  0  0  0  0  0  0  0  0
    9.5373  -17.9066   19.2268 C   0  0  0  0  0  0  0  0  0  0  0  0
   10.3464  -18.8608   18.4234 C   0  0  0  0  0  0  0  0  0  0  0  0
   11.5440  -18.2742   17.7781 C   0  0  0  0  0  0  0  0  0  0  0  0
   12.7068  -18.5070   18.2374 O   0  0  0  0  0  0  0  0  0  0  0  0
    8.9868  -16.8232   21.3199 C   0  0  0  0  0  0  0  0  0  0  0  0
    8.9466  -15.6400   20.8986 O   0  0  0  0  0  0  0  0  0  0  0  0
   11.5169  -17.4527   16.6615 O   0  0  0  0  0  0  0  0  0  0  0  0
    8.1616  -17.1570   22.4277 N   0  0  0  0  0  0  0  0  0  0  0  0
    7.1683  -16.2295   22.9598 C   0  0  0  0  0  0  0  0  0  0  0  0
    7.8130  -15.2997   23.9262 C   0  0  0  0  0  0  0  0  0  0  0  0
    9.0489  -15.4606   24.2062 O   0  0  0  0  0  0  0  0  0  0  0  0
    5.5340  -12.7939   26.4594 C   0  0  0  0  0  0  0  0  0  0  0  0
    6.8328  -12.2558   25.9112 C   0  0  1  0  0  0  0  0  0  0  0  0
    7.5002  -11.2710   26.8245 C   0  0  0  0  0  0  0  0  0  0  0  0
    7.7367  -13.4017   25.5118 C   0  0  2  0  0  0  0  0  0  0  0  0
    7.0812  -14.2574   24.5271 N   0  0  0  0  0  0  0  0  0  0  0  0
    8.0624  -14.1660   26.7260 C   0  0  0  0  0  0  0  0  0  0  0  0
    7.3644  -15.1614   27.0286 O   0  0  0  0  0  0  0  0  0  0  0  0
    9.1203  -13.8006   27.5284 O   0  0  0  0  0  0  0  0  0  0  0  0
  2  1  1  1
  3  2  1  0
  4  5  1  0
  4  3  1  0
  5  6  2  0
  7  2  1  0
  8  7  2  0
  9  5  1  0
 10  7  1  0
 11 12  1  0
 11 10  1  0
 12 18  1  0
 13 12  2  0
 15 14  1  1
 15 16  1  0
 17 18  1  6
 17 15  1  0
 19 17  1  0
 20 19  2  0
 21 19  1  0
M  END
$$$$
