EGV.pdb
     RDKit          3D

 21 20  0  0  1  0  0  0  0  0999 V2000
   11.0843  -16.0080   22.8611 N   0  0  0  0  0  0  0  0  0  0  0  0
   10.8655  -16.0087   21.4318 C   0  0  1  0  0  0  0  0  0  0  0  0
   10.9658  -17.3620   20.8188 C   0  0  0  0  0  0  0  0  0  0  0  0
   12.3089  -17.9949   20.8965 C   0  0  0  0  0  0  0  0  0  0  0  0
   12.3979  -19.3458   20.2949 C   0  0  0  0  0  0  0  0  0  0  0  0
   13.5153  -19.9482   20.2179 O   0  0  0  0  0  0  0  0  0  0  0  0
    9.4726  -15.4946   21.1941 C   0  0  0  0  0  0  0  0  0  0  0  0
    9.0249  -15.3394   20.0302 O   0  0  0  0  0  0  0  0  0  0  0  0
   11.3224  -20.0539   19.7810 O   0  0  0  0  0  0  0  0  0  0  0  0
    8.6156  -15.1669   22.2793 N   0  0  0  0  0  0  0  0  0  0  0  0
    7.1717  -15.3693   22.2133 C   0  0  0  0  0  0  0  0  0  0  0  0
    6.5295  -14.8252   23.4404 C   0  0  0  0  0  0  0  0  0  0  0  0
    5.2609  -14.9108   23.5623 O   0  0  0  0  0  0  0  0  0  0  0  0
    7.6142  -15.9978   26.7584 C   0  0  0  0  0  0  0  0  0  0  0  0
    7.5218  -14.4963   26.8760 C   0  0  1  0  0  0  0  0  0  0  0  0
    8.8584  -13.8267   26.9961 C   0  0  0  0  0  0  0  0  0  0  0  0
    6.6799  -13.9427   25.7472 C   0  0  2  0  0  0  0  0  0  0  0  0
    7.2990  -14.2243   24.4552 N   0  0  0  0  0  0  0  0  0  0  0  0
    6.5463  -12.4918   25.9513 C   0  0  0  0  0  0  0  0  0  0  0  0
    7.1844  -11.7080   25.2111 O   0  0  0  0  0  0  0  0  0  0  0  0
    5.7318  -11.9898   26.9419 O   0  0  0  0  0  0  0  0  0  0  0  0
  2  1  1  1
  3  2  1  0
  4  5  1  0
  4  3  1  0
  5  6  2  0
  7  2  1  0
  8  7  2  0
  9  5  1  0
 10  7  1  0
 11 12  1  0
 11 10  1  0
 12 18  1  0
 13 12  2  0
 15 14  1  6
 15 16  1  0
 17 18  1  6
 17 15  1  0
 19 17  1  0
 20 19  2  0
 21 19  1  0
M  END
$$$$
