EGV.pdb
     RDKit          3D

 21 20  0  0  1  0  0  0  0  0999 V2000
   10.0911  -18.0405   21.1806 N   0  0  0  0  0  0  0  0  0  0  0  0
    9.3552  -17.0698   20.4014 C   0  0  1  0  0  0  0  0  0  0  0  0
    8.6362  -17.6651   19.2413 C   0  0  0  0  0  0  0  0  0  0  0  0
    8.8560  -19.1215   19.0390 C   0  0  0  0  0  0  0  0  0  0  0  0
    8.9798  -19.5433   17.6242 C   0  0  0  0  0  0  0  0  0  0  0  0
    8.9550  -18.6836   16.6875 O   0  0  0  0  0  0  0  0  0  0  0  0
    8.3319  -16.4506   21.3125 C   0  0  0  0  0  0  0  0  0  0  0  0
    7.6845  -17.1469   22.1343 O   0  0  0  0  0  0  0  0  0  0  0  0
    9.1287  -20.8554   17.2014 O   0  0  0  0  0  0  0  0  0  0  0  0
    8.0628  -15.0557   21.2743 N   0  0  0  0  0  0  0  0  0  0  0  0
    7.1208  -14.4239   22.1928 C   0  0  0  0  0  0  0  0  0  0  0  0
    7.7915  -14.1472   23.4919 C   0  0  0  0  0  0  0  0  0  0  0  0
    9.0134  -14.4889   23.6403 O   0  0  0  0  0  0  0  0  0  0  0  0
    7.2329  -10.7640   25.7225 C   0  0  0  0  0  0  0  0  0  0  0  0
    7.1149  -12.0509   26.5014 C   0  0  1  0  0  0  0  0  0  0  0  0
    5.7024  -12.3941   26.8707 C   0  0  0  0  0  0  0  0  0  0  0  0
    7.8229  -13.1659   25.7632 C   0  0  2  0  0  0  0  0  0  0  0  0
    7.0992  -13.5200   24.5456 N   0  0  0  0  0  0  0  0  0  0  0  0
    7.9113  -14.3231   26.6674 C   0  0  0  0  0  0  0  0  0  0  0  0
    7.1314  -15.2897   26.5029 O   0  0  0  0  0  0  0  0  0  0  0  0
    8.8370  -14.3543   27.6865 O   0  0  0  0  0  0  0  0  0  0  0  0
  2  1  1  1
  3  2  1  0
  4  5  1  0
  4  3  1  0
  5  6  2  0
  7  2  1  0
  8  7  2  0
  9  5  1  0
 10  7  1  0
 11 12  1  0
 11 10  1  0
 12 18  1  0
 13 12  2  0
 15 14  1  6
 15 16  1  0
 17 18  1  6
 17 15  1  0
 19 17  1  0
 20 19  2  0
 21 19  1  0
M  END
$$$$
