EGV.pdb
     RDKit          3D

 21 20  0  0  1  0  0  0  0  0999 V2000
   10.2195  -17.2251   20.3979 N   0  0  0  0  0  0  0  0  0  0  0  0
    9.4462  -16.2885   19.6134 C   0  0  1  0  0  0  0  0  0  0  0  0
    8.6902  -16.9301   18.5024 C   0  0  0  0  0  0  0  0  0  0  0  0
    9.1598  -18.2872   18.1173 C   0  0  0  0  0  0  0  0  0  0  0  0
    8.3398  -18.9612   17.0838 C   0  0  0  0  0  0  0  0  0  0  0  0
    7.3908  -18.3432   16.5051 O   0  0  0  0  0  0  0  0  0  0  0  0
    8.4516  -15.6458   20.5400 C   0  0  0  0  0  0  0  0  0  0  0  0
    7.6682  -14.7502   20.1356 O   0  0  0  0  0  0  0  0  0  0  0  0
    8.5180  -20.2707   16.6644 O   0  0  0  0  0  0  0  0  0  0  0  0
    8.3645  -16.0307   21.9052 N   0  0  0  0  0  0  0  0  0  0  0  0
    7.3669  -15.4635   22.8069 C   0  0  0  0  0  0  0  0  0  0  0  0
    8.0438  -14.7784   23.9412 C   0  0  0  0  0  0  0  0  0  0  0  0
    9.3187  -14.8138   24.0109 O   0  0  0  0  0  0  0  0  0  0  0  0
    7.0488  -11.2162   25.6468 C   0  0  0  0  0  0  0  0  0  0  0  0
    7.1655  -12.3527   26.6324 C   0  0  1  0  0  0  0  0  0  0  0  0
    5.8409  -12.8257   27.1529 C   0  0  0  0  0  0  0  0  0  0  0  0
    8.0012  -13.4654   26.0381 C   0  0  2  0  0  0  0  0  0  0  0  0
    7.2999  -14.1003   24.9260 N   0  0  0  0  0  0  0  0  0  0  0  0
    8.2758  -14.4434   27.1023 C   0  0  0  0  0  0  0  0  0  0  0  0
    7.6883  -15.5498   27.0836 O   0  0  0  0  0  0  0  0  0  0  0  0
    9.1667  -14.1567   28.1125 O   0  0  0  0  0  0  0  0  0  0  0  0
  2  1  1  1
  3  2  1  0
  4  5  1  0
  4  3  1  0
  5  6  2  0
  7  2  1  0
  8  7  2  0
  9  5  1  0
 10  7  1  0
 11 12  1  0
 11 10  1  0
 12 18  1  0
 13 12  2  0
 15 14  1  6
 15 16  1  0
 17 18  1  6
 17 15  1  0
 19 17  1  0
 20 19  2  0
 21 19  1  0
M  END
$$$$
