EGV.pdb
     RDKit          3D

 21 20  0  0  1  0  0  0  0  0999 V2000
   11.2775  -16.4819   22.6457 N   0  0  0  0  0  0  0  0  0  0  0  0
   10.5880  -16.3626   21.3803 C   0  0  1  0  0  0  0  0  0  0  0  0
   10.9525  -17.4276   20.4055 C   0  0  0  0  0  0  0  0  0  0  0  0
   12.2957  -18.0339   20.6021 C   0  0  0  0  0  0  0  0  0  0  0  0
   12.6554  -19.0848   19.6217 C   0  0  0  0  0  0  0  0  0  0  0  0
   12.7710  -20.2978   19.9856 O   0  0  0  0  0  0  0  0  0  0  0  0
    9.1156  -16.4771   21.6627 C   0  0  0  0  0  0  0  0  0  0  0  0
    8.3394  -17.0462   20.8548 O   0  0  0  0  0  0  0  0  0  0  0  0
   12.8901  -18.8604   18.2738 O   0  0  0  0  0  0  0  0  0  0  0  0
    8.5527  -15.9449   22.8541 N   0  0  0  0  0  0  0  0  0  0  0  0
    7.1251  -16.0359   23.1432 C   0  0  0  0  0  0  0  0  0  0  0  0
    6.8411  -15.4376   24.4756 C   0  0  0  0  0  0  0  0  0  0  0  0
    5.6484  -15.4830   24.9306 O   0  0  0  0  0  0  0  0  0  0  0  0
    8.4626  -13.3692   28.6540 C   0  0  0  0  0  0  0  0  0  0  0  0
    8.8116  -13.9476   27.3048 C   0  0  1  0  0  0  0  0  0  0  0  0
    9.7634  -15.1040   27.3827 C   0  0  0  0  0  0  0  0  0  0  0  0
    7.5462  -14.2709   26.5406 C   0  0  2  0  0  0  0  0  0  0  0  0
    7.8633  -14.8294   25.2294 N   0  0  0  0  0  0  0  0  0  0  0  0
    6.7720  -13.0278   26.3998 C   0  0  0  0  0  0  0  0  0  0  0  0
    6.8429  -12.3802   25.3297 O   0  0  0  0  0  0  0  0  0  0  0  0
    5.9752  -12.5716   27.4262 O   0  0  0  0  0  0  0  0  0  0  0  0
  2  1  1  1
  3  2  1  0
  4  5  1  0
  4  3  1  0
  5  6  2  0
  7  2  1  0
  8  7  2  0
  9  5  1  0
 10  7  1  0
 11 12  1  0
 11 10  1  0
 12 18  1  0
 13 12  2  0
 15 14  1  1
 15 16  1  0
 17 18  1  6
 17 15  1  0
 19 17  1  0
 20 19  2  0
 21 19  1  0
M  END
$$$$
