EGV.pdb
     RDKit          3D

 21 20  0  0  1  0  0  0  0  0999 V2000
    6.9303  -17.9676   21.2237 N   0  0  0  0  0  0  0  0  0  0  0  0
    7.3462  -19.0817   22.0462 C   0  0  1  0  0  0  0  0  0  0  0  0
    8.7349  -19.5392   21.7641 C   0  0  0  0  0  0  0  0  0  0  0  0
    9.6697  -18.4794   21.3022 C   0  0  0  0  0  0  0  0  0  0  0  0
   11.0366  -18.9505   20.9792 C   0  0  0  0  0  0  0  0  0  0  0  0
   11.9268  -18.1331   20.5832 O   0  0  0  0  0  0  0  0  0  0  0  0
    7.2910  -18.6238   23.4774 C   0  0  0  0  0  0  0  0  0  0  0  0
    7.4570  -19.4304   24.4266 O   0  0  0  0  0  0  0  0  0  0  0  0
   11.4610  -20.2671   21.0731 O   0  0  0  0  0  0  0  0  0  0  0  0
    7.0490  -17.2621   23.8040 N   0  0  0  0  0  0  0  0  0  0  0  0
    7.0210  -16.7909   25.1851 C   0  0  0  0  0  0  0  0  0  0  0  0
    8.3951  -16.4208   25.6197 C   0  0  0  0  0  0  0  0  0  0  0  0
    9.3556  -16.5258   24.7842 O   0  0  0  0  0  0  0  0  0  0  0  0
    9.2884  -13.1383   27.0816 C   0  0  0  0  0  0  0  0  0  0  0  0
    9.9229  -14.1662   27.9858 C   0  0  1  0  0  0  0  0  0  0  0  0
    9.2823  -14.2423   29.3397 C   0  0  0  0  0  0  0  0  0  0  0  0
    9.9828  -15.5041   27.2816 C   0  0  2  0  0  0  0  0  0  0  0  0
    8.6422  -15.9619   26.9279 N   0  0  0  0  0  0  0  0  0  0  0  0
   10.6350  -16.4635   28.1864 C   0  0  0  0  0  0  0  0  0  0  0  0
    9.9309  -17.2832   28.8204 O   0  0  0  0  0  0  0  0  0  0  0  0
   12.0032  -16.4693   28.3427 O   0  0  0  0  0  0  0  0  0  0  0  0
  2  1  1  6
  3  2  1  0
  4  5  1  0
  4  3  1  0
  5  6  2  0
  7  2  1  0
  8  7  2  0
  9  5  1  0
 10  7  1  0
 11 12  1  0
 11 10  1  0
 12 18  1  0
 13 12  2  0
 15 14  1  6
 15 16  1  0
 17 18  1  1
 17 15  1  0
 19 17  1  0
 20 19  2  0
 21 19  1  0
M  END
$$$$
