EGV.pdb
     RDKit          3D

 21 20  0  0  1  0  0  0  0  0999 V2000
    9.1380  -18.5051   20.5499 N   0  0  0  0  0  0  0  0  0  0  0  0
    8.7476  -17.2524   19.9423 C   0  0  1  0  0  0  0  0  0  0  0  0
    8.0306  -17.4209   18.6480 C   0  0  0  0  0  0  0  0  0  0  0  0
    8.7258  -18.2691   17.6443 C   0  0  0  0  0  0  0  0  0  0  0  0
    8.1171  -18.2634   16.2936 C   0  0  0  0  0  0  0  0  0  0  0  0
    8.6496  -17.6033   15.3460 O   0  0  0  0  0  0  0  0  0  0  0  0
    7.8168  -16.5631   20.9011 C   0  0  0  0  0  0  0  0  0  0  0  0
    6.8923  -17.1902   21.4766 O   0  0  0  0  0  0  0  0  0  0  0  0
    6.9614  -18.9456   15.9452 O   0  0  0  0  0  0  0  0  0  0  0  0
    7.9524  -15.1780   21.1887 N   0  0  0  0  0  0  0  0  0  0  0  0
    7.1016  -14.5033   22.1638 C   0  0  0  0  0  0  0  0  0  0  0  0
    7.8426  -14.3250   23.4418 C   0  0  0  0  0  0  0  0  0  0  0  0
    9.0969  -14.5653   23.4662 O   0  0  0  0  0  0  0  0  0  0  0  0
    7.6418  -11.1617   25.7402 C   0  0  0  0  0  0  0  0  0  0  0  0
    7.4000  -12.4163   26.5428 C   0  0  1  0  0  0  0  0  0  0  0  0
    5.9670  -12.5955   26.9475 C   0  0  0  0  0  0  0  0  0  0  0  0
    7.9634  -13.6134   25.8086 C   0  0  2  0  0  0  0  0  0  0  0  0
    7.1809  -13.8990   24.6096 N   0  0  0  0  0  0  0  0  0  0  0  0
    7.9386  -14.7616   26.7282 C   0  0  0  0  0  0  0  0  0  0  0  0
    7.0235  -15.6108   26.6228 O   0  0  0  0  0  0  0  0  0  0  0  0
    8.9050  -14.9114   27.6977 O   0  0  0  0  0  0  0  0  0  0  0  0
  2  1  1  1
  3  2  1  0
  4  5  1  0
  4  3  1  0
  5  6  2  0
  7  2  1  0
  8  7  2  0
  9  5  1  0
 10  7  1  0
 11 12  1  0
 11 10  1  0
 12 18  1  0
 13 12  2  0
 15 14  1  6
 15 16  1  0
 17 18  1  6
 17 15  1  0
 19 17  1  0
 20 19  2  0
 21 19  1  0
M  END
$$$$
