EGV.pdb
     RDKit          3D

 21 20  0  0  1  0  0  0  0  0999 V2000
    7.0350  -14.4724   22.9027 N   0  0  0  0  0  0  0  0  0  0  0  0
    7.1996  -15.6657   22.1028 C   0  0  1  0  0  0  0  0  0  0  0  0
    7.2260  -15.3971   20.6384 C   0  0  0  0  0  0  0  0  0  0  0  0
    7.9838  -14.1849   20.2301 C   0  0  0  0  0  0  0  0  0  0  0  0
    8.1122  -13.9928   18.7667 C   0  0  0  0  0  0  0  0  0  0  0  0
    7.1226  -13.5901   18.0770 O   0  0  0  0  0  0  0  0  0  0  0  0
    8.5176  -16.2800   22.4851 C   0  0  0  0  0  0  0  0  0  0  0  0
    8.9162  -17.3485   21.9572 O   0  0  0  0  0  0  0  0  0  0  0  0
    9.2699  -14.2215   18.0387 O   0  0  0  0  0  0  0  0  0  0  0  0
    9.3571  -15.6717   23.4570 N   0  0  0  0  0  0  0  0  0  0  0  0
   10.7388  -16.0956   23.6604 C   0  0  0  0  0  0  0  0  0  0  0  0
   11.0575  -16.0962   25.1138 C   0  0  0  0  0  0  0  0  0  0  0  0
   12.1679  -16.5946   25.5015 O   0  0  0  0  0  0  0  0  0  0  0  0
   10.4785  -12.8942   27.4782 C   0  0  0  0  0  0  0  0  0  0  0  0
    9.9063  -14.1680   28.0500 C   0  0  1  0  0  0  0  0  0  0  0  0
    8.4109  -14.2398   27.9603 C   0  0  0  0  0  0  0  0  0  0  0  0
   10.5960  -15.3647   27.4321 C   0  0  2  0  0  0  0  0  0  0  0  0
   10.1567  -15.5589   26.0533 N   0  0  0  0  0  0  0  0  0  0  0  0
   10.2733  -16.5451   28.2489 C   0  0  0  0  0  0  0  0  0  0  0  0
    9.4895  -17.4096   27.7928 O   0  0  0  0  0  0  0  0  0  0  0  0
   10.8206  -16.7082   29.5020 O   0  0  0  0  0  0  0  0  0  0  0  0
  2  1  1  1
  3  2  1  0
  4  5  1  0
  4  3  1  0
  5  6  2  0
  7  2  1  0
  8  7  2  0
  9  5  1  0
 10  7  1  0
 11 12  1  0
 11 10  1  0
 12 18  1  0
 13 12  2  0
 15 14  1  6
 15 16  1  0
 17 18  1  6
 17 15  1  0
 19 17  1  0
 20 19  2  0
 21 19  1  0
M  END
$$$$
