EGV.pdb
     RDKit          3D

 21 20  0  0  1  0  0  0  0  0999 V2000
   10.9862  -17.1302   20.3406 N   0  0  0  0  0  0  0  0  0  0  0  0
    9.9427  -18.1240   20.2211 C   0  0  1  0  0  0  0  0  0  0  0  0
   10.2936  -19.4284   20.8479 C   0  0  0  0  0  0  0  0  0  0  0  0
   11.3766  -19.3718   21.8649 C   0  0  0  0  0  0  0  0  0  0  0  0
   11.7481  -20.6792   22.4543 C   0  0  0  0  0  0  0  0  0  0  0  0
   11.9092  -20.8014   23.7098 O   0  0  0  0  0  0  0  0  0  0  0  0
    8.7296  -17.5830   20.9257 C   0  0  0  0  0  0  0  0  0  0  0  0
    7.5779  -18.0120   20.6632 O   0  0  0  0  0  0  0  0  0  0  0  0
   11.9469  -21.8444   21.7295 O   0  0  0  0  0  0  0  0  0  0  0  0
    8.8455  -16.5673   21.9129 N   0  0  0  0  0  0  0  0  0  0  0  0
    7.6999  -16.1144   22.6954 C   0  0  0  0  0  0  0  0  0  0  0  0
    8.1276  -15.0562   23.6500 C   0  0  0  0  0  0  0  0  0  0  0  0
    9.3760  -14.8385   23.8106 O   0  0  0  0  0  0  0  0  0  0  0  0
    5.4219  -13.1625   26.3992 C   0  0  0  0  0  0  0  0  0  0  0  0
    6.5081  -12.3719   25.7123 C   0  0  1  0  0  0  0  0  0  0  0  0
    6.9655  -11.1813   26.5015 C   0  0  0  0  0  0  0  0  0  0  0  0
    7.6419  -13.2921   25.3158 C   0  0  2  0  0  0  0  0  0  0  0  0
    7.1797  -14.3025   24.3686 N   0  0  0  0  0  0  0  0  0  0  0  0
    8.1586  -13.9270   26.5382 C   0  0  0  0  0  0  0  0  0  0  0  0
    7.7321  -15.0579   26.8680 O   0  0  0  0  0  0  0  0  0  0  0  0
    9.1004  -13.2946   27.3189 O   0  0  0  0  0  0  0  0  0  0  0  0
  2  1  1  1
  3  2  1  0
  4  5  1  0
  4  3  1  0
  5  6  2  0
  7  2  1  0
  8  7  2  0
  9  5  1  0
 10  7  1  0
 11 12  1  0
 11 10  1  0
 12 18  1  0
 13 12  2  0
 15 14  1  1
 15 16  1  0
 17 18  1  6
 17 15  1  0
 19 17  1  0
 20 19  2  0
 21 19  1  0
M  END
$$$$
