NNC.pdb
     RDKit          3D

 23 22  0  0  1  0  0  0  0  0999 V2000
    9.2405  -13.5640   17.7306 N   0  0  0  0  0  0  0  0  0  0  0  0
    7.8847  -13.4374   18.1251 C   0  0  0  0  0  0  0  0  0  0  0  0
    7.0795  -13.0671   17.2409 O   0  0  0  0  0  0  0  0  0  0  0  0
    7.5572  -13.7492   19.5202 C   0  0  0  0  0  0  0  0  0  0  0  0
    8.7299  -14.0354   20.4135 C   0  0  2  0  0  0  0  0  0  0  0  0
    9.4417  -15.1316   19.7589 N   0  0  0  0  0  0  0  0  0  0  0  0
    8.3390  -14.4293   21.8001 C   0  0  0  0  0  0  0  0  0  0  0  0
    7.7346  -13.5682   22.4720 O   0  0  0  0  0  0  0  0  0  0  0  0
    7.2089  -18.6885   21.6894 N   0  0  0  0  0  0  0  0  0  0  0  0
    7.1125  -17.9963   22.9170 C   0  0  0  0  0  0  0  0  0  0  0  0
    5.9644  -17.6377   23.3408 O   0  0  0  0  0  0  0  0  0  0  0  0
    8.3358  -17.6933   23.6962 C   0  0  0  0  0  0  0  0  0  0  0  0
    8.5290  -16.1649   23.6760 C   0  0  2  0  0  0  0  0  0  0  0  0
    8.6142  -15.6781   22.3467 N   0  0  0  0  0  0  0  0  0  0  0  0
    9.5485  -15.7189   24.6049 C   0  0  0  0  0  0  0  0  0  0  0  0
   10.4050  -14.8762   24.2701 O   0  0  0  0  0  0  0  0  0  0  0  0
    9.5991  -16.2285   25.9293 N   0  0  0  0  0  0  0  0  0  0  0  0
   10.0262  -15.4307   27.0682 C   0  0  1  0  0  0  0  0  0  0  0  0
    9.1409  -14.1982   27.2094 C   0  0  0  0  0  0  0  0  0  0  0  0
    9.7395  -13.2062   28.5962 S   0  0  0  0  0  0  0  0  0  0  0  0
   10.0380  -16.1713   28.3329 C   0  0  0  0  0  0  0  0  0  0  0  0
   10.9768  -15.8407   29.2919 O   0  0  0  0  0  0  0  0  0  0  0  0
    9.2007  -17.0814   28.5121 O   0  0  0  0  0  0  0  0  0  0  0  0
  2  3  2  0
  2  1  1  0
  4  2  1  0
  5  4  1  0
  5  6  1  6
  7  5  1  0
  8  7  2  0
  9 10  1  0
 10 12  1  0
 10 11  2  0
 13 12  1  6
 13 14  1  0
 14  7  1  0
 15 13  1  0
 15 17  1  0
 16 15  2  0
 18 17  1  0
 18 19  1  1
 18 21  1  0
 20 19  1  0
 21 23  2  0
 21 22  1  0
M  END
$$$$
