NNC.pdb
     RDKit          3D

 23 22  0  0  1  0  0  0  0  0999 V2000
    7.4094  -12.0672   18.1231 N   0  0  0  0  0  0  0  0  0  0  0  0
    7.5083  -13.3959   18.6077 C   0  0  0  0  0  0  0  0  0  0  0  0
    7.6793  -14.2908   17.7490 O   0  0  0  0  0  0  0  0  0  0  0  0
    7.4014  -13.5941   20.0569 C   0  0  0  0  0  0  0  0  0  0  0  0
    8.4835  -14.4290   20.6791 C   0  0  2  0  0  0  0  0  0  0  0  0
    8.4576  -15.6891   19.9389 N   0  0  0  0  0  0  0  0  0  0  0  0
    8.2755  -14.6822   22.1362 C   0  0  0  0  0  0  0  0  0  0  0  0
    8.1842  -13.6743   22.8671 O   0  0  0  0  0  0  0  0  0  0  0  0
    8.1227  -19.1504   26.1985 N   0  0  0  0  0  0  0  0  0  0  0  0
    7.3613  -18.1616   25.5367 C   0  0  0  0  0  0  0  0  0  0  0  0
    6.4539  -17.5396   26.1817 O   0  0  0  0  0  0  0  0  0  0  0  0
    7.6193  -17.8576   24.1097 C   0  0  0  0  0  0  0  0  0  0  0  0
    8.1142  -16.4007   24.0305 C   0  0  2  0  0  0  0  0  0  0  0  0
    8.1818  -15.9564   22.6853 N   0  0  0  0  0  0  0  0  0  0  0  0
    9.2783  -16.1607   24.8602 C   0  0  0  0  0  0  0  0  0  0  0  0
   10.3261  -15.6819   24.3821 O   0  0  0  0  0  0  0  0  0  0  0  0
    9.2573  -16.4621   26.2476 N   0  0  0  0  0  0  0  0  0  0  0  0
   10.0244  -15.7140   27.2314 C   0  0  1  0  0  0  0  0  0  0  0  0
    9.3568  -14.3726   27.5104 C   0  0  0  0  0  0  0  0  0  0  0  0
   10.3580  -13.4608   28.7069 S   0  0  0  0  0  0  0  0  0  0  0  0
   10.2219  -16.4333   28.4930 C   0  0  0  0  0  0  0  0  0  0  0  0
    9.5380  -17.6162   28.7016 O   0  0  0  0  0  0  0  0  0  0  0  0
   11.0019  -15.9601   29.3468 O   0  0  0  0  0  0  0  0  0  0  0  0
  2  3  2  0
  2  1  1  0
  4  2  1  0
  5  4  1  0
  5  6  1  6
  7  5  1  0
  8  7  2  0
  9 10  1  0
 10 12  1  0
 10 11  2  0
 13 12  1  6
 13 14  1  0
 14  7  1  0
 15 13  1  0
 15 17  1  0
 16 15  2  0
 18 17  1  0
 18 19  1  1
 18 21  1  0
 20 19  1  0
 21 23  2  0
 21 22  1  0
M  END
$$$$
