NNC.pdb
     RDKit          3D

 23 22  0  0  1  0  0  0  0  0999 V2000
    4.3424  -19.8244   19.3655 N   0  0  0  0  0  0  0  0  0  0  0  0
    5.7304  -19.6163   19.5652 C   0  0  0  0  0  0  0  0  0  0  0  0
    6.4765  -20.6006   19.3601 O   0  0  0  0  0  0  0  0  0  0  0  0
    6.1568  -18.2789   19.9899 C   0  0  0  0  0  0  0  0  0  0  0  0
    7.6372  -18.0939   20.1614 C   0  0  2  0  0  0  0  0  0  0  0  0
    7.9878  -18.9215   21.3141 N   0  0  0  0  0  0  0  0  0  0  0  0
    8.0349  -16.6751   20.4050 C   0  0  0  0  0  0  0  0  0  0  0  0
    8.5665  -16.0756   19.4477 O   0  0  0  0  0  0  0  0  0  0  0  0
    8.1616  -12.0768   19.8074 N   0  0  0  0  0  0  0  0  0  0  0  0
    7.7037  -13.4125   19.8496 C   0  0  0  0  0  0  0  0  0  0  0  0
    8.0180  -14.2082   18.9039 O   0  0  0  0  0  0  0  0  0  0  0  0
    6.8677  -13.8751   20.9820 C   0  0  0  0  0  0  0  0  0  0  0  0
    7.7866  -14.6453   21.9495 C   0  0  2  0  0  0  0  0  0  0  0  0
    7.8384  -16.0231   21.6175 N   0  0  0  0  0  0  0  0  0  0  0  0
    7.5377  -14.3139   23.3386 C   0  0  0  0  0  0  0  0  0  0  0  0
    6.4429  -14.5698   23.8788 O   0  0  0  0  0  0  0  0  0  0  0  0
    8.5389  -13.6888   24.1280 N   0  0  0  0  0  0  0  0  0  0  0  0
    8.3758  -13.4253   25.5492 C   0  0  1  0  0  0  0  0  0  0  0  0
    7.0629  -12.6938   25.8019 C   0  0  0  0  0  0  0  0  0  0  0  0
    6.9769  -12.2368   27.5481 S   0  0  0  0  0  0  0  0  0  0  0  0
    8.4311  -14.6312   26.3803 C   0  0  0  0  0  0  0  0  0  0  0  0
    9.1229  -14.5872   27.5761 O   0  0  0  0  0  0  0  0  0  0  0  0
    7.8527  -15.6670   25.9879 O   0  0  0  0  0  0  0  0  0  0  0  0
  2  3  2  0
  2  1  1  0
  4  2  1  0
  5  4  1  0
  5  6  1  1
  7  5  1  0
  8  7  2  0
  9 10  1  0
 10 12  1  0
 10 11  2  0
 13 12  1  6
 13 14  1  0
 14  7  1  0
 15 13  1  0
 15 17  1  0
 16 15  2  0
 18 17  1  0
 18 19  1  6
 18 21  1  0
 20 19  1  0
 21 23  2  0
 21 22  1  0
M  END
$$$$
