NNC.pdb
     RDKit          3D

 23 22  0  0  1  0  0  0  0  0999 V2000
    9.2143  -13.5406   17.6690 N   0  0  0  0  0  0  0  0  0  0  0  0
    7.8574  -13.2760   17.9830 C   0  0  0  0  0  0  0  0  0  0  0  0
    7.1695  -12.7476   17.0803 O   0  0  0  0  0  0  0  0  0  0  0  0
    7.3925  -13.6431   19.3247 C   0  0  0  0  0  0  0  0  0  0  0  0
    8.4050  -14.3275   20.1974 C   0  0  2  0  0  0  0  0  0  0  0  0
    8.6369  -15.6218   19.5590 N   0  0  0  0  0  0  0  0  0  0  0  0
    7.9430  -14.5216   21.6043 C   0  0  0  0  0  0  0  0  0  0  0  0
    7.7209  -13.4849   22.2634 O   0  0  0  0  0  0  0  0  0  0  0  0
    6.2739  -16.8713   25.8075 N   0  0  0  0  0  0  0  0  0  0  0  0
    6.4559  -17.9283   24.8883 C   0  0  0  0  0  0  0  0  0  0  0  0
    6.0973  -19.1072   25.2168 O   0  0  0  0  0  0  0  0  0  0  0  0
    7.0580  -17.6623   23.5609 C   0  0  0  0  0  0  0  0  0  0  0  0
    7.3860  -16.1584   23.4959 C   0  0  2  0  0  0  0  0  0  0  0  0
    7.7571  -15.7725   22.1826 N   0  0  0  0  0  0  0  0  0  0  0  0
    8.2524  -15.7289   24.5757 C   0  0  0  0  0  0  0  0  0  0  0  0
    9.4574  -16.0498   24.6052 O   0  0  0  0  0  0  0  0  0  0  0  0
    7.7523  -14.9241   25.6333 N   0  0  0  0  0  0  0  0  0  0  0  0
    8.5984  -14.3900   26.6892 C   0  0  1  0  0  0  0  0  0  0  0  0
    7.8447  -13.3287   27.4818 C   0  0  0  0  0  0  0  0  0  0  0  0
    7.2364  -12.0692   26.3376 S   0  0  0  0  0  0  0  0  0  0  0  0
    9.1100  -15.4128   27.6058 C   0  0  0  0  0  0  0  0  0  0  0  0
    9.9270  -15.0247   28.6510 O   0  0  0  0  0  0  0  0  0  0  0  0
    8.7956  -16.6078   27.4199 O   0  0  0  0  0  0  0  0  0  0  0  0
  2  3  2  0
  2  1  1  0
  4  2  1  0
  5  4  1  0
  5  6  1  6
  7  5  1  0
  8  7  2  0
  9 10  1  0
 10 12  1  0
 10 11  2  0
 13 12  1  6
 13 14  1  0
 14  7  1  0
 15 13  1  0
 15 17  1  0
 16 15  2  0
 18 17  1  0
 18 19  1  1
 18 21  1  0
 20 19  1  0
 21 23  2  0
 21 22  1  0
M  END
$$$$
