NNC.pdb
     RDKit          3D

 23 22  0  0  1  0  0  0  0  0999 V2000
   10.7845  -17.5234   12.1205 N   0  0  0  0  0  0  0  0  0  0  0  0
   10.6989  -16.1099   12.1875 C   0  0  0  0  0  0  0  0  0  0  0  0
   10.5964  -15.5056   11.0958 O   0  0  0  0  0  0  0  0  0  0  0  0
   10.7388  -15.4950   13.5184 C   0  0  0  0  0  0  0  0  0  0  0  0
   10.7861  -16.4525   14.6743 C   0  0  2  0  0  0  0  0  0  0  0  0
    9.4011  -16.8793   14.8648 N   0  0  0  0  0  0  0  0  0  0  0  0
   11.3153  -15.8424   15.9305 C   0  0  0  0  0  0  0  0  0  0  0  0
   12.5456  -15.6351   15.9712 O   0  0  0  0  0  0  0  0  0  0  0  0
    8.7373  -12.4659   18.1581 N   0  0  0  0  0  0  0  0  0  0  0  0
    8.6623  -13.8761   18.1872 C   0  0  0  0  0  0  0  0  0  0  0  0
    7.8239  -14.4704   17.4321 O   0  0  0  0  0  0  0  0  0  0  0  0
    9.5499  -14.6483   19.0879 C   0  0  0  0  0  0  0  0  0  0  0  0
   10.8276  -14.9878   18.2969 C   0  0  2  0  0  0  0  0  0  0  0  0
   10.5125  -15.5082   17.0158 N   0  0  0  0  0  0  0  0  0  0  0  0
   11.7929  -15.7269   19.0862 C   0  0  0  0  0  0  0  0  0  0  0  0
   11.6245  -16.9343   19.3500 O   0  0  0  0  0  0  0  0  0  0  0  0
   12.9646  -15.0953   19.5806 N   0  0  0  0  0  0  0  0  0  0  0  0
   14.0240  -15.8187   20.2664 C   0  0  1  0  0  0  0  0  0  0  0  0
   15.3465  -15.6384   19.5305 C   0  0  0  0  0  0  0  0  0  0  0  0
   15.4316  -13.9511   18.8894 S   0  0  0  0  0  0  0  0  0  0  0  0
   14.1885  -15.4288   21.6695 C   0  0  0  0  0  0  0  0  0  0  0  0
   15.1066  -16.1080   22.4483 O   0  0  0  0  0  0  0  0  0  0  0  0
   13.4961  -14.4942   22.1259 O   0  0  0  0  0  0  0  0  0  0  0  0
  2  3  2  0
  2  1  1  0
  4  2  1  0
  5  4  1  0
  5  6  1  1
  7  5  1  0
  8  7  2  0
  9 10  1  0
 10 12  1  0
 10 11  2  0
 13 12  1  1
 13 14  1  0
 14  7  1  0
 15 13  1  0
 15 17  1  0
 16 15  2  0
 18 17  1  0
 18 19  1  6
 18 21  1  0
 20 19  1  0
 21 23  2  0
 21 22  1  0
M  END
$$$$
