NNC.pdb
     RDKit          3D

 23 22  0  0  1  0  0  0  0  0999 V2000
    8.0708  -13.4340   14.5011 N   0  0  0  0  0  0  0  0  0  0  0  0
    7.1947  -14.5035   14.8149 C   0  0  0  0  0  0  0  0  0  0  0  0
    6.3095  -14.7651   13.9691 O   0  0  0  0  0  0  0  0  0  0  0  0
    7.4067  -15.1958   16.0904 C   0  0  0  0  0  0  0  0  0  0  0  0
    8.5432  -14.6817   16.9265 C   0  0  2  0  0  0  0  0  0  0  0  0
    9.7489  -15.0377   16.1806 N   0  0  0  0  0  0  0  0  0  0  0  0
    8.5899  -15.2755   18.2961 C   0  0  0  0  0  0  0  0  0  0  0  0
    7.6086  -15.0477   19.0334 O   0  0  0  0  0  0  0  0  0  0  0  0
    9.3857  -18.5792   18.2638 N   0  0  0  0  0  0  0  0  0  0  0  0
   10.6145  -18.7126   18.9474 C   0  0  0  0  0  0  0  0  0  0  0  0
   11.3518  -19.7258   18.7103 O   0  0  0  0  0  0  0  0  0  0  0  0
   11.0342  -17.6838   19.9277 C   0  0  0  0  0  0  0  0  0  0  0  0
    9.8999  -16.6454   20.0209 C   0  0  2  0  0  0  0  0  0  0  0  0
    9.6501  -16.0468   18.7597 N   0  0  0  0  0  0  0  0  0  0  0  0
   10.0523  -15.7524   21.1525 C   0  0  0  0  0  0  0  0  0  0  0  0
   10.9681  -14.9064   21.1905 O   0  0  0  0  0  0  0  0  0  0  0  0
    9.1571  -15.8134   22.2530 N   0  0  0  0  0  0  0  0  0  0  0  0
    9.4138  -15.1457   23.5196 C   0  0  1  0  0  0  0  0  0  0  0  0
    8.2936  -14.1605   23.8319 C   0  0  0  0  0  0  0  0  0  0  0  0
    6.7405  -15.0721   23.9817 S   0  0  0  0  0  0  0  0  0  0  0  0
    9.5818  -16.0677   24.6463 C   0  0  0  0  0  0  0  0  0  0  0  0
   10.1061  -15.5861   25.8311 O   0  0  0  0  0  0  0  0  0  0  0  0
    9.2478  -17.2638   24.5080 O   0  0  0  0  0  0  0  0  0  0  0  0
  2  3  2  0
  2  1  1  0
  4  2  1  0
  5  4  1  0
  5  6  1  6
  7  5  1  0
  8  7  2  0
  9 10  1  0
 10 12  1  0
 10 11  2  0
 13 12  1  6
 13 14  1  0
 14  7  1  0
 15 13  1  0
 15 17  1  0
 16 15  2  0
 18 17  1  0
 18 19  1  1
 18 21  1  0
 20 19  1  0
 21 23  2  0
 21 22  1  0
M  END
$$$$
