NNC.pdb
     RDKit          3D

 23 22  0  0  1  0  0  0  0  0999 V2000
    9.1657  -13.4494   17.6567 N   0  0  0  0  0  0  0  0  0  0  0  0
    7.7726  -13.5463   17.9013 C   0  0  0  0  0  0  0  0  0  0  0  0
    7.0190  -13.3244   16.9265 O   0  0  0  0  0  0  0  0  0  0  0  0
    7.3502  -13.8939   19.2621 C   0  0  0  0  0  0  0  0  0  0  0  0
    8.4572  -14.0523   20.2645 C   0  0  2  0  0  0  0  0  0  0  0  0
    9.2785  -15.1451   19.7470 N   0  0  0  0  0  0  0  0  0  0  0  0
    7.9725  -14.3776   21.6391 C   0  0  0  0  0  0  0  0  0  0  0  0
    7.2172  -13.5398   22.1739 O   0  0  0  0  0  0  0  0  0  0  0  0
    6.3541  -18.4223   22.5470 N   0  0  0  0  0  0  0  0  0  0  0  0
    7.7394  -18.1523   22.6053 C   0  0  0  0  0  0  0  0  0  0  0  0
    8.4813  -18.4913   21.6251 O   0  0  0  0  0  0  0  0  0  0  0  0
    8.3159  -17.4838   23.7954 C   0  0  0  0  0  0  0  0  0  0  0  0
    8.0618  -15.9718   23.6437 C   0  0  2  0  0  0  0  0  0  0  0  0
    8.3202  -15.5407   22.3175 N   0  0  0  0  0  0  0  0  0  0  0  0
    8.6566  -15.1957   24.7137 C   0  0  0  0  0  0  0  0  0  0  0  0
    9.8871  -14.9972   24.7624 O   0  0  0  0  0  0  0  0  0  0  0  0
    7.8512  -14.6341   25.7395 N   0  0  0  0  0  0  0  0  0  0  0  0
    8.3978  -13.8415   26.8299 C   0  0  1  0  0  0  0  0  0  0  0  0
    7.3448  -12.8737   27.3567 C   0  0  0  0  0  0  0  0  0  0  0  0
    6.5219  -12.0871   25.9533 S   0  0  0  0  0  0  0  0  0  0  0  0
    8.9190  -14.6470   27.9378 C   0  0  0  0  0  0  0  0  0  0  0  0
    9.5189  -14.0059   29.0053 O   0  0  0  0  0  0  0  0  0  0  0  0
    8.8083  -15.8907   27.8897 O   0  0  0  0  0  0  0  0  0  0  0  0
  2  3  2  0
  2  1  1  0
  4  2  1  0
  5  4  1  0
  5  6  1  6
  7  5  1  0
  8  7  2  0
  9 10  1  0
 10 12  1  0
 10 11  2  0
 13 12  1  6
 13 14  1  0
 14  7  1  0
 15 13  1  0
 15 17  1  0
 16 15  2  0
 18 17  1  0
 18 19  1  1
 18 21  1  0
 20 19  1  0
 21 23  2  0
 21 22  1  0
M  END
$$$$
