NNC.pdb
     RDKit          3D

 23 22  0  0  1  0  0  0  0  0999 V2000
   13.1472  -15.8158   15.4587 N   0  0  0  0  0  0  0  0  0  0  0  0
   13.4140  -15.4126   16.7914 C   0  0  0  0  0  0  0  0  0  0  0  0
   14.5928  -15.5504   17.1898 O   0  0  0  0  0  0  0  0  0  0  0  0
   12.2926  -14.8772   17.5705 C   0  0  0  0  0  0  0  0  0  0  0  0
   12.0827  -15.5028   18.9195 C   0  0  2  0  0  0  0  0  0  0  0  0
   11.3448  -16.7356   18.6507 N   0  0  0  0  0  0  0  0  0  0  0  0
   11.3144  -14.6371   19.8632 C   0  0  0  0  0  0  0  0  0  0  0  0
   11.9865  -13.8822   20.5960 O   0  0  0  0  0  0  0  0  0  0  0  0
    8.2332  -12.0406   18.3983 N   0  0  0  0  0  0  0  0  0  0  0  0
    7.9573  -13.3751   18.7704 C   0  0  0  0  0  0  0  0  0  0  0  0
    7.9468  -14.2817   17.8737 O   0  0  0  0  0  0  0  0  0  0  0  0
    7.6833  -13.7089   20.1878 C   0  0  0  0  0  0  0  0  0  0  0  0
    9.0353  -14.0186   20.8586 C   0  0  2  0  0  0  0  0  0  0  0  0
    9.9264  -14.6423   19.9485 N   0  0  0  0  0  0  0  0  0  0  0  0
    8.8836  -14.6405   22.1591 C   0  0  0  0  0  0  0  0  0  0  0  0
    8.1746  -14.1229   23.0452 O   0  0  0  0  0  0  0  0  0  0  0  0
    9.5382  -15.8638   22.4612 N   0  0  0  0  0  0  0  0  0  0  0  0
    9.5972  -16.4189   23.8045 C   0  0  1  0  0  0  0  0  0  0  0  0
    8.8294  -17.7340   23.8650 C   0  0  0  0  0  0  0  0  0  0  0  0
    9.0831  -18.4830   25.4898 S   0  0  0  0  0  0  0  0  0  0  0  0
   10.9626  -16.6273   24.2946 C   0  0  0  0  0  0  0  0  0  0  0  0
   11.2755  -16.2414   25.5845 O   0  0  0  0  0  0  0  0  0  0  0  0
   11.8081  -17.1474   23.5356 O   0  0  0  0  0  0  0  0  0  0  0  0
  2  3  2  0
  2  1  1  0
  4  2  1  0
  5  4  1  0
  5  6  1  6
  7  5  1  0
  8  7  2  0
  9 10  1  0
 10 12  1  0
 10 11  2  0
 13 12  1  6
 13 14  1  0
 14  7  1  0
 15 13  1  0
 15 17  1  0
 16 15  2  0
 18 17  1  0
 18 19  1  6
 18 21  1  0
 20 19  1  0
 21 23  2  0
 21 22  1  0
M  END
$$$$
