NNC.pdb
     RDKit          3D

 23 22  0  0  1  0  0  0  0  0999 V2000
   17.3874  -16.3291   15.8507 N   0  0  0  0  0  0  0  0  0  0  0  0
   16.1511  -16.3563   15.1572 C   0  0  0  0  0  0  0  0  0  0  0  0
   16.1666  -15.9458   13.9746 O   0  0  0  0  0  0  0  0  0  0  0  0
   14.9812  -16.8582   15.8855 C   0  0  0  0  0  0  0  0  0  0  0  0
   15.2213  -17.2323   17.3199 C   0  0  2  0  0  0  0  0  0  0  0  0
   15.6867  -18.6171   17.2737 N   0  0  0  0  0  0  0  0  0  0  0  0
   14.0008  -17.1265   18.1742 C   0  0  0  0  0  0  0  0  0  0  0  0
   13.5686  -15.9743   18.3841 O   0  0  0  0  0  0  0  0  0  0  0  0
    9.2252  -19.2164   19.9949 N   0  0  0  0  0  0  0  0  0  0  0  0
   10.4566  -19.6889   20.5008 C   0  0  0  0  0  0  0  0  0  0  0  0
   10.5230  -20.0776   21.7135 O   0  0  0  0  0  0  0  0  0  0  0  0
   11.6522  -19.7281   19.6266 C   0  0  0  0  0  0  0  0  0  0  0  0
   12.2967  -18.3292   19.6632 C   0  0  2  0  0  0  0  0  0  0  0  0
   13.3528  -18.2282   18.7220 N   0  0  0  0  0  0  0  0  0  0  0  0
   12.5745  -17.8776   21.0123 C   0  0  0  0  0  0  0  0  0  0  0  0
   13.7287  -17.5619   21.3643 O   0  0  0  0  0  0  0  0  0  0  0  0
   11.5351  -17.7783   21.9746 N   0  0  0  0  0  0  0  0  0  0  0  0
   11.7325  -17.2024   23.2958 C   0  0  1  0  0  0  0  0  0  0  0  0
   10.7493  -16.0606   23.5247 C   0  0  0  0  0  0  0  0  0  0  0  0
   10.8914  -15.5037   25.2380 S   0  0  0  0  0  0  0  0  0  0  0  0
   11.6130  -18.1759   24.3848 C   0  0  0  0  0  0  0  0  0  0  0  0
   12.5525  -18.1629   25.3985 O   0  0  0  0  0  0  0  0  0  0  0  0
   10.6667  -18.9919   24.3696 O   0  0  0  0  0  0  0  0  0  0  0  0
  2  3  2  0
  2  1  1  0
  4  2  1  0
  5  4  1  0
  5  6  1  6
  7  5  1  0
  8  7  2  0
  9 10  1  0
 10 12  1  0
 10 11  2  0
 13 12  1  1
 13 14  1  0
 14  7  1  0
 15 13  1  0
 15 17  1  0
 16 15  2  0
 18 17  1  0
 18 19  1  1
 18 21  1  0
 20 19  1  0
 21 23  2  0
 21 22  1  0
M  END
$$$$
