TPP.pdb
     RDKit          3D

 22 23  0  0  1  0  0  0  0  0999 V2000
    9.6310  -19.0709   20.0444 C   0  0  0  0  0  0  0  0  0  0  0  0
    9.7921  -18.2228   21.2789 C   0  0  1  0  0  0  0  0  0  0  0  0
   11.0752  -18.5723   21.7747 O   0  0  0  0  0  0  0  0  0  0  0  0
    9.8565  -16.7345   20.9958 C   0  0  2  0  0  0  0  0  0  0  0  0
   11.0982  -16.6216   20.1840 N   0  0  0  0  0  0  0  0  0  0  0  0
   10.0290  -15.9052   22.1881 C   0  0  0  0  0  0  0  0  0  0  0  0
   11.1997  -15.4229   22.3915 O   0  0  0  0  0  0  0  0  0  0  0  0
    9.0463  -15.5699   23.1488 N   0  0  0  0  0  0  0  0  0  0  0  0
    7.6505  -15.9304   23.2680 C   0  0  0  0  0  0  0  0  0  0  0  0
    7.0215  -14.5448   23.4952 C   0  0  0  0  0  0  0  0  0  0  0  0
    7.9723  -13.9867   24.5387 C   0  0  0  0  0  0  0  0  0  0  0  0
    9.2536  -14.7204   24.3344 C   0  0  1  0  0  0  0  0  0  0  0  0
    9.4730  -15.6186   25.4972 C   0  0  0  0  0  0  0  0  0  0  0  0
    9.5461  -16.8766   25.3396 O   0  0  0  0  0  0  0  0  0  0  0  0
    9.6092  -15.1153   26.8191 N   0  0  0  0  0  0  0  0  0  0  0  0
    8.9444  -13.9567   27.3901 C   0  0  0  0  0  0  0  0  0  0  0  0
    9.6999  -13.6417   28.6478 C   0  0  0  0  0  0  0  0  0  0  0  0
   10.9816  -14.4710   28.5778 C   0  0  0  0  0  0  0  0  0  0  0  0
   10.4544  -15.6931   27.8283 C   0  0  1  0  0  0  0  0  0  0  0  0
    9.6595  -16.5207   28.7932 C   0  0  0  0  0  0  0  0  0  0  0  0
    8.4076  -16.5700   28.7435 O   0  0  0  0  0  0  0  0  0  0  0  0
   10.2999  -17.2588   29.7737 O   0  0  0  0  0  0  0  0  0  0  0  0
  2  1  1  6
  2  3  1  0
  4  2  1  0
  4  5  1  6
  6  4  1  0
  6  7  2  0
  8  6  1  0
  9  8  1  0
 10 11  1  0
 10  9  1  0
 11 12  1  0
 12  8  1  0
 12 13  1  1
 13 15  1  0
 14 13  2  0
 15 19  1  0
 15 16  1  0
 16 17  1  0
 18 17  1  0
 19 20  1  1
 19 18  1  0
 20 22  1  0
 21 20  2  0
M  END
$$$$
