TPP.pdb
     RDKit          3D

 22 23  0  0  1  0  0  0  0  0999 V2000
    7.2430  -18.3377   17.9696 C   0  0  0  0  0  0  0  0  0  0  0  0
    8.7361  -18.2952   17.7736 C   0  0  1  0  0  0  0  0  0  0  0  0
    8.9354  -18.8867   16.4989 O   0  0  0  0  0  0  0  0  0  0  0  0
    9.3000  -16.8920   17.6641 C   0  0  2  0  0  0  0  0  0  0  0  0
   10.6665  -17.1422   17.1315 N   0  0  0  0  0  0  0  0  0  0  0  0
    9.4429  -16.2026   18.9461 C   0  0  0  0  0  0  0  0  0  0  0  0
   10.5610  -16.3460   19.5575 O   0  0  0  0  0  0  0  0  0  0  0  0
    8.4839  -15.3886   19.5934 N   0  0  0  0  0  0  0  0  0  0  0  0
    7.1651  -14.9479   19.1948 C   0  0  0  0  0  0  0  0  0  0  0  0
    7.2774  -13.4390   19.4738 C   0  0  0  0  0  0  0  0  0  0  0  0
    7.9162  -13.4679   20.8505 C   0  0  0  0  0  0  0  0  0  0  0  0
    8.6319  -14.7733   20.9238 C   0  0  1  0  0  0  0  0  0  0  0  0
    7.9276  -15.6427   21.9011 C   0  0  0  0  0  0  0  0  0  0  0  0
    7.1617  -16.5751   21.5049 O   0  0  0  0  0  0  0  0  0  0  0  0
    8.0789  -15.4712   23.3036 N   0  0  0  0  0  0  0  0  0  0  0  0
    8.3693  -14.2358   24.0105 C   0  0  0  0  0  0  0  0  0  0  0  0
    8.7945  -14.6536   25.3876 C   0  0  0  0  0  0  0  0  0  0  0  0
    9.0253  -16.1622   25.3082 C   0  0  0  0  0  0  0  0  0  0  0  0
    7.9653  -16.5284   24.2711 C   0  0  1  0  0  0  0  0  0  0  0  0
    6.6276  -16.5034   24.9477 C   0  0  0  0  0  0  0  0  0  0  0  0
    5.8464  -15.5299   24.8277 O   0  0  0  0  0  0  0  0  0  0  0  0
    6.2202  -17.5700   25.7304 O   0  0  0  0  0  0  0  0  0  0  0  0
  2  1  1  6
  2  3  1  0
  4  2  1  0
  4  5  1  1
  6  4  1  0
  6  7  2  0
  8  6  1  0
  9  8  1  0
 10 11  1  0
 10  9  1  0
 11 12  1  0
 12  8  1  0
 12 13  1  1
 13 15  1  0
 14 13  2  0
 15 19  1  0
 15 16  1  0
 16 17  1  0
 18 17  1  0
 19 20  1  1
 19 18  1  0
 20 22  1  0
 21 20  2  0
M  END
$$$$
