TPP.pdb
     RDKit          3D

 22 23  0  0  1  0  0  0  0  0999 V2000
   10.8425  -17.6290   20.8626 C   0  0  0  0  0  0  0  0  0  0  0  0
   11.8046  -16.4952   20.6212 C   0  0  1  0  0  0  0  0  0  0  0  0
   12.6549  -16.9754   19.5912 O   0  0  0  0  0  0  0  0  0  0  0  0
   11.1519  -15.2464   20.0613 C   0  0  2  0  0  0  0  0  0  0  0  0
   12.3264  -14.4512   19.6121 N   0  0  0  0  0  0  0  0  0  0  0  0
   10.4313  -14.4508   21.0548 C   0  0  0  0  0  0  0  0  0  0  0  0
   11.1365  -13.6829   21.8015 O   0  0  0  0  0  0  0  0  0  0  0  0
    9.0361  -14.4290   21.2877 N   0  0  0  0  0  0  0  0  0  0  0  0
    7.9425  -15.1426   20.6655 C   0  0  0  0  0  0  0  0  0  0  0  0
    6.9792  -13.9792   20.3727 C   0  0  0  0  0  0  0  0  0  0  0  0
    7.0296  -13.2484   21.7022 C   0  0  0  0  0  0  0  0  0  0  0  0
    8.3437  -13.6158   22.3024 C   0  0  1  0  0  0  0  0  0  0  0  0
    8.0967  -14.4847   23.4818 C   0  0  0  0  0  0  0  0  0  0  0  0
    8.4135  -15.7144   23.4585 O   0  0  0  0  0  0  0  0  0  0  0  0
    7.5034  -13.9839   24.6718 N   0  0  0  0  0  0  0  0  0  0  0  0
    6.5136  -12.9262   24.7814 C   0  0  0  0  0  0  0  0  0  0  0  0
    6.5076  -12.5325   26.2293 C   0  0  0  0  0  0  0  0  0  0  0  0
    7.7437  -13.1910   26.8410 C   0  0  0  0  0  0  0  0  0  0  0  0
    7.8013  -14.4613   25.9947 C   0  0  1  0  0  0  0  0  0  0  0  0
    6.7366  -15.3947   26.4875 C   0  0  0  0  0  0  0  0  0  0  0  0
    5.6311  -15.4996   25.9051 O   0  0  0  0  0  0  0  0  0  0  0  0
    6.9542  -16.1720   27.6120 O   0  0  0  0  0  0  0  0  0  0  0  0
  2  1  1  6
  2  3  1  0
  4  2  1  0
  4  5  1  1
  6  4  1  0
  6  7  2  0
  8  6  1  0
  9  8  1  0
 10 11  1  0
 10  9  1  0
 11 12  1  0
 12  8  1  0
 12 13  1  1
 13 15  1  0
 14 13  2  0
 15 19  1  0
 15 16  1  0
 16 17  1  0
 18 17  1  0
 19 20  1  1
 19 18  1  0
 20 22  1  0
 21 20  2  0
M  END
$$$$
