TPP.pdb
     RDKit          3D

 22 23  0  0  1  0  0  0  0  0999 V2000
    6.5877  -15.5675   20.1629 C   0  0  0  0  0  0  0  0  0  0  0  0
    7.2622  -15.2997   21.4830 C   0  0  1  0  0  0  0  0  0  0  0  0
    8.6078  -15.6989   21.2722 O   0  0  0  0  0  0  0  0  0  0  0  0
    7.3263  -13.8302   21.8513 C   0  0  2  0  0  0  0  0  0  0  0  0
    8.1277  -13.2602   20.7349 N   0  0  0  0  0  0  0  0  0  0  0  0
    8.0425  -13.5559   23.0967 C   0  0  0  0  0  0  0  0  0  0  0  0
    9.2712  -13.2041   22.9908 O   0  0  0  0  0  0  0  0  0  0  0  0
    7.5324  -13.6325   24.4139 N   0  0  0  0  0  0  0  0  0  0  0  0
    6.2408  -14.0338   24.9269 C   0  0  0  0  0  0  0  0  0  0  0  0
    5.9321  -12.8531   25.8638 C   0  0  0  0  0  0  0  0  0  0  0  0
    7.2639  -12.7247   26.5808 C   0  0  0  0  0  0  0  0  0  0  0  0
    8.2705  -13.3021   25.6453 C   0  0  1  0  0  0  0  0  0  0  0  0
    8.7741  -14.5752   26.2220 C   0  0  0  0  0  0  0  0  0  0  0  0
    8.6386  -15.6700   25.5928 O   0  0  0  0  0  0  0  0  0  0  0  0
    9.4213  -14.6223   27.4861 N   0  0  0  0  0  0  0  0  0  0  0  0
    9.1933  -13.7462   28.6222 C   0  0  0  0  0  0  0  0  0  0  0  0
   10.3615  -13.9664   29.5378 C   0  0  0  0  0  0  0  0  0  0  0  0
   11.3840  -14.7543   28.7198 C   0  0  0  0  0  0  0  0  0  0  0  0
   10.4356  -15.5748   27.8477 C   0  0  1  0  0  0  0  0  0  0  0  0
    9.8689  -16.6776   28.6906 C   0  0  0  0  0  0  0  0  0  0  0  0
   10.5753  -17.6360   29.0838 O   0  0  0  0  0  0  0  0  0  0  0  0
    8.5345  -16.6610   29.0583 O   0  0  0  0  0  0  0  0  0  0  0  0
  2  1  1  6
  2  3  1  0
  4  2  1  0
  4  5  1  6
  6  4  1  0
  6  7  2  0
  8  6  1  0
  9  8  1  0
 10 11  1  0
 10  9  1  0
 11 12  1  0
 12  8  1  0
 12 13  1  1
 13 15  1  0
 14 13  2  0
 15 19  1  0
 15 16  1  0
 16 17  1  0
 18 17  1  0
 19 20  1  1
 19 18  1  0
 20 22  1  0
 21 20  2  0
M  END
$$$$
