TPP.pdb
     RDKit          3D

 22 23  0  0  1  0  0  0  0  0999 V2000
    6.6939  -15.3334   19.9419 C   0  0  0  0  0  0  0  0  0  0  0  0
    7.3076  -15.0875   21.2956 C   0  0  1  0  0  0  0  0  0  0  0  0
    8.6681  -15.4569   21.1316 O   0  0  0  0  0  0  0  0  0  0  0  0
    7.3282  -13.6271   21.7028 C   0  0  2  0  0  0  0  0  0  0  0  0
    8.1772  -13.0168   20.6444 N   0  0  0  0  0  0  0  0  0  0  0  0
    7.9739  -13.3738   22.9905 C   0  0  0  0  0  0  0  0  0  0  0  0
    9.1891  -12.9654   22.9566 O   0  0  0  0  0  0  0  0  0  0  0  0
    7.4083  -13.5266   24.2781 N   0  0  0  0  0  0  0  0  0  0  0  0
    6.1005  -13.9670   24.7117 C   0  0  0  0  0  0  0  0  0  0  0  0
    5.7380  -12.8418   25.6965 C   0  0  0  0  0  0  0  0  0  0  0  0
    7.0360  -12.7403   26.4769 C   0  0  0  0  0  0  0  0  0  0  0  0
    8.0887  -13.2567   25.5566 C   0  0  1  0  0  0  0  0  0  0  0  0
    8.5816  -14.5546   26.0853 C   0  0  0  0  0  0  0  0  0  0  0  0
    8.4269  -15.6258   25.4209 O   0  0  0  0  0  0  0  0  0  0  0  0
    9.2395  -14.6522   27.3410 N   0  0  0  0  0  0  0  0  0  0  0  0
    9.0236  -13.8202   28.5121 C   0  0  0  0  0  0  0  0  0  0  0  0
   10.1991  -14.0785   29.4083 C   0  0  0  0  0  0  0  0  0  0  0  0
   11.2123  -14.8366   28.5516 C   0  0  0  0  0  0  0  0  0  0  0  0
   10.2542  -15.6204   27.6566 C   0  0  1  0  0  0  0  0  0  0  0  0
    9.6917  -16.7536   28.4611 C   0  0  0  0  0  0  0  0  0  0  0  0
   10.4121  -17.6981   28.8626 O   0  0  0  0  0  0  0  0  0  0  0  0
    8.3456  -16.7818   28.7827 O   0  0  0  0  0  0  0  0  0  0  0  0
  2  1  1  6
  2  3  1  0
  4  2  1  0
  4  5  1  6
  6  4  1  0
  6  7  2  0
  8  6  1  0
  9  8  1  0
 10 11  1  0
 10  9  1  0
 11 12  1  0
 12  8  1  0
 12 13  1  1
 13 15  1  0
 14 13  2  0
 15 19  1  0
 15 16  1  0
 16 17  1  0
 18 17  1  0
 19 20  1  1
 19 18  1  0
 20 22  1  0
 21 20  2  0
M  END
$$$$
