TPP.pdb
     RDKit          3D

 22 23  0  0  1  0  0  0  0  0999 V2000
    6.4278  -16.0149   20.5313 C   0  0  0  0  0  0  0  0  0  0  0  0
    7.1420  -15.6998   21.8197 C   0  0  1  0  0  0  0  0  0  0  0  0
    8.4109  -16.3184   21.6729 O   0  0  0  0  0  0  0  0  0  0  0  0
    7.4285  -14.2239   22.0163 C   0  0  2  0  0  0  0  0  0  0  0  0
    8.3278  -13.9221   20.8700 N   0  0  0  0  0  0  0  0  0  0  0  0
    8.1577  -13.9143   23.2457 C   0  0  0  0  0  0  0  0  0  0  0  0
    9.4128  -13.6777   23.1287 O   0  0  0  0  0  0  0  0  0  0  0  0
    7.6347  -13.8434   24.5582 N   0  0  0  0  0  0  0  0  0  0  0  0
    6.3124  -14.1006   25.0853 C   0  0  0  0  0  0  0  0  0  0  0  0
    6.0906  -12.8269   25.9195 C   0  0  0  0  0  0  0  0  0  0  0  0
    7.4236  -12.7434   26.6408 C   0  0  0  0  0  0  0  0  0  0  0  0
    8.3883  -13.4713   25.7681 C   0  0  1  0  0  0  0  0  0  0  0  0
    8.7873  -14.7281   26.4524 C   0  0  0  0  0  0  0  0  0  0  0  0
    8.5135  -15.8586   25.9428 O   0  0  0  0  0  0  0  0  0  0  0  0
    9.4842  -14.7196   27.6908 N   0  0  0  0  0  0  0  0  0  0  0  0
    9.2915  -13.8018   28.8002 C   0  0  0  0  0  0  0  0  0  0  0  0
   10.4972  -13.9751   29.6765 C   0  0  0  0  0  0  0  0  0  0  0  0
   11.4953  -14.7848   28.8497 C   0  0  0  0  0  0  0  0  0  0  0  0
   10.5223  -15.6476   28.0484 C   0  0  1  0  0  0  0  0  0  0  0  0
   10.0012  -16.7218   28.9552 C   0  0  0  0  0  0  0  0  0  0  0  0
   10.7373  -17.6481   29.3705 O   0  0  0  0  0  0  0  0  0  0  0  0
    8.6773  -16.7139   29.3594 O   0  0  0  0  0  0  0  0  0  0  0  0
  2  1  1  6
  2  3  1  0
  4  2  1  0
  4  5  1  6
  6  4  1  0
  6  7  2  0
  8  6  1  0
  9  8  1  0
 10 11  1  0
 10  9  1  0
 11 12  1  0
 12  8  1  0
 12 13  1  1
 13 15  1  0
 14 13  2  0
 15 19  1  0
 15 16  1  0
 16 17  1  0
 18 17  1  0
 19 20  1  1
 19 18  1  0
 20 22  1  0
 21 20  2  0
M  END
$$$$
