TPP.pdb
     RDKit          3D

 22 23  0  0  1  0  0  0  0  0999 V2000
    9.0646  -18.3548   28.9979 C   0  0  0  0  0  0  0  0  0  0  0  0
    8.6326  -17.5649   27.7901 C   0  0  1  0  0  0  0  0  0  0  0  0
    8.7679  -18.4780   26.7120 O   0  0  0  0  0  0  0  0  0  0  0  0
    7.1688  -17.1697   27.8078 C   0  0  2  0  0  0  0  0  0  0  0  0
    6.4853  -18.4899   27.7496 N   0  0  0  0  0  0  0  0  0  0  0  0
    6.7430  -16.3978   26.6408 C   0  0  0  0  0  0  0  0  0  0  0  0
    5.8472  -16.9291   25.8925 O   0  0  0  0  0  0  0  0  0  0  0  0
    7.2070  -15.1229   26.2402 N   0  0  0  0  0  0  0  0  0  0  0  0
    8.0833  -14.1687   26.8837 C   0  0  0  0  0  0  0  0  0  0  0  0
    7.2456  -12.8850   26.7508 C   0  0  0  0  0  0  0  0  0  0  0  0
    6.8249  -12.9888   25.2960 C   0  0  0  0  0  0  0  0  0  0  0  0
    6.8776  -14.4435   24.9751 C   0  0  1  0  0  0  0  0  0  0  0  0
    8.0027  -14.6779   24.0337 C   0  0  0  0  0  0  0  0  0  0  0  0
    9.0650  -15.2542   24.4241 O   0  0  0  0  0  0  0  0  0  0  0  0
    7.9395  -14.2732   22.6731 N   0  0  0  0  0  0  0  0  0  0  0  0
    7.1641  -13.1770   22.1184 C   0  0  0  0  0  0  0  0  0  0  0  0
    7.1466  -13.4095   20.6361 C   0  0  0  0  0  0  0  0  0  0  0  0
    7.6700  -14.8312   20.4353 C   0  0  0  0  0  0  0  0  0  0  0  0
    8.6556  -14.9073   21.5998 C   0  0  1  0  0  0  0  0  0  0  0  0
    9.8770  -14.1231   21.2246 C   0  0  0  0  0  0  0  0  0  0  0  0
   10.6940  -14.5439   20.3714 O   0  0  0  0  0  0  0  0  0  0  0  0
   10.1328  -12.9000   21.8203 O   0  0  0  0  0  0  0  0  0  0  0  0
  2  1  1  1
  2  3  1  0
  4  2  1  0
  4  5  1  6
  6  4  1  0
  6  7  2  0
  8  6  1  0
  9  8  1  0
 10 11  1  0
 10  9  1  0
 11 12  1  0
 12  8  1  0
 12 13  1  6
 13 15  1  0
 14 13  2  0
 15 19  1  0
 15 16  1  0
 16 17  1  0
 18 17  1  0
 19 20  1  6
 19 18  1  0
 20 22  1  0
 21 20  2  0
M  END
$$$$
