TPP.pdb
     RDKit          3D

 22 23  0  0  1  0  0  0  0  0999 V2000
   11.8796  -18.6295   22.1943 C   0  0  0  0  0  0  0  0  0  0  0  0
   11.5665  -17.5625   21.1780 C   0  0  1  0  0  0  0  0  0  0  0  0
   11.8402  -18.1812   19.9303 O   0  0  0  0  0  0  0  0  0  0  0  0
   10.1014  -17.1751   21.1278 C   0  0  2  0  0  0  0  0  0  0  0  0
   10.0347  -16.3544   19.8886 N   0  0  0  0  0  0  0  0  0  0  0  0
    9.6664  -16.3330   22.2416 C   0  0  0  0  0  0  0  0  0  0  0  0
   10.0140  -15.0991   22.2027 O   0  0  0  0  0  0  0  0  0  0  0  0
    8.8996  -16.7245   23.3641 N   0  0  0  0  0  0  0  0  0  0  0  0
    8.3084  -17.9916   23.7346 C   0  0  0  0  0  0  0  0  0  0  0  0
    6.8750  -17.5446   24.0705 C   0  0  0  0  0  0  0  0  0  0  0  0
    7.1680  -16.3238   24.9238 C   0  0  0  0  0  0  0  0  0  0  0  0
    8.5161  -15.8573   24.4916 C   0  0  1  0  0  0  0  0  0  0  0  0
    9.4776  -16.1062   25.5964 C   0  0  0  0  0  0  0  0  0  0  0  0
   10.3620  -17.0119   25.4941 O   0  0  0  0  0  0  0  0  0  0  0  0
    9.4500  -15.3510   26.7997 N   0  0  0  0  0  0  0  0  0  0  0  0
    8.4036  -14.4469   27.2449 C   0  0  0  0  0  0  0  0  0  0  0  0
    9.0169  -13.6392   28.3508 C   0  0  0  0  0  0  0  0  0  0  0  0
   10.5181  -13.9167   28.2809 C   0  0  0  0  0  0  0  0  0  0  0  0
   10.4876  -15.3645   27.7947 C   0  0  1  0  0  0  0  0  0  0  0  0
   10.1142  -16.2353   28.9565 C   0  0  0  0  0  0  0  0  0  0  0  0
    8.9637  -16.7198   29.0740 O   0  0  0  0  0  0  0  0  0  0  0  0
   11.0450  -16.5276   29.9386 O   0  0  0  0  0  0  0  0  0  0  0  0
  2  1  1  1
  2  3  1  0
  4  2  1  0
  4  5  1  6
  6  4  1  0
  6  7  2  0
  8  6  1  0
  9  8  1  0
 10 11  1  0
 10  9  1  0
 11 12  1  0
 12  8  1  0
 12 13  1  1
 13 15  1  0
 14 13  2  0
 15 19  1  0
 15 16  1  0
 16 17  1  0
 18 17  1  0
 19 20  1  1
 19 18  1  0
 20 22  1  0
 21 20  2  0
M  END
$$$$
