QFA.pdb
     RDKit          3D

 26 26  0  0  1  0  0  0  0  0999 V2000
   30.0798  -22.3723  -18.0717 N   0  0  0  0  0  0  0  0  0  0  0  0
   28.8395  -21.8019  -18.4206 C   0  0  0  0  0  0  0  0  0  0  0  0
   28.8418  -20.6701  -18.9620 O   0  0  0  0  0  0  0  0  0  0  0  0
   27.6093  -22.5524  -18.1360 C   0  0  0  0  0  0  0  0  0  0  0  0
   27.3981  -22.7577  -16.6787 C   0  0  0  0  0  0  0  0  0  0  0  0
   26.5848  -21.7229  -15.9798 C   0  0  2  0  0  0  0  0  0  0  0  0
   27.2023  -20.4266  -16.3142 N   0  0  0  0  0  0  0  0  0  0  0  0
   26.5549  -21.8906  -14.5021 C   0  0  0  0  0  0  0  0  0  0  0  0
   26.2301  -23.0087  -14.0287 O   0  0  0  0  0  0  0  0  0  0  0  0
   26.8715  -20.8627  -13.5966 N   0  0  0  0  0  0  0  0  0  0  0  0
   26.8100  -20.9917  -12.1529 C   0  0  1  0  0  0  0  0  0  0  0  0
   27.7398  -19.9546  -11.5748 C   0  0  0  0  0  0  0  0  0  0  0  0
   27.7000  -19.9597  -10.0892 C   0  0  0  0  0  0  0  0  0  0  0  0
   26.9162  -19.0579   -9.3937 C   0  0  0  0  0  0  0  0  0  0  0  0
   26.8614  -19.0417   -8.0150 C   0  0  0  0  0  0  0  0  0  0  0  0
   27.6080  -19.9491   -7.3007 C   0  0  0  0  0  0  0  0  0  0  0  0
   28.3939  -20.8551   -7.9479 C   0  0  0  0  0  0  0  0  0  0  0  0
   28.4335  -20.8533   -9.3297 C   0  0  0  0  0  0  0  0  0  0  0  0
   25.4190  -20.8384  -11.7442 C   0  0  0  0  0  0  0  0  0  0  0  0
   24.6792  -19.9367  -12.2304 O   0  0  0  0  0  0  0  0  0  0  0  0
   22.9992  -22.5643   -9.3302 C   0  0  0  0  0  0  0  0  0  0  0  0
   23.4417  -21.5064  -10.3149 C   0  0  2  0  0  0  0  0  0  0  0  0
   24.7809  -21.6808  -10.7737 N   0  0  0  0  0  0  0  0  0  0  0  0
   23.2114  -20.1702   -9.7081 C   0  0  0  0  0  0  0  0  0  0  0  0
   24.1930  -19.4959   -9.3472 O   0  0  0  0  0  0  0  0  0  0  0  0
   21.9428  -19.6580   -9.5343 O   0  0  0  0  0  0  0  0  0  0  0  0
  2  1  1  0
  3  2  2  0
  4  2  1  0
  5  4  1  0
  6  5  1  0
  6  7  1  1
  8  6  1  0
  8 10  1  0
  9  8  2  0
 11 10  1  0
 11 12  1  1
 12 13  1  0
 13 18  2  0
 13 14  1  0
 14 15  2  0
 15 16  1  0
 17 16  2  0
 18 17  1  0
 19 11  1  0
 20 19  2  0
 22 21  1  1
 22 24  1  0
 22 23  1  0
 23 19  1  0
 24 26  1  0
 25 24  2  0
M  END
$$$$
