QFA.pdb
     RDKit          3D

 26 26  0  0  1  0  0  0  0  0999 V2000
   20.1063  -11.9589  -21.5625 N   0  0  0  0  0  0  0  0  0  0  0  0
   19.2442  -11.1539  -20.7916 C   0  0  0  0  0  0  0  0  0  0  0  0
   19.1672   -9.9337  -21.0734 O   0  0  0  0  0  0  0  0  0  0  0  0
   18.4814  -11.7749  -19.7007 C   0  0  0  0  0  0  0  0  0  0  0  0
   18.3342  -10.8711  -18.5296 C   0  0  0  0  0  0  0  0  0  0  0  0
   19.5380  -10.7131  -17.6653 C   0  0  2  0  0  0  0  0  0  0  0  0
   19.7073  -11.9996  -16.9654 N   0  0  0  0  0  0  0  0  0  0  0  0
   19.4109   -9.6187  -16.6660 C   0  0  0  0  0  0  0  0  0  0  0  0
   18.7435   -9.8300  -15.6220 O   0  0  0  0  0  0  0  0  0  0  0  0
   19.9987   -8.3511  -16.8224 N   0  0  0  0  0  0  0  0  0  0  0  0
   19.9132   -7.2798  -15.8478 C   0  0  1  0  0  0  0  0  0  0  0  0
   21.3137   -7.0161  -15.3546 C   0  0  0  0  0  0  0  0  0  0  0  0
   21.7737   -8.0869  -14.4325 C   0  0  0  0  0  0  0  0  0  0  0  0
   22.7173   -9.0151  -14.8317 C   0  0  0  0  0  0  0  0  0  0  0  0
   23.1611  -10.0187  -13.9952 C   0  0  0  0  0  0  0  0  0  0  0  0
   22.6534  -10.1064  -12.7203 C   0  0  0  0  0  0  0  0  0  0  0  0
   21.7215   -9.2112  -12.2873 C   0  0  0  0  0  0  0  0  0  0  0  0
   21.2913   -8.2138  -13.1424 C   0  0  0  0  0  0  0  0  0  0  0  0
   19.2822   -6.1334  -16.4903 C   0  0  0  0  0  0  0  0  0  0  0  0
   19.7540   -5.6193  -17.5438 O   0  0  0  0  0  0  0  0  0  0  0  0
   16.0804   -4.0966  -16.0972 C   0  0  0  0  0  0  0  0  0  0  0  0
   17.4892   -4.3514  -16.5818 C   0  0  2  0  0  0  0  0  0  0  0  0
   18.0943   -5.5010  -15.9929 N   0  0  0  0  0  0  0  0  0  0  0  0
   18.2884   -3.1152  -16.3821 C   0  0  0  0  0  0  0  0  0  0  0  0
   19.1118   -3.0749  -15.4499 O   0  0  0  0  0  0  0  0  0  0  0  0
   18.1432   -2.0140  -17.1995 O   0  0  0  0  0  0  0  0  0  0  0  0
  2  1  1  0
  3  2  2  0
  4  2  1  0
  5  4  1  0
  6  5  1  0
  6  7  1  1
  8  6  1  0
  8 10  1  0
  9  8  2  0
 11 10  1  0
 11 12  1  6
 12 13  1  0
 13 18  2  0
 13 14  1  0
 14 15  2  0
 15 16  1  0
 17 16  2  0
 18 17  1  0
 19 11  1  0
 20 19  2  0
 22 21  1  1
 22 24  1  0
 22 23  1  0
 23 19  1  0
 24 26  1  0
 25 24  2  0
M  END
$$$$
