QFA.pdb
     RDKit          3D

 26 26  0  0  1  0  0  0  0  0999 V2000
   26.3356  -22.7416  -19.2549 N   0  0  0  0  0  0  0  0  0  0  0  0
   26.6408  -21.8514  -18.2061 C   0  0  0  0  0  0  0  0  0  0  0  0
   27.7346  -21.2387  -18.2517 O   0  0  0  0  0  0  0  0  0  0  0  0
   25.6721  -21.6833  -17.1148 C   0  0  0  0  0  0  0  0  0  0  0  0
   26.1026  -20.6542  -16.1320 C   0  0  0  0  0  0  0  0  0  0  0  0
   26.3184  -21.1277  -14.7356 C   0  0  2  0  0  0  0  0  0  0  0  0
   27.1294  -22.3542  -14.8434 N   0  0  0  0  0  0  0  0  0  0  0  0
   25.0556  -21.4312  -14.0106 C   0  0  0  0  0  0  0  0  0  0  0  0
   24.5913  -22.5976  -14.0708 O   0  0  0  0  0  0  0  0  0  0  0  0
   24.3453  -20.4814  -13.2555 N   0  0  0  0  0  0  0  0  0  0  0  0
   23.1710  -20.7782  -12.4570 C   0  0  1  0  0  0  0  0  0  0  0  0
   23.1394  -19.7804  -11.3267 C   0  0  0  0  0  0  0  0  0  0  0  0
   24.0769  -20.1642  -10.2393 C   0  0  0  0  0  0  0  0  0  0  0  0
   23.6872  -21.0297   -9.2341 C   0  0  0  0  0  0  0  0  0  0  0  0
   24.5380  -21.4019   -8.2135 C   0  0  0  0  0  0  0  0  0  0  0  0
   25.8180  -20.9001   -8.1872 C   0  0  0  0  0  0  0  0  0  0  0  0
   26.2419  -20.0439   -9.1593 C   0  0  0  0  0  0  0  0  0  0  0  0
   25.3726  -19.6847  -10.1722 C   0  0  0  0  0  0  0  0  0  0  0  0
   22.0051  -20.7256  -13.3306 C   0  0  0  0  0  0  0  0  0  0  0  0
   21.9537  -19.9460  -14.3237 O   0  0  0  0  0  0  0  0  0  0  0  0
   20.2671  -22.9325  -15.0846 C   0  0  0  0  0  0  0  0  0  0  0  0
   19.8725  -21.8044  -14.1593 C   0  0  2  0  0  0  0  0  0  0  0  0
   20.8374  -21.5379  -13.1433 N   0  0  0  0  0  0  0  0  0  0  0  0
   18.5235  -22.0947  -13.6090 C   0  0  0  0  0  0  0  0  0  0  0  0
   17.5728  -22.2498  -14.3968 O   0  0  0  0  0  0  0  0  0  0  0  0
   18.2967  -22.1968  -12.2526 O   0  0  0  0  0  0  0  0  0  0  0  0
  2  1  1  0
  3  2  2  0
  4  2  1  0
  5  4  1  0
  6  5  1  0
  6  7  1  6
  8  6  1  0
  8 10  1  0
  9  8  2  0
 11 10  1  0
 11 12  1  1
 12 13  1  0
 13 18  2  0
 13 14  1  0
 14 15  2  0
 15 16  1  0
 17 16  2  0
 18 17  1  0
 19 11  1  0
 20 19  2  0
 22 21  1  1
 22 24  1  0
 22 23  1  0
 23 19  1  0
 24 26  1  0
 25 24  2  0
M  END
$$$$
