QFA.pdb
     RDKit          3D

 26 26  0  0  1  0  0  0  0  0999 V2000
   22.4662   -8.7867  -20.2805 N   0  0  0  0  0  0  0  0  0  0  0  0
   22.1306  -10.0005  -20.9126 C   0  0  0  0  0  0  0  0  0  0  0  0
   22.8696  -10.4061  -21.8418 O   0  0  0  0  0  0  0  0  0  0  0  0
   20.9391  -10.7301  -20.4588 C   0  0  0  0  0  0  0  0  0  0  0  0
   20.2366  -10.0296  -19.3515 C   0  0  0  0  0  0  0  0  0  0  0  0
   20.8029  -10.2229  -17.9867 C   0  0  2  0  0  0  0  0  0  0  0  0
   20.4466  -11.5974  -17.5900 N   0  0  0  0  0  0  0  0  0  0  0  0
   20.2702   -9.2639  -16.9823 C   0  0  0  0  0  0  0  0  0  0  0  0
   19.3088   -9.6228  -16.2566 O   0  0  0  0  0  0  0  0  0  0  0  0
   20.7837   -7.9684  -16.7958 N   0  0  0  0  0  0  0  0  0  0  0  0
   20.3794   -7.0696  -15.7311 C   0  0  1  0  0  0  0  0  0  0  0  0
   21.5986   -6.8107  -14.8822 C   0  0  0  0  0  0  0  0  0  0  0  0
   21.8597   -7.9393  -13.9513 C   0  0  0  0  0  0  0  0  0  0  0  0
   22.8270   -8.8863  -14.2323 C   0  0  0  0  0  0  0  0  0  0  0  0
   23.0890   -9.9434  -13.3849 C   0  0  0  0  0  0  0  0  0  0  0  0
   22.3690  -10.0670  -12.2199 C   0  0  0  0  0  0  0  0  0  0  0  0
   21.4065   -9.1548  -11.9054 C   0  0  0  0  0  0  0  0  0  0  0  0
   21.1608   -8.1037  -12.7691 C   0  0  0  0  0  0  0  0  0  0  0  0
   19.8129   -5.8726  -16.3407 C   0  0  0  0  0  0  0  0  0  0  0  0
   20.4642   -5.1786  -17.1719 O   0  0  0  0  0  0  0  0  0  0  0  0
   16.4488   -4.1008  -16.5084 C   0  0  0  0  0  0  0  0  0  0  0  0
   17.9576   -4.1682  -16.5674 C   0  0  2  0  0  0  0  0  0  0  0  0
   18.4931   -5.3872  -16.0560 N   0  0  0  0  0  0  0  0  0  0  0  0
   18.5111   -2.9679  -15.8892 C   0  0  0  0  0  0  0  0  0  0  0  0
   18.1739   -1.8399  -16.2923 O   0  0  0  0  0  0  0  0  0  0  0  0
   19.3859   -3.0695  -14.8280 O   0  0  0  0  0  0  0  0  0  0  0  0
  2  1  1  0
  3  2  2  0
  4  2  1  0
  5  4  1  0
  6  5  1  0
  6  7  1  1
  8  6  1  0
  8 10  1  0
  9  8  2  0
 11 10  1  0
 11 12  1  6
 12 13  1  0
 13 18  2  0
 13 14  1  0
 14 15  2  0
 15 16  1  0
 17 16  2  0
 18 17  1  0
 19 11  1  0
 20 19  2  0
 22 21  1  1
 22 24  1  0
 22 23  1  0
 23 19  1  0
 24 26  1  0
 25 24  2  0
M  END
$$$$
