QFA.pdb
     RDKit          3D

 26 26  0  0  1  0  0  0  0  0999 V2000
   24.8645  -18.7210  -16.5019 N   0  0  0  0  0  0  0  0  0  0  0  0
   24.4321  -19.5402  -17.5637 C   0  0  0  0  0  0  0  0  0  0  0  0
   24.4637  -19.0665  -18.7251 O   0  0  0  0  0  0  0  0  0  0  0  0
   23.9667  -20.9010  -17.2648 C   0  0  0  0  0  0  0  0  0  0  0  0
   24.2002  -21.2780  -15.8459 C   0  0  0  0  0  0  0  0  0  0  0  0
   25.5970  -21.6526  -15.4861 C   0  0  2  0  0  0  0  0  0  0  0  0
   25.8717  -22.9192  -16.1889 N   0  0  0  0  0  0  0  0  0  0  0  0
   25.8025  -21.8423  -14.0252 C   0  0  0  0  0  0  0  0  0  0  0  0
   25.4967  -22.9482  -13.5120 O   0  0  0  0  0  0  0  0  0  0  0  0
   26.3232  -20.8484  -13.1780 N   0  0  0  0  0  0  0  0  0  0  0  0
   26.3932  -20.9547  -11.7328 C   0  0  1  0  0  0  0  0  0  0  0  0
   27.3968  -19.9328  -11.2609 C   0  0  0  0  0  0  0  0  0  0  0  0
   27.4981  -19.9179   -9.7783 C   0  0  0  0  0  0  0  0  0  0  0  0
   28.3638  -20.7669   -9.1141 C   0  0  0  0  0  0  0  0  0  0  0  0
   28.4768  -20.7729   -7.7389 C   0  0  0  0  0  0  0  0  0  0  0  0
   27.7068  -19.9090   -6.9962 C   0  0  0  0  0  0  0  0  0  0  0  0
   26.8408  -19.0557   -7.6120 C   0  0  0  0  0  0  0  0  0  0  0  0
   26.7438  -19.0668   -8.9910 C   0  0  0  0  0  0  0  0  0  0  0  0
   25.0503  -20.7608  -11.1997 C   0  0  0  0  0  0  0  0  0  0  0  0
   24.2500  -19.9228  -11.7036 O   0  0  0  0  0  0  0  0  0  0  0  0
   23.0118  -22.0232   -8.2214 C   0  0  0  0  0  0  0  0  0  0  0  0
   23.2278  -21.2972   -9.5295 C   0  0  2  0  0  0  0  0  0  0  0  0
   24.5299  -21.4898  -10.0788 N   0  0  0  0  0  0  0  0  0  0  0  0
   22.8923  -19.8632   -9.3350 C   0  0  0  0  0  0  0  0  0  0  0  0
   23.8166  -19.0446   -9.1795 O   0  0  0  0  0  0  0  0  0  0  0  0
   21.5880  -19.4156   -9.3220 O   0  0  0  0  0  0  0  0  0  0  0  0
  2  1  1  0
  3  2  2  0
  4  2  1  0
  5  4  1  0
  6  5  1  0
  6  7  1  6
  8  6  1  0
  8 10  1  0
  9  8  2  0
 11 10  1  0
 11 12  1  1
 12 13  1  0
 13 18  2  0
 13 14  1  0
 14 15  2  0
 15 16  1  0
 17 16  2  0
 18 17  1  0
 19 11  1  0
 20 19  2  0
 22 21  1  1
 22 24  1  0
 22 23  1  0
 23 19  1  0
 24 26  1  0
 25 24  2  0
M  END
$$$$
