QFA.pdb
     RDKit          3D

 26 26  0  0  1  0  0  0  0  0999 V2000
   21.3469  -21.4192  -17.1279 N   0  0  0  0  0  0  0  0  0  0  0  0
   19.9780  -21.1195  -16.9803 C   0  0  0  0  0  0  0  0  0  0  0  0
   19.1537  -21.7734  -17.6637 O   0  0  0  0  0  0  0  0  0  0  0  0
   19.5812  -20.0625  -16.0406 C   0  0  0  0  0  0  0  0  0  0  0  0
   20.7343  -19.5372  -15.2630 C   0  0  0  0  0  0  0  0  0  0  0  0
   21.3670  -20.4854  -14.3031 C   0  0  2  0  0  0  0  0  0  0  0  0
   20.4600  -20.5547  -13.1429 N   0  0  0  0  0  0  0  0  0  0  0  0
   22.7179  -20.0579  -13.8507 C   0  0  0  0  0  0  0  0  0  0  0  0
   22.8474  -18.9217  -13.3290 O   0  0  0  0  0  0  0  0  0  0  0  0
   23.8680  -20.8573  -13.9737 N   0  0  0  0  0  0  0  0  0  0  0  0
   25.1989  -20.4507  -13.5637 C   0  0  1  0  0  0  0  0  0  0  0  0
   25.7329  -21.5305  -12.6564 C   0  0  0  0  0  0  0  0  0  0  0  0
   25.4429  -21.2313  -11.2299 C   0  0  0  0  0  0  0  0  0  0  0  0
   26.4319  -20.7651  -10.3837 C   0  0  0  0  0  0  0  0  0  0  0  0
   26.1889  -20.4799   -9.0557 C   0  0  0  0  0  0  0  0  0  0  0  0
   24.9239  -20.6623   -8.5483 C   0  0  0  0  0  0  0  0  0  0  0  0
   23.9205  -21.1202   -9.3488 C   0  0  0  0  0  0  0  0  0  0  0  0
   24.1866  -21.3996  -10.6763 C   0  0  0  0  0  0  0  0  0  0  0  0
   25.9958  -20.2344  -14.7652 C   0  0  0  0  0  0  0  0  0  0  0  0
   25.9775  -21.0500  -15.7302 O   0  0  0  0  0  0  0  0  0  0  0  0
   28.5361  -17.6617  -16.0209 C   0  0  0  0  0  0  0  0  0  0  0  0
   27.6201  -18.8588  -16.1319 C   0  0  2  0  0  0  0  0  0  0  0  0
   26.8533  -19.0997  -14.9536 N   0  0  0  0  0  0  0  0  0  0  0  0
   28.4284  -20.0357  -16.5423 C   0  0  0  0  0  0  0  0  0  0  0  0
   28.8790  -20.0817  -17.7014 O   0  0  0  0  0  0  0  0  0  0  0  0
   28.6923  -21.0759  -15.6762 O   0  0  0  0  0  0  0  0  0  0  0  0
  2  1  1  0
  3  2  2  0
  4  2  1  0
  5  4  1  0
  6  5  1  0
  6  7  1  1
  8  6  1  0
  8 10  1  0
  9  8  2  0
 11 10  1  0
 11 12  1  1
 12 13  1  0
 13 18  2  0
 13 14  1  0
 14 15  2  0
 15 16  1  0
 17 16  2  0
 18 17  1  0
 19 11  1  0
 20 19  2  0
 22 21  1  1
 22 24  1  0
 22 23  1  0
 23 19  1  0
 24 26  1  0
 25 24  2  0
M  END
$$$$
