QFA.pdb
     RDKit          3D

 26 26  0  0  1  0  0  0  0  0999 V2000
   27.4546  -19.9284  -17.4913 N   0  0  0  0  0  0  0  0  0  0  0  0
   28.7319  -19.3723  -17.2795 C   0  0  0  0  0  0  0  0  0  0  0  0
   29.2390  -18.6904  -18.2025 O   0  0  0  0  0  0  0  0  0  0  0  0
   29.4068  -19.6150  -15.9977 C   0  0  0  0  0  0  0  0  0  0  0  0
   28.5800  -20.4318  -15.0706 C   0  0  0  0  0  0  0  0  0  0  0  0
   27.4168  -19.7416  -14.4451 C   0  0  2  0  0  0  0  0  0  0  0  0
   27.9782  -18.6183  -13.6728 N   0  0  0  0  0  0  0  0  0  0  0  0
   26.6240  -20.6170  -13.5408 C   0  0  0  0  0  0  0  0  0  0  0  0
   26.5741  -21.8488  -13.7854 O   0  0  0  0  0  0  0  0  0  0  0  0
   25.9214  -20.1427  -12.4191 N   0  0  0  0  0  0  0  0  0  0  0  0
   24.9950  -20.9365  -11.6339 C   0  0  1  0  0  0  0  0  0  0  0  0
   25.0186  -20.3861  -10.2300 C   0  0  0  0  0  0  0  0  0  0  0  0
   26.3469  -20.5835   -9.5934 C   0  0  0  0  0  0  0  0  0  0  0  0
   26.6725  -19.9463   -8.4105 C   0  0  0  0  0  0  0  0  0  0  0  0
   27.8983  -20.1126   -7.7991 C   0  0  0  0  0  0  0  0  0  0  0  0
   28.8333  -20.9377   -8.3785 C   0  0  0  0  0  0  0  0  0  0  0  0
   28.5523  -21.5846   -9.5447 C   0  0  0  0  0  0  0  0  0  0  0  0
   27.3178  -21.4033  -10.1397 C   0  0  0  0  0  0  0  0  0  0  0  0
   23.6880  -20.8731  -12.2765 C   0  0  0  0  0  0  0  0  0  0  0  0
   23.0902  -19.7749  -12.4594 O   0  0  0  0  0  0  0  0  0  0  0  0
   21.3619  -23.2556  -14.1318 C   0  0  0  0  0  0  0  0  0  0  0  0
   21.7076  -21.9842  -13.3910 C   0  0  2  0  0  0  0  0  0  0  0  0
   22.9801  -22.0284  -12.7482 N   0  0  0  0  0  0  0  0  0  0  0  0
   20.6002  -21.6681  -12.4526 C   0  0  0  0  0  0  0  0  0  0  0  0
   19.4697  -21.4290  -12.9146 O   0  0  0  0  0  0  0  0  0  0  0  0
   20.7903  -21.6325  -11.0872 O   0  0  0  0  0  0  0  0  0  0  0  0
  2  1  1  0
  3  2  2  0
  4  2  1  0
  5  4  1  0
  6  5  1  0
  6  7  1  1
  8  6  1  0
  8 10  1  0
  9  8  2  0
 11 10  1  0
 11 12  1  1
 12 13  1  0
 13 18  2  0
 13 14  1  0
 14 15  2  0
 15 16  1  0
 17 16  2  0
 18 17  1  0
 19 11  1  0
 20 19  2  0
 22 21  1  1
 22 24  1  0
 22 23  1  0
 23 19  1  0
 24 26  1  0
 25 24  2  0
M  END
$$$$
