QFA.pdb
     RDKit          3D

 26 26  0  0  1  0  0  0  0  0999 V2000
   25.0150  -31.3016   -7.3991 N   0  0  0  0  0  0  0  0  0  0  0  0
   24.1695  -31.4377   -8.5180 C   0  0  0  0  0  0  0  0  0  0  0  0
   23.5462  -30.4232   -8.9136 O   0  0  0  0  0  0  0  0  0  0  0  0
   24.0563  -32.7515   -9.1652 C   0  0  0  0  0  0  0  0  0  0  0  0
   24.9726  -33.7567   -8.5649 C   0  0  0  0  0  0  0  0  0  0  0  0
   26.3275  -33.8600   -9.1768 C   0  0  2  0  0  0  0  0  0  0  0  0
   26.1463  -34.5914  -10.4439 N   0  0  0  0  0  0  0  0  0  0  0  0
   27.3097  -34.5819   -8.3244 C   0  0  0  0  0  0  0  0  0  0  0  0
   27.4948  -35.8088   -8.5249 O   0  0  0  0  0  0  0  0  0  0  0  0
   28.0491  -33.9667   -7.2989 N   0  0  0  0  0  0  0  0  0  0  0  0
   29.0476  -34.6390   -6.4890 C   0  0  1  0  0  0  0  0  0  0  0  0
   30.1579  -33.6490   -6.2414 C   0  0  0  0  0  0  0  0  0  0  0  0
   31.2695  -34.2638   -5.4700 C   0  0  0  0  0  0  0  0  0  0  0  0
   32.3130  -34.9052   -6.1111 C   0  0  0  0  0  0  0  0  0  0  0  0
   33.3568  -35.4839   -5.4185 C   0  0  0  0  0  0  0  0  0  0  0  0
   33.3677  -35.4255   -4.0447 C   0  0  0  0  0  0  0  0  0  0  0  0
   32.3579  -34.8026   -3.3740 C   0  0  0  0  0  0  0  0  0  0  0  0
   31.3223  -34.2296   -4.0883 C   0  0  0  0  0  0  0  0  0  0  0  0
   28.3971  -35.1200   -5.2763 C   0  0  0  0  0  0  0  0  0  0  0  0
   27.7289  -34.3492   -4.5304 O   0  0  0  0  0  0  0  0  0  0  0  0
   27.3863  -38.4061   -3.7396 C   0  0  0  0  0  0  0  0  0  0  0  0
   27.8404  -36.9678   -3.6410 C   0  0  2  0  0  0  0  0  0  0  0  0
   28.4571  -36.4829   -4.8322 N   0  0  0  0  0  0  0  0  0  0  0  0
   28.7107  -36.8281   -2.4452 C   0  0  0  0  0  0  0  0  0  0  0  0
   29.9453  -36.8864   -2.5894 O   0  0  0  0  0  0  0  0  0  0  0  0
   28.1890  -36.6359   -1.1831 O   0  0  0  0  0  0  0  0  0  0  0  0
  2  1  1  0
  3  2  2  0
  4  2  1  0
  5  4  1  0
  6  5  1  0
  6  7  1  6
  8  6  1  0
  8 10  1  0
  9  8  2  0
 11 10  1  0
 11 12  1  1
 12 13  1  0
 13 18  2  0
 13 14  1  0
 14 15  2  0
 15 16  1  0
 17 16  2  0
 18 17  1  0
 19 11  1  0
 20 19  2  0
 22 21  1  6
 22 24  1  0
 22 23  1  0
 23 19  1  0
 24 26  1  0
 25 24  2  0
M  END
$$$$
