LFP.pdb
     RDKit          3D

 27 28  0  0  1  0  0  0  0  0999 V2000
   24.6854  -15.9365  -19.9273 C   0  0  0  0  0  0  0  0  0  0  0  0
   26.0262  -16.0333  -19.2255 C   0  0  1  0  0  0  0  0  0  0  0  0
   26.0471  -14.9518  -18.1588 C   0  0  0  0  0  0  0  0  0  0  0  0
   26.1214  -17.3567  -18.5168 C   0  0  0  0  0  0  0  0  0  0  0  0
   27.3900  -17.4990  -17.7080 C   0  0  2  0  0  0  0  0  0  0  0  0
   28.5541  -17.6799  -18.5096 N   0  0  0  0  0  0  0  0  0  0  0  0
   27.1749  -18.5442  -16.7040 C   0  0  0  0  0  0  0  0  0  0  0  0
   27.4757  -19.7325  -16.9861 O   0  0  0  0  0  0  0  0  0  0  0  0
   26.6409  -18.3005  -15.4135 N   0  0  0  0  0  0  0  0  0  0  0  0
   26.4367  -19.4234  -14.4377 C   0  0  1  0  0  0  0  0  0  0  0  0
   26.7985  -18.8108  -13.0742 C   0  0  0  0  0  0  0  0  0  0  0  0
   26.5831  -19.5986  -11.9021 C   0  0  0  0  0  0  0  0  0  0  0  0
   27.4541  -20.5837  -11.5013 C   0  0  0  0  0  0  0  0  0  0  0  0
   27.2539  -21.3037  -10.3235 C   0  0  0  0  0  0  0  0  0  0  0  0
   26.1701  -21.0417   -9.5292 C   0  0  0  0  0  0  0  0  0  0  0  0
   25.2637  -20.0512   -9.9014 C   0  0  0  0  0  0  0  0  0  0  0  0
   25.4879  -19.3477  -11.0832 C   0  0  0  0  0  0  0  0  0  0  0  0
   25.0144  -19.8160  -14.4552 C   0  0  0  0  0  0  0  0  0  0  0  0
   24.2056  -18.8351  -14.2809 O   0  0  0  0  0  0  0  0  0  0  0  0
   24.5288  -21.1375  -14.6500 N   0  0  0  0  0  0  0  0  0  0  0  0
   25.3136  -22.1728  -15.2695 C   0  0  0  0  0  0  0  0  0  0  0  0
   25.0444  -23.4000  -14.4568 C   0  0  0  0  0  0  0  0  0  0  0  0
   23.8213  -23.0369  -13.6453 C   0  0  0  0  0  0  0  0  0  0  0  0
   23.3119  -21.7735  -14.3716 C   0  0  1  0  0  0  0  0  0  0  0  0
   22.2085  -21.1521  -13.7345 C   0  0  0  0  0  0  0  0  0  0  0  0
   21.0665  -21.3513  -14.3055 O   0  0  0  0  0  0  0  0  0  0  0  0
   22.0847  -20.3700  -12.6225 O   0  0  0  0  0  0  0  0  0  0  0  0
  2  1  1  1
  3  2  1  0
  4  2  1  0
  5  4  1  0
  5  6  1  6
  7  8  2  0
  7  5  1  0
  9  7  1  0
 10  9  1  0
 10 11  1  1
 11 12  1  0
 12 17  1  0
 12 13  2  0
 13 14  1  0
 14 15  2  0
 16 15  1  0
 17 16  2  0
 18 10  1  0
 19 18  2  0
 20 21  1  0
 20 18  1  0
 22 21  1  0
 23 24  1  0
 23 22  1  0
 24 20  1  0
 25 27  1  0
 24 25  1  1
 26 25  2  0
M  END
$$$$
