LFP.pdb
     RDKit          3D

 27 28  0  0  1  0  0  0  0  0999 V2000
   31.2517  -21.1525  -19.3716 C   0  0  0  0  0  0  0  0  0  0  0  0
   30.0267  -20.3786  -18.9243 C   0  0  1  0  0  0  0  0  0  0  0  0
   29.4212  -19.7502  -20.1679 C   0  0  0  0  0  0  0  0  0  0  0  0
   29.0081  -21.3374  -18.3714 C   0  0  0  0  0  0  0  0  0  0  0  0
   27.8131  -20.6385  -17.7654 C   0  0  2  0  0  0  0  0  0  0  0  0
   27.8178  -19.2287  -17.9723 N   0  0  0  0  0  0  0  0  0  0  0  0
   27.7105  -21.0466  -16.3619 C   0  0  0  0  0  0  0  0  0  0  0  0
   27.9894  -22.2325  -16.0493 O   0  0  0  0  0  0  0  0  0  0  0  0
   27.3108  -20.1781  -15.3151 N   0  0  0  0  0  0  0  0  0  0  0  0
   26.9742  -20.7140  -13.9533 C   0  0  1  0  0  0  0  0  0  0  0  0
   27.6996  -19.7661  -12.9834 C   0  0  0  0  0  0  0  0  0  0  0  0
   27.5259  -19.9739  -11.5807 C   0  0  0  0  0  0  0  0  0  0  0  0
   26.5455  -19.3412  -10.8540 C   0  0  0  0  0  0  0  0  0  0  0  0
   26.3576  -19.6005   -9.4963 C   0  0  0  0  0  0  0  0  0  0  0  0
   27.1567  -20.5034   -8.8480 C   0  0  0  0  0  0  0  0  0  0  0  0
   28.1624  -21.1649   -9.5497 C   0  0  0  0  0  0  0  0  0  0  0  0
   28.3282  -20.8865  -10.9050 C   0  0  0  0  0  0  0  0  0  0  0  0
   25.5149  -20.6231  -13.7538 C   0  0  0  0  0  0  0  0  0  0  0  0
   25.0395  -19.4468  -13.9460 O   0  0  0  0  0  0  0  0  0  0  0  0
   24.6661  -21.7038  -13.3906 N   0  0  0  0  0  0  0  0  0  0  0  0
   25.0600  -23.0820  -13.5208 C   0  0  0  0  0  0  0  0  0  0  0  0
   24.5594  -23.7458  -12.2768 C   0  0  0  0  0  0  0  0  0  0  0  0
   23.5845  -22.7451  -11.6985 C   0  0  0  0  0  0  0  0  0  0  0  0
   23.3617  -21.7839  -12.8858 C   0  0  1  0  0  0  0  0  0  0  0  0
   22.5520  -20.6635  -12.5718 C   0  0  0  0  0  0  0  0  0  0  0  0
   21.2796  -20.8655  -12.6717 O   0  0  0  0  0  0  0  0  0  0  0  0
   22.8286  -19.3863  -12.1772 O   0  0  0  0  0  0  0  0  0  0  0  0
  2  1  1  6
  3  2  1  0
  4  2  1  0
  5  4  1  0
  5  6  1  1
  7  8  2  0
  7  5  1  0
  9  7  1  0
 10  9  1  0
 10 11  1  1
 11 12  1  0
 12 17  1  0
 12 13  2  0
 13 14  1  0
 14 15  2  0
 16 15  1  0
 17 16  2  0
 18 10  1  0
 19 18  2  0
 20 21  1  0
 20 18  1  0
 22 21  1  0
 23 24  1  0
 23 22  1  0
 24 20  1  0
 25 27  1  0
 24 25  1  1
 26 25  2  0
M  END
$$$$
