LFP.pdb
     RDKit          3D

 27 28  0  0  1  0  0  0  0  0999 V2000
   23.3544  -23.1150  -14.2114 C   0  0  0  0  0  0  0  0  0  0  0  0
   23.1052  -21.7678  -13.5613 C   0  0  1  0  0  0  0  0  0  0  0  0
   21.9859  -21.9628  -12.5527 C   0  0  0  0  0  0  0  0  0  0  0  0
   24.3291  -21.3543  -12.7906 C   0  0  0  0  0  0  0  0  0  0  0  0
   24.1537  -20.0349  -12.0752 C   0  0  2  0  0  0  0  0  0  0  0  0
   23.8699  -18.9491  -12.9532 N   0  0  0  0  0  0  0  0  0  0  0  0
   25.3176  -19.8283  -11.2093 C   0  0  0  0  0  0  0  0  0  0  0  0
   26.3338  -19.2553  -11.6795 O   0  0  0  0  0  0  0  0  0  0  0  0
   25.3749  -20.2386   -9.8536 N   0  0  0  0  0  0  0  0  0  0  0  0
   26.6346  -20.0807   -9.0516 C   0  0  1  0  0  0  0  0  0  0  0  0
   26.1717  -20.2074   -7.5904 C   0  0  0  0  0  0  0  0  0  0  0  0
   27.1335  -19.9893   -6.5568 C   0  0  0  0  0  0  0  0  0  0  0  0
   27.5785  -20.9970   -5.7345 C   0  0  0  0  0  0  0  0  0  0  0  0
   28.5592  -20.7743   -4.7679 C   0  0  0  0  0  0  0  0  0  0  0  0
   29.1081  -19.5296   -4.6143 C   0  0  0  0  0  0  0  0  0  0  0  0
   28.6830  -18.4816   -5.4281 C   0  0  0  0  0  0  0  0  0  0  0  0
   27.7017  -18.7320   -6.3852 C   0  0  0  0  0  0  0  0  0  0  0  0
   27.5547  -21.1839   -9.3889 C   0  0  0  0  0  0  0  0  0  0  0  0
   26.9918  -22.3368   -9.4131 O   0  0  0  0  0  0  0  0  0  0  0  0
   28.9393  -21.0408   -9.6763 N   0  0  0  0  0  0  0  0  0  0  0  0
   29.5697  -19.7593   -9.8552 C   0  0  0  0  0  0  0  0  0  0  0  0
   30.8805  -19.8710   -9.1423 C   0  0  0  0  0  0  0  0  0  0  0  0
   31.0482  -21.3575   -8.9216 C   0  0  0  0  0  0  0  0  0  0  0  0
   29.9869  -21.9498   -9.8735 C   0  0  1  0  0  0  0  0  0  0  0  0
   29.8561  -23.3582   -9.7804 C   0  0  0  0  0  0  0  0  0  0  0  0
   30.2193  -24.0102  -10.8353 O   0  0  0  0  0  0  0  0  0  0  0  0
   29.4198  -24.1977   -8.7963 O   0  0  0  0  0  0  0  0  0  0  0  0
  2  1  1  1
  3  2  1  0
  4  2  1  0
  5  4  1  0
  5  6  1  6
  7  8  2  0
  7  5  1  0
  9  7  1  0
 10  9  1  0
 10 11  1  1
 11 12  1  0
 12 17  1  0
 12 13  2  0
 13 14  1  0
 14 15  2  0
 16 15  1  0
 17 16  2  0
 18 10  1  0
 19 18  2  0
 20 21  1  0
 20 18  1  0
 22 21  1  0
 23 24  1  0
 23 22  1  0
 24 20  1  0
 25 27  1  0
 24 25  1  1
 26 25  2  0
M  END
$$$$
