LFP.pdb
     RDKit          3D

 27 28  0  0  1  0  0  0  0  0999 V2000
   22.2209  -20.4969  -13.1747 C   0  0  0  0  0  0  0  0  0  0  0  0
   23.7349  -20.5078  -13.2604 C   0  0  1  0  0  0  0  0  0  0  0  0
   24.1699  -19.0910  -13.5943 C   0  0  0  0  0  0  0  0  0  0  0  0
   24.3064  -20.8400  -11.9093 C   0  0  0  0  0  0  0  0  0  0  0  0
   25.8162  -20.7825  -11.8808 C   0  0  2  0  0  0  0  0  0  0  0  0
   26.4311  -21.5674  -12.8987 N   0  0  0  0  0  0  0  0  0  0  0  0
   26.2582  -21.0978  -10.5198 C   0  0  0  0  0  0  0  0  0  0  0  0
   26.3365  -22.3027  -10.1674 O   0  0  0  0  0  0  0  0  0  0  0  0
   26.6094  -20.1177   -9.5576 N   0  0  0  0  0  0  0  0  0  0  0  0
   27.0446  -20.5134   -8.1759 C   0  0  1  0  0  0  0  0  0  0  0  0
   28.0097  -19.3949   -7.7480 C   0  0  0  0  0  0  0  0  0  0  0  0
   28.5127  -19.4128   -6.4110 C   0  0  0  0  0  0  0  0  0  0  0  0
   29.5344  -20.2428   -6.0150 C   0  0  0  0  0  0  0  0  0  0  0  0
   30.0482  -20.2050   -4.7187 C   0  0  0  0  0  0  0  0  0  0  0  0
   29.5392  -19.3281   -3.7989 C   0  0  0  0  0  0  0  0  0  0  0  0
   28.5024  -18.4708   -4.1614 C   0  0  0  0  0  0  0  0  0  0  0  0
   28.0080  -18.5301   -5.4628 C   0  0  0  0  0  0  0  0  0  0  0  0
   25.8635  -20.5291   -7.2914 C   0  0  0  0  0  0  0  0  0  0  0  0
   25.2468  -19.4053   -7.2333 O   0  0  0  0  0  0  0  0  0  0  0  0
   25.4023  -21.6545   -6.5560 N   0  0  0  0  0  0  0  0  0  0  0  0
   25.7316  -23.0087   -6.9154 C   0  0  0  0  0  0  0  0  0  0  0  0
   26.0186  -23.6940   -5.6166 C   0  0  0  0  0  0  0  0  0  0  0  0
   25.4634  -22.7475   -4.5763 C   0  0  0  0  0  0  0  0  0  0  0  0
   24.5851  -21.8062   -5.4281 C   0  0  1  0  0  0  0  0  0  0  0  0
   24.0194  -20.7321   -4.6962 C   0  0  0  0  0  0  0  0  0  0  0  0
   22.8517  -20.9688   -4.1959 O   0  0  0  0  0  0  0  0  0  0  0  0
   24.4483  -19.4712   -4.3965 O   0  0  0  0  0  0  0  0  0  0  0  0
  2  1  1  1
  3  2  1  0
  4  2  1  0
  5  4  1  0
  5  6  1  6
  7  8  2  0
  7  5  1  0
  9  7  1  0
 10  9  1  0
 10 11  1  1
 11 12  1  0
 12 17  1  0
 12 13  2  0
 13 14  1  0
 14 15  2  0
 16 15  1  0
 17 16  2  0
 18 10  1  0
 19 18  2  0
 20 21  1  0
 20 18  1  0
 22 21  1  0
 23 24  1  0
 23 22  1  0
 24 20  1  0
 25 27  1  0
 24 25  1  1
 26 25  2  0
M  END
$$$$
