ICD.pdb
     RDKit          3D

 23 22  0  0  1  0  0  0  0  0999 V2000
   28.7903  -19.6939   -3.8827 C   0  0  0  0  0  0  0  0  0  0  0  0
   27.5692  -19.7605   -4.7470 C   0  0  0  0  0  0  0  0  0  0  0  0
   27.8702  -19.9630   -6.2121 C   0  0  2  0  0  0  0  0  0  0  0  0
   28.7100  -18.8208   -6.7444 C   0  0  0  0  0  0  0  0  0  0  0  0
   26.6058  -20.0093   -7.0436 C   0  0  2  0  0  0  0  0  0  0  0  0
   25.7128  -20.9491   -6.4133 N   0  0  0  0  0  0  0  0  0  0  0  0
   26.8847  -20.3714   -8.4567 C   0  0  0  0  0  0  0  0  0  0  0  0
   28.0677  -20.6979   -8.7304 O   0  0  0  0  0  0  0  0  0  0  0  0
   25.9387  -20.3724   -9.4772 N   0  0  0  0  0  0  0  0  0  0  0  0
   26.1983  -20.7354  -10.8766 C   0  0  1  0  0  0  0  0  0  0  0  0
   26.6101  -22.1820  -10.9577 C   0  0  0  0  0  0  0  0  0  0  0  0
   26.8816  -22.6482  -12.6726 S   0  0  0  0  0  0  0  0  0  0  0  0
   24.9601  -20.4028  -11.5966 C   0  0  0  0  0  0  0  0  0  0  0  0
   23.8288  -20.5584  -11.0572 O   0  0  0  0  0  0  0  0  0  0  0  0
   24.9939  -19.9013  -12.8992 N   0  0  0  0  0  0  0  0  0  0  0  0
   23.8076  -19.4532  -13.6196 C   0  0  1  0  0  0  0  0  0  0  0  0
   24.2321  -18.3230  -14.5237 C   0  0  0  0  0  0  0  0  0  0  0  0
   23.1040  -17.6774  -15.2351 C   0  0  0  0  0  0  0  0  0  0  0  0
   21.9160  -17.9678  -14.9069 O   0  0  0  0  0  0  0  0  0  0  0  0
   23.1565  -20.5383  -14.3481 C   0  0  0  0  0  0  0  0  0  0  0  0
   23.8245  -21.3330  -15.0445 O   0  0  0  0  0  0  0  0  0  0  0  0
   23.2377  -16.7572  -16.2594 O   0  0  0  0  0  0  0  0  0  0  0  0
   21.7853  -20.7007  -14.2763 O   0  0  0  0  0  0  0  0  0  0  0  0
  2  1  1  0
  2  3  1  0
  3  4  1  6
  5  3  1  0
  5  6  1  1
  7  5  1  0
  7  8  2  0
  9 10  1  0
  9  7  1  0
 11 12  1  0
 10 11  1  1
 13 10  1  0
 13 14  2  0
 15 13  1  0
 16 15  1  0
 16 20  1  0
 16 17  1  6
 18 17  1  0
 18 22  1  0
 19 18  2  0
 20 21  2  0
 20 23  1  0
M  END
$$$$
