ICD.pdb
     RDKit          3D

 23 22  0  0  1  0  0  0  0  0999 V2000
   27.5046  -19.8392   -6.4444 C   0  0  0  0  0  0  0  0  0  0  0  0
   27.8108  -20.6791   -7.6459 C   0  0  0  0  0  0  0  0  0  0  0  0
   26.8778  -20.4423   -8.8085 C   0  0  2  0  0  0  0  0  0  0  0  0
   25.4633  -20.8417   -8.4439 C   0  0  0  0  0  0  0  0  0  0  0  0
   27.2718  -21.2604  -10.0199 C   0  0  2  0  0  0  0  0  0  0  0  0
   28.6920  -21.0962  -10.2042 N   0  0  0  0  0  0  0  0  0  0  0  0
   26.5062  -20.8641  -11.2293 C   0  0  0  0  0  0  0  0  0  0  0  0
   26.4033  -19.6306  -11.4503 O   0  0  0  0  0  0  0  0  0  0  0  0
   25.9073  -21.7535  -12.1161 N   0  0  0  0  0  0  0  0  0  0  0  0
   25.2596  -21.3851  -13.3819 C   0  0  1  0  0  0  0  0  0  0  0  0
   25.7486  -22.2882  -14.4838 C   0  0  0  0  0  0  0  0  0  0  0  0
   27.5452  -22.2655  -14.5450 S   0  0  0  0  0  0  0  0  0  0  0  0
   23.8161  -21.4626  -13.1126 C   0  0  0  0  0  0  0  0  0  0  0  0
   23.3758  -22.0093  -12.0627 O   0  0  0  0  0  0  0  0  0  0  0  0
   22.8845  -20.9319  -14.0070 N   0  0  0  0  0  0  0  0  0  0  0  0
   21.4555  -20.8520  -13.7266 C   0  0  1  0  0  0  0  0  0  0  0  0
   21.2674  -19.8148  -12.6478 C   0  0  0  0  0  0  0  0  0  0  0  0
   19.8511  -19.6083  -12.2646 C   0  0  0  0  0  0  0  0  0  0  0  0
   18.9455  -20.2627  -12.8604 O   0  0  0  0  0  0  0  0  0  0  0  0
   20.6694  -20.5641  -14.9230 C   0  0  0  0  0  0  0  0  0  0  0  0
   19.8000  -21.3667  -15.3263 O   0  0  0  0  0  0  0  0  0  0  0  0
   19.4164  -18.7355  -11.2833 O   0  0  0  0  0  0  0  0  0  0  0  0
   20.8783  -19.3934  -15.6283 O   0  0  0  0  0  0  0  0  0  0  0  0
  2  1  1  0
  2  3  1  0
  3  4  1  1
  5  3  1  0
  5  6  1  6
  7  5  1  0
  7  8  2  0
  9 10  1  0
  9  7  1  0
 11 12  1  0
 10 11  1  6
 13 10  1  0
 13 14  2  0
 15 13  1  0
 16 15  1  0
 16 20  1  0
 16 17  1  1
 18 17  1  0
 18 22  1  0
 19 18  2  0
 20 21  2  0
 20 23  1  0
M  END
$$$$
