ICD.pdb
     RDKit          3D

 23 22  0  0  1  0  0  0  0  0999 V2000
   28.6506  -12.1434  -16.2613 C   0  0  0  0  0  0  0  0  0  0  0  0
   27.2261  -12.5872  -16.1325 C   0  0  0  0  0  0  0  0  0  0  0  0
   26.2207  -11.4951  -16.4053 C   0  0  2  0  0  0  0  0  0  0  0  0
   26.3741  -10.3699  -15.4034 C   0  0  0  0  0  0  0  0  0  0  0  0
   24.7982  -12.0005  -16.2907 C   0  0  2  0  0  0  0  0  0  0  0  0
   24.6856  -13.1595  -17.1403 N   0  0  0  0  0  0  0  0  0  0  0  0
   23.8074  -10.9531  -16.6474 C   0  0  0  0  0  0  0  0  0  0  0  0
   23.8218  -10.5477  -17.8376 O   0  0  0  0  0  0  0  0  0  0  0  0
   22.8822  -10.4027  -15.7658 N   0  0  0  0  0  0  0  0  0  0  0  0
   21.7800   -9.5069  -16.1401 C   0  0  1  0  0  0  0  0  0  0  0  0
   20.4667  -10.1182  -15.7273 C   0  0  0  0  0  0  0  0  0  0  0  0
   20.2536  -11.7142  -16.5269 S   0  0  0  0  0  0  0  0  0  0  0  0
   22.0935   -8.2216  -15.4982 C   0  0  0  0  0  0  0  0  0  0  0  0
   22.6068   -8.1752  -14.3452 O   0  0  0  0  0  0  0  0  0  0  0  0
   21.8371   -7.0101  -16.1431 N   0  0  0  0  0  0  0  0  0  0  0  0
   22.0722   -5.7075  -15.5307 C   0  0  1  0  0  0  0  0  0  0  0  0
   22.2963   -4.7202  -16.6488 C   0  0  0  0  0  0  0  0  0  0  0  0
   22.4885   -3.3277  -16.1802 C   0  0  0  0  0  0  0  0  0  0  0  0
   22.4831   -3.0850  -14.9374 O   0  0  0  0  0  0  0  0  0  0  0  0
   20.9864   -5.3075  -14.6402 C   0  0  0  0  0  0  0  0  0  0  0  0
   21.1180   -4.3339  -13.8673 O   0  0  0  0  0  0  0  0  0  0  0  0
   22.6780   -2.2343  -17.0061 O   0  0  0  0  0  0  0  0  0  0  0  0
   19.7926   -6.0051  -14.6409 O   0  0  0  0  0  0  0  0  0  0  0  0
  2  1  1  0
  2  3  1  0
  3  4  1  1
  5  3  1  0
  5  6  1  6
  7  5  1  0
  7  8  2  0
  9 10  1  0
  9  7  1  0
 11 12  1  0
 10 11  1  1
 13 10  1  0
 13 14  2  0
 15 13  1  0
 16 15  1  0
 16 20  1  0
 16 17  1  6
 18 17  1  0
 18 22  1  0
 19 18  2  0
 20 21  2  0
 20 23  1  0
M  END
$$$$
