ICD.pdb
     RDKit          3D

 23 22  0  0  1  0  0  0  0  0999 V2000
   16.2177  -12.8475  -18.1045 C   0  0  0  0  0  0  0  0  0  0  0  0
   17.5577  -12.2446  -18.3939 C   0  0  0  0  0  0  0  0  0  0  0  0
   18.1651  -11.5175  -17.2190 C   0  0  2  0  0  0  0  0  0  0  0  0
   17.3123  -10.3271  -16.8329 C   0  0  0  0  0  0  0  0  0  0  0  0
   19.5468  -10.9883  -17.5399 C   0  0  2  0  0  0  0  0  0  0  0  0
   20.3443  -12.1081  -17.9734 N   0  0  0  0  0  0  0  0  0  0  0  0
   20.1561  -10.2897  -16.3795 C   0  0  0  0  0  0  0  0  0  0  0  0
   19.4037  -10.0726  -15.3957 O   0  0  0  0  0  0  0  0  0  0  0  0
   21.4806   -9.8686  -16.3128 N   0  0  0  0  0  0  0  0  0  0  0  0
   22.0772   -9.1120  -15.2041 C   0  0  1  0  0  0  0  0  0  0  0  0
   23.5418   -9.4457  -15.0922 C   0  0  0  0  0  0  0  0  0  0  0  0
   23.7525  -10.9996  -14.2130 S   0  0  0  0  0  0  0  0  0  0  0  0
   21.7844   -7.7015  -15.4991 C   0  0  0  0  0  0  0  0  0  0  0  0
   21.9470   -7.2291  -16.6590 O   0  0  0  0  0  0  0  0  0  0  0  0
   21.3141   -6.8383  -14.5075 N   0  0  0  0  0  0  0  0  0  0  0  0
   21.0457   -5.4229  -14.7345 C   0  0  1  0  0  0  0  0  0  0  0  0
   19.5966   -5.1807  -14.3931 C   0  0  0  0  0  0  0  0  0  0  0  0
   19.1823   -3.7654  -14.5368 C   0  0  0  0  0  0  0  0  0  0  0  0
   19.8914   -2.9789  -15.2311 O   0  0  0  0  0  0  0  0  0  0  0  0
   21.9500   -4.5579  -13.9821 C   0  0  0  0  0  0  0  0  0  0  0  0
   21.9585   -3.3221  -14.1706 O   0  0  0  0  0  0  0  0  0  0  0  0
   18.0545   -3.2090  -13.9606 O   0  0  0  0  0  0  0  0  0  0  0  0
   22.8130   -5.0983  -13.0467 O   0  0  0  0  0  0  0  0  0  0  0  0
  2  1  1  0
  2  3  1  0
  3  4  1  6
  5  3  1  0
  5  6  1  1
  7  5  1  0
  7  8  2  0
  9 10  1  0
  9  7  1  0
 11 12  1  0
 10 11  1  6
 13 10  1  0
 13 14  2  0
 15 13  1  0
 16 15  1  0
 16 20  1  0
 16 17  1  1
 18 17  1  0
 18 22  1  0
 19 18  2  0
 20 21  2  0
 20 23  1  0
M  END
$$$$
