ICD.pdb
     RDKit          3D

 23 22  0  0  1  0  0  0  0  0999 V2000
   20.9227  -12.4105  -18.3509 C   0  0  0  0  0  0  0  0  0  0  0  0
   21.8272  -11.3869  -17.7370 C   0  0  0  0  0  0  0  0  0  0  0  0
   21.1496  -10.5131  -16.7096 C   0  0  2  0  0  0  0  0  0  0  0  0
   20.0099   -9.7397  -17.3392 C   0  0  0  0  0  0  0  0  0  0  0  0
   22.1040   -9.4961  -16.1206 C   0  0  2  0  0  0  0  0  0  0  0  0
   23.1972  -10.2267  -15.5297 N   0  0  0  0  0  0  0  0  0  0  0  0
   21.4320   -8.6108  -15.1355 C   0  0  0  0  0  0  0  0  0  0  0  0
   20.8229   -9.1785  -14.1933 O   0  0  0  0  0  0  0  0  0  0  0  0
   21.4336   -7.2203  -15.1877 N   0  0  0  0  0  0  0  0  0  0  0  0
   20.7919   -6.3322  -14.2095 C   0  0  1  0  0  0  0  0  0  0  0  0
   21.8375   -5.7307  -13.3075 C   0  0  0  0  0  0  0  0  0  0  0  0
   23.0640   -4.8548  -14.2876 S   0  0  0  0  0  0  0  0  0  0  0  0
   20.0328   -5.3609  -15.0112 C   0  0  0  0  0  0  0  0  0  0  0  0
   20.3470   -5.1153  -16.2095 O   0  0  0  0  0  0  0  0  0  0  0  0
   18.9378   -4.6802  -14.4754 N   0  0  0  0  0  0  0  0  0  0  0  0
   18.2541   -3.5901  -15.1619 C   0  0  1  0  0  0  0  0  0  0  0  0
   16.7723   -3.8482  -15.0487 C   0  0  0  0  0  0  0  0  0  0  0  0
   15.9388   -2.8171  -15.7101 C   0  0  0  0  0  0  0  0  0  0  0  0
   16.4773   -2.0164  -16.5301 O   0  0  0  0  0  0  0  0  0  0  0  0
   18.6352   -2.2798  -14.6423 C   0  0  0  0  0  0  0  0  0  0  0  0
   19.1130   -2.1610  -13.4933 O   0  0  0  0  0  0  0  0  0  0  0  0
   14.5818   -2.6452  -15.5039 O   0  0  0  0  0  0  0  0  0  0  0  0
   18.4710   -1.1480  -15.4194 O   0  0  0  0  0  0  0  0  0  0  0  0
  2  1  1  0
  2  3  1  0
  3  4  1  6
  5  3  1  0
  5  6  1  1
  7  5  1  0
  7  8  2  0
  9 10  1  0
  9  7  1  0
 11 12  1  0
 10 11  1  6
 13 10  1  0
 13 14  2  0
 15 13  1  0
 16 15  1  0
 16 20  1  0
 16 17  1  1
 18 17  1  0
 18 22  1  0
 19 18  2  0
 20 21  2  0
 20 23  1  0
M  END
$$$$
