ICD.pdb
     RDKit          3D

 23 22  0  0  1  0  0  0  0  0999 V2000
   20.8562  -12.2784  -20.6289 C   0  0  0  0  0  0  0  0  0  0  0  0
   19.5390  -12.4218  -19.9310 C   0  0  0  0  0  0  0  0  0  0  0  0
   19.2078  -11.2709  -19.0125 C   0  0  2  0  0  0  0  0  0  0  0  0
   19.8224   -9.9864  -19.5279 C   0  0  0  0  0  0  0  0  0  0  0  0
   19.7496  -11.4933  -17.6164 C   0  0  2  0  0  0  0  0  0  0  0  0
   19.3258  -12.8054  -17.1964 N   0  0  0  0  0  0  0  0  0  0  0  0
   19.3014  -10.4373  -16.6731 C   0  0  0  0  0  0  0  0  0  0  0  0
   18.1364   -9.9938  -16.8381 O   0  0  0  0  0  0  0  0  0  0  0  0
   20.0732   -9.9176  -15.6385 N   0  0  0  0  0  0  0  0  0  0  0  0
   19.6743   -8.8184  -14.7498 C   0  0  1  0  0  0  0  0  0  0  0  0
   19.5763   -9.3211  -13.3333 C   0  0  0  0  0  0  0  0  0  0  0  0
   19.2828   -7.9464  -12.2124 S   0  0  0  0  0  0  0  0  0  0  0  0
   20.6781   -7.7656  -14.9651 C   0  0  0  0  0  0  0  0  0  0  0  0
   21.9090   -8.0403  -15.0318 O   0  0  0  0  0  0  0  0  0  0  0  0
   20.3038   -6.4279  -15.1058 N   0  0  0  0  0  0  0  0  0  0  0  0
   21.2593   -5.3382  -15.2691 C   0  0  1  0  0  0  0  0  0  0  0  0
   20.5576   -4.2354  -16.0216 C   0  0  0  0  0  0  0  0  0  0  0  0
   21.4239   -3.0673  -16.3056 C   0  0  0  0  0  0  0  0  0  0  0  0
   21.5222   -2.1440  -15.4446 O   0  0  0  0  0  0  0  0  0  0  0  0
   21.8084   -4.8845  -13.9944 C   0  0  0  0  0  0  0  0  0  0  0  0
   21.0876   -4.8142  -12.9755 O   0  0  0  0  0  0  0  0  0  0  0  0
   22.1571   -2.8896  -17.4650 O   0  0  0  0  0  0  0  0  0  0  0  0
   23.1400   -4.5248  -13.8985 O   0  0  0  0  0  0  0  0  0  0  0  0
  2  1  1  0
  2  3  1  0
  3  4  1  6
  5  3  1  0
  5  6  1  1
  7  5  1  0
  7  8  2  0
  9 10  1  0
  9  7  1  0
 11 12  1  0
 10 11  1  1
 13 10  1  0
 13 14  2  0
 15 13  1  0
 16 15  1  0
 16 20  1  0
 16 17  1  1
 18 17  1  0
 18 22  1  0
 19 18  2  0
 20 21  2  0
 20 23  1  0
M  END
$$$$
