ICD.pdb
     RDKit          3D

 23 22  0  0  1  0  0  0  0  0999 V2000
   27.7540  -19.4613   -4.3764 C   0  0  0  0  0  0  0  0  0  0  0  0
   27.3690  -20.5914   -5.2806 C   0  0  0  0  0  0  0  0  0  0  0  0
   27.4977  -20.2675   -6.7491 C   0  0  2  0  0  0  0  0  0  0  0  0
   28.1836  -18.9309   -6.9398 C   0  0  0  0  0  0  0  0  0  0  0  0
   26.1455  -20.1727   -7.4234 C   0  0  2  0  0  0  0  0  0  0  0  0
   25.4259  -21.3823   -7.1122 N   0  0  0  0  0  0  0  0  0  0  0  0
   26.2701  -19.9628   -8.8884 C   0  0  0  0  0  0  0  0  0  0  0  0
   26.3362  -18.7704   -9.2818 O   0  0  0  0  0  0  0  0  0  0  0  0
   26.3177  -20.9817   -9.8349 N   0  0  0  0  0  0  0  0  0  0  0  0
   26.3813  -20.7884  -11.2895 C   0  0  1  0  0  0  0  0  0  0  0  0
   27.5275  -21.5835  -11.8575 C   0  0  0  0  0  0  0  0  0  0  0  0
   29.0834  -20.9856  -11.1840 S   0  0  0  0  0  0  0  0  0  0  0  0
   25.0528  -21.1749  -11.7876 C   0  0  0  0  0  0  0  0  0  0  0  0
   24.2422  -21.8132  -11.0594 O   0  0  0  0  0  0  0  0  0  0  0  0
   24.6422  -20.8464  -13.0811 N   0  0  0  0  0  0  0  0  0  0  0  0
   23.2431  -20.7257  -13.4745 C   0  0  1  0  0  0  0  0  0  0  0  0
   22.5987  -19.7319  -12.5406 C   0  0  0  0  0  0  0  0  0  0  0  0
   21.1759  -20.0271  -12.2508 C   0  0  0  0  0  0  0  0  0  0  0  0
   20.6241  -21.0237  -12.8035 O   0  0  0  0  0  0  0  0  0  0  0  0
   23.0902  -20.3547  -14.8785 C   0  0  0  0  0  0  0  0  0  0  0  0
   22.5046  -21.1134  -15.6810 O   0  0  0  0  0  0  0  0  0  0  0  0
   20.3710  -19.2863  -11.4040 O   0  0  0  0  0  0  0  0  0  0  0  0
   23.5944  -19.1528  -15.3399 O   0  0  0  0  0  0  0  0  0  0  0  0
  2  1  1  0
  2  3  1  0
  3  4  1  1
  5  3  1  0
  5  6  1  6
  7  5  1  0
  7  8  2  0
  9 10  1  0
  9  7  1  0
 11 12  1  0
 10 11  1  6
 13 10  1  0
 13 14  2  0
 15 13  1  0
 16 15  1  0
 16 20  1  0
 16 17  1  1
 18 17  1  0
 18 22  1  0
 19 18  2  0
 20 21  2  0
 20 23  1  0
M  END
$$$$
