ICD.pdb
     RDKit          3D

 23 22  0  0  1  0  0  0  0  0999 V2000
   20.1304  -16.9279  -18.4781 C   0  0  0  0  0  0  0  0  0  0  0  0
   20.5986  -15.5737  -18.9138 C   0  0  0  0  0  0  0  0  0  0  0  0
   20.7886  -14.5999  -17.7765 C   0  0  2  0  0  0  0  0  0  0  0  0
   19.4977  -14.4277  -17.0037 C   0  0  0  0  0  0  0  0  0  0  0  0
   21.1945  -13.2287  -18.2737 C   0  0  2  0  0  0  0  0  0  0  0  0
   22.4001  -13.3929  -19.0467 N   0  0  0  0  0  0  0  0  0  0  0  0
   21.3782  -12.2663  -17.1576 C   0  0  0  0  0  0  0  0  0  0  0  0
   20.4110  -12.1331  -16.3652 O   0  0  0  0  0  0  0  0  0  0  0  0
   22.5299  -11.5173  -16.9369 N   0  0  0  0  0  0  0  0  0  0  0  0
   22.6861  -10.4815  -15.9073 C   0  0  1  0  0  0  0  0  0  0  0  0
   24.1484  -10.1804  -15.7079 C   0  0  0  0  0  0  0  0  0  0  0  0
   24.8993  -11.4413  -14.6696 S   0  0  0  0  0  0  0  0  0  0  0  0
   21.8787   -9.3461  -16.3778 C   0  0  0  0  0  0  0  0  0  0  0  0
   21.6595   -9.1658  -17.6085 O   0  0  0  0  0  0  0  0  0  0  0  0
   21.3252   -8.4314  -15.4798 N   0  0  0  0  0  0  0  0  0  0  0  0
   20.4888   -7.3087  -15.8884 C   0  0  1  0  0  0  0  0  0  0  0  0
   19.3057   -7.8777  -16.6310 C   0  0  0  0  0  0  0  0  0  0  0  0
   18.3105   -6.8559  -17.0323 C   0  0  0  0  0  0  0  0  0  0  0  0
   18.7116   -5.7444  -17.4875 O   0  0  0  0  0  0  0  0  0  0  0  0
   20.0914   -6.4717  -14.7599 C   0  0  0  0  0  0  0  0  0  0  0  0
   19.7385   -6.9842  -13.6757 O   0  0  0  0  0  0  0  0  0  0  0  0
   16.9386   -7.0129  -16.9501 O   0  0  0  0  0  0  0  0  0  0  0  0
   20.1004   -5.0941  -14.8776 O   0  0  0  0  0  0  0  0  0  0  0  0
  2  1  1  0
  2  3  1  0
  3  4  1  6
  5  3  1  0
  5  6  1  1
  7  5  1  0
  7  8  2  0
  9 10  1  0
  9  7  1  0
 11 12  1  0
 10 11  1  6
 13 10  1  0
 13 14  2  0
 15 13  1  0
 16 15  1  0
 16 20  1  0
 16 17  1  1
 18 17  1  0
 18 22  1  0
 19 18  2  0
 20 21  2  0
 20 23  1  0
M  END
$$$$
