ICD.pdb
     RDKit          3D

 23 22  0  0  1  0  0  0  0  0999 V2000
   21.6533  -11.6745  -19.4173 C   0  0  0  0  0  0  0  0  0  0  0  0
   20.9572  -12.0448  -18.1442 C   0  0  0  0  0  0  0  0  0  0  0  0
   20.3204  -10.8743  -17.4353 C   0  0  2  0  0  0  0  0  0  0  0  0
   21.3699   -9.8540  -17.0471 C   0  0  0  0  0  0  0  0  0  0  0  0
   19.6238  -11.3015  -16.1608 C   0  0  2  0  0  0  0  0  0  0  0  0
   18.6902  -12.3425  -16.5111 N   0  0  0  0  0  0  0  0  0  0  0  0
   18.9545  -10.1604  -15.4857 C   0  0  0  0  0  0  0  0  0  0  0  0
   18.0619   -9.5647  -16.1410 O   0  0  0  0  0  0  0  0  0  0  0  0
   19.2463   -9.7173  -14.1994 N   0  0  0  0  0  0  0  0  0  0  0  0
   18.6268   -8.5618  -13.5373 C   0  0  1  0  0  0  0  0  0  0  0  0
   18.1068   -8.9708  -12.1841 C   0  0  0  0  0  0  0  0  0  0  0  0
   16.7904  -10.1806  -12.3717 S   0  0  0  0  0  0  0  0  0  0  0  0
   19.6711   -7.5268  -13.5124 C   0  0  0  0  0  0  0  0  0  0  0  0
   20.8916   -7.8326  -13.4036 O   0  0  0  0  0  0  0  0  0  0  0  0
   19.3484   -6.1720  -13.6112 N   0  0  0  0  0  0  0  0  0  0  0  0
   20.3449   -5.1156  -13.7456 C   0  0  1  0  0  0  0  0  0  0  0  0
   21.2777   -5.5181  -14.8604 C   0  0  0  0  0  0  0  0  0  0  0  0
   22.3220   -4.5085  -15.1532 C   0  0  0  0  0  0  0  0  0  0  0  0
   22.1892   -3.7529  -16.1606 O   0  0  0  0  0  0  0  0  0  0  0  0
   19.7399   -3.8054  -13.9677 C   0  0  0  0  0  0  0  0  0  0  0  0
   18.5608   -3.7047  -14.3706 O   0  0  0  0  0  0  0  0  0  0  0  0
   23.4659   -4.3126  -14.4005 O   0  0  0  0  0  0  0  0  0  0  0  0
   20.4681   -2.6535  -13.7339 O   0  0  0  0  0  0  0  0  0  0  0  0
  2  1  1  0
  2  3  1  0
  3  4  1  1
  5  3  1  0
  5  6  1  6
  7  5  1  0
  7  8  2  0
  9 10  1  0
  9  7  1  0
 11 12  1  0
 10 11  1  1
 13 10  1  0
 13 14  2  0
 15 13  1  0
 16 15  1  0
 16 20  1  0
 16 17  1  6
 18 17  1  0
 18 22  1  0
 19 18  2  0
 20 21  2  0
 20 23  1  0
M  END
$$$$
