WVY.pdb
     RDKit          3D

 34 36  0  0  1  0  0  0  0  0999 V2000
    6.1795  -18.2592   25.0107 N   0  0  0  0  0  0  0  0  0  0  0  0
    6.4390  -17.0281   24.3309 C   0  0  1  0  0  0  0  0  0  0  0  0
    7.2905  -16.0618   25.0946 C   0  0  0  0  0  0  0  0  0  0  0  0
    6.5139  -15.0421   25.8415 C   0  0  0  0  0  0  0  0  0  0  0  0
    5.2676  -15.1494   26.4141 C   0  0  0  0  0  0  0  0  0  0  0  0
    4.9410  -13.9953   26.9908 N   0  0  0  0  0  0  0  0  0  0  0  0
    5.9399  -13.0899   26.8274 C   0  0  0  0  0  0  0  0  0  0  0  0
    6.0999  -11.7807   27.2210 C   0  0  0  0  0  0  0  0  0  0  0  0
    7.2595  -11.0992   26.8977 C   0  0  0  0  0  0  0  0  0  0  0  0
    8.2503  -11.7405   26.1804 C   0  0  0  0  0  0  0  0  0  0  0  0
    8.0626  -13.0468   25.8014 C   0  0  0  0  0  0  0  0  0  0  0  0
    6.9145  -13.7420   26.1141 C   0  0  0  0  0  0  0  0  0  0  0  0
    7.0977  -17.2706   23.0218 C   0  0  0  0  0  0  0  0  0  0  0  0
    6.4366  -17.6911   22.0382 O   0  0  0  0  0  0  0  0  0  0  0  0
    6.7833  -15.2000   21.2798 C   0  0  0  0  0  0  0  0  0  0  0  0
    8.2200  -14.9602   21.7079 C   0  0  2  0  0  0  0  0  0  0  0  0
    8.8645  -14.0334   20.6904 C   0  0  0  0  0  0  0  0  0  0  0  0
    8.9222  -16.3011   21.6858 C   0  0  2  0  0  0  0  0  0  0  0  0
    8.4946  -17.0224   22.8842 N   0  0  0  0  0  0  0  0  0  0  0  0
   10.3981  -16.0549   21.7339 C   0  0  0  0  0  0  0  0  0  0  0  0
   10.9743  -15.2324   20.9777 O   0  0  0  0  0  0  0  0  0  0  0  0
    9.5360  -16.5141   29.2776 O   0  0  0  0  0  0  0  0  0  0  0  0
   10.0369  -16.1444   28.0338 C   0  0  0  0  0  0  0  0  0  0  0  0
   10.0543  -17.0374   27.0094 C   0  0  0  0  0  0  0  0  0  0  0  0
   10.5570  -16.6642   25.7631 C   0  0  0  0  0  0  0  0  0  0  0  0
   11.0507  -15.4052   25.5070 C   0  0  0  0  0  0  0  0  0  0  0  0
   11.5900  -14.9815   24.2143 C   0  0  0  0  0  0  0  0  0  0  0  0
   12.2483  -16.0870   23.4406 C   0  0  2  0  0  0  0  0  0  0  0  0
   11.2092  -16.7633   22.6609 N   0  0  0  0  0  0  0  0  0  0  0  0
   12.9159  -17.0764   24.2923 C   0  0  0  0  0  0  0  0  0  0  0  0
   12.4462  -18.2329   24.3896 O   0  0  0  0  0  0  0  0  0  0  0  0
   11.0257  -14.5002   26.5694 C   0  0  0  0  0  0  0  0  0  0  0  0
   10.5283  -14.8722   27.7991 C   0  0  0  0  0  0  0  0  0  0  0  0
   14.0548  -16.7576   24.9897 O   0  0  0  0  0  0  0  0  0  0  0  0
  2  1  1  1
  2 13  1  0
  2  3  1  0
  4  3  1  0
  4  5  2  0
  6  5  1  0
  7  6  1  0
  8  7  2  0
  9  8  1  0
 10  9  2  0
 10 11  1  0
 11 12  2  0
 12  7  1  0
 12  4  1  0
 13 19  1  0
 14 13  2  0
 16 15  1  6
 17 16  1  0
 18 16  1  0
 18 19  1  1
 20 21  2  0
 20 18  1  0
 22 23  1  0
 23 24  2  0
 23 33  1  0
 24 25  1  0
 25 26  2  0
 26 27  1  0
 28 27  1  1
 28 29  1  0
 29 20  1  0
 30 28  1  0
 30 34  1  0
 31 30  2  0
 32 26  1  0
 33 32  2  0
M  END
$$$$
