WVY.pdb
     RDKit          3D

 34 36  0  0  1  0  0  0  0  0999 V2000
    5.5717  -17.5599   24.2316 N   0  0  0  0  0  0  0  0  0  0  0  0
    6.3882  -16.4536   23.8382 C   0  0  1  0  0  0  0  0  0  0  0  0
    7.2358  -15.8841   24.9333 C   0  0  0  0  0  0  0  0  0  0  0  0
    6.5389  -14.8698   25.7619 C   0  0  0  0  0  0  0  0  0  0  0  0
    5.5271  -15.0449   26.6774 C   0  0  0  0  0  0  0  0  0  0  0  0
    5.1904  -13.8683   27.2002 N   0  0  0  0  0  0  0  0  0  0  0  0
    5.9516  -12.8807   26.6625 C   0  0  0  0  0  0  0  0  0  0  0  0
    6.0030  -11.5187   26.8546 C   0  0  0  0  0  0  0  0  0  0  0  0
    6.9091  -10.7544   26.1415 C   0  0  0  0  0  0  0  0  0  0  0  0
    7.7575  -11.3666   25.2399 C   0  0  0  0  0  0  0  0  0  0  0  0
    7.6834  -12.7270   25.0694 C   0  0  0  0  0  0  0  0  0  0  0  0
    6.7875  -13.5049   25.7705 C   0  0  0  0  0  0  0  0  0  0  0  0
    7.2910  -16.8286   22.7198 C   0  0  0  0  0  0  0  0  0  0  0  0
    6.8695  -17.5222   21.7591 O   0  0  0  0  0  0  0  0  0  0  0  0
    8.8067  -13.9131   21.3882 C   0  0  0  0  0  0  0  0  0  0  0  0
    8.6080  -15.2277   20.6554 C   0  0  2  0  0  0  0  0  0  0  0  0
    7.1191  -15.5319   20.6323 C   0  0  0  0  0  0  0  0  0  0  0  0
    9.3296  -16.2953   21.4498 C   0  0  2  0  0  0  0  0  0  0  0  0
    8.6487  -16.3951   22.7404 N   0  0  0  0  0  0  0  0  0  0  0  0
   10.7452  -15.8507   21.6490 C   0  0  0  0  0  0  0  0  0  0  0  0
   11.5505  -15.7009   20.6954 O   0  0  0  0  0  0  0  0  0  0  0  0
    9.2901  -16.4033   28.7570 O   0  0  0  0  0  0  0  0  0  0  0  0
   10.1712  -16.0647   27.7354 C   0  0  0  0  0  0  0  0  0  0  0  0
    9.9690  -14.9387   27.0017 C   0  0  0  0  0  0  0  0  0  0  0  0
   10.8540  -14.6014   25.9778 C   0  0  0  0  0  0  0  0  0  0  0  0
   11.9519  -15.3686   25.6609 C   0  0  0  0  0  0  0  0  0  0  0  0
   12.8972  -15.0478   24.5909 C   0  0  0  0  0  0  0  0  0  0  0  0
   12.6358  -15.7859   23.3100 C   0  0  2  0  0  0  0  0  0  0  0  0
   11.2296  -15.5786   22.9569 N   0  0  0  0  0  0  0  0  0  0  0  0
   12.8890  -17.2269   23.4060 C   0  0  0  0  0  0  0  0  0  0  0  0
   11.9350  -18.0338   23.3263 O   0  0  0  0  0  0  0  0  0  0  0  0
   12.1452  -16.5215   26.4239 C   0  0  0  0  0  0  0  0  0  0  0  0
   11.2691  -16.8515   27.4345 C   0  0  0  0  0  0  0  0  0  0  0  0
   14.1611  -17.7126   23.5822 O   0  0  0  0  0  0  0  0  0  0  0  0
  2  1  1  1
  2 13  1  0
  2  3  1  0
  4  3  1  0
  4  5  2  0
  6  5  1  0
  7  6  1  0
  8  7  2  0
  9  8  1  0
 10  9  2  0
 10 11  1  0
 11 12  2  0
 12  7  1  0
 12  4  1  0
 13 19  1  0
 14 13  2  0
 16 15  1  1
 17 16  1  0
 18 16  1  0
 18 19  1  1
 20 21  2  0
 20 18  1  0
 22 23  1  0
 23 24  2  0
 23 33  1  0
 24 25  1  0
 25 26  2  0
 26 27  1  0
 28 27  1  1
 28 29  1  0
 29 20  1  0
 30 28  1  0
 30 34  1  0
 31 30  2  0
 32 26  1  0
 33 32  2  0
M  END
$$$$
