WVY.pdb
     RDKit          3D

 34 36  0  0  1  0  0  0  0  0999 V2000
    8.0923  -19.3175   22.9810 N   0  0  0  0  0  0  0  0  0  0  0  0
    8.2990  -17.9027   22.9508 C   0  0  1  0  0  0  0  0  0  0  0  0
    7.0886  -17.0886   23.2885 C   0  0  0  0  0  0  0  0  0  0  0  0
    6.7077  -16.1183   22.2328 C   0  0  0  0  0  0  0  0  0  0  0  0
    5.6769  -16.1857   21.3244 C   0  0  0  0  0  0  0  0  0  0  0  0
    5.6897  -15.1005   20.5541 N   0  0  0  0  0  0  0  0  0  0  0  0
    6.7122  -14.2822   20.9132 C   0  0  0  0  0  0  0  0  0  0  0  0
    7.1549  -13.0654   20.4466 C   0  0  0  0  0  0  0  0  0  0  0  0
    8.2538  -12.4603   21.0299 C   0  0  0  0  0  0  0  0  0  0  0  0
    8.8993  -13.0845   22.0793 C   0  0  0  0  0  0  0  0  0  0  0  0
    8.4349  -14.2979   22.5234 C   0  0  0  0  0  0  0  0  0  0  0  0
    7.3421  -14.9160   21.9551 C   0  0  0  0  0  0  0  0  0  0  0  0
    9.3842  -17.5025   23.8828 C   0  0  0  0  0  0  0  0  0  0  0  0
    9.4183  -16.3432   24.3690 O   0  0  0  0  0  0  0  0  0  0  0  0
   12.0063  -16.9971   22.4078 C   0  0  0  0  0  0  0  0  0  0  0  0
   11.8991  -16.6224   23.8751 C   0  0  2  0  0  0  0  0  0  0  0  0
   13.2150  -15.9883   24.2949 C   0  0  0  0  0  0  0  0  0  0  0  0
   11.6870  -17.9058   24.6494 C   0  0  2  0  0  0  0  0  0  0  0  0
   10.3955  -18.4464   24.2268 N   0  0  0  0  0  0  0  0  0  0  0  0
   11.6506  -17.5694   26.1078 C   0  0  0  0  0  0  0  0  0  0  0  0
   12.6177  -17.0327   26.7052 O   0  0  0  0  0  0  0  0  0  0  0  0
    8.3898  -12.0496   25.6374 O   0  0  0  0  0  0  0  0  0  0  0  0
    8.5723  -13.2247   26.3588 C   0  0  0  0  0  0  0  0  0  0  0  0
    9.5904  -13.3283   27.2531 C   0  0  0  0  0  0  0  0  0  0  0  0
    9.7712  -14.5078   27.9752 C   0  0  0  0  0  0  0  0  0  0  0  0
    8.9516  -15.6036   27.8270 C   0  0  0  0  0  0  0  0  0  0  0  0
    9.1151  -16.8575   28.5636 C   0  0  0  0  0  0  0  0  0  0  0  0
   10.4247  -17.5450   28.3063 C   0  0  2  0  0  0  0  0  0  0  0  0
   10.4902  -17.8552   26.8764 N   0  0  0  0  0  0  0  0  0  0  0  0
   10.5884  -18.7888   29.0652 C   0  0  0  0  0  0  0  0  0  0  0  0
   10.5631  -19.8899   28.4699 O   0  0  0  0  0  0  0  0  0  0  0  0
    7.9110  -15.4808   26.9048 C   0  0  0  0  0  0  0  0  0  0  0  0
    7.7353  -14.3143   26.1933 C   0  0  0  0  0  0  0  0  0  0  0  0
   10.7711  -18.7698   30.4259 O   0  0  0  0  0  0  0  0  0  0  0  0
  2  1  1  1
  2 13  1  0
  2  3  1  0
  4  3  1  0
  4  5  2  0
  6  5  1  0
  7  6  1  0
  8  7  2  0
  9  8  1  0
 10  9  2  0
 10 11  1  0
 11 12  2  0
 12  7  1  0
 12  4  1  0
 13 19  1  0
 14 13  2  0
 16 15  1  6
 17 16  1  0
 18 16  1  0
 18 19  1  6
 20 21  2  0
 20 18  1  0
 22 23  1  0
 23 24  2  0
 23 33  1  0
 24 25  1  0
 25 26  2  0
 26 27  1  0
 28 27  1  6
 28 29  1  0
 29 20  1  0
 30 28  1  0
 30 34  1  0
 31 30  2  0
 32 26  1  0
 33 32  2  0
M  END
$$$$
