WVY.pdb
     RDKit          3D

 34 36  0  0  1  0  0  0  0  0999 V2000
    5.7194  -18.1619   23.5079 N   0  0  0  0  0  0  0  0  0  0  0  0
    6.4806  -16.9534   23.5813 C   0  0  1  0  0  0  0  0  0  0  0  0
    7.2380  -16.7705   24.8599 C   0  0  0  0  0  0  0  0  0  0  0  0
    6.7945  -15.5988   25.6545 C   0  0  0  0  0  0  0  0  0  0  0  0
    5.6240  -15.4188   26.3545 C   0  0  0  0  0  0  0  0  0  0  0  0
    5.6287  -14.2188   26.9299 N   0  0  0  0  0  0  0  0  0  0  0  0
    6.7826  -13.5640   26.6405 C   0  0  0  0  0  0  0  0  0  0  0  0
    7.2740  -12.3239   26.9797 C   0  0  0  0  0  0  0  0  0  0  0  0
    8.5163  -11.9242   26.5208 C   0  0  0  0  0  0  0  0  0  0  0  0
    9.2554  -12.7758   25.7234 C   0  0  0  0  0  0  0  0  0  0  0  0
    8.7395  -14.0068   25.4014 C   0  0  0  0  0  0  0  0  0  0  0  0
    7.5041  -14.4225   25.8490 C   0  0  0  0  0  0  0  0  0  0  0  0
    7.4567  -16.8697   22.4647 C   0  0  0  0  0  0  0  0  0  0  0  0
    7.9462  -17.9124   21.9600 O   0  0  0  0  0  0  0  0  0  0  0  0
    8.4057  -13.1767   20.7560 C   0  0  0  0  0  0  0  0  0  0  0  0
    8.4517  -14.4615   19.9485 C   0  0  2  0  0  0  0  0  0  0  0  0
    7.0567  -14.7251   19.4060 C   0  0  0  0  0  0  0  0  0  0  0  0
    8.8424  -15.5728   20.8992 C   0  0  2  0  0  0  0  0  0  0  0  0
    7.8393  -15.5914   21.9634 N   0  0  0  0  0  0  0  0  0  0  0  0
   10.1886  -15.2474   21.4680 C   0  0  0  0  0  0  0  0  0  0  0  0
   10.7522  -14.1385   21.2871 O   0  0  0  0  0  0  0  0  0  0  0  0
   10.5942  -14.7068   29.9317 O   0  0  0  0  0  0  0  0  0  0  0  0
   10.4296  -14.9742   28.5767 C   0  0  0  0  0  0  0  0  0  0  0  0
   10.5320  -16.2474   28.1124 C   0  0  0  0  0  0  0  0  0  0  0  0
   10.3664  -16.5128   26.7532 C   0  0  0  0  0  0  0  0  0  0  0  0
   10.0976  -15.5276   25.8303 C   0  0  0  0  0  0  0  0  0  0  0  0
    9.9234  -15.7694   24.3976 C   0  0  0  0  0  0  0  0  0  0  0  0
   11.2136  -15.9600   23.6540 C   0  0  2  0  0  0  0  0  0  0  0  0
   10.8839  -16.2096   22.2490 N   0  0  0  0  0  0  0  0  0  0  0  0
   12.0146  -17.0812   24.1553 C   0  0  0  0  0  0  0  0  0  0  0  0
   13.0693  -16.8579   24.7918 O   0  0  0  0  0  0  0  0  0  0  0  0
    9.9956  -14.2258   26.3234 C   0  0  0  0  0  0  0  0  0  0  0  0
   10.1596  -13.9672   27.6666 C   0  0  0  0  0  0  0  0  0  0  0  0
   11.6276  -18.3808   23.9396 O   0  0  0  0  0  0  0  0  0  0  0  0
  2  1  1  1
  2 13  1  0
  2  3  1  0
  4  3  1  0
  4  5  2  0
  6  5  1  0
  7  6  1  0
  8  7  2  0
  9  8  1  0
 10  9  2  0
 10 11  1  0
 11 12  2  0
 12  7  1  0
 12  4  1  0
 13 19  1  0
 14 13  2  0
 16 15  1  1
 17 16  1  0
 18 16  1  0
 18 19  1  1
 20 21  2  0
 20 18  1  0
 22 23  1  0
 23 24  2  0
 23 33  1  0
 24 25  1  0
 25 26  2  0
 26 27  1  0
 28 27  1  1
 28 29  1  0
 29 20  1  0
 30 28  1  0
 30 34  1  0
 31 30  2  0
 32 26  1  0
 33 32  2  0
M  END
$$$$
