WVY.pdb
     RDKit          3D

 34 36  0  0  1  0  0  0  0  0999 V2000
    6.3189  -17.4756   24.3282 N   0  0  0  0  0  0  0  0  0  0  0  0
    7.5180  -16.7833   23.9702 C   0  0  1  0  0  0  0  0  0  0  0  0
    7.6481  -15.4146   24.5631 C   0  0  0  0  0  0  0  0  0  0  0  0
    7.0400  -14.3445   23.7348 C   0  0  0  0  0  0  0  0  0  0  0  0
    5.9692  -13.5296   24.0209 C   0  0  0  0  0  0  0  0  0  0  0  0
    5.7535  -12.7023   23.0011 N   0  0  0  0  0  0  0  0  0  0  0  0
    6.6567  -12.9300   22.0129 C   0  0  0  0  0  0  0  0  0  0  0  0
    6.8652  -12.3624   20.7765 C   0  0  0  0  0  0  0  0  0  0  0  0
    7.8935  -12.8190   19.9715 C   0  0  0  0  0  0  0  0  0  0  0  0
    8.7049  -13.8440   20.4170 C   0  0  0  0  0  0  0  0  0  0  0  0
    8.4729  -14.3908   21.6549 C   0  0  0  0  0  0  0  0  0  0  0  0
    7.4538  -13.9493   22.4708 C   0  0  0  0  0  0  0  0  0  0  0  0
    8.7205  -17.5607   24.3654 C   0  0  0  0  0  0  0  0  0  0  0  0
    8.6578  -18.4185   25.2829 O   0  0  0  0  0  0  0  0  0  0  0  0
   11.8722  -18.2053   21.9250 C   0  0  0  0  0  0  0  0  0  0  0  0
   12.2837  -17.6970   23.2950 C   0  0  2  0  0  0  0  0  0  0  0  0
   13.5159  -18.4717   23.7325 C   0  0  0  0  0  0  0  0  0  0  0  0
   11.1398  -17.9903   24.2422 C   0  0  2  0  0  0  0  0  0  0  0  0
    9.9565  -17.3280   23.6945 N   0  0  0  0  0  0  0  0  0  0  0  0
   11.4812  -17.4091   25.5790 C   0  0  0  0  0  0  0  0  0  0  0  0
   11.7812  -16.1985   25.7365 O   0  0  0  0  0  0  0  0  0  0  0  0
    8.8790  -12.1237   27.1176 O   0  0  0  0  0  0  0  0  0  0  0  0
    9.3064  -13.3853   27.5180 C   0  0  0  0  0  0  0  0  0  0  0  0
    8.4513  -14.4411   27.4841 C   0  0  0  0  0  0  0  0  0  0  0  0
    8.8824  -15.7051   27.8861 C   0  0  0  0  0  0  0  0  0  0  0  0
   10.1630  -15.9483   28.3282 C   0  0  0  0  0  0  0  0  0  0  0  0
   10.6473  -17.2593   28.7620 C   0  0  0  0  0  0  0  0  0  0  0  0
   11.8846  -17.7160   28.0448 C   0  0  2  0  0  0  0  0  0  0  0  0
   11.4749  -18.2325   26.7370 N   0  0  0  0  0  0  0  0  0  0  0  0
   12.6163  -18.7678   28.7576 C   0  0  0  0  0  0  0  0  0  0  0  0
   12.4715  -19.9651   28.4211 O   0  0  0  0  0  0  0  0  0  0  0  0
   11.0286  -14.8536   28.3569 C   0  0  0  0  0  0  0  0  0  0  0  0
   10.5994  -13.6065   27.9590 C   0  0  0  0  0  0  0  0  0  0  0  0
   13.4639  -18.4636   29.7940 O   0  0  0  0  0  0  0  0  0  0  0  0
  2  1  1  1
  2 13  1  0
  2  3  1  0
  4  3  1  0
  4  5  2  0
  6  5  1  0
  7  6  1  0
  8  7  2  0
  9  8  1  0
 10  9  2  0
 10 11  1  0
 11 12  2  0
 12  7  1  0
 12  4  1  0
 13 19  1  0
 14 13  2  0
 16 15  1  6
 17 16  1  0
 18 16  1  0
 18 19  1  6
 20 21  2  0
 20 18  1  0
 22 23  1  0
 23 24  2  0
 23 33  1  0
 24 25  1  0
 25 26  2  0
 26 27  1  0
 28 27  1  1
 28 29  1  0
 29 20  1  0
 30 28  1  0
 30 34  1  0
 31 30  2  0
 32 26  1  0
 33 32  2  0
M  END
$$$$
