WVY.pdb
     RDKit          3D

 34 36  0  0  1  0  0  0  0  0999 V2000
    7.5112  -17.6244   26.1775 N   0  0  0  0  0  0  0  0  0  0  0  0
    7.6104  -16.5896   25.1953 C   0  0  1  0  0  0  0  0  0  0  0  0
    8.7540  -15.6449   25.3986 C   0  0  0  0  0  0  0  0  0  0  0  0
    8.6169  -14.7915   26.6044 C   0  0  0  0  0  0  0  0  0  0  0  0
    9.3191  -14.8416   27.7864 C   0  0  0  0  0  0  0  0  0  0  0  0
    8.8791  -13.8907   28.6070 N   0  0  0  0  0  0  0  0  0  0  0  0
    7.8838  -13.1826   28.0138 C   0  0  0  0  0  0  0  0  0  0  0  0
    7.1096  -12.1202   28.4218 C   0  0  0  0  0  0  0  0  0  0  0  0
    6.1489  -11.5997   27.5734 C   0  0  0  0  0  0  0  0  0  0  0  0
    5.9743  -12.1523   26.3198 C   0  0  0  0  0  0  0  0  0  0  0  0
    6.7612  -13.2115   25.9402 C   0  0  0  0  0  0  0  0  0  0  0  0
    7.7231  -13.7435   26.7714 C   0  0  0  0  0  0  0  0  0  0  0  0
    7.7365  -17.1609   23.8299 C   0  0  0  0  0  0  0  0  0  0  0  0
    7.9850  -18.3827   23.6654 O   0  0  0  0  0  0  0  0  0  0  0  0
    6.8858  -14.7644   20.5939 C   0  0  0  0  0  0  0  0  0  0  0  0
    6.6255  -16.2574   20.5040 C   0  0  2  0  0  0  0  0  0  0  0  0
    5.2324  -16.5247   21.0494 C   0  0  0  0  0  0  0  0  0  0  0  0
    7.6515  -16.9431   21.3807 C   0  0  2  0  0  0  0  0  0  0  0  0
    7.5732  -16.3110   22.6973 N   0  0  0  0  0  0  0  0  0  0  0  0
    9.0041  -16.7146   20.7810 C   0  0  0  0  0  0  0  0  0  0  0  0
    9.3672  -17.2475   19.7019 O   0  0  0  0  0  0  0  0  0  0  0  0
    8.3382  -12.8229   16.0225 O   0  0  0  0  0  0  0  0  0  0  0  0
    9.1153  -13.1892   17.1163 C   0  0  0  0  0  0  0  0  0  0  0  0
    9.9897  -14.2251   17.0192 C   0  0  0  0  0  0  0  0  0  0  0  0
   10.7678  -14.5904   18.1176 C   0  0  0  0  0  0  0  0  0  0  0  0
   10.6961  -13.9406   19.3289 C   0  0  0  0  0  0  0  0  0  0  0  0
   11.4929  -14.3001   20.5025 C   0  0  0  0  0  0  0  0  0  0  0  0
   11.3123  -15.7234   20.9447 C   0  0  2  0  0  0  0  0  0  0  0  0
    9.9388  -15.8660   21.4330 N   0  0  0  0  0  0  0  0  0  0  0  0
   12.2347  -16.1232   22.0120 C   0  0  0  0  0  0  0  0  0  0  0  0
   13.4701  -16.0138   21.8412 O   0  0  0  0  0  0  0  0  0  0  0  0
    9.7934  -12.8792   19.4119 C   0  0  0  0  0  0  0  0  0  0  0  0
    9.0265  -12.5211   18.3250 C   0  0  0  0  0  0  0  0  0  0  0  0
   11.7669  -16.6182   23.2043 O   0  0  0  0  0  0  0  0  0  0  0  0
  2  1  1  1
  2 13  1  0
  2  3  1  0
  4  3  1  0
  4  5  2  0
  6  5  1  0
  7  6  1  0
  8  7  2  0
  9  8  1  0
 10  9  2  0
 10 11  1  0
 11 12  2  0
 12  7  1  0
 12  4  1  0
 13 19  1  0
 14 13  2  0
 16 15  1  1
 17 16  1  0
 18 16  1  0
 18 19  1  1
 20 21  2  0
 20 18  1  0
 22 23  1  0
 23 24  2  0
 23 33  1  0
 24 25  1  0
 25 26  2  0
 26 27  1  0
 28 27  1  1
 28 29  1  0
 29 20  1  0
 30 28  1  0
 30 34  1  0
 31 30  2  0
 32 26  1  0
 33 32  2  0
M  END
$$$$
