WVY.pdb
     RDKit          3D

 34 36  0  0  1  0  0  0  0  0999 V2000
    6.2634  -17.6128   24.8556 N   0  0  0  0  0  0  0  0  0  0  0  0
    6.9359  -16.4379   24.3945 C   0  0  1  0  0  0  0  0  0  0  0  0
    7.5018  -15.5768   25.4809 C   0  0  0  0  0  0  0  0  0  0  0  0
    6.5421  -14.5780   26.0123 C   0  0  0  0  0  0  0  0  0  0  0  0
    5.3102  -14.7812   26.5899 C   0  0  0  0  0  0  0  0  0  0  0  0
    4.7784  -13.6096   26.9300 N   0  0  0  0  0  0  0  0  0  0  0  0
    5.6210  -12.5978   26.5978 C   0  0  0  0  0  0  0  0  0  0  0  0
    5.5503  -11.2296   26.7301 C   0  0  0  0  0  0  0  0  0  0  0  0
    6.5938  -10.4379   26.2851 C   0  0  0  0  0  0  0  0  0  0  0  0
    7.7015  -11.0291   25.7100 C   0  0  0  0  0  0  0  0  0  0  0  0
    7.7441  -12.3964   25.5914 C   0  0  0  0  0  0  0  0  0  0  0  0
    6.7145  -13.2014   26.0287 C   0  0  0  0  0  0  0  0  0  0  0  0
    8.0472  -16.7870   23.4727 C   0  0  0  0  0  0  0  0  0  0  0  0
    8.3650  -17.9876   23.2755 O   0  0  0  0  0  0  0  0  0  0  0  0
    7.3507  -14.4255   20.6558 C   0  0  0  0  0  0  0  0  0  0  0  0
    8.8511  -14.6561   20.6823 C   0  0  2  0  0  0  0  0  0  0  0  0
    9.3340  -14.7690   19.2456 C   0  0  0  0  0  0  0  0  0  0  0  0
    9.0887  -15.9676   21.3998 C   0  0  2  0  0  0  0  0  0  0  0  0
    8.7581  -15.7460   22.8071 N   0  0  0  0  0  0  0  0  0  0  0  0
   10.5376  -16.3183   21.2617 C   0  0  0  0  0  0  0  0  0  0  0  0
   10.9382  -17.2919   20.5747 O   0  0  0  0  0  0  0  0  0  0  0  0
   11.7073  -16.3386   29.7104 O   0  0  0  0  0  0  0  0  0  0  0  0
   11.4603  -16.2141   28.3473 C   0  0  0  0  0  0  0  0  0  0  0  0
   11.6632  -17.2692   27.5152 C   0  0  0  0  0  0  0  0  0  0  0  0
   11.4147  -17.1418   26.1487 C   0  0  0  0  0  0  0  0  0  0  0  0
   10.9626  -15.9723   25.5809 C   0  0  0  0  0  0  0  0  0  0  0  0
   10.6967  -15.8018   24.1520 C   0  0  0  0  0  0  0  0  0  0  0  0
   11.9319  -15.8253   23.2988 C   0  0  2  0  0  0  0  0  0  0  0  0
   11.5257  -15.5387   21.9212 N   0  0  0  0  0  0  0  0  0  0  0  0
   12.6328  -17.1128   23.3242 C   0  0  0  0  0  0  0  0  0  0  0  0
   12.2332  -18.0541   22.6017 O   0  0  0  0  0  0  0  0  0  0  0  0
   10.7593  -14.8983   26.4491 C   0  0  0  0  0  0  0  0  0  0  0  0
   11.0057  -15.0278   27.7983 C   0  0  0  0  0  0  0  0  0  0  0  0
   13.7273  -17.3080   24.1299 O   0  0  0  0  0  0  0  0  0  0  0  0
  2  1  1  1
  2 13  1  0
  2  3  1  0
  4  3  1  0
  4  5  2  0
  6  5  1  0
  7  6  1  0
  8  7  2  0
  9  8  1  0
 10  9  2  0
 10 11  1  0
 11 12  2  0
 12  7  1  0
 12  4  1  0
 13 19  1  0
 14 13  2  0
 16 15  1  6
 17 16  1  0
 18 16  1  0
 18 19  1  1
 20 21  2  0
 20 18  1  0
 22 23  1  0
 23 24  2  0
 23 33  1  0
 24 25  1  0
 25 26  2  0
 26 27  1  0
 28 27  1  1
 28 29  1  0
 29 20  1  0
 30 28  1  0
 30 34  1  0
 31 30  2  0
 32 26  1  0
 33 32  2  0
M  END
$$$$
