WVY.pdb
     RDKit          3D

 34 36  0  0  1  0  0  0  0  0999 V2000
    5.9805  -18.0682   24.0498 N   0  0  0  0  0  0  0  0  0  0  0  0
    6.5979  -16.7862   23.9062 C   0  0  1  0  0  0  0  0  0  0  0  0
    7.3592  -16.3228   25.1094 C   0  0  0  0  0  0  0  0  0  0  0  0
    6.5930  -15.3993   25.9819 C   0  0  0  0  0  0  0  0  0  0  0  0
    5.4735  -15.6521   26.7404 C   0  0  0  0  0  0  0  0  0  0  0  0
    5.1060  -14.5423   27.3763 N   0  0  0  0  0  0  0  0  0  0  0  0
    5.9517  -13.5246   27.0712 C   0  0  0  0  0  0  0  0  0  0  0  0
    6.0140  -12.2035   27.4523 C   0  0  0  0  0  0  0  0  0  0  0  0
    7.0191  -11.3897   26.9611 C   0  0  0  0  0  0  0  0  0  0  0  0
    7.9547  -11.9116   26.0895 C   0  0  0  0  0  0  0  0  0  0  0  0
    7.8672  -13.2331   25.7271 C   0  0  0  0  0  0  0  0  0  0  0  0
    6.8734  -14.0591   26.2059 C   0  0  0  0  0  0  0  0  0  0  0  0
    7.5307  -16.7703   22.7503 C   0  0  0  0  0  0  0  0  0  0  0  0
    7.8397  -17.8367   22.1597 O   0  0  0  0  0  0  0  0  0  0  0  0
    9.1878  -13.1651   21.4332 C   0  0  0  0  0  0  0  0  0  0  0  0
    8.7100  -14.1983   20.4287 C   0  0  2  0  0  0  0  0  0  0  0  0
    7.2395  -13.9356   20.1486 C   0  0  0  0  0  0  0  0  0  0  0  0
    8.8658  -15.5571   21.0773 C   0  0  2  0  0  0  0  0  0  0  0  0
    8.0789  -15.5304   22.3099 N   0  0  0  0  0  0  0  0  0  0  0  0
   10.3146  -15.7572   21.3972 C   0  0  0  0  0  0  0  0  0  0  0  0
   11.2275  -15.5798   20.5515 O   0  0  0  0  0  0  0  0  0  0  0  0
    9.7861  -13.6442   28.3733 O   0  0  0  0  0  0  0  0  0  0  0  0
   10.3729  -14.4526   27.4055 C   0  0  0  0  0  0  0  0  0  0  0  0
   11.3602  -13.9627   26.6103 C   0  0  0  0  0  0  0  0  0  0  0  0
   11.9470  -14.7755   25.6406 C   0  0  0  0  0  0  0  0  0  0  0  0
   11.5697  -16.0838   25.4393 C   0  0  0  0  0  0  0  0  0  0  0  0
   12.1596  -16.9627   24.4288 C   0  0  0  0  0  0  0  0  0  0  0  0
   12.1127  -16.4025   23.0367 C   0  0  2  0  0  0  0  0  0  0  0  0
   10.7072  -16.1637   22.7010 N   0  0  0  0  0  0  0  0  0  0  0  0
   12.6913  -17.2969   22.0292 C   0  0  0  0  0  0  0  0  0  0  0  0
   13.9046  -17.6001   22.0885 O   0  0  0  0  0  0  0  0  0  0  0  0
   10.5547  -16.5715   26.2640 C   0  0  0  0  0  0  0  0  0  0  0  0
    9.9774  -15.7659   27.2209 C   0  0  0  0  0  0  0  0  0  0  0  0
   11.9231  -17.8129   21.0149 O   0  0  0  0  0  0  0  0  0  0  0  0
  2  1  1  1
  2 13  1  0
  2  3  1  0
  4  3  1  0
  4  5  2  0
  6  5  1  0
  7  6  1  0
  8  7  2  0
  9  8  1  0
 10  9  2  0
 10 11  1  0
 11 12  2  0
 12  7  1  0
 12  4  1  0
 13 19  1  0
 14 13  2  0
 16 15  1  1
 17 16  1  0
 18 16  1  0
 18 19  1  1
 20 21  2  0
 20 18  1  0
 22 23  1  0
 23 24  2  0
 23 33  1  0
 24 25  1  0
 25 26  2  0
 26 27  1  0
 28 27  1  1
 28 29  1  0
 29 20  1  0
 30 28  1  0
 30 34  1  0
 31 30  2  0
 32 26  1  0
 33 32  2  0
M  END
$$$$
