FSA.pdb
     RDKit          3D

 23 23  0  0  1  0  0  0  0  0999 V2000
   30.3021  -32.1935  -19.2721 N   0  0  0  0  0  0  0  0  0  0  0  0
   28.9708  -32.3160  -18.7224 C   0  0  1  0  0  0  0  0  0  0  0  0
   28.1491  -33.2367  -19.6071 C   0  0  0  0  0  0  0  0  0  0  0  0
   27.8518  -32.5158  -20.8644 C   0  0  0  0  0  0  0  0  0  0  0  0
   27.1212  -31.3468  -20.8520 C   0  0  0  0  0  0  0  0  0  0  0  0
   26.8519  -30.6821  -22.0489 C   0  0  0  0  0  0  0  0  0  0  0  0
   27.3097  -31.1856  -23.2335 C   0  0  0  0  0  0  0  0  0  0  0  0
   28.0365  -32.3464  -23.2565 C   0  0  0  0  0  0  0  0  0  0  0  0
   28.2948  -32.9922  -22.0662 C   0  0  0  0  0  0  0  0  0  0  0  0
   29.0234  -32.8092  -17.3392 C   0  0  0  0  0  0  0  0  0  0  0  0
   29.8885  -33.6675  -17.0286 O   0  0  0  0  0  0  0  0  0  0  0  0
   27.8626  -32.4153  -12.6871 O   0  0  0  0  0  0  0  0  0  0  0  0
   27.8176  -31.8731  -13.9572 C   0  0  0  0  0  0  0  0  0  0  0  0
   28.2382  -32.8781  -15.0137 C   0  0  2  0  0  0  0  0  0  0  0  0
   28.1480  -32.3656  -16.3385 N   0  0  0  0  0  0  0  0  0  0  0  0
   27.4581  -34.1514  -14.8462 C   0  0  0  0  0  0  0  0  0  0  0  0
   26.3407  -34.3050  -15.4029 O   0  0  0  0  0  0  0  0  0  0  0  0
   27.9976  -37.4729  -13.0631 C   0  0  0  0  0  0  0  0  0  0  0  0
   27.2183  -36.4450  -13.8299 C   0  0  2  0  0  0  0  0  0  0  0  0
   27.9408  -35.2323  -14.0586 N   0  0  0  0  0  0  0  0  0  0  0  0
   25.9082  -36.2160  -13.1713 C   0  0  0  0  0  0  0  0  0  0  0  0
   25.1562  -37.2065  -13.0113 O   0  0  0  0  0  0  0  0  0  0  0  0
   25.4629  -34.9870  -12.7237 O   0  0  0  0  0  0  0  0  0  0  0  0
  2  1  1  6
  2 10  1  0
  3  2  1  0
  4  5  2  0
  4  3  1  0
  6  5  1  0
  7  6  2  0
  8  7  1  0
  8  9  2  0
  9  4  1  0
 10 11  2  0
 10 15  1  0
 13 12  1  0
 14 13  1  1
 15 14  1  0
 16 14  1  0
 16 17  2  0
 19 18  1  1
 19 20  1  0
 20 16  1  0
 21 19  1  0
 22 21  2  0
 23 21  1  0
M  END
$$$$
