FSA.pdb
     RDKit          3D

 23 23  0  0  1  0  0  0  0  0999 V2000
   23.8463  -12.8593  -18.2108 N   0  0  0  0  0  0  0  0  0  0  0  0
   23.8079  -12.3360  -16.8638 C   0  0  1  0  0  0  0  0  0  0  0  0
   25.2242  -12.0397  -16.4038 C   0  0  0  0  0  0  0  0  0  0  0  0
   25.9139  -13.3309  -16.1893 C   0  0  0  0  0  0  0  0  0  0  0  0
   26.7461  -13.8557  -17.1549 C   0  0  0  0  0  0  0  0  0  0  0  0
   27.3874  -15.0748  -16.9328 C   0  0  0  0  0  0  0  0  0  0  0  0
   27.1935  -15.7508  -15.7615 C   0  0  0  0  0  0  0  0  0  0  0  0
   26.3687  -15.2379  -14.7958 C   0  0  0  0  0  0  0  0  0  0  0  0
   25.7417  -14.0324  -15.0292 C   0  0  0  0  0  0  0  0  0  0  0  0
   22.9612  -11.1368  -16.7965 C   0  0  0  0  0  0  0  0  0  0  0  0
   22.9847  -10.3174  -17.7503 O   0  0  0  0  0  0  0  0  0  0  0  0
   19.4377  -11.1819  -15.2004 O   0  0  0  0  0  0  0  0  0  0  0  0
   19.9754   -9.9323  -14.9588 C   0  0  0  0  0  0  0  0  0  0  0  0
   21.2682   -9.7180  -15.7241 C   0  0  2  0  0  0  0  0  0  0  0  0
   22.1201  -10.8582  -15.7106 N   0  0  0  0  0  0  0  0  0  0  0  0
   21.9640   -8.4868  -15.2162 C   0  0  0  0  0  0  0  0  0  0  0  0
   22.7605   -8.5468  -14.2445 O   0  0  0  0  0  0  0  0  0  0  0  0
   22.3064   -4.8779  -16.3337 C   0  0  0  0  0  0  0  0  0  0  0  0
   22.3765   -6.0041  -15.3444 C   0  0  2  0  0  0  0  0  0  0  0  0
   21.7575   -7.2086  -15.8036 N   0  0  0  0  0  0  0  0  0  0  0  0
   21.8483   -5.5523  -14.0332 C   0  0  0  0  0  0  0  0  0  0  0  0
   20.7047   -5.9440  -13.7000 O   0  0  0  0  0  0  0  0  0  0  0  0
   22.5311   -4.7306  -13.1570 O   0  0  0  0  0  0  0  0  0  0  0  0
  2  1  1  6
  2 10  1  0
  3  2  1  0
  4  5  2  0
  4  3  1  0
  6  5  1  0
  7  6  2  0
  8  7  1  0
  8  9  2  0
  9  4  1  0
 10 11  2  0
 10 15  1  0
 13 12  1  0
 14 13  1  1
 15 14  1  0
 16 14  1  0
 16 17  2  0
 19 18  1  6
 19 20  1  0
 20 16  1  0
 21 19  1  0
 22 21  2  0
 23 21  1  0
M  END
$$$$
