FSA.pdb
     RDKit          3D

 23 23  0  0  1  0  0  0  0  0999 V2000
   17.5298  -12.3583  -15.1830 N   0  0  0  0  0  0  0  0  0  0  0  0
   18.2286  -11.4947  -16.1080 C   0  0  1  0  0  0  0  0  0  0  0  0
   17.4386  -11.4070  -17.4016 C   0  0  0  0  0  0  0  0  0  0  0  0
   17.5055  -12.7265  -18.0675 C   0  0  0  0  0  0  0  0  0  0  0  0
   18.6076  -13.0857  -18.8136 C   0  0  0  0  0  0  0  0  0  0  0  0
   18.6510  -14.3350  -19.4334 C   0  0  0  0  0  0  0  0  0  0  0  0
   17.6049  -15.2041  -19.3035 C   0  0  0  0  0  0  0  0  0  0  0  0
   16.5053  -14.8568  -18.5644 C   0  0  0  0  0  0  0  0  0  0  0  0
   16.4765  -13.6190  -17.9578 C   0  0  0  0  0  0  0  0  0  0  0  0
   18.4401  -10.1653  -15.5186 C   0  0  0  0  0  0  0  0  0  0  0  0
   17.5414   -9.6682  -14.7929 O   0  0  0  0  0  0  0  0  0  0  0  0
   22.1796   -8.3012  -15.2908 O   0  0  0  0  0  0  0  0  0  0  0  0
   21.1479   -8.0329  -14.4118 C   0  0  0  0  0  0  0  0  0  0  0  0
   19.7913   -8.1626  -15.0794 C   0  0  2  0  0  0  0  0  0  0  0  0
   19.6061   -9.4162  -15.7276 N   0  0  0  0  0  0  0  0  0  0  0  0
   19.5687   -7.0058  -16.0122 C   0  0  0  0  0  0  0  0  0  0  0  0
   19.9360   -7.0623  -17.2140 O   0  0  0  0  0  0  0  0  0  0  0  0
   17.4740   -3.9051  -16.0957 C   0  0  0  0  0  0  0  0  0  0  0  0
   18.7230   -4.6684  -16.4265 C   0  0  2  0  0  0  0  0  0  0  0  0
   18.9389   -5.8047  -15.5856 N   0  0  0  0  0  0  0  0  0  0  0  0
   19.8836   -3.7437  -16.4496 C   0  0  0  0  0  0  0  0  0  0  0  0
   20.6393   -3.7331  -15.4491 O   0  0  0  0  0  0  0  0  0  0  0  0
   20.1862   -2.8957  -17.4976 O   0  0  0  0  0  0  0  0  0  0  0  0
  2  1  1  1
  2 10  1  0
  3  2  1  0
  4  5  2  0
  4  3  1  0
  6  5  1  0
  7  6  2  0
  8  7  1  0
  8  9  2  0
  9  4  1  0
 10 11  2  0
 10 15  1  0
 13 12  1  0
 14 13  1  6
 15 14  1  0
 16 14  1  0
 16 17  2  0
 19 18  1  1
 19 20  1  0
 20 16  1  0
 21 19  1  0
 22 21  2  0
 23 21  1  0
M  END
$$$$
