NMD.pdb
     RDKit          3D

 25 24  0  0  1  0  0  0  0  0999 V2000
    8.7519  -12.8472   17.0383 N   0  0  0  0  0  0  0  0  0  0  0  0
    8.0610  -13.7101   17.8999 C   0  0  0  0  0  0  0  0  0  0  0  0
    7.5648  -14.7862   17.4786 O   0  0  0  0  0  0  0  0  0  0  0  0
    7.8996  -13.3768   19.3184 C   0  0  0  0  0  0  0  0  0  0  0  0
    8.5337  -14.4600   20.1599 C   0  0  2  0  0  0  0  0  0  0  0  0
    7.8290  -15.7136   20.0528 N   0  0  0  0  0  0  0  0  0  0  0  0
    8.6142  -14.0423   21.5918 C   0  0  0  0  0  0  0  0  0  0  0  0
    9.3169  -13.0671   21.9581 O   0  0  0  0  0  0  0  0  0  0  0  0
    7.2100  -11.4191   27.8034 C   0  0  0  0  0  0  0  0  0  0  0  0
    7.2246  -11.8307   26.0302 S   0  0  0  0  0  0  0  0  0  0  0  0
    6.7128  -13.6035   25.9367 C   0  0  0  0  0  0  0  0  0  0  0  0
    6.6150  -14.0412   24.5173 C   0  0  0  0  0  0  0  0  0  0  0  0
    7.9697  -14.3698   23.9717 C   0  0  2  0  0  0  0  0  0  0  0  0
    7.8908  -14.7490   22.5650 N   0  0  0  0  0  0  0  0  0  0  0  0
    8.7261  -15.3898   24.7294 C   0  0  0  0  0  0  0  0  0  0  0  0
    8.8376  -15.4282   25.9746 O   0  0  0  0  0  0  0  0  0  0  0  0
    9.3863  -16.4175   23.9905 N   0  0  0  0  0  0  0  0  0  0  0  0
   10.1295  -17.4827   24.6240 C   0  0  1  0  0  0  0  0  0  0  0  0
   10.0775  -18.6932   23.7325 C   0  0  0  0  0  0  0  0  0  0  0  0
   10.9138  -19.7769   24.2884 C   0  0  0  0  0  0  0  0  0  0  0  0
   10.9660  -19.9924   25.5187 O   0  0  0  0  0  0  0  0  0  0  0  0
   11.5339  -17.0035   24.8047 C   0  0  0  0  0  0  0  0  0  0  0  0
   12.2614  -17.2979   25.9469 O   0  0  0  0  0  0  0  0  0  0  0  0
   11.6645  -20.5806   23.4205 O   0  0  0  0  0  0  0  0  0  0  0  0
   12.0713  -16.3189   23.9050 O   0  0  0  0  0  0  0  0  0  0  0  0
  2  1  1  0
  2  3  2  0
  4  5  1  0
  4  2  1  0
  5  6  1  1
  7  5  1  0
  7  8  2  0
  9 10  1  0
 11 10  1  0
 12 11  1  0
 13 12  1  1
 13 14  1  0
 14  7  1  0
 15 17  1  0
 15 13  1  0
 16 15  2  0
 18 17  1  0
 18 22  1  0
 19 20  1  0
 18 19  1  6
 20 24  1  0
 21 20  2  0
 22 23  1  0
 25 22  2  0
M  END
$$$$
