NMD.pdb
     RDKit          3D

 25 24  0  0  1  0  0  0  0  0999 V2000
    9.4618  -15.8210   16.9812 N   0  0  0  0  0  0  0  0  0  0  0  0
    9.5728  -15.7027   18.3733 C   0  0  0  0  0  0  0  0  0  0  0  0
   10.6980  -15.6228   18.9294 O   0  0  0  0  0  0  0  0  0  0  0  0
    8.3746  -15.6696   19.2174 C   0  0  0  0  0  0  0  0  0  0  0  0
    8.5104  -16.6987   20.3157 C   0  0  2  0  0  0  0  0  0  0  0  0
    7.2912  -17.4420   20.5176 N   0  0  0  0  0  0  0  0  0  0  0  0
    8.9331  -16.0569   21.5965 C   0  0  0  0  0  0  0  0  0  0  0  0
   10.1394  -15.8085   21.8457 O   0  0  0  0  0  0  0  0  0  0  0  0
    7.2927  -11.0746   26.6682 C   0  0  0  0  0  0  0  0  0  0  0  0
    6.4031  -12.6441   26.4250 S   0  0  0  0  0  0  0  0  0  0  0  0
    7.6679  -13.8271   25.7815 C   0  0  0  0  0  0  0  0  0  0  0  0
    7.2998  -14.2876   24.4146 C   0  0  0  0  0  0  0  0  0  0  0  0
    8.3651  -15.1764   23.8523 C   0  0  2  0  0  0  0  0  0  0  0  0
    7.9675  -15.7165   22.5566 N   0  0  0  0  0  0  0  0  0  0  0  0
    8.8103  -16.2704   24.7419 C   0  0  0  0  0  0  0  0  0  0  0  0
    8.1376  -17.2846   25.0307 O   0  0  0  0  0  0  0  0  0  0  0  0
   10.1103  -16.1715   25.3234 N   0  0  0  0  0  0  0  0  0  0  0  0
   10.6657  -17.1961   26.1778 C   0  0  1  0  0  0  0  0  0  0  0  0
   12.1649  -17.1482   26.0636 C   0  0  0  0  0  0  0  0  0  0  0  0
   12.6121  -17.8831   24.8623 C   0  0  0  0  0  0  0  0  0  0  0  0
   11.7939  -18.4367   24.0962 O   0  0  0  0  0  0  0  0  0  0  0  0
   10.2197  -16.9053   27.5747 C   0  0  0  0  0  0  0  0  0  0  0  0
   10.1237  -17.9046   28.5301 O   0  0  0  0  0  0  0  0  0  0  0  0
   13.9808  -17.9621   24.5742 O   0  0  0  0  0  0  0  0  0  0  0  0
    9.9244  -15.7319   27.8950 O   0  0  0  0  0  0  0  0  0  0  0  0
  2  1  1  0
  2  3  2  0
  4  5  1  0
  4  2  1  0
  5  6  1  1
  7  5  1  0
  7  8  2  0
  9 10  1  0
 11 10  1  0
 12 11  1  0
 13 12  1  1
 13 14  1  0
 14  7  1  0
 15 17  1  0
 15 13  1  0
 16 15  2  0
 18 17  1  0
 18 22  1  0
 19 20  1  0
 18 19  1  1
 20 24  1  0
 21 20  2  0
 22 23  1  0
 25 22  2  0
M  END
$$$$
