NMD.pdb
     RDKit          3D

 25 24  0  0  1  0  0  0  0  0999 V2000
    7.2565  -12.8093   18.1992 N   0  0  0  0  0  0  0  0  0  0  0  0
    7.9433  -13.9232   18.7010 C   0  0  0  0  0  0  0  0  0  0  0  0
    7.9762  -15.0061   18.0624 O   0  0  0  0  0  0  0  0  0  0  0  0
    8.6420  -13.8517   19.9879 C   0  0  0  0  0  0  0  0  0  0  0  0
    8.5536  -15.1932   20.6778 C   0  0  2  0  0  0  0  0  0  0  0  0
    7.1912  -15.6461   20.8127 N   0  0  0  0  0  0  0  0  0  0  0  0
    9.2091  -15.1455   22.0192 C   0  0  0  0  0  0  0  0  0  0  0  0
   10.4356  -14.9051   22.1482 O   0  0  0  0  0  0  0  0  0  0  0  0
    9.7135  -12.5291   28.6523 C   0  0  0  0  0  0  0  0  0  0  0  0
    8.3233  -13.5088   28.0032 S   0  0  0  0  0  0  0  0  0  0  0  0
    9.0804  -14.6990   26.8101 C   0  0  0  0  0  0  0  0  0  0  0  0
    8.3878  -14.6263   25.4945 C   0  0  0  0  0  0  0  0  0  0  0  0
    9.0885  -15.4769   24.4813 C   0  0  2  0  0  0  0  0  0  0  0  0
    8.4465  -15.3732   23.1753 N   0  0  0  0  0  0  0  0  0  0  0  0
    9.2519  -16.8986   24.8538 C   0  0  0  0  0  0  0  0  0  0  0  0
    8.7416  -17.8665   24.2477 O   0  0  0  0  0  0  0  0  0  0  0  0
   10.0541  -17.2023   25.9949 N   0  0  0  0  0  0  0  0  0  0  0  0
   10.6734  -18.4925   26.1954 C   0  0  1  0  0  0  0  0  0  0  0  0
   11.5744  -18.7736   25.0241 C   0  0  0  0  0  0  0  0  0  0  0  0
   11.7961  -20.2276   24.8840 C   0  0  0  0  0  0  0  0  0  0  0  0
   10.8383  -21.0261   24.7947 O   0  0  0  0  0  0  0  0  0  0  0  0
   11.4494  -18.4239   27.4712 C   0  0  0  0  0  0  0  0  0  0  0  0
   11.3351  -19.4030   28.4453 O   0  0  0  0  0  0  0  0  0  0  0  0
   13.1058  -20.7236   24.8504 O   0  0  0  0  0  0  0  0  0  0  0  0
   12.2234  -17.4604   27.6699 O   0  0  0  0  0  0  0  0  0  0  0  0
  2  1  1  0
  2  3  2  0
  4  5  1  0
  4  2  1  0
  5  6  1  1
  7  5  1  0
  7  8  2  0
  9 10  1  0
 11 10  1  0
 12 11  1  0
 13 12  1  1
 13 14  1  0
 14  7  1  0
 15 17  1  0
 15 13  1  0
 16 15  2  0
 18 17  1  0
 18 22  1  0
 19 20  1  0
 18 19  1  6
 20 24  1  0
 21 20  2  0
 22 23  1  0
 25 22  2  0
M  END
$$$$
