NMD.pdb
     RDKit          3D

 25 24  0  0  1  0  0  0  0  0999 V2000
    8.4725  -12.3755   17.5882 N   0  0  0  0  0  0  0  0  0  0  0  0
    7.7302  -13.2896   18.3482 C   0  0  0  0  0  0  0  0  0  0  0  0
    7.0536  -14.1939   17.7950 O   0  0  0  0  0  0  0  0  0  0  0  0
    7.7248  -13.2122   19.8122 C   0  0  0  0  0  0  0  0  0  0  0  0
    8.1872  -14.5329   20.3826 C   0  0  2  0  0  0  0  0  0  0  0  0
    7.1464  -15.5307   20.3555 N   0  0  0  0  0  0  0  0  0  0  0  0
    8.6920  -14.3620   21.7780 C   0  0  0  0  0  0  0  0  0  0  0  0
    9.7316  -13.7025   22.0295 O   0  0  0  0  0  0  0  0  0  0  0  0
    5.3234  -12.9972   26.7393 C   0  0  0  0  0  0  0  0  0  0  0  0
    6.6543  -11.8741   26.2093 S   0  0  0  0  0  0  0  0  0  0  0  0
    7.5304  -12.7641   24.8478 C   0  0  0  0  0  0  0  0  0  0  0  0
    7.5952  -14.2225   25.1387 C   0  0  0  0  0  0  0  0  0  0  0  0
    8.5398  -14.9065   24.2002 C   0  0  2  0  0  0  0  0  0  0  0  0
    7.9963  -14.9481   22.8468 N   0  0  0  0  0  0  0  0  0  0  0  0
    8.9734  -16.2585   24.6134 C   0  0  0  0  0  0  0  0  0  0  0  0
    8.3195  -17.3106   24.4396 O   0  0  0  0  0  0  0  0  0  0  0  0
   10.2379  -16.3848   25.2640 N   0  0  0  0  0  0  0  0  0  0  0  0
   10.7103  -17.6317   25.8212 C   0  0  1  0  0  0  0  0  0  0  0  0
   12.2018  -17.6990   25.6367 C   0  0  0  0  0  0  0  0  0  0  0  0
   12.5336  -17.9300   24.2157 C   0  0  0  0  0  0  0  0  0  0  0  0
   11.8979  -17.3654   23.2991 O   0  0  0  0  0  0  0  0  0  0  0  0
   10.3431  -17.6429   27.2701 C   0  0  0  0  0  0  0  0  0  0  0  0
   10.3896  -18.8055   28.0230 O   0  0  0  0  0  0  0  0  0  0  0  0
   13.5819  -18.7992   23.8866 O   0  0  0  0  0  0  0  0  0  0  0  0
    9.9839  -16.5786   27.8225 O   0  0  0  0  0  0  0  0  0  0  0  0
  2  1  1  0
  2  3  2  0
  4  5  1  0
  4  2  1  0
  5  6  1  1
  7  5  1  0
  7  8  2  0
  9 10  1  0
 11 10  1  0
 12 11  1  0
 13 12  1  1
 13 14  1  0
 14  7  1  0
 15 17  1  0
 15 13  1  0
 16 15  2  0
 18 17  1  0
 18 22  1  0
 19 20  1  0
 18 19  1  1
 20 24  1  0
 21 20  2  0
 22 23  1  0
 25 22  2  0
M  END
$$$$
