NMD.pdb
     RDKit          3D

 25 24  0  0  1  0  0  0  0  0999 V2000
    8.6157  -12.9304   17.4290 N   0  0  0  0  0  0  0  0  0  0  0  0
    7.7912  -13.6858   18.2739 C   0  0  0  0  0  0  0  0  0  0  0  0
    7.0731  -14.6129   17.8195 O   0  0  0  0  0  0  0  0  0  0  0  0
    7.7459  -13.4113   19.7133 C   0  0  0  0  0  0  0  0  0  0  0  0
    8.6749  -14.3627   20.4313 C   0  0  2  0  0  0  0  0  0  0  0  0
    8.2817  -15.7394   20.2592 N   0  0  0  0  0  0  0  0  0  0  0  0
    8.7523  -14.0337   21.8863 C   0  0  0  0  0  0  0  0  0  0  0  0
    9.5067  -13.1276   22.3206 O   0  0  0  0  0  0  0  0  0  0  0  0
    6.3887  -11.2502   26.5598 C   0  0  0  0  0  0  0  0  0  0  0  0
    7.6833  -12.5171   26.7417 S   0  0  0  0  0  0  0  0  0  0  0  0
    6.8593  -14.1190   26.3313 C   0  0  0  0  0  0  0  0  0  0  0  0
    6.7384  -14.2774   24.8562 C   0  0  0  0  0  0  0  0  0  0  0  0
    8.0835  -14.4966   24.2368 C   0  0  2  0  0  0  0  0  0  0  0  0
    7.9667  -14.7478   22.8043 N   0  0  0  0  0  0  0  0  0  0  0  0
    8.9071  -15.5489   24.8699 C   0  0  0  0  0  0  0  0  0  0  0  0
    9.1211  -15.6568   26.0976 O   0  0  0  0  0  0  0  0  0  0  0  0
    9.5115  -16.5250   24.0214 N   0  0  0  0  0  0  0  0  0  0  0  0
   10.2460  -17.6596   24.5329 C   0  0  1  0  0  0  0  0  0  0  0  0
   10.4900  -18.6174   23.3989 C   0  0  0  0  0  0  0  0  0  0  0  0
   10.5055  -20.0086   23.8960 C   0  0  0  0  0  0  0  0  0  0  0  0
   10.4338  -20.2637   25.1178 O   0  0  0  0  0  0  0  0  0  0  0  0
   11.5327  -17.1450   25.0933 C   0  0  0  0  0  0  0  0  0  0  0  0
   11.9992  -17.5502   26.3338 O   0  0  0  0  0  0  0  0  0  0  0  0
   10.6026  -21.0650   22.9810 O   0  0  0  0  0  0  0  0  0  0  0  0
   12.2100  -16.3277   24.4299 O   0  0  0  0  0  0  0  0  0  0  0  0
  2  1  1  0
  2  3  2  0
  4  5  1  0
  4  2  1  0
  5  6  1  1
  7  5  1  0
  7  8  2  0
  9 10  1  0
 11 10  1  0
 12 11  1  0
 13 12  1  1
 13 14  1  0
 14  7  1  0
 15 17  1  0
 15 13  1  0
 16 15  2  0
 18 17  1  0
 18 22  1  0
 19 20  1  0
 18 19  1  6
 20 24  1  0
 21 20  2  0
 22 23  1  0
 25 22  2  0
M  END
$$$$
