NMD.pdb
     RDKit          3D

 25 24  0  0  1  0  0  0  0  0999 V2000
   10.8910  -16.5138   17.5781 N   0  0  0  0  0  0  0  0  0  0  0  0
    9.6748  -16.1088   18.1448 C   0  0  0  0  0  0  0  0  0  0  0  0
    8.5849  -16.3049   17.5489 O   0  0  0  0  0  0  0  0  0  0  0  0
    9.6449  -15.4436   19.4510 C   0  0  0  0  0  0  0  0  0  0  0  0
    9.2827  -16.4529   20.5157 C   0  0  2  0  0  0  0  0  0  0  0  0
    7.9154  -16.8966   20.4009 N   0  0  0  0  0  0  0  0  0  0  0  0
    9.5240  -15.8958   21.8805 C   0  0  0  0  0  0  0  0  0  0  0  0
   10.6825  -15.6452   22.2976 O   0  0  0  0  0  0  0  0  0  0  0  0
    7.2137  -11.0965   26.3275 C   0  0  0  0  0  0  0  0  0  0  0  0
    6.4478  -12.7352   26.5322 S   0  0  0  0  0  0  0  0  0  0  0  0
    7.7387  -13.9465   26.0030 C   0  0  0  0  0  0  0  0  0  0  0  0
    7.5456  -14.3197   24.5750 C   0  0  0  0  0  0  0  0  0  0  0  0
    8.6543  -15.2107   24.1078 C   0  0  2  0  0  0  0  0  0  0  0  0
    8.4367  -15.6404   22.7306 N   0  0  0  0  0  0  0  0  0  0  0  0
    8.9280  -16.3828   24.9667 C   0  0  0  0  0  0  0  0  0  0  0  0
    8.1345  -17.3276   25.1724 O   0  0  0  0  0  0  0  0  0  0  0  0
   10.1963  -16.4518   25.6184 N   0  0  0  0  0  0  0  0  0  0  0  0
   10.6299  -17.6096   26.3665 C   0  0  1  0  0  0  0  0  0  0  0  0
   12.1274  -17.7080   26.2632 C   0  0  0  0  0  0  0  0  0  0  0  0
   12.5175  -18.2317   24.9379 C   0  0  0  0  0  0  0  0  0  0  0  0
   11.6597  -18.5852   24.0999 O   0  0  0  0  0  0  0  0  0  0  0  0
   10.1966  -17.4155   27.7840 C   0  0  0  0  0  0  0  0  0  0  0  0
    9.9723  -18.4904   28.6294 O   0  0  0  0  0  0  0  0  0  0  0  0
   13.8760  -18.3348   24.6117 O   0  0  0  0  0  0  0  0  0  0  0  0
   10.0309  -16.2553   28.2237 O   0  0  0  0  0  0  0  0  0  0  0  0
  2  1  1  0
  2  3  2  0
  4  5  1  0
  4  2  1  0
  5  6  1  1
  7  5  1  0
  7  8  2  0
  9 10  1  0
 11 10  1  0
 12 11  1  0
 13 12  1  1
 13 14  1  0
 14  7  1  0
 15 17  1  0
 15 13  1  0
 16 15  2  0
 18 17  1  0
 18 22  1  0
 19 20  1  0
 18 19  1  1
 20 24  1  0
 21 20  2  0
 22 23  1  0
 25 22  2  0
M  END
$$$$
