NMD.pdb
     RDKit          3D

 25 24  0  0  1  0  0  0  0  0999 V2000
   11.3959  -16.5561   17.7015 N   0  0  0  0  0  0  0  0  0  0  0  0
   10.1205  -16.2121   18.1696 C   0  0  0  0  0  0  0  0  0  0  0  0
    9.0897  -16.4864   17.5034 O   0  0  0  0  0  0  0  0  0  0  0  0
    9.9575  -15.5209   19.4523 C   0  0  0  0  0  0  0  0  0  0  0  0
    9.5169  -16.5152   20.5014 C   0  0  2  0  0  0  0  0  0  0  0  0
    8.1605  -16.9586   20.2941 N   0  0  0  0  0  0  0  0  0  0  0  0
    9.6603  -15.9402   21.8725 C   0  0  0  0  0  0  0  0  0  0  0  0
   10.7542  -15.4806   22.2863 O   0  0  0  0  0  0  0  0  0  0  0  0
    7.1877  -11.3824   26.7514 C   0  0  0  0  0  0  0  0  0  0  0  0
    6.3315  -12.9389   26.3541 S   0  0  0  0  0  0  0  0  0  0  0  0
    7.6708  -14.1352   25.9195 C   0  0  0  0  0  0  0  0  0  0  0  0
    7.5482  -14.5571   24.4973 C   0  0  0  0  0  0  0  0  0  0  0  0
    8.6919  -15.4413   24.1085 C   0  0  2  0  0  0  0  0  0  0  0  0
    8.5517  -15.9057   22.7326 N   0  0  0  0  0  0  0  0  0  0  0  0
    8.9377  -16.5891   25.0078 C   0  0  0  0  0  0  0  0  0  0  0  0
    8.1180  -17.5012   25.2541 O   0  0  0  0  0  0  0  0  0  0  0  0
   10.2090  -16.6729   25.6519 N   0  0  0  0  0  0  0  0  0  0  0  0
   10.5616  -17.7480   26.5508 C   0  0  1  0  0  0  0  0  0  0  0  0
   12.0233  -18.0557   26.3723 C   0  0  0  0  0  0  0  0  0  0  0  0
   12.3106  -18.3826   24.9604 C   0  0  0  0  0  0  0  0  0  0  0  0
   11.6440  -19.2412   24.3428 O   0  0  0  0  0  0  0  0  0  0  0  0
   10.2724  -17.2826   27.9416 C   0  0  0  0  0  0  0  0  0  0  0  0
   10.2684  -18.1586   29.0154 O   0  0  0  0  0  0  0  0  0  0  0  0
   13.3510  -17.7178   24.2984 O   0  0  0  0  0  0  0  0  0  0  0  0
   10.0271  -16.0725   28.1474 O   0  0  0  0  0  0  0  0  0  0  0  0
  2  1  1  0
  2  3  2  0
  4  5  1  0
  4  2  1  0
  5  6  1  6
  7  5  1  0
  7  8  2  0
  9 10  1  0
 11 10  1  0
 12 11  1  0
 13 12  1  1
 13 14  1  0
 14  7  1  0
 15 17  1  0
 15 13  1  0
 16 15  2  0
 18 17  1  0
 18 22  1  0
 19 20  1  0
 18 19  1  1
 20 24  1  0
 21 20  2  0
 22 23  1  0
 25 22  2  0
M  END
$$$$
