NMD.pdb
     RDKit          3D

 25 24  0  0  1  0  0  0  0  0999 V2000
    8.4081  -17.0462   18.2663 N   0  0  0  0  0  0  0  0  0  0  0  0
    8.2840  -15.6686   18.4918 C   0  0  0  0  0  0  0  0  0  0  0  0
    8.2466  -14.8556   17.5331 O   0  0  0  0  0  0  0  0  0  0  0  0
    8.1948  -15.1408   19.8567 C   0  0  0  0  0  0  0  0  0  0  0  0
    8.3081  -16.2822   20.8405 C   0  0  2  0  0  0  0  0  0  0  0  0
    7.0503  -16.9610   21.0323 N   0  0  0  0  0  0  0  0  0  0  0  0
    8.8326  -15.8019   22.1541 C   0  0  0  0  0  0  0  0  0  0  0  0
   10.0521  -15.5551   22.3293 O   0  0  0  0  0  0  0  0  0  0  0  0
    7.0739  -12.0014   27.3815 C   0  0  0  0  0  0  0  0  0  0  0  0
    6.0951  -12.2604   25.8687 S   0  0  0  0  0  0  0  0  0  0  0  0
    7.1692  -13.2763   24.7607 C   0  0  0  0  0  0  0  0  0  0  0  0
    7.4624  -14.5941   25.3879 C   0  0  0  0  0  0  0  0  0  0  0  0
    8.4599  -15.3565   24.5726 C   0  0  2  0  0  0  0  0  0  0  0  0
    7.9508  -15.6168   23.2303 N   0  0  0  0  0  0  0  0  0  0  0  0
    8.9466  -16.6128   25.1820 C   0  0  0  0  0  0  0  0  0  0  0  0
    8.3365  -17.7047   25.1693 O   0  0  0  0  0  0  0  0  0  0  0  0
   10.2131  -16.5890   25.8404 N   0  0  0  0  0  0  0  0  0  0  0  0
   10.8057  -17.7627   26.4400 C   0  0  1  0  0  0  0  0  0  0  0  0
   12.2853  -17.7380   26.1699 C   0  0  0  0  0  0  0  0  0  0  0  0
   12.5711  -18.2799   24.8255 C   0  0  0  0  0  0  0  0  0  0  0  0
   11.6512  -18.6515   24.0648 O   0  0  0  0  0  0  0  0  0  0  0  0
   10.5222  -17.7085   27.9067 C   0  0  0  0  0  0  0  0  0  0  0  0
   10.7027  -18.8135   28.7235 O   0  0  0  0  0  0  0  0  0  0  0  0
   13.8996  -18.3800   24.3923 O   0  0  0  0  0  0  0  0  0  0  0  0
   10.1114  -16.6411   28.4154 O   0  0  0  0  0  0  0  0  0  0  0  0
  2  1  1  0
  2  3  2  0
  4  5  1  0
  4  2  1  0
  5  6  1  1
  7  5  1  0
  7  8  2  0
  9 10  1  0
 11 10  1  0
 12 11  1  0
 13 12  1  1
 13 14  1  0
 14  7  1  0
 15 17  1  0
 15 13  1  0
 16 15  2  0
 18 17  1  0
 18 22  1  0
 19 20  1  0
 18 19  1  1
 20 24  1  0
 21 20  2  0
 22 23  1  0
 25 22  2  0
M  END
$$$$
