NMD.pdb
     RDKit          3D

 25 24  0  0  1  0  0  0  0  0999 V2000
    8.3784  -16.8398   18.6454 N   0  0  0  0  0  0  0  0  0  0  0  0
    9.0321  -15.6131   18.8243 C   0  0  0  0  0  0  0  0  0  0  0  0
    9.3506  -14.8987   17.8396 O   0  0  0  0  0  0  0  0  0  0  0  0
    9.3619  -15.1324   20.1695 C   0  0  0  0  0  0  0  0  0  0  0  0
    9.0320  -16.2085   21.1778 C   0  0  2  0  0  0  0  0  0  0  0  0
    7.6212  -16.5054   21.2136 N   0  0  0  0  0  0  0  0  0  0  0  0
    9.5056  -15.8231   22.5410 C   0  0  0  0  0  0  0  0  0  0  0  0
   10.7051  -15.5229   22.7646 O   0  0  0  0  0  0  0  0  0  0  0  0
    5.7589  -12.5916   26.9546 C   0  0  0  0  0  0  0  0  0  0  0  0
    7.5163  -12.2432   26.6321 S   0  0  0  0  0  0  0  0  0  0  0  0
    7.9992  -13.3924   25.2684 C   0  0  0  0  0  0  0  0  0  0  0  0
    8.0737  -14.7916   25.7709 C   0  0  0  0  0  0  0  0  0  0  0  0
    9.0643  -15.5854   24.9773 C   0  0  2  0  0  0  0  0  0  0  0  0
    8.5971  -15.7910   23.6105 N   0  0  0  0  0  0  0  0  0  0  0  0
    9.4639  -16.8772   25.5756 C   0  0  0  0  0  0  0  0  0  0  0  0
    8.7402  -17.8951   25.6445 O   0  0  0  0  0  0  0  0  0  0  0  0
   10.7787  -16.9823   26.1217 N   0  0  0  0  0  0  0  0  0  0  0  0
   11.2317  -18.1428   26.8540 C   0  0  1  0  0  0  0  0  0  0  0  0
   12.7174  -18.2768   26.6594 C   0  0  0  0  0  0  0  0  0  0  0  0
   13.0076  -19.1806   25.5272 C   0  0  0  0  0  0  0  0  0  0  0  0
   12.4018  -19.0751   24.4387 O   0  0  0  0  0  0  0  0  0  0  0  0
   10.8918  -17.9255   28.2933 C   0  0  0  0  0  0  0  0  0  0  0  0
   10.9162  -18.9637   29.2110 O   0  0  0  0  0  0  0  0  0  0  0  0
   13.9814  -20.1769   25.6745 O   0  0  0  0  0  0  0  0  0  0  0  0
   10.5765  -16.7792   28.6852 O   0  0  0  0  0  0  0  0  0  0  0  0
  2  1  1  0
  2  3  2  0
  4  5  1  0
  4  2  1  0
  5  6  1  1
  7  5  1  0
  7  8  2  0
  9 10  1  0
 11 10  1  0
 12 11  1  0
 13 12  1  1
 13 14  1  0
 14  7  1  0
 15 17  1  0
 15 13  1  0
 16 15  2  0
 18 17  1  0
 18 22  1  0
 19 20  1  0
 18 19  1  1
 20 24  1  0
 21 20  2  0
 22 23  1  0
 25 22  2  0
M  END
$$$$
