NMD.pdb
     RDKit          3D

 25 24  0  0  1  0  0  0  0  0999 V2000
    8.1432  -12.3324   17.8260 N   0  0  0  0  0  0  0  0  0  0  0  0
    8.0633  -13.4844   18.6202 C   0  0  0  0  0  0  0  0  0  0  0  0
    7.7459  -14.5945   18.1219 O   0  0  0  0  0  0  0  0  0  0  0  0
    8.3487  -13.4217   20.0569 C   0  0  0  0  0  0  0  0  0  0  0  0
    8.5759  -14.8206   20.5812 C   0  0  2  0  0  0  0  0  0  0  0  0
    7.4281  -15.6698   20.3787 N   0  0  0  0  0  0  0  0  0  0  0  0
    8.9393  -14.7931   22.0297 C   0  0  0  0  0  0  0  0  0  0  0  0
   10.0899  -14.4694   22.4173 O   0  0  0  0  0  0  0  0  0  0  0  0
    6.3829  -10.7286   26.3344 C   0  0  0  0  0  0  0  0  0  0  0  0
    6.8841  -12.4352   26.7219 S   0  0  0  0  0  0  0  0  0  0  0  0
    7.0079  -13.2901   25.0887 C   0  0  0  0  0  0  0  0  0  0  0  0
    7.2323  -14.7488   25.2823 C   0  0  0  0  0  0  0  0  0  0  0  0
    8.3441  -15.2329   24.4044 C   0  0  2  0  0  0  0  0  0  0  0  0
    7.9796  -15.1357   22.9950 N   0  0  0  0  0  0  0  0  0  0  0  0
    8.8419  -16.5922   24.7061 C   0  0  0  0  0  0  0  0  0  0  0  0
    8.3091  -17.6572   24.3233 O   0  0  0  0  0  0  0  0  0  0  0  0
   10.0243  -16.7103   25.4971 N   0  0  0  0  0  0  0  0  0  0  0  0
   10.6469  -17.9813   25.7893 C   0  0  1  0  0  0  0  0  0  0  0  0
   12.0690  -17.9367   25.3009 C   0  0  0  0  0  0  0  0  0  0  0  0
   12.7611  -19.2028   25.6185 C   0  0  0  0  0  0  0  0  0  0  0  0
   12.5336  -19.8195   26.6819 O   0  0  0  0  0  0  0  0  0  0  0  0
   10.5890  -18.1790   27.2699 C   0  0  0  0  0  0  0  0  0  0  0  0
   10.6365  -19.4426   27.8371 O   0  0  0  0  0  0  0  0  0  0  0  0
   13.6916  -19.7245   24.7105 O   0  0  0  0  0  0  0  0  0  0  0  0
   10.4953  -17.1821   28.0209 O   0  0  0  0  0  0  0  0  0  0  0  0
  2  1  1  0
  2  3  2  0
  4  5  1  0
  4  2  1  0
  5  6  1  1
  7  5  1  0
  7  8  2  0
  9 10  1  0
 11 10  1  0
 12 11  1  0
 13 12  1  1
 13 14  1  0
 14  7  1  0
 15 17  1  0
 15 13  1  0
 16 15  2  0
 18 17  1  0
 18 22  1  0
 19 20  1  0
 18 19  1  1
 20 24  1  0
 21 20  2  0
 22 23  1  0
 25 22  2  0
M  END
$$$$
