VAP.pdb
     RDKit          3D

 20 20  0  0  1  0  0  0  0  0999 V2000
   15.8282   -8.7658  -17.0063 C   0  0  0  0  0  0  0  0  0  0  0  0
   15.7890  -10.1730  -16.5210 C   0  0  1  0  0  0  0  0  0  0  0  0
   14.6848  -10.9099  -17.2510 C   0  0  0  0  0  0  0  0  0  0  0  0
   17.0606  -10.9350  -16.7351 C   0  0  2  0  0  0  0  0  0  0  0  0
   16.9419  -12.2398  -16.1200 N   0  0  0  0  0  0  0  0  0  0  0  0
   18.2589  -10.2855  -16.2087 C   0  0  0  0  0  0  0  0  0  0  0  0
   18.4211  -10.2813  -14.9605 O   0  0  0  0  0  0  0  0  0  0  0  0
   21.5022   -8.9356  -17.4841 C   0  0  0  0  0  0  0  0  0  0  0  0
   20.4068   -8.9450  -16.4329 C   0  0  2  0  0  0  0  0  0  0  0  0
   19.2568   -9.6579  -16.9877 N   0  0  0  0  0  0  0  0  0  0  0  0
   20.0374   -7.5796  -16.0116 C   0  0  0  0  0  0  0  0  0  0  0  0
   19.3105   -6.9218  -16.7746 O   0  0  0  0  0  0  0  0  0  0  0  0
   20.4729   -7.0222  -14.8065 N   0  0  0  0  0  0  0  0  0  0  0  0
   20.8495   -7.8981  -13.6576 C   0  0  0  0  0  0  0  0  0  0  0  0
   22.0711   -7.2227  -13.0823 C   0  0  0  0  0  0  0  0  0  0  0  0
   22.1522   -5.8812  -13.7744 C   0  0  0  0  0  0  0  0  0  0  0  0
   20.6981   -5.7259  -14.2768 C   0  0  1  0  0  0  0  0  0  0  0  0
   20.5389   -4.5590  -15.1022 C   0  0  0  0  0  0  0  0  0  0  0  0
   19.8284   -3.4033  -14.8846 O   0  0  0  0  0  0  0  0  0  0  0  0
   21.1591   -4.5915  -16.2335 O   0  0  0  0  0  0  0  0  0  0  0  0
  2  1  1  6
  2  4  1  0
  3  2  1  0
  4  5  1  1
  6 10  1  0
  6  4  1  0
  7  6  2  0
  9  8  1  6
  9 10  1  0
  9 11  1  0
 11 13  1  0
 12 11  2  0
 13 14  1  0
 13 17  1  0
 14 15  1  0
 15 16  1  0
 17 18  1  6
 17 16  1  0
 18 19  1  0
 20 18  2  0
M  END
$$$$
