VAP.pdb
     RDKit          3D

 20 20  0  0  1  0  0  0  0  0999 V2000
   18.5604   -9.2620  -19.3005 C   0  0  0  0  0  0  0  0  0  0  0  0
   17.7441  -10.1745  -18.4532 C   0  0  1  0  0  0  0  0  0  0  0  0
   16.9421  -11.0901  -19.3552 C   0  0  0  0  0  0  0  0  0  0  0  0
   18.5449  -11.0381  -17.5277 C   0  0  2  0  0  0  0  0  0  0  0  0
   17.6457  -11.8717  -16.7586 N   0  0  0  0  0  0  0  0  0  0  0  0
   19.4028  -10.3070  -16.5980 C   0  0  0  0  0  0  0  0  0  0  0  0
   18.8471   -9.6872  -15.6538 O   0  0  0  0  0  0  0  0  0  0  0  0
   23.0594  -10.0529  -15.8178 C   0  0  0  0  0  0  0  0  0  0  0  0
   21.6489   -9.4987  -15.7249 C   0  0  2  0  0  0  0  0  0  0  0  0
   20.8122  -10.2367  -16.6702 N   0  0  0  0  0  0  0  0  0  0  0  0
   21.6093   -8.0482  -15.9946 C   0  0  0  0  0  0  0  0  0  0  0  0
   21.7190   -7.6823  -17.1767 O   0  0  0  0  0  0  0  0  0  0  0  0
   21.4548   -7.0999  -14.9799 N   0  0  0  0  0  0  0  0  0  0  0  0
   20.8220   -7.4751  -13.6808 C   0  0  0  0  0  0  0  0  0  0  0  0
   21.6576   -6.7464  -12.6558 C   0  0  0  0  0  0  0  0  0  0  0  0
   22.5385   -5.8081  -13.4489 C   0  0  0  0  0  0  0  0  0  0  0  0
   21.7535   -5.7281  -14.7786 C   0  0  1  0  0  0  0  0  0  0  0  0
   22.4676   -4.9792  -15.7773 C   0  0  0  0  0  0  0  0  0  0  0  0
   22.3508   -3.6644  -16.1588 O   0  0  0  0  0  0  0  0  0  0  0  0
   23.3662   -5.6390  -16.4276 O   0  0  0  0  0  0  0  0  0  0  0  0
  2  1  1  6
  2  4  1  0
  3  2  1  0
  4  5  1  1
  6 10  1  0
  6  4  1  0
  7  6  2  0
  9  8  1  6
  9 10  1  0
  9 11  1  0
 11 13  1  0
 12 11  2  0
 13 14  1  0
 13 17  1  0
 14 15  1  0
 15 16  1  0
 17 18  1  6
 17 16  1  0
 18 19  1  0
 20 18  2  0
M  END
$$$$
