VAP.pdb
     RDKit          3D

 20 20  0  0  1  0  0  0  0  0999 V2000
   16.4286   -8.7550  -17.2281 C   0  0  0  0  0  0  0  0  0  0  0  0
   16.3553  -10.1124  -16.6205 C   0  0  1  0  0  0  0  0  0  0  0  0
   15.3575  -10.9429  -17.4014 C   0  0  0  0  0  0  0  0  0  0  0  0
   17.6556  -10.8558  -16.6126 C   0  0  2  0  0  0  0  0  0  0  0  0
   17.4722  -12.1268  -15.9450 N   0  0  0  0  0  0  0  0  0  0  0  0
   18.7593  -10.1508  -15.9646 C   0  0  0  0  0  0  0  0  0  0  0  0
   18.7344  -10.0537  -14.7098 O   0  0  0  0  0  0  0  0  0  0  0  0
   22.2336   -9.1623  -16.7115 C   0  0  0  0  0  0  0  0  0  0  0  0
   20.9494   -8.8611  -15.9596 C   0  0  2  0  0  0  0  0  0  0  0  0
   19.8585   -9.5655  -16.6320 N   0  0  0  0  0  0  0  0  0  0  0  0
   20.6838   -7.4112  -15.8841 C   0  0  0  0  0  0  0  0  0  0  0  0
   20.1919   -6.8661  -16.8862 O   0  0  0  0  0  0  0  0  0  0  0  0
   20.9640   -6.6552  -14.7427 N   0  0  0  0  0  0  0  0  0  0  0  0
   21.0260   -7.3038  -13.3995 C   0  0  0  0  0  0  0  0  0  0  0  0
   22.1990   -6.6264  -12.7325 C   0  0  0  0  0  0  0  0  0  0  0  0
   22.5593   -5.4672  -13.6334 C   0  0  0  0  0  0  0  0  0  0  0  0
   21.2451   -5.3005  -14.4308 C   0  0  1  0  0  0  0  0  0  0  0  0
   21.3731   -4.3193  -15.4744 C   0  0  0  0  0  0  0  0  0  0  0  0
   20.8534   -3.0515  -15.5748 O   0  0  0  0  0  0  0  0  0  0  0  0
   22.0901   -4.6769  -16.4863 O   0  0  0  0  0  0  0  0  0  0  0  0
  2  1  1  6
  2  4  1  0
  3  2  1  0
  4  5  1  1
  6 10  1  0
  6  4  1  0
  7  6  2  0
  9  8  1  6
  9 10  1  0
  9 11  1  0
 11 13  1  0
 12 11  2  0
 13 14  1  0
 13 17  1  0
 14 15  1  0
 15 16  1  0
 17 18  1  6
 17 16  1  0
 18 19  1  0
 20 18  2  0
M  END
$$$$
