VAP.pdb
     RDKit          3D

 20 20  0  0  1  0  0  0  0  0999 V2000
   21.4764  -20.7456  -18.9461 C   0  0  0  0  0  0  0  0  0  0  0  0
   22.1451  -20.5373  -17.6322 C   0  0  1  0  0  0  0  0  0  0  0  0
   22.2071  -19.0507  -17.3469 C   0  0  0  0  0  0  0  0  0  0  0  0
   21.4523  -21.1917  -16.4766 C   0  0  2  0  0  0  0  0  0  0  0  0
   20.0331  -20.9194  -16.5574 N   0  0  0  0  0  0  0  0  0  0  0  0
   21.9274  -20.7707  -15.1606 C   0  0  0  0  0  0  0  0  0  0  0  0
   23.0874  -21.1198  -14.8186 O   0  0  0  0  0  0  0  0  0  0  0  0
   21.0035  -18.2992  -12.5363 C   0  0  0  0  0  0  0  0  0  0  0  0
   21.6840  -19.6021  -12.9166 C   0  0  2  0  0  0  0  0  0  0  0  0
   21.1897  -20.0001  -14.2340 N   0  0  0  0  0  0  0  0  0  0  0  0
   21.4466  -20.6591  -11.9143 C   0  0  0  0  0  0  0  0  0  0  0  0
   20.3708  -21.2773  -11.9777 O   0  0  0  0  0  0  0  0  0  0  0  0
   22.3777  -20.9748  -10.9213 N   0  0  0  0  0  0  0  0  0  0  0  0
   23.8359  -20.7510  -11.1498 C   0  0  0  0  0  0  0  0  0  0  0  0
   24.3246  -20.2167   -9.8249 C   0  0  0  0  0  0  0  0  0  0  0  0
   23.1759  -20.4163   -8.8627 C   0  0  0  0  0  0  0  0  0  0  0  0
   22.3617  -21.5015   -9.6045 C   0  0  1  0  0  0  0  0  0  0  0  0
   21.1163  -21.7821   -8.9423 C   0  0  0  0  0  0  0  0  0  0  0  0
   20.7042  -22.8973   -8.2537 O   0  0  0  0  0  0  0  0  0  0  0  0
   20.2348  -20.8410   -8.9977 O   0  0  0  0  0  0  0  0  0  0  0  0
  2  1  1  6
  2  4  1  0
  3  2  1  0
  4  5  1  1
  6 10  1  0
  6  4  1  0
  7  6  2  0
  9  8  1  1
  9 10  1  0
  9 11  1  0
 11 13  1  0
 12 11  2  0
 13 14  1  0
 13 17  1  0
 14 15  1  0
 15 16  1  0
 17 18  1  1
 17 16  1  0
 18 19  1  0
 20 18  2  0
M  END
$$$$
