VAP.pdb
     RDKit          3D

 20 20  0  0  1  0  0  0  0  0999 V2000
   26.4825  -24.9110  -18.6014 C   0  0  0  0  0  0  0  0  0  0  0  0
   26.5409  -24.1668  -17.3130 C   0  0  1  0  0  0  0  0  0  0  0  0
   27.0345  -25.1044  -16.2303 C   0  0  0  0  0  0  0  0  0  0  0  0
   27.4489  -22.9757  -17.3293 C   0  0  2  0  0  0  0  0  0  0  0  0
   28.7647  -23.3873  -17.7695 N   0  0  0  0  0  0  0  0  0  0  0  0
   27.5860  -22.2937  -16.0443 C   0  0  0  0  0  0  0  0  0  0  0  0
   28.7507  -22.0608  -15.6275 O   0  0  0  0  0  0  0  0  0  0  0  0
   27.2147  -19.6310  -14.6766 C   0  0  0  0  0  0  0  0  0  0  0  0
   26.6486  -20.9247  -14.1189 C   0  0  2  0  0  0  0  0  0  0  0  0
   26.5148  -21.8713  -15.2254 N   0  0  0  0  0  0  0  0  0  0  0  0
   25.3564  -20.7110  -13.4384 C   0  0  0  0  0  0  0  0  0  0  0  0
   24.4258  -20.2381  -14.1120 O   0  0  0  0  0  0  0  0  0  0  0  0
   25.1579  -21.0198  -12.0901 N   0  0  0  0  0  0  0  0  0  0  0  0
   26.2646  -21.6014  -11.2741 C   0  0  0  0  0  0  0  0  0  0  0  0
   26.1321  -20.8984   -9.9445 C   0  0  0  0  0  0  0  0  0  0  0  0
   24.8126  -20.1634  -10.0082 C   0  0  0  0  0  0  0  0  0  0  0  0
   24.1044  -20.9372  -11.1442 C   0  0  1  0  0  0  0  0  0  0  0  0
   22.8469  -20.3359  -11.4983 C   0  0  0  0  0  0  0  0  0  0  0  0
   21.5956  -20.5007  -10.9555 O   0  0  0  0  0  0  0  0  0  0  0  0
   22.8883  -19.5050  -12.4850 O   0  0  0  0  0  0  0  0  0  0  0  0
  2  1  1  6
  2  4  1  0
  3  2  1  0
  4  5  1  1
  6 10  1  0
  6  4  1  0
  7  6  2  0
  9  8  1  6
  9 10  1  0
  9 11  1  0
 11 13  1  0
 12 11  2  0
 13 14  1  0
 13 17  1  0
 14 15  1  0
 15 16  1  0
 17 18  1  6
 17 16  1  0
 18 19  1  0
 20 18  2  0
M  END
$$$$
