VAP.pdb
     RDKit          3D

 20 20  0  0  1  0  0  0  0  0999 V2000
   25.0378  -21.5796  -13.2083 C   0  0  0  0  0  0  0  0  0  0  0  0
   26.1020  -21.0957  -12.2861 C   0  0  1  0  0  0  0  0  0  0  0  0
   26.1635  -19.5840  -12.3631 C   0  0  0  0  0  0  0  0  0  0  0  0
   25.8905  -21.4680  -10.8507 C   0  0  2  0  0  0  0  0  0  0  0  0
   24.5282  -21.1556  -10.4746 N   0  0  0  0  0  0  0  0  0  0  0  0
   26.7909  -20.8073   -9.9085 C   0  0  0  0  0  0  0  0  0  0  0  0
   28.0178  -21.0781   -9.9846 O   0  0  0  0  0  0  0  0  0  0  0  0
   26.8044  -17.8702   -7.6536 C   0  0  0  0  0  0  0  0  0  0  0  0
   27.3138  -19.2685   -7.9543 C   0  0  2  0  0  0  0  0  0  0  0  0
   26.3977  -19.8846   -8.9132 N   0  0  0  0  0  0  0  0  0  0  0  0
   27.4354  -20.0843   -6.7304 C   0  0  0  0  0  0  0  0  0  0  0  0
   26.3861  -20.5105   -6.2196 O   0  0  0  0  0  0  0  0  0  0  0  0
   28.6694  -20.3827   -6.1465 N   0  0  0  0  0  0  0  0  0  0  0  0
   29.8482  -20.7240   -6.9966 C   0  0  0  0  0  0  0  0  0  0  0  0
   30.9944  -20.0169   -6.3140 C   0  0  0  0  0  0  0  0  0  0  0  0
   30.4416  -19.5410   -4.9899 C   0  0  0  0  0  0  0  0  0  0  0  0
   29.2127  -20.4672   -4.8391 C   0  0  1  0  0  0  0  0  0  0  0  0
   28.4185  -20.1200   -3.6915 C   0  0  0  0  0  0  0  0  0  0  0  0
   28.4674  -20.5852   -2.3996 O   0  0  0  0  0  0  0  0  0  0  0  0
   27.5086  -19.2279   -3.8965 O   0  0  0  0  0  0  0  0  0  0  0  0
  2  1  1  6
  2  4  1  0
  3  2  1  0
  4  5  1  1
  6 10  1  0
  6  4  1  0
  7  6  2  0
  9  8  1  1
  9 10  1  0
  9 11  1  0
 11 13  1  0
 12 11  2  0
 13 14  1  0
 13 17  1  0
 14 15  1  0
 15 16  1  0
 17 18  1  1
 17 16  1  0
 18 19  1  0
 20 18  2  0
M  END
$$$$
