VAP.pdb
     RDKit          3D

 20 20  0  0  1  0  0  0  0  0999 V2000
   23.3676  -14.4520  -14.6815 C   0  0  0  0  0  0  0  0  0  0  0  0
   23.2222  -13.0194  -15.0605 C   0  0  1  0  0  0  0  0  0  0  0  0
   24.5706  -12.4944  -15.5090 C   0  0  0  0  0  0  0  0  0  0  0  0
   22.2473  -12.7708  -16.1702 C   0  0  2  0  0  0  0  0  0  0  0  0
   22.6807  -13.4847  -17.3522 N   0  0  0  0  0  0  0  0  0  0  0  0
   22.0674  -11.3642  -16.5225 C   0  0  0  0  0  0  0  0  0  0  0  0
   22.7430  -10.9111  -17.4831 O   0  0  0  0  0  0  0  0  0  0  0  0
   19.5075   -8.8275  -16.4072 C   0  0  0  0  0  0  0  0  0  0  0  0
   20.9999   -9.0712  -16.2710 C   0  0  2  0  0  0  0  0  0  0  0  0
   21.1937  -10.4645  -15.8715 N   0  0  0  0  0  0  0  0  0  0  0  0
   21.6221   -8.1459  -15.3041 C   0  0  0  0  0  0  0  0  0  0  0  0
   21.5452   -8.4395  -14.0995 O   0  0  0  0  0  0  0  0  0  0  0  0
   22.2794   -6.9777  -15.6992 N   0  0  0  0  0  0  0  0  0  0  0  0
   22.8024   -6.8348  -17.0902 C   0  0  0  0  0  0  0  0  0  0  0  0
   22.4814   -5.4026  -17.4443 C   0  0  0  0  0  0  0  0  0  0  0  0
   22.0368   -4.7587  -16.1509 C   0  0  0  0  0  0  0  0  0  0  0  0
   22.6425   -5.7363  -15.1173 C   0  0  1  0  0  0  0  0  0  0  0  0
   22.2424   -5.4112  -13.7747 C   0  0  0  0  0  0  0  0  0  0  0  0
   22.9670   -4.8910  -12.7297 O   0  0  0  0  0  0  0  0  0  0  0  0
   21.0039   -5.6416  -13.4944 O   0  0  0  0  0  0  0  0  0  0  0  0
  2  1  1  6
  2  4  1  0
  3  2  1  0
  4  5  1  6
  6 10  1  0
  6  4  1  0
  7  6  2  0
  9  8  1  1
  9 10  1  0
  9 11  1  0
 11 13  1  0
 12 11  2  0
 13 14  1  0
 13 17  1  0
 14 15  1  0
 15 16  1  0
 17 18  1  1
 17 16  1  0
 18 19  1  0
 20 18  2  0
M  END
$$$$
