VAP.pdb
     RDKit          3D

 20 20  0  0  1  0  0  0  0  0999 V2000
   18.0118  -11.4350  -19.2737 C   0  0  0  0  0  0  0  0  0  0  0  0
   18.2260  -10.5283  -18.1122 C   0  0  1  0  0  0  0  0  0  0  0  0
   16.8780  -10.0573  -17.6062 C   0  0  0  0  0  0  0  0  0  0  0  0
   18.9464  -11.1603  -16.9610 C   0  0  2  0  0  0  0  0  0  0  0  0
   18.2664  -12.3823  -16.5881 N   0  0  0  0  0  0  0  0  0  0  0  0
   19.0603  -10.3165  -15.7735 C   0  0  0  0  0  0  0  0  0  0  0  0
   18.1027  -10.3245  -14.9566 O   0  0  0  0  0  0  0  0  0  0  0  0
   21.6595   -8.1667  -14.1135 C   0  0  0  0  0  0  0  0  0  0  0  0
   20.2136   -8.5837  -14.3149 C   0  0  2  0  0  0  0  0  0  0  0  0
   20.1617   -9.4875  -15.4633 N   0  0  0  0  0  0  0  0  0  0  0  0
   19.3278   -7.4194  -14.5099 C   0  0  0  0  0  0  0  0  0  0  0  0
   19.3932   -6.8261  -15.5994 O   0  0  0  0  0  0  0  0  0  0  0  0
   18.4393   -6.9787  -13.5254 N   0  0  0  0  0  0  0  0  0  0  0  0
   18.0083   -7.8943  -12.4277 C   0  0  0  0  0  0  0  0  0  0  0  0
   17.9983   -7.0050  -11.2076 C   0  0  0  0  0  0  0  0  0  0  0  0
   18.1700   -5.5984  -11.7340 C   0  0  0  0  0  0  0  0  0  0  0  0
   17.7408   -5.7860  -13.2076 C   0  0  1  0  0  0  0  0  0  0  0  0
   17.9431   -4.5901  -13.9803 C   0  0  0  0  0  0  0  0  0  0  0  0
   19.0149   -4.1912  -14.7417 O   0  0  0  0  0  0  0  0  0  0  0  0
   16.9660   -3.7471  -13.9628 O   0  0  0  0  0  0  0  0  0  0  0  0
  2  1  1  6
  2  4  1  0
  3  2  1  0
  4  5  1  1
  6 10  1  0
  6  4  1  0
  7  6  2  0
  9  8  1  6
  9 10  1  0
  9 11  1  0
 11 13  1  0
 12 11  2  0
 13 14  1  0
 13 17  1  0
 14 15  1  0
 15 16  1  0
 17 18  1  6
 17 16  1  0
 18 19  1  0
 20 18  2  0
M  END
$$$$
