VAP.pdb
     RDKit          3D

 20 20  0  0  1  0  0  0  0  0999 V2000
   23.8973  -13.2383  -14.8075 C   0  0  0  0  0  0  0  0  0  0  0  0
   23.3060  -11.8966  -15.0669 C   0  0  1  0  0  0  0  0  0  0  0  0
   24.1815  -11.1620  -16.0614 C   0  0  0  0  0  0  0  0  0  0  0  0
   21.9169  -11.9323  -15.6260 C   0  0  2  0  0  0  0  0  0  0  0  0
   21.9212  -12.6860  -16.8616 N   0  0  0  0  0  0  0  0  0  0  0  0
   21.3298  -10.6204  -15.8894 C   0  0  0  0  0  0  0  0  0  0  0  0
   21.4188  -10.1644  -17.0593 O   0  0  0  0  0  0  0  0  0  0  0  0
   18.7219   -8.4428  -14.5590 C   0  0  0  0  0  0  0  0  0  0  0  0
   20.0844   -8.5064  -15.2259 C   0  0  2  0  0  0  0  0  0  0  0  0
   20.6668   -9.8159  -14.9356 N   0  0  0  0  0  0  0  0  0  0  0  0
   20.9693   -7.4152  -14.7738 C   0  0  0  0  0  0  0  0  0  0  0  0
   21.5602   -7.5681  -13.6917 O   0  0  0  0  0  0  0  0  0  0  0  0
   21.1553   -6.2442  -15.5133 N   0  0  0  0  0  0  0  0  0  0  0  0
   20.8552   -6.2146  -16.9755 C   0  0  0  0  0  0  0  0  0  0  0  0
   20.2001   -4.8691  -17.1759 C   0  0  0  0  0  0  0  0  0  0  0  0
   20.4054   -4.1246  -15.8764 C   0  0  0  0  0  0  0  0  0  0  0  0
   21.5892   -4.9155  -15.2732 C   0  0  1  0  0  0  0  0  0  0  0  0
   21.9022   -4.4763  -13.9399 C   0  0  0  0  0  0  0  0  0  0  0  0
   21.5434   -4.9999  -12.7215 O   0  0  0  0  0  0  0  0  0  0  0  0
   22.6389   -3.4193  -13.8633 O   0  0  0  0  0  0  0  0  0  0  0  0
  2  1  1  6
  2  4  1  0
  3  2  1  0
  4  5  1  6
  6 10  1  0
  6  4  1  0
  7  6  2  0
  9  8  1  1
  9 10  1  0
  9 11  1  0
 11 13  1  0
 12 11  2  0
 13 14  1  0
 13 17  1  0
 14 15  1  0
 15 16  1  0
 17 18  1  1
 17 16  1  0
 18 19  1  0
 20 18  2  0
M  END
$$$$
