VAP.pdb
     RDKit          3D

 20 20  0  0  1  0  0  0  0  0999 V2000
   22.7407  -35.8909  -10.4056 C   0  0  0  0  0  0  0  0  0  0  0  0
   23.5699  -35.8731  -11.6421 C   0  0  1  0  0  0  0  0  0  0  0  0
   22.6771  -36.1586  -12.8322 C   0  0  0  0  0  0  0  0  0  0  0  0
   24.2655  -34.5717  -11.8997 C   0  0  2  0  0  0  0  0  0  0  0  0
   25.1199  -34.7111  -13.0596 N   0  0  0  0  0  0  0  0  0  0  0  0
   25.0762  -34.0810  -10.7875 C   0  0  0  0  0  0  0  0  0  0  0  0
   26.1770  -34.6515  -10.5702 O   0  0  0  0  0  0  0  0  0  0  0  0
   25.0877  -31.2050   -8.3785 C   0  0  0  0  0  0  0  0  0  0  0  0
   25.4952  -32.6194   -8.7507 C   0  0  2  0  0  0  0  0  0  0  0  0
   24.7262  -33.0136   -9.9303 N   0  0  0  0  0  0  0  0  0  0  0  0
   25.2858  -33.5633   -7.6355 C   0  0  0  0  0  0  0  0  0  0  0  0
   24.1213  -33.9316   -7.4080 O   0  0  0  0  0  0  0  0  0  0  0  0
   26.3373  -34.0416   -6.8492 N   0  0  0  0  0  0  0  0  0  0  0  0
   27.7449  -33.9737   -7.3421 C   0  0  0  0  0  0  0  0  0  0  0  0
   28.5314  -33.5777   -6.1156 C   0  0  0  0  0  0  0  0  0  0  0  0
   27.5636  -33.7001   -4.9607 C   0  0  0  0  0  0  0  0  0  0  0  0
   26.4988  -34.6392   -5.5732 C   0  0  1  0  0  0  0  0  0  0  0  0
   25.3715  -34.8133   -4.6973 C   0  0  0  0  0  0  0  0  0  0  0  0
   24.1311  -34.2225   -4.7124 O   0  0  0  0  0  0  0  0  0  0  0  0
   25.5409  -35.6591   -3.7373 O   0  0  0  0  0  0  0  0  0  0  0  0
  2  1  1  1
  2  4  1  0
  3  2  1  0
  4  5  1  6
  6 10  1  0
  6  4  1  0
  7  6  2  0
  9  8  1  1
  9 10  1  0
  9 11  1  0
 11 13  1  0
 12 11  2  0
 13 14  1  0
 13 17  1  0
 14 15  1  0
 15 16  1  0
 17 18  1  1
 17 16  1  0
 18 19  1  0
 20 18  2  0
M  END
$$$$
