GEL.pdb
     RDKit          3D

 22 21  0  0  1  0  0  0  0  0999 V2000
    7.1693  -12.6213   19.2782 N   0  0  0  0  0  0  0  0  0  0  0  0
    8.4222  -13.1064   19.7713 C   0  0  0  0  0  0  0  0  0  0  0  0
    8.2377  -14.0981   20.8700 C   0  0  0  0  0  0  0  0  0  0  0  0
    7.0804  -14.3181   21.2672 O   0  0  0  0  0  0  0  0  0  0  0  0
    9.3506  -14.7624   21.4359 N   0  0  0  0  0  0  0  0  0  0  0  0
    9.1766  -15.8592   22.4184 C   0  0  1  0  0  0  0  0  0  0  0  0
   10.1923  -16.9084   22.0895 C   0  0  0  0  0  0  0  0  0  0  0  0
   10.1298  -18.1721   22.8497 C   0  0  0  0  0  0  0  0  0  0  0  0
   11.1172  -19.1924   22.4441 C   0  0  0  0  0  0  0  0  0  0  0  0
   11.0062  -19.9270   21.4443 O   0  0  0  0  0  0  0  0  0  0  0  0
    9.3248  -15.2487   23.7556 C   0  0  0  0  0  0  0  0  0  0  0  0
   10.3581  -14.5280   23.9850 O   0  0  0  0  0  0  0  0  0  0  0  0
   12.2477  -19.3295   23.2487 O   0  0  0  0  0  0  0  0  0  0  0  0
    5.5849  -12.6632   26.4209 C   0  0  0  0  0  0  0  0  0  0  0  0
    6.9261  -13.1029   25.8314 C   0  0  1  0  0  0  0  0  0  0  0  0
    7.8918  -11.9157   25.8896 C   0  0  0  0  0  0  0  0  0  0  0  0
    7.4515  -14.2143   26.6802 C   0  0  0  0  0  0  0  0  0  0  0  0
    8.7141  -14.7807   26.1356 C   0  0  2  0  0  0  0  0  0  0  0  0
    8.4252  -15.3796   24.8242 N   0  0  0  0  0  0  0  0  0  0  0  0
    9.2480  -15.8273   27.0255 C   0  0  0  0  0  0  0  0  0  0  0  0
    9.2073  -17.0598   26.7842 O   0  0  0  0  0  0  0  0  0  0  0  0
    9.8491  -15.4430   28.2341 O   0  0  0  0  0  0  0  0  0  0  0  0
  1  2  1  0
  2  3  1  0
  3  4  2  0
  5  3  1  0
  5  6  1  0
  6 11  1  0
  6  7  1  6
  8  7  1  0
  9  8  1  0
 10  9  2  0
 11 19  1  0
 11 12  2  0
 13  9  1  0
 15 14  1  1
 15 16  1  0
 18 17  1  1
 17 15  1  0
 18 20  1  0
 19 18  1  0
 20 22  1  0
 21 20  2  0
M  END
$$$$
