GEL.pdb
     RDKit          3D

 22 21  0  0  1  0  0  0  0  0999 V2000
    6.0176  -14.1331   19.7688 N   0  0  0  0  0  0  0  0  0  0  0  0
    7.4117  -14.2984   20.0473 C   0  0  0  0  0  0  0  0  0  0  0  0
    7.6374  -14.9966   21.3458 C   0  0  0  0  0  0  0  0  0  0  0  0
    6.6647  -15.1391   22.1068 O   0  0  0  0  0  0  0  0  0  0  0  0
    8.9214  -15.4780   21.6919 N   0  0  0  0  0  0  0  0  0  0  0  0
    9.1209  -16.3763   22.8545 C   0  0  1  0  0  0  0  0  0  0  0  0
   10.2850  -17.2602   22.5316 C   0  0  0  0  0  0  0  0  0  0  0  0
   10.5936  -18.3465   23.4821 C   0  0  0  0  0  0  0  0  0  0  0  0
   11.7107  -19.2254   23.0822 C   0  0  0  0  0  0  0  0  0  0  0  0
   12.9148  -18.9123   23.1431 O   0  0  0  0  0  0  0  0  0  0  0  0
    9.3124  -15.5015   24.0296 C   0  0  0  0  0  0  0  0  0  0  0  0
   10.2862  -14.6700   24.0176 O   0  0  0  0  0  0  0  0  0  0  0  0
   11.3757  -20.4919   22.6048 O   0  0  0  0  0  0  0  0  0  0  0  0
    5.6352  -12.6009   26.1962 C   0  0  0  0  0  0  0  0  0  0  0  0
    6.9704  -13.1350   25.6751 C   0  0  1  0  0  0  0  0  0  0  0  0
    7.8714  -11.9421   25.3428 C   0  0  0  0  0  0  0  0  0  0  0  0
    7.5937  -13.9406   26.7680 C   0  0  0  0  0  0  0  0  0  0  0  0
    8.8419  -14.6137   26.3201 C   0  0  2  0  0  0  0  0  0  0  0  0
    8.5147  -15.4872   25.1835 N   0  0  0  0  0  0  0  0  0  0  0  0
    9.4117  -15.4383   27.4008 C   0  0  0  0  0  0  0  0  0  0  0  0
    9.8821  -14.9845   28.4739 O   0  0  0  0  0  0  0  0  0  0  0  0
    9.4412  -16.8324   27.2415 O   0  0  0  0  0  0  0  0  0  0  0  0
  1  2  1  0
  2  3  1  0
  3  4  2  0
  5  3  1  0
  5  6  1  0
  6 11  1  0
  6  7  1  6
  8  7  1  0
  9  8  1  0
 10  9  2  0
 11 19  1  0
 11 12  2  0
 13  9  1  0
 15 14  1  1
 15 16  1  0
 18 17  1  1
 17 15  1  0
 18 20  1  0
 19 18  1  0
 20 22  1  0
 21 20  2  0
M  END
$$$$
