GEL.pdb
     RDKit          3D

 22 21  0  0  1  0  0  0  0  0999 V2000
    7.4935  -12.3971   18.9275 N   0  0  0  0  0  0  0  0  0  0  0  0
    8.6450  -13.0304   19.4944 C   0  0  0  0  0  0  0  0  0  0  0  0
    8.2776  -13.9505   20.6094 C   0  0  0  0  0  0  0  0  0  0  0  0
    7.0961  -13.9533   20.9964 O   0  0  0  0  0  0  0  0  0  0  0  0
    9.2497  -14.7898   21.2016 N   0  0  0  0  0  0  0  0  0  0  0  0
    8.8733  -15.8267   22.1923 C   0  0  1  0  0  0  0  0  0  0  0  0
    9.6754  -17.0497   21.8741 C   0  0  0  0  0  0  0  0  0  0  0  0
    9.4552  -18.2413   22.7171 C   0  0  0  0  0  0  0  0  0  0  0  0
   10.3123  -19.3995   22.3943 C   0  0  0  0  0  0  0  0  0  0  0  0
    9.9144  -20.4429   21.8425 O   0  0  0  0  0  0  0  0  0  0  0  0
    9.1319  -15.2436   23.5250 C   0  0  0  0  0  0  0  0  0  0  0  0
   10.2689  -14.6949   23.7394 O   0  0  0  0  0  0  0  0  0  0  0  0
   11.6599  -19.3011   22.7388 O   0  0  0  0  0  0  0  0  0  0  0  0
    5.6474  -12.4203   26.3103 C   0  0  0  0  0  0  0  0  0  0  0  0
    6.9318  -12.9408   25.6630 C   0  0  1  0  0  0  0  0  0  0  0  0
    7.9413  -11.7909   25.5995 C   0  0  0  0  0  0  0  0  0  0  0  0
    7.4699  -14.0283   26.5345 C   0  0  0  0  0  0  0  0  0  0  0  0
    8.6410  -14.7067   25.9181 C   0  0  2  0  0  0  0  0  0  0  0  0
    8.2356  -15.2275   24.6041 N   0  0  0  0  0  0  0  0  0  0  0  0
    9.0958  -15.8332   26.7528 C   0  0  0  0  0  0  0  0  0  0  0  0
    8.9323  -17.0459   26.4675 O   0  0  0  0  0  0  0  0  0  0  0  0
    9.7614  -15.5550   27.9567 O   0  0  0  0  0  0  0  0  0  0  0  0
  1  2  1  0
  2  3  1  0
  3  4  2  0
  5  3  1  0
  5  6  1  0
  6 11  1  0
  6  7  1  6
  8  7  1  0
  9  8  1  0
 10  9  2  0
 11 19  1  0
 11 12  2  0
 13  9  1  0
 15 14  1  1
 15 16  1  0
 18 17  1  1
 17 15  1  0
 18 20  1  0
 19 18  1  0
 20 22  1  0
 21 20  2  0
M  END
$$$$
