GEL.pdb
     RDKit          3D

 22 21  0  0  1  0  0  0  0  0999 V2000
    5.4385  -15.7007   19.6389 N   0  0  0  0  0  0  0  0  0  0  0  0
    6.7769  -15.2306   19.8281 C   0  0  0  0  0  0  0  0  0  0  0  0
    7.4522  -15.9255   20.9621 C   0  0  0  0  0  0  0  0  0  0  0  0
    6.7437  -16.5704   21.7543 O   0  0  0  0  0  0  0  0  0  0  0  0
    8.8551  -15.8473   21.1228 N   0  0  0  0  0  0  0  0  0  0  0  0
    9.5400  -16.5142   22.2562 C   0  0  1  0  0  0  0  0  0  0  0  0
   10.9202  -16.8611   21.7922 C   0  0  0  0  0  0  0  0  0  0  0  0
   11.7921  -17.5805   22.7415 C   0  0  0  0  0  0  0  0  0  0  0  0
   13.1578  -17.8519   22.2500 C   0  0  0  0  0  0  0  0  0  0  0  0
   14.1162  -17.0626   22.3501 O   0  0  0  0  0  0  0  0  0  0  0  0
    9.4853  -15.5695   23.3908 C   0  0  0  0  0  0  0  0  0  0  0  0
   10.2161  -14.5189   23.3444 O   0  0  0  0  0  0  0  0  0  0  0  0
   13.3718  -19.0838   21.6328 O   0  0  0  0  0  0  0  0  0  0  0  0
    8.4774  -11.8527   26.5674 C   0  0  0  0  0  0  0  0  0  0  0  0
    7.5693  -13.0353   26.9085 C   0  0  1  0  0  0  0  0  0  0  0  0
    6.1517  -12.5046   27.1409 C   0  0  0  0  0  0  0  0  0  0  0  0
    7.5689  -13.9596   25.7349 C   0  0  0  0  0  0  0  0  0  0  0  0
    8.8151  -14.7680   25.6634 C   0  0  2  0  0  0  0  0  0  0  0  0
    8.6928  -15.7088   24.5400 N   0  0  0  0  0  0  0  0  0  0  0  0
    9.0147  -15.5376   26.9044 C   0  0  0  0  0  0  0  0  0  0  0  0
    8.5313  -16.6763   27.1250 O   0  0  0  0  0  0  0  0  0  0  0  0
    9.7971  -14.9783   27.9266 O   0  0  0  0  0  0  0  0  0  0  0  0
  1  2  1  0
  2  3  1  0
  3  4  2  0
  5  3  1  0
  5  6  1  0
  6 11  1  0
  6  7  1  6
  8  7  1  0
  9  8  1  0
 10  9  2  0
 11 19  1  0
 11 12  2  0
 13  9  1  0
 15 14  1  6
 15 16  1  0
 18 17  1  1
 17 15  1  0
 18 20  1  0
 19 18  1  0
 20 22  1  0
 21 20  2  0
M  END
$$$$
