GEL.pdb
     RDKit          3D

 22 21  0  0  1  0  0  0  0  0999 V2000
    7.2388  -12.4836   18.1833 N   0  0  0  0  0  0  0  0  0  0  0  0
    8.3580  -13.2542   18.6326 C   0  0  0  0  0  0  0  0  0  0  0  0
    7.9999  -14.1291   19.7863 C   0  0  0  0  0  0  0  0  0  0  0  0
    6.8473  -14.0448   20.2449 O   0  0  0  0  0  0  0  0  0  0  0  0
    8.9483  -15.0234   20.3346 N   0  0  0  0  0  0  0  0  0  0  0  0
    8.5912  -15.9436   21.4410 C   0  0  1  0  0  0  0  0  0  0  0  0
    9.4277  -17.1740   21.2760 C   0  0  0  0  0  0  0  0  0  0  0  0
    9.3395  -18.1988   22.3346 C   0  0  0  0  0  0  0  0  0  0  0  0
   10.0665  -19.4522   22.0502 C   0  0  0  0  0  0  0  0  0  0  0  0
   11.3040  -19.5438   21.9414 O   0  0  0  0  0  0  0  0  0  0  0  0
    8.8237  -15.1981   22.6951 C   0  0  0  0  0  0  0  0  0  0  0  0
    9.9174  -14.5439   22.8209 O   0  0  0  0  0  0  0  0  0  0  0  0
    9.2976  -20.6050   21.8953 O   0  0  0  0  0  0  0  0  0  0  0  0
    6.6902  -11.1054   26.0700 C   0  0  0  0  0  0  0  0  0  0  0  0
    7.2671  -12.4932   26.3543 C   0  0  1  0  0  0  0  0  0  0  0  0
    6.4516  -13.1339   27.4811 C   0  0  0  0  0  0  0  0  0  0  0  0
    7.1226  -13.3074   25.1101 C   0  0  0  0  0  0  0  0  0  0  0  0
    8.2409  -14.2738   24.9451 C   0  0  2  0  0  0  0  0  0  0  0  0
    7.9455  -15.1304   23.7871 N   0  0  0  0  0  0  0  0  0  0  0  0
    8.3801  -15.1260   26.1396 C   0  0  0  0  0  0  0  0  0  0  0  0
    7.7345  -16.1849   26.3414 O   0  0  0  0  0  0  0  0  0  0  0  0
    9.2933  -14.7471   27.1358 O   0  0  0  0  0  0  0  0  0  0  0  0
  1  2  1  0
  2  3  1  0
  3  4  2  0
  5  3  1  0
  5  6  1  0
  6 11  1  0
  6  7  1  1
  8  7  1  0
  9  8  1  0
 10  9  2  0
 11 19  1  0
 11 12  2  0
 13  9  1  0
 15 14  1  6
 15 16  1  0
 18 17  1  1
 17 15  1  0
 18 20  1  0
 19 18  1  0
 20 22  1  0
 21 20  2  0
M  END
$$$$
