GEL.pdb
     RDKit          3D

 22 21  0  0  1  0  0  0  0  0999 V2000
    7.9165  -12.2402   18.4982 N   0  0  0  0  0  0  0  0  0  0  0  0
    8.9401  -12.8822   19.2653 C   0  0  0  0  0  0  0  0  0  0  0  0
    8.3703  -13.8418   20.2547 C   0  0  0  0  0  0  0  0  0  0  0  0
    7.1330  -13.9032   20.3599 O   0  0  0  0  0  0  0  0  0  0  0  0
    9.2188  -14.6525   21.0440 N   0  0  0  0  0  0  0  0  0  0  0  0
    8.6709  -15.6970   21.9424 C   0  0  1  0  0  0  0  0  0  0  0  0
    9.3024  -16.9942   21.5438 C   0  0  0  0  0  0  0  0  0  0  0  0
    8.9220  -18.1960   22.3118 C   0  0  0  0  0  0  0  0  0  0  0  0
    9.5119  -19.4590   21.8249 C   0  0  0  0  0  0  0  0  0  0  0  0
   10.4362  -20.0731   22.3907 O   0  0  0  0  0  0  0  0  0  0  0  0
    8.9689  -15.2590   23.3216 C   0  0  0  0  0  0  0  0  0  0  0  0
   10.1750  -14.9427   23.6130 O   0  0  0  0  0  0  0  0  0  0  0  0
    8.9849  -19.9873   20.6471 O   0  0  0  0  0  0  0  0  0  0  0  0
    5.9123  -12.1885   26.5862 C   0  0  0  0  0  0  0  0  0  0  0  0
    7.0825  -12.8091   25.8213 C   0  0  1  0  0  0  0  0  0  0  0  0
    8.3018  -11.8962   25.9797 C   0  0  0  0  0  0  0  0  0  0  0  0
    7.3725  -14.1387   26.4378 C   0  0  0  0  0  0  0  0  0  0  0  0
    8.4786  -14.8460   25.7393 C   0  0  2  0  0  0  0  0  0  0  0  0
    8.0415  -15.1495   24.3686 N   0  0  0  0  0  0  0  0  0  0  0  0
    8.8074  -16.1108   26.4210 C   0  0  0  0  0  0  0  0  0  0  0  0
    8.3821  -17.2412   26.0745 O   0  0  0  0  0  0  0  0  0  0  0  0
    9.6545  -16.0738   27.5394 O   0  0  0  0  0  0  0  0  0  0  0  0
  1  2  1  0
  2  3  1  0
  3  4  2  0
  5  3  1  0
  5  6  1  0
  6 11  1  0
  6  7  1  6
  8  7  1  0
  9  8  1  0
 10  9  2  0
 11 19  1  0
 11 12  2  0
 13  9  1  0
 15 14  1  1
 15 16  1  0
 18 17  1  1
 17 15  1  0
 18 20  1  0
 19 18  1  0
 20 22  1  0
 21 20  2  0
M  END
$$$$
