GEL.pdb
     RDKit          3D

 22 21  0  0  1  0  0  0  0  0999 V2000
    6.8465  -12.2613   18.8827 N   0  0  0  0  0  0  0  0  0  0  0  0
    8.0720  -12.7496   19.4378 C   0  0  0  0  0  0  0  0  0  0  0  0
    7.8334  -13.8165   20.4525 C   0  0  0  0  0  0  0  0  0  0  0  0
    6.6560  -14.1174   20.7148 O   0  0  0  0  0  0  0  0  0  0  0  0
    8.9190  -14.4600   21.0910 N   0  0  0  0  0  0  0  0  0  0  0  0
    8.7109  -15.6402   21.9639 C   0  0  1  0  0  0  0  0  0  0  0  0
    9.6469  -16.7076   21.4894 C   0  0  0  0  0  0  0  0  0  0  0  0
    9.6175  -17.9993   22.2032 C   0  0  0  0  0  0  0  0  0  0  0  0
   10.5929  -18.9986   21.7232 C   0  0  0  0  0  0  0  0  0  0  0  0
   11.7108  -19.1993   22.2347 O   0  0  0  0  0  0  0  0  0  0  0  0
    8.9432  -15.1810   23.3488 C   0  0  0  0  0  0  0  0  0  0  0  0
   10.0396  -14.5746   23.6134 O   0  0  0  0  0  0  0  0  0  0  0  0
   10.2197  -19.7627   20.6182 O   0  0  0  0  0  0  0  0  0  0  0  0
    5.6545  -12.3825   26.3029 C   0  0  0  0  0  0  0  0  0  0  0  0
    6.9323  -12.9449   25.6778 C   0  0  1  0  0  0  0  0  0  0  0  0
    8.0611  -11.9324   25.8922 C   0  0  0  0  0  0  0  0  0  0  0  0
    7.2625  -14.2168   26.3884 C   0  0  0  0  0  0  0  0  0  0  0  0
    8.4331  -14.9048   25.7818 C   0  0  2  0  0  0  0  0  0  0  0  0
    8.0621  -15.3435   24.4283 N   0  0  0  0  0  0  0  0  0  0  0  0
    8.8161  -16.0878   26.5732 C   0  0  0  0  0  0  0  0  0  0  0  0
    8.5344  -17.2737   26.2681 O   0  0  0  0  0  0  0  0  0  0  0  0
    9.5481  -15.9001   27.7559 O   0  0  0  0  0  0  0  0  0  0  0  0
  1  2  1  0
  2  3  1  0
  3  4  2  0
  5  3  1  0
  5  6  1  0
  6 11  1  0
  6  7  1  6
  8  7  1  0
  9  8  1  0
 10  9  2  0
 11 19  1  0
 11 12  2  0
 13  9  1  0
 15 14  1  1
 15 16  1  0
 18 17  1  1
 17 15  1  0
 18 20  1  0
 19 18  1  0
 20 22  1  0
 21 20  2  0
M  END
$$$$
