GEL.pdb
     RDKit          3D

 22 21  0  0  1  0  0  0  0  0999 V2000
    7.2950  -13.1514   18.3671 N   0  0  0  0  0  0  0  0  0  0  0  0
    8.3601  -13.3737   19.2969 C   0  0  0  0  0  0  0  0  0  0  0  0
    7.9437  -14.2748   20.4101 C   0  0  0  0  0  0  0  0  0  0  0  0
    6.7783  -14.7079   20.4034 O   0  0  0  0  0  0  0  0  0  0  0  0
    8.8530  -14.6201   21.4368 N   0  0  0  0  0  0  0  0  0  0  0  0
    8.5080  -15.6312   22.4648 C   0  0  1  0  0  0  0  0  0  0  0  0
    9.2593  -16.8797   22.1220 C   0  0  0  0  0  0  0  0  0  0  0  0
   10.4481  -16.7383   21.2586 C   0  0  0  0  0  0  0  0  0  0  0  0
   11.2300  -17.9762   21.0677 C   0  0  0  0  0  0  0  0  0  0  0  0
   12.4308  -18.1092   21.3712 O   0  0  0  0  0  0  0  0  0  0  0  0
    8.8576  -15.0346   23.7705 C   0  0  0  0  0  0  0  0  0  0  0  0
   10.0341  -14.5530   23.9245 O   0  0  0  0  0  0  0  0  0  0  0  0
   10.5610  -19.0634   20.5067 O   0  0  0  0  0  0  0  0  0  0  0  0
    5.4719  -12.0328   26.6537 C   0  0  0  0  0  0  0  0  0  0  0  0
    6.7213  -12.5559   25.9431 C   0  0  1  0  0  0  0  0  0  0  0  0
    7.7351  -11.4125   25.8439 C   0  0  0  0  0  0  0  0  0  0  0  0
    7.2909  -13.6554   26.7788 C   0  0  0  0  0  0  0  0  0  0  0  0
    8.4636  -14.2980   26.1280 C   0  0  2  0  0  0  0  0  0  0  0  0
    8.0101  -14.9376   24.8842 N   0  0  0  0  0  0  0  0  0  0  0  0
    9.0509  -15.3290   27.0024 C   0  0  0  0  0  0  0  0  0  0  0  0
    9.6227  -15.0970   28.0969 O   0  0  0  0  0  0  0  0  0  0  0  0
    8.9777  -16.6728   26.6041 O   0  0  0  0  0  0  0  0  0  0  0  0
  1  2  1  0
  2  3  1  0
  3  4  2  0
  5  3  1  0
  5  6  1  0
  6 11  1  0
  6  7  1  6
  8  7  1  0
  9  8  1  0
 10  9  2  0
 11 19  1  0
 11 12  2  0
 13  9  1  0
 15 14  1  1
 15 16  1  0
 18 17  1  1
 17 15  1  0
 18 20  1  0
 19 18  1  0
 20 22  1  0
 21 20  2  0
M  END
$$$$
