NTN.pdb
     RDKit          3D

 24 23  0  0  1  0  0  0  0  0999 V2000
   10.2015  -17.5592   12.3877 N   0  0  0  0  0  0  0  0  0  0  0  0
   10.9418  -16.6211   13.1579 C   0  0  0  0  0  0  0  0  0  0  0  0
   12.2016  -16.5942   13.0676 O   0  0  0  0  0  0  0  0  0  0  0  0
   10.2984  -15.6376   14.0959 C   0  0  0  0  0  0  0  0  0  0  0  0
    9.9455  -16.4110   15.3323 C   0  0  2  0  0  0  0  0  0  0  0  0
    8.6945  -17.0808   15.1308 N   0  0  0  0  0  0  0  0  0  0  0  0
   10.0150  -15.6263   16.5905 C   0  0  0  0  0  0  0  0  0  0  0  0
   11.1461  -15.3038   17.0496 O   0  0  0  0  0  0  0  0  0  0  0  0
    8.0918  -12.8442   20.1355 C   0  0  0  0  0  0  0  0  0  0  0  0
    7.7546  -13.6812   18.9222 C   0  0  1  0  0  0  0  0  0  0  0  0
    7.3820  -12.8409   17.8833 O   0  0  0  0  0  0  0  0  0  0  0  0
    8.9373  -14.5320   18.6018 C   0  0  2  0  0  0  0  0  0  0  0  0
    8.8758  -15.2071   17.3308 N   0  0  0  0  0  0  0  0  0  0  0  0
    9.3382  -15.4589   19.7005 C   0  0  0  0  0  0  0  0  0  0  0  0
    8.9673  -16.6376   19.7660 O   0  0  0  0  0  0  0  0  0  0  0  0
   12.0702  -17.0826   23.8086 N   0  0  0  0  0  0  0  0  0  0  0  0
   12.7494  -15.9675   23.2619 C   0  0  0  0  0  0  0  0  0  0  0  0
   13.8649  -15.6393   23.7187 O   0  0  0  0  0  0  0  0  0  0  0  0
   12.1388  -15.2058   22.1598 C   0  0  0  0  0  0  0  0  0  0  0  0
   10.7722  -15.7432   21.7799 C   0  0  2  0  0  0  0  0  0  0  0  0
   10.1908  -14.9490   20.7094 N   0  0  0  0  0  0  0  0  0  0  0  0
    9.9033  -15.6389   22.9856 C   0  0  0  0  0  0  0  0  0  0  0  0
    8.8751  -14.7204   23.0798 O   0  0  0  0  0  0  0  0  0  0  0  0
   10.1033  -16.4073   23.9486 O   0  0  0  0  0  0  0  0  0  0  0  0
  2  1  1  0
  3  2  2  0
  4  2  1  0
  4  5  1  0
  5  6  1  6
  7  5  1  0
  8  7  2  0
 10  9  1  1
 10 12  1  0
 11 10  1  0
 12 13  1  6
 12 14  1  0
 13  7  1  0
 14 15  2  0
 14 21  1  0
 17 16  1  0
 18 17  2  0
 19 17  1  0
 20 19  1  1
 20 22  1  0
 21 20  1  0
 22 23  1  0
 24 22  2  0
M  END
$$$$
