NTN.pdb
     RDKit          3D

 24 23  0  0  1  0  0  0  0  0999 V2000
    6.8119  -15.7881   13.1229 N   0  0  0  0  0  0  0  0  0  0  0  0
    7.3348  -16.3162   14.3350 C   0  0  0  0  0  0  0  0  0  0  0  0
    7.5334  -17.5593   14.4406 O   0  0  0  0  0  0  0  0  0  0  0  0
    7.6718  -15.4622   15.5258 C   0  0  0  0  0  0  0  0  0  0  0  0
    8.4146  -16.3516   16.4791 C   0  0  2  0  0  0  0  0  0  0  0  0
    7.5830  -17.4634   16.8349 N   0  0  0  0  0  0  0  0  0  0  0  0
    9.0109  -15.6467   17.6415 C   0  0  0  0  0  0  0  0  0  0  0  0
   10.1617  -15.1400   17.5261 O   0  0  0  0  0  0  0  0  0  0  0  0
    7.4357  -12.9975   19.9542 C   0  0  0  0  0  0  0  0  0  0  0  0
    8.0490  -14.0353   20.8669 C   0  0  1  0  0  0  0  0  0  0  0  0
    7.0335  -14.7541   21.4801 O   0  0  0  0  0  0  0  0  0  0  0  0
    8.9684  -14.8834   20.0539 C   0  0  2  0  0  0  0  0  0  0  0  0
    8.3666  -15.5021   18.9007 N   0  0  0  0  0  0  0  0  0  0  0  0
    9.7637  -15.8612   20.8531 C   0  0  0  0  0  0  0  0  0  0  0  0
    9.5922  -17.0854   20.7969 O   0  0  0  0  0  0  0  0  0  0  0  0
   13.4758  -16.1139   20.6713 N   0  0  0  0  0  0  0  0  0  0  0  0
   13.7977  -15.4352   21.8711 C   0  0  0  0  0  0  0  0  0  0  0  0
   14.8913  -14.8390   21.9689 O   0  0  0  0  0  0  0  0  0  0  0  0
   12.8426  -15.4347   22.9915 C   0  0  0  0  0  0  0  0  0  0  0  0
   11.5480  -16.1432   22.6413 C   0  0  2  0  0  0  0  0  0  0  0  0
   10.7648  -15.3455   21.7112 N   0  0  0  0  0  0  0  0  0  0  0  0
   10.7763  -16.3083   23.9050 C   0  0  0  0  0  0  0  0  0  0  0  0
    9.6172  -15.6013   24.1622 O   0  0  0  0  0  0  0  0  0  0  0  0
   11.1837  -17.1145   24.7663 O   0  0  0  0  0  0  0  0  0  0  0  0
  2  1  1  0
  3  2  2  0
  4  2  1  0
  4  5  1  0
  5  6  1  1
  7  5  1  0
  8  7  2  0
 10  9  1  6
 10 12  1  0
 11 10  1  0
 12 13  1  6
 12 14  1  0
 13  7  1  0
 14 15  2  0
 14 21  1  0
 17 16  1  0
 18 17  2  0
 19 17  1  0
 20 19  1  1
 20 22  1  0
 21 20  1  0
 22 23  1  0
 24 22  2  0
M  END
$$$$
