NTN.pdb
     RDKit          3D

 24 23  0  0  1  0  0  0  0  0999 V2000
   11.6256  -18.8708   15.5358 N   0  0  0  0  0  0  0  0  0  0  0  0
   10.5548  -17.9401   15.6278 C   0  0  0  0  0  0  0  0  0  0  0  0
    9.5951  -18.0088   14.8091 O   0  0  0  0  0  0  0  0  0  0  0  0
   10.4971  -16.8534   16.6655 C   0  0  0  0  0  0  0  0  0  0  0  0
    9.7164  -17.4174   17.8161 C   0  0  2  0  0  0  0  0  0  0  0  0
    8.3773  -17.6964   17.3880 N   0  0  0  0  0  0  0  0  0  0  0  0
    9.7976  -16.6197   19.0654 C   0  0  0  0  0  0  0  0  0  0  0  0
   10.9183  -16.4771   19.6293 O   0  0  0  0  0  0  0  0  0  0  0  0
    7.7148  -13.3620   19.9343 C   0  0  0  0  0  0  0  0  0  0  0  0
    7.6981  -14.2613   21.1498 C   0  0  1  0  0  0  0  0  0  0  0  0
    6.4168  -14.7637   21.3223 O   0  0  0  0  0  0  0  0  0  0  0  0
    8.7298  -15.3215   20.9572 C   0  0  2  0  0  0  0  0  0  0  0  0
    8.6803  -15.9959   19.6853 N   0  0  0  0  0  0  0  0  0  0  0  0
    8.8320  -16.2870   22.0905 C   0  0  0  0  0  0  0  0  0  0  0  0
    8.3940  -17.4433   22.0412 O   0  0  0  0  0  0  0  0  0  0  0  0
   11.0043  -18.7290   25.9348 N   0  0  0  0  0  0  0  0  0  0  0  0
   11.7554  -18.4150   24.7769 C   0  0  0  0  0  0  0  0  0  0  0  0
   12.8819  -18.9298   24.6134 O   0  0  0  0  0  0  0  0  0  0  0  0
   11.2040  -17.4879   23.7748 C   0  0  0  0  0  0  0  0  0  0  0  0
   10.0076  -16.7193   24.3023 C   0  0  2  0  0  0  0  0  0  0  0  0
    9.4698  -15.8429   23.2740 N   0  0  0  0  0  0  0  0  0  0  0  0
   10.4819  -15.8892   25.4450 C   0  0  0  0  0  0  0  0  0  0  0  0
   10.5163  -14.5087   25.3930 O   0  0  0  0  0  0  0  0  0  0  0  0
   10.8609  -16.4537   26.4917 O   0  0  0  0  0  0  0  0  0  0  0  0
  2  1  1  0
  3  2  2  0
  4  2  1  0
  4  5  1  0
  5  6  1  6
  7  5  1  0
  8  7  2  0
 10  9  1  6
 10 12  1  0
 11 10  1  0
 12 13  1  6
 12 14  1  0
 13  7  1  0
 14 15  2  0
 14 21  1  0
 17 16  1  0
 18 17  2  0
 19 17  1  0
 20 19  1  6
 20 22  1  0
 21 20  1  0
 22 23  1  0
 24 22  2  0
M  END
$$$$
