NTN.pdb
     RDKit          3D

 24 23  0  0  1  0  0  0  0  0999 V2000
    2.6873  -23.8752   18.3906 N   0  0  0  0  0  0  0  0  0  0  0  0
    3.1078  -22.5340   18.1766 C   0  0  0  0  0  0  0  0  0  0  0  0
    2.2980  -21.6956   17.6895 O   0  0  0  0  0  0  0  0  0  0  0  0
    4.4917  -22.0445   18.5026 C   0  0  0  0  0  0  0  0  0  0  0  0
    4.4583  -21.6315   19.9447 C   0  0  2  0  0  0  0  0  0  0  0  0
    3.3717  -20.7200   20.1511 N   0  0  0  0  0  0  0  0  0  0  0  0
    5.7582  -21.1531   20.4786 C   0  0  0  0  0  0  0  0  0  0  0  0
    6.6862  -21.9876   20.6703 O   0  0  0  0  0  0  0  0  0  0  0  0
    9.1312  -17.7605   21.4350 C   0  0  0  0  0  0  0  0  0  0  0  0
    7.7989  -18.0609   20.7862 C   0  0  1  0  0  0  0  0  0  0  0  0
    7.9674  -18.1090   19.4102 O   0  0  0  0  0  0  0  0  0  0  0  0
    7.2771  -19.3331   21.3646 C   0  0  2  0  0  0  0  0  0  0  0  0
    6.0359  -19.7958   20.7985 N   0  0  0  0  0  0  0  0  0  0  0  0
    7.2469  -19.3584   22.8564 C   0  0  0  0  0  0  0  0  0  0  0  0
    6.4360  -18.7122   23.5318 O   0  0  0  0  0  0  0  0  0  0  0  0
    8.1753  -23.8311   25.8169 N   0  0  0  0  0  0  0  0  0  0  0  0
    8.0802  -22.6914   24.9827 C   0  0  0  0  0  0  0  0  0  0  0  0
    8.3805  -22.7845   23.7736 O   0  0  0  0  0  0  0  0  0  0  0  0
    7.6267  -21.4081   25.5443 C   0  0  0  0  0  0  0  0  0  0  0  0
    8.3794  -20.2285   24.9591 C   0  0  2  0  0  0  0  0  0  0  0  0
    8.1987  -20.1720   23.5172 N   0  0  0  0  0  0  0  0  0  0  0  0
    9.8248  -20.4321   25.2573 C   0  0  0  0  0  0  0  0  0  0  0  0
   10.7632  -20.6411   24.2645 O   0  0  0  0  0  0  0  0  0  0  0  0
   10.2105  -20.4117   26.4442 O   0  0  0  0  0  0  0  0  0  0  0  0
  2  1  1  0
  3  2  2  0
  4  2  1  0
  4  5  1  0
  5  6  1  6
  7  5  1  0
  8  7  2  0
 10  9  1  1
 10 12  1  0
 11 10  1  0
 12 13  1  6
 12 14  1  0
 13  7  1  0
 14 15  2  0
 14 21  1  0
 17 16  1  0
 18 17  2  0
 19 17  1  0
 20 19  1  6
 20 22  1  0
 21 20  1  0
 22 23  1  0
 24 22  2  0
M  END
$$$$
