NTN.pdb
     RDKit          3D

 24 23  0  0  1  0  0  0  0  0999 V2000
   18.0480  -14.5242   13.9319 N   0  0  0  0  0  0  0  0  0  0  0  0
   17.2279  -15.2161   14.8647 C   0  0  0  0  0  0  0  0  0  0  0  0
   16.8520  -16.3954   14.6118 O   0  0  0  0  0  0  0  0  0  0  0  0
   16.7705  -14.6121   16.1635 C   0  0  0  0  0  0  0  0  0  0  0  0
   15.2759  -14.7437   16.1804 C   0  0  2  0  0  0  0  0  0  0  0  0
   14.7267  -14.0480   15.0540 N   0  0  0  0  0  0  0  0  0  0  0  0
   14.6413  -14.3926   17.4756 C   0  0  0  0  0  0  0  0  0  0  0  0
   14.8280  -13.2402   17.9568 O   0  0  0  0  0  0  0  0  0  0  0  0
   11.3771  -13.7811   18.6170 C   0  0  0  0  0  0  0  0  0  0  0  0
   11.7997  -14.8628   19.5854 C   0  0  1  0  0  0  0  0  0  0  0  0
   11.1407  -16.0400   19.2630 O   0  0  0  0  0  0  0  0  0  0  0  0
   13.2858  -14.9808   19.5301 C   0  0  2  0  0  0  0  0  0  0  0  0
   13.8252  -15.2806   18.2285 N   0  0  0  0  0  0  0  0  0  0  0  0
   13.8680  -15.8610   20.5852 C   0  0  0  0  0  0  0  0  0  0  0  0
   14.0561  -17.0744   20.4318 O   0  0  0  0  0  0  0  0  0  0  0  0
   17.7641  -13.8243   22.9003 N   0  0  0  0  0  0  0  0  0  0  0  0
   17.0227  -15.0293   22.8584 C   0  0  0  0  0  0  0  0  0  0  0  0
   17.4093  -15.9670   22.1289 O   0  0  0  0  0  0  0  0  0  0  0  0
   15.8054  -15.1695   23.6747 C   0  0  0  0  0  0  0  0  0  0  0  0
   14.7344  -15.9815   22.9718 C   0  0  2  0  0  0  0  0  0  0  0  0
   14.2221  -15.2604   21.8175 N   0  0  0  0  0  0  0  0  0  0  0  0
   13.6245  -16.1882   23.9439 C   0  0  0  0  0  0  0  0  0  0  0  0
   13.7738  -16.9508   25.0867 O   0  0  0  0  0  0  0  0  0  0  0  0
   12.5174  -15.6542   23.7267 O   0  0  0  0  0  0  0  0  0  0  0  0
  2  1  1  0
  3  2  2  0
  4  2  1  0
  4  5  1  0
  5  6  1  6
  7  5  1  0
  8  7  2  0
 10  9  1  6
 10 12  1  0
 11 10  1  0
 12 13  1  6
 12 14  1  0
 13  7  1  0
 14 15  2  0
 14 21  1  0
 17 16  1  0
 18 17  2  0
 19 17  1  0
 20 19  1  1
 20 22  1  0
 21 20  1  0
 22 23  1  0
 24 22  2  0
M  END
$$$$
