LKN.pdb
     RDKit          3D

 26 25  0  0  1  0  0  0  0  0999 V2000
    7.5708  -11.9110   19.0537 C   0  0  0  0  0  0  0  0  0  0  0  0
    8.2126  -13.2334   19.4093 C   0  0  1  0  0  0  0  0  0  0  0  0
    9.6941  -12.9773   19.6158 C   0  0  0  0  0  0  0  0  0  0  0  0
    7.6148  -13.7853   20.7105 C   0  0  0  0  0  0  0  0  0  0  0  0
    8.2652  -15.1254   20.9342 C   0  0  2  0  0  0  0  0  0  0  0  0
    8.2986  -15.9457   19.7690 N   0  0  0  0  0  0  0  0  0  0  0  0
    7.6834  -15.8657   22.0662 C   0  0  0  0  0  0  0  0  0  0  0  0
    7.6699  -15.3196   23.1956 O   0  0  0  0  0  0  0  0  0  0  0  0
    7.1316  -17.1701   21.9595 N   0  0  0  0  0  0  0  0  0  0  0  0
    6.6581  -17.9528   23.0586 C   0  0  1  0  0  0  0  0  0  0  0  0
    5.8012  -19.1346   22.5764 C   0  0  0  0  0  0  0  0  0  0  0  0
    4.5693  -18.6154   21.8511 C   0  0  0  0  0  0  0  0  0  0  0  0
    3.7660  -19.7406   21.2715 C   0  0  0  0  0  0  0  0  0  0  0  0
    2.5928  -19.2395   20.4555 C   0  0  0  0  0  0  0  0  0  0  0  0
    1.3557  -19.3843   21.2245 N   0  0  0  0  0  0  0  0  0  0  0  0
    7.7594  -18.5564   23.8486 C   0  0  0  0  0  0  0  0  0  0  0  0
    8.8563  -18.8215   23.3067 O   0  0  0  0  0  0  0  0  0  0  0  0
   10.7476  -19.1827   27.8672 N   0  0  0  0  0  0  0  0  0  0  0  0
   10.6717  -17.9557   27.1299 C   0  0  0  0  0  0  0  0  0  0  0  0
   11.5216  -17.0693   27.3223 O   0  0  0  0  0  0  0  0  0  0  0  0
    9.5788  -17.7985   26.1671 C   0  0  0  0  0  0  0  0  0  0  0  0
    8.7143  -19.0068   26.1416 C   0  0  2  0  0  0  0  0  0  0  0  0
    7.6082  -18.8515   25.2347 N   0  0  0  0  0  0  0  0  0  0  0  0
    8.1887  -19.3331   27.5006 C   0  0  0  0  0  0  0  0  0  0  0  0
    7.0423  -18.9613   27.8330 O   0  0  0  0  0  0  0  0  0  0  0  0
    8.9660  -20.0434   28.3883 O   0  0  0  0  0  0  0  0  0  0  0  0
  2  1  1  1
  3  2  1  0
  4  2  1  0
  5  7  1  0
  5  4  1  0
  5  6  1  6
  7  8  2  0
  9 10  1  0
  9  7  1  0
 10 11  1  6
 12 13  1  0
 12 11  1  0
 13 14  1  0
 14 15  1  0
 16 10  1  0
 17 16  2  0
 19 18  1  0
 19 20  2  0
 21 19  1  0
 22 21  1  1
 22 23  1  0
 23 16  1  0
 24 22  1  0
 24 26  1  0
 25 24  2  0
M  END
$$$$
