LKN.pdb
     RDKit          3D

 26 25  0  0  1  0  0  0  0  0999 V2000
    7.1035  -12.1396   19.1398 C   0  0  0  0  0  0  0  0  0  0  0  0
    7.9918  -13.2340   19.6879 C   0  0  1  0  0  0  0  0  0  0  0  0
    9.3132  -12.5949   20.0732 C   0  0  0  0  0  0  0  0  0  0  0  0
    7.3579  -13.8625   20.9362 C   0  0  0  0  0  0  0  0  0  0  0  0
    8.4086  -14.7636   21.5301 C   0  0  2  0  0  0  0  0  0  0  0  0
    8.7890  -15.8386   20.6748 N   0  0  0  0  0  0  0  0  0  0  0  0
    8.0435  -15.2730   22.8627 C   0  0  0  0  0  0  0  0  0  0  0  0
    7.5847  -14.4666   23.7071 O   0  0  0  0  0  0  0  0  0  0  0  0
    8.1790  -16.6311   23.2557 N   0  0  0  0  0  0  0  0  0  0  0  0
    7.9086  -17.1367   24.5656 C   0  0  1  0  0  0  0  0  0  0  0  0
    7.5953  -18.6414   24.5315 C   0  0  0  0  0  0  0  0  0  0  0  0
    6.2862  -18.8782   23.7944 C   0  0  0  0  0  0  0  0  0  0  0  0
    5.9880  -20.3424   23.6740 C   0  0  0  0  0  0  0  0  0  0  0  0
    4.6897  -20.5991   22.9378 C   0  0  0  0  0  0  0  0  0  0  0  0
    4.4863  -22.0400   22.7787 N   0  0  0  0  0  0  0  0  0  0  0  0
    9.0637  -16.9918   25.4854 C   0  0  0  0  0  0  0  0  0  0  0  0
   10.2341  -17.0989   25.0543 O   0  0  0  0  0  0  0  0  0  0  0  0
    8.5710  -13.2969   28.4359 N   0  0  0  0  0  0  0  0  0  0  0  0
    9.6887  -14.1634   28.2017 C   0  0  0  0  0  0  0  0  0  0  0  0
   10.6370  -13.7682   27.5020 O   0  0  0  0  0  0  0  0  0  0  0  0
    9.6633  -15.4972   28.8070 C   0  0  0  0  0  0  0  0  0  0  0  0
    9.9699  -16.5449   27.7988 C   0  0  2  0  0  0  0  0  0  0  0  0
    8.8828  -16.7291   26.8744 N   0  0  0  0  0  0  0  0  0  0  0  0
   10.2864  -17.8525   28.4464 C   0  0  0  0  0  0  0  0  0  0  0  0
   11.3787  -18.4155   28.2166 O   0  0  0  0  0  0  0  0  0  0  0  0
    9.3756  -18.4391   29.2968 O   0  0  0  0  0  0  0  0  0  0  0  0
  2  1  1  1
  3  2  1  0
  4  2  1  0
  5  7  1  0
  5  4  1  0
  5  6  1  6
  7  8  2  0
  9 10  1  0
  9  7  1  0
 10 11  1  6
 12 13  1  0
 12 11  1  0
 13 14  1  0
 14 15  1  0
 16 10  1  0
 17 16  2  0
 19 18  1  0
 19 20  2  0
 21 19  1  0
 22 21  1  1
 22 23  1  0
 23 16  1  0
 24 22  1  0
 24 26  1  0
 25 24  2  0
M  END
$$$$
