LKN.pdb
     RDKit          3D

 26 25  0  0  1  0  0  0  0  0999 V2000
    6.8597  -12.5387   18.9693 C   0  0  0  0  0  0  0  0  0  0  0  0
    7.8517  -13.5795   19.4382 C   0  0  1  0  0  0  0  0  0  0  0  0
    9.2328  -12.9544   19.3660 C   0  0  0  0  0  0  0  0  0  0  0  0
    7.5601  -13.9803   20.8906 C   0  0  0  0  0  0  0  0  0  0  0  0
    8.5888  -15.0194   21.2523 C   0  0  2  0  0  0  0  0  0  0  0  0
    8.6902  -16.0776   20.3027 N   0  0  0  0  0  0  0  0  0  0  0  0
    8.4056  -15.5631   22.6085 C   0  0  0  0  0  0  0  0  0  0  0  0
    8.2929  -14.7599   23.5656 O   0  0  0  0  0  0  0  0  0  0  0  0
    8.3476  -16.9511   22.9040 N   0  0  0  0  0  0  0  0  0  0  0  0
    8.3028  -17.5082   24.2201 C   0  0  1  0  0  0  0  0  0  0  0  0
    8.0321  -19.0210   24.1790 C   0  0  0  0  0  0  0  0  0  0  0  0
    7.8573  -19.5514   25.5936 C   0  0  0  0  0  0  0  0  0  0  0  0
    7.6439  -21.0353   25.5946 C   0  0  0  0  0  0  0  0  0  0  0  0
    7.4690  -21.5831   26.9956 C   0  0  0  0  0  0  0  0  0  0  0  0
    7.2732  -23.0328   26.9404 N   0  0  0  0  0  0  0  0  0  0  0  0
    9.5841  -17.3533   24.9518 C   0  0  0  0  0  0  0  0  0  0  0  0
   10.6323  -17.0520   24.3371 O   0  0  0  0  0  0  0  0  0  0  0  0
    9.5527  -13.0072   28.2206 N   0  0  0  0  0  0  0  0  0  0  0  0
   10.1172  -14.3233   28.1580 C   0  0  0  0  0  0  0  0  0  0  0  0
   11.0508  -14.6286   28.9198 O   0  0  0  0  0  0  0  0  0  0  0  0
    9.5602  -15.2649   27.1837 C   0  0  0  0  0  0  0  0  0  0  0  0
   10.2482  -16.5797   27.2612 C   0  0  2  0  0  0  0  0  0  0  0  0
    9.6649  -17.5400   26.3624 N   0  0  0  0  0  0  0  0  0  0  0  0
   10.2214  -17.1311   28.6486 C   0  0  0  0  0  0  0  0  0  0  0  0
   11.2886  -17.2804   29.2824 O   0  0  0  0  0  0  0  0  0  0  0  0
    9.0216  -17.4754   29.2306 O   0  0  0  0  0  0  0  0  0  0  0  0
  2  1  1  1
  3  2  1  0
  4  2  1  0
  5  7  1  0
  5  4  1  0
  5  6  1  6
  7  8  2  0
  9 10  1  0
  9  7  1  0
 10 11  1  6
 12 13  1  0
 12 11  1  0
 13 14  1  0
 14 15  1  0
 16 10  1  0
 17 16  2  0
 19 18  1  0
 19 20  2  0
 21 19  1  0
 22 21  1  1
 22 23  1  0
 23 16  1  0
 24 22  1  0
 24 26  1  0
 25 24  2  0
M  END
$$$$
