LKN.pdb
     RDKit          3D

 26 25  0  0  1  0  0  0  0  0999 V2000
    5.5173  -11.3934   26.7518 C   0  0  0  0  0  0  0  0  0  0  0  0
    6.3836  -12.0770   25.7178 C   0  0  1  0  0  0  0  0  0  0  0  0
    7.7064  -11.3345   25.6721 C   0  0  0  0  0  0  0  0  0  0  0  0
    6.6431  -13.5359   26.1173 C   0  0  0  0  0  0  0  0  0  0  0  0
    7.5453  -14.1064   25.0546 C   0  0  2  0  0  0  0  0  0  0  0  0
    7.1408  -13.7810   23.7270 N   0  0  0  0  0  0  0  0  0  0  0  0
    7.7450  -15.5591   25.1884 C   0  0  0  0  0  0  0  0  0  0  0  0
    7.9381  -16.0343   26.3333 O   0  0  0  0  0  0  0  0  0  0  0  0
    7.7327  -16.4643   24.0939 N   0  0  0  0  0  0  0  0  0  0  0  0
    8.0050  -17.8650   24.1849 C   0  0  1  0  0  0  0  0  0  0  0  0
    7.4488  -18.6239   22.9691 C   0  0  0  0  0  0  0  0  0  0  0  0
    7.6154  -20.1214   23.1765 C   0  0  0  0  0  0  0  0  0  0  0  0
    7.0157  -20.8966   22.0422 C   0  0  0  0  0  0  0  0  0  0  0  0
    7.2427  -22.3866   22.1898 C   0  0  0  0  0  0  0  0  0  0  0  0
    6.7665  -23.0819   20.9928 N   0  0  0  0  0  0  0  0  0  0  0  0
    9.4577  -18.1658   24.2108 C   0  0  0  0  0  0  0  0  0  0  0  0
   10.0861  -18.3477   23.1435 O   0  0  0  0  0  0  0  0  0  0  0  0
   12.8559  -15.8683   23.4996 N   0  0  0  0  0  0  0  0  0  0  0  0
   12.7733  -17.2266   23.9500 C   0  0  0  0  0  0  0  0  0  0  0  0
   12.9618  -18.1541   23.1441 O   0  0  0  0  0  0  0  0  0  0  0  0
   12.4657  -17.4653   25.3623 C   0  0  0  0  0  0  0  0  0  0  0  0
   11.5643  -18.6361   25.5198 C   0  0  2  0  0  0  0  0  0  0  0  0
   10.1789  -18.2569   25.4367 N   0  0  0  0  0  0  0  0  0  0  0  0
   11.8007  -19.3388   26.8160 C   0  0  0  0  0  0  0  0  0  0  0  0
   12.4212  -20.4240   26.8343 O   0  0  0  0  0  0  0  0  0  0  0  0
   11.3355  -18.7924   27.9914 O   0  0  0  0  0  0  0  0  0  0  0  0
  2  1  1  1
  3  2  1  0
  4  2  1  0
  5  7  1  0
  5  4  1  0
  5  6  1  6
  7  8  2  0
  9 10  1  0
  9  7  1  0
 10 11  1  6
 12 13  1  0
 12 11  1  0
 13 14  1  0
 14 15  1  0
 16 10  1  0
 17 16  2  0
 19 18  1  0
 19 20  2  0
 21 19  1  0
 22 21  1  1
 22 23  1  0
 23 16  1  0
 24 22  1  0
 24 26  1  0
 25 24  2  0
M  END
$$$$
