LKN.pdb
     RDKit          3D

 26 25  0  0  1  0  0  0  0  0999 V2000
    5.9651  -11.3938   26.4572 C   0  0  0  0  0  0  0  0  0  0  0  0
    6.3929  -12.3385   25.3565 C   0  0  1  0  0  0  0  0  0  0  0  0
    7.1238  -11.5157   24.3115 C   0  0  0  0  0  0  0  0  0  0  0  0
    7.3470  -13.4062   25.9088 C   0  0  0  0  0  0  0  0  0  0  0  0
    7.5388  -14.4088   24.8012 C   0  0  2  0  0  0  0  0  0  0  0  0
    6.6984  -14.1809   23.6727 N   0  0  0  0  0  0  0  0  0  0  0  0
    7.4158  -15.8029   25.2592 C   0  0  0  0  0  0  0  0  0  0  0  0
    7.1821  -16.0161   26.4732 O   0  0  0  0  0  0  0  0  0  0  0  0
    7.5461  -16.9310   24.4061 N   0  0  0  0  0  0  0  0  0  0  0  0
    7.7466  -18.2756   24.8494 C   0  0  1  0  0  0  0  0  0  0  0  0
    7.4813  -19.2833   23.7192 C   0  0  0  0  0  0  0  0  0  0  0  0
    7.5095  -20.6990   24.2744 C   0  0  0  0  0  0  0  0  0  0  0  0
    7.2205  -21.7080   23.2040 C   0  0  0  0  0  0  0  0  0  0  0  0
    7.2697  -23.1264   23.7322 C   0  0  0  0  0  0  0  0  0  0  0  0
    6.9203  -24.0655   22.6649 N   0  0  0  0  0  0  0  0  0  0  0  0
    9.1396  -18.5315   25.2914 C   0  0  0  0  0  0  0  0  0  0  0  0
   10.1059  -18.1012   24.6217 O   0  0  0  0  0  0  0  0  0  0  0  0
   13.0439  -20.4234   28.0181 N   0  0  0  0  0  0  0  0  0  0  0  0
   12.2706  -19.5378   28.8382 C   0  0  0  0  0  0  0  0  0  0  0  0
   12.7112  -19.1827   29.9449 O   0  0  0  0  0  0  0  0  0  0  0  0
   10.9748  -19.0835   28.3276 C   0  0  0  0  0  0  0  0  0  0  0  0
   10.7545  -19.5592   26.9372 C   0  0  2  0  0  0  0  0  0  0  0  0
    9.4223  -19.2670   26.4789 N   0  0  0  0  0  0  0  0  0  0  0  0
   11.0016  -21.0267   26.8147 C   0  0  0  0  0  0  0  0  0  0  0  0
   10.0737  -21.8366   27.0296 O   0  0  0  0  0  0  0  0  0  0  0  0
   12.2510  -21.4888   26.4652 O   0  0  0  0  0  0  0  0  0  0  0  0
  2  1  1  1
  3  2  1  0
  4  2  1  0
  5  7  1  0
  5  4  1  0
  5  6  1  6
  7  8  2  0
  9 10  1  0
  9  7  1  0
 10 11  1  6
 12 13  1  0
 12 11  1  0
 13 14  1  0
 14 15  1  0
 16 10  1  0
 17 16  2  0
 19 18  1  0
 19 20  2  0
 21 19  1  0
 22 21  1  1
 22 23  1  0
 23 16  1  0
 24 22  1  0
 24 26  1  0
 25 24  2  0
M  END
$$$$
