LKN.pdb
     RDKit          3D

 26 25  0  0  1  0  0  0  0  0999 V2000
    7.2367  -12.0678   27.7091 C   0  0  0  0  0  0  0  0  0  0  0  0
    6.4908  -13.0775   26.8658 C   0  0  1  0  0  0  0  0  0  0  0  0
    5.4840  -12.3121   26.0269 C   0  0  0  0  0  0  0  0  0  0  0  0
    7.4603  -13.8156   25.9328 C   0  0  0  0  0  0  0  0  0  0  0  0
    6.6381  -14.8484   25.2076 C   0  0  2  0  0  0  0  0  0  0  0  0
    6.0481  -15.8176   26.0705 N   0  0  0  0  0  0  0  0  0  0  0  0
    7.3765  -15.5119   24.1200 C   0  0  0  0  0  0  0  0  0  0  0  0
    7.5991  -16.7432   24.2112 O   0  0  0  0  0  0  0  0  0  0  0  0
    7.8566  -14.8404   22.9642 N   0  0  0  0  0  0  0  0  0  0  0  0
    8.7964  -15.3816   22.0323 C   0  0  1  0  0  0  0  0  0  0  0  0
    9.0576  -14.4084   20.8712 C   0  0  0  0  0  0  0  0  0  0  0  0
    7.9653  -14.5527   19.8227 C   0  0  0  0  0  0  0  0  0  0  0  0
    8.2748  -13.7409   18.6010 C   0  0  0  0  0  0  0  0  0  0  0  0
    7.1874  -13.8545   17.5530 C   0  0  0  0  0  0  0  0  0  0  0  0
    7.6044  -13.1680   16.3292 N   0  0  0  0  0  0  0  0  0  0  0  0
   10.1244  -15.6390   22.6418 C   0  0  0  0  0  0  0  0  0  0  0  0
   10.4542  -15.0685   23.7062 O   0  0  0  0  0  0  0  0  0  0  0  0
   12.9998  -18.7559   25.2318 N   0  0  0  0  0  0  0  0  0  0  0  0
   12.0630  -19.3066   24.2970 C   0  0  0  0  0  0  0  0  0  0  0  0
   12.0382  -20.5341   24.1022 O   0  0  0  0  0  0  0  0  0  0  0  0
   11.1622  -18.3840   23.6016 C   0  0  0  0  0  0  0  0  0  0  0  0
   11.9287  -17.3977   22.7967 C   0  0  2  0  0  0  0  0  0  0  0  0
   11.0589  -16.5335   22.0438 N   0  0  0  0  0  0  0  0  0  0  0  0
   12.8756  -18.0728   21.8600 C   0  0  0  0  0  0  0  0  0  0  0  0
   12.5250  -19.1105   21.2575 O   0  0  0  0  0  0  0  0  0  0  0  0
   14.1351  -17.5530   21.6594 O   0  0  0  0  0  0  0  0  0  0  0  0
  2  1  1  6
  3  2  1  0
  4  2  1  0
  5  7  1  0
  5  4  1  0
  5  6  1  1
  7  8  2  0
  9 10  1  0
  9  7  1  0
 10 11  1  6
 12 13  1  0
 12 11  1  0
 13 14  1  0
 14 15  1  0
 16 10  1  0
 17 16  2  0
 19 18  1  0
 19 20  2  0
 21 19  1  0
 22 21  1  6
 22 23  1  0
 23 16  1  0
 24 22  1  0
 24 26  1  0
 25 24  2  0
M  END
$$$$
