YEY.pdb
     RDKit          3D

 34 35  0  0  1  0  0  0  0  0999 V2000
   31.5930   -9.4711  -19.5151 O   0  0  0  0  0  0  0  0  0  0  0  0
   30.3462   -9.0532  -19.0964 C   0  0  0  0  0  0  0  0  0  0  0  0
   29.6767   -8.0809  -19.8179 C   0  0  0  0  0  0  0  0  0  0  0  0
   28.4231   -7.6487  -19.4123 C   0  0  0  0  0  0  0  0  0  0  0  0
   27.8049   -8.1657  -18.2887 C   0  0  0  0  0  0  0  0  0  0  0  0
   26.4613   -7.6980  -17.8598 C   0  0  0  0  0  0  0  0  0  0  0  0
   25.4624   -8.7205  -18.2873 C   0  0  2  0  0  0  0  0  0  0  0  0
   25.4061   -8.7861  -19.7123 N   0  0  0  0  0  0  0  0  0  0  0  0
   24.0997   -8.4714  -17.7258 C   0  0  0  0  0  0  0  0  0  0  0  0
   23.3507   -7.6149  -18.2624 O   0  0  0  0  0  0  0  0  0  0  0  0
   28.4860   -9.1381  -17.5758 C   0  0  0  0  0  0  0  0  0  0  0  0
   29.7340   -9.5707  -17.9765 C   0  0  0  0  0  0  0  0  0  0  0  0
   23.6039   -9.1640  -16.6016 N   0  0  0  0  0  0  0  0  0  0  0  0
   22.3222   -8.9209  -15.9982 C   0  0  1  0  0  0  0  0  0  0  0  0
   21.7702  -10.1716  -15.3483 C   0  0  0  0  0  0  0  0  0  0  0  0
   21.2390  -11.1469  -16.3692 C   0  0  0  0  0  0  0  0  0  0  0  0
   19.7984  -10.8737  -16.5869 C   0  0  0  0  0  0  0  0  0  0  0  0
   19.1592  -11.4742  -17.4834 O   0  0  0  0  0  0  0  0  0  0  0  0
   22.4282   -7.8978  -14.8973 C   0  0  0  0  0  0  0  0  0  0  0  0
   23.3493   -7.9584  -14.0441 O   0  0  0  0  0  0  0  0  0  0  0  0
   19.1245   -9.9506  -15.8074 O   0  0  0  0  0  0  0  0  0  0  0  0
   22.5981   -1.9779  -18.9889 O   0  0  0  0  0  0  0  0  0  0  0  0
   22.7050   -2.7214  -17.8100 C   0  0  0  0  0  0  0  0  0  0  0  0
   23.5272   -3.8249  -17.7505 C   0  0  0  0  0  0  0  0  0  0  0  0
   23.6205   -4.5532  -16.5667 C   0  0  0  0  0  0  0  0  0  0  0  0
   22.9254   -4.2269  -15.4324 C   0  0  0  0  0  0  0  0  0  0  0  0
   23.0489   -5.0206  -14.1850 C   0  0  0  0  0  0  0  0  0  0  0  0
   21.7296   -5.7015  -13.8904 C   0  0  2  0  0  0  0  0  0  0  0  0
   21.5009   -6.8265  -14.7723 N   0  0  0  0  0  0  0  0  0  0  0  0
   20.5972   -4.7652  -14.0136 C   0  0  0  0  0  0  0  0  0  0  0  0
   20.5448   -3.6611  -13.1798 O   0  0  0  0  0  0  0  0  0  0  0  0
   22.0969   -3.1090  -15.5041 C   0  0  0  0  0  0  0  0  0  0  0  0
   22.0008   -2.3848  -16.6730 C   0  0  0  0  0  0  0  0  0  0  0  0
   19.6520   -4.8909  -14.8343 O   0  0  0  0  0  0  0  0  0  0  0  0
  2  1  1  0
  3  2  2  0
  4  3  1  0
  5  4  2  0
  5 11  1  0
  6  5  1  0
  7  6  1  0
  7  8  1  6
  9  7  1  0
  9 10  2  0
 11 12  2  0
 12  2  1  0
 13  9  1  0
 14 13  1  0
 14 15  1  1
 15 16  1  0
 16 17  1  0
 17 21  1  0
 18 17  2  0
 19 14  1  0
 20 19  2  0
 23 22  1  0
 23 24  2  0
 25 24  1  0
 26 25  2  0
 27 26  1  0
 28 27  1  6
 28 29  1  0
 29 19  1  0
 30 31  1  0
 30 28  1  0
 32 33  2  0
 32 26  1  0
 33 23  1  0
 34 30  2  0
M  END
$$$$
