YEY.pdb
     RDKit          3D

 34 35  0  0  1  0  0  0  0  0999 V2000
   16.2281  -18.8583  -14.6632 O   0  0  0  0  0  0  0  0  0  0  0  0
   17.4168  -19.3973  -14.2152 C   0  0  0  0  0  0  0  0  0  0  0  0
   17.4464  -20.7090  -13.7757 C   0  0  0  0  0  0  0  0  0  0  0  0
   18.6317  -21.2675  -13.3222 C   0  0  0  0  0  0  0  0  0  0  0  0
   19.8105  -20.5453  -13.2927 C   0  0  0  0  0  0  0  0  0  0  0  0
   21.0773  -21.1502  -12.8056 C   0  0  0  0  0  0  0  0  0  0  0  0
   22.0553  -21.1346  -13.9322 C   0  0  2  0  0  0  0  0  0  0  0  0
   21.6321  -22.0280  -14.9621 N   0  0  0  0  0  0  0  0  0  0  0  0
   23.4467  -21.4662  -13.4981 C   0  0  0  0  0  0  0  0  0  0  0  0
   23.7451  -22.6549  -13.2141 O   0  0  0  0  0  0  0  0  0  0  0  0
   19.7669  -19.2339  -13.7353 C   0  0  0  0  0  0  0  0  0  0  0  0
   18.5888  -18.6744  -14.1875 C   0  0  0  0  0  0  0  0  0  0  0  0
   24.4603  -20.4915  -13.3894 N   0  0  0  0  0  0  0  0  0  0  0  0
   25.7667  -20.7361  -12.8422 C   0  0  1  0  0  0  0  0  0  0  0  0
   26.7772  -19.7305  -13.3513 C   0  0  0  0  0  0  0  0  0  0  0  0
   27.1096  -19.9557  -14.8053 C   0  0  0  0  0  0  0  0  0  0  0  0
   27.7330  -21.2926  -14.9516 C   0  0  0  0  0  0  0  0  0  0  0  0
   27.1051  -22.2394  -15.4828 O   0  0  0  0  0  0  0  0  0  0  0  0
   25.7607  -20.5900  -11.3427 C   0  0  0  0  0  0  0  0  0  0  0  0
   24.8957  -19.8847  -10.7646 O   0  0  0  0  0  0  0  0  0  0  0  0
   29.0214  -21.5283  -14.5063 O   0  0  0  0  0  0  0  0  0  0  0  0
   28.8680  -18.9550   -3.4171 O   0  0  0  0  0  0  0  0  0  0  0  0
   28.7088  -19.5285   -4.6819 C   0  0  0  0  0  0  0  0  0  0  0  0
   28.1664  -20.7874   -4.8164 C   0  0  0  0  0  0  0  0  0  0  0  0
   28.0158  -21.3422   -6.0854 C   0  0  0  0  0  0  0  0  0  0  0  0
   28.3846  -20.6921   -7.2332 C   0  0  0  0  0  0  0  0  0  0  0  0
   28.2079  -21.3083   -8.5712 C   0  0  0  0  0  0  0  0  0  0  0  0
   26.8285  -20.9766   -9.0986 C   0  0  2  0  0  0  0  0  0  0  0  0
   26.7234  -21.2363  -10.5188 N   0  0  0  0  0  0  0  0  0  0  0  0
   26.4769  -19.5668   -8.8476 C   0  0  0  0  0  0  0  0  0  0  0  0
   25.6059  -19.2656   -7.8143 O   0  0  0  0  0  0  0  0  0  0  0  0
   28.9321  -19.4194   -7.0851 C   0  0  0  0  0  0  0  0  0  0  0  0
   29.0835  -18.8659   -5.8318 C   0  0  0  0  0  0  0  0  0  0  0  0
   26.9142  -18.5920   -9.5117 O   0  0  0  0  0  0  0  0  0  0  0  0
  2  1  1  0
  3  2  2  0
  4  3  1  0
  5  4  2  0
  5 11  1  0
  6  5  1  0
  7  6  1  0
  7  8  1  6
  9  7  1  0
  9 10  2  0
 11 12  2  0
 12  2  1  0
 13  9  1  0
 14 13  1  0
 14 15  1  6
 15 16  1  0
 16 17  1  0
 17 21  1  0
 18 17  2  0
 19 14  1  0
 20 19  2  0
 23 22  1  0
 23 24  2  0
 25 24  1  0
 26 25  2  0
 27 26  1  0
 28 27  1  6
 28 29  1  0
 29 19  1  0
 30 31  1  0
 30 28  1  0
 32 33  2  0
 32 26  1  0
 33 23  1  0
 34 30  2  0
M  END
$$$$
