YEY.pdb
     RDKit          3D

 34 35  0  0  1  0  0  0  0  0999 V2000
   12.1137  -15.6258  -15.7854 O   0  0  0  0  0  0  0  0  0  0  0  0
   13.2941  -14.9271  -15.6338 C   0  0  0  0  0  0  0  0  0  0  0  0
   13.3531  -13.5993  -16.0185 C   0  0  0  0  0  0  0  0  0  0  0  0
   14.5305  -12.8813  -15.8735 C   0  0  0  0  0  0  0  0  0  0  0  0
   15.6721  -13.4570  -15.3469 C   0  0  0  0  0  0  0  0  0  0  0  0
   16.9305  -12.6817  -15.1941 C   0  0  0  0  0  0  0  0  0  0  0  0
   17.6728  -12.7540  -16.4863 C   0  0  2  0  0  0  0  0  0  0  0  0
   18.4187  -13.9691  -16.5567 N   0  0  0  0  0  0  0  0  0  0  0  0
   18.5722  -11.5804  -16.7059 C   0  0  0  0  0  0  0  0  0  0  0  0
   19.7980  -11.6753  -16.4396 O   0  0  0  0  0  0  0  0  0  0  0  0
   15.5992  -14.7864  -14.9660 C   0  0  0  0  0  0  0  0  0  0  0  0
   14.4290  -15.5043  -15.1088 C   0  0  0  0  0  0  0  0  0  0  0  0
   18.1032  -10.3482  -17.2068 N   0  0  0  0  0  0  0  0  0  0  0  0
   18.9302   -9.1933  -17.4266 C   0  0  1  0  0  0  0  0  0  0  0  0
   18.3483   -8.2907  -18.4934 C   0  0  0  0  0  0  0  0  0  0  0  0
   19.2311   -7.0973  -18.7615 C   0  0  0  0  0  0  0  0  0  0  0  0
   18.6615   -5.9164  -18.0700 C   0  0  0  0  0  0  0  0  0  0  0  0
   19.3774   -5.1958  -17.3343 O   0  0  0  0  0  0  0  0  0  0  0  0
   19.0239   -8.3506  -16.1812 C   0  0  0  0  0  0  0  0  0  0  0  0
   18.0205   -8.1681  -15.4463 O   0  0  0  0  0  0  0  0  0  0  0  0
   17.3278   -5.5806  -18.2189 O   0  0  0  0  0  0  0  0  0  0  0  0
   20.8929   -4.6849   -8.6388 O   0  0  0  0  0  0  0  0  0  0  0  0
   20.9270   -5.4287   -9.8218 C   0  0  0  0  0  0  0  0  0  0  0  0
   21.8856   -5.1783  -10.7787 C   0  0  0  0  0  0  0  0  0  0  0  0
   21.9034   -5.9303  -11.9513 C   0  0  0  0  0  0  0  0  0  0  0  0
   21.0015   -6.9274  -12.2127 C   0  0  0  0  0  0  0  0  0  0  0  0
   21.0487   -7.7136  -13.4700 C   0  0  0  0  0  0  0  0  0  0  0  0
   20.3478   -6.9450  -14.5695 C   0  0  2  0  0  0  0  0  0  0  0  0
   20.2390   -7.7280  -15.7822 N   0  0  0  0  0  0  0  0  0  0  0  0
   21.0473   -5.6849  -14.8804 C   0  0  0  0  0  0  0  0  0  0  0  0
   20.6067   -4.5100  -14.2950 O   0  0  0  0  0  0  0  0  0  0  0  0
   20.0364   -7.1719  -11.2379 C   0  0  0  0  0  0  0  0  0  0  0  0
   20.0142   -6.4307  -10.0759 C   0  0  0  0  0  0  0  0  0  0  0  0
   22.0355   -5.5877  -15.6529 O   0  0  0  0  0  0  0  0  0  0  0  0
  2  1  1  0
  3  2  2  0
  4  3  1  0
  5  4  2  0
  5 11  1  0
  6  5  1  0
  7  6  1  0
  7  8  1  1
  9  7  1  0
  9 10  2  0
 11 12  2  0
 12  2  1  0
 13  9  1  0
 14 13  1  0
 14 15  1  6
 15 16  1  0
 16 17  1  0
 17 21  1  0
 18 17  2  0
 19 14  1  0
 20 19  2  0
 23 22  1  0
 23 24  2  0
 25 24  1  0
 26 25  2  0
 27 26  1  0
 28 27  1  1
 28 29  1  0
 29 19  1  0
 30 31  1  0
 30 28  1  0
 32 33  2  0
 32 26  1  0
 33 23  1  0
 34 30  2  0
M  END
$$$$
