YEY.pdb
     RDKit          3D

 34 35  0  0  1  0  0  0  0  0999 V2000
   31.2707   -9.7368  -19.3241 O   0  0  0  0  0  0  0  0  0  0  0  0
   29.9362   -9.6442  -18.9849 C   0  0  0  0  0  0  0  0  0  0  0  0
   29.3973   -8.4084  -18.6739 C   0  0  0  0  0  0  0  0  0  0  0  0
   28.0585   -8.2962  -18.3308 C   0  0  0  0  0  0  0  0  0  0  0  0
   27.2248   -9.3985  -18.2875 C   0  0  0  0  0  0  0  0  0  0  0  0
   25.7909   -9.2710  -17.9192 C   0  0  0  0  0  0  0  0  0  0  0  0
   25.7084   -9.1488  -16.4345 C   0  0  2  0  0  0  0  0  0  0  0  0
   26.1937  -10.3404  -15.8161 N   0  0  0  0  0  0  0  0  0  0  0  0
   24.3274   -8.8405  -15.9529 C   0  0  0  0  0  0  0  0  0  0  0  0
   23.4786   -9.7643  -15.8589 O   0  0  0  0  0  0  0  0  0  0  0  0
   27.7770  -10.6292  -18.6009 C   0  0  0  0  0  0  0  0  0  0  0  0
   29.1092  -10.7448  -18.9428 C   0  0  0  0  0  0  0  0  0  0  0  0
   23.9225   -7.5385  -15.5920 N   0  0  0  0  0  0  0  0  0  0  0  0
   22.6083   -7.1984  -15.1197 C   0  0  1  0  0  0  0  0  0  0  0  0
   22.5784   -5.8095  -14.5186 C   0  0  0  0  0  0  0  0  0  0  0  0
   21.2189   -5.4685  -13.9609 C   0  0  0  0  0  0  0  0  0  0  0  0
   21.2931   -4.1460  -13.2956 C   0  0  0  0  0  0  0  0  0  0  0  0
   22.3996   -3.6473  -12.9796 O   0  0  0  0  0  0  0  0  0  0  0  0
   21.6152   -7.1778  -16.2525 C   0  0  0  0  0  0  0  0  0  0  0  0
   21.8736   -6.5820  -17.3288 O   0  0  0  0  0  0  0  0  0  0  0  0
   20.1450   -3.4302  -13.0072 O   0  0  0  0  0  0  0  0  0  0  0  0
   17.2291  -13.0467  -14.3500 O   0  0  0  0  0  0  0  0  0  0  0  0
   17.7419  -12.0901  -15.2308 C   0  0  0  0  0  0  0  0  0  0  0  0
   16.8966  -11.2481  -15.9193 C   0  0  0  0  0  0  0  0  0  0  0  0
   17.4265  -10.3010  -16.7927 C   0  0  0  0  0  0  0  0  0  0  0  0
   18.7710  -10.1559  -17.0107 C   0  0  0  0  0  0  0  0  0  0  0  0
   19.3052   -9.1346  -17.9450 C   0  0  0  0  0  0  0  0  0  0  0  0
   19.3857   -7.7994  -17.2368 C   0  0  2  0  0  0  0  0  0  0  0  0
   20.3517   -7.8244  -16.1589 N   0  0  0  0  0  0  0  0  0  0  0  0
   18.0769   -7.3958  -16.6906 C   0  0  0  0  0  0  0  0  0  0  0  0
   17.0031   -7.2565  -17.5536 O   0  0  0  0  0  0  0  0  0  0  0  0
   19.6165  -11.0128  -16.3091 C   0  0  0  0  0  0  0  0  0  0  0  0
   19.0974  -11.9518  -15.4437 C   0  0  0  0  0  0  0  0  0  0  0  0
   17.8510   -7.1621  -15.4754 O   0  0  0  0  0  0  0  0  0  0  0  0
  2  1  1  0
  3  2  2  0
  4  3  1  0
  5  4  2  0
  5 11  1  0
  6  5  1  0
  7  6  1  0
  7  8  1  1
  9  7  1  0
  9 10  2  0
 11 12  2  0
 12  2  1  0
 13  9  1  0
 14 13  1  0
 14 15  1  6
 15 16  1  0
 16 17  1  0
 17 21  1  0
 18 17  2  0
 19 14  1  0
 20 19  2  0
 23 22  1  0
 23 24  2  0
 25 24  1  0
 26 25  2  0
 27 26  1  0
 28 27  1  1
 28 29  1  0
 29 19  1  0
 30 31  1  0
 30 28  1  0
 32 33  2  0
 32 26  1  0
 33 23  1  0
 34 30  2  0
M  END
$$$$
