YEY.pdb
     RDKit          3D

 34 35  0  0  1  0  0  0  0  0999 V2000
   24.7952  -10.3376  -26.2567 O   0  0  0  0  0  0  0  0  0  0  0  0
   24.1570  -10.9586  -25.2025 C   0  0  0  0  0  0  0  0  0  0  0  0
   22.7774  -10.9015  -25.1132 C   0  0  0  0  0  0  0  0  0  0  0  0
   22.1190  -11.5197  -24.0611 C   0  0  0  0  0  0  0  0  0  0  0  0
   22.8063  -12.2059  -23.0769 C   0  0  0  0  0  0  0  0  0  0  0  0
   22.0943  -12.8663  -21.9522 C   0  0  0  0  0  0  0  0  0  0  0  0
   22.0549  -11.9080  -20.8093 C   0  0  2  0  0  0  0  0  0  0  0  0
   23.3558  -11.7723  -20.2373 N   0  0  0  0  0  0  0  0  0  0  0  0
   21.0651  -12.2971  -19.7589 C   0  0  0  0  0  0  0  0  0  0  0  0
   21.3796  -13.1522  -18.8914 O   0  0  0  0  0  0  0  0  0  0  0  0
   24.1865  -12.2553  -23.1783 C   0  0  0  0  0  0  0  0  0  0  0  0
   24.8454  -11.6411  -24.2241 C   0  0  0  0  0  0  0  0  0  0  0  0
   19.7707  -11.7409  -19.6928 N   0  0  0  0  0  0  0  0  0  0  0  0
   18.7463  -12.1741  -18.7824 C   0  0  1  0  0  0  0  0  0  0  0  0
   17.6228  -11.1637  -18.6918 C   0  0  0  0  0  0  0  0  0  0  0  0
   16.6302  -11.5231  -17.6142 C   0  0  0  0  0  0  0  0  0  0  0  0
   15.6118  -10.4498  -17.5251 C   0  0  0  0  0  0  0  0  0  0  0  0
   15.9528   -9.2504  -17.3912 O   0  0  0  0  0  0  0  0  0  0  0  0
   18.1099  -13.4554  -19.2547 C   0  0  0  0  0  0  0  0  0  0  0  0
   17.8700  -13.6480  -20.4735 O   0  0  0  0  0  0  0  0  0  0  0  0
   14.2616  -10.7445  -17.5876 O   0  0  0  0  0  0  0  0  0  0  0  0
   15.4432  -21.6869  -20.2762 O   0  0  0  0  0  0  0  0  0  0  0  0
   16.0845  -20.5195  -19.8521 C   0  0  0  0  0  0  0  0  0  0  0  0
   16.8142  -19.7598  -20.7396 C   0  0  0  0  0  0  0  0  0  0  0  0
   17.4462  -18.5995  -20.2980 C   0  0  0  0  0  0  0  0  0  0  0  0
   17.3816  -18.1609  -19.0021 C   0  0  0  0  0  0  0  0  0  0  0  0
   18.0628  -16.9182  -18.5630 C   0  0  0  0  0  0  0  0  0  0  0  0
   17.1492  -15.7347  -18.7984 C   0  0  2  0  0  0  0  0  0  0  0  0
   17.7539  -14.4969  -18.3536 N   0  0  0  0  0  0  0  0  0  0  0  0
   15.8556  -15.9036  -18.1115 C   0  0  0  0  0  0  0  0  0  0  0  0
   14.8068  -16.4994  -18.7913 O   0  0  0  0  0  0  0  0  0  0  0  0
   16.6408  -18.9371  -18.1132 C   0  0  0  0  0  0  0  0  0  0  0  0
   16.0136  -20.0862  -18.5448 C   0  0  0  0  0  0  0  0  0  0  0  0
   15.6213  -15.5417  -16.9296 O   0  0  0  0  0  0  0  0  0  0  0  0
  2  1  1  0
  3  2  2  0
  4  3  1  0
  5  4  2  0
  5 11  1  0
  6  5  1  0
  7  6  1  0
  7  8  1  1
  9  7  1  0
  9 10  2  0
 11 12  2  0
 12  2  1  0
 13  9  1  0
 14 13  1  0
 14 15  1  6
 15 16  1  0
 16 17  1  0
 17 21  1  0
 18 17  2  0
 19 14  1  0
 20 19  2  0
 23 22  1  0
 23 24  2  0
 25 24  1  0
 26 25  2  0
 27 26  1  0
 28 27  1  1
 28 29  1  0
 29 19  1  0
 30 31  1  0
 30 28  1  0
 32 33  2  0
 32 26  1  0
 33 23  1  0
 34 30  2  0
M  END
$$$$
