YEY.pdb
     RDKit          3D

 34 35  0  0  1  0  0  0  0  0999 V2000
   20.4611  -16.0298  -21.7568 O   0  0  0  0  0  0  0  0  0  0  0  0
   19.8440  -14.8908  -21.2812 C   0  0  0  0  0  0  0  0  0  0  0  0
   20.6108  -13.7846  -20.9609 C   0  0  0  0  0  0  0  0  0  0  0  0
   20.0081  -12.6314  -20.4818 C   0  0  0  0  0  0  0  0  0  0  0  0
   18.6389  -12.5454  -20.3090 C   0  0  0  0  0  0  0  0  0  0  0  0
   17.9995  -11.3064  -19.7953 C   0  0  0  0  0  0  0  0  0  0  0  0
   18.0331  -11.3577  -18.3046 C   0  0  2  0  0  0  0  0  0  0  0  0
   17.1791  -12.3985  -17.8298 N   0  0  0  0  0  0  0  0  0  0  0  0
   17.6650  -10.0554  -17.6701 C   0  0  0  0  0  0  0  0  0  0  0  0
   16.4911   -9.6170  -17.7811 O   0  0  0  0  0  0  0  0  0  0  0  0
   17.8833  -13.6596  -20.6334 C   0  0  0  0  0  0  0  0  0  0  0  0
   18.4797  -14.8093  -21.1106 C   0  0  0  0  0  0  0  0  0  0  0  0
   18.5885   -9.2795  -16.9389 N   0  0  0  0  0  0  0  0  0  0  0  0
   18.2636   -8.0534  -16.2631 C   0  0  1  0  0  0  0  0  0  0  0  0
   19.0899   -7.8779  -15.0070 C   0  0  0  0  0  0  0  0  0  0  0  0
   20.5317   -8.2638  -15.2252 C   0  0  0  0  0  0  0  0  0  0  0  0
   21.2823   -8.0399  -13.9668 C   0  0  0  0  0  0  0  0  0  0  0  0
   21.2008   -8.8547  -13.0168 O   0  0  0  0  0  0  0  0  0  0  0  0
   18.5733   -6.8602  -17.1292 C   0  0  0  0  0  0  0  0  0  0  0  0
   19.5219   -6.8876  -17.9535 O   0  0  0  0  0  0  0  0  0  0  0  0
   22.0902   -6.9280  -13.8095 O   0  0  0  0  0  0  0  0  0  0  0  0
   18.0378    0.6063  -21.6924 O   0  0  0  0  0  0  0  0  0  0  0  0
   17.7452   -0.4471  -20.8215 C   0  0  0  0  0  0  0  0  0  0  0  0
   17.7379   -0.2473  -19.4586 C   0  0  0  0  0  0  0  0  0  0  0  0
   17.4439   -1.3096  -18.6067 C   0  0  0  0  0  0  0  0  0  0  0  0
   17.1549   -2.5703  -19.0574 C   0  0  0  0  0  0  0  0  0  0  0  0
   16.8419   -3.6807  -18.1246 C   0  0  0  0  0  0  0  0  0  0  0  0
   18.0831   -4.5194  -17.9079 C   0  0  2  0  0  0  0  0  0  0  0  0
   17.8154   -5.6587  -17.0559 N   0  0  0  0  0  0  0  0  0  0  0  0
   19.1746   -3.7279  -17.3113 C   0  0  0  0  0  0  0  0  0  0  0  0
   20.0489   -3.0529  -18.1463 O   0  0  0  0  0  0  0  0  0  0  0  0
   17.1652   -2.7609  -20.4376 C   0  0  0  0  0  0  0  0  0  0  0  0
   17.4555   -1.7132  -21.2850 C   0  0  0  0  0  0  0  0  0  0  0  0
   19.3814   -3.6131  -16.0757 O   0  0  0  0  0  0  0  0  0  0  0  0
  2  1  1  0
  3  2  2  0
  4  3  1  0
  5  4  2  0
  5 11  1  0
  6  5  1  0
  7  6  1  0
  7  8  1  1
  9  7  1  0
  9 10  2  0
 11 12  2  0
 12  2  1  0
 13  9  1  0
 14 13  1  0
 14 15  1  1
 15 16  1  0
 16 17  1  0
 17 21  1  0
 18 17  2  0
 19 14  1  0
 20 19  2  0
 23 22  1  0
 23 24  2  0
 25 24  1  0
 26 25  2  0
 27 26  1  0
 28 27  1  1
 28 29  1  0
 29 19  1  0
 30 31  1  0
 30 28  1  0
 32 33  2  0
 32 26  1  0
 33 23  1  0
 34 30  2  0
M  END
$$$$
