YEY.pdb
     RDKit          3D

 34 35  0  0  1  0  0  0  0  0999 V2000
   29.8534  -13.1415  -15.9420 O   0  0  0  0  0  0  0  0  0  0  0  0
   28.8498  -12.2289  -16.1954 C   0  0  0  0  0  0  0  0  0  0  0  0
   27.9586  -11.9005  -15.1892 C   0  0  0  0  0  0  0  0  0  0  0  0
   26.9439  -10.9854  -15.4255 C   0  0  0  0  0  0  0  0  0  0  0  0
   26.7875  -10.3762  -16.6569 C   0  0  0  0  0  0  0  0  0  0  0  0
   25.6979   -9.3963  -16.9031 C   0  0  0  0  0  0  0  0  0  0  0  0
   24.4273  -10.1584  -17.0780 C   0  0  2  0  0  0  0  0  0  0  0  0
   24.5839  -11.1473  -18.0956 N   0  0  0  0  0  0  0  0  0  0  0  0
   23.2596   -9.2778  -17.3867 C   0  0  0  0  0  0  0  0  0  0  0  0
   22.8025   -9.2353  -18.5580 O   0  0  0  0  0  0  0  0  0  0  0  0
   27.6861  -10.7139  -17.6549 C   0  0  0  0  0  0  0  0  0  0  0  0
   28.6973  -11.6243  -17.4235 C   0  0  0  0  0  0  0  0  0  0  0  0
   22.6338   -8.4767  -16.4089 N   0  0  0  0  0  0  0  0  0  0  0  0
   21.4464   -7.6989  -16.6347 C   0  0  1  0  0  0  0  0  0  0  0  0
   20.2328   -8.3446  -16.0009 C   0  0  0  0  0  0  0  0  0  0  0  0
   18.9795   -7.5401  -16.2405 C   0  0  0  0  0  0  0  0  0  0  0  0
   17.9572   -7.9396  -15.2442 C   0  0  0  0  0  0  0  0  0  0  0  0
   18.2211   -8.7864  -14.3575 O   0  0  0  0  0  0  0  0  0  0  0  0
   21.5643   -6.3363  -16.0027 C   0  0  0  0  0  0  0  0  0  0  0  0
   22.3681   -6.1280  -15.0590 O   0  0  0  0  0  0  0  0  0  0  0  0
   16.6884   -7.3889  -15.2681 O   0  0  0  0  0  0  0  0  0  0  0  0
   22.7295    1.9352  -14.0691 O   0  0  0  0  0  0  0  0  0  0  0  0
   22.6398    0.6217  -14.5386 C   0  0  0  0  0  0  0  0  0  0  0  0
   22.6852    0.3564  -15.8895 C   0  0  0  0  0  0  0  0  0  0  0  0
   22.5942   -0.9593  -16.3381 C   0  0  0  0  0  0  0  0  0  0  0  0
   22.4592   -2.0288  -15.4931 C   0  0  0  0  0  0  0  0  0  0  0  0
   22.3685   -3.4196  -16.0014 C   0  0  0  0  0  0  0  0  0  0  0  0
   20.9386   -3.9029  -15.8897 C   0  0  2  0  0  0  0  0  0  0  0  0
   20.7801   -5.2328  -16.4392 N   0  0  0  0  0  0  0  0  0  0  0  0
   20.0036   -2.9924  -16.5759 C   0  0  0  0  0  0  0  0  0  0  0  0
   19.2947   -2.0683  -15.8271 O   0  0  0  0  0  0  0  0  0  0  0  0
   22.4143   -1.7487  -14.1289 C   0  0  0  0  0  0  0  0  0  0  0  0
   22.5038   -0.4486  -13.6796 C   0  0  0  0  0  0  0  0  0  0  0  0
   19.7924   -2.9865  -17.8161 O   0  0  0  0  0  0  0  0  0  0  0  0
  2  1  1  0
  3  2  2  0
  4  3  1  0
  5  4  2  0
  5 11  1  0
  6  5  1  0
  7  6  1  0
  7  8  1  6
  9  7  1  0
  9 10  2  0
 11 12  2  0
 12  2  1  0
 13  9  1  0
 14 13  1  0
 14 15  1  1
 15 16  1  0
 16 17  1  0
 17 21  1  0
 18 17  2  0
 19 14  1  0
 20 19  2  0
 23 22  1  0
 23 24  2  0
 25 24  1  0
 26 25  2  0
 27 26  1  0
 28 27  1  6
 28 29  1  0
 29 19  1  0
 30 31  1  0
 30 28  1  0
 32 33  2  0
 32 26  1  0
 33 23  1  0
 34 30  2  0
M  END
$$$$
