YEY.pdb
     RDKit          3D

 34 35  0  0  1  0  0  0  0  0999 V2000
   29.3517  -32.0087  -19.9436 O   0  0  0  0  0  0  0  0  0  0  0  0
   28.6990  -30.9804  -19.2949 C   0  0  0  0  0  0  0  0  0  0  0  0
   28.5985  -31.0015  -17.9151 C   0  0  0  0  0  0  0  0  0  0  0  0
   27.9463  -29.9767  -17.2462 C   0  0  0  0  0  0  0  0  0  0  0  0
   27.3809  -28.9118  -17.9231 C   0  0  0  0  0  0  0  0  0  0  0  0
   26.6836  -27.8169  -17.1999 C   0  0  0  0  0  0  0  0  0  0  0  0
   27.5412  -26.5985  -17.2764 C   0  0  2  0  0  0  0  0  0  0  0  0
   28.7232  -26.7803  -16.4967 N   0  0  0  0  0  0  0  0  0  0  0  0
   26.8257  -25.3570  -16.8510 C   0  0  0  0  0  0  0  0  0  0  0  0
   26.9412  -24.9445  -15.6681 O   0  0  0  0  0  0  0  0  0  0  0  0
   27.4887  -28.9032  -19.3036 C   0  0  0  0  0  0  0  0  0  0  0  0
   28.1370  -29.9214  -19.9729 C   0  0  0  0  0  0  0  0  0  0  0  0
   26.0117  -24.6116  -17.7291 N   0  0  0  0  0  0  0  0  0  0  0  0
   25.3219  -23.4034  -17.3683 C   0  0  1  0  0  0  0  0  0  0  0  0
   25.8967  -22.2018  -18.0876 C   0  0  0  0  0  0  0  0  0  0  0  0
   27.2781  -21.8573  -17.5892 C   0  0  0  0  0  0  0  0  0  0  0  0
   27.7896  -20.6994  -18.3606 C   0  0  0  0  0  0  0  0  0  0  0  0
   27.1048  -20.1853  -19.2769 O   0  0  0  0  0  0  0  0  0  0  0  0
   23.8714  -23.4683  -17.7704 C   0  0  0  0  0  0  0  0  0  0  0  0
   23.5048  -24.1462  -18.7634 O   0  0  0  0  0  0  0  0  0  0  0  0
   29.0334  -20.1583  -18.0889 O   0  0  0  0  0  0  0  0  0  0  0  0
   19.8277  -25.9849  -12.2258 O   0  0  0  0  0  0  0  0  0  0  0  0
   20.0876  -25.5372  -13.5242 C   0  0  0  0  0  0  0  0  0  0  0  0
   21.2609  -25.8777  -14.1604 C   0  0  0  0  0  0  0  0  0  0  0  0
   21.5020  -25.4218  -15.4545 C   0  0  0  0  0  0  0  0  0  0  0  0
   20.6184  -24.6365  -16.1463 C   0  0  0  0  0  0  0  0  0  0  0  0
   20.9022  -24.1696  -17.5257 C   0  0  0  0  0  0  0  0  0  0  0  0
   21.4736  -22.7690  -17.4741 C   0  0  2  0  0  0  0  0  0  0  0  0
   22.8587  -22.7728  -17.0533 N   0  0  0  0  0  0  0  0  0  0  0  0
   20.7039  -21.9029  -16.5623 C   0  0  0  0  0  0  0  0  0  0  0  0
   21.3628  -21.2680  -15.5231 O   0  0  0  0  0  0  0  0  0  0  0  0
   19.4350  -24.2982  -15.4931 C   0  0  0  0  0  0  0  0  0  0  0  0
   19.1916  -24.7465  -14.2125 C   0  0  0  0  0  0  0  0  0  0  0  0
   19.4676  -21.6886  -16.6537 O   0  0  0  0  0  0  0  0  0  0  0  0
  2  1  1  0
  3  2  2  0
  4  3  1  0
  5  4  2  0
  5 11  1  0
  6  5  1  0
  7  6  1  0
  7  8  1  1
  9  7  1  0
  9 10  2  0
 11 12  2  0
 12  2  1  0
 13  9  1  0
 14 13  1  0
 14 15  1  6
 15 16  1  0
 16 17  1  0
 17 21  1  0
 18 17  2  0
 19 14  1  0
 20 19  2  0
 23 22  1  0
 23 24  2  0
 25 24  1  0
 26 25  2  0
 27 26  1  0
 28 27  1  1
 28 29  1  0
 29 19  1  0
 30 31  1  0
 30 28  1  0
 32 33  2  0
 32 26  1  0
 33 23  1  0
 34 30  2  0
M  END
$$$$
