YEY.pdb
     RDKit          3D

 34 35  0  0  1  0  0  0  0  0999 V2000
   30.1099  -34.6537   -6.6244 O   0  0  0  0  0  0  0  0  0  0  0  0
   31.0229  -34.5632   -5.5935 C   0  0  0  0  0  0  0  0  0  0  0  0
   30.5713  -34.3786   -4.2988 C   0  0  0  0  0  0  0  0  0  0  0  0
   31.4741  -34.2855   -3.2504 C   0  0  0  0  0  0  0  0  0  0  0  0
   32.8385  -34.3725   -3.4569 C   0  0  0  0  0  0  0  0  0  0  0  0
   33.8004  -34.2721   -2.3287 C   0  0  0  0  0  0  0  0  0  0  0  0
   34.0614  -35.6520   -1.8251 C   0  0  2  0  0  0  0  0  0  0  0  0
   34.7749  -36.4056   -2.8054 N   0  0  0  0  0  0  0  0  0  0  0  0
   32.8129  -36.3708   -1.4266 C   0  0  0  0  0  0  0  0  0  0  0  0
   32.6210  -37.5513   -1.8167 O   0  0  0  0  0  0  0  0  0  0  0  0
   33.2769  -34.5572   -4.7574 C   0  0  0  0  0  0  0  0  0  0  0  0
   32.3813  -34.6502   -5.8035 C   0  0  0  0  0  0  0  0  0  0  0  0
   31.8206  -35.7774   -0.6187 N   0  0  0  0  0  0  0  0  0  0  0  0
   30.6757  -36.4722   -0.0969 C   0  0  1  0  0  0  0  0  0  0  0  0
   31.0823  -37.5485    0.8868 C   0  0  0  0  0  0  0  0  0  0  0  0
   29.8893  -38.3054    1.4154 C   0  0  0  0  0  0  0  0  0  0  0  0
   30.3438  -39.2303    2.4809 C   0  0  0  0  0  0  0  0  0  0  0  0
   29.5882  -39.5309    3.4356 O   0  0  0  0  0  0  0  0  0  0  0  0
   29.7765  -35.5353    0.6670 C   0  0  0  0  0  0  0  0  0  0  0  0
   30.2389  -34.5131    1.2339 O   0  0  0  0  0  0  0  0  0  0  0  0
   31.6112  -39.7838    2.4483 O   0  0  0  0  0  0  0  0  0  0  0  0
   23.4686  -30.0640   -1.2810 O   0  0  0  0  0  0  0  0  0  0  0  0
   24.4792  -31.0180   -1.1315 C   0  0  0  0  0  0  0  0  0  0  0  0
   24.4979  -32.1474   -1.9199 C   0  0  0  0  0  0  0  0  0  0  0  0
   25.5134  -33.0869   -1.7561 C   0  0  0  0  0  0  0  0  0  0  0  0
   26.5174  -32.9483   -0.8347 C   0  0  0  0  0  0  0  0  0  0  0  0
   27.5876  -33.9651   -0.6866 C   0  0  0  0  0  0  0  0  0  0  0  0
   27.4047  -34.6993    0.6243 C   0  0  2  0  0  0  0  0  0  0  0  0
   28.3767  -35.7605    0.7818 N   0  0  0  0  0  0  0  0  0  0  0  0
   26.0522  -35.2750    0.7389 C   0  0  0  0  0  0  0  0  0  0  0  0
   25.0510  -34.5250    1.3325 O   0  0  0  0  0  0  0  0  0  0  0  0
   26.4884  -31.8023   -0.0427 C   0  0  0  0  0  0  0  0  0  0  0  0
   25.4858  -30.8696   -0.2006 C   0  0  0  0  0  0  0  0  0  0  0  0
   25.7257  -36.4196    0.3315 O   0  0  0  0  0  0  0  0  0  0  0  0
  2  1  1  0
  3  2  2  0
  4  3  1  0
  5  4  2  0
  5 11  1  0
  6  5  1  0
  7  6  1  0
  7  8  1  6
  9  7  1  0
  9 10  2  0
 11 12  2  0
 12  2  1  0
 13  9  1  0
 14 13  1  0
 14 15  1  1
 15 16  1  0
 16 17  1  0
 17 21  1  0
 18 17  2  0
 19 14  1  0
 20 19  2  0
 23 22  1  0
 23 24  2  0
 25 24  1  0
 26 25  2  0
 27 26  1  0
 28 27  1  6
 28 29  1  0
 29 19  1  0
 30 31  1  0
 30 28  1  0
 32 33  2  0
 32 26  1  0
 33 23  1  0
 34 30  2  0
M  END
$$$$
