PVI.pdb
     RDKit          3D

 23 23  0  0  1  0  0  0  0  0999 V2000
    8.2251  -14.7672   20.6975 N   0  0  0  0  0  0  0  0  0  0  0  0
    8.7008  -16.0655   20.3117 C   0  0  0  0  0  0  0  0  0  0  0  0
    7.9441  -17.1005   21.0728 C   0  0  0  0  0  0  0  0  0  0  0  0
    6.7870  -16.3593   21.6990 C   0  0  0  0  0  0  0  0  0  0  0  0
    7.2807  -14.9550   21.7718 C   0  0  1  0  0  0  0  0  0  0  0  0
    7.9226  -14.6477   23.1075 C   0  0  0  0  0  0  0  0  0  0  0  0
    9.1570  -14.7304   23.2587 O   0  0  0  0  0  0  0  0  0  0  0  0
    6.7283  -11.5964   25.3539 C   0  0  0  0  0  0  0  0  0  0  0  0
    6.8614  -12.8531   26.2002 C   0  0  2  0  0  0  0  0  0  0  0  0
    7.3573  -12.4296   27.5408 C   0  0  0  0  0  0  0  0  0  0  0  0
    7.6050  -13.8831   25.4599 C   0  0  2  0  0  0  0  0  0  0  0  0
    7.0965  -14.2652   24.1798 N   0  0  0  0  0  0  0  0  0  0  0  0
    8.1583  -15.0045   26.2672 C   0  0  0  0  0  0  0  0  0  0  0  0
    7.4222  -15.9668   26.6061 O   0  0  0  0  0  0  0  0  0  0  0  0
   12.6728  -17.0185   24.6520 C   0  0  0  0  0  0  0  0  0  0  0  0
   11.3273  -16.7212   25.2721 C   0  0  0  0  0  0  0  0  0  0  0  0
   11.3681  -16.5410   26.7587 C   0  0  2  0  0  0  0  0  0  0  0  0
   11.9883  -17.7318   27.4580 C   0  0  0  0  0  0  0  0  0  0  0  0
   10.0488  -16.2319   27.4033 C   0  0  2  0  0  0  0  0  0  0  0  0
    9.4883  -15.0674   26.6989 N   0  0  0  0  0  0  0  0  0  0  0  0
   10.3200  -15.8839   28.8258 C   0  0  0  0  0  0  0  0  0  0  0  0
   10.3174  -16.7779   29.8639 O   0  0  0  0  0  0  0  0  0  0  0  0
   10.5689  -14.6816   29.0913 O   0  0  0  0  0  0  0  0  0  0  0  0
  1  5  1  0
  1  2  1  0
  2  3  1  0
  3  4  1  0
  5  4  1  0
  6  7  2  0
  5  6  1  1
  9  8  1  6
  9 11  1  0
 10  9  1  0
 11 12  1  6
 12  6  1  0
 13 20  1  0
 13 11  1  0
 14 13  2  0
 15 16  1  0
 17 16  1  0
 17 19  1  0
 17 18  1  1
 19 20  1  6
 19 21  1  0
 21 22  1  0
 23 21  2  0
M  END
$$$$
