PVI.pdb
     RDKit          3D

 23 23  0  0  1  0  0  0  0  0999 V2000
   10.5053  -17.4269   19.1892 N   0  0  0  0  0  0  0  0  0  0  0  0
   11.7205  -18.1883   19.2567 C   0  0  0  0  0  0  0  0  0  0  0  0
   11.5844  -19.2171   20.3272 C   0  0  0  0  0  0  0  0  0  0  0  0
   10.1158  -19.2257   20.6788 C   0  0  0  0  0  0  0  0  0  0  0  0
    9.6598  -17.8662   20.2725 C   0  0  1  0  0  0  0  0  0  0  0  0
    9.7105  -16.8834   21.4223 C   0  0  0  0  0  0  0  0  0  0  0  0
   10.7346  -16.2079   21.6423 O   0  0  0  0  0  0  0  0  0  0  0  0
    7.0949  -14.2632   22.0361 C   0  0  0  0  0  0  0  0  0  0  0  0
    7.3100  -14.9463   23.3779 C   0  0  2  0  0  0  0  0  0  0  0  0
    7.2387  -13.8886   24.4260 C   0  0  0  0  0  0  0  0  0  0  0  0
    8.4986  -15.8099   23.3192 C   0  0  2  0  0  0  0  0  0  0  0  0
    8.5755  -16.7460   22.2416 N   0  0  0  0  0  0  0  0  0  0  0  0
    9.0071  -16.3206   24.6215 C   0  0  0  0  0  0  0  0  0  0  0  0
    8.8322  -17.5239   24.9440 O   0  0  0  0  0  0  0  0  0  0  0  0
   10.1650  -12.6032   28.5501 C   0  0  0  0  0  0  0  0  0  0  0  0
   10.4254  -13.6306   27.4730 C   0  0  0  0  0  0  0  0  0  0  0  0
   10.0515  -15.0283   27.8612 C   0  0  2  0  0  0  0  0  0  0  0  0
   10.7548  -15.4735   29.1255 C   0  0  0  0  0  0  0  0  0  0  0  0
   10.2602  -16.0663   26.7978 C   0  0  2  0  0  0  0  0  0  0  0  0
    9.6877  -15.5281   25.5532 N   0  0  0  0  0  0  0  0  0  0  0  0
    9.5143  -17.2860   27.2151 C   0  0  0  0  0  0  0  0  0  0  0  0
   10.0946  -18.4376   27.6779 O   0  0  0  0  0  0  0  0  0  0  0  0
    8.2611  -17.2547   27.1359 O   0  0  0  0  0  0  0  0  0  0  0  0
  1  5  1  0
  1  2  1  0
  2  3  1  0
  3  4  1  0
  5  4  1  0
  6  7  2  0
  5  6  1  1
  9  8  1  6
  9 11  1  0
 10  9  1  0
 11 12  1  6
 12  6  1  0
 13 20  1  0
 13 11  1  0
 14 13  2  0
 15 16  1  0
 17 16  1  0
 17 19  1  0
 17 18  1  1
 19 20  1  6
 19 21  1  0
 21 22  1  0
 23 21  2  0
M  END
$$$$
