PVI.pdb
     RDKit          3D

 23 23  0  0  1  0  0  0  0  0999 V2000
    8.6577  -14.7061   18.4244 N   0  0  0  0  0  0  0  0  0  0  0  0
    7.5009  -14.1533   17.7786 C   0  0  0  0  0  0  0  0  0  0  0  0
    7.0696  -12.9363   18.5244 C   0  0  0  0  0  0  0  0  0  0  0  0
    8.2126  -12.6244   19.4608 C   0  0  0  0  0  0  0  0  0  0  0  0
    8.8870  -13.9429   19.6270 C   0  0  1  0  0  0  0  0  0  0  0  0
    8.3786  -14.6915   20.8401 C   0  0  0  0  0  0  0  0  0  0  0  0
    7.2852  -14.3982   21.3615 O   0  0  0  0  0  0  0  0  0  0  0  0
    8.4574  -18.5045   21.5071 C   0  0  0  0  0  0  0  0  0  0  0  0
    9.0977  -17.8155   22.7023 C   0  0  2  0  0  0  0  0  0  0  0  0
    8.6457  -18.5424   23.9228 C   0  0  0  0  0  0  0  0  0  0  0  0
    8.8850  -16.3628   22.6204 C   0  0  2  0  0  0  0  0  0  0  0  0
    9.1665  -15.7291   21.3705 N   0  0  0  0  0  0  0  0  0  0  0  0
    9.2756  -15.5711   23.8187 C   0  0  0  0  0  0  0  0  0  0  0  0
   10.4287  -15.0754   23.9044 O   0  0  0  0  0  0  0  0  0  0  0  0
    6.0154  -11.9995   25.9868 C   0  0  0  0  0  0  0  0  0  0  0  0
    7.2083  -12.8105   25.5368 C   0  0  0  0  0  0  0  0  0  0  0  0
    7.7153  -13.7717   26.5679 C   0  0  2  0  0  0  0  0  0  0  0  0
    8.0993  -13.0733   27.8548 C   0  0  0  0  0  0  0  0  0  0  0  0
    8.8565  -14.6409   26.1275 C   0  0  2  0  0  0  0  0  0  0  0  0
    8.4228  -15.3324   24.9027 N   0  0  0  0  0  0  0  0  0  0  0  0
    9.1036  -15.6324   27.2111 C   0  0  0  0  0  0  0  0  0  0  0  0
   10.0693  -15.5126   28.1755 O   0  0  0  0  0  0  0  0  0  0  0  0
    8.3721  -16.6531   27.2409 O   0  0  0  0  0  0  0  0  0  0  0  0
  1  5  1  0
  1  2  1  0
  2  3  1  0
  3  4  1  0
  5  4  1  0
  6  7  2  0
  5  6  1  1
  9  8  1  6
  9 11  1  0
 10  9  1  0
 11 12  1  6
 12  6  1  0
 13 20  1  0
 13 11  1  0
 14 13  2  0
 15 16  1  0
 17 16  1  0
 17 19  1  0
 17 18  1  1
 19 20  1  6
 19 21  1  0
 21 22  1  0
 23 21  2  0
M  END
$$$$
