PVI.pdb
     RDKit          3D

 23 23  0  0  1  0  0  0  0  0999 V2000
    8.5099  -14.9941   18.2059 N   0  0  0  0  0  0  0  0  0  0  0  0
    7.5806  -14.1372   17.5255 C   0  0  0  0  0  0  0  0  0  0  0  0
    7.5252  -12.8276   18.2363 C   0  0  0  0  0  0  0  0  0  0  0  0
    8.6972  -12.8480   19.1884 C   0  0  0  0  0  0  0  0  0  0  0  0
    8.9426  -14.3032   19.3962 C   0  0  1  0  0  0  0  0  0  0  0  0
    8.2177  -14.8327   20.6147 C   0  0  0  0  0  0  0  0  0  0  0  0
    7.2109  -14.2510   21.0636 O   0  0  0  0  0  0  0  0  0  0  0  0
    7.5596  -18.5870   21.5117 C   0  0  0  0  0  0  0  0  0  0  0  0
    8.1837  -17.9086   22.7214 C   0  0  2  0  0  0  0  0  0  0  0  0
    7.4827  -18.4312   23.9288 C   0  0  0  0  0  0  0  0  0  0  0  0
    8.2451  -16.4550   22.5085 C   0  0  2  0  0  0  0  0  0  0  0  0
    8.7035  -15.9985   21.2339 N   0  0  0  0  0  0  0  0  0  0  0  0
    8.7100  -15.6390   23.6632 C   0  0  0  0  0  0  0  0  0  0  0  0
    9.9398  -15.4715   23.8686 O   0  0  0  0  0  0  0  0  0  0  0  0
    6.6635  -10.8826   26.9301 C   0  0  0  0  0  0  0  0  0  0  0  0
    7.6529  -12.0221   26.8538 C   0  0  0  0  0  0  0  0  0  0  0  0
    7.3255  -13.0442   25.8087 C   0  0  2  0  0  0  0  0  0  0  0  0
    5.9460  -13.6354   26.0054 C   0  0  0  0  0  0  0  0  0  0  0  0
    8.3179  -14.1613   25.6717 C   0  0  2  0  0  0  0  0  0  0  0  0
    7.8458  -15.0243   24.5769 N   0  0  0  0  0  0  0  0  0  0  0  0
    8.3141  -14.9187   26.9542 C   0  0  0  0  0  0  0  0  0  0  0  0
    9.1266  -14.6495   28.0239 O   0  0  0  0  0  0  0  0  0  0  0  0
    7.5060  -15.8744   27.0607 O   0  0  0  0  0  0  0  0  0  0  0  0
  1  5  1  0
  1  2  1  0
  2  3  1  0
  3  4  1  0
  5  4  1  0
  6  7  2  0
  5  6  1  1
  9  8  1  6
  9 11  1  0
 10  9  1  0
 11 12  1  6
 12  6  1  0
 13 20  1  0
 13 11  1  0
 14 13  2  0
 15 16  1  0
 17 16  1  0
 17 19  1  0
 17 18  1  1
 19 20  1  6
 19 21  1  0
 21 22  1  0
 23 21  2  0
M  END
$$$$
