PVI.pdb
     RDKit          3D

 23 23  0  0  1  0  0  0  0  0999 V2000
    8.0839  -14.7344   18.3302 N   0  0  0  0  0  0  0  0  0  0  0  0
    7.0235  -13.8382   17.9653 C   0  0  0  0  0  0  0  0  0  0  0  0
    7.1262  -12.6068   18.7997 C   0  0  0  0  0  0  0  0  0  0  0  0
    8.4823  -12.6914   19.4588 C   0  0  0  0  0  0  0  0  0  0  0  0
    8.7714  -14.1534   19.4577 C   0  0  1  0  0  0  0  0  0  0  0  0
    8.3402  -14.8183   20.7470 C   0  0  0  0  0  0  0  0  0  0  0  0
    7.2024  -14.6247   21.2177 O   0  0  0  0  0  0  0  0  0  0  0  0
    8.4584  -18.4390   21.4815 C   0  0  0  0  0  0  0  0  0  0  0  0
    9.1450  -17.7882   22.6725 C   0  0  2  0  0  0  0  0  0  0  0  0
    8.7224  -18.5402   23.8883 C   0  0  0  0  0  0  0  0  0  0  0  0
    8.9487  -16.3315   22.6336 C   0  0  2  0  0  0  0  0  0  0  0  0
    9.2513  -15.6623   21.4073 N   0  0  0  0  0  0  0  0  0  0  0  0
    9.3337  -15.5818   23.8604 C   0  0  0  0  0  0  0  0  0  0  0  0
   10.5234  -15.2099   24.0305 O   0  0  0  0  0  0  0  0  0  0  0  0
    6.2781  -11.7996   26.0327 C   0  0  0  0  0  0  0  0  0  0  0  0
    7.4465  -12.6647   25.6210 C   0  0  0  0  0  0  0  0  0  0  0  0
    7.7916  -13.7342   26.6116 C   0  0  2  0  0  0  0  0  0  0  0  0
    8.1697  -13.1586   27.9596 C   0  0  0  0  0  0  0  0  0  0  0  0
    8.8612  -14.6915   26.1745 C   0  0  2  0  0  0  0  0  0  0  0  0
    8.4353  -15.2515   24.8818 N   0  0  0  0  0  0  0  0  0  0  0  0
    8.9354  -15.7718   27.1972 C   0  0  0  0  0  0  0  0  0  0  0  0
    9.8829  -15.8512   28.1836 O   0  0  0  0  0  0  0  0  0  0  0  0
    8.0646  -16.6758   27.1499 O   0  0  0  0  0  0  0  0  0  0  0  0
  1  5  1  0
  1  2  1  0
  2  3  1  0
  3  4  1  0
  5  4  1  0
  6  7  2  0
  5  6  1  1
  9  8  1  6
  9 11  1  0
 10  9  1  0
 11 12  1  6
 12  6  1  0
 13 20  1  0
 13 11  1  0
 14 13  2  0
 15 16  1  0
 17 16  1  0
 17 19  1  0
 17 18  1  1
 19 20  1  6
 19 21  1  0
 21 22  1  0
 23 21  2  0
M  END
$$$$
