PVI.pdb
     RDKit          3D

 23 23  0  0  1  0  0  0  0  0999 V2000
   11.5090  -17.1289   19.2628 N   0  0  0  0  0  0  0  0  0  0  0  0
   12.8082  -17.6911   19.5014 C   0  0  0  0  0  0  0  0  0  0  0  0
   12.6873  -18.7589   20.5350 C   0  0  0  0  0  0  0  0  0  0  0  0
   11.2041  -19.0086   20.6697 C   0  0  0  0  0  0  0  0  0  0  0  0
   10.5992  -17.7268   20.2094 C   0  0  1  0  0  0  0  0  0  0  0  0
   10.3279  -16.7818   21.3600 C   0  0  0  0  0  0  0  0  0  0  0  0
   11.2409  -16.0863   21.8461 O   0  0  0  0  0  0  0  0  0  0  0  0
    7.1883  -14.4577   21.6312 C   0  0  0  0  0  0  0  0  0  0  0  0
    7.3497  -15.2180   22.9386 C   0  0  2  0  0  0  0  0  0  0  0  0
    6.9729  -14.2853   24.0388 C   0  0  0  0  0  0  0  0  0  0  0  0
    8.6653  -15.8733   22.9816 C   0  0  2  0  0  0  0  0  0  0  0  0
    9.0205  -16.7025   21.8728 N   0  0  0  0  0  0  0  0  0  0  0  0
    9.1005  -16.3911   24.3075 C   0  0  0  0  0  0  0  0  0  0  0  0
    9.2197  -17.6288   24.4981 O   0  0  0  0  0  0  0  0  0  0  0  0
   10.4864  -12.5173   28.0818 C   0  0  0  0  0  0  0  0  0  0  0  0
   10.6277  -13.7020   27.1546 C   0  0  0  0  0  0  0  0  0  0  0  0
    9.9426  -14.9420   27.6417 C   0  0  2  0  0  0  0  0  0  0  0  0
   10.5091  -15.4225   28.9606 C   0  0  0  0  0  0  0  0  0  0  0  0
    9.9268  -16.0880   26.6732 C   0  0  2  0  0  0  0  0  0  0  0  0
    9.3934  -15.5703   25.4029 N   0  0  0  0  0  0  0  0  0  0  0  0
    9.0100  -17.1237   27.2254 C   0  0  0  0  0  0  0  0  0  0  0  0
    7.6553  -17.1569   27.0237 O   0  0  0  0  0  0  0  0  0  0  0  0
    9.5181  -18.0327   27.9279 O   0  0  0  0  0  0  0  0  0  0  0  0
  1  5  1  0
  1  2  1  0
  2  3  1  0
  3  4  1  0
  5  4  1  0
  6  7  2  0
  5  6  1  1
  9  8  1  6
  9 11  1  0
 10  9  1  0
 11 12  1  6
 12  6  1  0
 13 20  1  0
 13 11  1  0
 14 13  2  0
 15 16  1  0
 17 16  1  0
 17 19  1  0
 17 18  1  1
 19 20  1  6
 19 21  1  0
 21 22  1  0
 23 21  2  0
M  END
$$$$
