PVI.pdb
     RDKit          3D

 23 23  0  0  1  0  0  0  0  0999 V2000
    8.9080  -14.9553   18.7711 N   0  0  0  0  0  0  0  0  0  0  0  0
    7.8199  -14.8161   17.8451 C   0  0  0  0  0  0  0  0  0  0  0  0
    7.1505  -13.5052   18.0836 C   0  0  0  0  0  0  0  0  0  0  0  0
    8.0889  -12.7446   18.9900 C   0  0  0  0  0  0  0  0  0  0  0  0
    8.8600  -13.8254   19.6669 C   0  0  1  0  0  0  0  0  0  0  0  0
    8.2424  -14.2193   20.9912 C   0  0  0  0  0  0  0  0  0  0  0  0
    7.8396  -13.3535   21.7923 O   0  0  0  0  0  0  0  0  0  0  0  0
    8.1831  -18.4400   22.6213 C   0  0  0  0  0  0  0  0  0  0  0  0
    7.0449  -17.4342   22.5426 C   0  0  2  0  0  0  0  0  0  0  0  0
    6.1523  -17.8668   21.4298 C   0  0  0  0  0  0  0  0  0  0  0  0
    7.5816  -16.0653   22.5323 C   0  0  2  0  0  0  0  0  0  0  0  0
    8.1310  -15.5864   21.3026 N   0  0  0  0  0  0  0  0  0  0  0  0
    8.3233  -15.6391   23.7503 C   0  0  0  0  0  0  0  0  0  0  0  0
    9.5805  -15.6775   23.7744 O   0  0  0  0  0  0  0  0  0  0  0  0
    6.0362  -11.6691   26.4384 C   0  0  0  0  0  0  0  0  0  0  0  0
    7.0809  -12.5656   25.8154 C   0  0  0  0  0  0  0  0  0  0  0  0
    7.5922  -13.6340   26.7325 C   0  0  2  0  0  0  0  0  0  0  0  0
    8.3387  -13.0566   27.9161 C   0  0  0  0  0  0  0  0  0  0  0  0
    8.4479  -14.6812   26.0823 C   0  0  2  0  0  0  0  0  0  0  0  0
    7.7005  -15.1859   24.9191 N   0  0  0  0  0  0  0  0  0  0  0  0
    8.6433  -15.7743   27.0748 C   0  0  0  0  0  0  0  0  0  0  0  0
    9.7301  -15.8965   27.8999 O   0  0  0  0  0  0  0  0  0  0  0  0
    7.7445  -16.6478   27.1599 O   0  0  0  0  0  0  0  0  0  0  0  0
  1  5  1  0
  1  2  1  0
  2  3  1  0
  3  4  1  0
  5  4  1  0
  6  7  2  0
  5  6  1  1
  9  8  1  6
  9 11  1  0
 10  9  1  0
 11 12  1  6
 12  6  1  0
 13 20  1  0
 13 11  1  0
 14 13  2  0
 15 16  1  0
 17 16  1  0
 17 19  1  0
 17 18  1  1
 19 20  1  6
 19 21  1  0
 21 22  1  0
 23 21  2  0
M  END
$$$$
