PVI.pdb
     RDKit          3D

 23 23  0  0  1  0  0  0  0  0999 V2000
    7.9627  -15.1017   18.2023 N   0  0  0  0  0  0  0  0  0  0  0  0
    7.4091  -13.8733   17.7068 C   0  0  0  0  0  0  0  0  0  0  0  0
    7.8294  -12.7598   18.6048 C   0  0  0  0  0  0  0  0  0  0  0  0
    8.9114  -13.3478   19.4790 C   0  0  0  0  0  0  0  0  0  0  0  0
    8.6123  -14.8076   19.4565 C   0  0  1  0  0  0  0  0  0  0  0  0
    7.7409  -15.2265   20.6208 C   0  0  0  0  0  0  0  0  0  0  0  0
    6.5632  -15.5923   20.4398 O   0  0  0  0  0  0  0  0  0  0  0  0
    6.2723  -17.3467   21.6242 C   0  0  0  0  0  0  0  0  0  0  0  0
    7.3718  -17.3674   22.6750 C   0  0  2  0  0  0  0  0  0  0  0  0
    6.9067  -18.2531   23.7803 C   0  0  0  0  0  0  0  0  0  0  0  0
    7.7912  -15.9944   22.9929 C   0  0  2  0  0  0  0  0  0  0  0  0
    8.2872  -15.1952   21.9166 N   0  0  0  0  0  0  0  0  0  0  0  0
    8.5054  -15.8061   24.2852 C   0  0  0  0  0  0  0  0  0  0  0  0
    9.6994  -16.1817   24.4117 O   0  0  0  0  0  0  0  0  0  0  0  0
    6.1009  -11.7551   26.8463 C   0  0  0  0  0  0  0  0  0  0  0  0
    7.1473  -12.6290   26.1947 C   0  0  0  0  0  0  0  0  0  0  0  0
    7.8285  -13.5711   27.1394 C   0  0  2  0  0  0  0  0  0  0  0  0
    8.6269  -12.8373   28.1956 C   0  0  0  0  0  0  0  0  0  0  0  0
    8.7080  -14.6014   26.4939 C   0  0  2  0  0  0  0  0  0  0  0  0
    7.9220  -15.2239   25.4165 N   0  0  0  0  0  0  0  0  0  0  0  0
    9.0400  -15.6158   27.5327 C   0  0  0  0  0  0  0  0  0  0  0  0
   10.1842  -15.6180   28.2862 O   0  0  0  0  0  0  0  0  0  0  0  0
    8.2087  -16.5364   27.7308 O   0  0  0  0  0  0  0  0  0  0  0  0
  1  5  1  0
  1  2  1  0
  2  3  1  0
  3  4  1  0
  5  4  1  0
  6  7  2  0
  5  6  1  1
  9  8  1  6
  9 11  1  0
 10  9  1  0
 11 12  1  6
 12  6  1  0
 13 20  1  0
 13 11  1  0
 14 13  2  0
 15 16  1  0
 17 16  1  0
 17 19  1  0
 17 18  1  1
 19 20  1  6
 19 21  1  0
 21 22  1  0
 23 21  2  0
M  END
$$$$
