PVI.pdb
     RDKit          3D

 23 23  0  0  1  0  0  0  0  0999 V2000
    8.6773  -14.8861   18.1872 N   0  0  0  0  0  0  0  0  0  0  0  0
    7.5626  -14.2905   17.5062 C   0  0  0  0  0  0  0  0  0  0  0  0
    7.2281  -12.9984   18.1706 C   0  0  0  0  0  0  0  0  0  0  0  0
    8.3956  -12.7134   19.0851 C   0  0  0  0  0  0  0  0  0  0  0  0
    8.9691  -14.0656   19.3374 C   0  0  1  0  0  0  0  0  0  0  0  0
    8.4111  -14.6928   20.5967 C   0  0  0  0  0  0  0  0  0  0  0  0
    7.2619  -14.4183   20.9935 O   0  0  0  0  0  0  0  0  0  0  0  0
   10.3500  -18.0773   22.8453 C   0  0  0  0  0  0  0  0  0  0  0  0
    8.9019  -17.6529   22.6549 C   0  0  2  0  0  0  0  0  0  0  0  0
    8.3400  -18.4883   21.5555 C   0  0  0  0  0  0  0  0  0  0  0  0
    8.8151  -16.1888   22.5507 C   0  0  2  0  0  0  0  0  0  0  0  0
    9.2171  -15.5952   21.3141 N   0  0  0  0  0  0  0  0  0  0  0  0
    9.2027  -15.4177   23.7634 C   0  0  0  0  0  0  0  0  0  0  0  0
   10.3054  -14.8137   23.8066 O   0  0  0  0  0  0  0  0  0  0  0  0
    5.8367  -12.1213   25.9674 C   0  0  0  0  0  0  0  0  0  0  0  0
    7.0918  -12.8412   25.5317 C   0  0  0  0  0  0  0  0  0  0  0  0
    7.6526  -13.7682   26.5662 C   0  0  2  0  0  0  0  0  0  0  0  0
    8.0256  -13.0391   27.8393 C   0  0  0  0  0  0  0  0  0  0  0  0
    8.8224  -14.5950   26.1192 C   0  0  2  0  0  0  0  0  0  0  0  0
    8.4016  -15.3154   24.9067 N   0  0  0  0  0  0  0  0  0  0  0  0
    9.1231  -15.5649   27.2087 C   0  0  0  0  0  0  0  0  0  0  0  0
   10.0252  -15.3527   28.2177 O   0  0  0  0  0  0  0  0  0  0  0  0
    8.5032  -16.6573   27.1999 O   0  0  0  0  0  0  0  0  0  0  0  0
  1  5  1  0
  1  2  1  0
  2  3  1  0
  3  4  1  0
  5  4  1  0
  6  7  2  0
  5  6  1  1
  9  8  1  6
  9 11  1  0
 10  9  1  0
 11 12  1  6
 12  6  1  0
 13 20  1  0
 13 11  1  0
 14 13  2  0
 15 16  1  0
 17 16  1  0
 17 19  1  0
 17 18  1  1
 19 20  1  6
 19 21  1  0
 21 22  1  0
 23 21  2  0
M  END
$$$$
