PVI.pdb
     RDKit          3D

 23 23  0  0  1  0  0  0  0  0999 V2000
    9.1364  -19.0056   19.3365 N   0  0  0  0  0  0  0  0  0  0  0  0
    9.9080  -19.9695   20.0690 C   0  0  0  0  0  0  0  0  0  0  0  0
    9.4038  -20.0237   21.4711 C   0  0  0  0  0  0  0  0  0  0  0  0
    8.0966  -19.2679   21.4475 C   0  0  0  0  0  0  0  0  0  0  0  0
    8.2471  -18.3628   20.2731 C   0  0  1  0  0  0  0  0  0  0  0  0
    8.7803  -17.0029   20.6693 C   0  0  0  0  0  0  0  0  0  0  0  0
   10.0035  -16.7643   20.6494 O   0  0  0  0  0  0  0  0  0  0  0  0
    7.1045  -13.7169   19.5113 C   0  0  0  0  0  0  0  0  0  0  0  0
    7.4116  -13.5757   20.9942 C   0  0  2  0  0  0  0  0  0  0  0  0
    7.8794  -12.1776   21.2150 C   0  0  0  0  0  0  0  0  0  0  0  0
    8.2620  -14.6889   21.4412 C   0  0  2  0  0  0  0  0  0  0  0  0
    7.8658  -16.0090   21.0620 N   0  0  0  0  0  0  0  0  0  0  0  0
    8.8207  -14.5802   22.8165 C   0  0  0  0  0  0  0  0  0  0  0  0
   10.0429  -14.3369   22.9882 O   0  0  0  0  0  0  0  0  0  0  0  0
    6.7655  -11.4707   27.3881 C   0  0  0  0  0  0  0  0  0  0  0  0
    7.7061  -12.6104   27.0724 C   0  0  0  0  0  0  0  0  0  0  0  0
    7.4202  -13.2935   25.7702 C   0  0  2  0  0  0  0  0  0  0  0  0
    6.0928  -14.0209   25.7904 C   0  0  0  0  0  0  0  0  0  0  0  0
    8.4847  -14.2380   25.2946 C   0  0  2  0  0  0  0  0  0  0  0  0
    8.0574  -14.7405   23.9789 N   0  0  0  0  0  0  0  0  0  0  0  0
    8.5509  -15.3608   26.2710 C   0  0  0  0  0  0  0  0  0  0  0  0
    8.0705  -16.6237   26.0443 O   0  0  0  0  0  0  0  0  0  0  0  0
    9.0866  -15.1308   27.3836 O   0  0  0  0  0  0  0  0  0  0  0  0
  1  5  1  0
  1  2  1  0
  2  3  1  0
  3  4  1  0
  5  4  1  0
  6  7  2  0
  5  6  1  1
  9  8  1  6
  9 11  1  0
 10  9  1  0
 11 12  1  1
 12  6  1  0
 13 20  1  0
 13 11  1  0
 14 13  2  0
 15 16  1  0
 17 16  1  0
 17 19  1  0
 17 18  1  1
 19 20  1  6
 19 21  1  0
 21 22  1  0
 23 21  2  0
M  END
$$$$
