PVI.pdb
     RDKit          3D

 23 23  0  0  1  0  0  0  0  0999 V2000
    7.1643  -19.7590   21.6319 N   0  0  0  0  0  0  0  0  0  0  0  0
    7.2609  -20.5055   22.8542 C   0  0  0  0  0  0  0  0  0  0  0  0
    6.4838  -19.7983   23.9121 C   0  0  0  0  0  0  0  0  0  0  0  0
    5.6711  -18.7608   23.1746 C   0  0  0  0  0  0  0  0  0  0  0  0
    6.4543  -18.5381   21.9264 C   0  0  1  0  0  0  0  0  0  0  0  0
    7.4177  -17.3786   22.0602 C   0  0  0  0  0  0  0  0  0  0  0  0
    8.6341  -17.5754   22.2480 O   0  0  0  0  0  0  0  0  0  0  0  0
    6.8619  -14.2033   19.7247 C   0  0  0  0  0  0  0  0  0  0  0  0
    7.2471  -13.7635   21.1288 C   0  0  2  0  0  0  0  0  0  0  0  0
    8.1105  -12.5563   20.9899 C   0  0  0  0  0  0  0  0  0  0  0  0
    7.7495  -14.9123   21.8969 C   0  0  2  0  0  0  0  0  0  0  0  0
    6.9127  -16.0690   21.9682 N   0  0  0  0  0  0  0  0  0  0  0  0
    8.4778  -14.5955   23.1558 C   0  0  0  0  0  0  0  0  0  0  0  0
    9.6844  -14.2414   23.1196 O   0  0  0  0  0  0  0  0  0  0  0  0
    5.9512  -11.6256   26.5401 C   0  0  0  0  0  0  0  0  0  0  0  0
    7.0808  -12.2857   25.7843 C   0  0  0  0  0  0  0  0  0  0  0  0
    7.6688  -13.4735   26.4825 C   0  0  2  0  0  0  0  0  0  0  0  0
    8.3540  -13.0895   27.7765 C   0  0  0  0  0  0  0  0  0  0  0  0
    8.6135  -14.2984   25.6586 C   0  0  2  0  0  0  0  0  0  0  0  0
    7.8979  -14.6707   24.4276 N   0  0  0  0  0  0  0  0  0  0  0  0
    8.9399  -15.5195   26.4464 C   0  0  0  0  0  0  0  0  0  0  0  0
   10.0532  -15.6699   27.2307 O   0  0  0  0  0  0  0  0  0  0  0  0
    8.1342  -16.4812   26.3857 O   0  0  0  0  0  0  0  0  0  0  0  0
  1  5  1  0
  1  2  1  0
  2  3  1  0
  3  4  1  0
  5  4  1  0
  6  7  2  0
  5  6  1  1
  9  8  1  6
  9 11  1  0
 10  9  1  0
 11 12  1  1
 12  6  1  0
 13 20  1  0
 13 11  1  0
 14 13  2  0
 15 16  1  0
 17 16  1  0
 17 19  1  0
 17 18  1  1
 19 20  1  6
 19 21  1  0
 21 22  1  0
 23 21  2  0
M  END
$$$$
