WFH.pdb
     RDKit          3D

 36 39  0  0  1  0  0  0  0  0999 V2000
    9.5051  -17.6444   20.3291 N   0  0  0  0  0  0  0  0  0  0  0  0
    8.7521  -17.7844   21.5258 C   0  0  1  0  0  0  0  0  0  0  0  0
    8.9632  -19.0370   22.3031 C   0  0  0  0  0  0  0  0  0  0  0  0
    8.2413  -20.1498   21.6475 C   0  0  0  0  0  0  0  0  0  0  0  0
    8.7861  -21.0954   20.7935 C   0  0  0  0  0  0  0  0  0  0  0  0
    7.8466  -21.9685   20.4092 N   0  0  0  0  0  0  0  0  0  0  0  0
    6.6946  -21.5977   21.0064 C   0  0  0  0  0  0  0  0  0  0  0  0
    5.4435  -22.1423   20.9460 C   0  0  0  0  0  0  0  0  0  0  0  0
    4.3849  -21.5961   21.6388 C   0  0  0  0  0  0  0  0  0  0  0  0
    4.6046  -20.4832   22.4006 C   0  0  0  0  0  0  0  0  0  0  0  0
    5.8736  -19.9162   22.4731 C   0  0  0  0  0  0  0  0  0  0  0  0
    6.9163  -20.4694   21.7805 C   0  0  0  0  0  0  0  0  0  0  0  0
    8.9393  -16.5579   22.3757 C   0  0  0  0  0  0  0  0  0  0  0  0
   10.0314  -15.9152   22.3109 O   0  0  0  0  0  0  0  0  0  0  0  0
    7.9599  -16.0716   23.2537 N   0  0  0  0  0  0  0  0  0  0  0  0
    8.2503  -14.9294   24.1660 C   0  0  1  0  0  0  0  0  0  0  0  0
    6.9623  -14.1978   24.2691 C   0  0  0  0  0  0  0  0  0  0  0  0
    6.8417  -13.1626   25.2845 C   0  0  0  0  0  0  0  0  0  0  0  0
    7.5107  -11.9671   25.1963 C   0  0  0  0  0  0  0  0  0  0  0  0
    7.3921  -10.9807   26.1723 C   0  0  0  0  0  0  0  0  0  0  0  0
    6.5805  -11.1976   27.2675 C   0  0  0  0  0  0  0  0  0  0  0  0
    5.9100  -12.3990   27.3532 C   0  0  0  0  0  0  0  0  0  0  0  0
    6.0239  -13.3814   26.3879 C   0  0  0  0  0  0  0  0  0  0  0  0
    8.6769  -15.5168   25.4429 C   0  0  0  0  0  0  0  0  0  0  0  0
    7.8031  -15.8755   26.3082 O   0  0  0  0  0  0  0  0  0  0  0  0
   10.0378  -15.7482   25.8394 N   0  0  0  0  0  0  0  0  0  0  0  0
   10.4101  -16.9418   26.5445 C   0  0  1  0  0  0  0  0  0  0  0  0
   10.0099  -18.1693   25.7955 C   0  0  0  0  0  0  0  0  0  0  0  0
   10.2299  -19.4513   26.4655 C   0  0  0  0  0  0  0  0  0  0  0  0
   10.7417  -19.7433   27.6997 C   0  0  0  0  0  0  0  0  0  0  0  0
   10.7148  -21.0982   27.8997 N   0  0  0  0  0  0  0  0  0  0  0  0
   10.1913  -21.6090   26.7959 C   0  0  0  0  0  0  0  0  0  0  0  0
    9.8899  -20.6556   25.9183 N   0  0  0  0  0  0  0  0  0  0  0  0
   11.8269  -17.0177   26.9437 C   0  0  0  0  0  0  0  0  0  0  0  0
   12.9026  -16.4841   26.3004 O   0  0  0  0  0  0  0  0  0  0  0  0
   12.0717  -17.6615   28.0216 O   0  0  0  0  0  0  0  0  0  0  0  0
  2  1  1  6
  3  2  1  0
  4  3  1  0
  4  5  2  0
  6  5  1  0
  7 12  2  0
  7  6  1  0
  8  7  1  0
  9  8  2  0
 10  9  1  0
 10 11  2  0
 11 12  1  0
 12  4  1  0
 13  2  1  0
 14 13  2  0
 15 13  1  0
 16 24  1  0
 16 15  1  0
 16 17  1  1
 18 17  1  0
 19 18  2  0
 20 19  1  0
 21 22  1  0
 21 20  2  0
 22 23  2  0
 23 18  1  0
 24 25  2  0
 26 27  1  0
 26 24  1  0
 27 28  1  6
 28 29  1  0
 29 30  2  0
 30 31  1  0
 32 31  1  0
 33 29  1  0
 33 32  2  0
 34 35  1  0
 34 27  1  0
 36 34  2  0
M  END
$$$$
