WFH.pdb
     RDKit          3D

 36 39  0  0  1  0  0  0  0  0999 V2000
    7.2504  -15.6757   22.2855 N   0  0  0  0  0  0  0  0  0  0  0  0
    8.6128  -15.9764   22.5542 C   0  0  1  0  0  0  0  0  0  0  0  0
    9.6261  -15.2968   21.7003 C   0  0  0  0  0  0  0  0  0  0  0  0
    9.0899  -15.1421   20.3299 C   0  0  0  0  0  0  0  0  0  0  0  0
    9.0555  -16.1153   19.3441 C   0  0  0  0  0  0  0  0  0  0  0  0
    8.4768  -15.6331   18.2371 N   0  0  0  0  0  0  0  0  0  0  0  0
    8.1350  -14.3534   18.4954 C   0  0  0  0  0  0  0  0  0  0  0  0
    7.5265  -13.4170   17.7090 C   0  0  0  0  0  0  0  0  0  0  0  0
    7.2703  -12.1441   18.1703 C   0  0  0  0  0  0  0  0  0  0  0  0
    7.6384  -11.8230   19.4465 C   0  0  0  0  0  0  0  0  0  0  0  0
    8.2592  -12.7657   20.2608 C   0  0  0  0  0  0  0  0  0  0  0  0
    8.5070  -14.0267   19.7901 C   0  0  0  0  0  0  0  0  0  0  0  0
    8.8859  -15.7731   24.0191 C   0  0  0  0  0  0  0  0  0  0  0  0
    8.8438  -14.6015   24.5044 O   0  0  0  0  0  0  0  0  0  0  0  0
    9.1904  -16.8216   24.8992 N   0  0  0  0  0  0  0  0  0  0  0  0
    9.2961  -16.5816   26.3664 C   0  0  1  0  0  0  0  0  0  0  0  0
    7.9348  -16.1489   26.7724 C   0  0  0  0  0  0  0  0  0  0  0  0
    7.5915  -14.7424   26.6275 C   0  0  0  0  0  0  0  0  0  0  0  0
    6.3862  -14.3305   26.1155 C   0  0  0  0  0  0  0  0  0  0  0  0
    6.0639  -12.9825   25.9782 C   0  0  0  0  0  0  0  0  0  0  0  0
    6.9746  -12.0199   26.3647 C   0  0  0  0  0  0  0  0  0  0  0  0
    8.1839  -12.4366   26.8784 C   0  0  0  0  0  0  0  0  0  0  0  0
    8.5091  -13.7726   27.0169 C   0  0  0  0  0  0  0  0  0  0  0  0
    9.6913  -17.8617   26.9685 C   0  0  0  0  0  0  0  0  0  0  0  0
    9.6542  -18.0116   28.2401 O   0  0  0  0  0  0  0  0  0  0  0  0
   10.1306  -19.0218   26.2445 N   0  0  0  0  0  0  0  0  0  0  0  0
   11.4791  -19.4999   26.3612 C   0  0  1  0  0  0  0  0  0  0  0  0
   12.3163  -19.0691   25.2031 C   0  0  0  0  0  0  0  0  0  0  0  0
   11.8247  -19.4158   23.8693 C   0  0  0  0  0  0  0  0  0  0  0  0
   10.7029  -20.0904   23.4730 C   0  0  0  0  0  0  0  0  0  0  0  0
   10.6524  -20.1347   22.1048 N   0  0  0  0  0  0  0  0  0  0  0  0
   11.7331  -19.4921   21.6893 C   0  0  0  0  0  0  0  0  0  0  0  0
   12.4559  -19.0494   22.7148 N   0  0  0  0  0  0  0  0  0  0  0  0
   12.1501  -19.1782   27.6334 C   0  0  0  0  0  0  0  0  0  0  0  0
   12.4943  -17.9474   28.1049 O   0  0  0  0  0  0  0  0  0  0  0  0
   12.4426  -20.1747   28.3803 O   0  0  0  0  0  0  0  0  0  0  0  0
  2  1  1  6
  3  2  1  0
  4  3  1  0
  4  5  2  0
  6  5  1  0
  7 12  2  0
  7  6  1  0
  8  7  1  0
  9  8  2  0
 10  9  1  0
 10 11  2  0
 11 12  1  0
 12  4  1  0
 13  2  1  0
 14 13  2  0
 15 13  1  0
 16 24  1  0
 16 15  1  0
 16 17  1  1
 18 17  1  0
 19 18  2  0
 20 19  1  0
 21 22  1  0
 21 20  2  0
 22 23  2  0
 23 18  1  0
 24 25  2  0
 26 27  1  0
 26 24  1  0
 27 28  1  6
 28 29  1  0
 29 30  2  0
 30 31  1  0
 32 31  1  0
 33 29  1  0
 33 32  2  0
 34 35  1  0
 34 27  1  0
 36 34  2  0
M  END
$$$$
