WFH.pdb
     RDKit          3D

 36 39  0  0  1  0  0  0  0  0999 V2000
    9.9017  -16.7675   19.7977 N   0  0  0  0  0  0  0  0  0  0  0  0
    9.8023  -17.2700   21.1229 C   0  0  1  0  0  0  0  0  0  0  0  0
   10.7725  -18.3324   21.5072 C   0  0  0  0  0  0  0  0  0  0  0  0
   10.4802  -19.5649   20.7425 C   0  0  0  0  0  0  0  0  0  0  0  0
   11.1214  -19.9911   19.5904 C   0  0  0  0  0  0  0  0  0  0  0  0
   10.6154  -21.1626   19.1849 N   0  0  0  0  0  0  0  0  0  0  0  0
    9.6495  -21.5013   20.0644 C   0  0  0  0  0  0  0  0  0  0  0  0
    8.8255  -22.5897   20.1083 C   0  0  0  0  0  0  0  0  0  0  0  0
    7.8862  -22.7434   21.1048 C   0  0  0  0  0  0  0  0  0  0  0  0
    7.7863  -21.7774   22.0660 C   0  0  0  0  0  0  0  0  0  0  0  0
    8.6186  -20.6623   22.0357 C   0  0  0  0  0  0  0  0  0  0  0  0
    9.5477  -20.5225   21.0407 C   0  0  0  0  0  0  0  0  0  0  0  0
    9.8164  -16.1197   22.0916 C   0  0  0  0  0  0  0  0  0  0  0  0
   10.8591  -15.4041   22.1946 O   0  0  0  0  0  0  0  0  0  0  0  0
    8.7245  -15.7833   22.9048 N   0  0  0  0  0  0  0  0  0  0  0  0
    8.8679  -14.7856   24.0028 C   0  0  1  0  0  0  0  0  0  0  0  0
    7.4970  -14.2507   24.2016 C   0  0  0  0  0  0  0  0  0  0  0  0
    7.2644  -13.3654   25.3328 C   0  0  0  0  0  0  0  0  0  0  0  0
    6.3652  -13.6650   26.3258 C   0  0  0  0  0  0  0  0  0  0  0  0
    6.1463  -12.8129   27.4055 C   0  0  0  0  0  0  0  0  0  0  0  0
    6.8477  -11.6273   27.4930 C   0  0  0  0  0  0  0  0  0  0  0  0
    7.7499  -11.3293   26.4943 C   0  0  0  0  0  0  0  0  0  0  0  0
    7.9713  -12.1709   25.4207 C   0  0  0  0  0  0  0  0  0  0  0  0
    9.3677  -15.5231   25.1705 C   0  0  0  0  0  0  0  0  0  0  0  0
    8.7114  -16.5242   25.6266 O   0  0  0  0  0  0  0  0  0  0  0  0
   10.5780  -15.2286   25.8855 N   0  0  0  0  0  0  0  0  0  0  0  0
   11.0043  -16.0454   26.9863 C   0  0  1  0  0  0  0  0  0  0  0  0
   12.4842  -16.2398   26.9847 C   0  0  0  0  0  0  0  0  0  0  0  0
   13.0913  -16.6682   25.7242 C   0  0  0  0  0  0  0  0  0  0  0  0
   12.5917  -17.4200   24.6967 C   0  0  0  0  0  0  0  0  0  0  0  0
   13.5302  -17.5236   23.7043 N   0  0  0  0  0  0  0  0  0  0  0  0
   14.5789  -16.8396   24.1355 C   0  0  0  0  0  0  0  0  0  0  0  0
   14.3526  -16.3153   25.3371 N   0  0  0  0  0  0  0  0  0  0  0  0
   10.5420  -15.6000   28.3131 C   0  0  0  0  0  0  0  0  0  0  0  0
    9.7624  -14.5214   28.6039 O   0  0  0  0  0  0  0  0  0  0  0  0
   10.9193  -16.3123   29.3062 O   0  0  0  0  0  0  0  0  0  0  0  0
  2  1  1  6
  3  2  1  0
  4  3  1  0
  4  5  2  0
  6  5  1  0
  7 12  2  0
  7  6  1  0
  8  7  1  0
  9  8  2  0
 10  9  1  0
 10 11  2  0
 11 12  1  0
 12  4  1  0
 13  2  1  0
 14 13  2  0
 15 13  1  0
 16 24  1  0
 16 15  1  0
 16 17  1  1
 18 17  1  0
 19 18  2  0
 20 19  1  0
 21 22  1  0
 21 20  2  0
 22 23  2  0
 23 18  1  0
 24 25  2  0
 26 27  1  0
 26 24  1  0
 27 28  1  1
 28 29  1  0
 29 30  2  0
 30 31  1  0
 32 31  1  0
 33 29  1  0
 33 32  2  0
 34 35  1  0
 34 27  1  0
 36 34  2  0
M  END
$$$$
