WFH.pdb
     RDKit          3D

 36 39  0  0  1  0  0  0  0  0999 V2000
    8.5216  -16.3249   20.3517 N   0  0  0  0  0  0  0  0  0  0  0  0
    8.6708  -15.0237   20.9021 C   0  0  1  0  0  0  0  0  0  0  0  0
    8.2368  -13.8845   20.0467 C   0  0  0  0  0  0  0  0  0  0  0  0
    9.1022  -13.8117   18.8488 C   0  0  0  0  0  0  0  0  0  0  0  0
    8.6948  -13.5330   17.5540 C   0  0  0  0  0  0  0  0  0  0  0  0
    9.7490  -13.5234   16.7286 N   0  0  0  0  0  0  0  0  0  0  0  0
   10.8390  -13.7943   17.4767 C   0  0  0  0  0  0  0  0  0  0  0  0
   12.1546  -13.9072   17.1274 C   0  0  0  0  0  0  0  0  0  0  0  0
   13.1256  -14.2018   18.0596 C   0  0  0  0  0  0  0  0  0  0  0  0
   12.7511  -14.3832   19.3612 C   0  0  0  0  0  0  0  0  0  0  0  0
   11.4147  -14.2714   19.7336 C   0  0  0  0  0  0  0  0  0  0  0  0
   10.4606  -13.9775   18.7976 C   0  0  0  0  0  0  0  0  0  0  0  0
    8.0268  -14.9830   22.2605 C   0  0  0  0  0  0  0  0  0  0  0  0
    7.2632  -14.0149   22.5597 O   0  0  0  0  0  0  0  0  0  0  0  0
    8.2230  -15.9707   23.2366 N   0  0  0  0  0  0  0  0  0  0  0  0
    8.8616  -15.6393   24.5418 C   0  0  1  0  0  0  0  0  0  0  0  0
    7.7260  -15.5090   25.4898 C   0  0  0  0  0  0  0  0  0  0  0  0
    7.2568  -14.1711   25.8170 C   0  0  0  0  0  0  0  0  0  0  0  0
    7.7813  -13.0460   25.2307 C   0  0  0  0  0  0  0  0  0  0  0  0
    7.3286  -11.7679   25.5490 C   0  0  0  0  0  0  0  0  0  0  0  0
    6.3222  -11.6122   26.4808 C   0  0  0  0  0  0  0  0  0  0  0  0
    5.7977  -12.7438   27.0677 C   0  0  0  0  0  0  0  0  0  0  0  0
    6.2428  -14.0144   26.7559 C   0  0  0  0  0  0  0  0  0  0  0  0
    9.7498  -16.7631   24.8661 C   0  0  0  0  0  0  0  0  0  0  0  0
    9.6427  -17.8702   24.2305 O   0  0  0  0  0  0  0  0  0  0  0  0
   10.7807  -16.7478   25.8661 N   0  0  0  0  0  0  0  0  0  0  0  0
   10.7608  -17.6731   26.9634 C   0  0  1  0  0  0  0  0  0  0  0  0
    9.9434  -17.1581   28.1010 C   0  0  0  0  0  0  0  0  0  0  0  0
   10.3194  -15.8528   28.6450 C   0  0  0  0  0  0  0  0  0  0  0  0
   11.0205  -15.5171   29.7703 C   0  0  0  0  0  0  0  0  0  0  0  0
   11.1534  -14.1555   29.8400 N   0  0  0  0  0  0  0  0  0  0  0  0
   10.5384  -13.6840   28.7663 C   0  0  0  0  0  0  0  0  0  0  0  0
   10.0290  -14.6683   28.0302 N   0  0  0  0  0  0  0  0  0  0  0  0
   10.3577  -19.0478   26.6166 C   0  0  0  0  0  0  0  0  0  0  0  0
    9.8103  -19.4849   25.4483 O   0  0  0  0  0  0  0  0  0  0  0  0
   10.5450  -19.9319   27.5218 O   0  0  0  0  0  0  0  0  0  0  0  0
  2  1  1  6
  3  2  1  0
  4  3  1  0
  4  5  2  0
  6  5  1  0
  7 12  2  0
  7  6  1  0
  8  7  1  0
  9  8  2  0
 10  9  1  0
 10 11  2  0
 11 12  1  0
 12  4  1  0
 13  2  1  0
 14 13  2  0
 15 13  1  0
 16 24  1  0
 16 15  1  0
 16 17  1  1
 18 17  1  0
 19 18  2  0
 20 19  1  0
 21 22  1  0
 21 20  2  0
 22 23  2  0
 23 18  1  0
 24 25  2  0
 26 27  1  0
 26 24  1  0
 27 28  1  1
 28 29  1  0
 29 30  2  0
 30 31  1  0
 32 31  1  0
 33 29  1  0
 33 32  2  0
 34 35  1  0
 34 27  1  0
 36 34  2  0
M  END
$$$$
