FVY.pdb
     RDKit          3D

 31 32  0  0  1  0  0  0  0  0999 V2000
    5.5647  -17.5317   25.8206 N   0  0  0  0  0  0  0  0  0  0  0  0
    6.0153  -16.2537   25.3594 C   0  0  1  0  0  0  0  0  0  0  0  0
    6.5869  -15.5313   26.5870 C   0  0  0  0  0  0  0  0  0  0  0  0
    6.3027  -14.0831   26.5031 C   0  0  0  0  0  0  0  0  0  0  0  0
    7.3095  -13.1633   26.4419 C   0  0  0  0  0  0  0  0  0  0  0  0
    7.0636  -11.8218   26.3637 C   0  0  0  0  0  0  0  0  0  0  0  0
    5.7608  -11.3932   26.3464 C   0  0  0  0  0  0  0  0  0  0  0  0
    4.7214  -12.2844   26.4061 C   0  0  0  0  0  0  0  0  0  0  0  0
    4.9994  -13.6297   26.4841 C   0  0  0  0  0  0  0  0  0  0  0  0
    7.1758  -16.3981   24.4219 C   0  0  0  0  0  0  0  0  0  0  0  0
    7.9469  -17.3631   24.4844 O   0  0  0  0  0  0  0  0  0  0  0  0
    6.8735  -14.6090   20.6661 C   0  0  0  0  0  0  0  0  0  0  0  0
    8.2569  -14.4848   21.3013 C   0  0  2  0  0  0  0  0  0  0  0  0
    9.3615  -14.5679   20.2882 C   0  0  0  0  0  0  0  0  0  0  0  0
    8.4344  -15.4817   22.4247 C   0  0  2  0  0  0  0  0  0  0  0  0
    7.4091  -15.4015   23.4219 N   0  0  0  0  0  0  0  0  0  0  0  0
    9.7870  -15.3862   23.0193 C   0  0  0  0  0  0  0  0  0  0  0  0
   10.0188  -14.4254   23.7879 O   0  0  0  0  0  0  0  0  0  0  0  0
   11.1767  -14.2256   29.3267 O   0  0  0  0  0  0  0  0  0  0  0  0
   11.3164  -15.0542   28.2195 C   0  0  0  0  0  0  0  0  0  0  0  0
   11.1849  -16.4194   28.2932 C   0  0  0  0  0  0  0  0  0  0  0  0
   11.3362  -17.1961   27.1529 C   0  0  0  0  0  0  0  0  0  0  0  0
   11.6183  -16.6436   25.9245 C   0  0  0  0  0  0  0  0  0  0  0  0
   11.7988  -17.4337   24.6930 C   0  0  0  0  0  0  0  0  0  0  0  0
   11.9985  -16.5198   23.5398 C   0  0  2  0  0  0  0  0  0  0  0  0
   10.8003  -16.3350   22.7435 N   0  0  0  0  0  0  0  0  0  0  0  0
   13.1221  -16.8526   22.6509 C   0  0  0  0  0  0  0  0  0  0  0  0
   12.9010  -17.5585   21.6150 O   0  0  0  0  0  0  0  0  0  0  0  0
   11.7502  -15.2771   25.8493 C   0  0  0  0  0  0  0  0  0  0  0  0
   11.6024  -14.4815   26.9810 C   0  0  0  0  0  0  0  0  0  0  0  0
   14.4414  -16.4655   22.8271 O   0  0  0  0  0  0  0  0  0  0  0  0
  2  1  1  1
  2 10  1  0
  2  3  1  0
  3  4  1  0
  4  9  1  0
  4  5  2  0
  5  6  1  0
  6  7  2  0
  8  7  1  0
  9  8  2  0
 10 11  2  0
 13 15  1  0
 13 14  1  6
 13 12  1  0
 15 16  1  1
 16 10  1  0
 17 26  1  0
 17 15  1  0
 18 17  2  0
 20 30  2  0
 20 19  1  0
 21 20  1  0
 22 23  1  0
 22 21  2  0
 23 29  2  0
 24 23  1  0
 25 26  1  0
 25 24  1  1
 27 25  1  0
 28 27  2  0
 29 30  1  0
 31 27  1  0
M  END
$$$$
