FVY.pdb
     RDKit          3D

 31 32  0  0  1  0  0  0  0  0999 V2000
    5.7185  -18.1138   25.7762 N   0  0  0  0  0  0  0  0  0  0  0  0
    6.1983  -16.7996   25.4735 C   0  0  1  0  0  0  0  0  0  0  0  0
    6.9594  -16.3231   26.7182 C   0  0  0  0  0  0  0  0  0  0  0  0
    7.0760  -14.8496   26.7100 C   0  0  0  0  0  0  0  0  0  0  0  0
    5.9973  -14.0496   26.9554 C   0  0  0  0  0  0  0  0  0  0  0  0
    6.0885  -12.6866   26.9519 C   0  0  0  0  0  0  0  0  0  0  0  0
    7.3061  -12.1108   26.6928 C   0  0  0  0  0  0  0  0  0  0  0  0
    8.4132  -12.8786   26.4416 C   0  0  0  0  0  0  0  0  0  0  0  0
    8.2914  -14.2490   26.4520 C   0  0  0  0  0  0  0  0  0  0  0  0
    7.2270  -16.8396   24.3842 C   0  0  0  0  0  0  0  0  0  0  0  0
    7.9656  -17.8183   24.2219 O   0  0  0  0  0  0  0  0  0  0  0  0
    6.5026  -15.1313   20.7646 C   0  0  0  0  0  0  0  0  0  0  0  0
    7.8777  -14.7403   21.3022 C   0  0  2  0  0  0  0  0  0  0  0  0
    8.9101  -14.6425   20.2168 C   0  0  0  0  0  0  0  0  0  0  0  0
    8.3096  -15.6611   22.4215 C   0  0  2  0  0  0  0  0  0  0  0  0
    7.3687  -15.7235   23.5000 N   0  0  0  0  0  0  0  0  0  0  0  0
    9.6702  -15.3252   22.8992 C   0  0  0  0  0  0  0  0  0  0  0  0
   10.0495  -14.1372   22.7887 O   0  0  0  0  0  0  0  0  0  0  0  0
    9.9332  -16.4478   29.9057 O   0  0  0  0  0  0  0  0  0  0  0  0
   10.3928  -16.0254   28.6638 C   0  0  0  0  0  0  0  0  0  0  0  0
    9.7470  -15.0683   27.9199 C   0  0  0  0  0  0  0  0  0  0  0  0
   10.2533  -14.6870   26.6851 C   0  0  0  0  0  0  0  0  0  0  0  0
   11.4006  -15.2397   26.1635 C   0  0  0  0  0  0  0  0  0  0  0  0
   11.9638  -14.8719   24.8517 C   0  0  0  0  0  0  0  0  0  0  0  0
   11.8798  -16.0333   23.9303 C   0  0  2  0  0  0  0  0  0  0  0  0
   10.5315  -16.2958   23.4641 N   0  0  0  0  0  0  0  0  0  0  0  0
   12.4707  -17.2849   24.4277 C   0  0  0  0  0  0  0  0  0  0  0  0
   11.7360  -18.3204   24.5188 O   0  0  0  0  0  0  0  0  0  0  0  0
   12.0481  -16.1979   26.9071 C   0  0  0  0  0  0  0  0  0  0  0  0
   11.5562  -16.5936   28.1469 C   0  0  0  0  0  0  0  0  0  0  0  0
   13.7879  -17.4630   24.8210 O   0  0  0  0  0  0  0  0  0  0  0  0
  2  1  1  1
  2 10  1  0
  2  3  1  0
  3  4  1  0
  4  9  1  0
  4  5  2  0
  5  6  1  0
  6  7  2  0
  8  7  1  0
  9  8  2  0
 10 11  2  0
 13 15  1  0
 13 14  1  6
 13 12  1  0
 15 16  1  1
 16 10  1  0
 17 26  1  0
 17 15  1  0
 18 17  2  0
 20 30  2  0
 20 19  1  0
 21 20  1  0
 22 23  1  0
 22 21  2  0
 23 29  2  0
 24 23  1  0
 25 26  1  0
 25 24  1  1
 27 25  1  0
 28 27  2  0
 29 30  1  0
 31 27  1  0
M  END
$$$$
