FVY.pdb
     RDKit          3D

 31 32  0  0  1  0  0  0  0  0999 V2000
    5.3649  -19.1412   20.0916 N   0  0  0  0  0  0  0  0  0  0  0  0
    5.2343  -17.8957   20.7850 C   0  0  1  0  0  0  0  0  0  0  0  0
    4.8676  -18.2471   22.2334 C   0  0  0  0  0  0  0  0  0  0  0  0
    3.5489  -18.9134   22.2769 C   0  0  0  0  0  0  0  0  0  0  0  0
    2.4344  -18.3188   21.7592 C   0  0  0  0  0  0  0  0  0  0  0  0
    1.2088  -18.9213   21.7912 C   0  0  0  0  0  0  0  0  0  0  0  0
    1.1027  -20.1634   22.3631 C   0  0  0  0  0  0  0  0  0  0  0  0
    2.1974  -20.7943   22.8941 C   0  0  0  0  0  0  0  0  0  0  0  0
    3.4191  -20.1633   22.8474 C   0  0  0  0  0  0  0  0  0  0  0  0
    6.5541  -17.1920   20.8812 C   0  0  0  0  0  0  0  0  0  0  0  0
    7.6200  -17.8149   20.9565 O   0  0  0  0  0  0  0  0  0  0  0  0
    7.4292  -13.7237   18.9552 C   0  0  0  0  0  0  0  0  0  0  0  0
    7.7311  -13.6215   20.4489 C   0  0  2  0  0  0  0  0  0  0  0  0
    8.9635  -12.8117   20.7297 C   0  0  0  0  0  0  0  0  0  0  0  0
    7.7870  -14.9899   21.0905 C   0  0  2  0  0  0  0  0  0  0  0  0
    6.5976  -15.7617   20.8856 N   0  0  0  0  0  0  0  0  0  0  0  0
    8.1403  -14.8968   22.5253 C   0  0  0  0  0  0  0  0  0  0  0  0
    7.3871  -14.2274   23.2683 O   0  0  0  0  0  0  0  0  0  0  0  0
   10.1573  -14.7722   30.7075 O   0  0  0  0  0  0  0  0  0  0  0  0
    9.7606  -15.0768   29.4106 C   0  0  0  0  0  0  0  0  0  0  0  0
    9.7028  -16.3641   28.9354 C   0  0  0  0  0  0  0  0  0  0  0  0
    9.2995  -16.6071   27.6297 C   0  0  0  0  0  0  0  0  0  0  0  0
    8.9470  -15.5899   26.7726 C   0  0  0  0  0  0  0  0  0  0  0  0
    8.5257  -15.8045   25.3763 C   0  0  0  0  0  0  0  0  0  0  0  0
    9.6601  -15.5138   24.4634 C   0  0  2  0  0  0  0  0  0  0  0  0
    9.2849  -15.5328   23.0624 N   0  0  0  0  0  0  0  0  0  0  0  0
   10.8591  -16.3443   24.6532 C   0  0  0  0  0  0  0  0  0  0  0  0
   10.9386  -17.4606   24.0466 O   0  0  0  0  0  0  0  0  0  0  0  0
    9.0043  -14.3007   27.2470 C   0  0  0  0  0  0  0  0  0  0  0  0
    9.4063  -14.0367   28.5524 C   0  0  0  0  0  0  0  0  0  0  0  0
   11.9493  -16.0297   25.4494 O   0  0  0  0  0  0  0  0  0  0  0  0
  2  1  1  6
  2 10  1  0
  2  3  1  0
  3  4  1  0
  4  9  1  0
  4  5  2  0
  5  6  1  0
  6  7  2  0
  8  7  1  0
  9  8  2  0
 10 11  2  0
 13 15  1  0
 13 14  1  6
 13 12  1  0
 15 16  1  1
 16 10  1  0
 17 26  1  0
 17 15  1  0
 18 17  2  0
 20 30  2  0
 20 19  1  0
 21 20  1  0
 22 23  1  0
 22 21  2  0
 23 29  2  0
 24 23  1  0
 25 26  1  0
 25 24  1  1
 27 25  1  0
 28 27  2  0
 29 30  1  0
 31 27  1  0
M  END
$$$$
