FVY.pdb
     RDKit          3D

 31 32  0  0  1  0  0  0  0  0999 V2000
    6.9900  -17.1631   26.4616 N   0  0  0  0  0  0  0  0  0  0  0  0
    6.4184  -17.0221   25.1568 C   0  0  1  0  0  0  0  0  0  0  0  0
    5.6545  -15.6909   25.1643 C   0  0  0  0  0  0  0  0  0  0  0  0
    6.5014  -14.6216   25.7336 C   0  0  0  0  0  0  0  0  0  0  0  0
    7.2601  -13.8147   24.9355 C   0  0  0  0  0  0  0  0  0  0  0  0
    8.0476  -12.8220   25.4459 C   0  0  0  0  0  0  0  0  0  0  0  0
    8.0713  -12.6361   26.8045 C   0  0  0  0  0  0  0  0  0  0  0  0
    7.3244  -13.4247   27.6402 C   0  0  0  0  0  0  0  0  0  0  0  0
    6.5403  -14.4166   27.0978 C   0  0  0  0  0  0  0  0  0  0  0  0
    7.4846  -16.8490   24.1178 C   0  0  0  0  0  0  0  0  0  0  0  0
    8.3695  -17.6959   23.9457 O   0  0  0  0  0  0  0  0  0  0  0  0
    6.6080  -14.6028   20.6614 C   0  0  0  0  0  0  0  0  0  0  0  0
    7.9714  -14.3296   21.2933 C   0  0  2  0  0  0  0  0  0  0  0  0
    9.0208  -14.0022   20.2711 C   0  0  0  0  0  0  0  0  0  0  0  0
    8.3908  -15.4643   22.2010 C   0  0  2  0  0  0  0  0  0  0  0  0
    7.4907  -15.6786   23.2946 N   0  0  0  0  0  0  0  0  0  0  0  0
    9.7866  -15.2940   22.6645 C   0  0  0  0  0  0  0  0  0  0  0  0
   10.3505  -14.2019   22.4258 O   0  0  0  0  0  0  0  0  0  0  0  0
    9.7010  -15.7527   29.8409 O   0  0  0  0  0  0  0  0  0  0  0  0
   10.2962  -15.6141   28.5925 C   0  0  0  0  0  0  0  0  0  0  0  0
   11.2077  -16.5162   28.1008 C   0  0  0  0  0  0  0  0  0  0  0  0
   11.7699  -16.3247   26.8463 C   0  0  0  0  0  0  0  0  0  0  0  0
   11.4449  -15.2454   26.0570 C   0  0  0  0  0  0  0  0  0  0  0  0
   12.0281  -14.9991   24.7256 C   0  0  0  0  0  0  0  0  0  0  0  0
   11.8330  -16.1951   23.8674 C   0  0  2  0  0  0  0  0  0  0  0  0
   10.4815  -16.3157   23.3547 N   0  0  0  0  0  0  0  0  0  0  0  0
   12.2402  -17.4778   24.4608 C   0  0  0  0  0  0  0  0  0  0  0  0
   13.4484  -17.6302   24.8314 O   0  0  0  0  0  0  0  0  0  0  0  0
   10.5325  -14.3415   26.5479 C   0  0  0  0  0  0  0  0  0  0  0  0
    9.9582  -14.5159   27.8030 C   0  0  0  0  0  0  0  0  0  0  0  0
   11.4199  -18.5761   24.6669 O   0  0  0  0  0  0  0  0  0  0  0  0
  2  1  1  1
  2 10  1  0
  2  3  1  0
  3  4  1  0
  4  9  1  0
  4  5  2  0
  5  6  1  0
  6  7  2  0
  8  7  1  0
  9  8  2  0
 10 11  2  0
 13 15  1  0
 13 14  1  6
 13 12  1  0
 15 16  1  1
 16 10  1  0
 17 26  1  0
 17 15  1  0
 18 17  2  0
 20 30  2  0
 20 19  1  0
 21 20  1  0
 22 23  1  0
 22 21  2  0
 23 29  2  0
 24 23  1  0
 25 26  1  0
 25 24  1  1
 27 25  1  0
 28 27  2  0
 29 30  1  0
 31 27  1  0
M  END
$$$$
