FVY.pdb
     RDKit          3D

 31 32  0  0  1  0  0  0  0  0999 V2000
    5.7194  -18.0363   24.3529 N   0  0  0  0  0  0  0  0  0  0  0  0
    6.1790  -16.6808   24.3334 C   0  0  1  0  0  0  0  0  0  0  0  0
    6.7213  -16.3910   25.7396 C   0  0  0  0  0  0  0  0  0  0  0  0
    6.6753  -14.9391   26.0133 C   0  0  0  0  0  0  0  0  0  0  0  0
    5.5023  -14.2428   25.9618 C   0  0  0  0  0  0  0  0  0  0  0  0
    5.4428  -12.9011   26.2124 C   0  0  0  0  0  0  0  0  0  0  0  0
    6.6029  -12.2398   26.5253 C   0  0  0  0  0  0  0  0  0  0  0  0
    7.8010  -12.9024   26.5873 C   0  0  0  0  0  0  0  0  0  0  0  0
    7.8303  -14.2537   26.3303 C   0  0  0  0  0  0  0  0  0  0  0  0
    7.3609  -16.5262   23.4247 C   0  0  0  0  0  0  0  0  0  0  0  0
    8.0622  -17.4914   23.0989 O   0  0  0  0  0  0  0  0  0  0  0  0
    6.6585  -13.8522   20.4270 C   0  0  0  0  0  0  0  0  0  0  0  0
    8.0763  -13.7494   20.9857 C   0  0  2  0  0  0  0  0  0  0  0  0
    9.0798  -13.3726   19.9347 C   0  0  0  0  0  0  0  0  0  0  0  0
    8.4663  -15.0106   21.7235 C   0  0  2  0  0  0  0  0  0  0  0  0
    7.6980  -15.2335   22.9119 N   0  0  0  0  0  0  0  0  0  0  0  0
    9.9212  -15.0458   21.9960 C   0  0  0  0  0  0  0  0  0  0  0  0
   10.6162  -14.0944   21.5726 O   0  0  0  0  0  0  0  0  0  0  0  0
   11.8638  -15.5069   30.3264 O   0  0  0  0  0  0  0  0  0  0  0  0
   11.3859  -15.5136   29.0212 C   0  0  0  0  0  0  0  0  0  0  0  0
   10.7431  -16.5959   28.4719 C   0  0  0  0  0  0  0  0  0  0  0  0
   10.2880  -16.5445   27.1617 C   0  0  0  0  0  0  0  0  0  0  0  0
   10.4574  -15.4300   26.3726 C   0  0  0  0  0  0  0  0  0  0  0  0
   10.0005  -15.3397   24.9738 C   0  0  0  0  0  0  0  0  0  0  0  0
   10.9700  -16.0320   24.0875 C   0  0  2  0  0  0  0  0  0  0  0  0
   10.5291  -16.1075   22.7077 N   0  0  0  0  0  0  0  0  0  0  0  0
   11.3971  -17.3676   24.5313 C   0  0  0  0  0  0  0  0  0  0  0  0
   12.2415  -17.4619   25.4792 O   0  0  0  0  0  0  0  0  0  0  0  0
   11.1007  -14.3457   26.9211 C   0  0  0  0  0  0  0  0  0  0  0  0
   11.5643  -14.3780   28.2324 C   0  0  0  0  0  0  0  0  0  0  0  0
   10.9627  -18.5761   24.0096 O   0  0  0  0  0  0  0  0  0  0  0  0
  2  1  1  1
  2 10  1  0
  2  3  1  0
  3  4  1  0
  4  9  1  0
  4  5  2  0
  5  6  1  0
  6  7  2  0
  8  7  1  0
  9  8  2  0
 10 11  2  0
 13 15  1  0
 13 14  1  6
 13 12  1  0
 15 16  1  1
 16 10  1  0
 17 26  1  0
 17 15  1  0
 18 17  2  0
 20 30  2  0
 20 19  1  0
 21 20  1  0
 22 23  1  0
 22 21  2  0
 23 29  2  0
 24 23  1  0
 25 26  1  0
 25 24  1  1
 27 25  1  0
 28 27  2  0
 29 30  1  0
 31 27  1  0
M  END
$$$$
