FVY.pdb
     RDKit          3D

 31 32  0  0  1  0  0  0  0  0999 V2000
    5.7875  -17.8119   25.7745 N   0  0  0  0  0  0  0  0  0  0  0  0
    6.3142  -16.5498   25.3520 C   0  0  1  0  0  0  0  0  0  0  0  0
    7.2080  -16.0527   26.4964 C   0  0  0  0  0  0  0  0  0  0  0  0
    7.0640  -14.5903   26.6559 C   0  0  0  0  0  0  0  0  0  0  0  0
    5.8917  -14.0332   27.0788 C   0  0  0  0  0  0  0  0  0  0  0  0
    5.7425  -12.6839   27.2316 C   0  0  0  0  0  0  0  0  0  0  0  0
    6.8094  -11.8695   26.9493 C   0  0  0  0  0  0  0  0  0  0  0  0
    8.0034  -12.3892   26.5223 C   0  0  0  0  0  0  0  0  0  0  0  0
    8.1244  -13.7521   26.3777 C   0  0  0  0  0  0  0  0  0  0  0  0
    7.2392  -16.7160   24.1844 C   0  0  0  0  0  0  0  0  0  0  0  0
    7.7414  -17.8105   23.9024 O   0  0  0  0  0  0  0  0  0  0  0  0
    6.6494  -14.7491   20.7360 C   0  0  0  0  0  0  0  0  0  0  0  0
    8.1083  -14.6210   21.1692 C   0  0  2  0  0  0  0  0  0  0  0  0
    9.0580  -14.6851   20.0084 C   0  0  0  0  0  0  0  0  0  0  0  0
    8.4501  -15.6281   22.2445 C   0  0  2  0  0  0  0  0  0  0  0  0
    7.5577  -15.5874   23.3645 N   0  0  0  0  0  0  0  0  0  0  0  0
    9.8644  -15.5062   22.6652 C   0  0  0  0  0  0  0  0  0  0  0  0
   10.4584  -14.4346   22.4076 O   0  0  0  0  0  0  0  0  0  0  0  0
    9.8025  -15.8145   29.7022 O   0  0  0  0  0  0  0  0  0  0  0  0
   10.3599  -15.6332   28.4419 C   0  0  0  0  0  0  0  0  0  0  0  0
    9.9468  -14.6440   27.5832 C   0  0  0  0  0  0  0  0  0  0  0  0
   10.5408  -14.5119   26.3358 C   0  0  0  0  0  0  0  0  0  0  0  0
   11.5486  -15.3487   25.9140 C   0  0  0  0  0  0  0  0  0  0  0  0
   12.1964  -15.2499   24.5934 C   0  0  0  0  0  0  0  0  0  0  0  0
   11.9138  -16.4773   23.8070 C   0  0  2  0  0  0  0  0  0  0  0  0
   10.5439  -16.5509   23.3361 N   0  0  0  0  0  0  0  0  0  0  0  0
   12.2689  -17.7470   24.4589 C   0  0  0  0  0  0  0  0  0  0  0  0
   11.3572  -18.6116   24.6633 O   0  0  0  0  0  0  0  0  0  0  0  0
   11.9631  -16.3393   26.7726 C   0  0  0  0  0  0  0  0  0  0  0  0
   11.3801  -16.4880   28.0269 C   0  0  0  0  0  0  0  0  0  0  0  0
   13.5343  -18.1151   24.8888 O   0  0  0  0  0  0  0  0  0  0  0  0
  2  1  1  1
  2 10  1  0
  2  3  1  0
  3  4  1  0
  4  9  1  0
  4  5  2  0
  5  6  1  0
  6  7  2  0
  8  7  1  0
  9  8  2  0
 10 11  2  0
 13 15  1  0
 13 14  1  6
 13 12  1  0
 15 16  1  1
 16 10  1  0
 17 26  1  0
 17 15  1  0
 18 17  2  0
 20 30  2  0
 20 19  1  0
 21 20  1  0
 22 23  1  0
 22 21  2  0
 23 29  2  0
 24 23  1  0
 25 26  1  0
 25 24  1  1
 27 25  1  0
 28 27  2  0
 29 30  1  0
 31 27  1  0
M  END
$$$$
