ITI.pdb
     RDKit          3D

 24 23  0  0  1  0  0  0  0  0999 V2000
    5.9380  -10.6891   26.1472 C   0  0  0  0  0  0  0  0  0  0  0  0
    5.4923  -12.0235   25.6334 C   0  0  0  0  0  0  0  0  0  0  0  0
    6.6424  -13.0121   25.5317 C   0  0  2  0  0  0  0  0  0  0  0  0
    7.7655  -12.4322   24.7243 C   0  0  0  0  0  0  0  0  0  0  0  0
    6.1184  -14.3248   24.9878 C   0  0  2  0  0  0  0  0  0  0  0  0
    5.0943  -14.7704   25.9539 N   0  0  0  0  0  0  0  0  0  0  0  0
    7.1297  -15.3968   24.9447 C   0  0  0  0  0  0  0  0  0  0  0  0
    7.4599  -16.0379   25.9962 O   0  0  0  0  0  0  0  0  0  0  0  0
   10.2312  -18.2727   22.2706 C   0  0  0  0  0  0  0  0  0  0  0  0
    9.2284  -17.1557   22.3089 C   0  0  1  0  0  0  0  0  0  0  0  0
    8.0589  -17.6237   21.6962 O   0  0  0  0  0  0  0  0  0  0  0  0
    8.8255  -16.8144   23.7485 C   0  0  2  0  0  0  0  0  0  0  0  0
    7.7927  -15.7844   23.7441 N   0  0  0  0  0  0  0  0  0  0  0  0
   10.0253  -16.2800   24.4390 C   0  0  0  0  0  0  0  0  0  0  0  0
   10.7476  -15.3819   23.9357 O   0  0  0  0  0  0  0  0  0  0  0  0
    9.9571  -15.1121   29.8310 C   0  0  0  0  0  0  0  0  0  0  0  0
   10.3316  -16.0530   28.7189 C   0  0  0  0  0  0  0  0  0  0  0  0
   11.0413  -15.3570   27.6303 C   0  0  2  0  0  0  0  0  0  0  0  0
   10.1799  -14.2140   27.0837 C   0  0  0  0  0  0  0  0  0  0  0  0
   11.5401  -16.1469   26.4809 C   0  0  2  0  0  0  0  0  0  0  0  0
   10.4344  -16.7523   25.7180 N   0  0  0  0  0  0  0  0  0  0  0  0
   12.5206  -17.1931   26.7441 C   0  0  0  0  0  0  0  0  0  0  0  0
   12.2316  -18.5281   26.5264 O   0  0  0  0  0  0  0  0  0  0  0  0
   13.6595  -16.9020   27.1797 O   0  0  0  0  0  0  0  0  0  0  0  0
  2  3  1  0
  2  1  1  0
  3  4  1  6
  5  3  1  0
  5  6  1  1
  7  5  1  0
  7  8  2  0
 10  9  1  1
 10 12  1  0
 10 11  1  0
 12 13  1  6
 13  7  1  0
 14 12  1  0
 15 14  2  0
 17 16  1  0
 18 17  1  0
 18 20  1  0
 18 19  1  6
 20 22  1  0
 20 21  1  1
 21 14  1  0
 22 23  1  0
 24 22  2  0
M  END
$$$$
