ITI.pdb
     RDKit          3D

 24 23  0  0  1  0  0  0  0  0999 V2000
    7.6184  -12.0357   18.2430 C   0  0  0  0  0  0  0  0  0  0  0  0
    8.1799  -13.3965   18.5192 C   0  0  0  0  0  0  0  0  0  0  0  0
    7.6933  -13.9593   19.8447 C   0  0  2  0  0  0  0  0  0  0  0  0
    8.0751  -13.0500   20.9748 C   0  0  0  0  0  0  0  0  0  0  0  0
    8.2126  -15.3732   20.0011 C   0  0  2  0  0  0  0  0  0  0  0  0
    7.5548  -16.1544   18.9346 N   0  0  0  0  0  0  0  0  0  0  0  0
    7.8237  -16.0126   21.2715 C   0  0  0  0  0  0  0  0  0  0  0  0
    6.6008  -16.2427   21.5495 O   0  0  0  0  0  0  0  0  0  0  0  0
    7.9484  -19.1944   22.9485 C   0  0  0  0  0  0  0  0  0  0  0  0
    8.7202  -18.2735   23.8491 C   0  0  1  0  0  0  0  0  0  0  0  0
   10.0721  -18.3843   23.4995 O   0  0  0  0  0  0  0  0  0  0  0  0
    8.3531  -16.8062   23.5965 C   0  0  2  0  0  0  0  0  0  0  0  0
    8.7731  -16.4129   22.2563 N   0  0  0  0  0  0  0  0  0  0  0  0
    9.0883  -15.9797   24.5857 C   0  0  0  0  0  0  0  0  0  0  0  0
   10.2333  -15.5135   24.3551 O   0  0  0  0  0  0  0  0  0  0  0  0
    6.7098  -11.9851   26.8246 C   0  0  0  0  0  0  0  0  0  0  0  0
    7.8484  -12.7978   26.2719 C   0  0  0  0  0  0  0  0  0  0  0  0
    8.4322  -13.6855   27.2938 C   0  0  2  0  0  0  0  0  0  0  0  0
    9.2571  -12.8694   28.2942 C   0  0  0  0  0  0  0  0  0  0  0  0
    9.2511  -14.8396   26.8561 C   0  0  2  0  0  0  0  0  0  0  0  0
    8.5413  -15.6622   25.8609 N   0  0  0  0  0  0  0  0  0  0  0  0
    9.7718  -15.7364   27.8808 C   0  0  0  0  0  0  0  0  0  0  0  0
   10.9800  -15.4944   28.5092 O   0  0  0  0  0  0  0  0  0  0  0  0
    9.1291  -16.7587   28.2171 O   0  0  0  0  0  0  0  0  0  0  0  0
  2  3  1  0
  2  1  1  0
  3  4  1  1
  5  3  1  0
  5  6  1  6
  7  5  1  0
  7  8  2  0
 10  9  1  6
 10 12  1  0
 10 11  1  0
 12 13  1  6
 13  7  1  0
 14 12  1  0
 15 14  2  0
 17 16  1  0
 18 17  1  0
 18 20  1  0
 18 19  1  1
 20 22  1  0
 20 21  1  6
 21 14  1  0
 22 23  1  0
 24 22  2  0
M  END
$$$$
