ITI.pdb
     RDKit          3D

 24 23  0  0  1  0  0  0  0  0999 V2000
    5.6693  -11.0327   26.3026 C   0  0  0  0  0  0  0  0  0  0  0  0
    5.4011  -12.2925   25.5381 C   0  0  0  0  0  0  0  0  0  0  0  0
    6.6107  -13.2123   25.5060 C   0  0  2  0  0  0  0  0  0  0  0  0
    7.8125  -12.4839   24.9818 C   0  0  0  0  0  0  0  0  0  0  0  0
    6.2633  -14.4573   24.7169 C   0  0  2  0  0  0  0  0  0  0  0  0
    5.0502  -15.0037   25.3575 N   0  0  0  0  0  0  0  0  0  0  0  0
    7.2818  -15.5199   24.8034 C   0  0  0  0  0  0  0  0  0  0  0  0
    7.3945  -16.2453   25.8459 O   0  0  0  0  0  0  0  0  0  0  0  0
    8.8791  -17.3800   21.4225 C   0  0  0  0  0  0  0  0  0  0  0  0
    9.8727  -17.0912   22.5107 C   0  0  1  0  0  0  0  0  0  0  0  0
   10.4827  -15.8680   22.2049 O   0  0  0  0  0  0  0  0  0  0  0  0
    9.1775  -16.8736   23.8600 C   0  0  2  0  0  0  0  0  0  0  0  0
    8.1915  -15.8051   23.7440 N   0  0  0  0  0  0  0  0  0  0  0  0
   10.2121  -16.4600   24.8401 C   0  0  0  0  0  0  0  0  0  0  0  0
   11.0335  -15.5378   24.6030 O   0  0  0  0  0  0  0  0  0  0  0  0
    9.9533  -13.5603   28.7905 C   0  0  0  0  0  0  0  0  0  0  0  0
   10.4790  -14.3908   27.6519 C   0  0  0  0  0  0  0  0  0  0  0  0
   10.8552  -15.7462   28.0927 C   0  0  2  0  0  0  0  0  0  0  0  0
   11.8636  -15.6670   29.2434 C   0  0  0  0  0  0  0  0  0  0  0  0
   11.3747  -16.7062   27.0916 C   0  0  2  0  0  0  0  0  0  0  0  0
   10.3394  -17.0835   26.1134 N   0  0  0  0  0  0  0  0  0  0  0  0
   11.9922  -17.9342   27.5777 C   0  0  0  0  0  0  0  0  0  0  0  0
   11.2544  -19.0877   27.7732 O   0  0  0  0  0  0  0  0  0  0  0  0
   13.2188  -17.9709   27.8331 O   0  0  0  0  0  0  0  0  0  0  0  0
  2  3  1  0
  2  1  1  0
  3  4  1  6
  5  3  1  0
  5  6  1  1
  7  5  1  0
  7  8  2  0
 10  9  1  6
 10 12  1  0
 10 11  1  0
 12 13  1  6
 13  7  1  0
 14 12  1  0
 15 14  2  0
 17 16  1  0
 18 17  1  0
 18 20  1  0
 18 19  1  1
 20 22  1  0
 20 21  1  6
 21 14  1  0
 22 23  1  0
 24 22  2  0
M  END
$$$$
