ITI.pdb
     RDKit          3D

 24 23  0  0  1  0  0  0  0  0999 V2000
    5.3825  -11.3155   25.4354 C   0  0  0  0  0  0  0  0  0  0  0  0
    5.2578  -12.6904   24.8545 C   0  0  0  0  0  0  0  0  0  0  0  0
    6.5626  -13.4662   24.9323 C   0  0  2  0  0  0  0  0  0  0  0  0
    7.6378  -12.7676   24.1540 C   0  0  0  0  0  0  0  0  0  0  0  0
    6.3169  -14.8916   24.4836 C   0  0  2  0  0  0  0  0  0  0  0  0
    5.2321  -15.3953   25.3496 N   0  0  0  0  0  0  0  0  0  0  0  0
    7.4640  -15.7910   24.7051 C   0  0  0  0  0  0  0  0  0  0  0  0
    7.5602  -16.4921   25.7657 O   0  0  0  0  0  0  0  0  0  0  0  0
    9.5332  -17.3549   21.4704 C   0  0  0  0  0  0  0  0  0  0  0  0
   10.3985  -17.0668   22.6634 C   0  0  1  0  0  0  0  0  0  0  0  0
   10.9703  -15.8031   22.4687 O   0  0  0  0  0  0  0  0  0  0  0  0
    9.5636  -16.9433   23.9436 C   0  0  2  0  0  0  0  0  0  0  0  0
    8.5232  -15.9372   23.7627 N   0  0  0  0  0  0  0  0  0  0  0  0
   10.4688  -16.4992   25.0324 C   0  0  0  0  0  0  0  0  0  0  0  0
   11.3748  -15.6466   24.8489 O   0  0  0  0  0  0  0  0  0  0  0  0
    9.4966  -13.5768   29.0051 C   0  0  0  0  0  0  0  0  0  0  0  0
   10.2465  -14.3359   27.9450 C   0  0  0  0  0  0  0  0  0  0  0  0
   10.6102  -15.6909   28.3975 C   0  0  2  0  0  0  0  0  0  0  0  0
   11.4717  -15.6124   29.6620 C   0  0  0  0  0  0  0  0  0  0  0  0
   11.2750  -16.6095   27.4447 C   0  0  2  0  0  0  0  0  0  0  0  0
   10.3673  -17.0124   26.3563 N   0  0  0  0  0  0  0  0  0  0  0  0
   11.8909  -17.8189   27.9773 C   0  0  0  0  0  0  0  0  0  0  0  0
   11.2516  -19.0440   27.9174 O   0  0  0  0  0  0  0  0  0  0  0  0
   13.0255  -17.7736   28.5082 O   0  0  0  0  0  0  0  0  0  0  0  0
  2  3  1  0
  2  1  1  0
  3  4  1  6
  5  3  1  0
  5  6  1  1
  7  5  1  0
  7  8  2  0
 10  9  1  6
 10 12  1  0
 10 11  1  0
 12 13  1  6
 13  7  1  0
 14 12  1  0
 15 14  2  0
 17 16  1  0
 18 17  1  0
 18 20  1  0
 18 19  1  1
 20 22  1  0
 20 21  1  6
 21 14  1  0
 22 23  1  0
 24 22  2  0
M  END
$$$$
