ITI.pdb
     RDKit          3D

 24 23  0  0  1  0  0  0  0  0999 V2000
    8.1038  -12.0392   17.9106 C   0  0  0  0  0  0  0  0  0  0  0  0
    8.4254  -13.4735   18.1986 C   0  0  0  0  0  0  0  0  0  0  0  0
    7.8113  -13.9474   19.5058 C   0  0  2  0  0  0  0  0  0  0  0  0
    8.2654  -13.0834   20.6447 C   0  0  0  0  0  0  0  0  0  0  0  0
    8.1264  -15.4166   19.6951 C   0  0  2  0  0  0  0  0  0  0  0  0
    7.4068  -16.1162   18.6119 N   0  0  0  0  0  0  0  0  0  0  0  0
    7.6081  -15.9784   20.9559 C   0  0  0  0  0  0  0  0  0  0  0  0
    6.3555  -16.1008   21.1603 O   0  0  0  0  0  0  0  0  0  0  0  0
    7.3350  -19.0620   22.7292 C   0  0  0  0  0  0  0  0  0  0  0  0
    8.1166  -18.1899   23.6691 C   0  0  1  0  0  0  0  0  0  0  0  0
    9.4750  -18.4509   23.4483 O   0  0  0  0  0  0  0  0  0  0  0  0
    7.9288  -16.7039   23.3406 C   0  0  2  0  0  0  0  0  0  0  0  0
    8.4582  -16.4184   22.0118 N   0  0  0  0  0  0  0  0  0  0  0  0
    8.6998  -15.9197   24.3369 C   0  0  0  0  0  0  0  0  0  0  0  0
    9.8178  -15.4086   24.0721 O   0  0  0  0  0  0  0  0  0  0  0  0
    6.1606  -12.0793   26.8372 C   0  0  0  0  0  0  0  0  0  0  0  0
    7.1862  -12.9417   26.1539 C   0  0  0  0  0  0  0  0  0  0  0  0
    7.9447  -13.7574   27.1195 C   0  0  2  0  0  0  0  0  0  0  0  0
    8.7141  -12.8521   28.0869 C   0  0  0  0  0  0  0  0  0  0  0  0
    8.8810  -14.7852   26.6088 C   0  0  2  0  0  0  0  0  0  0  0  0
    8.2202  -15.6969   25.6585 N   0  0  0  0  0  0  0  0  0  0  0  0
    9.5961  -15.6026   27.5813 C   0  0  0  0  0  0  0  0  0  0  0  0
   10.7651  -15.1639   28.1764 O   0  0  0  0  0  0  0  0  0  0  0  0
    9.1626  -16.7344   27.9017 O   0  0  0  0  0  0  0  0  0  0  0  0
  2  3  1  0
  2  1  1  0
  3  4  1  1
  5  3  1  0
  5  6  1  6
  7  5  1  0
  7  8  2  0
 10  9  1  6
 10 12  1  0
 10 11  1  0
 12 13  1  6
 13  7  1  0
 14 12  1  0
 15 14  2  0
 17 16  1  0
 18 17  1  0
 18 20  1  0
 18 19  1  6
 20 22  1  0
 20 21  1  6
 21 14  1  0
 22 23  1  0
 24 22  2  0
M  END
$$$$
