ITI.pdb
     RDKit          3D

 24 23  0  0  1  0  0  0  0  0999 V2000
    7.8029  -12.0279   17.4275 C   0  0  0  0  0  0  0  0  0  0  0  0
    8.4198  -13.3625   17.7134 C   0  0  0  0  0  0  0  0  0  0  0  0
    7.9440  -13.9428   19.0352 C   0  0  2  0  0  0  0  0  0  0  0  0
    8.2609  -13.0085   20.1650 C   0  0  0  0  0  0  0  0  0  0  0  0
    8.5346  -15.3266   19.2079 C   0  0  2  0  0  0  0  0  0  0  0  0
    8.0022  -16.1246   18.0853 N   0  0  0  0  0  0  0  0  0  0  0  0
    8.0952  -16.0116   20.4373 C   0  0  0  0  0  0  0  0  0  0  0  0
    6.8889  -16.3973   20.5850 O   0  0  0  0  0  0  0  0  0  0  0  0
    8.6583  -19.1521   22.2125 C   0  0  0  0  0  0  0  0  0  0  0  0
    9.0742  -18.0856   23.1844 C   0  0  1  0  0  0  0  0  0  0  0  0
   10.4591  -17.9204   23.0552 O   0  0  0  0  0  0  0  0  0  0  0  0
    8.4660  -16.7265   22.8180 C   0  0  2  0  0  0  0  0  0  0  0  0
    8.9755  -16.2872   21.5238 N   0  0  0  0  0  0  0  0  0  0  0  0
    8.8889  -15.7488   23.8510 C   0  0  0  0  0  0  0  0  0  0  0  0
    9.9269  -15.0490   23.7308 O   0  0  0  0  0  0  0  0  0  0  0  0
    6.7686  -11.2381   26.9274 C   0  0  0  0  0  0  0  0  0  0  0  0
    7.7812  -12.3386   27.0882 C   0  0  0  0  0  0  0  0  0  0  0  0
    7.5313  -13.4515   26.1544 C   0  0  2  0  0  0  0  0  0  0  0  0
    6.1579  -14.0730   26.4281 C   0  0  0  0  0  0  0  0  0  0  0  0
    8.5227  -14.5484   26.0660 C   0  0  2  0  0  0  0  0  0  0  0  0
    8.1436  -15.5416   25.0459 N   0  0  0  0  0  0  0  0  0  0  0  0
    8.8520  -15.2727   27.2876 C   0  0  0  0  0  0  0  0  0  0  0  0
    8.5729  -16.6201   27.4283 O   0  0  0  0  0  0  0  0  0  0  0  0
    9.4001  -14.6828   28.2484 O   0  0  0  0  0  0  0  0  0  0  0  0
  2  3  1  0
  2  1  1  0
  3  4  1  1
  5  3  1  0
  5  6  1  6
  7  5  1  0
  7  8  2  0
 10  9  1  6
 10 12  1  0
 10 11  1  0
 12 13  1  6
 13  7  1  0
 14 12  1  0
 15 14  2  0
 17 16  1  0
 18 17  1  0
 18 20  1  0
 18 19  1  1
 20 22  1  0
 20 21  1  6
 21 14  1  0
 22 23  1  0
 24 22  2  0
M  END
$$$$
