YEM.pdb
     RDKit          3D

 30 30  0  0  1  0  0  0  0  0999 V2000
   31.1862  -26.7784  -18.3969 O   0  0  0  0  0  0  0  0  0  0  0  0
   30.6713  -25.7042  -17.6721 C   0  0  0  0  0  0  0  0  0  0  0  0
   29.5963  -25.9019  -16.8210 C   0  0  0  0  0  0  0  0  0  0  0  0
   29.0617  -24.8509  -16.0858 C   0  0  0  0  0  0  0  0  0  0  0  0
   29.5901  -23.5788  -16.1853 C   0  0  0  0  0  0  0  0  0  0  0  0
   29.0312  -22.4446  -15.4084 C   0  0  0  0  0  0  0  0  0  0  0  0
   27.5940  -22.2005  -15.8593 C   0  0  2  0  0  0  0  0  0  0  0  0
   27.6989  -21.4787  -17.1270 N   0  0  0  0  0  0  0  0  0  0  0  0
   26.9094  -21.3233  -14.8885 C   0  0  0  0  0  0  0  0  0  0  0  0
   27.2561  -20.1421  -14.7345 O   0  0  0  0  0  0  0  0  0  0  0  0
   30.6560  -23.3834  -17.0294 C   0  0  0  0  0  0  0  0  0  0  0  0
   31.1868  -24.4259  -17.7591 C   0  0  0  0  0  0  0  0  0  0  0  0
   25.8198  -21.7764  -14.0779 N   0  0  0  0  0  0  0  0  0  0  0  0
   25.1878  -20.9512  -13.0659 C   0  0  1  0  0  0  0  0  0  0  0  0
   23.7620  -20.6619  -13.3394 C   0  0  0  0  0  0  0  0  0  0  0  0
   23.4989  -20.1016  -14.7043 C   0  0  0  0  0  0  0  0  0  0  0  0
   23.3697  -18.6528  -14.7566 C   0  0  0  0  0  0  0  0  0  0  0  0
   24.3879  -17.9283  -14.8380 O   0  0  0  0  0  0  0  0  0  0  0  0
   25.4544  -21.4968  -11.6953 C   0  0  0  0  0  0  0  0  0  0  0  0
   25.3670  -22.7214  -11.4445 O   0  0  0  0  0  0  0  0  0  0  0  0
   22.1337  -18.0468  -14.7164 O   0  0  0  0  0  0  0  0  0  0  0  0
   27.8592  -19.1477   -4.4662 C   0  0  0  0  0  0  0  0  0  0  0  0
   27.6602  -18.8160   -6.2214 S   0  0  0  0  0  0  0  0  0  0  0  0
   26.7522  -20.1411   -7.0554 C   0  0  0  0  0  0  0  0  0  0  0  0
   26.6837  -19.8653   -8.5451 C   0  0  0  0  0  0  0  0  0  0  0  0
   25.8843  -20.9594   -9.2521 C   0  0  2  0  0  0  0  0  0  0  0  0
   25.8174  -20.6148  -10.6429 N   0  0  0  0  0  0  0  0  0  0  0  0
   24.5497  -21.0691   -8.6217 C   0  0  0  0  0  0  0  0  0  0  0  0
   23.5607  -20.4717   -9.1076 O   0  0  0  0  0  0  0  0  0  0  0  0
   24.3559  -21.8309   -7.4826 O   0  0  0  0  0  0  0  0  0  0  0  0
  2  3  2  0
  2  1  1  0
  4  3  1  0
  5  4  2  0
  6  5  1  0
  7  9  1  0
  7  6  1  0
  7  8  1  6
  9 10  2  0
 11  5  1  0
 11 12  2  0
 12  2  1  0
 13 14  1  0
 13  9  1  0
 14 15  1  6
 15 16  1  0
 16 17  1  0
 17 21  1  0
 18 17  2  0
 19 20  2  0
 19 14  1  0
 22 23  1  0
 23 24  1  0
 24 25  1  0
 26 25  1  1
 26 27  1  0
 27 19  1  0
 28 26  1  0
 28 30  1  0
 29 28  2  0
M  END
$$$$
