YEM.pdb
     RDKit          3D

 30 30  0  0  1  0  0  0  0  0999 V2000
   24.5654  -11.6109  -17.2233 O   0  0  0  0  0  0  0  0  0  0  0  0
   24.5817  -12.8476  -16.5791 C   0  0  0  0  0  0  0  0  0  0  0  0
   25.7281  -13.2657  -15.9235 C   0  0  0  0  0  0  0  0  0  0  0  0
   25.7743  -14.4926  -15.2727 C   0  0  0  0  0  0  0  0  0  0  0  0
   24.6751  -15.3287  -15.2630 C   0  0  0  0  0  0  0  0  0  0  0  0
   24.7070  -16.6426  -14.5739 C   0  0  0  0  0  0  0  0  0  0  0  0
   25.3075  -17.6792  -15.5191 C   0  0  2  0  0  0  0  0  0  0  0  0
   24.2401  -18.0141  -16.4614 N   0  0  0  0  0  0  0  0  0  0  0  0
   25.6519  -18.9010  -14.7648 C   0  0  0  0  0  0  0  0  0  0  0  0
   24.7708  -19.6695  -14.3499 O   0  0  0  0  0  0  0  0  0  0  0  0
   23.5386  -14.9135  -15.9133 C   0  0  0  0  0  0  0  0  0  0  0  0
   23.4923  -13.6963  -16.5591 C   0  0  0  0  0  0  0  0  0  0  0  0
   27.0044  -19.2674  -14.4707 N   0  0  0  0  0  0  0  0  0  0  0  0
   27.3588  -20.4659  -13.7342 C   0  0  1  0  0  0  0  0  0  0  0  0
   28.6095  -21.1043  -14.2030 C   0  0  0  0  0  0  0  0  0  0  0  0
   28.5982  -21.4886  -15.6515 C   0  0  0  0  0  0  0  0  0  0  0  0
   27.7294  -22.6088  -15.9808 C   0  0  0  0  0  0  0  0  0  0  0  0
   26.8585  -22.4943  -16.8734 O   0  0  0  0  0  0  0  0  0  0  0  0
   27.3115  -20.2133  -12.2573 C   0  0  0  0  0  0  0  0  0  0  0  0
   28.2469  -19.6348  -11.6569 O   0  0  0  0  0  0  0  0  0  0  0  0
   27.8410  -23.8133  -15.3226 O   0  0  0  0  0  0  0  0  0  0  0  0
   27.3027  -18.6850   -5.2651 C   0  0  0  0  0  0  0  0  0  0  0  0
   26.8950  -18.3543   -6.9841 S   0  0  0  0  0  0  0  0  0  0  0  0
   26.4130  -19.8624   -7.8609 C   0  0  0  0  0  0  0  0  0  0  0  0
   26.5912  -19.6734   -9.3551 C   0  0  0  0  0  0  0  0  0  0  0  0
   26.1819  -20.9413  -10.1039 C   0  0  2  0  0  0  0  0  0  0  0  0
   26.1827  -20.6344  -11.5051 N   0  0  0  0  0  0  0  0  0  0  0  0
   24.8588  -21.3883   -9.6137 C   0  0  0  0  0  0  0  0  0  0  0  0
   24.7017  -21.7345   -8.4193 O   0  0  0  0  0  0  0  0  0  0  0  0
   23.7617  -21.4367  -10.4560 O   0  0  0  0  0  0  0  0  0  0  0  0
  2  3  2  0
  2  1  1  0
  4  3  1  0
  5  4  2  0
  6  5  1  0
  7  9  1  0
  7  6  1  0
  7  8  1  6
  9 10  2  0
 11  5  1  0
 11 12  2  0
 12  2  1  0
 13 14  1  0
 13  9  1  0
 14 15  1  6
 15 16  1  0
 16 17  1  0
 17 21  1  0
 18 17  2  0
 19 20  2  0
 19 14  1  0
 22 23  1  0
 23 24  1  0
 24 25  1  0
 26 25  1  1
 26 27  1  0
 27 19  1  0
 28 26  1  0
 28 30  1  0
 29 28  2  0
M  END
$$$$
