YEM.pdb
     RDKit          3D

 30 30  0  0  1  0  0  0  0  0999 V2000
   10.9537  -14.2525  -11.4729 O   0  0  0  0  0  0  0  0  0  0  0  0
   11.7839  -13.1678  -11.1921 C   0  0  0  0  0  0  0  0  0  0  0  0
   13.0810  -13.3894  -10.7593 C   0  0  0  0  0  0  0  0  0  0  0  0
   13.9316  -12.3287  -10.4719 C   0  0  0  0  0  0  0  0  0  0  0  0
   13.5039  -11.0229  -10.6109 C   0  0  0  0  0  0  0  0  0  0  0  0
   14.3983   -9.8782  -10.3076 C   0  0  0  0  0  0  0  0  0  0  0  0
   15.0288   -9.3887  -11.6082 C   0  0  2  0  0  0  0  0  0  0  0  0
   16.1408  -10.3015  -11.8717 N   0  0  0  0  0  0  0  0  0  0  0  0
   15.5846   -8.0345  -11.4137 C   0  0  0  0  0  0  0  0  0  0  0  0
   16.4843   -7.8223  -10.5862 O   0  0  0  0  0  0  0  0  0  0  0  0
   12.2176  -10.8039  -11.0401 C   0  0  0  0  0  0  0  0  0  0  0  0
   11.3733  -11.8559  -11.3253 C   0  0  0  0  0  0  0  0  0  0  0  0
   15.1254   -6.9008  -12.1576 N   0  0  0  0  0  0  0  0  0  0  0  0
   15.5650   -5.5448  -11.8882 C   0  0  1  0  0  0  0  0  0  0  0  0
   16.0344   -4.8214  -13.0914 C   0  0  0  0  0  0  0  0  0  0  0  0
   15.2687   -5.1416  -14.3393 C   0  0  0  0  0  0  0  0  0  0  0  0
   15.7138   -4.4319  -15.5295 C   0  0  0  0  0  0  0  0  0  0  0  0
   16.3562   -5.0316  -16.4218 O   0  0  0  0  0  0  0  0  0  0  0  0
   14.5379   -4.8047  -11.0853 C   0  0  0  0  0  0  0  0  0  0  0  0
   13.3101   -4.9878  -11.2559 O   0  0  0  0  0  0  0  0  0  0  0  0
   15.4433   -3.0927  -15.7022 O   0  0  0  0  0  0  0  0  0  0  0  0
   12.3315   -2.3864   -4.1502 C   0  0  0  0  0  0  0  0  0  0  0  0
   13.4675   -3.2481   -5.2444 S   0  0  0  0  0  0  0  0  0  0  0  0
   13.2469   -2.7470   -6.9694 C   0  0  0  0  0  0  0  0  0  0  0  0
   14.1613   -3.5589   -7.8666 C   0  0  0  0  0  0  0  0  0  0  0  0
   14.0793   -3.0530   -9.3065 C   0  0  2  0  0  0  0  0  0  0  0  0
   14.9520   -3.8685  -10.1009 N   0  0  0  0  0  0  0  0  0  0  0  0
   14.4447   -1.6191   -9.3383 C   0  0  0  0  0  0  0  0  0  0  0  0
   15.6005   -1.2596   -9.6637 O   0  0  0  0  0  0  0  0  0  0  0  0
   13.5249   -0.6381   -9.0110 O   0  0  0  0  0  0  0  0  0  0  0  0
  2  3  2  0
  2  1  1  0
  4  3  1  0
  5  4  2  0
  6  5  1  0
  7  9  1  0
  7  6  1  0
  7  8  1  1
  9 10  2  0
 11  5  1  0
 11 12  2  0
 12  2  1  0
 13 14  1  0
 13  9  1  0
 14 15  1  6
 15 16  1  0
 16 17  1  0
 17 21  1  0
 18 17  2  0
 19 20  2  0
 19 14  1  0
 22 23  1  0
 23 24  1  0
 24 25  1  0
 26 25  1  1
 26 27  1  0
 27 19  1  0
 28 26  1  0
 28 30  1  0
 29 28  2  0
M  END
$$$$
