YEM.pdb
     RDKit          3D

 30 30  0  0  1  0  0  0  0  0999 V2000
   30.4930  -17.1817  -19.2332 O   0  0  0  0  0  0  0  0  0  0  0  0
   29.6349  -17.2182  -18.1345 C   0  0  0  0  0  0  0  0  0  0  0  0
   29.3387  -18.4309  -17.5341 C   0  0  0  0  0  0  0  0  0  0  0  0
   28.4873  -18.4988  -16.4380 C   0  0  0  0  0  0  0  0  0  0  0  0
   27.9132  -17.3554  -15.9179 C   0  0  0  0  0  0  0  0  0  0  0  0
   27.0010  -17.4094  -14.7485 C   0  0  0  0  0  0  0  0  0  0  0  0
   25.6579  -17.9770  -15.1984 C   0  0  2  0  0  0  0  0  0  0  0  0
   25.0155  -16.9057  -15.9593 N   0  0  0  0  0  0  0  0  0  0  0  0
   24.8188  -18.2665  -14.0182 C   0  0  0  0  0  0  0  0  0  0  0  0
   24.4284  -17.3578  -13.2693 O   0  0  0  0  0  0  0  0  0  0  0  0
   28.2074  -16.1532  -16.5137 C   0  0  0  0  0  0  0  0  0  0  0  0
   29.0520  -16.0854  -17.6013 C   0  0  0  0  0  0  0  0  0  0  0  0
   24.4112  -19.5945  -13.6718 N   0  0  0  0  0  0  0  0  0  0  0  0
   23.7448  -19.9193  -12.4248 C   0  0  1  0  0  0  0  0  0  0  0  0
   22.3423  -20.3607  -12.5971 C   0  0  0  0  0  0  0  0  0  0  0  0
   22.1967  -21.7696  -13.0870 C   0  0  0  0  0  0  0  0  0  0  0  0
   20.8270  -22.1906  -13.3414 C   0  0  0  0  0  0  0  0  0  0  0  0
   20.5873  -23.3427  -13.7697 O   0  0  0  0  0  0  0  0  0  0  0  0
   24.5863  -20.8466  -11.6006 C   0  0  0  0  0  0  0  0  0  0  0  0
   24.5183  -22.0909  -11.7316 O   0  0  0  0  0  0  0  0  0  0  0  0
   19.7680  -21.3382  -13.1211 O   0  0  0  0  0  0  0  0  0  0  0  0
   28.2264  -19.6817   -4.6128 C   0  0  0  0  0  0  0  0  0  0  0  0
   27.6260  -19.0258   -6.1748 S   0  0  0  0  0  0  0  0  0  0  0  0
   26.6729  -20.2572   -7.0971 C   0  0  0  0  0  0  0  0  0  0  0  0
   26.4268  -19.7697   -8.5120 C   0  0  0  0  0  0  0  0  0  0  0  0
   25.7273  -20.8523   -9.3332 C   0  0  2  0  0  0  0  0  0  0  0  0
   25.4898  -20.3155  -10.6420 N   0  0  0  0  0  0  0  0  0  0  0  0
   24.4822  -21.2565   -8.6425 C   0  0  0  0  0  0  0  0  0  0  0  0
   23.4142  -20.6270   -8.8269 O   0  0  0  0  0  0  0  0  0  0  0  0
   24.4613  -22.3362   -7.7769 O   0  0  0  0  0  0  0  0  0  0  0  0
  2  3  2  0
  2  1  1  0
  4  3  1  0
  5  4  2  0
  6  5  1  0
  7  9  1  0
  7  6  1  0
  7  8  1  6
  9 10  2  0
 11  5  1  0
 11 12  2  0
 12  2  1  0
 13 14  1  0
 13  9  1  0
 14 15  1  6
 15 16  1  0
 16 17  1  0
 17 21  1  0
 18 17  2  0
 19 20  2  0
 19 14  1  0
 22 23  1  0
 23 24  1  0
 24 25  1  0
 26 25  1  1
 26 27  1  0
 27 19  1  0
 28 26  1  0
 28 30  1  0
 29 28  2  0
M  END
$$$$
