YEM.pdb
     RDKit          3D

 30 30  0  0  1  0  0  0  0  0999 V2000
   16.7246  -11.3029  -21.0378 O   0  0  0  0  0  0  0  0  0  0  0  0
   16.3886  -12.5685  -20.5583 C   0  0  0  0  0  0  0  0  0  0  0  0
   16.7007  -12.9140  -19.2536 C   0  0  0  0  0  0  0  0  0  0  0  0
   16.3786  -14.1675  -18.7477 C   0  0  0  0  0  0  0  0  0  0  0  0
   15.7371  -15.1033  -19.5351 C   0  0  0  0  0  0  0  0  0  0  0  0
   15.3864  -16.4469  -19.0116 C   0  0  0  0  0  0  0  0  0  0  0  0
   16.6256  -17.3356  -19.0682 C   0  0  2  0  0  0  0  0  0  0  0  0
   16.7871  -17.6925  -20.4774 N   0  0  0  0  0  0  0  0  0  0  0  0
   16.3835  -18.5774  -18.3066 C   0  0  0  0  0  0  0  0  0  0  0  0
   15.8281  -19.5547  -18.8314 O   0  0  0  0  0  0  0  0  0  0  0  0
   15.4280  -14.7601  -20.8287 C   0  0  0  0  0  0  0  0  0  0  0  0
   15.7474  -13.5166  -21.3312 C   0  0  0  0  0  0  0  0  0  0  0  0
   16.7695  -18.7262  -16.9360 N   0  0  0  0  0  0  0  0  0  0  0  0
   16.5054  -19.9256  -16.1638 C   0  0  1  0  0  0  0  0  0  0  0  0
   17.7235  -20.5516  -15.6017 C   0  0  0  0  0  0  0  0  0  0  0  0
   17.4700  -21.8205  -14.8457 C   0  0  0  0  0  0  0  0  0  0  0  0
   17.6737  -23.0408  -15.6122 C   0  0  0  0  0  0  0  0  0  0  0  0
   18.5436  -23.0861  -16.5120 O   0  0  0  0  0  0  0  0  0  0  0  0
   15.4187  -19.6810  -15.1606 C   0  0  0  0  0  0  0  0  0  0  0  0
   15.4656  -18.7192  -14.3588 O   0  0  0  0  0  0  0  0  0  0  0  0
   16.9192  -24.1672  -15.3706 O   0  0  0  0  0  0  0  0  0  0  0  0
    7.9186  -20.0979  -15.7465 C   0  0  0  0  0  0  0  0  0  0  0  0
    9.4182  -21.0886  -15.7511 S   0  0  0  0  0  0  0  0  0  0  0  0
   10.7823  -20.2438  -14.9138 C   0  0  0  0  0  0  0  0  0  0  0  0
   11.9978  -21.1492  -14.8589 C   0  0  0  0  0  0  0  0  0  0  0  0
   13.1781  -20.4166  -14.2217 C   0  0  2  0  0  0  0  0  0  0  0  0
   14.2995  -20.5537  -15.1056 N   0  0  0  0  0  0  0  0  0  0  0  0
   13.4321  -20.9830  -12.8780 C   0  0  0  0  0  0  0  0  0  0  0  0
   14.4746  -21.6391  -12.6460 O   0  0  0  0  0  0  0  0  0  0  0  0
   12.5300  -20.8054  -11.8435 O   0  0  0  0  0  0  0  0  0  0  0  0
  2  3  2  0
  2  1  1  0
  4  3  1  0
  5  4  2  0
  6  5  1  0
  7  9  1  0
  7  6  1  0
  7  8  1  6
  9 10  2  0
 11  5  1  0
 11 12  2  0
 12  2  1  0
 13 14  1  0
 13  9  1  0
 14 15  1  1
 15 16  1  0
 16 17  1  0
 17 21  1  0
 18 17  2  0
 19 20  2  0
 19 14  1  0
 22 23  1  0
 23 24  1  0
 24 25  1  0
 26 25  1  6
 26 27  1  0
 27 19  1  0
 28 26  1  0
 28 30  1  0
 29 28  2  0
M  END
$$$$
