YEM.pdb
     RDKit          3D

 30 30  0  0  1  0  0  0  0  0999 V2000
   29.0250  -19.4339   -3.4235 O   0  0  0  0  0  0  0  0  0  0  0  0
   28.3451  -19.8125   -4.5806 C   0  0  0  0  0  0  0  0  0  0  0  0
   27.1110  -20.4336   -4.4802 C   0  0  0  0  0  0  0  0  0  0  0  0
   26.4099  -20.8222   -5.6153 C   0  0  0  0  0  0  0  0  0  0  0  0
   26.9272  -20.5983   -6.8760 C   0  0  0  0  0  0  0  0  0  0  0  0
   26.1928  -21.0074   -8.0989 C   0  0  0  0  0  0  0  0  0  0  0  0
   26.5410  -20.0417   -9.2279 C   0  0  2  0  0  0  0  0  0  0  0  0
   26.1376  -18.7195   -8.7502 N   0  0  0  0  0  0  0  0  0  0  0  0
   25.7355  -20.3616  -10.4235 C   0  0  0  0  0  0  0  0  0  0  0  0
   24.5043  -20.2090  -10.4281 O   0  0  0  0  0  0  0  0  0  0  0  0
   28.1510  -19.9823   -6.9749 C   0  0  0  0  0  0  0  0  0  0  0  0
   28.8471  -19.5966   -5.8490 C   0  0  0  0  0  0  0  0  0  0  0  0
   26.3183  -20.8603  -11.6323 N   0  0  0  0  0  0  0  0  0  0  0  0
   25.7639  -20.5975  -12.9469 C   0  0  1  0  0  0  0  0  0  0  0  0
   26.7798  -20.5514  -14.0227 C   0  0  0  0  0  0  0  0  0  0  0  0
   26.2325  -20.1907  -15.3704 C   0  0  0  0  0  0  0  0  0  0  0  0
   27.2212  -20.1324  -16.4369 C   0  0  0  0  0  0  0  0  0  0  0  0
   28.4001  -20.5001  -16.2289 O   0  0  0  0  0  0  0  0  0  0  0  0
   24.6098  -21.5122  -13.2274 C   0  0  0  0  0  0  0  0  0  0  0  0
   24.5367  -22.6561  -12.7212 O   0  0  0  0  0  0  0  0  0  0  0  0
   26.8880  -19.6729  -17.6917 O   0  0  0  0  0  0  0  0  0  0  0  0
   20.3806  -21.3725   -9.9140 C   0  0  0  0  0  0  0  0  0  0  0  0
   19.5260  -22.0392  -11.3477 S   0  0  0  0  0  0  0  0  0  0  0  0
   20.6850  -22.5692  -12.6327 C   0  0  0  0  0  0  0  0  0  0  0  0
   21.3302  -21.3592  -13.2807 C   0  0  0  0  0  0  0  0  0  0  0  0
   22.3445  -21.7988  -14.3361 C   0  0  2  0  0  0  0  0  0  0  0  0
   23.5634  -21.0847  -14.0874 N   0  0  0  0  0  0  0  0  0  0  0  0
   21.7882  -21.5362  -15.6823 C   0  0  0  0  0  0  0  0  0  0  0  0
   21.9036  -20.4070  -16.2139 O   0  0  0  0  0  0  0  0  0  0  0  0
   21.1276  -22.5253  -16.3899 O   0  0  0  0  0  0  0  0  0  0  0  0
  2  3  2  0
  2  1  1  0
  4  3  1  0
  5  4  2  0
  6  5  1  0
  7  9  1  0
  7  6  1  0
  7  8  1  1
  9 10  2  0
 11  5  1  0
 11 12  2  0
 12  2  1  0
 13 14  1  0
 13  9  1  0
 14 15  1  6
 15 16  1  0
 16 17  1  0
 17 21  1  0
 18 17  2  0
 19 20  2  0
 19 14  1  0
 22 23  1  0
 23 24  1  0
 24 25  1  0
 26 25  1  1
 26 27  1  0
 27 19  1  0
 28 26  1  0
 28 30  1  0
 29 28  2  0
M  END
$$$$
