YEM.pdb
     RDKit          3D

 30 30  0  0  1  0  0  0  0  0999 V2000
   29.2266  -11.6635  -16.0892 O   0  0  0  0  0  0  0  0  0  0  0  0
   28.1462  -10.7952  -16.2417 C   0  0  0  0  0  0  0  0  0  0  0  0
   28.0490  -10.0128  -17.3807 C   0  0  0  0  0  0  0  0  0  0  0  0
   26.9841   -9.1384  -17.5608 C   0  0  0  0  0  0  0  0  0  0  0  0
   25.9925   -9.0271  -16.6059 C   0  0  0  0  0  0  0  0  0  0  0  0
   24.8487   -8.0980  -16.7812 C   0  0  0  0  0  0  0  0  0  0  0  0
   23.5783   -8.9165  -16.9929 C   0  0  2  0  0  0  0  0  0  0  0  0
   23.8249   -9.7190  -18.1906 N   0  0  0  0  0  0  0  0  0  0  0  0
   22.4444   -8.0130  -17.2729 C   0  0  0  0  0  0  0  0  0  0  0  0
   22.2536   -7.5552  -18.4101 O   0  0  0  0  0  0  0  0  0  0  0  0
   26.0895   -9.8033  -15.4767 C   0  0  0  0  0  0  0  0  0  0  0  0
   27.1459  -10.6709  -15.2976 C   0  0  0  0  0  0  0  0  0  0  0  0
   21.5099   -7.6163  -16.2634 N   0  0  0  0  0  0  0  0  0  0  0  0
   20.3894   -6.7325  -16.5236 C   0  0  1  0  0  0  0  0  0  0  0  0
   19.2119   -6.9964  -15.6661 C   0  0  0  0  0  0  0  0  0  0  0  0
   18.5225   -8.2963  -15.9509 C   0  0  0  0  0  0  0  0  0  0  0  0
   17.3622   -8.5695  -15.1159 C   0  0  0  0  0  0  0  0  0  0  0  0
   16.2057   -8.4718  -15.5864 O   0  0  0  0  0  0  0  0  0  0  0  0
   20.8353   -5.3013  -16.5354 C   0  0  0  0  0  0  0  0  0  0  0  0
   22.0117   -4.9748  -16.2533 O   0  0  0  0  0  0  0  0  0  0  0  0
   17.5058   -8.9379  -13.7967 O   0  0  0  0  0  0  0  0  0  0  0  0
   22.9927   -0.3783  -21.3224 C   0  0  0  0  0  0  0  0  0  0  0  0
   22.5377   -1.9634  -20.6076 S   0  0  0  0  0  0  0  0  0  0  0  0
   21.5053   -1.7631  -19.1347 C   0  0  0  0  0  0  0  0  0  0  0  0
   21.1192   -3.1220  -18.5829 C   0  0  0  0  0  0  0  0  0  0  0  0
   20.2557   -2.9620  -17.3320 C   0  0  2  0  0  0  0  0  0  0  0  0
   19.9115   -4.2770  -16.8739 N   0  0  0  0  0  0  0  0  0  0  0  0
   19.0704   -2.1396  -17.6629 C   0  0  0  0  0  0  0  0  0  0  0  0
   19.0896   -0.8961  -17.5061 O   0  0  0  0  0  0  0  0  0  0  0  0
   17.9118   -2.7170  -18.1526 O   0  0  0  0  0  0  0  0  0  0  0  0
  2  3  2  0
  2  1  1  0
  4  3  1  0
  5  4  2  0
  6  5  1  0
  7  9  1  0
  7  6  1  0
  7  8  1  6
  9 10  2  0
 11  5  1  0
 11 12  2  0
 12  2  1  0
 13 14  1  0
 13  9  1  0
 14 15  1  1
 15 16  1  0
 16 17  1  0
 17 21  1  0
 18 17  2  0
 19 20  2  0
 19 14  1  0
 22 23  1  0
 23 24  1  0
 24 25  1  0
 26 25  1  6
 26 27  1  0
 27 19  1  0
 28 26  1  0
 28 30  1  0
 29 28  2  0
M  END
$$$$
