YEM.pdb
     RDKit          3D

 30 30  0  0  1  0  0  0  0  0999 V2000
   18.2443  -17.3063  -17.6271 O   0  0  0  0  0  0  0  0  0  0  0  0
   18.1785  -15.9225  -17.4682 C   0  0  0  0  0  0  0  0  0  0  0  0
   16.9741  -15.3261  -17.1323 C   0  0  0  0  0  0  0  0  0  0  0  0
   16.8776  -13.9498  -16.9670 C   0  0  0  0  0  0  0  0  0  0  0  0
   17.9832  -13.1392  -17.1339 C   0  0  0  0  0  0  0  0  0  0  0  0
   17.8981  -11.6676  -16.9623 C   0  0  0  0  0  0  0  0  0  0  0  0
   18.3465  -11.3107  -15.5480 C   0  0  2  0  0  0  0  0  0  0  0  0
   17.2674  -11.7620  -14.6699 N   0  0  0  0  0  0  0  0  0  0  0  0
   18.4604   -9.8443  -15.4166 C   0  0  0  0  0  0  0  0  0  0  0  0
   17.4860   -9.1515  -15.0853 O   0  0  0  0  0  0  0  0  0  0  0  0
   19.1771  -13.7312  -17.4670 C   0  0  0  0  0  0  0  0  0  0  0  0
   19.2734  -15.0967  -17.6311 C   0  0  0  0  0  0  0  0  0  0  0  0
   19.6847   -9.1433  -15.6602 N   0  0  0  0  0  0  0  0  0  0  0  0
   19.7999   -7.6992  -15.5851 C   0  0  1  0  0  0  0  0  0  0  0  0
   20.9166   -7.2350  -14.7312 C   0  0  0  0  0  0  0  0  0  0  0  0
   20.9501   -5.7524  -14.5147 C   0  0  0  0  0  0  0  0  0  0  0  0
   22.0256   -5.2838  -13.6534 C   0  0  0  0  0  0  0  0  0  0  0  0
   22.2701   -5.8653  -12.5715 O   0  0  0  0  0  0  0  0  0  0  0  0
   19.7796   -7.0942  -16.9565 C   0  0  0  0  0  0  0  0  0  0  0  0
   20.4485   -7.5765  -17.9000 O   0  0  0  0  0  0  0  0  0  0  0  0
   22.7946   -4.1961  -14.0029 O   0  0  0  0  0  0  0  0  0  0  0  0
   13.8876   -6.1848  -20.4415 C   0  0  0  0  0  0  0  0  0  0  0  0
   14.9165   -5.1131  -19.4298 S   0  0  0  0  0  0  0  0  0  0  0  0
   16.6206   -5.7150  -19.3340 C   0  0  0  0  0  0  0  0  0  0  0  0
   17.4861   -4.7083  -18.6008 C   0  0  0  0  0  0  0  0  0  0  0  0
   18.9120   -5.2388  -18.4557 C   0  0  2  0  0  0  0  0  0  0  0  0
   18.9855   -5.9441  -17.2088 N   0  0  0  0  0  0  0  0  0  0  0  0
   19.8612   -4.1058  -18.5327 C   0  0  0  0  0  0  0  0  0  0  0  0
   19.8972   -3.3679  -19.5452 O   0  0  0  0  0  0  0  0  0  0  0  0
   20.7327   -3.8295  -17.4935 O   0  0  0  0  0  0  0  0  0  0  0  0
  2  3  2  0
  2  1  1  0
  4  3  1  0
  5  4  2  0
  6  5  1  0
  7  9  1  0
  7  6  1  0
  7  8  1  1
  9 10  2  0
 11  5  1  0
 11 12  2  0
 12  2  1  0
 13 14  1  0
 13  9  1  0
 14 15  1  6
 15 16  1  0
 16 17  1  0
 17 21  1  0
 18 17  2  0
 19 20  2  0
 19 14  1  0
 22 23  1  0
 23 24  1  0
 24 25  1  0
 26 25  1  1
 26 27  1  0
 27 19  1  0
 28 26  1  0
 28 30  1  0
 29 28  2  0
M  END
$$$$
