YEM.pdb
     RDKit          3D

 30 30  0  0  1  0  0  0  0  0999 V2000
   15.8426  -18.0353  -15.0146 O   0  0  0  0  0  0  0  0  0  0  0  0
   16.9766  -18.6573  -14.4934 C   0  0  0  0  0  0  0  0  0  0  0  0
   17.0589  -18.9079  -13.1334 C   0  0  0  0  0  0  0  0  0  0  0  0
   18.1760  -19.5262  -12.5850 C   0  0  0  0  0  0  0  0  0  0  0  0
   19.2357  -19.9076  -13.3843 C   0  0  0  0  0  0  0  0  0  0  0  0
   20.4368  -20.5680  -12.8155 C   0  0  0  0  0  0  0  0  0  0  0  0
   21.5194  -19.5152  -12.5959 C   0  0  2  0  0  0  0  0  0  0  0  0
   21.3924  -18.5838  -13.7165 N   0  0  0  0  0  0  0  0  0  0  0  0
   22.8519  -20.1467  -12.6745 C   0  0  0  0  0  0  0  0  0  0  0  0
   23.0893  -21.2193  -12.0982 O   0  0  0  0  0  0  0  0  0  0  0  0
   19.1536  -19.6587  -14.7327 C   0  0  0  0  0  0  0  0  0  0  0  0
   18.0454  -19.0453  -15.2773 C   0  0  0  0  0  0  0  0  0  0  0  0
   23.9350  -19.5674  -13.4101 N   0  0  0  0  0  0  0  0  0  0  0  0
   25.2853  -20.0969  -13.3817 C   0  0  1  0  0  0  0  0  0  0  0  0
   26.1322  -19.6273  -14.5014 C   0  0  0  0  0  0  0  0  0  0  0  0
   27.5180  -20.1979  -14.5058 C   0  0  0  0  0  0  0  0  0  0  0  0
   27.7127  -21.3256  -15.4050 C   0  0  0  0  0  0  0  0  0  0  0  0
   26.8371  -21.6205  -16.2505 O   0  0  0  0  0  0  0  0  0  0  0  0
   25.8980  -19.9130  -12.0260 C   0  0  0  0  0  0  0  0  0  0  0  0
   25.6694  -18.8953  -11.3316 O   0  0  0  0  0  0  0  0  0  0  0  0
   28.8552  -22.0924  -15.3477 O   0  0  0  0  0  0  0  0  0  0  0  0
   27.4544  -18.1856   -5.9717 C   0  0  0  0  0  0  0  0  0  0  0  0
   26.5579  -19.6220   -6.5745 S   0  0  0  0  0  0  0  0  0  0  0  0
   27.4837  -20.5002   -7.8579 C   0  0  0  0  0  0  0  0  0  0  0  0
   26.6743  -20.5501   -9.1395 C   0  0  0  0  0  0  0  0  0  0  0  0
   27.5937  -20.7663  -10.3410 C   0  0  2  0  0  0  0  0  0  0  0  0
   26.7620  -20.9104  -11.5008 N   0  0  0  0  0  0  0  0  0  0  0  0
   28.4453  -21.9513  -10.0930 C   0  0  0  0  0  0  0  0  0  0  0  0
   28.3556  -22.9681  -10.8203 O   0  0  0  0  0  0  0  0  0  0  0  0
   29.3610  -21.9708   -9.0553 O   0  0  0  0  0  0  0  0  0  0  0  0
  2  3  2  0
  2  1  1  0
  4  3  1  0
  5  4  2  0
  6  5  1  0
  7  9  1  0
  7  6  1  0
  7  8  1  6
  9 10  2  0
 11  5  1  0
 11 12  2  0
 12  2  1  0
 13 14  1  0
 13  9  1  0
 14 15  1  6
 15 16  1  0
 16 17  1  0
 17 21  1  0
 18 17  2  0
 19 20  2  0
 19 14  1  0
 22 23  1  0
 23 24  1  0
 24 25  1  0
 26 25  1  1
 26 27  1  0
 27 19  1  0
 28 26  1  0
 28 30  1  0
 29 28  2  0
M  END
$$$$
