KFW.pdb
     RDKit          3D

 35 37  0  0  1  0  0  0  0  0999 V2000
   23.2849  -18.3774  -14.1550 N   0  0  0  0  0  0  0  0  0  0  0  0
   23.5315  -19.6626  -14.7429 C   0  0  1  0  0  0  0  0  0  0  0  0
   23.3621  -19.6940  -16.2356 C   0  0  0  0  0  0  0  0  0  0  0  0
   21.9730  -19.1813  -16.6231 C   0  0  0  0  0  0  0  0  0  0  0  0
   22.1554  -17.8280  -17.2746 C   0  0  0  0  0  0  0  0  0  0  0  0
   20.8330  -17.2235  -17.6897 C   0  0  0  0  0  0  0  0  0  0  0  0
   20.1258  -18.0073  -18.6587 N   0  0  0  0  0  0  0  0  0  0  0  0
   24.8238  -20.2550  -14.3655 C   0  0  0  0  0  0  0  0  0  0  0  0
   25.1729  -21.3054  -14.9701 O   0  0  0  0  0  0  0  0  0  0  0  0
   25.6935  -19.7438  -13.3890 N   0  0  0  0  0  0  0  0  0  0  0  0
   26.9690  -20.3331  -13.0484 C   0  0  1  0  0  0  0  0  0  0  0  0
   28.1100  -19.3534  -13.1467 C   0  0  0  0  0  0  0  0  0  0  0  0
   28.1420  -18.6590  -14.4548 C   0  0  0  0  0  0  0  0  0  0  0  0
   27.4770  -17.4685  -14.6510 C   0  0  0  0  0  0  0  0  0  0  0  0
   27.5001  -16.8083  -15.8751 C   0  0  0  0  0  0  0  0  0  0  0  0
   28.1980  -17.3287  -16.9477 C   0  0  0  0  0  0  0  0  0  0  0  0
   28.8604  -18.5118  -16.7573 C   0  0  0  0  0  0  0  0  0  0  0  0
   28.8341  -19.1592  -15.5468 C   0  0  0  0  0  0  0  0  0  0  0  0
   26.8637  -20.9793  -11.7416 C   0  0  0  0  0  0  0  0  0  0  0  0
   27.8089  -21.6970  -11.3357 O   0  0  0  0  0  0  0  0  0  0  0  0
   25.7443  -20.8558  -10.8701 N   0  0  0  0  0  0  0  0  0  0  0  0
   25.7292  -21.3632   -9.5097 C   0  0  1  0  0  0  0  0  0  0  0  0
   26.8071  -20.5969   -8.7611 C   0  0  0  0  0  0  0  0  0  0  0  0
   26.7235  -20.7565   -7.3050 C   0  0  0  0  0  0  0  0  0  0  0  0
   25.8879  -21.5420   -6.5377 C   0  0  0  0  0  0  0  0  0  0  0  0
   26.1952  -21.3462   -5.2437 N   0  0  0  0  0  0  0  0  0  0  0  0
   27.2059  -20.4578   -5.1280 C   0  0  0  0  0  0  0  0  0  0  0  0
   27.8789  -19.9263   -4.0285 C   0  0  0  0  0  0  0  0  0  0  0  0
   28.9031  -19.0074   -4.2218 C   0  0  0  0  0  0  0  0  0  0  0  0
   29.2575  -18.6179   -5.5002 C   0  0  0  0  0  0  0  0  0  0  0  0
   28.5701  -19.1644   -6.5616 C   0  0  0  0  0  0  0  0  0  0  0  0
   27.5440  -20.0826   -6.4104 C   0  0  0  0  0  0  0  0  0  0  0  0
   24.3923  -21.1351   -8.9127 C   0  0  0  0  0  0  0  0  0  0  0  0
   23.6621  -20.2027   -9.3361 O   0  0  0  0  0  0  0  0  0  0  0  0
   23.9005  -21.9170   -7.8895 O   0  0  0  0  0  0  0  0  0  0  0  0
  2  1  1  6
  2  3  1  0
  4  3  1  0
  5  4  1  0
  6  5  1  0
  7  6  1  0
  8  2  1  0
  9  8  2  0
 10  8  1  0
 11 10  1  0
 12 13  1  0
 11 12  1  1
 13 18  2  0
 14 15  2  0
 14 13  1  0
 15 16  1  0
 16 17  2  0
 18 17  1  0
 19 11  1  0
 19 21  1  0
 20 19  2  0
 22 21  1  0
 22 33  1  0
 22 23  1  1
 24 32  1  0
 24 23  1  0
 25 24  2  0
 26 25  1  0
 26 27  1  0
 27 32  2  0
 28 27  1  0
 28 29  2  0
 29 30  1  0
 30 31  2  0
 32 31  1  0
 33 35  1  0
 34 33  2  0
M  END
$$$$
