KFW.pdb
     RDKit          3D

 35 37  0  0  1  0  0  0  0  0999 V2000
   26.6007  -20.4242  -17.0945 N   0  0  0  0  0  0  0  0  0  0  0  0
   26.8167  -21.2436  -15.9369 C   0  0  1  0  0  0  0  0  0  0  0  0
   28.2430  -21.6793  -15.7544 C   0  0  0  0  0  0  0  0  0  0  0  0
   28.5856  -22.8007  -16.7382 C   0  0  0  0  0  0  0  0  0  0  0  0
   30.0104  -23.2271  -16.4604 C   0  0  0  0  0  0  0  0  0  0  0  0
   30.5221  -24.1879  -17.5099 C   0  0  0  0  0  0  0  0  0  0  0  0
   31.7753  -24.7929  -17.1679 N   0  0  0  0  0  0  0  0  0  0  0  0
   26.2987  -20.6635  -14.6883 C   0  0  0  0  0  0  0  0  0  0  0  0
   26.5185  -19.4375  -14.4899 O   0  0  0  0  0  0  0  0  0  0  0  0
   25.5828  -21.3661  -13.7061 N   0  0  0  0  0  0  0  0  0  0  0  0
   25.0858  -20.7746  -12.4840 C   0  0  1  0  0  0  0  0  0  0  0  0
   23.5827  -20.6683  -12.4558 C   0  0  0  0  0  0  0  0  0  0  0  0
   23.0459  -19.9858  -13.6560 C   0  0  0  0  0  0  0  0  0  0  0  0
   22.8394  -18.6238  -13.6738 C   0  0  0  0  0  0  0  0  0  0  0  0
   22.3356  -17.9729  -14.7951 C   0  0  0  0  0  0  0  0  0  0  0  0
   22.0216  -18.6767  -15.9416 C   0  0  0  0  0  0  0  0  0  0  0  0
   22.2253  -20.0307  -15.9283 C   0  0  0  0  0  0  0  0  0  0  0  0
   22.7228  -20.6680  -14.8186 C   0  0  0  0  0  0  0  0  0  0  0  0
   25.6428  -21.4969  -11.3419 C   0  0  0  0  0  0  0  0  0  0  0  0
   26.5333  -22.3584  -11.5377 O   0  0  0  0  0  0  0  0  0  0  0  0
   25.2447  -21.2951   -9.9897 N   0  0  0  0  0  0  0  0  0  0  0  0
   26.1361  -21.4746   -8.8576 C   0  0  1  0  0  0  0  0  0  0  0  0
   27.3188  -20.5518   -9.1010 C   0  0  0  0  0  0  0  0  0  0  0  0
   28.3898  -20.7122   -8.1110 C   0  0  0  0  0  0  0  0  0  0  0  0
   29.5220  -21.5005   -8.1378 C   0  0  0  0  0  0  0  0  0  0  0  0
   30.2004  -21.3037   -6.9940 N   0  0  0  0  0  0  0  0  0  0  0  0
   29.5559  -20.4119   -6.2107 C   0  0  0  0  0  0  0  0  0  0  0  0
   29.8368  -19.8784   -4.9534 C   0  0  0  0  0  0  0  0  0  0  0  0
   28.9678  -18.9564   -4.3829 C   0  0  0  0  0  0  0  0  0  0  0  0
   27.8256  -18.5657   -5.0571 C   0  0  0  0  0  0  0  0  0  0  0  0
   27.5816  -19.1143   -6.2970 C   0  0  0  0  0  0  0  0  0  0  0  0
   28.4228  -20.0355   -6.8991 C   0  0  0  0  0  0  0  0  0  0  0  0
   25.4238  -21.1198   -7.6076 C   0  0  0  0  0  0  0  0  0  0  0  0
   25.4170  -21.9183   -6.6359 O   0  0  0  0  0  0  0  0  0  0  0  0
   24.7519  -19.9256   -7.4575 O   0  0  0  0  0  0  0  0  0  0  0  0
  2  1  1  6
  2  3  1  0
  4  3  1  0
  5  4  1  0
  6  5  1  0
  7  6  1  0
  8  2  1  0
  9  8  2  0
 10  8  1  0
 11 10  1  0
 12 13  1  0
 11 12  1  6
 13 18  2  0
 14 15  2  0
 14 13  1  0
 15 16  1  0
 16 17  2  0
 18 17  1  0
 19 11  1  0
 19 21  1  0
 20 19  2  0
 22 21  1  0
 22 33  1  0
 22 23  1  6
 24 32  1  0
 24 23  1  0
 25 24  2  0
 26 25  1  0
 26 27  1  0
 27 32  2  0
 28 27  1  0
 28 29  2  0
 29 30  1  0
 30 31  2  0
 32 31  1  0
 33 35  1  0
 34 33  2  0
M  END
$$$$
