KFW.pdb
     RDKit          3D

 35 37  0  0  1  0  0  0  0  0999 V2000
   27.7631  -21.8937  -18.6110 N   0  0  0  0  0  0  0  0  0  0  0  0
   27.2098  -20.8022  -17.8622 C   0  0  1  0  0  0  0  0  0  0  0  0
   26.1308  -20.0489  -18.5873 C   0  0  0  0  0  0  0  0  0  0  0  0
   26.6559  -19.5276  -19.9272 C   0  0  0  0  0  0  0  0  0  0  0  0
   27.6017  -18.3849  -19.6291 C   0  0  0  0  0  0  0  0  0  0  0  0
   28.0647  -17.6969  -20.8934 C   0  0  0  0  0  0  0  0  0  0  0  0
   28.9942  -16.6322  -20.6567 N   0  0  0  0  0  0  0  0  0  0  0  0
   26.7529  -21.1726  -16.5140 C   0  0  0  0  0  0  0  0  0  0  0  0
   25.8294  -22.0280  -16.4350 O   0  0  0  0  0  0  0  0  0  0  0  0
   27.2630  -20.6496  -15.3150 N   0  0  0  0  0  0  0  0  0  0  0  0
   26.6314  -20.8107  -14.0246 C   0  0  1  0  0  0  0  0  0  0  0  0
   27.5388  -20.4400  -12.8798 C   0  0  0  0  0  0  0  0  0  0  0  0
   26.8577  -20.5423  -11.5683 C   0  0  0  0  0  0  0  0  0  0  0  0
   26.6061  -21.7645  -10.9846 C   0  0  0  0  0  0  0  0  0  0  0  0
   25.9671  -21.8721   -9.7537 C   0  0  0  0  0  0  0  0  0  0  0  0
   25.5584  -20.7454   -9.0668 C   0  0  0  0  0  0  0  0  0  0  0  0
   25.8065  -19.5284   -9.6432 C   0  0  0  0  0  0  0  0  0  0  0  0
   26.4376  -19.4282  -10.8584 C   0  0  0  0  0  0  0  0  0  0  0  0
   25.3602  -20.0893  -14.0208 C   0  0  0  0  0  0  0  0  0  0  0  0
   25.3572  -18.8534  -14.2350 O   0  0  0  0  0  0  0  0  0  0  0  0
   24.0921  -20.6936  -13.7872 N   0  0  0  0  0  0  0  0  0  0  0  0
   22.9604  -19.9845  -13.2172 C   0  0  1  0  0  0  0  0  0  0  0  0
   22.4684  -19.0362  -14.2980 C   0  0  0  0  0  0  0  0  0  0  0  0
   22.1627  -19.7121  -15.5639 C   0  0  0  0  0  0  0  0  0  0  0  0
   21.4618  -20.8749  -15.8106 C   0  0  0  0  0  0  0  0  0  0  0  0
   21.4499  -21.0867  -17.1381 N   0  0  0  0  0  0  0  0  0  0  0  0
   22.1189  -20.1039  -17.7788 C   0  0  0  0  0  0  0  0  0  0  0  0
   22.3897  -19.8642  -19.1255 C   0  0  0  0  0  0  0  0  0  0  0  0
   23.1210  -18.7422  -19.4954 C   0  0  0  0  0  0  0  0  0  0  0  0
   23.5814  -17.8623  -18.5333 C   0  0  0  0  0  0  0  0  0  0  0  0
   23.2943  -18.1322  -17.2133 C   0  0  0  0  0  0  0  0  0  0  0  0
   22.5687  -19.2391  -16.8045 C   0  0  0  0  0  0  0  0  0  0  0  0
   21.9102  -20.9574  -12.8347 C   0  0  0  0  0  0  0  0  0  0  0  0
   20.8217  -20.5544  -12.3505 O   0  0  0  0  0  0  0  0  0  0  0  0
   22.0761  -22.3172  -12.9890 O   0  0  0  0  0  0  0  0  0  0  0  0
  2  1  1  6
  2  3  1  0
  4  3  1  0
  5  4  1  0
  6  5  1  0
  7  6  1  0
  8  2  1  0
  9  8  2  0
 10  8  1  0
 11 10  1  0
 12 13  1  0
 11 12  1  1
 13 18  2  0
 14 15  2  0
 14 13  1  0
 15 16  1  0
 16 17  2  0
 18 17  1  0
 19 11  1  0
 19 21  1  0
 20 19  2  0
 22 21  1  0
 22 33  1  0
 22 23  1  6
 24 32  1  0
 24 23  1  0
 25 24  2  0
 26 25  1  0
 26 27  1  0
 27 32  2  0
 28 27  1  0
 28 29  2  0
 29 30  1  0
 30 31  2  0
 32 31  1  0
 33 35  1  0
 34 33  2  0
M  END
$$$$
