KFW.pdb
     RDKit          3D

 35 37  0  0  1  0  0  0  0  0999 V2000
   29.0130  -22.8973  -15.8130 N   0  0  0  0  0  0  0  0  0  0  0  0
   28.7508  -21.6139  -15.2280 C   0  0  1  0  0  0  0  0  0  0  0  0
   27.8040  -20.7615  -16.0246 C   0  0  0  0  0  0  0  0  0  0  0  0
   28.1678  -20.8104  -17.5105 C   0  0  0  0  0  0  0  0  0  0  0  0
   27.1878  -21.7442  -18.1862 C   0  0  0  0  0  0  0  0  0  0  0  0
   27.3263  -21.7079  -19.6914 C   0  0  0  0  0  0  0  0  0  0  0  0
   28.6077  -22.1483  -20.1578 N   0  0  0  0  0  0  0  0  0  0  0  0
   28.3209  -21.6738  -13.8225 C   0  0  0  0  0  0  0  0  0  0  0  0
   27.3264  -22.4023  -13.5564 O   0  0  0  0  0  0  0  0  0  0  0  0
   28.9294  -20.9858  -12.7607 N   0  0  0  0  0  0  0  0  0  0  0  0
   28.4401  -20.9947  -11.4003 C   0  0  1  0  0  0  0  0  0  0  0  0
   29.4098  -20.3756  -10.4267 C   0  0  0  0  0  0  0  0  0  0  0  0
   28.8077  -20.1707   -9.0889 C   0  0  0  0  0  0  0  0  0  0  0  0
   29.1144  -20.9975   -8.0305 C   0  0  0  0  0  0  0  0  0  0  0  0
   28.5547  -20.8144   -6.7703 C   0  0  0  0  0  0  0  0  0  0  0  0
   27.6627  -19.7864   -6.5338 C   0  0  0  0  0  0  0  0  0  0  0  0
   27.3550  -18.9620   -7.5829 C   0  0  0  0  0  0  0  0  0  0  0  0
   27.9104  -19.1476   -8.8247 C   0  0  0  0  0  0  0  0  0  0  0  0
   27.1102  -20.3894  -11.3663 C   0  0  0  0  0  0  0  0  0  0  0  0
   26.8935  -19.3499  -12.0340 O   0  0  0  0  0  0  0  0  0  0  0  0
   26.0125  -20.8990  -10.6158 N   0  0  0  0  0  0  0  0  0  0  0  0
   24.6605  -20.3801  -10.7223 C   0  0  1  0  0  0  0  0  0  0  0  0
   24.2317  -20.6110  -12.1619 C   0  0  0  0  0  0  0  0  0  0  0  0
   22.8333  -20.2451  -12.4138 C   0  0  0  0  0  0  0  0  0  0  0  0
   21.8848  -19.7028  -11.5709 C   0  0  0  0  0  0  0  0  0  0  0  0
   20.7442  -19.5456  -12.2648 N   0  0  0  0  0  0  0  0  0  0  0  0
   20.9051  -19.9654  -13.5384 C   0  0  0  0  0  0  0  0  0  0  0  0
   20.0459  -20.0139  -14.6357 C   0  0  0  0  0  0  0  0  0  0  0  0
   20.5024  -20.5099  -15.8507 C   0  0  0  0  0  0  0  0  0  0  0  0
   21.8052  -20.9556  -15.9761 C   0  0  0  0  0  0  0  0  0  0  0  0
   22.6245  -20.8921  -14.8704 C   0  0  0  0  0  0  0  0  0  0  0  0
   22.2072  -20.4048  -13.6427 C   0  0  0  0  0  0  0  0  0  0  0  0
   23.7789  -21.1018   -9.7748 C   0  0  0  0  0  0  0  0  0  0  0  0
   23.9132  -22.3408   -9.6055 O   0  0  0  0  0  0  0  0  0  0  0  0
   22.7942  -20.4617   -9.0531 O   0  0  0  0  0  0  0  0  0  0  0  0
  2  1  1  6
  2  3  1  0
  4  3  1  0
  5  4  1  0
  6  5  1  0
  7  6  1  0
  8  2  1  0
  9  8  2  0
 10  8  1  0
 11 10  1  0
 12 13  1  0
 11 12  1  1
 13 18  2  0
 14 15  2  0
 14 13  1  0
 15 16  1  0
 16 17  2  0
 18 17  1  0
 19 11  1  0
 19 21  1  0
 20 19  2  0
 22 21  1  0
 22 33  1  0
 22 23  1  6
 24 32  1  0
 24 23  1  0
 25 24  2  0
 26 25  1  0
 26 27  1  0
 27 32  2  0
 28 27  1  0
 28 29  2  0
 29 30  1  0
 30 31  2  0
 32 31  1  0
 33 35  1  0
 34 33  2  0
M  END
$$$$
