KFW.pdb
     RDKit          3D

 35 37  0  0  1  0  0  0  0  0999 V2000
   28.3139  -23.0938  -17.9074 N   0  0  0  0  0  0  0  0  0  0  0  0
   28.1064  -21.7800  -17.3699 C   0  0  1  0  0  0  0  0  0  0  0  0
   27.5143  -20.8060  -18.3489 C   0  0  0  0  0  0  0  0  0  0  0  0
   28.5154  -20.5013  -19.4659 C   0  0  0  0  0  0  0  0  0  0  0  0
   29.7741  -21.2878  -19.1727 C   0  0  0  0  0  0  0  0  0  0  0  0
   30.8132  -21.1061  -20.2560 C   0  0  0  0  0  0  0  0  0  0  0  0
   30.7353  -19.8359  -20.9148 N   0  0  0  0  0  0  0  0  0  0  0  0
   27.3450  -21.7620  -16.1114 C   0  0  0  0  0  0  0  0  0  0  0  0
   26.3092  -22.4795  -16.0562 O   0  0  0  0  0  0  0  0  0  0  0  0
   27.6811  -21.0114  -14.9735 N   0  0  0  0  0  0  0  0  0  0  0  0
   26.9273  -21.0244  -13.7399 C   0  0  1  0  0  0  0  0  0  0  0  0
   27.7078  -20.4768  -12.5728 C   0  0  0  0  0  0  0  0  0  0  0  0
   26.8996  -20.4245  -11.3324 C   0  0  0  0  0  0  0  0  0  0  0  0
   26.7492  -21.5324  -10.5276 C   0  0  0  0  0  0  0  0  0  0  0  0
   25.9924  -21.4946   -9.3610 C   0  0  0  0  0  0  0  0  0  0  0  0
   25.3589  -20.3326   -8.9650 C   0  0  0  0  0  0  0  0  0  0  0  0
   25.5056  -19.2289   -9.7618 C   0  0  0  0  0  0  0  0  0  0  0  0
   26.2538  -19.2721  -10.9123 C   0  0  0  0  0  0  0  0  0  0  0  0
   25.6470  -20.3528  -13.9544 C   0  0  0  0  0  0  0  0  0  0  0  0
   25.6269  -19.2496  -14.5510 O   0  0  0  0  0  0  0  0  0  0  0  0
   24.3881  -20.8644  -13.5288 N   0  0  0  0  0  0  0  0  0  0  0  0
   23.1281  -20.1785  -13.7536 C   0  0  1  0  0  0  0  0  0  0  0  0
   22.9542  -20.0979  -15.2611 C   0  0  0  0  0  0  0  0  0  0  0  0
   21.6798  -19.4925  -15.6639 C   0  0  0  0  0  0  0  0  0  0  0  0
   21.0637  -18.3351  -15.2338 C   0  0  0  0  0  0  0  0  0  0  0  0
   19.9047  -18.2008  -15.9015 N   0  0  0  0  0  0  0  0  0  0  0  0
   19.7323  -19.2299  -16.7590 C   0  0  0  0  0  0  0  0  0  0  0  0
   18.7185  -19.5521  -17.6607 C   0  0  0  0  0  0  0  0  0  0  0  0
   18.8167  -20.7055  -18.4293 C   0  0  0  0  0  0  0  0  0  0  0  0
   19.9157  -21.5350  -18.3037 C   0  0  0  0  0  0  0  0  0  0  0  0
   20.8970  -21.1839  -17.4027 C   0  0  0  0  0  0  0  0  0  0  0  0
   20.8359  -20.0434  -16.6189 C   0  0  0  0  0  0  0  0  0  0  0  0
   22.0286  -20.9475  -13.1244 C   0  0  0  0  0  0  0  0  0  0  0  0
   21.0348  -20.3478  -12.6403 O   0  0  0  0  0  0  0  0  0  0  0  0
   22.0460  -22.3235  -13.0435 O   0  0  0  0  0  0  0  0  0  0  0  0
  2  1  1  6
  2  3  1  0
  4  3  1  0
  5  4  1  0
  6  5  1  0
  7  6  1  0
  8  2  1  0
  9  8  2  0
 10  8  1  0
 11 10  1  0
 12 13  1  0
 11 12  1  1
 13 18  2  0
 14 15  2  0
 14 13  1  0
 15 16  1  0
 16 17  2  0
 18 17  1  0
 19 11  1  0
 19 21  1  0
 20 19  2  0
 22 21  1  0
 22 33  1  0
 22 23  1  6
 24 32  1  0
 24 23  1  0
 25 24  2  0
 26 25  1  0
 26 27  1  0
 27 32  2  0
 28 27  1  0
 28 29  2  0
 29 30  1  0
 30 31  2  0
 32 31  1  0
 33 35  1  0
 34 33  2  0
M  END
$$$$
