KFW.pdb
     RDKit          3D

 35 37  0  0  1  0  0  0  0  0999 V2000
   27.6857  -22.7109  -18.1161 N   0  0  0  0  0  0  0  0  0  0  0  0
   27.5782  -21.4784  -17.3899 C   0  0  1  0  0  0  0  0  0  0  0  0
   26.9733  -20.3538  -18.1817 C   0  0  0  0  0  0  0  0  0  0  0  0
   27.8644  -20.0066  -19.3767 C   0  0  0  0  0  0  0  0  0  0  0  0
   27.2683  -18.7882  -20.0471 C   0  0  0  0  0  0  0  0  0  0  0  0
   28.1234  -18.3076  -21.1978 C   0  0  0  0  0  0  0  0  0  0  0  0
   27.6010  -17.1437  -21.8504 N   0  0  0  0  0  0  0  0  0  0  0  0
   26.9009  -21.6069  -16.0905 C   0  0  0  0  0  0  0  0  0  0  0  0
   25.8879  -22.3568  -16.0422 O   0  0  0  0  0  0  0  0  0  0  0  0
   27.2932  -20.9621  -14.9067 N   0  0  0  0  0  0  0  0  0  0  0  0
   26.5871  -21.0708  -13.6498 C   0  0  1  0  0  0  0  0  0  0  0  0
   27.4503  -20.7270  -12.4632 C   0  0  0  0  0  0  0  0  0  0  0  0
   26.6758  -20.6784  -11.2014 C   0  0  0  0  0  0  0  0  0  0  0  0
   26.1770  -21.8244  -10.6219 C   0  0  0  0  0  0  0  0  0  0  0  0
   25.4484  -21.7903   -9.4375 C   0  0  0  0  0  0  0  0  0  0  0  0
   25.1970  -20.5937   -8.7945 C   0  0  0  0  0  0  0  0  0  0  0  0
   25.6908  -19.4521   -9.3669 C   0  0  0  0  0  0  0  0  0  0  0  0
   26.4094  -19.4917  -10.5362 C   0  0  0  0  0  0  0  0  0  0  0  0
   25.3553  -20.2875  -13.7239 C   0  0  0  0  0  0  0  0  0  0  0  0
   25.4202  -19.0719  -14.0261 O   0  0  0  0  0  0  0  0  0  0  0  0
   24.0537  -20.8082  -13.4737 N   0  0  0  0  0  0  0  0  0  0  0  0
   22.8890  -19.9732  -13.2396 C   0  0  1  0  0  0  0  0  0  0  0  0
   22.5615  -19.3218  -14.5730 C   0  0  0  0  0  0  0  0  0  0  0  0
   22.2173  -20.2904  -15.6199 C   0  0  0  0  0  0  0  0  0  0  0  0
   21.4450  -21.4327  -15.5628 C   0  0  0  0  0  0  0  0  0  0  0  0
   21.4234  -21.9889  -16.7864 N   0  0  0  0  0  0  0  0  0  0  0  0
   22.1550  -21.2540  -17.6518 C   0  0  0  0  0  0  0  0  0  0  0  0
   22.4442  -21.3980  -19.0083 C   0  0  0  0  0  0  0  0  0  0  0  0
   23.2460  -20.4609  -19.6483 C   0  0  0  0  0  0  0  0  0  0  0  0
   23.7584  -19.3861  -18.9454 C   0  0  0  0  0  0  0  0  0  0  0  0
   23.4510  -19.2773  -17.6069 C   0  0  0  0  0  0  0  0  0  0  0  0
   22.6559  -20.1899  -16.9333 C   0  0  0  0  0  0  0  0  0  0  0  0
   21.7671  -20.8143  -12.7604 C   0  0  0  0  0  0  0  0  0  0  0  0
   21.9261  -22.0526  -12.6080 O   0  0  0  0  0  0  0  0  0  0  0  0
   20.5269  -20.2888  -12.4672 O   0  0  0  0  0  0  0  0  0  0  0  0
  2  1  1  6
  2  3  1  0
  4  3  1  0
  5  4  1  0
  6  5  1  0
  7  6  1  0
  8  2  1  0
  9  8  2  0
 10  8  1  0
 11 10  1  0
 12 13  1  0
 11 12  1  1
 13 18  2  0
 14 15  2  0
 14 13  1  0
 15 16  1  0
 16 17  2  0
 18 17  1  0
 19 11  1  0
 19 21  1  0
 20 19  2  0
 22 21  1  0
 22 33  1  0
 22 23  1  6
 24 32  1  0
 24 23  1  0
 25 24  2  0
 26 25  1  0
 26 27  1  0
 27 32  2  0
 28 27  1  0
 28 29  2  0
 29 30  1  0
 30 31  2  0
 32 31  1  0
 33 35  1  0
 34 33  2  0
M  END
$$$$
