GSH.pdb
     RDKit          3D

 21 21  0  0  1  0  0  0  0  0999 V2000
   25.5337  -13.9490  -16.3742 N   0  0  0  0  0  0  0  0  0  0  0  0
   25.2242  -12.9690  -15.3583 C   0  0  0  0  0  0  0  0  0  0  0  0
   24.1422  -12.0941  -15.8319 C   0  0  0  0  0  0  0  0  0  0  0  0
   24.1717  -11.5371  -16.9684 O   0  0  0  0  0  0  0  0  0  0  0  0
   20.4250  -12.6732  -14.5839 O   0  0  0  0  0  0  0  0  0  0  0  0
   20.6631  -11.2964  -14.6749 C   0  0  0  0  0  0  0  0  0  0  0  0
   21.9264  -11.0111  -15.4531 C   0  0  2  0  0  0  0  0  0  0  0  0
   23.0076  -11.8389  -15.0181 N   0  0  0  0  0  0  0  0  0  0  0  0
   22.2221   -9.5587  -15.2931 C   0  0  0  0  0  0  0  0  0  0  0  0
   22.9214   -9.2045  -14.3096 O   0  0  0  0  0  0  0  0  0  0  0  0
   21.7539   -8.5671  -16.1932 N   0  0  0  0  0  0  0  0  0  0  0  0
   22.1674   -7.1681  -15.9772 C   0  0  1  0  0  0  0  0  0  0  0  0
   22.0148   -6.3731  -17.2205 C   0  0  0  0  0  0  0  0  0  0  0  0
   22.3860   -4.9648  -17.0082 C   0  0  0  0  0  0  0  0  0  0  0  0
   23.5601   -4.2961  -17.2166 C   0  0  0  0  0  0  0  0  0  0  0  0
   23.4008   -2.9637  -16.9504 N   0  0  0  0  0  0  0  0  0  0  0  0
   22.1272   -2.7958  -16.5768 C   0  0  0  0  0  0  0  0  0  0  0  0
   21.5160   -3.9747  -16.6076 N   0  0  0  0  0  0  0  0  0  0  0  0
   21.2534   -6.6465  -14.9161 C   0  0  0  0  0  0  0  0  0  0  0  0
   21.4624   -5.6560  -14.2113 O   0  0  0  0  0  0  0  0  0  0  0  0
   20.0554   -7.3330  -14.6947 O   0  0  0  0  0  0  0  0  0  0  0  0
  1  2  1  0
  3  2  1  0
  4  3  2  0
  5  6  1  0
  7  6  1  1
  7  9  1  0
  7  8  1  0
  8  3  1  0
  9 10  2  0
 11 12  1  0
 11  9  1  0
 12 13  1  6
 13 14  1  0
 14 15  2  0
 14 18  1  0
 15 16  1  0
 16 17  1  0
 18 17  2  0
 19 12  1  0
 20 19  2  0
 21 19  1  0
M  END
$$$$
