GSH.pdb
     RDKit          3D

 21 21  0  0  1  0  0  0  0  0999 V2000
   25.2781  -32.1234   -9.8020 N   0  0  0  0  0  0  0  0  0  0  0  0
   26.5901  -32.3052   -9.2241 C   0  0  0  0  0  0  0  0  0  0  0  0
   26.5204  -33.3058   -8.1498 C   0  0  0  0  0  0  0  0  0  0  0  0
   25.4355  -33.8684   -7.8192 O   0  0  0  0  0  0  0  0  0  0  0  0
   29.7400  -35.7455   -6.9270 O   0  0  0  0  0  0  0  0  0  0  0  0
   29.0556  -35.0257   -5.9399 C   0  0  0  0  0  0  0  0  0  0  0  0
   27.6608  -34.6652   -6.3954 C   0  0  2  0  0  0  0  0  0  0  0  0
   27.6864  -33.6827   -7.4334 N   0  0  0  0  0  0  0  0  0  0  0  0
   26.9119  -34.2022   -5.1924 C   0  0  0  0  0  0  0  0  0  0  0  0
   27.1389  -33.0403   -4.7680 O   0  0  0  0  0  0  0  0  0  0  0  0
   25.9629  -35.0071   -4.5111 N   0  0  0  0  0  0  0  0  0  0  0  0
   25.2159  -34.4151   -3.3858 C   0  0  1  0  0  0  0  0  0  0  0  0
   24.0336  -35.2426   -3.0415 C   0  0  0  0  0  0  0  0  0  0  0  0
   23.2659  -34.6508   -1.9341 C   0  0  0  0  0  0  0  0  0  0  0  0
   23.2879  -33.3996   -1.3835 C   0  0  0  0  0  0  0  0  0  0  0  0
   22.3248  -33.2890   -0.4183 N   0  0  0  0  0  0  0  0  0  0  0  0
   21.6974  -34.4694   -0.3642 C   0  0  0  0  0  0  0  0  0  0  0  0
   22.2462  -35.2841   -1.2582 N   0  0  0  0  0  0  0  0  0  0  0  0
   26.1787  -34.3909   -2.2430 C   0  0  0  0  0  0  0  0  0  0  0  0
   27.0721  -35.2166   -2.0388 O   0  0  0  0  0  0  0  0  0  0  0  0
   26.0658  -33.3469   -1.3196 O   0  0  0  0  0  0  0  0  0  0  0  0
  1  2  1  0
  3  2  1  0
  4  3  2  0
  5  6  1  0
  7  6  1  1
  7  9  1  0
  7  8  1  0
  8  3  1  0
  9 10  2  0
 11 12  1  0
 11  9  1  0
 12 13  1  1
 13 14  1  0
 14 15  2  0
 14 18  1  0
 15 16  1  0
 16 17  1  0
 18 17  2  0
 19 12  1  0
 20 19  2  0
 21 19  1  0
M  END
$$$$
