GSH.pdb
     RDKit          3D

 21 21  0  0  1  0  0  0  0  0999 V2000
   18.5169  -12.8858  -16.3015 N   0  0  0  0  0  0  0  0  0  0  0  0
   18.9007  -11.6948  -17.0244 C   0  0  0  0  0  0  0  0  0  0  0  0
   19.1802  -10.6101  -16.0729 C   0  0  0  0  0  0  0  0  0  0  0  0
   18.4505  -10.3934  -15.0613 O   0  0  0  0  0  0  0  0  0  0  0  0
   22.9182   -8.8304  -15.9438 O   0  0  0  0  0  0  0  0  0  0  0  0
   22.0204   -8.7439  -14.8727 C   0  0  0  0  0  0  0  0  0  0  0  0
   20.5922   -8.6797  -15.3614 C   0  0  2  0  0  0  0  0  0  0  0  0
   20.2966   -9.7532  -16.2578 N   0  0  0  0  0  0  0  0  0  0  0  0
   20.4040   -7.3427  -15.9935 C   0  0  0  0  0  0  0  0  0  0  0  0
   20.8555   -7.1711  -17.1547 O   0  0  0  0  0  0  0  0  0  0  0  0
   19.7442   -6.2649  -15.3490 N   0  0  0  0  0  0  0  0  0  0  0  0
   19.6240   -4.9822  -16.0667 C   0  0  1  0  0  0  0  0  0  0  0  0
   18.5835   -4.1247  -15.4477 C   0  0  0  0  0  0  0  0  0  0  0  0
   18.4562   -2.8387  -16.1522 C   0  0  0  0  0  0  0  0  0  0  0  0
   19.2222   -1.7069  -16.1173 C   0  0  0  0  0  0  0  0  0  0  0  0
   18.7538   -0.7891  -17.0171 N   0  0  0  0  0  0  0  0  0  0  0  0
   17.6955   -1.3451  -17.6177 C   0  0  0  0  0  0  0  0  0  0  0  0
   17.5098   -2.5598  -17.1136 N   0  0  0  0  0  0  0  0  0  0  0  0
   20.9655   -4.3350  -15.9441 C   0  0  0  0  0  0  0  0  0  0  0  0
   21.7206   -4.4253  -14.9729 O   0  0  0  0  0  0  0  0  0  0  0  0
   21.4128   -3.5575  -17.0169 O   0  0  0  0  0  0  0  0  0  0  0  0
  1  2  1  0
  3  2  1  0
  4  3  2  0
  5  6  1  0
  7  6  1  6
  7  9  1  0
  7  8  1  0
  8  3  1  0
  9 10  2  0
 11 12  1  0
 11  9  1  0
 12 13  1  1
 13 14  1  0
 14 15  2  0
 14 18  1  0
 15 16  1  0
 16 17  1  0
 18 17  2  0
 19 12  1  0
 20 19  2  0
 21 19  1  0
M  END
$$$$
