GSH.pdb
     RDKit          3D

 21 21  0  0  1  0  0  0  0  0999 V2000
   24.5083  -24.1274  -16.1266 N   0  0  0  0  0  0  0  0  0  0  0  0
   25.9391  -24.2141  -15.9432 C   0  0  0  0  0  0  0  0  0  0  0  0
   26.4762  -25.3038  -16.7705 C   0  0  0  0  0  0  0  0  0  0  0  0
   25.7569  -26.2650  -17.1725 O   0  0  0  0  0  0  0  0  0  0  0  0
   29.7439  -24.8501  -18.9831 O   0  0  0  0  0  0  0  0  0  0  0  0
   29.7869  -26.1119  -18.3775 C   0  0  0  0  0  0  0  0  0  0  0  0
   28.4579  -26.4616  -17.7496 C   0  0  2  0  0  0  0  0  0  0  0  0
   27.8428  -25.3169  -17.1539 N   0  0  0  0  0  0  0  0  0  0  0  0
   28.7114  -27.5494  -16.7622 C   0  0  0  0  0  0  0  0  0  0  0  0
   28.3083  -27.3806  -15.5829 O   0  0  0  0  0  0  0  0  0  0  0  0
   29.3813  -28.7559  -17.0909 N   0  0  0  0  0  0  0  0  0  0  0  0
   29.0208  -29.9839  -16.3581 C   0  0  1  0  0  0  0  0  0  0  0  0
   27.5689  -30.2646  -16.4776 C   0  0  0  0  0  0  0  0  0  0  0  0
   27.2026  -31.5112  -15.7862 C   0  0  0  0  0  0  0  0  0  0  0  0
   27.9053  -32.3121  -14.9295 C   0  0  0  0  0  0  0  0  0  0  0  0
   27.1120  -33.3284  -14.4719 N   0  0  0  0  0  0  0  0  0  0  0  0
   25.9117  -33.1646  -15.0396 C   0  0  0  0  0  0  0  0  0  0  0  0
   25.9534  -32.0907  -15.8202 N   0  0  0  0  0  0  0  0  0  0  0  0
   29.8117  -31.0749  -17.0044 C   0  0  0  0  0  0  0  0  0  0  0  0
   30.0265  -31.1868  -18.2139 O   0  0  0  0  0  0  0  0  0  0  0  0
   30.3598  -32.0591  -16.1758 O   0  0  0  0  0  0  0  0  0  0  0  0
  1  2  1  0
  3  2  1  0
  4  3  2  0
  5  6  1  0
  7  6  1  1
  7  9  1  0
  7  8  1  0
  8  3  1  0
  9 10  2  0
 11 12  1  0
 11  9  1  0
 12 13  1  6
 13 14  1  0
 14 15  2  0
 14 18  1  0
 15 16  1  0
 16 17  1  0
 18 17  2  0
 19 12  1  0
 20 19  2  0
 21 19  1  0
M  END
$$$$
