GSH.pdb
     RDKit          3D

 21 21  0  0  1  0  0  0  0  0999 V2000
   19.7007  -13.7954  -17.0294 N   0  0  0  0  0  0  0  0  0  0  0  0
   19.9055  -12.4995  -17.6352 C   0  0  0  0  0  0  0  0  0  0  0  0
   20.2855  -11.5271  -16.6006 C   0  0  0  0  0  0  0  0  0  0  0  0
   19.9295  -11.6519  -15.3921 O   0  0  0  0  0  0  0  0  0  0  0  0
   23.7046   -9.1809  -16.6889 O   0  0  0  0  0  0  0  0  0  0  0  0
   22.5097   -8.4840  -16.4716 C   0  0  0  0  0  0  0  0  0  0  0  0
   21.4271   -9.4037  -15.9569 C   0  0  2  0  0  0  0  0  0  0  0  0
   21.0781  -10.3953  -16.9256 N   0  0  0  0  0  0  0  0  0  0  0  0
   20.2676   -8.5474  -15.5764 C   0  0  0  0  0  0  0  0  0  0  0  0
   19.3795   -8.3392  -16.4423 O   0  0  0  0  0  0  0  0  0  0  0  0
   20.1227   -7.9622  -14.2923 N   0  0  0  0  0  0  0  0  0  0  0  0
   18.9133   -7.1657  -14.0136 C   0  0  1  0  0  0  0  0  0  0  0  0
   18.5031   -7.3048  -12.5947 C   0  0  0  0  0  0  0  0  0  0  0  0
   17.7686   -8.5598  -12.3669 C   0  0  0  0  0  0  0  0  0  0  0  0
   17.4947   -9.6123  -13.1953 C   0  0  0  0  0  0  0  0  0  0  0  0
   16.8469  -10.6015  -12.5072 N   0  0  0  0  0  0  0  0  0  0  0  0
   16.7158  -10.1709  -11.2474 C   0  0  0  0  0  0  0  0  0  0  0  0
   17.2586   -8.9623  -11.1522 N   0  0  0  0  0  0  0  0  0  0  0  0
   19.2981   -5.7508  -14.3027 C   0  0  0  0  0  0  0  0  0  0  0  0
   20.4424   -5.3493  -14.5282 O   0  0  0  0  0  0  0  0  0  0  0  0
   18.2811   -4.7912  -14.3214 O   0  0  0  0  0  0  0  0  0  0  0  0
  1  2  1  0
  3  2  1  0
  4  3  2  0
  5  6  1  0
  7  6  1  6
  7  9  1  0
  7  8  1  0
  8  3  1  0
  9 10  2  0
 11 12  1  0
 11  9  1  0
 12 13  1  1
 13 14  1  0
 14 15  2  0
 14 18  1  0
 15 16  1  0
 16 17  1  0
 18 17  2  0
 19 12  1  0
 20 19  2  0
 21 19  1  0
M  END
$$$$
