GSH.pdb
     RDKit          3D

 21 21  0  0  1  0  0  0  0  0999 V2000
   17.7305  -16.3712  -17.1843 N   0  0  0  0  0  0  0  0  0  0  0  0
   17.9780  -15.1116  -17.8481 C   0  0  0  0  0  0  0  0  0  0  0  0
   18.4155  -14.1133  -16.8620 C   0  0  0  0  0  0  0  0  0  0  0  0
   17.8273  -13.9566  -15.7520 O   0  0  0  0  0  0  0  0  0  0  0  0
   21.7671  -11.7266  -17.6945 O   0  0  0  0  0  0  0  0  0  0  0  0
   21.4003  -11.9239  -16.3576 C   0  0  0  0  0  0  0  0  0  0  0  0
   19.9254  -12.2281  -16.2354 C   0  0  2  0  0  0  0  0  0  0  0  0
   19.5315  -13.2762  -17.1242 N   0  0  0  0  0  0  0  0  0  0  0  0
   19.1918  -10.9565  -16.4951 C   0  0  0  0  0  0  0  0  0  0  0  0
   18.8253  -10.7178  -17.6742 O   0  0  0  0  0  0  0  0  0  0  0  0
   18.8913  -10.0122  -15.4799 N   0  0  0  0  0  0  0  0  0  0  0  0
   18.1518   -8.7913  -15.8504 C   0  0  1  0  0  0  0  0  0  0  0  0
   17.3640   -8.2805  -14.7016 C   0  0  0  0  0  0  0  0  0  0  0  0
   16.6445   -7.0444  -15.0490 C   0  0  0  0  0  0  0  0  0  0  0  0
   16.4154   -6.4373  -16.2523 C   0  0  0  0  0  0  0  0  0  0  0  0
   15.6168   -5.3391  -16.0851 N   0  0  0  0  0  0  0  0  0  0  0  0
   15.3435   -5.2580  -14.7780 C   0  0  0  0  0  0  0  0  0  0  0  0
   15.9468   -6.2635  -14.1541 N   0  0  0  0  0  0  0  0  0  0  0  0
   19.1993   -7.7988  -16.2392 C   0  0  0  0  0  0  0  0  0  0  0  0
   20.4097   -7.9130  -16.0307 O   0  0  0  0  0  0  0  0  0  0  0  0
   18.7824   -6.6369  -16.8962 O   0  0  0  0  0  0  0  0  0  0  0  0
  1  2  1  0
  3  2  1  0
  4  3  2  0
  5  6  1  0
  7  6  1  6
  7  9  1  0
  7  8  1  0
  8  3  1  0
  9 10  2  0
 11 12  1  0
 11  9  1  0
 12 13  1  1
 13 14  1  0
 14 15  2  0
 14 18  1  0
 15 16  1  0
 16 17  1  0
 18 17  2  0
 19 12  1  0
 20 19  2  0
 21 19  1  0
M  END
$$$$
