GSH.pdb
     RDKit          3D

 21 21  0  0  1  0  0  0  0  0999 V2000
   27.7019  -31.0635  -16.6468 N   0  0  0  0  0  0  0  0  0  0  0  0
   28.5364  -30.0521  -17.2544 C   0  0  0  0  0  0  0  0  0  0  0  0
   28.1128  -28.7224  -16.7934 C   0  0  0  0  0  0  0  0  0  0  0  0
   27.1435  -28.5605  -15.9953 O   0  0  0  0  0  0  0  0  0  0  0  0
   30.6179  -25.3243  -16.6596 O   0  0  0  0  0  0  0  0  0  0  0  0
   29.3768  -25.1962  -17.2951 C   0  0  0  0  0  0  0  0  0  0  0  0
   28.4033  -26.2441  -16.8081 C   0  0  2  0  0  0  0  0  0  0  0  0
   28.7869  -27.5536  -17.2343 N   0  0  0  0  0  0  0  0  0  0  0  0
   27.0536  -25.8559  -17.3082 C   0  0  0  0  0  0  0  0  0  0  0  0
   26.6991  -26.2803  -18.4378 O   0  0  0  0  0  0  0  0  0  0  0  0
   26.1593  -25.0361  -16.5730 N   0  0  0  0  0  0  0  0  0  0  0  0
   24.8274  -24.7596  -17.1425 C   0  0  1  0  0  0  0  0  0  0  0  0
   23.8097  -24.6308  -16.0707 C   0  0  0  0  0  0  0  0  0  0  0  0
   22.5063  -24.2143  -16.6127 C   0  0  0  0  0  0  0  0  0  0  0  0
   22.0472  -22.9971  -17.0332 C   0  0  0  0  0  0  0  0  0  0  0  0
   20.7822  -23.1166  -17.5403 N   0  0  0  0  0  0  0  0  0  0  0  0
   20.4482  -24.4081  -17.4400 C   0  0  0  0  0  0  0  0  0  0  0  0
   21.4622  -25.0684  -16.8921 N   0  0  0  0  0  0  0  0  0  0  0  0
   24.9727  -23.4643  -17.8737 C   0  0  0  0  0  0  0  0  0  0  0  0
   24.2622  -23.0826  -18.8070 O   0  0  0  0  0  0  0  0  0  0  0  0
   25.9998  -22.6036  -17.4739 O   0  0  0  0  0  0  0  0  0  0  0  0
  1  2  1  0
  3  2  1  0
  4  3  2  0
  5  6  1  0
  7  6  1  6
  7  9  1  0
  7  8  1  0
  8  3  1  0
  9 10  2  0
 11 12  1  0
 11  9  1  0
 12 13  1  1
 13 14  1  0
 14 15  2  0
 14 18  1  0
 15 16  1  0
 16 17  1  0
 18 17  2  0
 19 12  1  0
 20 19  2  0
 21 19  1  0
M  END
$$$$
