GSH.pdb
     RDKit          3D

 21 21  0  0  1  0  0  0  0  0999 V2000
   19.6474  -14.9932  -17.8080 N   0  0  0  0  0  0  0  0  0  0  0  0
   20.2943  -13.7586  -18.1897 C   0  0  0  0  0  0  0  0  0  0  0  0
   20.3852  -12.8694  -17.0229 C   0  0  0  0  0  0  0  0  0  0  0  0
   19.4545  -12.7764  -16.1697 O   0  0  0  0  0  0  0  0  0  0  0  0
   23.2013  -10.0249  -14.2682 O   0  0  0  0  0  0  0  0  0  0  0  0
   23.0976  -10.8922  -15.3626 C   0  0  0  0  0  0  0  0  0  0  0  0
   21.6522  -11.1752  -15.6998 C   0  0  2  0  0  0  0  0  0  0  0  0
   21.5388  -12.0707  -16.8083 N   0  0  0  0  0  0  0  0  0  0  0  0
   20.9967   -9.8618  -15.9602 C   0  0  0  0  0  0  0  0  0  0  0  0
   21.1579   -9.3368  -17.0916 O   0  0  0  0  0  0  0  0  0  0  0  0
   20.2061   -9.1839  -14.9969 N   0  0  0  0  0  0  0  0  0  0  0  0
   19.6476   -7.8646  -15.3465 C   0  0  1  0  0  0  0  0  0  0  0  0
   18.2895   -7.6961  -14.7736 C   0  0  0  0  0  0  0  0  0  0  0  0
   17.7163   -6.3863  -15.1229 C   0  0  0  0  0  0  0  0  0  0  0  0
   18.1431   -5.1131  -14.8661 C   0  0  0  0  0  0  0  0  0  0  0  0
   17.3166   -4.2050  -15.4694 N   0  0  0  0  0  0  0  0  0  0  0  0
   16.3728   -4.9077  -16.1059 C   0  0  0  0  0  0  0  0  0  0  0  0
   16.5996   -6.2014  -15.9080 N   0  0  0  0  0  0  0  0  0  0  0  0
   20.5869   -6.8680  -14.7483 C   0  0  0  0  0  0  0  0  0  0  0  0
   21.3385   -7.0732  -13.7920 O   0  0  0  0  0  0  0  0  0  0  0  0
   20.6248   -5.5895  -15.3134 O   0  0  0  0  0  0  0  0  0  0  0  0
  1  2  1  0
  3  2  1  0
  4  3  2  0
  5  6  1  0
  7  6  1  6
  7  9  1  0
  7  8  1  0
  8  3  1  0
  9 10  2  0
 11 12  1  0
 11  9  1  0
 12 13  1  1
 13 14  1  0
 14 15  2  0
 14 18  1  0
 15 16  1  0
 16 17  1  0
 18 17  2  0
 19 12  1  0
 20 19  2  0
 21 19  1  0
M  END
$$$$
