GSH.pdb
     RDKit          3D

 21 21  0  0  1  0  0  0  0  0999 V2000
   42.9922  -12.5106   -9.0280 N   0  0  0  0  0  0  0  0  0  0  0  0
   42.4576  -11.7036   -7.9550 C   0  0  0  0  0  0  0  0  0  0  0  0
   41.1911  -11.0927   -8.3826 C   0  0  0  0  0  0  0  0  0  0  0  0
   40.8378  -11.0491   -9.5975 O   0  0  0  0  0  0  0  0  0  0  0  0
   37.8881  -10.8997   -5.9443 O   0  0  0  0  0  0  0  0  0  0  0  0
   38.1713   -9.6993   -6.6072 C   0  0  0  0  0  0  0  0  0  0  0  0
   39.0565   -9.9348   -7.8087 C   0  0  2  0  0  0  0  0  0  0  0  0
   40.3050  -10.5207   -7.4326 N   0  0  0  0  0  0  0  0  0  0  0  0
   39.2278   -8.6211   -8.4923 C   0  0  0  0  0  0  0  0  0  0  0  0
   40.1844   -7.8890   -8.1309 O   0  0  0  0  0  0  0  0  0  0  0  0
   38.3672   -8.1641   -9.5234 N   0  0  0  0  0  0  0  0  0  0  0  0
   38.6244   -6.8405  -10.1205 C   0  0  1  0  0  0  0  0  0  0  0  0
   37.7788   -6.6279  -11.3208 C   0  0  0  0  0  0  0  0  0  0  0  0
   37.9744   -5.2831  -11.8862 C   0  0  0  0  0  0  0  0  0  0  0  0
   38.9765   -4.7609  -12.6558 C   0  0  0  0  0  0  0  0  0  0  0  0
   38.6786   -3.4744  -13.0133 N   0  0  0  0  0  0  0  0  0  0  0  0
   37.4896   -3.1899  -12.4700 C   0  0  0  0  0  0  0  0  0  0  0  0
   37.0624   -4.2543  -11.8001 N   0  0  0  0  0  0  0  0  0  0  0  0
   38.2680   -5.8526   -9.0572 C   0  0  0  0  0  0  0  0  0  0  0  0
   37.3115   -5.9436   -8.2836 O   0  0  0  0  0  0  0  0  0  0  0  0
   39.0820   -4.7240   -8.9189 O   0  0  0  0  0  0  0  0  0  0  0  0
  1  2  1  0
  3  2  1  0
  4  3  2  0
  5  6  1  0
  7  6  1  1
  7  9  1  0
  7  8  1  0
  8  3  1  0
  9 10  2  0
 11 12  1  0
 11  9  1  0
 12 13  1  6
 13 14  1  0
 14 15  2  0
 14 18  1  0
 15 16  1  0
 16 17  1  0
 18 17  2  0
 19 12  1  0
 20 19  2  0
 21 19  1  0
M  END
$$$$
