GSH.pdb
     RDKit          3D

 21 21  0  0  1  0  0  0  0  0999 V2000
   20.7006  -12.6880  -18.4526 N   0  0  0  0  0  0  0  0  0  0  0  0
   19.9432  -11.6745  -17.7543 C   0  0  0  0  0  0  0  0  0  0  0  0
   20.8648  -10.7339  -17.1014 C   0  0  0  0  0  0  0  0  0  0  0  0
   20.9040  -10.5884  -15.8444 O   0  0  0  0  0  0  0  0  0  0  0  0
   24.7084   -9.3549  -18.3249 O   0  0  0  0  0  0  0  0  0  0  0  0
   23.6404   -8.4524  -18.2497 C   0  0  0  0  0  0  0  0  0  0  0  0
   22.5847   -8.9352  -17.2827 C   0  0  2  0  0  0  0  0  0  0  0  0
   21.7579   -9.9426  -17.8701 N   0  0  0  0  0  0  0  0  0  0  0  0
   21.8050   -7.7401  -16.8510 C   0  0  0  0  0  0  0  0  0  0  0  0
   20.9165   -7.3043  -17.6270 O   0  0  0  0  0  0  0  0  0  0  0  0
   22.0191   -7.0783  -15.6146 N   0  0  0  0  0  0  0  0  0  0  0  0
   21.1618   -5.9279  -15.2738 C   0  0  1  0  0  0  0  0  0  0  0  0
   20.1207   -6.3164  -14.2908 C   0  0  0  0  0  0  0  0  0  0  0  0
   18.9996   -7.0141  -14.9410 C   0  0  0  0  0  0  0  0  0  0  0  0
   18.8144   -7.4246  -16.2318 C   0  0  0  0  0  0  0  0  0  0  0  0
   17.6380   -8.1133  -16.3464 N   0  0  0  0  0  0  0  0  0  0  0  0
   17.0860   -8.1367  -15.1280 C   0  0  0  0  0  0  0  0  0  0  0  0
   17.8841   -7.4887  -14.2869 N   0  0  0  0  0  0  0  0  0  0  0  0
   22.0826   -4.9139  -14.6759 C   0  0  0  0  0  0  0  0  0  0  0  0
   23.2796   -5.0854  -14.4328 O   0  0  0  0  0  0  0  0  0  0  0  0
   21.5516   -3.6591  -14.3608 O   0  0  0  0  0  0  0  0  0  0  0  0
  1  2  1  0
  3  2  1  0
  4  3  2  0
  5  6  1  0
  7  6  1  6
  7  9  1  0
  7  8  1  0
  8  3  1  0
  9 10  2  0
 11 12  1  0
 11  9  1  0
 12 13  1  1
 13 14  1  0
 14 15  2  0
 14 18  1  0
 15 16  1  0
 16 17  1  0
 18 17  2  0
 19 12  1  0
 20 19  2  0
 21 19  1  0
M  END
$$$$
