GSH.pdb
     RDKit          3D

 21 21  0  0  1  0  0  0  0  0999 V2000
   22.4208  -12.6283  -17.3165 N   0  0  0  0  0  0  0  0  0  0  0  0
   22.2551  -11.2765  -17.7998 C   0  0  0  0  0  0  0  0  0  0  0  0
   22.1876  -10.3511  -16.6599 C   0  0  0  0  0  0  0  0  0  0  0  0
   22.1399  -10.7567  -15.4616 O   0  0  0  0  0  0  0  0  0  0  0  0
   21.5082   -6.2452  -17.2706 O   0  0  0  0  0  0  0  0  0  0  0  0
   22.4078   -6.6046  -16.2595 C   0  0  0  0  0  0  0  0  0  0  0  0
   22.1566   -8.0157  -15.7815 C   0  0  2  0  0  0  0  0  0  0  0  0
   22.1734   -8.9467  -16.8661 N   0  0  0  0  0  0  0  0  0  0  0  0
   20.8532   -8.0088  -15.0580 C   0  0  0  0  0  0  0  0  0  0  0  0
   19.8214   -8.3338  -15.6994 O   0  0  0  0  0  0  0  0  0  0  0  0
   20.7262   -7.6551  -13.6900 N   0  0  0  0  0  0  0  0  0  0  0  0
   19.3890   -7.7067  -13.0704 C   0  0  1  0  0  0  0  0  0  0  0  0
   19.4887   -8.0021  -11.6200 C   0  0  0  0  0  0  0  0  0  0  0  0
   18.1869   -7.8540  -10.9494 C   0  0  0  0  0  0  0  0  0  0  0  0
   16.9174   -8.1531  -11.3594 C   0  0  0  0  0  0  0  0  0  0  0  0
   16.0248   -7.9167  -10.3500 N   0  0  0  0  0  0  0  0  0  0  0  0
   16.7337   -7.4712   -9.3065 C   0  0  0  0  0  0  0  0  0  0  0  0
   18.0161   -7.4302   -9.6498 N   0  0  0  0  0  0  0  0  0  0  0  0
   18.8046   -6.3474  -13.2808 C   0  0  0  0  0  0  0  0  0  0  0  0
   17.6081   -6.0591  -13.1977 O   0  0  0  0  0  0  0  0  0  0  0  0
   19.6807   -5.3053  -13.6003 O   0  0  0  0  0  0  0  0  0  0  0  0
  1  2  1  0
  3  2  1  0
  4  3  2  0
  5  6  1  0
  7  6  1  6
  7  9  1  0
  7  8  1  0
  8  3  1  0
  9 10  2  0
 11 12  1  0
 11  9  1  0
 12 13  1  1
 13 14  1  0
 14 15  2  0
 14 18  1  0
 15 16  1  0
 16 17  1  0
 18 17  2  0
 19 12  1  0
 20 19  2  0
 21 19  1  0
M  END
$$$$
