GSH.pdb
     RDKit          3D

 21 21  0  0  1  0  0  0  0  0999 V2000
   28.3676  -18.9082  -16.5597 N   0  0  0  0  0  0  0  0  0  0  0  0
   28.0398  -18.7627  -15.1597 C   0  0  0  0  0  0  0  0  0  0  0  0
   26.9888  -19.7243  -14.7978 C   0  0  0  0  0  0  0  0  0  0  0  0
   26.3020  -20.3348  -15.6687 O   0  0  0  0  0  0  0  0  0  0  0  0
   24.6817  -22.1025  -11.2169 O   0  0  0  0  0  0  0  0  0  0  0  0
   25.7313  -21.2540  -11.5898 C   0  0  0  0  0  0  0  0  0  0  0  0
   25.6237  -20.8589  -13.0441 C   0  0  2  0  0  0  0  0  0  0  0  0
   26.7024  -20.0070  -13.4366 N   0  0  0  0  0  0  0  0  0  0  0  0
   24.2929  -20.2120  -13.2260 C   0  0  0  0  0  0  0  0  0  0  0  0
   24.0807  -19.1235  -12.6328 O   0  0  0  0  0  0  0  0  0  0  0  0
   23.2643  -20.7648  -14.0316 N   0  0  0  0  0  0  0  0  0  0  0  0
   21.9946  -20.0255  -14.1580 C   0  0  1  0  0  0  0  0  0  0  0  0
   21.6426  -19.8181  -15.5842 C   0  0  0  0  0  0  0  0  0  0  0  0
   20.4148  -19.0187  -15.7253 C   0  0  0  0  0  0  0  0  0  0  0  0
   20.0784  -17.7830  -15.2469 C   0  0  0  0  0  0  0  0  0  0  0  0
   18.8463  -17.4133  -15.7127 N   0  0  0  0  0  0  0  0  0  0  0  0
   18.4104  -18.4155  -16.4843 C   0  0  0  0  0  0  0  0  0  0  0  0
   19.3316  -19.3722  -16.4995 N   0  0  0  0  0  0  0  0  0  0  0  0
   20.9694  -20.8866  -13.4939 C   0  0  0  0  0  0  0  0  0  0  0  0
   21.0127  -22.1162  -13.4049 O   0  0  0  0  0  0  0  0  0  0  0  0
   19.8615  -20.2544  -12.9210 O   0  0  0  0  0  0  0  0  0  0  0  0
  1  2  1  0
  3  2  1  0
  4  3  2  0
  5  6  1  0
  7  6  1  1
  7  9  1  0
  7  8  1  0
  8  3  1  0
  9 10  2  0
 11 12  1  0
 11  9  1  0
 12 13  1  6
 13 14  1  0
 14 15  2  0
 14 18  1  0
 15 16  1  0
 16 17  1  0
 18 17  2  0
 19 12  1  0
 20 19  2  0
 21 19  1  0
M  END
$$$$
