CGA.pdb
     RDKit          3D

 16 15  0  0  1  0  0  0  0  0999 V2000
   25.1299  -22.3320  -12.0822 N   0  0  0  0  0  0  0  0  0  0  0  0
   25.4837  -20.9513  -11.8533 C   0  0  1  0  0  0  0  0  0  0  0  0
   26.0084  -20.7575  -10.4495 C   0  0  0  0  0  0  0  0  0  0  0  0
   24.6622  -20.8109   -9.2379 S   0  0  0  0  0  0  0  0  0  0  0  0
   26.5081  -20.4718  -12.7994 C   0  0  0  0  0  0  0  0  0  0  0  0
   27.6580  -20.9701  -12.7302 O   0  0  0  0  0  0  0  0  0  0  0  0
   26.2104  -19.4781  -13.7610 N   0  0  0  0  0  0  0  0  0  0  0  0
   27.1978  -19.0517  -14.6954 C   0  0  0  0  0  0  0  0  0  0  0  0
   26.7594  -17.9631  -15.5752 C   0  0  0  0  0  0  0  0  0  0  0  0
   25.5917  -17.4912  -15.5847 O   0  0  0  0  0  0  0  0  0  0  0  0
   28.5058  -15.7547  -18.0922 C   0  0  0  0  0  0  0  0  0  0  0  0
   27.3004  -16.2715  -17.3373 C   0  0  2  0  0  0  0  0  0  0  0  0
   27.6937  -17.3902  -16.4814 N   0  0  0  0  0  0  0  0  0  0  0  0
   26.2826  -16.7629  -18.3019 C   0  0  0  0  0  0  0  0  0  0  0  0
   26.2374  -17.9788  -18.6250 O   0  0  0  0  0  0  0  0  0  0  0  0
   25.3391  -15.9270  -18.8931 O   0  0  0  0  0  0  0  0  0  0  0  0
  2  1  1  6
  3  2  1  0
  4  3  1  0
  5  2  1  0
  5  6  2  0
  7  5  1  0
  8  7  1  0
  9  8  1  0
 10  9  2  0
 12 13  1  0
 12 11  1  6
 13  9  1  0
 14 12  1  0
 15 14  2  0
 16 14  1  0
M  END
$$$$
