CGA.pdb
     RDKit          3D

 16 15  0  0  1  0  0  0  0  0999 V2000
   20.4039   -9.7844  -17.6875 N   0  0  0  0  0  0  0  0  0  0  0  0
   18.9675   -9.9180  -17.6363 C   0  0  1  0  0  0  0  0  0  0  0  0
   18.5676  -11.0768  -16.7525 C   0  0  0  0  0  0  0  0  0  0  0  0
   19.6700  -12.4937  -16.9978 S   0  0  0  0  0  0  0  0  0  0  0  0
   18.3100   -8.7005  -17.1269 C   0  0  0  0  0  0  0  0  0  0  0  0
   17.0581   -8.6969  -17.0365 O   0  0  0  0  0  0  0  0  0  0  0  0
   19.0627   -7.5643  -16.7486 N   0  0  0  0  0  0  0  0  0  0  0  0
   18.4209   -6.4173  -16.1984 C   0  0  0  0  0  0  0  0  0  0  0  0
   19.1154   -5.8388  -15.0432 C   0  0  0  0  0  0  0  0  0  0  0  0
   18.7592   -4.7778  -14.4654 O   0  0  0  0  0  0  0  0  0  0  0  0
   21.6036   -7.1387  -12.5970 C   0  0  0  0  0  0  0  0  0  0  0  0
   20.9253   -5.9976  -13.3235 C   0  0  2  0  0  0  0  0  0  0  0  0
   20.2639   -6.4998  -14.5272 N   0  0  0  0  0  0  0  0  0  0  0  0
   21.9427   -4.9972  -13.7380 C   0  0  0  0  0  0  0  0  0  0  0  0
   22.3774   -4.9741  -14.9193 O   0  0  0  0  0  0  0  0  0  0  0  0
   22.4648   -4.0468  -12.8647 O   0  0  0  0  0  0  0  0  0  0  0  0
  2  1  1  1
  3  2  1  0
  4  3  1  0
  5  2  1  0
  5  6  2  0
  7  5  1  0
  8  7  1  0
  9  8  1  0
 10  9  2  0
 12 13  1  0
 12 11  1  6
 13  9  1  0
 14 12  1  0
 15 14  2  0
 16 14  1  0
M  END
$$$$
