CGA.pdb
     RDKit          3D

 16 15  0  0  1  0  0  0  0  0999 V2000
   20.0035  -12.4855  -17.0395 N   0  0  0  0  0  0  0  0  0  0  0  0
   18.9226  -11.6131  -16.6467 C   0  0  1  0  0  0  0  0  0  0  0  0
   18.5497  -11.8388  -15.1998 C   0  0  0  0  0  0  0  0  0  0  0  0
   18.2247  -13.5918  -14.8768 S   0  0  0  0  0  0  0  0  0  0  0  0
   19.2623  -10.1886  -16.8191 C   0  0  0  0  0  0  0  0  0  0  0  0
   18.3723   -9.3349  -16.5858 O   0  0  0  0  0  0  0  0  0  0  0  0
   20.5532   -9.7879  -17.2357 N   0  0  0  0  0  0  0  0  0  0  0  0
   20.8757   -8.4072  -17.3767 C   0  0  0  0  0  0  0  0  0  0  0  0
   21.5911   -7.8389  -16.2293 C   0  0  0  0  0  0  0  0  0  0  0  0
   21.7024   -8.4125  -15.1135 O   0  0  0  0  0  0  0  0  0  0  0  0
   23.8061   -4.8451  -15.7199 C   0  0  0  0  0  0  0  0  0  0  0  0
   22.9095   -5.9618  -15.2309 C   0  0  2  0  0  0  0  0  0  0  0  0
   22.2044   -6.5628  -16.3623 N   0  0  0  0  0  0  0  0  0  0  0  0
   21.8962   -5.4118  -14.2937 C   0  0  0  0  0  0  0  0  0  0  0  0
   20.7468   -5.0988  -14.7011 O   0  0  0  0  0  0  0  0  0  0  0  0
   22.1510   -5.2139  -12.9393 O   0  0  0  0  0  0  0  0  0  0  0  0
  2  1  1  1
  3  2  1  0
  4  3  1  0
  5  2  1  0
  5  6  2  0
  7  5  1  0
  8  7  1  0
  9  8  1  0
 10  9  2  0
 12 13  1  0
 12 11  1  6
 13  9  1  0
 14 12  1  0
 15 14  2  0
 16 14  1  0
M  END
$$$$
