CGA.pdb
     RDKit          3D

 16 15  0  0  1  0  0  0  0  0999 V2000
   19.4938  -10.0235  -15.3696 N   0  0  0  0  0  0  0  0  0  0  0  0
   18.2657  -10.1288  -14.6182 C   0  0  1  0  0  0  0  0  0  0  0  0
   17.7500  -11.5492  -14.6294 C   0  0  0  0  0  0  0  0  0  0  0  0
   17.1973  -12.0284  -16.2870 S   0  0  0  0  0  0  0  0  0  0  0  0
   18.4307   -9.7085  -13.2145 C   0  0  0  0  0  0  0  0  0  0  0  0
   19.5255   -9.9476  -12.6492 O   0  0  0  0  0  0  0  0  0  0  0  0
   17.3884   -9.0534  -12.5179 N   0  0  0  0  0  0  0  0  0  0  0  0
   17.6257   -8.4602  -11.2444 C   0  0  0  0  0  0  0  0  0  0  0  0
   16.4665   -7.7557  -10.6864 C   0  0  0  0  0  0  0  0  0  0  0  0
   15.5023   -7.3290  -11.3752 O   0  0  0  0  0  0  0  0  0  0  0  0
   15.3096   -7.0075   -7.1736 C   0  0  0  0  0  0  0  0  0  0  0  0
   15.2123   -6.9379   -8.6822 C   0  0  2  0  0  0  0  0  0  0  0  0
   16.4068   -7.5296   -9.2837 N   0  0  0  0  0  0  0  0  0  0  0  0
   15.1341   -5.5172   -9.1105 C   0  0  0  0  0  0  0  0  0  0  0  0
   16.1632   -4.9060   -9.5007 O   0  0  0  0  0  0  0  0  0  0  0  0
   13.9450   -4.7930   -9.1060 O   0  0  0  0  0  0  0  0  0  0  0  0
  2  1  1  6
  3  2  1  0
  4  3  1  0
  5  2  1  0
  5  6  2  0
  7  5  1  0
  8  7  1  0
  9  8  1  0
 10  9  2  0
 12 13  1  0
 12 11  1  1
 13  9  1  0
 14 12  1  0
 15 14  2  0
 16 14  1  0
M  END
$$$$
