CGA.pdb
     RDKit          3D

 16 15  0  0  1  0  0  0  0  0999 V2000
   17.2741  -22.8500  -12.2824 N   0  0  0  0  0  0  0  0  0  0  0  0
   18.6346  -22.5221  -11.9285 C   0  0  1  0  0  0  0  0  0  0  0  0
   19.5362  -23.7237  -12.0927 C   0  0  0  0  0  0  0  0  0  0  0  0
   19.2666  -24.9266  -10.7649 S   0  0  0  0  0  0  0  0  0  0  0  0
   19.1767  -21.4226  -12.7480 C   0  0  0  0  0  0  0  0  0  0  0  0
   18.6644  -21.2155  -13.8749 O   0  0  0  0  0  0  0  0  0  0  0  0
   20.2444  -20.6195  -12.2835 N   0  0  0  0  0  0  0  0  0  0  0  0
   20.6784  -19.4852  -13.0287 C   0  0  0  0  0  0  0  0  0  0  0  0
   21.4587  -19.8176  -14.2254 C   0  0  0  0  0  0  0  0  0  0  0  0
   22.1256  -20.8774  -14.3603 O   0  0  0  0  0  0  0  0  0  0  0  0
   21.8929  -18.2198  -17.6131 C   0  0  0  0  0  0  0  0  0  0  0  0
   22.2466  -19.2037  -16.5191 C   0  0  2  0  0  0  0  0  0  0  0  0
   21.4774  -18.9012  -15.3127 N   0  0  0  0  0  0  0  0  0  0  0  0
   23.6904  -19.0830  -16.1895 C   0  0  0  0  0  0  0  0  0  0  0  0
   24.5613  -19.6527  -16.8980 O   0  0  0  0  0  0  0  0  0  0  0  0
   24.1564  -18.3493  -15.1019 O   0  0  0  0  0  0  0  0  0  0  0  0
  2  1  1  6
  3  2  1  0
  4  3  1  0
  5  2  1  0
  5  6  2  0
  7  5  1  0
  8  7  1  0
  9  8  1  0
 10  9  2  0
 12 13  1  0
 12 11  1  6
 13  9  1  0
 14 12  1  0
 15 14  2  0
 16 14  1  0
M  END
$$$$
