CGA.pdb
     RDKit          3D

 16 15  0  0  1  0  0  0  0  0999 V2000
   16.5555  -11.1534  -16.7839 N   0  0  0  0  0  0  0  0  0  0  0  0
   17.5304  -11.1660  -15.7194 C   0  0  1  0  0  0  0  0  0  0  0  0
   17.9770  -12.5777  -15.4175 C   0  0  0  0  0  0  0  0  0  0  0  0
   16.7326  -13.4594  -14.4392 S   0  0  0  0  0  0  0  0  0  0  0  0
   18.7241  -10.3636  -16.0442 C   0  0  0  0  0  0  0  0  0  0  0  0
   19.4595  -10.7498  -16.9853 O   0  0  0  0  0  0  0  0  0  0  0  0
   19.0382   -9.1900  -15.3198 N   0  0  0  0  0  0  0  0  0  0  0  0
   20.1601   -8.3901  -15.6825 C   0  0  0  0  0  0  0  0  0  0  0  0
   20.3887   -7.2427  -14.7978 C   0  0  0  0  0  0  0  0  0  0  0  0
   19.6364   -6.9329  -13.8364 O   0  0  0  0  0  0  0  0  0  0  0  0
   23.1327   -4.6803  -14.4473 C   0  0  0  0  0  0  0  0  0  0  0  0
   21.7445   -5.2281  -14.1964 C   0  0  2  0  0  0  0  0  0  0  0  0
   21.5236   -6.4154  -15.0210 N   0  0  0  0  0  0  0  0  0  0  0  0
   20.7318   -4.2082  -14.5733 C   0  0  0  0  0  0  0  0  0  0  0  0
   20.2655   -4.1668  -15.7420 O   0  0  0  0  0  0  0  0  0  0  0  0
   20.2486   -3.2586  -13.6771 O   0  0  0  0  0  0  0  0  0  0  0  0
  2  1  1  6
  3  2  1  0
  4  3  1  0
  5  2  1  0
  5  6  2  0
  7  5  1  0
  8  7  1  0
  9  8  1  0
 10  9  2  0
 12 13  1  0
 12 11  1  6
 13  9  1  0
 14 12  1  0
 15 14  2  0
 16 14  1  0
M  END
$$$$
