CGA.pdb
     RDKit          3D

 16 15  0  0  1  0  0  0  0  0999 V2000
   22.6594  -11.9514  -19.2460 N   0  0  0  0  0  0  0  0  0  0  0  0
   21.6280  -11.2464  -18.5229 C   0  0  1  0  0  0  0  0  0  0  0  0
   20.6345  -12.2151  -17.9245 C   0  0  0  0  0  0  0  0  0  0  0  0
   19.5741  -12.9350  -19.2052 S   0  0  0  0  0  0  0  0  0  0  0  0
   22.1755  -10.4154  -17.4348 C   0  0  0  0  0  0  0  0  0  0  0  0
   23.1359  -10.8710  -16.7673 O   0  0  0  0  0  0  0  0  0  0  0  0
   21.6384   -9.1393  -17.1455 N   0  0  0  0  0  0  0  0  0  0  0  0
   22.1947   -8.3342  -16.1099 C   0  0  0  0  0  0  0  0  0  0  0  0
   21.4932   -7.0638  -15.8966 C   0  0  0  0  0  0  0  0  0  0  0  0
   20.7028   -6.5465  -16.7296 O   0  0  0  0  0  0  0  0  0  0  0  0
   19.7446   -5.4107  -13.5870 C   0  0  0  0  0  0  0  0  0  0  0  0
   20.9761   -5.1152  -14.4153 C   0  0  2  0  0  0  0  0  0  0  0  0
   21.7037   -6.3555  -14.6815 N   0  0  0  0  0  0  0  0  0  0  0  0
   21.8757   -4.2041  -13.6613 C   0  0  0  0  0  0  0  0  0  0  0  0
   22.8136   -4.6636  -12.9584 O   0  0  0  0  0  0  0  0  0  0  0  0
   21.7385   -2.8188  -13.6863 O   0  0  0  0  0  0  0  0  0  0  0  0
  2  1  1  1
  3  2  1  0
  4  3  1  0
  5  2  1  0
  5  6  2  0
  7  5  1  0
  8  7  1  0
  9  8  1  0
 10  9  2  0
 12 13  1  0
 12 11  1  1
 13  9  1  0
 14 12  1  0
 15 14  2  0
 16 14  1  0
M  END
$$$$
