CGA.pdb
     RDKit          3D

 16 15  0  0  1  0  0  0  0  0999 V2000
   15.2221   -8.3412   -8.0516 N   0  0  0  0  0  0  0  0  0  0  0  0
   14.5106   -7.5002   -8.9844 C   0  0  1  0  0  0  0  0  0  0  0  0
   13.6658   -6.4828   -8.2530 C   0  0  0  0  0  0  0  0  0  0  0  0
   12.4328   -7.2943   -7.2023 S   0  0  0  0  0  0  0  0  0  0  0  0
   15.4200   -6.7779   -9.8930 C   0  0  0  0  0  0  0  0  0  0  0  0
   16.5155   -6.3714   -9.4348 O   0  0  0  0  0  0  0  0  0  0  0  0
   15.0740   -6.5458  -11.2447 N   0  0  0  0  0  0  0  0  0  0  0  0
   16.0188   -5.9831  -12.1507 C   0  0  0  0  0  0  0  0  0  0  0  0
   16.6308   -6.9578  -13.0600 C   0  0  0  0  0  0  0  0  0  0  0  0
   16.3925   -8.1942  -13.0321 O   0  0  0  0  0  0  0  0  0  0  0  0
   18.5413   -6.5906  -16.2649 C   0  0  0  0  0  0  0  0  0  0  0  0
   18.0054   -7.3989  -15.1032 C   0  0  2  0  0  0  0  0  0  0  0  0
   17.5529   -6.5008  -14.0414 N   0  0  0  0  0  0  0  0  0  0  0  0
   19.0867   -8.2570  -14.5535 C   0  0  0  0  0  0  0  0  0  0  0  0
   19.8025   -7.8563  -13.5985 O   0  0  0  0  0  0  0  0  0  0  0  0
   19.3672   -9.5270  -15.0504 O   0  0  0  0  0  0  0  0  0  0  0  0
  2  1  1  1
  3  2  1  0
  4  3  1  0
  5  2  1  0
  5  6  2  0
  7  5  1  0
  8  7  1  0
  9  8  1  0
 10  9  2  0
 12 13  1  0
 12 11  1  6
 13  9  1  0
 14 12  1  0
 15 14  2  0
 16 14  1  0
M  END
$$$$
