CGA.pdb
     RDKit          3D

 16 15  0  0  1  0  0  0  0  0999 V2000
   22.7187  -14.0163  -16.0709 N   0  0  0  0  0  0  0  0  0  0  0  0
   23.5851  -12.8893  -15.8197 C   0  0  1  0  0  0  0  0  0  0  0  0
   24.9813  -13.1619  -16.3294 C   0  0  0  0  0  0  0  0  0  0  0  0
   25.8313  -14.3736  -15.2844 S   0  0  0  0  0  0  0  0  0  0  0  0
   23.0943  -11.6531  -16.4563 C   0  0  0  0  0  0  0  0  0  0  0  0
   22.6330  -11.7295  -17.6211 O   0  0  0  0  0  0  0  0  0  0  0  0
   23.1388  -10.4121  -15.7791 N   0  0  0  0  0  0  0  0  0  0  0  0
   22.6272   -9.2314  -16.3909 C   0  0  0  0  0  0  0  0  0  0  0  0
   22.1002   -8.2451  -15.4417 C   0  0  0  0  0  0  0  0  0  0  0  0
   21.8878   -8.4829  -14.2232 O   0  0  0  0  0  0  0  0  0  0  0  0
   21.2409   -4.5747  -15.6828 C   0  0  0  0  0  0  0  0  0  0  0  0
   21.3758   -5.8989  -14.9628 C   0  0  2  0  0  0  0  0  0  0  0  0
   21.8037   -6.9333  -15.9038 N   0  0  0  0  0  0  0  0  0  0  0  0
   20.0579   -6.2980  -14.4047 C   0  0  0  0  0  0  0  0  0  0  0  0
   19.2644   -7.0089  -15.0754 O   0  0  0  0  0  0  0  0  0  0  0  0
   19.6308   -5.9183  -13.1350 O   0  0  0  0  0  0  0  0  0  0  0  0
  2  1  1  6
  3  2  1  0
  4  3  1  0
  5  2  1  0
  5  6  2  0
  7  5  1  0
  8  7  1  0
  9  8  1  0
 10  9  2  0
 12 13  1  0
 12 11  1  6
 13  9  1  0
 14 12  1  0
 15 14  2  0
 16 14  1  0
M  END
$$$$
