MFH.pdb
     RDKit          3D

 30 31  0  0  1  0  0  0  0  0999 V2000
   21.1925  -16.7478    1.2609 C   0  0  0  0  0  0  0  0  0  0  0  0
   20.6141  -15.0188    1.2459 S   0  0  0  0  0  0  0  0  0  0  0  0
   18.8702  -15.0369    1.7334 C   0  0  0  0  0  0  0  0  0  0  0  0
   18.6968  -15.3882    3.1935 C   0  0  0  0  0  0  0  0  0  0  0  0
   17.2425  -15.4077    3.6083 C   0  0  2  0  0  0  0  0  0  0  0  0
   16.7766  -14.0325    3.5702 N   0  0  0  0  0  0  0  0  0  0  0  0
   17.1863  -15.9689    4.9765 C   0  0  0  0  0  0  0  0  0  0  0  0
   16.9943  -15.2492    5.9829 O   0  0  0  0  0  0  0  0  0  0  0  0
   17.3538  -17.3579    5.1603 N   0  0  0  0  0  0  0  0  0  0  0  0
   17.2715  -17.9125    6.4943 C   0  0  1  0  0  0  0  0  0  0  0  0
   16.8377  -19.3531    6.5023 C   0  0  0  0  0  0  0  0  0  0  0  0
   16.7710  -19.9444    7.8381 C   0  0  0  0  0  0  0  0  0  0  0  0
   15.8068  -19.4925    8.7259 C   0  0  0  0  0  0  0  0  0  0  0  0
   15.6586  -19.9805   10.0033 C   0  0  0  0  0  0  0  0  0  0  0  0
   16.5366  -20.9849   10.4085 C   0  0  0  0  0  0  0  0  0  0  0  0
   17.5077  -21.4626    9.5605 C   0  0  0  0  0  0  0  0  0  0  0  0
   17.6080  -20.9385    8.2993 C   0  0  0  0  0  0  0  0  0  0  0  0
   18.6743  -17.8779    7.0469 C   0  0  0  0  0  0  0  0  0  0  0  0
   19.6630  -18.3241    6.3828 O   0  0  0  0  0  0  0  0  0  0  0  0
   18.9507  -17.3483    8.3256 N   0  0  0  0  0  0  0  0  0  0  0  0
   20.3251  -17.3702    8.8423 C   0  0  1  0  0  0  0  0  0  0  0  0
   20.8326  -15.9551    9.0280 C   0  0  0  0  0  0  0  0  0  0  0  0
   22.1681  -15.9138    9.6405 C   0  0  0  0  0  0  0  0  0  0  0  0
   23.2472  -16.6811    9.2764 C   0  0  0  0  0  0  0  0  0  0  0  0
   24.2732  -16.3559   10.0797 N   0  0  0  0  0  0  0  0  0  0  0  0
   23.8693  -15.4160   10.9277 C   0  0  0  0  0  0  0  0  0  0  0  0
   22.5736  -15.1464   10.6546 N   0  0  0  0  0  0  0  0  0  0  0  0
   20.3307  -18.1673   10.0804 C   0  0  0  0  0  0  0  0  0  0  0  0
   19.2589  -18.5490   10.5983 O   0  0  0  0  0  0  0  0  0  0  0  0
   21.5204  -18.5068   10.6888 O   0  0  0  0  0  0  0  0  0  0  0  0
  2  1  1  0
  3  2  1  0
  4  3  1  0
  5  4  1  0
  5  6  1  1
  7  5  1  0
  8  7  2  0
  9  7  1  0
 10  9  1  0
 11 12  1  0
 10 11  1  6
 12 13  2  0
 13 14  1  0
 15 14  2  0
 16 15  1  0
 17 16  2  0
 17 12  1  0
 18 10  1  0
 18 19  2  0
 20 18  1  0
 21 22  1  1
 21 20  1  0
 23 22  1  0
 24 23  2  0
 25 24  1  0
 25 26  1  0
 26 27  2  0
 27 23  1  0
 28 21  1  0
 29 28  2  0
 30 28  1  0
M  END
$$$$
