MFH.pdb
     RDKit          3D

 30 31  0  0  1  0  0  0  0  0999 V2000
   21.2223  -20.9657  -11.8092 C   0  0  0  0  0  0  0  0  0  0  0  0
   21.8091  -20.1162  -13.3120 S   0  0  0  0  0  0  0  0  0  0  0  0
   23.6189  -20.1689  -13.2806 C   0  0  0  0  0  0  0  0  0  0  0  0
   24.1456  -20.6546  -11.9494 C   0  0  0  0  0  0  0  0  0  0  0  0
   25.6523  -20.5581  -11.8607 C   0  0  2  0  0  0  0  0  0  0  0  0
   26.1909  -21.5342  -12.7918 N   0  0  0  0  0  0  0  0  0  0  0  0
   26.0279  -20.8669  -10.4630 C   0  0  0  0  0  0  0  0  0  0  0  0
   26.0329  -22.0375  -10.0189 O   0  0  0  0  0  0  0  0  0  0  0  0
   26.3930  -19.8137   -9.5977 N   0  0  0  0  0  0  0  0  0  0  0  0
   26.9090  -20.1228   -8.2815 C   0  0  1  0  0  0  0  0  0  0  0  0
   27.7071  -18.9944   -7.6871 C   0  0  0  0  0  0  0  0  0  0  0  0
   28.3179  -19.3157   -6.3978 C   0  0  0  0  0  0  0  0  0  0  0  0
   29.2845  -20.3080   -6.3406 C   0  0  0  0  0  0  0  0  0  0  0  0
   29.9201  -20.6865   -5.1811 C   0  0  0  0  0  0  0  0  0  0  0  0
   29.5582  -20.0235   -4.0093 C   0  0  0  0  0  0  0  0  0  0  0  0
   28.6044  -19.0333   -4.0203 C   0  0  0  0  0  0  0  0  0  0  0  0
   28.0049  -18.6985   -5.2051 C   0  0  0  0  0  0  0  0  0  0  0  0
   25.7033  -20.3160   -7.3964 C   0  0  0  0  0  0  0  0  0  0  0  0
   24.6844  -19.5598   -7.4843 O   0  0  0  0  0  0  0  0  0  0  0  0
   25.6535  -21.3450   -6.4317 N   0  0  0  0  0  0  0  0  0  0  0  0
   24.4964  -21.4467   -5.5333 C   0  0  1  0  0  0  0  0  0  0  0  0
   23.9797  -22.8705   -5.5112 C   0  0  0  0  0  0  0  0  0  0  0  0
   22.9167  -23.0971   -6.5007 C   0  0  0  0  0  0  0  0  0  0  0  0
   22.2736  -22.1281   -7.2308 C   0  0  0  0  0  0  0  0  0  0  0  0
   21.3649  -22.7357   -8.0109 N   0  0  0  0  0  0  0  0  0  0  0  0
   21.4214  -24.0448   -7.7908 C   0  0  0  0  0  0  0  0  0  0  0  0
   22.3772  -24.2637   -6.8610 N   0  0  0  0  0  0  0  0  0  0  0  0
   24.9049  -20.9458   -4.2103 C   0  0  0  0  0  0  0  0  0  0  0  0
   26.0519  -21.1734   -3.7682 O   0  0  0  0  0  0  0  0  0  0  0  0
   24.0278  -20.2153   -3.4370 O   0  0  0  0  0  0  0  0  0  0  0  0
  2  1  1  0
  3  2  1  0
  4  3  1  0
  5  4  1  0
  5  6  1  6
  7  5  1  0
  8  7  2  0
  9  7  1  0
 10  9  1  0
 11 12  1  0
 10 11  1  1
 12 13  2  0
 13 14  1  0
 15 14  2  0
 16 15  1  0
 17 16  2  0
 17 12  1  0
 18 10  1  0
 18 19  2  0
 20 18  1  0
 21 22  1  1
 21 20  1  0
 23 22  1  0
 24 23  2  0
 25 24  1  0
 25 26  1  0
 26 27  2  0
 27 23  1  0
 28 21  1  0
 29 28  2  0
 30 28  1  0
M  END
$$$$
