MFH.pdb
     RDKit          3D

 30 31  0  0  1  0  0  0  0  0999 V2000
   24.0975  -21.6506  -19.4499 C   0  0  0  0  0  0  0  0  0  0  0  0
   25.9082  -21.8248  -19.5751 S   0  0  0  0  0  0  0  0  0  0  0  0
   26.4647  -22.6827  -18.0807 C   0  0  0  0  0  0  0  0  0  0  0  0
   25.7284  -22.2056  -16.8496 C   0  0  0  0  0  0  0  0  0  0  0  0
   26.2804  -22.8158  -15.5806 C   0  0  2  0  0  0  0  0  0  0  0  0
   26.3336  -24.2516  -15.7939 N   0  0  0  0  0  0  0  0  0  0  0  0
   25.3527  -22.4574  -14.4846 C   0  0  0  0  0  0  0  0  0  0  0  0
   24.5390  -23.2801  -14.0066 O   0  0  0  0  0  0  0  0  0  0  0  0
   25.3806  -21.1490  -13.9569 N   0  0  0  0  0  0  0  0  0  0  0  0
   24.5470  -20.8245  -12.8195 C   0  0  1  0  0  0  0  0  0  0  0  0
   25.1598  -19.7817  -11.9247 C   0  0  0  0  0  0  0  0  0  0  0  0
   26.1512  -20.3119  -10.9895 C   0  0  0  0  0  0  0  0  0  0  0  0
   25.8477  -20.3483   -9.6372 C   0  0  0  0  0  0  0  0  0  0  0  0
   26.7074  -20.8265   -8.6759 C   0  0  0  0  0  0  0  0  0  0  0  0
   27.9478  -21.2959   -9.1058 C   0  0  0  0  0  0  0  0  0  0  0  0
   28.2902  -21.2784  -10.4373 C   0  0  0  0  0  0  0  0  0  0  0  0
   27.3932  -20.7905  -11.3498 C   0  0  0  0  0  0  0  0  0  0  0  0
   23.2849  -20.2238  -13.3861 C   0  0  0  0  0  0  0  0  0  0  0  0
   23.3208  -19.2999  -14.2594 O   0  0  0  0  0  0  0  0  0  0  0  0
   22.0088  -20.6615  -12.9715 N   0  0  0  0  0  0  0  0  0  0  0  0
   20.8323  -20.3665  -13.7993 C   0  0  1  0  0  0  0  0  0  0  0  0
   21.0520  -20.8686  -15.2115 C   0  0  0  0  0  0  0  0  0  0  0  0
   19.9071  -20.5905  -16.0903 C   0  0  0  0  0  0  0  0  0  0  0  0
   19.3661  -19.3543  -16.3444 C   0  0  0  0  0  0  0  0  0  0  0  0
   18.3317  -19.5224  -17.1843 N   0  0  0  0  0  0  0  0  0  0  0  0
   18.2122  -20.8168  -17.4595 C   0  0  0  0  0  0  0  0  0  0  0  0
   19.1831  -21.4712  -16.7847 N   0  0  0  0  0  0  0  0  0  0  0  0
   19.6551  -20.9552  -13.1392 C   0  0  0  0  0  0  0  0  0  0  0  0
   18.5135  -20.8188  -13.6303 O   0  0  0  0  0  0  0  0  0  0  0  0
   19.7933  -21.6685  -11.9675 O   0  0  0  0  0  0  0  0  0  0  0  0
  2  1  1  0
  3  2  1  0
  4  3  1  0
  5  4  1  0
  5  6  1  6
  7  5  1  0
  8  7  2  0
  9  7  1  0
 10  9  1  0
 11 12  1  0
 10 11  1  1
 12 13  2  0
 13 14  1  0
 15 14  2  0
 16 15  1  0
 17 16  2  0
 17 12  1  0
 18 10  1  0
 18 19  2  0
 20 18  1  0
 21 22  1  6
 21 20  1  0
 23 22  1  0
 24 23  2  0
 25 24  1  0
 25 26  1  0
 26 27  2  0
 27 23  1  0
 28 21  1  0
 29 28  2  0
 30 28  1  0
M  END
$$$$
