MFH.pdb
     RDKit          3D

 30 31  0  0  1  0  0  0  0  0999 V2000
   23.3049   -8.7825  -22.8007 C   0  0  0  0  0  0  0  0  0  0  0  0
   23.3942  -10.5699  -23.1500 S   0  0  0  0  0  0  0  0  0  0  0  0
   24.6345  -11.2693  -22.0314 C   0  0  0  0  0  0  0  0  0  0  0  0
   24.2899  -11.0196  -20.5807 C   0  0  0  0  0  0  0  0  0  0  0  0
   25.4141  -11.4152  -19.6495 C   0  0  2  0  0  0  0  0  0  0  0  0
   25.6239  -12.8414  -19.8269 N   0  0  0  0  0  0  0  0  0  0  0  0
   24.9754  -11.0915  -18.2737 C   0  0  0  0  0  0  0  0  0  0  0  0
   24.1014  -11.7626  -17.6793 O   0  0  0  0  0  0  0  0  0  0  0  0
   25.5562   -9.9934  -17.6044 N   0  0  0  0  0  0  0  0  0  0  0  0
   25.1636   -9.7039  -16.2420 C   0  0  1  0  0  0  0  0  0  0  0  0
   26.2879   -9.8856  -15.2590 C   0  0  0  0  0  0  0  0  0  0  0  0
   26.7700  -11.2626  -15.1579 C   0  0  0  0  0  0  0  0  0  0  0  0
   27.9296  -11.6197  -15.8286 C   0  0  0  0  0  0  0  0  0  0  0  0
   28.4677  -12.8852  -15.7996 C   0  0  0  0  0  0  0  0  0  0  0  0
   27.7944  -13.8476  -15.0484 C   0  0  0  0  0  0  0  0  0  0  0  0
   26.6411  -13.5370  -14.3677 C   0  0  0  0  0  0  0  0  0  0  0  0
   26.1518  -12.2596  -14.4332 C   0  0  0  0  0  0  0  0  0  0  0  0
   24.7958   -8.2415  -16.2164 C   0  0  0  0  0  0  0  0  0  0  0  0
   25.4548   -7.3772  -16.8770 O   0  0  0  0  0  0  0  0  0  0  0  0
   23.7035   -7.7686  -15.4579 N   0  0  0  0  0  0  0  0  0  0  0  0
   23.3079   -6.3575  -15.5508 C   0  0  1  0  0  0  0  0  0  0  0  0
   23.0486   -5.9850  -16.9961 C   0  0  0  0  0  0  0  0  0  0  0  0
   22.6158   -4.5884  -17.1466 C   0  0  0  0  0  0  0  0  0  0  0  0
   23.4111   -3.4775  -17.0085 C   0  0  0  0  0  0  0  0  0  0  0  0
   22.6436   -2.3942  -17.2108 N   0  0  0  0  0  0  0  0  0  0  0  0
   21.4027   -2.7931  -17.4688 C   0  0  0  0  0  0  0  0  0  0  0  0
   21.3891   -4.1438  -17.4285 N   0  0  0  0  0  0  0  0  0  0  0  0
   22.1450   -6.1544  -14.6706 C   0  0  0  0  0  0  0  0  0  0  0  0
   21.6499   -7.1113  -14.0366 O   0  0  0  0  0  0  0  0  0  0  0  0
   21.5835   -4.9031  -14.5304 O   0  0  0  0  0  0  0  0  0  0  0  0
  2  1  1  0
  3  2  1  0
  4  3  1  0
  5  4  1  0
  5  6  1  1
  7  5  1  0
  8  7  2  0
  9  7  1  0
 10  9  1  0
 11 12  1  0
 10 11  1  1
 12 13  2  0
 13 14  1  0
 15 14  2  0
 16 15  1  0
 17 16  2  0
 17 12  1  0
 18 10  1  0
 18 19  2  0
 20 18  1  0
 21 22  1  6
 21 20  1  0
 23 22  1  0
 24 23  2  0
 25 24  1  0
 25 26  1  0
 26 27  2  0
 27 23  1  0
 28 21  1  0
 29 28  2  0
 30 28  1  0
M  END
$$$$
