MFH.pdb
     RDKit          3D

 30 31  0  0  1  0  0  0  0  0999 V2000
   27.5909  -17.0822  -16.7569 C   0  0  0  0  0  0  0  0  0  0  0  0
   26.7841  -16.6357  -15.1839 S   0  0  0  0  0  0  0  0  0  0  0  0
   27.2582  -17.8907  -13.9677 C   0  0  0  0  0  0  0  0  0  0  0  0
   28.0880  -18.9916  -14.5882 C   0  0  0  0  0  0  0  0  0  0  0  0
   28.4781  -20.0506  -13.5812 C   0  0  2  0  0  0  0  0  0  0  0  0
   29.2219  -21.0657  -14.3065 N   0  0  0  0  0  0  0  0  0  0  0  0
   27.2250  -20.5915  -13.0091 C   0  0  0  0  0  0  0  0  0  0  0  0
   26.5805  -21.5081  -13.5677 O   0  0  0  0  0  0  0  0  0  0  0  0
   26.7352  -20.0624  -11.7962 N   0  0  0  0  0  0  0  0  0  0  0  0
   25.6750  -20.7552  -11.0963 C   0  0  1  0  0  0  0  0  0  0  0  0
   25.5259  -20.3048   -9.6685 C   0  0  0  0  0  0  0  0  0  0  0  0
   26.7435  -20.4490   -8.8715 C   0  0  0  0  0  0  0  0  0  0  0  0
   26.9208  -19.6367   -7.7621 C   0  0  0  0  0  0  0  0  0  0  0  0
   28.0272  -19.6914   -6.9467 C   0  0  0  0  0  0  0  0  0  0  0  0
   29.0134  -20.6219   -7.2710 C   0  0  0  0  0  0  0  0  0  0  0  0
   28.8786  -21.4473   -8.3622 C   0  0  0  0  0  0  0  0  0  0  0  0
   27.7546  -21.3479   -9.1383 C   0  0  0  0  0  0  0  0  0  0  0  0
   24.3964  -20.3842  -11.8049 C   0  0  0  0  0  0  0  0  0  0  0  0
   24.3155  -19.3436  -12.5318 O   0  0  0  0  0  0  0  0  0  0  0  0
   23.2337  -21.1763  -11.6921 N   0  0  0  0  0  0  0  0  0  0  0  0
   22.1245  -20.9815  -12.6345 C   0  0  1  0  0  0  0  0  0  0  0  0
   22.3230  -21.8532  -13.8573 C   0  0  0  0  0  0  0  0  0  0  0  0
   21.2354  -21.7044  -14.8349 C   0  0  0  0  0  0  0  0  0  0  0  0
   20.6952  -20.5183  -15.2671 C   0  0  0  0  0  0  0  0  0  0  0  0
   19.7216  -20.8057  -16.1464 N   0  0  0  0  0  0  0  0  0  0  0  0
   19.6390  -22.1256  -16.2745 C   0  0  0  0  0  0  0  0  0  0  0  0
   20.5718  -22.6756  -15.4661 N   0  0  0  0  0  0  0  0  0  0  0  0
   20.8675  -21.2490  -11.9158 C   0  0  0  0  0  0  0  0  0  0  0  0
   20.7982  -22.1688  -11.0721 O   0  0  0  0  0  0  0  0  0  0  0  0
   19.7450  -20.4871  -12.1615 O   0  0  0  0  0  0  0  0  0  0  0  0
  2  1  1  0
  3  2  1  0
  4  3  1  0
  5  4  1  0
  5  6  1  6
  7  5  1  0
  8  7  2  0
  9  7  1  0
 10  9  1  0
 11 12  1  0
 10 11  1  1
 12 13  2  0
 13 14  1  0
 15 14  2  0
 16 15  1  0
 17 16  2  0
 17 12  1  0
 18 10  1  0
 18 19  2  0
 20 18  1  0
 21 22  1  6
 21 20  1  0
 23 22  1  0
 24 23  2  0
 25 24  1  0
 25 26  1  0
 26 27  2  0
 27 23  1  0
 28 21  1  0
 29 28  2  0
 30 28  1  0
M  END
$$$$
