MFH.pdb
     RDKit          3D

 30 31  0  0  1  0  0  0  0  0999 V2000
   26.9210  -22.1249  -20.7419 C   0  0  0  0  0  0  0  0  0  0  0  0
   28.2179  -21.4491  -19.6529 S   0  0  0  0  0  0  0  0  0  0  0  0
   27.4439  -20.1657  -18.6367 C   0  0  0  0  0  0  0  0  0  0  0  0
   26.6475  -20.7549  -17.4948 C   0  0  0  0  0  0  0  0  0  0  0  0
   27.5187  -21.5238  -16.5266 C   0  0  2  0  0  0  0  0  0  0  0  0
   27.7988  -22.8087  -17.1433 N   0  0  0  0  0  0  0  0  0  0  0  0
   26.7495  -21.6731  -15.2712 C   0  0  0  0  0  0  0  0  0  0  0  0
   25.8343  -22.5187  -15.1488 O   0  0  0  0  0  0  0  0  0  0  0  0
   27.0514  -20.8395  -14.1734 N   0  0  0  0  0  0  0  0  0  0  0  0
   26.3401  -21.0223  -12.9265 C   0  0  1  0  0  0  0  0  0  0  0  0
   26.9721  -20.2817  -11.7795 C   0  0  0  0  0  0  0  0  0  0  0  0
   26.2269  -20.3845  -10.5254 C   0  0  0  0  0  0  0  0  0  0  0  0
   26.6620  -19.6638   -9.4239 C   0  0  0  0  0  0  0  0  0  0  0  0
   26.0347  -19.6897   -8.2001 C   0  0  0  0  0  0  0  0  0  0  0  0
   24.9002  -20.4913   -8.0815 C   0  0  0  0  0  0  0  0  0  0  0  0
   24.4339  -21.2227   -9.1481 C   0  0  0  0  0  0  0  0  0  0  0  0
   25.0998  -21.1577  -10.3430 C   0  0  0  0  0  0  0  0  0  0  0  0
   24.9739  -20.4182  -13.1341 C   0  0  0  0  0  0  0  0  0  0  0  0
   24.8213  -19.1737  -13.3475 O   0  0  0  0  0  0  0  0  0  0  0  0
   23.8050  -21.2084  -13.1005 N   0  0  0  0  0  0  0  0  0  0  0  0
   22.4943  -20.5807  -13.3121 C   0  0  1  0  0  0  0  0  0  0  0  0
   21.8012  -21.2140  -14.5008 C   0  0  0  0  0  0  0  0  0  0  0  0
   22.1592  -20.5651  -15.7702 C   0  0  0  0  0  0  0  0  0  0  0  0
   22.9337  -19.4400  -15.9114 C   0  0  0  0  0  0  0  0  0  0  0  0
   23.0170  -19.1596  -17.2221 N   0  0  0  0  0  0  0  0  0  0  0  0
   22.3228  -20.0691  -17.8976 C   0  0  0  0  0  0  0  0  0  0  0  0
   21.7963  -20.9324  -17.0011 N   0  0  0  0  0  0  0  0  0  0  0  0
   21.7323  -20.6896  -12.0568 C   0  0  0  0  0  0  0  0  0  0  0  0
   21.7446  -21.7486  -11.3927 O   0  0  0  0  0  0  0  0  0  0  0  0
   20.9926  -19.6228  -11.5924 O   0  0  0  0  0  0  0  0  0  0  0  0
  2  1  1  0
  3  2  1  0
  4  3  1  0
  5  4  1  0
  5  6  1  6
  7  5  1  0
  8  7  2  0
  9  7  1  0
 10  9  1  0
 11 12  1  0
 10 11  1  1
 12 13  2  0
 13 14  1  0
 15 14  2  0
 16 15  1  0
 17 16  2  0
 17 12  1  0
 18 10  1  0
 18 19  2  0
 20 18  1  0
 21 22  1  6
 21 20  1  0
 23 22  1  0
 24 23  2  0
 25 24  1  0
 25 26  1  0
 26 27  2  0
 27 23  1  0
 28 21  1  0
 29 28  2  0
 30 28  1  0
M  END
$$$$
