MFH.pdb
     RDKit          3D

 30 31  0  0  1  0  0  0  0  0999 V2000
   26.6566  -15.6042  -14.3285 C   0  0  0  0  0  0  0  0  0  0  0  0
   28.3083  -16.3756  -14.3657 S   0  0  0  0  0  0  0  0  0  0  0  0
   28.1969  -17.8193  -15.4531 C   0  0  0  0  0  0  0  0  0  0  0  0
   27.2960  -18.8891  -14.8792 C   0  0  0  0  0  0  0  0  0  0  0  0
   28.0078  -19.7496  -13.8593 C   0  0  2  0  0  0  0  0  0  0  0  0
   28.9282  -20.5985  -14.5955 N   0  0  0  0  0  0  0  0  0  0  0  0
   26.9727  -20.5409  -13.1574 C   0  0  0  0  0  0  0  0  0  0  0  0
   26.6064  -21.6666  -13.5649 O   0  0  0  0  0  0  0  0  0  0  0  0
   26.3755  -20.0163  -11.9915 N   0  0  0  0  0  0  0  0  0  0  0  0
   25.4241  -20.8223  -11.2571 C   0  0  1  0  0  0  0  0  0  0  0  0
   25.2414  -20.3611   -9.8367 C   0  0  0  0  0  0  0  0  0  0  0  0
   26.4425  -20.4906   -9.0125 C   0  0  0  0  0  0  0  0  0  0  0  0
   27.3154  -21.5396   -9.2567 C   0  0  0  0  0  0  0  0  0  0  0  0
   28.4708  -21.7516   -8.5413 C   0  0  0  0  0  0  0  0  0  0  0  0
   28.7622  -20.8506   -7.5181 C   0  0  0  0  0  0  0  0  0  0  0  0
   27.9244  -19.7961   -7.2417 C   0  0  0  0  0  0  0  0  0  0  0  0
   26.7873  -19.6349   -7.9876 C   0  0  0  0  0  0  0  0  0  0  0  0
   24.0974  -20.6345  -11.9492 C   0  0  0  0  0  0  0  0  0  0  0  0
   23.7208  -19.4947  -12.3695 O   0  0  0  0  0  0  0  0  0  0  0  0
   23.2159  -21.7163  -12.1606 N   0  0  0  0  0  0  0  0  0  0  0  0
   21.9873  -21.5142  -12.9391 C   0  0  1  0  0  0  0  0  0  0  0  0
   21.6239  -22.7871  -13.6755 C   0  0  0  0  0  0  0  0  0  0  0  0
   21.7946  -22.6620  -15.1301 C   0  0  0  0  0  0  0  0  0  0  0  0
   22.1285  -21.5155  -15.8081 C   0  0  0  0  0  0  0  0  0  0  0  0
   22.1747  -21.8103  -17.1175 N   0  0  0  0  0  0  0  0  0  0  0  0
   21.8818  -23.0967  -17.2753 C   0  0  0  0  0  0  0  0  0  0  0  0
   21.6484  -23.6177  -16.0505 N   0  0  0  0  0  0  0  0  0  0  0  0
   20.9392  -21.0451  -12.0173 C   0  0  0  0  0  0  0  0  0  0  0  0
   21.0977  -21.1204  -10.7796 O   0  0  0  0  0  0  0  0  0  0  0  0
   19.7645  -20.5133  -12.5055 O   0  0  0  0  0  0  0  0  0  0  0  0
  2  1  1  0
  3  2  1  0
  4  3  1  0
  5  4  1  0
  5  6  1  6
  7  5  1  0
  8  7  2  0
  9  7  1  0
 10  9  1  0
 11 12  1  0
 10 11  1  1
 12 13  2  0
 13 14  1  0
 15 14  2  0
 16 15  1  0
 17 16  2  0
 17 12  1  0
 18 10  1  0
 18 19  2  0
 20 18  1  0
 21 22  1  1
 21 20  1  0
 23 22  1  0
 24 23  2  0
 25 24  1  0
 25 26  1  0
 26 27  2  0
 27 23  1  0
 28 21  1  0
 29 28  2  0
 30 28  1  0
M  END
$$$$
