MFH.pdb
     RDKit          3D

 30 31  0  0  1  0  0  0  0  0999 V2000
   22.4121  -21.8774  -23.4115 C   0  0  0  0  0  0  0  0  0  0  0  0
   22.2325  -23.2765  -22.2561 S   0  0  0  0  0  0  0  0  0  0  0  0
   23.6695  -24.3520  -22.4955 C   0  0  0  0  0  0  0  0  0  0  0  0
   23.6380  -25.5486  -21.5721 C   0  0  0  0  0  0  0  0  0  0  0  0
   24.6275  -25.4202  -20.4354 C   0  0  2  0  0  0  0  0  0  0  0  0
   25.9533  -25.5269  -21.0190 N   0  0  0  0  0  0  0  0  0  0  0  0
   24.3527  -26.5256  -19.4906 C   0  0  0  0  0  0  0  0  0  0  0  0
   24.6175  -27.7177  -19.7669 O   0  0  0  0  0  0  0  0  0  0  0  0
   23.7741  -26.2343  -18.2370 N   0  0  0  0  0  0  0  0  0  0  0  0
   23.5918  -27.2995  -17.2746 C   0  0  1  0  0  0  0  0  0  0  0  0
   24.3489  -27.0670  -15.9955 C   0  0  0  0  0  0  0  0  0  0  0  0
   25.7994  -27.1912  -16.1346 C   0  0  0  0  0  0  0  0  0  0  0  0
   26.4029  -28.4009  -15.8277 C   0  0  0  0  0  0  0  0  0  0  0  0
   27.7569  -28.6232  -15.9242 C   0  0  0  0  0  0  0  0  0  0  0  0
   28.5487  -27.5602  -16.3563 C   0  0  0  0  0  0  0  0  0  0  0  0
   27.9919  -26.3432  -16.6712 C   0  0  0  0  0  0  0  0  0  0  0  0
   26.6371  -26.1802  -16.5560 C   0  0  0  0  0  0  0  0  0  0  0  0
   22.1260  -27.2934  -16.9195 C   0  0  0  0  0  0  0  0  0  0  0  0
   21.4805  -26.2073  -16.7735 O   0  0  0  0  0  0  0  0  0  0  0  0
   21.4070  -28.4936  -16.7336 N   0  0  0  0  0  0  0  0  0  0  0  0
   19.9731  -28.4434  -16.4207 C   0  0  1  0  0  0  0  0  0  0  0  0
   19.2250  -29.4687  -17.2475 C   0  0  0  0  0  0  0  0  0  0  0  0
   19.5422  -30.8482  -16.8517 C   0  0  0  0  0  0  0  0  0  0  0  0
   20.4886  -31.2267  -15.9315 C   0  0  0  0  0  0  0  0  0  0  0  0
   20.4811  -32.5678  -15.8612 N   0  0  0  0  0  0  0  0  0  0  0  0
   19.5654  -33.0337  -16.7038 C   0  0  0  0  0  0  0  0  0  0  0  0
   18.9896  -31.9730  -17.3116 N   0  0  0  0  0  0  0  0  0  0  0  0
   19.8199  -28.6300  -14.9681 C   0  0  0  0  0  0  0  0  0  0  0  0
   18.7243  -28.4083  -14.4084 O   0  0  0  0  0  0  0  0  0  0  0  0
   20.8840  -29.0540  -14.2008 O   0  0  0  0  0  0  0  0  0  0  0  0
  2  1  1  0
  3  2  1  0
  4  3  1  0
  5  4  1  0
  5  6  1  6
  7  5  1  0
  8  7  2  0
  9  7  1  0
 10  9  1  0
 11 12  1  0
 10 11  1  1
 12 13  2  0
 13 14  1  0
 15 14  2  0
 16 15  1  0
 17 16  2  0
 17 12  1  0
 18 10  1  0
 18 19  2  0
 20 18  1  0
 21 22  1  6
 21 20  1  0
 23 22  1  0
 24 23  2  0
 25 24  1  0
 25 26  1  0
 26 27  2  0
 27 23  1  0
 28 21  1  0
 29 28  2  0
 30 28  1  0
M  END
$$$$
