ETG.pdb
     RDKit          3D

 21 20  0  0  1  0  0  0  0  0999 V2000
   29.0491  -20.4645  -18.4457 N   0  0  0  0  0  0  0  0  0  0  0  0
   28.2311  -21.5070  -17.8814 C   0  0  1  0  0  0  0  0  0  0  0  0
   26.9450  -21.7060  -18.6324 C   0  0  0  0  0  0  0  0  0  0  0  0
   25.7784  -20.9472  -18.0950 C   0  0  0  0  0  0  0  0  0  0  0  0
   24.5050  -21.1856  -18.7733 C   0  0  0  0  0  0  0  0  0  0  0  0
   24.0397  -20.3326  -19.5505 O   0  0  0  0  0  0  0  0  0  0  0  0
   29.0049  -22.7910  -18.0579 C   0  0  0  0  0  0  0  0  0  0  0  0
   29.3891  -23.1199  -19.2068 O   0  0  0  0  0  0  0  0  0  0  0  0
   23.8347  -22.3680  -18.5354 O   0  0  0  0  0  0  0  0  0  0  0  0
   31.2147  -24.5412  -15.1518 C   0  0  0  0  0  0  0  0  0  0  0  0
   31.4160  -24.7146  -16.6322 C   0  0  1  0  0  0  0  0  0  0  0  0
   32.0441  -25.9792  -16.8170 O   0  0  0  0  0  0  0  0  0  0  0  0
   30.0425  -24.8933  -17.2771 C   0  0  2  0  0  0  0  0  0  0  0  0
   29.3165  -23.6429  -16.9784 N   0  0  0  0  0  0  0  0  0  0  0  0
   29.2935  -26.0518  -16.7890 C   0  0  0  0  0  0  0  0  0  0  0  0
   28.4327  -25.8437  -15.8561 O   0  0  0  0  0  0  0  0  0  0  0  0
   29.3850  -27.3820  -17.2070 N   0  0  0  0  0  0  0  0  0  0  0  0
   28.6133  -28.4461  -16.5848 C   0  0  0  0  0  0  0  0  0  0  0  0
   28.9882  -29.7490  -17.2094 C   0  0  0  0  0  0  0  0  0  0  0  0
   28.5084  -30.8466  -16.8482 O   0  0  0  0  0  0  0  0  0  0  0  0
   29.9073  -29.7449  -18.2339 O   0  0  0  0  0  0  0  0  0  0  0  0
  2  1  1  6
  3  2  1  0
  4  3  1  0
  5  6  2  0
  5  4  1  0
  7  8  2  0
  7  2  1  0
  9  5  1  0
 11 10  1  1
 11 13  1  0
 12 11  1  0
 13 14  1  1
 13 15  1  0
 14  7  1  0
 15 17  1  0
 16 15  2  0
 17 18  1  0
 19 21  1  0
 19 18  1  0
 20 19  2  0
M  END
$$$$
