ETG.pdb
     RDKit          3D

 21 20  0  0  1  0  0  0  0  0999 V2000
   17.7792  -10.2035  -19.5362 N   0  0  0  0  0  0  0  0  0  0  0  0
   18.9815  -10.0141  -18.7661 C   0  0  1  0  0  0  0  0  0  0  0  0
   20.0336   -9.2439  -19.5129 C   0  0  0  0  0  0  0  0  0  0  0  0
   20.8157  -10.0423  -20.5010 C   0  0  0  0  0  0  0  0  0  0  0  0
   21.6582  -11.0951  -19.9348 C   0  0  0  0  0  0  0  0  0  0  0  0
   21.2258  -12.2574  -19.8342 O   0  0  0  0  0  0  0  0  0  0  0  0
   18.5981   -9.1428  -17.5947 C   0  0  0  0  0  0  0  0  0  0  0  0
   17.8753   -8.1358  -17.7929 O   0  0  0  0  0  0  0  0  0  0  0  0
   22.9338  -10.7750  -19.5174 O   0  0  0  0  0  0  0  0  0  0  0  0
   16.5518  -10.0222  -14.9786 C   0  0  0  0  0  0  0  0  0  0  0  0
   17.7632   -9.5008  -14.2555 C   0  0  1  0  0  0  0  0  0  0  0  0
   18.6590  -10.5980  -14.1088 O   0  0  0  0  0  0  0  0  0  0  0  0
   18.5022   -8.5516  -15.1974 C   0  0  2  0  0  0  0  0  0  0  0  0
   19.0208   -9.4145  -16.2773 N   0  0  0  0  0  0  0  0  0  0  0  0
   19.5920   -7.8050  -14.5678 C   0  0  0  0  0  0  0  0  0  0  0  0
   19.3035   -7.1173  -13.5196 O   0  0  0  0  0  0  0  0  0  0  0  0
   20.9326   -7.7358  -14.9555 N   0  0  0  0  0  0  0  0  0  0  0  0
   21.9255   -6.9999  -14.1889 C   0  0  0  0  0  0  0  0  0  0  0  0
   21.7520   -5.5391  -14.4421 C   0  0  0  0  0  0  0  0  0  0  0  0
   20.7734   -5.0607  -15.0573 O   0  0  0  0  0  0  0  0  0  0  0  0
   22.7156   -4.6737  -13.9762 O   0  0  0  0  0  0  0  0  0  0  0  0
  2  1  1  6
  3  2  1  0
  4  3  1  0
  5  6  2  0
  5  4  1  0
  7  8  2  0
  7  2  1  0
  9  5  1  0
 11 10  1  6
 11 13  1  0
 12 11  1  0
 13 14  1  6
 13 15  1  0
 14  7  1  0
 15 17  1  0
 16 15  2  0
 17 18  1  0
 19 21  1  0
 19 18  1  0
 20 19  2  0
M  END
$$$$
