ETG.pdb
     RDKit          3D

 21 20  0  0  1  0  0  0  0  0999 V2000
   16.7285  -12.4392  -15.7772 N   0  0  0  0  0  0  0  0  0  0  0  0
   18.1429  -12.2102  -15.6303 C   0  0  1  0  0  0  0  0  0  0  0  0
   18.9630  -12.9929  -16.6165 C   0  0  0  0  0  0  0  0  0  0  0  0
   19.2394  -14.4055  -16.2246 C   0  0  0  0  0  0  0  0  0  0  0  0
   19.8892  -15.2269  -17.2452 C   0  0  0  0  0  0  0  0  0  0  0  0
   19.4654  -16.3702  -17.4926 O   0  0  0  0  0  0  0  0  0  0  0  0
   18.3724  -10.7588  -15.9756 C   0  0  0  0  0  0  0  0  0  0  0  0
   17.7643  -10.2601  -16.9540 O   0  0  0  0  0  0  0  0  0  0  0  0
   20.9747  -14.7115  -17.9234 O   0  0  0  0  0  0  0  0  0  0  0  0
   16.8775   -8.8828  -15.8405 C   0  0  0  0  0  0  0  0  0  0  0  0
   17.8976   -7.9705  -15.2165 C   0  0  1  0  0  0  0  0  0  0  0  0
   17.8181   -8.1661  -13.8083 O   0  0  0  0  0  0  0  0  0  0  0  0
   19.2852   -8.4971  -15.5789 C   0  0  2  0  0  0  0  0  0  0  0  0
   19.2475   -9.9336  -15.2399 N   0  0  0  0  0  0  0  0  0  0  0  0
   20.3844   -7.8322  -14.8781 C   0  0  0  0  0  0  0  0  0  0  0  0
   20.6197   -8.2037  -13.6692 O   0  0  0  0  0  0  0  0  0  0  0  0
   21.2335   -6.8287  -15.3518 N   0  0  0  0  0  0  0  0  0  0  0  0
   22.2991   -6.2652  -14.5381 C   0  0  0  0  0  0  0  0  0  0  0  0
   21.7221   -5.2348  -13.6252 C   0  0  0  0  0  0  0  0  0  0  0  0
   20.5092   -4.9279  -13.6159 O   0  0  0  0  0  0  0  0  0  0  0  0
   22.5647   -4.5890  -12.7492 O   0  0  0  0  0  0  0  0  0  0  0  0
  2  1  1  6
  3  2  1  0
  4  3  1  0
  5  6  2  0
  5  4  1  0
  7  8  2  0
  7  2  1  0
  9  5  1  0
 11 10  1  6
 11 13  1  0
 12 11  1  0
 13 14  1  1
 13 15  1  0
 14  7  1  0
 15 17  1  0
 16 15  2  0
 17 18  1  0
 19 21  1  0
 19 18  1  0
 20 19  2  0
M  END
$$$$
