ETG.pdb
     RDKit          3D

 21 20  0  0  1  0  0  0  0  0999 V2000
   21.5466  -12.1304  -16.1039 N   0  0  0  0  0  0  0  0  0  0  0  0
   20.7007  -10.9651  -16.0744 C   0  0  1  0  0  0  0  0  0  0  0  0
   19.7906  -10.9389  -14.8790 C   0  0  0  0  0  0  0  0  0  0  0  0
   18.6643  -11.9160  -14.9238 C   0  0  0  0  0  0  0  0  0  0  0  0
   17.6283  -11.6384  -15.9179 C   0  0  0  0  0  0  0  0  0  0  0  0
   17.0265  -10.5494  -15.9083 O   0  0  0  0  0  0  0  0  0  0  0  0
   21.6215   -9.7807  -15.9073 C   0  0  0  0  0  0  0  0  0  0  0  0
   22.6344   -9.8929  -15.1744 O   0  0  0  0  0  0  0  0  0  0  0  0
   17.3340  -12.6023  -16.8602 O   0  0  0  0  0  0  0  0  0  0  0  0
   23.6818   -8.2996  -18.2544 C   0  0  0  0  0  0  0  0  0  0  0  0
   22.8822   -7.1304  -17.7487 C   0  0  1  0  0  0  0  0  0  0  0  0
   21.6911   -7.0786  -18.5276 O   0  0  0  0  0  0  0  0  0  0  0  0
   22.3842   -7.4716  -16.3452 C   0  0  2  0  0  0  0  0  0  0  0  0
   21.3899   -8.5445  -16.5447 N   0  0  0  0  0  0  0  0  0  0  0  0
   21.7876   -6.3449  -15.6268 C   0  0  0  0  0  0  0  0  0  0  0  0
   20.6254   -6.5292  -15.1073 O   0  0  0  0  0  0  0  0  0  0  0  0
   22.3187   -5.0689  -15.4211 N   0  0  0  0  0  0  0  0  0  0  0  0
   21.5869   -4.0276  -14.7175 C   0  0  0  0  0  0  0  0  0  0  0  0
   21.8618   -4.1422  -13.2548 C   0  0  0  0  0  0  0  0  0  0  0  0
   22.5396   -5.0671  -12.7543 O   0  0  0  0  0  0  0  0  0  0  0  0
   21.3449   -3.1837  -12.4131 O   0  0  0  0  0  0  0  0  0  0  0  0
  2  1  1  1
  3  2  1  0
  4  3  1  0
  5  6  2  0
  5  4  1  0
  7  8  2  0
  7  2  1  0
  9  5  1  0
 11 10  1  6
 11 13  1  0
 12 11  1  0
 13 14  1  6
 13 15  1  0
 14  7  1  0
 15 17  1  0
 16 15  2  0
 17 18  1  0
 19 21  1  0
 19 18  1  0
 20 19  2  0
M  END
$$$$
