ETG.pdb
     RDKit          3D

 21 20  0  0  1  0  0  0  0  0999 V2000
   27.0035  -20.3630  -16.4507 N   0  0  0  0  0  0  0  0  0  0  0  0
   26.5538  -19.5222  -15.3712 C   0  0  1  0  0  0  0  0  0  0  0  0
   25.5314  -18.5121  -15.8096 C   0  0  0  0  0  0  0  0  0  0  0  0
   24.5500  -19.0069  -16.8182 C   0  0  0  0  0  0  0  0  0  0  0  0
   23.5460  -18.0352  -17.2500 C   0  0  0  0  0  0  0  0  0  0  0  0
   23.5994  -16.8588  -16.8486 O   0  0  0  0  0  0  0  0  0  0  0  0
   25.8356  -20.4296  -14.4020 C   0  0  0  0  0  0  0  0  0  0  0  0
   25.3069  -21.4846  -14.8299 O   0  0  0  0  0  0  0  0  0  0  0  0
   22.5452  -18.4471  -18.1059 O   0  0  0  0  0  0  0  0  0  0  0  0
   25.8579  -19.8595  -10.2043 C   0  0  0  0  0  0  0  0  0  0  0  0
   26.0219  -21.1814  -10.9028 C   0  0  1  0  0  0  0  0  0  0  0  0
   25.4174  -22.1652  -10.0694 O   0  0  0  0  0  0  0  0  0  0  0  0
   25.1388  -21.1686  -12.1494 C   0  0  2  0  0  0  0  0  0  0  0  0
   25.7329  -20.1398  -13.0259 N   0  0  0  0  0  0  0  0  0  0  0  0
   23.7304  -20.8700  -11.8875 C   0  0  0  0  0  0  0  0  0  0  0  0
   23.1286  -21.5979  -11.0142 O   0  0  0  0  0  0  0  0  0  0  0  0
   22.9319  -19.8802  -12.4665 N   0  0  0  0  0  0  0  0  0  0  0  0
   21.5503  -19.6650  -12.0668 C   0  0  0  0  0  0  0  0  0  0  0  0
   20.6823  -20.6651  -12.7557 C   0  0  0  0  0  0  0  0  0  0  0  0
   21.1310  -21.5724  -13.4911 O   0  0  0  0  0  0  0  0  0  0  0  0
   19.3202  -20.5870  -12.5741 O   0  0  0  0  0  0  0  0  0  0  0  0
  2  1  1  6
  3  2  1  0
  4  3  1  0
  5  6  2  0
  5  4  1  0
  7  8  2  0
  7  2  1  0
  9  5  1  0
 11 10  1  1
 11 13  1  0
 12 11  1  0
 13 14  1  6
 13 15  1  0
 14  7  1  0
 15 17  1  0
 16 15  2  0
 17 18  1  0
 19 21  1  0
 19 18  1  0
 20 19  2  0
M  END
$$$$
