ETG.pdb
     RDKit          3D

 21 20  0  0  1  0  0  0  0  0999 V2000
   25.5958  -21.7314  -10.9164 N   0  0  0  0  0  0  0  0  0  0  0  0
   24.8030  -21.5282  -12.1016 C   0  0  1  0  0  0  0  0  0  0  0  0
   23.3668  -21.2132  -11.7921 C   0  0  0  0  0  0  0  0  0  0  0  0
   22.3748  -22.1662  -12.3694 C   0  0  0  0  0  0  0  0  0  0  0  0
   20.9705  -21.8362  -12.1293 C   0  0  0  0  0  0  0  0  0  0  0  0
   20.2748  -22.5571  -11.3915 O   0  0  0  0  0  0  0  0  0  0  0  0
   25.3533  -20.2912  -12.7691 C   0  0  0  0  0  0  0  0  0  0  0  0
   25.6211  -19.2858  -12.0669 O   0  0  0  0  0  0  0  0  0  0  0  0
   20.4366  -20.7166  -12.7336 O   0  0  0  0  0  0  0  0  0  0  0  0
   28.3327  -19.7792  -14.2490 C   0  0  0  0  0  0  0  0  0  0  0  0
   27.4250  -19.2756  -15.3374 C   0  0  1  0  0  0  0  0  0  0  0  0
   27.1372  -20.3867  -16.1803 O   0  0  0  0  0  0  0  0  0  0  0  0
   26.0749  -18.9383  -14.7069 C   0  0  2  0  0  0  0  0  0  0  0  0
   25.5810  -20.2171  -14.1586 N   0  0  0  0  0  0  0  0  0  0  0  0
   25.1006  -18.3675  -15.6376 C   0  0  0  0  0  0  0  0  0  0  0  0
   24.0621  -19.0767  -15.9083 O   0  0  0  0  0  0  0  0  0  0  0  0
   25.1426  -17.1304  -16.2858 N   0  0  0  0  0  0  0  0  0  0  0  0
   24.0984  -16.6974  -17.2008 C   0  0  0  0  0  0  0  0  0  0  0  0
   23.8620  -15.2355  -17.0137 C   0  0  0  0  0  0  0  0  0  0  0  0
   24.4422  -14.5526  -16.1406 O   0  0  0  0  0  0  0  0  0  0  0  0
   22.9613  -14.6055  -17.8420 O   0  0  0  0  0  0  0  0  0  0  0  0
  2  1  1  1
  3  2  1  0
  4  3  1  0
  5  6  2  0
  5  4  1  0
  7  8  2  0
  7  2  1  0
  9  5  1  0
 11 10  1  1
 11 13  1  0
 12 11  1  0
 13 14  1  6
 13 15  1  0
 14  7  1  0
 15 17  1  0
 16 15  2  0
 17 18  1  0
 19 21  1  0
 19 18  1  0
 20 19  2  0
M  END
$$$$
