ETG.pdb
     RDKit          3D

 21 20  0  0  1  0  0  0  0  0999 V2000
   28.2197  -20.2731  -15.7782 N   0  0  0  0  0  0  0  0  0  0  0  0
   27.2114  -19.5223  -15.0753 C   0  0  1  0  0  0  0  0  0  0  0  0
   26.3773  -18.6719  -15.9912 C   0  0  0  0  0  0  0  0  0  0  0  0
   27.1105  -17.5544  -16.6539 C   0  0  0  0  0  0  0  0  0  0  0  0
   26.3154  -16.7318  -17.5648 C   0  0  0  0  0  0  0  0  0  0  0  0
   25.9119  -17.2025  -18.6436 O   0  0  0  0  0  0  0  0  0  0  0  0
   26.2609  -20.5388  -14.4906 C   0  0  0  0  0  0  0  0  0  0  0  0
   26.5988  -21.7475  -14.4651 O   0  0  0  0  0  0  0  0  0  0  0  0
   26.0239  -15.4318  -17.2058 O   0  0  0  0  0  0  0  0  0  0  0  0
   26.5426  -21.3063  -12.2987 C   0  0  0  0  0  0  0  0  0  0  0  0
   25.0886  -21.4161  -11.9300 C   0  0  1  0  0  0  0  0  0  0  0  0
   24.7787  -20.2772  -11.1334 O   0  0  0  0  0  0  0  0  0  0  0  0
   24.2634  -21.2076  -13.1989 C   0  0  2  0  0  0  0  0  0  0  0  0
   25.0000  -20.1851  -13.9679 N   0  0  0  0  0  0  0  0  0  0  0  0
   22.8859  -20.7765  -12.9581 C   0  0  0  0  0  0  0  0  0  0  0  0
   22.7113  -19.5680  -12.5534 O   0  0  0  0  0  0  0  0  0  0  0  0
   21.7079  -21.5120  -13.1124 N   0  0  0  0  0  0  0  0  0  0  0  0
   20.3986  -20.9518  -12.8173 C   0  0  0  0  0  0  0  0  0  0  0  0
   19.5932  -21.9627  -12.0707 C   0  0  0  0  0  0  0  0  0  0  0  0
   20.0109  -23.1112  -11.8030 O   0  0  0  0  0  0  0  0  0  0  0  0
   18.3277  -21.6160  -11.6552 O   0  0  0  0  0  0  0  0  0  0  0  0
  2  1  1  6
  3  2  1  0
  4  3  1  0
  5  6  2  0
  5  4  1  0
  7  8  2  0
  7  2  1  0
  9  5  1  0
 11 10  1  6
 11 13  1  0
 12 11  1  0
 13 14  1  6
 13 15  1  0
 14  7  1  0
 15 17  1  0
 16 15  2  0
 17 18  1  0
 19 21  1  0
 19 18  1  0
 20 19  2  0
M  END
$$$$
