KSC.pdb
     RDKit          3D

 22 21  0  0  1  0  0  0  0  0999 V2000
   10.3644  -17.8183   17.7895 N   0  0  0  0  0  0  0  0  0  0  0  0
   10.1363  -18.1539   19.1631 C   0  0  1  0  0  0  0  0  0  0  0  0
   10.4410  -19.6346   19.4280 C   0  0  0  0  0  0  0  0  0  0  0  0
   11.3498  -20.0804   18.3026 C   0  0  0  0  0  0  0  0  0  0  0  0
   11.7172  -21.5433   18.4297 C   0  0  0  0  0  0  0  0  0  0  0  0
   12.7374  -21.8369   17.3342 C   0  0  0  0  0  0  0  0  0  0  0  0
   13.1260  -23.2350   17.3573 N   0  0  0  0  0  0  0  0  0  0  0  0
   10.9793  -17.3253   20.0362 C   0  0  0  0  0  0  0  0  0  0  0  0
   12.0293  -16.8304   19.5489 O   0  0  0  0  0  0  0  0  0  0  0  0
    9.8048  -16.8204   23.8521 O   0  0  0  0  0  0  0  0  0  0  0  0
   10.5763  -15.7661   23.3913 C   0  0  0  0  0  0  0  0  0  0  0  0
   11.4302  -16.2512   22.2261 C   0  0  2  0  0  0  0  0  0  0  0  0
   10.6012  -17.1042   21.3823 N   0  0  0  0  0  0  0  0  0  0  0  0
   12.5282  -17.0801   22.7851 C   0  0  0  0  0  0  0  0  0  0  0  0
   12.4328  -18.3575   22.7852 O   0  0  0  0  0  0  0  0  0  0  0  0
   13.6945  -16.4888   23.3245 N   0  0  0  0  0  0  0  0  0  0  0  0
   14.7808  -17.3406   23.8105 C   0  0  1  0  0  0  0  0  0  0  0  0
   16.0176  -16.4829   23.9672 C   0  0  0  0  0  0  0  0  0  0  0  0
   16.5670  -15.7938   22.4002 S   0  0  0  0  0  0  0  0  0  0  0  0
   14.3842  -17.8763   25.1352 C   0  0  0  0  0  0  0  0  0  0  0  0
   13.4178  -17.2532   25.9072 O   0  0  0  0  0  0  0  0  0  0  0  0
   14.9081  -18.9156   25.6100 O   0  0  0  0  0  0  0  0  0  0  0  0
  2  1  1  6
  2  3  1  0
  2  8  1  0
  3  4  1  0
  5  4  1  0
  5  6  1  0
  6  7  1  0
  8 13  1  0
  9  8  2  0
 12 11  1  1
 11 10  1  0
 12 14  1  0
 13 12  1  0
 14 16  1  0
 14 15  2  0
 16 17  1  0
 17 18  1  1
 17 20  1  0
 18 19  1  0
 20 21  1  0
 22 20  2  0
M  END
$$$$
