KSC.pdb
     RDKit          3D

 22 21  0  0  1  0  0  0  0  0999 V2000
    6.3547  -15.5513   20.0576 N   0  0  0  0  0  0  0  0  0  0  0  0
    7.4283  -14.9659   20.8032 C   0  0  1  0  0  0  0  0  0  0  0  0
    7.3587  -13.4332   20.7609 C   0  0  0  0  0  0  0  0  0  0  0  0
    7.9759  -13.0248   19.4405 C   0  0  0  0  0  0  0  0  0  0  0  0
    9.4203  -13.4664   19.3407 C   0  0  0  0  0  0  0  0  0  0  0  0
    9.9549  -12.9248   18.0186 C   0  0  0  0  0  0  0  0  0  0  0  0
   11.2840  -13.4434   17.7524 N   0  0  0  0  0  0  0  0  0  0  0  0
    7.3783  -15.4115   22.2026 C   0  0  0  0  0  0  0  0  0  0  0  0
    6.2753  -15.3456   22.8058 O   0  0  0  0  0  0  0  0  0  0  0  0
   10.4864  -17.5632   23.6643 O   0  0  0  0  0  0  0  0  0  0  0  0
    9.2248  -17.7698   24.1978 C   0  0  0  0  0  0  0  0  0  0  0  0
    8.4583  -16.4528   24.1780 C   0  0  2  0  0  0  0  0  0  0  0  0
    8.5493  -15.8969   22.8328 N   0  0  0  0  0  0  0  0  0  0  0  0
    9.1394  -15.5198   25.1112 C   0  0  0  0  0  0  0  0  0  0  0  0
   10.1097  -14.7926   24.6985 O   0  0  0  0  0  0  0  0  0  0  0  0
    8.7390  -15.4098   26.4634 N   0  0  0  0  0  0  0  0  0  0  0  0
    9.3901  -14.4307   27.3349 C   0  0  1  0  0  0  0  0  0  0  0  0
    8.3150  -13.7086   28.1175 C   0  0  0  0  0  0  0  0  0  0  0  0
    7.5819  -12.3622   27.1782 S   0  0  0  0  0  0  0  0  0  0  0  0
   10.2693  -15.1679   28.2742 C   0  0  0  0  0  0  0  0  0  0  0  0
   11.1176  -14.5026   29.1437 O   0  0  0  0  0  0  0  0  0  0  0  0
   10.2803  -16.4241   28.3191 O   0  0  0  0  0  0  0  0  0  0  0  0
  2  1  1  6
  2  3  1  0
  2  8  1  0
  3  4  1  0
  5  4  1  0
  5  6  1  0
  6  7  1  0
  8 13  1  0
  9  8  2  0
 12 11  1  6
 11 10  1  0
 12 14  1  0
 13 12  1  0
 14 16  1  0
 14 15  2  0
 16 17  1  0
 17 18  1  1
 17 20  1  0
 18 19  1  0
 20 21  1  0
 22 20  2  0
M  END
$$$$
