KSC.pdb
     RDKit          3D

 22 21  0  0  1  0  0  0  0  0999 V2000
    8.5808  -16.5100   16.6482 N   0  0  0  0  0  0  0  0  0  0  0  0
    9.8956  -16.2850   17.1697 C   0  0  1  0  0  0  0  0  0  0  0  0
   10.0764  -14.8229   17.6001 C   0  0  0  0  0  0  0  0  0  0  0  0
    8.8567  -14.4787   18.4276 C   0  0  0  0  0  0  0  0  0  0  0  0
    8.9160  -13.0562   18.9418 C   0  0  0  0  0  0  0  0  0  0  0  0
    7.6340  -12.8220   19.7348 C   0  0  0  0  0  0  0  0  0  0  0  0
    7.5667  -11.4512   20.2067 N   0  0  0  0  0  0  0  0  0  0  0  0
   10.1421  -17.1606   18.3239 C   0  0  0  0  0  0  0  0  0  0  0  0
    9.1497  -17.6983   18.8815 O   0  0  0  0  0  0  0  0  0  0  0  0
   14.0099  -17.9044   19.5286 O   0  0  0  0  0  0  0  0  0  0  0  0
   13.0886  -18.9301   19.6619 C   0  0  0  0  0  0  0  0  0  0  0  0
   11.7030  -18.3272   19.8586 C   0  0  2  0  0  0  0  0  0  0  0  0
   11.4653  -17.3778   18.7773 N   0  0  0  0  0  0  0  0  0  0  0  0
   11.7149  -17.5760   21.1395 C   0  0  0  0  0  0  0  0  0  0  0  0
   11.8990  -16.3084   21.1393 O   0  0  0  0  0  0  0  0  0  0  0  0
   11.5246  -18.2318   22.3783 N   0  0  0  0  0  0  0  0  0  0  0  0
   11.5129  -17.4524   23.6169 C   0  0  1  0  0  0  0  0  0  0  0  0
   10.0715  -17.1774   23.9866 C   0  0  0  0  0  0  0  0  0  0  0  0
    9.9258  -16.3498   25.5760 S   0  0  0  0  0  0  0  0  0  0  0  0
   12.1440  -18.2723   24.6792 C   0  0  0  0  0  0  0  0  0  0  0  0
   12.8845  -17.6926   25.6960 O   0  0  0  0  0  0  0  0  0  0  0  0
   12.0326  -19.5242   24.6997 O   0  0  0  0  0  0  0  0  0  0  0  0
  2  1  1  1
  2  3  1  0
  2  8  1  0
  3  4  1  0
  5  4  1  0
  5  6  1  0
  6  7  1  0
  8 13  1  0
  9  8  2  0
 12 11  1  6
 11 10  1  0
 12 14  1  0
 13 12  1  0
 14 16  1  0
 14 15  2  0
 16 17  1  0
 17 18  1  1
 17 20  1  0
 18 19  1  0
 20 21  1  0
 22 20  2  0
M  END
$$$$
