KSC.pdb
     RDKit          3D

 22 21  0  0  1  0  0  0  0  0999 V2000
    6.6641  -16.2447   19.8231 N   0  0  0  0  0  0  0  0  0  0  0  0
    7.4270  -15.3426   20.6329 C   0  0  1  0  0  0  0  0  0  0  0  0
    6.9781  -13.8911   20.4158 C   0  0  0  0  0  0  0  0  0  0  0  0
    7.9851  -13.2818   19.4641 C   0  0  0  0  0  0  0  0  0  0  0  0
    8.0189  -14.0189   18.1424 C   0  0  0  0  0  0  0  0  0  0  0  0
    9.0213  -13.2860   17.2562 C   0  0  0  0  0  0  0  0  0  0  0  0
    9.1764  -13.9689   15.9850 N   0  0  0  0  0  0  0  0  0  0  0  0
    7.2786  -15.6849   22.0543 C   0  0  0  0  0  0  0  0  0  0  0  0
    6.1142  -15.8389   22.5075 O   0  0  0  0  0  0  0  0  0  0  0  0
   10.4749  -17.0871   24.1385 O   0  0  0  0  0  0  0  0  0  0  0  0
    9.1859  -17.4301   24.5120 C   0  0  0  0  0  0  0  0  0  0  0  0
    8.2659  -16.2415   24.2606 C   0  0  2  0  0  0  0  0  0  0  0  0
    8.4259  -15.8319   22.8702 N   0  0  0  0  0  0  0  0  0  0  0  0
    8.7228  -15.1255   25.1273 C   0  0  0  0  0  0  0  0  0  0  0  0
    9.7316  -14.4155   24.7822 O   0  0  0  0  0  0  0  0  0  0  0  0
    8.0638  -14.8199   26.3410 N   0  0  0  0  0  0  0  0  0  0  0  0
    8.6034  -13.7786   27.2166 C   0  0  1  0  0  0  0  0  0  0  0  0
    7.4403  -13.0530   27.8574 C   0  0  0  0  0  0  0  0  0  0  0  0
    6.2349  -12.5002   26.6434 S   0  0  0  0  0  0  0  0  0  0  0  0
    9.4099  -14.4400   28.2706 C   0  0  0  0  0  0  0  0  0  0  0  0
   10.1476  -13.7056   29.1842 O   0  0  0  0  0  0  0  0  0  0  0  0
    9.4565  -15.6916   28.3774 O   0  0  0  0  0  0  0  0  0  0  0  0
  2  1  1  6
  2  3  1  0
  2  8  1  0
  3  4  1  0
  5  4  1  0
  5  6  1  0
  6  7  1  0
  8 13  1  0
  9  8  2  0
 12 11  1  6
 11 10  1  0
 12 14  1  0
 13 12  1  0
 14 16  1  0
 14 15  2  0
 16 17  1  0
 17 18  1  1
 17 20  1  0
 18 19  1  0
 20 21  1  0
 22 20  2  0
M  END
$$$$
