KSC.pdb
     RDKit          3D

 22 21  0  0  1  0  0  0  0  0999 V2000
    8.7091  -17.8302   21.2881 N   0  0  0  0  0  0  0  0  0  0  0  0
    7.9942  -17.5879   22.5053 C   0  0  1  0  0  0  0  0  0  0  0  0
    7.8584  -18.8741   23.3316 C   0  0  0  0  0  0  0  0  0  0  0  0
    8.6164  -19.9402   22.5699 C   0  0  0  0  0  0  0  0  0  0  0  0
    8.5407  -21.2821   23.2662 C   0  0  0  0  0  0  0  0  0  0  0  0
    9.2455  -22.2873   22.3606 C   0  0  0  0  0  0  0  0  0  0  0  0
    9.3869  -23.5678   23.0289 N   0  0  0  0  0  0  0  0  0  0  0  0
    8.6868  -16.5706   23.3084 C   0  0  0  0  0  0  0  0  0  0  0  0
    9.9421  -16.5115   23.2340 O   0  0  0  0  0  0  0  0  0  0  0  0
    6.4856  -14.2351   25.7826 O   0  0  0  0  0  0  0  0  0  0  0  0
    7.6343  -13.6143   25.3203 C   0  0  0  0  0  0  0  0  0  0  0  0
    8.6439  -14.6816   24.9154 C   0  0  2  0  0  0  0  0  0  0  0  0
    7.9428  -15.6940   24.1342 N   0  0  0  0  0  0  0  0  0  0  0  0
    9.1469  -15.3217   26.1574 C   0  0  0  0  0  0  0  0  0  0  0  0
    8.6012  -16.3955   26.5932 O   0  0  0  0  0  0  0  0  0  0  0  0
   10.2292  -14.7704   26.8824 N   0  0  0  0  0  0  0  0  0  0  0  0
   10.7174  -15.4488   28.0838 C   0  0  1  0  0  0  0  0  0  0  0  0
   12.2237  -15.3106   28.1233 C   0  0  0  0  0  0  0  0  0  0  0  0
   13.0130  -16.0925   26.7097 S   0  0  0  0  0  0  0  0  0  0  0  0
   10.1312  -14.7679   29.2635 C   0  0  0  0  0  0  0  0  0  0  0  0
   10.2834  -15.2776   30.5422 O   0  0  0  0  0  0  0  0  0  0  0  0
    9.4736  -13.7025   29.1508 O   0  0  0  0  0  0  0  0  0  0  0  0
  2  1  1  6
  2  3  1  0
  2  8  1  0
  3  4  1  0
  5  4  1  0
  5  6  1  0
  6  7  1  0
  8 13  1  0
  9  8  2  0
 12 11  1  1
 11 10  1  0
 12 14  1  0
 13 12  1  0
 14 16  1  0
 14 15  2  0
 16 17  1  0
 17 18  1  1
 17 20  1  0
 18 19  1  0
 20 21  1  0
 22 20  2  0
M  END
$$$$
