KSC.pdb
     RDKit          3D

 22 21  0  0  1  0  0  0  0  0999 V2000
    9.6554  -15.6343   19.7564 N   0  0  0  0  0  0  0  0  0  0  0  0
    9.1757  -16.3195   20.9190 C   0  0  1  0  0  0  0  0  0  0  0  0
    9.8346  -17.6987   21.0585 C   0  0  0  0  0  0  0  0  0  0  0  0
    9.0472  -18.6289   20.1606 C   0  0  0  0  0  0  0  0  0  0  0  0
    7.6757  -18.9232   20.7295 C   0  0  0  0  0  0  0  0  0  0  0  0
    7.0062  -19.9070   19.7750 C   0  0  0  0  0  0  0  0  0  0  0  0
    5.7579  -19.3639   19.2720 N   0  0  0  0  0  0  0  0  0  0  0  0
    9.4534  -15.5291   22.1264 C   0  0  0  0  0  0  0  0  0  0  0  0
   10.6104  -15.0540   22.2697 O   0  0  0  0  0  0  0  0  0  0  0  0
    6.6006  -15.1581   25.1247 O   0  0  0  0  0  0  0  0  0  0  0  0
    7.4076  -14.0612   24.8710 C   0  0  0  0  0  0  0  0  0  0  0  0
    8.7285  -14.5447   24.2847 C   0  0  2  0  0  0  0  0  0  0  0  0
    8.4338  -15.3217   23.0862 N   0  0  0  0  0  0  0  0  0  0  0  0
    9.3597  -15.4493   25.2789 C   0  0  0  0  0  0  0  0  0  0  0  0
    9.4514  -16.7042   25.0387 O   0  0  0  0  0  0  0  0  0  0  0  0
    9.8712  -14.9554   26.5017 N   0  0  0  0  0  0  0  0  0  0  0  0
   10.6862  -15.8254   27.3508 C   0  0  1  0  0  0  0  0  0  0  0  0
   11.6280  -14.9532   28.1520 C   0  0  0  0  0  0  0  0  0  0  0  0
   10.7552  -13.6727   29.0635 S   0  0  0  0  0  0  0  0  0  0  0  0
    9.7767  -16.5441   28.2756 C   0  0  0  0  0  0  0  0  0  0  0  0
   10.2468  -17.5196   29.1391 O   0  0  0  0  0  0  0  0  0  0  0  0
    8.5447  -16.2975   28.3131 O   0  0  0  0  0  0  0  0  0  0  0  0
  2  1  1  6
  2  3  1  0
  2  8  1  0
  3  4  1  0
  5  4  1  0
  5  6  1  0
  6  7  1  0
  8 13  1  0
  9  8  2  0
 12 11  1  1
 11 10  1  0
 12 14  1  0
 13 12  1  0
 14 16  1  0
 14 15  2  0
 16 17  1  0
 17 18  1  1
 17 20  1  0
 18 19  1  0
 20 21  1  0
 22 20  2  0
M  END
$$$$
