KSC.pdb
     RDKit          3D

 22 21  0  0  1  0  0  0  0  0999 V2000
    8.0807  -12.8436   17.8389 N   0  0  0  0  0  0  0  0  0  0  0  0
    7.8558  -14.0867   18.5137 C   0  0  1  0  0  0  0  0  0  0  0  0
    8.3712  -15.2684   17.6810 C   0  0  0  0  0  0  0  0  0  0  0  0
    7.8419  -15.0523   16.2794 C   0  0  0  0  0  0  0  0  0  0  0  0
    8.2968  -16.1464   15.3375 C   0  0  0  0  0  0  0  0  0  0  0  0
    7.6979  -15.8271   13.9714 C   0  0  0  0  0  0  0  0  0  0  0  0
    8.1328  -16.7959   12.9821 N   0  0  0  0  0  0  0  0  0  0  0  0
    8.5311  -14.0867   19.8189 C   0  0  0  0  0  0  0  0  0  0  0  0
    9.6765  -13.5694   19.8927 O   0  0  0  0  0  0  0  0  0  0  0  0
    6.5611  -15.6429   22.9960 O   0  0  0  0  0  0  0  0  0  0  0  0
    7.4660  -14.6460   23.3218 C   0  0  0  0  0  0  0  0  0  0  0  0
    8.5458  -14.5886   22.2480 C   0  0  2  0  0  0  0  0  0  0  0  0
    7.8926  -14.6576   20.9459 N   0  0  0  0  0  0  0  0  0  0  0  0
    9.4000  -15.7936   22.4016 C   0  0  0  0  0  0  0  0  0  0  0  0
    9.1839  -16.8304   21.6812 O   0  0  0  0  0  0  0  0  0  0  0  0
   10.4624  -15.8276   23.3349 N   0  0  0  0  0  0  0  0  0  0  0  0
   11.2706  -17.0403   23.4694 C   0  0  1  0  0  0  0  0  0  0  0  0
   12.7130  -16.6258   23.6625 C   0  0  0  0  0  0  0  0  0  0  0  0
   13.3344  -15.6681   22.2736 S   0  0  0  0  0  0  0  0  0  0  0  0
   10.8042  -17.7695   24.6734 C   0  0  0  0  0  0  0  0  0  0  0  0
   11.3288  -19.0036   25.0198 O   0  0  0  0  0  0  0  0  0  0  0  0
    9.9154  -17.2979   25.4270 O   0  0  0  0  0  0  0  0  0  0  0  0
  2  1  1  6
  2  3  1  0
  2  8  1  0
  3  4  1  0
  5  4  1  0
  5  6  1  0
  6  7  1  0
  8 13  1  0
  9  8  2  0
 12 11  1  1
 11 10  1  0
 12 14  1  0
 13 12  1  0
 14 16  1  0
 14 15  2  0
 16 17  1  0
 17 18  1  1
 17 20  1  0
 18 19  1  0
 20 21  1  0
 22 20  2  0
M  END
$$$$
