KSC.pdb
     RDKit          3D

 22 21  0  0  1  0  0  0  0  0999 V2000
    8.3828  -16.2991   20.4429 N   0  0  0  0  0  0  0  0  0  0  0  0
    9.1044  -15.1289   20.8445 C   0  0  1  0  0  0  0  0  0  0  0  0
    8.6816  -13.9079   20.0162 C   0  0  0  0  0  0  0  0  0  0  0  0
    8.9796  -14.2595   18.5744 C   0  0  0  0  0  0  0  0  0  0  0  0
    7.7162  -14.3173   17.7428 C   0  0  0  0  0  0  0  0  0  0  0  0
    8.1449  -14.6359   16.3139 C   0  0  0  0  0  0  0  0  0  0  0  0
    6.9927  -14.6897   15.4331 N   0  0  0  0  0  0  0  0  0  0  0  0
    8.8695  -14.8497   22.2680 C   0  0  0  0  0  0  0  0  0  0  0  0
    9.3366  -13.7832   22.7469 O   0  0  0  0  0  0  0  0  0  0  0  0
    7.0749  -17.6227   24.8590 O   0  0  0  0  0  0  0  0  0  0  0  0
    6.6225  -16.3135   24.8568 C   0  0  0  0  0  0  0  0  0  0  0  0
    7.7593  -15.3988   24.4171 C   0  0  2  0  0  0  0  0  0  0  0  0
    8.1366  -15.7679   23.0576 N   0  0  0  0  0  0  0  0  0  0  0  0
    8.9194  -15.6605   25.3064 C   0  0  0  0  0  0  0  0  0  0  0  0
    9.9292  -16.3162   24.8692 O   0  0  0  0  0  0  0  0  0  0  0  0
    8.9405  -15.1975   26.6429 N   0  0  0  0  0  0  0  0  0  0  0  0
   10.1149  -15.4497   27.4790 C   0  0  1  0  0  0  0  0  0  0  0  0
   10.0438  -14.5320   28.6800 C   0  0  0  0  0  0  0  0  0  0  0  0
   11.5412  -13.5567   28.8769 S   0  0  0  0  0  0  0  0  0  0  0  0
   10.0574  -16.8597   27.9348 C   0  0  0  0  0  0  0  0  0  0  0  0
   11.2093  -17.6017   28.1372 O   0  0  0  0  0  0  0  0  0  0  0  0
    8.9630  -17.4373   28.1555 O   0  0  0  0  0  0  0  0  0  0  0  0
  2  1  1  6
  2  3  1  0
  2  8  1  0
  3  4  1  0
  5  4  1  0
  5  6  1  0
  6  7  1  0
  8 13  1  0
  9  8  2  0
 12 11  1  1
 11 10  1  0
 12 14  1  0
 13 12  1  0
 14 16  1  0
 14 15  2  0
 16 17  1  0
 17 18  1  1
 17 20  1  0
 18 19  1  0
 20 21  1  0
 22 20  2  0
M  END
$$$$
