SDP.pdb
     RDKit          3D

 22 22  0  0  1  0  0  0  0  0999 V2000
   14.3519  -24.0530    2.2991 O   0  0  0  0  0  0  0  0  0  0  0  0
   15.3513  -23.2750    2.8532 C   0  0  0  0  0  0  0  0  0  0  0  0
   15.3040  -21.8751    2.2773 C   0  0  2  0  0  0  0  0  0  0  0  0
   15.5473  -21.9124    0.8485 N   0  0  0  0  0  0  0  0  0  0  0  0
   16.3273  -21.0220    2.9710 C   0  0  0  0  0  0  0  0  0  0  0  0
   17.5167  -21.2734    2.6836 O   0  0  0  0  0  0  0  0  0  0  0  0
   15.8991  -20.0246    3.8724 N   0  0  0  0  0  0  0  0  0  0  0  0
   16.8684  -19.1663    4.5577 C   0  0  1  0  0  0  0  0  0  0  0  0
   16.0962  -17.9306    4.9695 C   0  0  0  0  0  0  0  0  0  0  0  0
   17.0129  -16.9460    5.6035 C   0  0  0  0  0  0  0  0  0  0  0  0
   16.5323  -15.8732    6.0216 O   0  0  0  0  0  0  0  0  0  0  0  0
   17.5096  -19.9051    5.6308 C   0  0  0  0  0  0  0  0  0  0  0  0
   16.7720  -20.7456    6.2749 O   0  0  0  0  0  0  0  0  0  0  0  0
   18.3638  -17.1805    5.7416 O   0  0  0  0  0  0  0  0  0  0  0  0
   18.8592  -19.8268    6.0683 N   0  0  0  0  0  0  0  0  0  0  0  0
   19.8525  -19.0209    5.3380 C   0  0  0  0  0  0  0  0  0  0  0  0
   21.1750  -19.7074    5.6066 C   0  0  0  0  0  0  0  0  0  0  0  0
   21.0345  -20.3028    6.9746 C   0  0  0  0  0  0  0  0  0  0  0  0
   19.5401  -20.4030    7.1789 C   0  0  1  0  0  0  0  0  0  0  0  0
   19.1293  -19.8382    8.4782 C   0  0  0  0  0  0  0  0  0  0  0  0
   19.2035  -20.5248    9.5092 O   0  0  0  0  0  0  0  0  0  0  0  0
   18.6631  -18.5497    8.5491 O   0  0  0  0  0  0  0  0  0  0  0  0
  1  2  1  0
  3  5  1  0
  3  2  1  0
  3  4  1  6
  5  7  1  0
  6  5  2  0
  7  8  1  0
  8 12  1  0
  9 10  1  0
  8  9  1  1
 10 14  1  0
 11 10  2  0
 12 13  2  0
 12 15  1  0
 15 19  1  0
 16 15  1  0
 16 17  1  0
 17 18  1  0
 19 18  1  0
 19 20  1  1
 20 22  1  0
 21 20  2  0
M  END
$$$$
