SDP.pdb
     RDKit          3D

 22 22  0  0  1  0  0  0  0  0999 V2000
   14.8810  -25.1235   -0.8174 O   0  0  0  0  0  0  0  0  0  0  0  0
   13.7111  -24.4519   -1.1199 C   0  0  0  0  0  0  0  0  0  0  0  0
   14.0254  -23.0821   -1.6838 C   0  0  2  0  0  0  0  0  0  0  0  0
   14.9427  -23.1981   -2.8006 N   0  0  0  0  0  0  0  0  0  0  0  0
   14.6114  -22.2248   -0.5986 C   0  0  0  0  0  0  0  0  0  0  0  0
   15.8564  -22.1238   -0.6104 O   0  0  0  0  0  0  0  0  0  0  0  0
   13.7517  -21.6078    0.3347 N   0  0  0  0  0  0  0  0  0  0  0  0
   14.2825  -20.7154    1.3680 C   0  0  1  0  0  0  0  0  0  0  0  0
   13.0843  -19.9647    1.9101 C   0  0  0  0  0  0  0  0  0  0  0  0
   13.5353  -18.7710    2.6740 C   0  0  0  0  0  0  0  0  0  0  0  0
   12.6775  -17.9403    3.0354 O   0  0  0  0  0  0  0  0  0  0  0  0
   15.0470  -21.4813    2.3362 C   0  0  0  0  0  0  0  0  0  0  0  0
   14.5646  -22.6287    2.6764 O   0  0  0  0  0  0  0  0  0  0  0  0
   14.8591  -18.5570    2.9915 O   0  0  0  0  0  0  0  0  0  0  0  0
   16.2732  -21.1316    2.9633 N   0  0  0  0  0  0  0  0  0  0  0  0
   17.0181  -19.9255    2.5634 C   0  0  0  0  0  0  0  0  0  0  0  0
   18.4658  -20.2524    2.8629 C   0  0  0  0  0  0  0  0  0  0  0  0
   18.4211  -21.1756    4.0425 C   0  0  0  0  0  0  0  0  0  0  0  0
   17.0199  -21.7417    4.0118 C   0  0  1  0  0  0  0  0  0  0  0  0
   16.3660  -21.6483    5.3308 C   0  0  0  0  0  0  0  0  0  0  0  0
   15.4792  -20.8034    5.5298 O   0  0  0  0  0  0  0  0  0  0  0  0
   16.7382  -22.4974    6.3423 O   0  0  0  0  0  0  0  0  0  0  0  0
  1  2  1  0
  3  5  1  0
  3  2  1  0
  3  4  1  6
  5  7  1  0
  6  5  2  0
  7  8  1  0
  8 12  1  0
  9 10  1  0
  8  9  1  1
 10 14  1  0
 11 10  2  0
 12 13  2  0
 12 15  1  0
 15 19  1  0
 16 15  1  0
 16 17  1  0
 17 18  1  0
 19 18  1  0
 19 20  1  1
 20 22  1  0
 21 20  2  0
M  END
$$$$
