SDP.pdb
     RDKit          3D

 22 22  0  0  1  0  0  0  0  0999 V2000
   24.9589  -11.3983  -16.7857 O   0  0  0  0  0  0  0  0  0  0  0  0
   24.6650  -11.3800  -15.4350 C   0  0  0  0  0  0  0  0  0  0  0  0
   23.1863  -11.6241  -15.2183 C   0  0  2  0  0  0  0  0  0  0  0  0
   22.7985  -12.8968  -15.7945 N   0  0  0  0  0  0  0  0  0  0  0  0
   22.4054  -10.4989  -15.8348 C   0  0  0  0  0  0  0  0  0  0  0  0
   21.8151  -10.7781  -16.8997 O   0  0  0  0  0  0  0  0  0  0  0  0
   22.3862   -9.2404  -15.1972 N   0  0  0  0  0  0  0  0  0  0  0  0
   21.5733   -8.1431  -15.7272 C   0  0  1  0  0  0  0  0  0  0  0  0
   20.1419   -8.6335  -15.6686 C   0  0  0  0  0  0  0  0  0  0  0  0
   19.6653   -8.6438  -14.2598 C   0  0  0  0  0  0  0  0  0  0  0  0
   19.0670   -7.6371  -13.8296 O   0  0  0  0  0  0  0  0  0  0  0  0
   21.8591   -6.9204  -14.9978 C   0  0  0  0  0  0  0  0  0  0  0  0
   22.1563   -7.0486  -13.7486 O   0  0  0  0  0  0  0  0  0  0  0  0
   19.8626   -9.7213  -13.4236 O   0  0  0  0  0  0  0  0  0  0  0  0
   21.8587   -5.5855  -15.4847 N   0  0  0  0  0  0  0  0  0  0  0  0
   21.4437   -5.2763  -16.8637 C   0  0  0  0  0  0  0  0  0  0  0  0
   22.2122   -4.0222  -17.2230 C   0  0  0  0  0  0  0  0  0  0  0  0
   22.3729   -3.2798  -15.9313 C   0  0  0  0  0  0  0  0  0  0  0  0
   22.1930   -4.3435  -14.8725 C   0  0  1  0  0  0  0  0  0  0  0  0
   21.2327   -3.9219  -13.8350 C   0  0  0  0  0  0  0  0  0  0  0  0
   21.5150   -2.9919  -13.0635 O   0  0  0  0  0  0  0  0  0  0  0  0
   20.0228   -4.5590  -13.7211 O   0  0  0  0  0  0  0  0  0  0  0  0
  1  2  1  0
  3  5  1  0
  3  2  1  0
  3  4  1  6
  5  7  1  0
  6  5  2  0
  7  8  1  0
  8 12  1  0
  9 10  1  0
  8  9  1  1
 10 14  1  0
 11 10  2  0
 12 13  2  0
 12 15  1  0
 15 19  1  0
 16 15  1  0
 16 17  1  0
 17 18  1  0
 19 18  1  0
 19 20  1  1
 20 22  1  0
 21 20  2  0
M  END
$$$$
