SDP.pdb
     RDKit          3D

 22 22  0  0  1  0  0  0  0  0999 V2000
   15.8137  -13.0145  -13.7728 O   0  0  0  0  0  0  0  0  0  0  0  0
   16.9759  -12.5075  -14.3236 C   0  0  0  0  0  0  0  0  0  0  0  0
   16.6536  -11.3671  -15.2663 C   0  0  2  0  0  0  0  0  0  0  0  0
   15.9159  -11.8583  -16.4137 N   0  0  0  0  0  0  0  0  0  0  0  0
   17.9323  -10.7069  -15.6967 C   0  0  0  0  0  0  0  0  0  0  0  0
   18.7289  -11.4397  -16.3203 O   0  0  0  0  0  0  0  0  0  0  0  0
   18.1488   -9.3486  -15.3822 N   0  0  0  0  0  0  0  0  0  0  0  0
   19.3437   -8.6490  -15.8600 C   0  0  1  0  0  0  0  0  0  0  0  0
   19.3051   -8.7643  -17.3693 C   0  0  0  0  0  0  0  0  0  0  0  0
   20.5060   -8.1154  -17.9597 C   0  0  0  0  0  0  0  0  0  0  0  0
   20.3863   -6.9675  -18.4337 O   0  0  0  0  0  0  0  0  0  0  0  0
   19.3730   -7.2998  -15.3238 C   0  0  0  0  0  0  0  0  0  0  0  0
   18.2781   -6.6218  -15.4047 O   0  0  0  0  0  0  0  0  0  0  0  0
   21.7349   -8.7377  -17.9986 O   0  0  0  0  0  0  0  0  0  0  0  0
   20.4602   -6.6207  -14.7106 N   0  0  0  0  0  0  0  0  0  0  0  0
   21.7977   -7.2330  -14.6355 C   0  0  0  0  0  0  0  0  0  0  0  0
   22.4239   -6.6342  -13.3938 C   0  0  0  0  0  0  0  0  0  0  0  0
   21.8370   -5.2597  -13.2851 C   0  0  0  0  0  0  0  0  0  0  0  0
   20.5644   -5.3394  -14.0969 C   0  0  1  0  0  0  0  0  0  0  0  0
   20.4564   -4.2196  -15.0511 C   0  0  0  0  0  0  0  0  0  0  0  0
   20.0493   -3.1112  -14.6698 O   0  0  0  0  0  0  0  0  0  0  0  0
   20.8066   -4.4023  -16.3651 O   0  0  0  0  0  0  0  0  0  0  0  0
  1  2  1  0
  3  5  1  0
  3  2  1  0
  3  4  1  6
  5  7  1  0
  6  5  2  0
  7  8  1  0
  8 12  1  0
  9 10  1  0
  8  9  1  6
 10 14  1  0
 11 10  2  0
 12 13  2  0
 12 15  1  0
 15 19  1  0
 16 15  1  0
 16 17  1  0
 17 18  1  0
 19 18  1  0
 19 20  1  6
 20 22  1  0
 21 20  2  0
M  END
$$$$
