SDP.pdb
     RDKit          3D

 22 22  0  0  1  0  0  0  0  0999 V2000
   13.5801   -9.7281  -13.3108 O   0  0  0  0  0  0  0  0  0  0  0  0
   14.9209   -9.4957  -13.5545 C   0  0  0  0  0  0  0  0  0  0  0  0
   15.3099  -10.0498  -14.9091 C   0  0  2  0  0  0  0  0  0  0  0  0
   15.2880  -11.4992  -14.8830 N   0  0  0  0  0  0  0  0  0  0  0  0
   16.6756   -9.5431  -15.2752 C   0  0  0  0  0  0  0  0  0  0  0  0
   17.5980  -10.3811  -15.1885 O   0  0  0  0  0  0  0  0  0  0  0  0
   16.8290   -8.2003  -15.6802 N   0  0  0  0  0  0  0  0  0  0  0  0
   18.1103   -7.7141  -16.1976 C   0  0  1  0  0  0  0  0  0  0  0  0
   17.7671   -6.8870  -17.4187 C   0  0  0  0  0  0  0  0  0  0  0  0
   19.0081   -6.3320  -18.0220 C   0  0  0  0  0  0  0  0  0  0  0  0
   19.1771   -5.0961  -17.9975 O   0  0  0  0  0  0  0  0  0  0  0  0
   18.8385   -7.0272  -15.1458 C   0  0  0  0  0  0  0  0  0  0  0  0
   18.1620   -6.2055  -14.4162 O   0  0  0  0  0  0  0  0  0  0  0  0
   19.9674   -7.1338  -18.6015 O   0  0  0  0  0  0  0  0  0  0  0  0
   20.2135   -7.1446  -14.8071 N   0  0  0  0  0  0  0  0  0  0  0  0
   21.0860   -8.1183  -15.4854 C   0  0  0  0  0  0  0  0  0  0  0  0
   22.1497   -8.4572  -14.4625 C   0  0  0  0  0  0  0  0  0  0  0  0
   22.3189   -7.2105  -13.6483 C   0  0  0  0  0  0  0  0  0  0  0  0
   21.0303   -6.4516  -13.8681 C   0  0  1  0  0  0  0  0  0  0  0  0
   21.2826   -5.0448  -14.2336 C   0  0  0  0  0  0  0  0  0  0  0  0
   21.7469   -4.2556  -13.3961 O   0  0  0  0  0  0  0  0  0  0  0  0
   21.0036   -4.6056  -15.5032 O   0  0  0  0  0  0  0  0  0  0  0  0
  1  2  1  0
  3  5  1  0
  3  2  1  0
  3  4  1  1
  5  7  1  0
  6  5  2  0
  7  8  1  0
  8 12  1  0
  9 10  1  0
  8  9  1  6
 10 14  1  0
 11 10  2  0
 12 13  2  0
 12 15  1  0
 15 19  1  0
 16 15  1  0
 16 17  1  0
 17 18  1  0
 19 18  1  0
 19 20  1  6
 20 22  1  0
 21 20  2  0
M  END
$$$$
