SDP.pdb
     RDKit          3D

 22 22  0  0  1  0  0  0  0  0999 V2000
   18.5470  -10.2831  -17.9062 O   0  0  0  0  0  0  0  0  0  0  0  0
   19.7005  -10.8844  -17.4381 C   0  0  0  0  0  0  0  0  0  0  0  0
   19.7213  -10.8679  -15.9239 C   0  0  2  0  0  0  0  0  0  0  0  0
   18.5927  -11.6112  -15.3989 N   0  0  0  0  0  0  0  0  0  0  0  0
   19.6917   -9.4442  -15.4461 C   0  0  0  0  0  0  0  0  0  0  0  0
   18.5955   -9.0559  -14.9898 O   0  0  0  0  0  0  0  0  0  0  0  0
   20.8609   -8.6599  -15.5380 N   0  0  0  0  0  0  0  0  0  0  0  0
   20.8432   -7.2410  -15.1742 C   0  0  1  0  0  0  0  0  0  0  0  0
   21.9132   -7.0806  -14.1148 C   0  0  0  0  0  0  0  0  0  0  0  0
   21.9386   -5.6760  -13.6265 C   0  0  0  0  0  0  0  0  0  0  0  0
   22.8588   -4.9296  -14.0173 O   0  0  0  0  0  0  0  0  0  0  0  0
   20.9968   -6.4243  -16.3649 C   0  0  0  0  0  0  0  0  0  0  0  0
   21.8949   -6.8003  -17.2118 O   0  0  0  0  0  0  0  0  0  0  0  0
   20.9857   -5.1791  -12.7638 O   0  0  0  0  0  0  0  0  0  0  0  0
   20.2773   -5.2538  -16.7272 N   0  0  0  0  0  0  0  0  0  0  0  0
   19.1466   -4.7714  -15.9159 C   0  0  0  0  0  0  0  0  0  0  0  0
   18.2518   -4.0461  -16.8987 C   0  0  0  0  0  0  0  0  0  0  0  0
   19.1812   -3.4852  -17.9317 C   0  0  0  0  0  0  0  0  0  0  0  0
   20.4247   -4.3354  -17.8061 C   0  0  1  0  0  0  0  0  0  0  0  0
   21.6425   -3.5083  -17.7122 C   0  0  0  0  0  0  0  0  0  0  0  0
   22.3210   -3.5112  -16.6731 O   0  0  0  0  0  0  0  0  0  0  0  0
   22.0281   -2.7323  -18.7761 O   0  0  0  0  0  0  0  0  0  0  0  0
  1  2  1  0
  3  5  1  0
  3  2  1  0
  3  4  1  1
  5  7  1  0
  6  5  2  0
  7  8  1  0
  8 12  1  0
  9 10  1  0
  8  9  1  1
 10 14  1  0
 11 10  2  0
 12 13  2  0
 12 15  1  0
 15 19  1  0
 16 15  1  0
 16 17  1  0
 17 18  1  0
 19 18  1  0
 19 20  1  1
 20 22  1  0
 21 20  2  0
M  END
$$$$
