LYA.pdb
     RDKit          3D

 26 26  0  0  1  0  0  0  0  0999 V2000
   24.9144  -17.6808  -20.8750 C   0  0  0  0  0  0  0  0  0  0  0  0
   26.1122  -18.0566  -20.0399 C   0  0  1  0  0  0  0  0  0  0  0  0
   26.6024  -16.8413  -19.3218 C   0  0  0  0  0  0  0  0  0  0  0  0
   25.8159  -19.2178  -19.1069 C   0  0  0  0  0  0  0  0  0  0  0  0
   27.0675  -19.4727  -18.2994 C   0  0  2  0  0  0  0  0  0  0  0  0
   27.9684  -20.2416  -19.1068 N   0  0  0  0  0  0  0  0  0  0  0  0
   26.7765  -20.0993  -16.9967 C   0  0  0  0  0  0  0  0  0  0  0  0
   26.7804  -21.3491  -16.9118 O   0  0  0  0  0  0  0  0  0  0  0  0
   25.7731  -21.0935   -8.2852 O   0  0  0  0  0  0  0  0  0  0  0  0
   26.0934  -20.6769   -9.5859 C   0  0  0  0  0  0  0  0  0  0  0  0
   27.0718  -21.3395  -10.2979 C   0  0  0  0  0  0  0  0  0  0  0  0
   27.3429  -20.8760  -11.5857 C   0  0  0  0  0  0  0  0  0  0  0  0
   26.6714  -19.8050  -12.1352 C   0  0  0  0  0  0  0  0  0  0  0  0
   26.9839  -19.3331  -13.5087 C   0  0  0  0  0  0  0  0  0  0  0  0
   26.2102  -20.0146  -14.5843 C   0  0  2  0  0  0  0  0  0  0  0  0
   26.4924  -19.3452  -15.8357 N   0  0  0  0  0  0  0  0  0  0  0  0
   24.7496  -20.0337  -14.3944 C   0  0  0  0  0  0  0  0  0  0  0  0
   24.1483  -18.9362  -14.5538 O   0  0  0  0  0  0  0  0  0  0  0  0
   25.7019  -19.1881  -11.3627 C   0  0  0  0  0  0  0  0  0  0  0  0
   25.3908  -19.5993  -10.0883 C   0  0  0  0  0  0  0  0  0  0  0  0
   22.4939  -20.1708  -12.3892 C   0  0  0  0  0  0  0  0  0  0  0  0
   22.6057  -20.9870  -13.6653 C   0  0  2  0  0  0  0  0  0  0  0  0
   23.9893  -21.1573  -14.0564 N   0  0  0  0  0  0  0  0  0  0  0  0
   21.8062  -20.3543  -14.7514 C   0  0  0  0  0  0  0  0  0  0  0  0
   22.3992  -20.0088  -15.9538 O   0  0  0  0  0  0  0  0  0  0  0  0
   20.5778  -20.1122  -14.6215 O   0  0  0  0  0  0  0  0  0  0  0  0
  2  1  1  1
  2  3  1  0
  4  2  1  0
  4  5  1  0
  5  6  1  6
  7  5  1  0
  7  8  2  0
  9 10  1  0
 10 11  2  0
 11 12  1  0
 13 12  2  0
 13 14  1  0
 15 14  1  1
 15 16  1  0
 16  7  1  0
 17 15  1  0
 18 17  2  0
 19 13  1  0
 20 10  1  0
 20 19  2  0
 22 21  1  1
 22 23  1  0
 23 17  1  0
 24 22  1  0
 25 24  1  0
 26 24  2  0
M  END
$$$$
