LYA.pdb
     RDKit          3D

 26 26  0  0  1  0  0  0  0  0999 V2000
   28.1562  -20.8636  -10.0062 C   0  0  0  0  0  0  0  0  0  0  0  0
   27.8592  -20.6449  -11.4681 C   0  0  1  0  0  0  0  0  0  0  0  0
   29.1486  -20.4766  -12.2042 C   0  0  0  0  0  0  0  0  0  0  0  0
   26.9865  -21.7463  -12.0443 C   0  0  0  0  0  0  0  0  0  0  0  0
   26.5441  -21.2939  -13.4166 C   0  0  2  0  0  0  0  0  0  0  0  0
   27.0686  -19.9789  -13.6416 N   0  0  0  0  0  0  0  0  0  0  0  0
   25.0817  -21.3730  -13.5888 C   0  0  0  0  0  0  0  0  0  0  0  0
   24.5216  -22.4902  -13.5026 O   0  0  0  0  0  0  0  0  0  0  0  0
   20.5836  -22.0146   -8.2370 O   0  0  0  0  0  0  0  0  0  0  0  0
   20.9625  -21.3961   -9.4378 C   0  0  0  0  0  0  0  0  0  0  0  0
   20.2824  -21.6841  -10.6030 C   0  0  0  0  0  0  0  0  0  0  0  0
   20.7084  -21.0358  -11.7628 C   0  0  0  0  0  0  0  0  0  0  0  0
   21.7602  -20.1449  -11.7598 C   0  0  0  0  0  0  0  0  0  0  0  0
   22.1922  -19.4717  -13.0115 C   0  0  0  0  0  0  0  0  0  0  0  0
   22.8505  -20.3725  -13.9989 C   0  0  2  0  0  0  0  0  0  0  0  0
   24.2831  -20.2362  -13.8481 N   0  0  0  0  0  0  0  0  0  0  0  0
   22.5121  -20.1159  -15.4095 C   0  0  0  0  0  0  0  0  0  0  0  0
   23.1226  -19.1643  -15.9691 O   0  0  0  0  0  0  0  0  0  0  0  0
   22.3963  -19.9042  -10.5537 C   0  0  0  0  0  0  0  0  0  0  0  0
   22.0221  -20.5123   -9.3789 C   0  0  0  0  0  0  0  0  0  0  0  0
   20.7175  -21.5945  -18.3251 C   0  0  0  0  0  0  0  0  0  0  0  0
   21.3312  -20.4494  -17.5380 C   0  0  2  0  0  0  0  0  0  0  0  0
   21.5807  -20.8346  -16.1648 N   0  0  0  0  0  0  0  0  0  0  0  0
   20.4571  -19.2457  -17.6162 C   0  0  0  0  0  0  0  0  0  0  0  0
   19.6669  -18.8771  -16.5409 O   0  0  0  0  0  0  0  0  0  0  0  0
   20.4028  -18.5263  -18.6477 O   0  0  0  0  0  0  0  0  0  0  0  0
  2  1  1  1
  2  3  1  0
  4  2  1  0
  4  5  1  0
  5  6  1  1
  7  5  1  0
  7  8  2  0
  9 10  1  0
 10 11  2  0
 11 12  1  0
 13 12  2  0
 13 14  1  0
 15 14  1  1
 15 16  1  0
 16  7  1  0
 17 15  1  0
 18 17  2  0
 19 13  1  0
 20 10  1  0
 20 19  2  0
 22 21  1  6
 22 23  1  0
 23 17  1  0
 24 22  1  0
 25 24  1  0
 26 24  2  0
M  END
$$$$
