LYA.pdb
     RDKit          3D

 26 26  0  0  1  0  0  0  0  0999 V2000
   27.6835  -16.3381  -17.3462 C   0  0  0  0  0  0  0  0  0  0  0  0
   26.7586  -15.2100  -16.9653 C   0  0  1  0  0  0  0  0  0  0  0  0
   27.5665  -14.0989  -16.3776 C   0  0  0  0  0  0  0  0  0  0  0  0
   25.8938  -14.7626  -18.1308 C   0  0  0  0  0  0  0  0  0  0  0  0
   25.0384  -13.6180  -17.6390 C   0  0  2  0  0  0  0  0  0  0  0  0
   24.3674  -14.0452  -16.4465 N   0  0  0  0  0  0  0  0  0  0  0  0
   24.1169  -13.1201  -18.6770 C   0  0  0  0  0  0  0  0  0  0  0  0
   24.5871  -12.7550  -19.7793 O   0  0  0  0  0  0  0  0  0  0  0  0
   22.1719  -18.3353  -22.4053 O   0  0  0  0  0  0  0  0  0  0  0  0
   21.8260  -17.1697  -21.7054 C   0  0  0  0  0  0  0  0  0  0  0  0
   21.9470  -17.1321  -20.3317 C   0  0  0  0  0  0  0  0  0  0  0  0
   21.5868  -15.9437  -19.6956 C   0  0  0  0  0  0  0  0  0  0  0  0
   21.1288  -14.8480  -20.3953 C   0  0  0  0  0  0  0  0  0  0  0  0
   20.7507  -13.5967  -19.6895 C   0  0  0  0  0  0  0  0  0  0  0  0
   21.8565  -12.6069  -19.5571 C   0  0  2  0  0  0  0  0  0  0  0  0
   22.7201  -13.0376  -18.4789 N   0  0  0  0  0  0  0  0  0  0  0  0
   21.4338  -11.2232  -19.2803 C   0  0  0  0  0  0  0  0  0  0  0  0
   21.7308  -10.7621  -18.1442 O   0  0  0  0  0  0  0  0  0  0  0  0
   21.0331  -14.9576  -21.7723 C   0  0  0  0  0  0  0  0  0  0  0  0
   21.3731  -16.1016  -22.4546 C   0  0  0  0  0  0  0  0  0  0  0  0
   21.7107   -8.2682  -19.4393 C   0  0  0  0  0  0  0  0  0  0  0  0
   20.4415   -9.0312  -19.7771 C   0  0  2  0  0  0  0  0  0  0  0  0
   20.7394  -10.3937  -20.1659 N   0  0  0  0  0  0  0  0  0  0  0  0
   19.6791   -8.3159  -20.8383 C   0  0  0  0  0  0  0  0  0  0  0  0
   19.2408   -7.0180  -20.6384 O   0  0  0  0  0  0  0  0  0  0  0  0
   19.4070   -8.8549  -21.9428 O   0  0  0  0  0  0  0  0  0  0  0  0
  2  1  1  6
  2  3  1  0
  4  2  1  0
  4  5  1  0
  5  6  1  1
  7  5  1  0
  7  8  2  0
  9 10  1  0
 10 11  2  0
 11 12  1  0
 13 12  2  0
 13 14  1  0
 15 14  1  1
 15 16  1  0
 16  7  1  0
 17 15  1  0
 18 17  2  0
 19 13  1  0
 20 10  1  0
 20 19  2  0
 22 21  1  6
 22 23  1  0
 23 17  1  0
 24 22  1  0
 25 24  1  0
 26 24  2  0
M  END
$$$$
