LYA.pdb
     RDKit          3D

 26 26  0  0  1  0  0  0  0  0999 V2000
   23.3698  -20.2019  -21.3160 C   0  0  0  0  0  0  0  0  0  0  0  0
   23.8488  -20.9762  -20.1142 C   0  0  1  0  0  0  0  0  0  0  0  0
   25.1744  -21.5892  -20.4301 C   0  0  0  0  0  0  0  0  0  0  0  0
   23.8742  -20.1226  -18.8583 C   0  0  0  0  0  0  0  0  0  0  0  0
   24.4434  -20.9765  -17.7490 C   0  0  2  0  0  0  0  0  0  0  0  0
   23.9545  -22.3130  -17.9217 N   0  0  0  0  0  0  0  0  0  0  0  0
   24.1590  -20.4225  -16.4124 C   0  0  0  0  0  0  0  0  0  0  0  0
   24.5024  -19.2445  -16.1599 O   0  0  0  0  0  0  0  0  0  0  0  0
   18.5453  -17.3751  -17.2613 O   0  0  0  0  0  0  0  0  0  0  0  0
   19.3343  -18.1757  -16.4219 C   0  0  0  0  0  0  0  0  0  0  0  0
   20.0194  -17.6019  -15.3710 C   0  0  0  0  0  0  0  0  0  0  0  0
   20.7861  -18.4526  -14.5739 C   0  0  0  0  0  0  0  0  0  0  0  0
   20.8651  -19.8077  -14.8137 C   0  0  0  0  0  0  0  0  0  0  0  0
   21.6917  -20.6878  -13.9484 C   0  0  0  0  0  0  0  0  0  0  0  0
   23.1612  -20.5400  -14.1458 C   0  0  2  0  0  0  0  0  0  0  0  0
   23.5128  -21.1683  -15.4009 N   0  0  0  0  0  0  0  0  0  0  0  0
   24.0013  -21.1280  -13.0882 C   0  0  0  0  0  0  0  0  0  0  0  0
   23.7478  -22.3217  -12.7686 O   0  0  0  0  0  0  0  0  0  0  0  0
   20.1507  -20.3142  -15.8862 C   0  0  0  0  0  0  0  0  0  0  0  0
   19.3784  -19.5263  -16.7066 C   0  0  0  0  0  0  0  0  0  0  0  0
   26.7282  -20.2312  -10.6641 C   0  0  0  0  0  0  0  0  0  0  0  0
   25.5116  -20.9969  -11.1547 C   0  0  2  0  0  0  0  0  0  0  0  0
   25.0423  -20.4753  -12.4212 N   0  0  0  0  0  0  0  0  0  0  0  0
   24.4375  -20.9706  -10.1228 C   0  0  0  0  0  0  0  0  0  0  0  0
   23.2096  -20.3934  -10.3978 O   0  0  0  0  0  0  0  0  0  0  0  0
   24.6010  -21.4646   -8.9767 O   0  0  0  0  0  0  0  0  0  0  0  0
  2  1  1  6
  2  3  1  0
  4  2  1  0
  4  5  1  0
  5  6  1  1
  7  5  1  0
  7  8  2  0
  9 10  1  0
 10 11  2  0
 11 12  1  0
 13 12  2  0
 13 14  1  0
 15 14  1  1
 15 16  1  0
 16  7  1  0
 17 15  1  0
 18 17  2  0
 19 13  1  0
 20 10  1  0
 20 19  2  0
 22 21  1  1
 22 23  1  0
 23 17  1  0
 24 22  1  0
 25 24  1  0
 26 24  2  0
M  END
$$$$
