LYA.pdb
     RDKit          3D

 26 26  0  0  1  0  0  0  0  0999 V2000
   23.4288  -19.6493  -21.7513 C   0  0  0  0  0  0  0  0  0  0  0  0
   24.4012  -19.2456  -20.6720 C   0  0  1  0  0  0  0  0  0  0  0  0
   24.4396  -17.7543  -20.5880 C   0  0  0  0  0  0  0  0  0  0  0  0
   24.0845  -19.9068  -19.3420 C   0  0  0  0  0  0  0  0  0  0  0  0
   25.1878  -19.5287  -18.3811 C   0  0  2  0  0  0  0  0  0  0  0  0
   26.4435  -19.7918  -19.0206 N   0  0  0  0  0  0  0  0  0  0  0  0
   25.0493  -20.2003  -17.0757 C   0  0  0  0  0  0  0  0  0  0  0  0
   24.8406  -21.4353  -17.0493 O   0  0  0  0  0  0  0  0  0  0  0  0
   25.1447  -21.6621   -8.3619 O   0  0  0  0  0  0  0  0  0  0  0  0
   25.3035  -21.1393   -9.6540 C   0  0  0  0  0  0  0  0  0  0  0  0
   26.2434  -21.6839  -10.5045 C   0  0  0  0  0  0  0  0  0  0  0  0
   26.3517  -21.1186  -11.7755 C   0  0  0  0  0  0  0  0  0  0  0  0
   25.5619  -20.0630  -12.1775 C   0  0  0  0  0  0  0  0  0  0  0  0
   25.7020  -19.4808  -13.5370 C   0  0  0  0  0  0  0  0  0  0  0  0
   24.9508  -20.2084  -14.5982 C   0  0  2  0  0  0  0  0  0  0  0  0
   25.1425  -19.5057  -15.8485 N   0  0  0  0  0  0  0  0  0  0  0  0
   23.5023  -20.3424  -14.3657 C   0  0  0  0  0  0  0  0  0  0  0  0
   22.7852  -19.3643  -14.7127 O   0  0  0  0  0  0  0  0  0  0  0  0
   24.6399  -19.5673  -11.2712 C   0  0  0  0  0  0  0  0  0  0  0  0
   24.4871  -20.0824  -10.0057 C   0  0  0  0  0  0  0  0  0  0  0  0
   21.1900  -20.0935  -12.6511 C   0  0  0  0  0  0  0  0  0  0  0  0
   21.4721  -21.3647  -13.4333 C   0  0  2  0  0  0  0  0  0  0  0  0
   22.8703  -21.4532  -13.7988 N   0  0  0  0  0  0  0  0  0  0  0  0
   20.5899  -21.4373  -14.6314 C   0  0  0  0  0  0  0  0  0  0  0  0
   19.2125  -21.4065  -14.4956 O   0  0  0  0  0  0  0  0  0  0  0  0
   21.0545  -21.5281  -15.7977 O   0  0  0  0  0  0  0  0  0  0  0  0
  2  1  1  6
  2  3  1  0
  4  2  1  0
  4  5  1  0
  5  6  1  6
  7  5  1  0
  7  8  2  0
  9 10  1  0
 10 11  2  0
 11 12  1  0
 13 12  2  0
 13 14  1  0
 15 14  1  1
 15 16  1  0
 16  7  1  0
 17 15  1  0
 18 17  2  0
 19 13  1  0
 20 10  1  0
 20 19  2  0
 22 21  1  6
 22 23  1  0
 23 17  1  0
 24 22  1  0
 25 24  1  0
 26 24  2  0
M  END
$$$$
