LYA.pdb
     RDKit          3D

 26 26  0  0  1  0  0  0  0  0999 V2000
   17.3874  -15.3382  -15.3144 C   0  0  0  0  0  0  0  0  0  0  0  0
   17.8586  -14.2123  -16.1996 C   0  0  1  0  0  0  0  0  0  0  0  0
   16.7391  -13.8042  -17.1012 C   0  0  0  0  0  0  0  0  0  0  0  0
   18.4262  -13.0545  -15.3971 C   0  0  0  0  0  0  0  0  0  0  0  0
   18.7892  -11.9653  -16.3797 C   0  0  2  0  0  0  0  0  0  0  0  0
   19.9519  -12.3889  -17.1032 N   0  0  0  0  0  0  0  0  0  0  0  0
   18.9577  -10.6541  -15.7265 C   0  0  0  0  0  0  0  0  0  0  0  0
   18.0397  -10.2213  -14.9919 O   0  0  0  0  0  0  0  0  0  0  0  0
   22.8024   -2.9144  -13.7464 O   0  0  0  0  0  0  0  0  0  0  0  0
   22.4979   -4.2568  -14.0173 C   0  0  0  0  0  0  0  0  0  0  0  0
   23.0484   -4.8769  -15.1198 C   0  0  0  0  0  0  0  0  0  0  0  0
   22.7058   -6.2125  -15.3332 C   0  0  0  0  0  0  0  0  0  0  0  0
   21.8565   -6.8948  -14.4888 C   0  0  0  0  0  0  0  0  0  0  0  0
   21.5086   -8.3164  -14.7436 C   0  0  0  0  0  0  0  0  0  0  0  0
   20.1658   -8.5209  -15.3560 C   0  0  2  0  0  0  0  0  0  0  0  0
   20.1161   -9.8626  -15.8955 N   0  0  0  0  0  0  0  0  0  0  0  0
   19.8151   -7.5805  -16.4342 C   0  0  0  0  0  0  0  0  0  0  0  0
   20.3081   -7.8200  -17.5704 O   0  0  0  0  0  0  0  0  0  0  0  0
   21.3415   -6.2089  -13.4019 C   0  0  0  0  0  0  0  0  0  0  0  0
   21.6423   -4.8933  -13.1398 C   0  0  0  0  0  0  0  0  0  0  0  0
   19.7770   -5.8691  -18.5388 C   0  0  0  0  0  0  0  0  0  0  0  0
   18.7578   -5.6057  -17.4438 C   0  0  2  0  0  0  0  0  0  0  0  0
   18.9904   -6.4598  -16.2979 N   0  0  0  0  0  0  0  0  0  0  0  0
   17.3767   -5.7726  -17.9764 C   0  0  0  0  0  0  0  0  0  0  0  0
   16.2820   -5.3486  -17.2427 O   0  0  0  0  0  0  0  0  0  0  0  0
   17.1530   -6.2978  -19.0983 O   0  0  0  0  0  0  0  0  0  0  0  0
  2  1  1  1
  2  3  1  0
  4  2  1  0
  4  5  1  0
  5  6  1  1
  7  5  1  0
  7  8  2  0
  9 10  1  0
 10 11  2  0
 11 12  1  0
 13 12  2  0
 13 14  1  0
 15 14  1  6
 15 16  1  0
 16  7  1  0
 17 15  1  0
 18 17  2  0
 19 13  1  0
 20 10  1  0
 20 19  2  0
 22 21  1  6
 22 23  1  0
 23 17  1  0
 24 22  1  0
 25 24  1  0
 26 24  2  0
M  END
$$$$
