LYA.pdb
     RDKit          3D

 26 26  0  0  1  0  0  0  0  0999 V2000
   36.9542  -30.3728  -13.7882 C   0  0  0  0  0  0  0  0  0  0  0  0
   36.9525  -31.0921  -15.1133 C   0  0  1  0  0  0  0  0  0  0  0  0
   38.3617  -31.2321  -15.5901 C   0  0  0  0  0  0  0  0  0  0  0  0
   36.2159  -32.4184  -15.0419 C   0  0  0  0  0  0  0  0  0  0  0  0
   36.1932  -32.9927  -16.4395 C   0  0  2  0  0  0  0  0  0  0  0  0
   35.3858  -32.1370  -17.2585 N   0  0  0  0  0  0  0  0  0  0  0  0
   35.7536  -34.4001  -16.4604 C   0  0  0  0  0  0  0  0  0  0  0  0
   34.6214  -34.6738  -16.9214 O   0  0  0  0  0  0  0  0  0  0  0  0
   37.7622  -37.1076  -22.3118 O   0  0  0  0  0  0  0  0  0  0  0  0
   37.6175  -37.2554  -20.9243 C   0  0  0  0  0  0  0  0  0  0  0  0
   36.8105  -38.2544  -20.4205 C   0  0  0  0  0  0  0  0  0  0  0  0
   36.7089  -38.3481  -19.0321 C   0  0  0  0  0  0  0  0  0  0  0  0
   37.3790  -37.4879  -18.1889 C   0  0  0  0  0  0  0  0  0  0  0  0
   37.2493  -37.6113  -16.7143 C   0  0  0  0  0  0  0  0  0  0  0  0
   36.1250  -36.8288  -16.1279 C   0  0  2  0  0  0  0  0  0  0  0  0
   36.5598  -35.4567  -15.9801 N   0  0  0  0  0  0  0  0  0  0  0  0
   35.6448  -37.3007  -14.8177 C   0  0  0  0  0  0  0  0  0  0  0  0
   36.2085  -36.8079  -13.8024 O   0  0  0  0  0  0  0  0  0  0  0  0
   38.1712  -36.5092  -18.7648 C   0  0  0  0  0  0  0  0  0  0  0  0
   38.3106  -36.3675  -20.1252 C   0  0  0  0  0  0  0  0  0  0  0  0
   32.9033  -39.3249  -13.2606 C   0  0  0  0  0  0  0  0  0  0  0  0
   34.2132  -38.5560  -13.2648 C   0  0  2  0  0  0  0  0  0  0  0  0
   34.6279  -38.2385  -14.6152 N   0  0  0  0  0  0  0  0  0  0  0  0
   35.2626  -39.3248  -12.5390 C   0  0  0  0  0  0  0  0  0  0  0  0
   35.3530  -39.2647  -11.1589 O   0  0  0  0  0  0  0  0  0  0  0  0
   36.0967  -40.0491  -13.1425 O   0  0  0  0  0  0  0  0  0  0  0  0
  2  1  1  1
  2  3  1  0
  4  2  1  0
  4  5  1  0
  5  6  1  6
  7  5  1  0
  7  8  2  0
  9 10  1  0
 10 11  2  0
 11 12  1  0
 13 12  2  0
 13 14  1  0
 15 14  1  1
 15 16  1  0
 16  7  1  0
 17 15  1  0
 18 17  2  0
 19 13  1  0
 20 10  1  0
 20 19  2  0
 22 21  1  6
 22 23  1  0
 23 17  1  0
 24 22  1  0
 25 24  1  0
 26 24  2  0
M  END
$$$$
