LYA.pdb
     RDKit          3D

 26 26  0  0  1  0  0  0  0  0999 V2000
   14.2719   -7.1113  -17.7740 C   0  0  0  0  0  0  0  0  0  0  0  0
   15.7620   -7.2558  -17.5955 C   0  0  1  0  0  0  0  0  0  0  0  0
   16.4541   -6.5718  -18.7295 C   0  0  0  0  0  0  0  0  0  0  0  0
   16.2243   -6.7638  -16.2350 C   0  0  0  0  0  0  0  0  0  0  0  0
   17.7261   -6.9245  -16.1884 C   0  0  2  0  0  0  0  0  0  0  0  0
   18.0178   -8.3075  -15.9495 N   0  0  0  0  0  0  0  0  0  0  0  0
   18.3567   -6.0206  -15.2088 C   0  0  0  0  0  0  0  0  0  0  0  0
   18.1485   -6.2106  -13.9881 O   0  0  0  0  0  0  0  0  0  0  0  0
   22.9236   -9.4061  -13.0643 O   0  0  0  0  0  0  0  0  0  0  0  0
   22.4965   -8.1159  -13.4122 C   0  0  0  0  0  0  0  0  0  0  0  0
   22.1043   -7.2334  -12.4270 C   0  0  0  0  0  0  0  0  0  0  0  0
   21.6906   -5.9661  -12.8389 C   0  0  0  0  0  0  0  0  0  0  0  0
   21.6693   -5.5982  -14.1671 C   0  0  0  0  0  0  0  0  0  0  0  0
   21.2214   -4.2418  -14.5750 C   0  0  0  0  0  0  0  0  0  0  0  0
   19.7426   -4.0604  -14.5887 C   0  0  2  0  0  0  0  0  0  0  0  0
   19.1894   -4.9448  -15.5915 N   0  0  0  0  0  0  0  0  0  0  0  0
   19.2782   -2.6927  -14.8780 C   0  0  0  0  0  0  0  0  0  0  0  0
   19.4223   -2.2901  -16.0648 O   0  0  0  0  0  0  0  0  0  0  0  0
   22.0766   -6.5355  -15.1012 C   0  0  0  0  0  0  0  0  0  0  0  0
   22.4946   -7.7990  -14.7564 C   0  0  0  0  0  0  0  0  0  0  0  0
   17.1808    0.0524  -13.5261 C   0  0  0  0  0  0  0  0  0  0  0  0
   18.3187   -0.4875  -14.3752 C   0  0  2  0  0  0  0  0  0  0  0  0
   18.6987   -1.8192  -13.9528 N   0  0  0  0  0  0  0  0  0  0  0  0
   19.4773    0.4480  -14.3362 C   0  0  0  0  0  0  0  0  0  0  0  0
   19.4408    1.6451  -15.0306 O   0  0  0  0  0  0  0  0  0  0  0  0
   20.5205    0.1913  -13.6800 O   0  0  0  0  0  0  0  0  0  0  0  0
  2  1  1  6
  2  3  1  0
  4  2  1  0
  4  5  1  0
  5  6  1  1
  7  5  1  0
  7  8  2  0
  9 10  1  0
 10 11  2  0
 11 12  1  0
 13 12  2  0
 13 14  1  0
 15 14  1  6
 15 16  1  0
 16  7  1  0
 17 15  1  0
 18 17  2  0
 19 13  1  0
 20 10  1  0
 20 19  2  0
 22 21  1  1
 22 23  1  0
 23 17  1  0
 24 22  1  0
 25 24  1  0
 26 24  2  0
M  END
$$$$
