HVI.pdb
     RDKit          3D

 26 26  0  0  1  0  0  0  0  0999 V2000
    7.3453  -17.3891   19.1755 N   0  0  0  0  0  0  0  0  0  0  0  0
    7.6036  -16.1665   19.9020 C   0  0  1  0  0  0  0  0  0  0  0  0
    6.8036  -15.0434   19.2680 C   0  0  0  0  0  0  0  0  0  0  0  0
    7.5792  -14.4799   18.1108 C   0  0  0  0  0  0  0  0  0  0  0  0
    8.8054  -14.8952   17.6525 C   0  0  0  0  0  0  0  0  0  0  0  0
    9.1565  -14.1385   16.6019 N   0  0  0  0  0  0  0  0  0  0  0  0
    8.1617  -13.2594   16.4046 C   0  0  0  0  0  0  0  0  0  0  0  0
    7.2153  -13.4642   17.3098 N   0  0  0  0  0  0  0  0  0  0  0  0
    7.1064  -16.3404   21.2850 C   0  0  0  0  0  0  0  0  0  0  0  0
    5.8771  -16.1858   21.5812 O   0  0  0  0  0  0  0  0  0  0  0  0
    9.2667  -18.6321   23.8707 C   0  0  0  0  0  0  0  0  0  0  0  0
    7.7988  -18.3524   24.0481 C   0  0  1  0  0  0  0  0  0  0  0  0
    7.4420  -18.6253   25.4854 C   0  0  0  0  0  0  0  0  0  0  0  0
    7.4753  -16.8911   23.7031 C   0  0  2  0  0  0  0  0  0  0  0  0
    7.9661  -16.6874   22.3544 N   0  0  0  0  0  0  0  0  0  0  0  0
    8.2702  -16.0031   24.6249 C   0  0  0  0  0  0  0  0  0  0  0  0
    9.4527  -15.6870   24.3902 O   0  0  0  0  0  0  0  0  0  0  0  0
    5.6548  -11.7953   26.7758 C   0  0  0  0  0  0  0  0  0  0  0  0
    6.6837  -12.6907   26.1994 C   0  0  0  0  0  0  0  0  0  0  0  0
    7.5175  -13.4872   27.1411 C   0  0  2  0  0  0  0  0  0  0  0  0
    8.1762  -12.5251   28.1085 C   0  0  0  0  0  0  0  0  0  0  0  0
    8.4091  -14.5240   26.6134 C   0  0  2  0  0  0  0  0  0  0  0  0
    7.6888  -15.4973   25.7971 N   0  0  0  0  0  0  0  0  0  0  0  0
    9.0789  -15.2994   27.6644 C   0  0  0  0  0  0  0  0  0  0  0  0
   10.2860  -14.9835   28.2713 O   0  0  0  0  0  0  0  0  0  0  0  0
    8.4958  -16.3796   28.0577 O   0  0  0  0  0  0  0  0  0  0  0  0
  2  1  1  6
  3  2  1  0
  3  4  1  0
  4  8  1  0
  5  6  1  0
  5  4  2  0
  6  7  1  0
  7  8  2  0
  9 10  2  0
  9  2  1  0
 12 11  1  1
 12 14  1  0
 13 12  1  0
 14 16  1  0
 14 15  1  6
 15  9  1  0
 16 17  2  0
 19 18  1  0
 20 21  1  6
 20 19  1  0
 22 20  1  0
 22 23  1  1
 23 16  1  0
 24 22  1  0
 25 24  1  0
 26 24  2  0
M  END
$$$$
