HVI.pdb
     RDKit          3D

 26 26  0  0  1  0  0  0  0  0999 V2000
   12.1315  -17.8139   20.3427 N   0  0  0  0  0  0  0  0  0  0  0  0
   11.8163  -17.8128   21.7533 C   0  0  1  0  0  0  0  0  0  0  0  0
   13.1118  -17.7801   22.5431 C   0  0  0  0  0  0  0  0  0  0  0  0
   13.8078  -19.1043   22.4009 C   0  0  0  0  0  0  0  0  0  0  0  0
   13.3044  -20.3441   22.7101 C   0  0  0  0  0  0  0  0  0  0  0  0
   14.2354  -21.2715   22.4407 N   0  0  0  0  0  0  0  0  0  0  0  0
   15.3096  -20.6200   21.9683 C   0  0  0  0  0  0  0  0  0  0  0  0
   15.0532  -19.3198   21.9444 N   0  0  0  0  0  0  0  0  0  0  0  0
   11.0784  -16.5667   22.0580 C   0  0  0  0  0  0  0  0  0  0  0  0
   11.6400  -15.5762   22.6294 O   0  0  0  0  0  0  0  0  0  0  0  0
    6.8163  -14.0646   21.5030 C   0  0  0  0  0  0  0  0  0  0  0  0
    7.7307  -15.2106   21.1647 C   0  0  1  0  0  0  0  0  0  0  0  0
    8.1416  -15.0700   19.7228 C   0  0  0  0  0  0  0  0  0  0  0  0
    8.9775  -15.1982   22.0616 C   0  0  2  0  0  0  0  0  0  0  0  0
    9.7105  -16.4049   21.7329 N   0  0  0  0  0  0  0  0  0  0  0  0
    8.5267  -15.3054   23.4952 C   0  0  0  0  0  0  0  0  0  0  0  0
    8.6018  -16.3695   24.1398 O   0  0  0  0  0  0  0  0  0  0  0  0
    7.0347  -10.5149   26.2292 C   0  0  0  0  0  0  0  0  0  0  0  0
    7.7538  -11.7896   26.0041 C   0  0  0  0  0  0  0  0  0  0  0  0
    6.9597  -13.0486   26.0284 C   0  0  2  0  0  0  0  0  0  0  0  0
    6.2977  -13.1560   27.3870 C   0  0  0  0  0  0  0  0  0  0  0  0
    7.5677  -14.2931   25.5487 C   0  0  2  0  0  0  0  0  0  0  0  0
    7.9990  -14.1871   24.1576 N   0  0  0  0  0  0  0  0  0  0  0  0
    6.6527  -15.4397   25.5987 C   0  0  0  0  0  0  0  0  0  0  0  0
    6.6584  -16.4507   26.5490 O   0  0  0  0  0  0  0  0  0  0  0  0
    5.7630  -15.5206   24.6694 O   0  0  0  0  0  0  0  0  0  0  0  0
  2  1  1  6
  3  2  1  0
  3  4  1  0
  4  8  1  0
  5  6  1  0
  5  4  2  0
  6  7  1  0
  7  8  2  0
  9 10  2  0
  9  2  1  0
 12 11  1  1
 12 14  1  0
 13 12  1  0
 14 16  1  0
 14 15  1  6
 15  9  1  0
 16 17  2  0
 19 18  1  0
 20 21  1  1
 20 19  1  0
 22 20  1  0
 22 23  1  6
 23 16  1  0
 24 22  1  0
 25 24  1  0
 26 24  2  0
M  END
$$$$
