HVI.pdb
     RDKit          3D

 26 26  0  0  1  0  0  0  0  0999 V2000
   10.7808  -16.3658   18.2452 N   0  0  0  0  0  0  0  0  0  0  0  0
   10.7141  -17.0430   19.5204 C   0  0  1  0  0  0  0  0  0  0  0  0
   12.0683  -16.9420   20.1983 C   0  0  0  0  0  0  0  0  0  0  0  0
   12.8134  -15.7648   19.6351 C   0  0  0  0  0  0  0  0  0  0  0  0
   12.5126  -15.0601   18.4954 C   0  0  0  0  0  0  0  0  0  0  0  0
   13.4179  -14.0830   18.3361 N   0  0  0  0  0  0  0  0  0  0  0  0
   14.2758  -14.1749   19.3643 C   0  0  0  0  0  0  0  0  0  0  0  0
   13.9132  -15.1838   20.1436 N   0  0  0  0  0  0  0  0  0  0  0  0
    9.7372  -16.3266   20.3704 C   0  0  0  0  0  0  0  0  0  0  0  0
    9.4164  -15.1138   20.1488 O   0  0  0  0  0  0  0  0  0  0  0  0
    6.2924  -17.6870   21.1189 C   0  0  0  0  0  0  0  0  0  0  0  0
    6.9612  -17.3556   22.4254 C   0  0  1  0  0  0  0  0  0  0  0  0
    7.5756  -18.6185   22.9689 C   0  0  0  0  0  0  0  0  0  0  0  0
    8.0523  -16.2931   22.2269 C   0  0  2  0  0  0  0  0  0  0  0  0
    9.1053  -16.9464   21.4747 N   0  0  0  0  0  0  0  0  0  0  0  0
    8.6063  -15.9292   23.5800 C   0  0  0  0  0  0  0  0  0  0  0  0
    9.7641  -16.2306   23.9293 O   0  0  0  0  0  0  0  0  0  0  0  0
    6.0256  -11.7029   25.9560 C   0  0  0  0  0  0  0  0  0  0  0  0
    7.1934  -12.4971   25.5109 C   0  0  0  0  0  0  0  0  0  0  0  0
    7.5976  -13.6637   26.3429 C   0  0  2  0  0  0  0  0  0  0  0  0
    8.1311  -13.1352   27.6587 C   0  0  0  0  0  0  0  0  0  0  0  0
    8.4054  -14.7301   25.7440 C   0  0  2  0  0  0  0  0  0  0  0  0
    7.8175  -15.2266   24.5030 N   0  0  0  0  0  0  0  0  0  0  0  0
    8.5521  -15.9021   26.6154 C   0  0  0  0  0  0  0  0  0  0  0  0
    9.6209  -16.1653   27.4603 O   0  0  0  0  0  0  0  0  0  0  0  0
    7.6029  -16.7738   26.5902 O   0  0  0  0  0  0  0  0  0  0  0  0
  2  1  1  6
  3  2  1  0
  3  4  1  0
  4  8  1  0
  5  6  1  0
  5  4  2  0
  6  7  1  0
  7  8  2  0
  9 10  2  0
  9  2  1  0
 12 11  1  6
 12 14  1  0
 13 12  1  0
 14 16  1  0
 14 15  1  6
 15  9  1  0
 16 17  2  0
 19 18  1  0
 20 21  1  1
 20 19  1  0
 22 20  1  0
 22 23  1  6
 23 16  1  0
 24 22  1  0
 25 24  1  0
 26 24  2  0
M  END
$$$$
