HVI.pdb
     RDKit          3D

 26 26  0  0  1  0  0  0  0  0999 V2000
   10.5981  -16.9611   18.7266 N   0  0  0  0  0  0  0  0  0  0  0  0
   11.0133  -16.2526   19.9161 C   0  0  1  0  0  0  0  0  0  0  0  0
   11.4410  -14.8500   19.5246 C   0  0  0  0  0  0  0  0  0  0  0  0
   12.8548  -14.8907   19.0170 C   0  0  0  0  0  0  0  0  0  0  0  0
   13.9936  -15.1181   19.7500 C   0  0  0  0  0  0  0  0  0  0  0  0
   15.0548  -15.0740   18.9305 N   0  0  0  0  0  0  0  0  0  0  0  0
   14.5858  -14.8219   17.6984 C   0  0  0  0  0  0  0  0  0  0  0  0
   13.2659  -14.7119   17.7502 N   0  0  0  0  0  0  0  0  0  0  0  0
    9.8398  -16.1265   20.8087 C   0  0  0  0  0  0  0  0  0  0  0  0
    8.8421  -15.3940   20.5071 O   0  0  0  0  0  0  0  0  0  0  0  0
    7.7815  -18.9428   21.9819 C   0  0  0  0  0  0  0  0  0  0  0  0
    8.2262  -18.2060   23.2162 C   0  0  1  0  0  0  0  0  0  0  0  0
    9.4381  -18.9089   23.7683 C   0  0  0  0  0  0  0  0  0  0  0  0
    8.5795  -16.7484   22.8851 C   0  0  2  0  0  0  0  0  0  0  0  0
    9.7592  -16.8107   22.0450 N   0  0  0  0  0  0  0  0  0  0  0  0
    8.9592  -16.0536   24.1670 C   0  0  0  0  0  0  0  0  0  0  0  0
   10.1424  -15.9535   24.5457 O   0  0  0  0  0  0  0  0  0  0  0  0
    5.5339  -12.0871   25.8433 C   0  0  0  0  0  0  0  0  0  0  0  0
    6.7813  -12.8194   25.5267 C   0  0  0  0  0  0  0  0  0  0  0  0
    7.3149  -13.7578   26.5518 C   0  0  2  0  0  0  0  0  0  0  0  0
    7.6317  -12.9561   27.7977 C   0  0  0  0  0  0  0  0  0  0  0  0
    8.3480  -14.7264   26.1734 C   0  0  2  0  0  0  0  0  0  0  0  0
    7.9708  -15.4887   24.9865 N   0  0  0  0  0  0  0  0  0  0  0  0
    8.6187  -15.7202   27.2192 C   0  0  0  0  0  0  0  0  0  0  0  0
    9.6211  -15.6492   28.1761 O   0  0  0  0  0  0  0  0  0  0  0  0
    7.8590  -16.7610   27.2494 O   0  0  0  0  0  0  0  0  0  0  0  0
  2  1  1  6
  3  2  1  0
  3  4  1  0
  4  8  1  0
  5  6  1  0
  5  4  2  0
  6  7  1  0
  7  8  2  0
  9 10  2  0
  9  2  1  0
 12 11  1  6
 12 14  1  0
 13 12  1  0
 14 16  1  0
 14 15  1  6
 15  9  1  0
 16 17  2  0
 19 18  1  0
 20 21  1  1
 20 19  1  0
 22 20  1  0
 22 23  1  6
 23 16  1  0
 24 22  1  0
 25 24  1  0
 26 24  2  0
M  END
$$$$
