HVI.pdb
     RDKit          3D

 26 26  0  0  1  0  0  0  0  0999 V2000
   12.1581  -17.0694   19.5541 N   0  0  0  0  0  0  0  0  0  0  0  0
   11.1716  -17.6951   20.4054 C   0  0  1  0  0  0  0  0  0  0  0  0
   11.8194  -18.8623   21.1273 C   0  0  0  0  0  0  0  0  0  0  0  0
   11.9468  -20.0189   20.1764 C   0  0  0  0  0  0  0  0  0  0  0  0
   10.9646  -20.9078   19.8143 C   0  0  0  0  0  0  0  0  0  0  0  0
   11.4768  -21.7924   18.9455 N   0  0  0  0  0  0  0  0  0  0  0  0
   12.7650  -21.4612   18.7657 C   0  0  0  0  0  0  0  0  0  0  0  0
   13.0471  -20.3973   19.5041 N   0  0  0  0  0  0  0  0  0  0  0  0
   10.7600  -16.7111   21.4313 C   0  0  0  0  0  0  0  0  0  0  0  0
   11.6106  -16.0033   22.0626 O   0  0  0  0  0  0  0  0  0  0  0  0
    6.8859  -14.4588   23.5953 C   0  0  0  0  0  0  0  0  0  0  0  0
    7.5013  -15.2527   22.4749 C   0  0  1  0  0  0  0  0  0  0  0  0
    7.3361  -14.4672   21.2008 C   0  0  0  0  0  0  0  0  0  0  0  0
    8.9935  -15.5037   22.7383 C   0  0  2  0  0  0  0  0  0  0  0  0
    9.4016  -16.5010   21.7687 N   0  0  0  0  0  0  0  0  0  0  0  0
    9.1336  -16.1075   24.1116 C   0  0  0  0  0  0  0  0  0  0  0  0
    8.9977  -17.3288   24.3199 O   0  0  0  0  0  0  0  0  0  0  0  0
   10.5517  -12.5681   28.2927 C   0  0  0  0  0  0  0  0  0  0  0  0
   10.6957  -13.7414   27.4010 C   0  0  0  0  0  0  0  0  0  0  0  0
    9.7447  -14.8723   27.5823 C   0  0  2  0  0  0  0  0  0  0  0  0
    9.9412  -15.4274   28.9782 C   0  0  0  0  0  0  0  0  0  0  0  0
    9.6281  -15.8905   26.5343 C   0  0  2  0  0  0  0  0  0  0  0  0
    9.4270  -15.2945   25.2164 N   0  0  0  0  0  0  0  0  0  0  0  0
    8.4966  -16.8028   26.7387 C   0  0  0  0  0  0  0  0  0  0  0  0
    7.1932  -16.5997   26.3084 O   0  0  0  0  0  0  0  0  0  0  0  0
    8.7321  -17.8933   27.3844 O   0  0  0  0  0  0  0  0  0  0  0  0
  2  1  1  6
  3  2  1  0
  3  4  1  0
  4  8  1  0
  5  6  1  0
  5  4  2  0
  6  7  1  0
  7  8  2  0
  9 10  2  0
  9  2  1  0
 12 11  1  1
 12 14  1  0
 13 12  1  0
 14 16  1  0
 14 15  1  6
 15  9  1  0
 16 17  2  0
 19 18  1  0
 20 21  1  1
 20 19  1  0
 22 20  1  0
 22 23  1  6
 23 16  1  0
 24 22  1  0
 25 24  1  0
 26 24  2  0
M  END
$$$$
