HVI.pdb
     RDKit          3D

 26 26  0  0  1  0  0  0  0  0999 V2000
    8.6993  -18.6944   18.6981 N   0  0  0  0  0  0  0  0  0  0  0  0
    9.4136  -17.7122   19.4819 C   0  0  1  0  0  0  0  0  0  0  0  0
    9.7492  -16.5286   18.5933 C   0  0  0  0  0  0  0  0  0  0  0  0
   10.9976  -16.8362   17.8154 C   0  0  0  0  0  0  0  0  0  0  0  0
   12.2872  -16.8511   18.2874 C   0  0  0  0  0  0  0  0  0  0  0  0
   13.1151  -17.1715   17.2816 N   0  0  0  0  0  0  0  0  0  0  0  0
   12.3526  -17.3551   16.1924 C   0  0  0  0  0  0  0  0  0  0  0  0
   11.0822  -17.1540   16.5125 N   0  0  0  0  0  0  0  0  0  0  0  0
    8.5070  -17.2263   20.5459 C   0  0  0  0  0  0  0  0  0  0  0  0
    7.4609  -16.5497   20.2797 O   0  0  0  0  0  0  0  0  0  0  0  0
    6.6767  -19.3585   22.6503 C   0  0  0  0  0  0  0  0  0  0  0  0
    7.4023  -18.4629   23.6176 C   0  0  1  0  0  0  0  0  0  0  0  0
    8.6420  -19.1822   24.0797 C   0  0  0  0  0  0  0  0  0  0  0  0
    7.7928  -17.1371   22.9476 C   0  0  2  0  0  0  0  0  0  0  0  0
    8.7500  -17.4847   21.9160 N   0  0  0  0  0  0  0  0  0  0  0  0
    8.5004  -16.2847   23.9687 C   0  0  0  0  0  0  0  0  0  0  0  0
    9.7432  -16.2288   24.0444 O   0  0  0  0  0  0  0  0  0  0  0  0
    5.8232  -11.8086   25.8853 C   0  0  0  0  0  0  0  0  0  0  0  0
    6.8955  -12.6904   25.3703 C   0  0  0  0  0  0  0  0  0  0  0  0
    7.5829  -13.5868   26.3400 C   0  0  2  0  0  0  0  0  0  0  0  0
    8.2062  -12.7200   27.4150 C   0  0  0  0  0  0  0  0  0  0  0  0
    8.4530  -14.6557   25.8409 C   0  0  2  0  0  0  0  0  0  0  0  0
    7.7645  -15.5144   24.8812 N   0  0  0  0  0  0  0  0  0  0  0  0
    8.9385  -15.5475   26.9009 C   0  0  0  0  0  0  0  0  0  0  0  0
   10.1416  -15.4301   27.5821 O   0  0  0  0  0  0  0  0  0  0  0  0
    8.1802  -16.5375   27.2269 O   0  0  0  0  0  0  0  0  0  0  0  0
  2  1  1  6
  3  2  1  0
  3  4  1  0
  4  8  1  0
  5  6  1  0
  5  4  2  0
  6  7  1  0
  7  8  2  0
  9 10  2  0
  9  2  1  0
 12 11  1  6
 12 14  1  0
 13 12  1  0
 14 16  1  0
 14 15  1  6
 15  9  1  0
 16 17  2  0
 19 18  1  0
 20 21  1  1
 20 19  1  0
 22 20  1  0
 22 23  1  6
 23 16  1  0
 24 22  1  0
 25 24  1  0
 26 24  2  0
M  END
$$$$
