HVI.pdb
     RDKit          3D

 26 26  0  0  1  0  0  0  0  0999 V2000
    8.8873  -16.6903   19.7076 N   0  0  0  0  0  0  0  0  0  0  0  0
    8.6171  -15.5389   20.5387 C   0  0  1  0  0  0  0  0  0  0  0  0
    7.3507  -14.8653   20.0430 C   0  0  0  0  0  0  0  0  0  0  0  0
    7.5739  -14.3687   18.6424 C   0  0  0  0  0  0  0  0  0  0  0  0
    8.1768  -13.1941   18.2643 C   0  0  0  0  0  0  0  0  0  0  0  0
    8.1819  -13.1189   16.9249 N   0  0  0  0  0  0  0  0  0  0  0  0
    7.5890  -14.2336   16.4695 C   0  0  0  0  0  0  0  0  0  0  0  0
    7.2243  -14.9835   17.4998 N   0  0  0  0  0  0  0  0  0  0  0  0
    8.3568  -16.0169   21.9149 C   0  0  0  0  0  0  0  0  0  0  0  0
    7.1891  -15.9951   22.4238 O   0  0  0  0  0  0  0  0  0  0  0  0
   11.4088  -18.0185   23.9169 C   0  0  0  0  0  0  0  0  0  0  0  0
    9.9644  -18.2672   24.2572 C   0  0  1  0  0  0  0  0  0  0  0  0
    9.8957  -18.7360   25.6866 C   0  0  0  0  0  0  0  0  0  0  0  0
    9.1354  -16.9847   24.0929 C   0  0  2  0  0  0  0  0  0  0  0  0
    9.3874  -16.5239   22.7418 N   0  0  0  0  0  0  0  0  0  0  0  0
    9.6768  -15.9495   25.0444 C   0  0  0  0  0  0  0  0  0  0  0  0
   10.7358  -15.3304   24.8239 O   0  0  0  0  0  0  0  0  0  0  0  0
    6.4310  -12.3242   26.7307 C   0  0  0  0  0  0  0  0  0  0  0  0
    7.7491  -12.9159   26.4064 C   0  0  0  0  0  0  0  0  0  0  0  0
    8.4692  -13.6425   27.4880 C   0  0  2  0  0  0  0  0  0  0  0  0
    8.8978  -12.6265   28.5269 C   0  0  0  0  0  0  0  0  0  0  0  0
    9.5004  -14.6224   27.1345 C   0  0  2  0  0  0  0  0  0  0  0  0
    8.9893  -15.6480   26.2295 N   0  0  0  0  0  0  0  0  0  0  0  0
   10.0350  -15.3429   28.2963 C   0  0  0  0  0  0  0  0  0  0  0  0
    9.5645  -16.5471   28.8002 O   0  0  0  0  0  0  0  0  0  0  0  0
   11.0314  -14.8048   28.9121 O   0  0  0  0  0  0  0  0  0  0  0  0
  2  1  1  6
  3  2  1  0
  3  4  1  0
  4  8  1  0
  5  6  1  0
  5  4  2  0
  6  7  1  0
  7  8  2  0
  9 10  2  0
  9  2  1  0
 12 11  1  1
 12 14  1  0
 13 12  1  0
 14 16  1  0
 14 15  1  6
 15  9  1  0
 16 17  2  0
 19 18  1  0
 20 21  1  1
 20 19  1  0
 22 20  1  0
 22 23  1  6
 23 16  1  0
 24 22  1  0
 25 24  1  0
 26 24  2  0
M  END
$$$$
