HVI.pdb
     RDKit          3D

 26 26  0  0  1  0  0  0  0  0999 V2000
    9.0786  -18.1511   19.0047 N   0  0  0  0  0  0  0  0  0  0  0  0
    8.8067  -16.7373   19.1338 C   0  0  1  0  0  0  0  0  0  0  0  0
    7.9952  -16.2846   17.9339 C   0  0  0  0  0  0  0  0  0  0  0  0
    8.8228  -16.4487   16.6904 C   0  0  0  0  0  0  0  0  0  0  0  0
    8.4039  -16.9212   15.4708 C   0  0  0  0  0  0  0  0  0  0  0  0
    9.4419  -16.9136   14.6212 N   0  0  0  0  0  0  0  0  0  0  0  0
   10.4988  -16.4417   15.3008 C   0  0  0  0  0  0  0  0  0  0  0  0
   10.1274  -16.1628   16.5423 N   0  0  0  0  0  0  0  0  0  0  0  0
    7.9690  -16.5388   20.3375 C   0  0  0  0  0  0  0  0  0  0  0  0
    6.7985  -16.0410   20.2664 O   0  0  0  0  0  0  0  0  0  0  0  0
    6.6007  -18.9641   22.4840 C   0  0  0  0  0  0  0  0  0  0  0  0
    7.3961  -18.0903   23.4158 C   0  0  1  0  0  0  0  0  0  0  0  0
    8.7326  -18.7458   23.6434 C   0  0  0  0  0  0  0  0  0  0  0  0
    7.6011  -16.6927   22.8128 C   0  0  2  0  0  0  0  0  0  0  0  0
    8.4192  -16.8897   21.6325 N   0  0  0  0  0  0  0  0  0  0  0  0
    8.3937  -15.8687   23.7942 C   0  0  0  0  0  0  0  0  0  0  0  0
    9.6245  -15.7050   23.6861 O   0  0  0  0  0  0  0  0  0  0  0  0
    5.7875  -11.6236   25.8629 C   0  0  0  0  0  0  0  0  0  0  0  0
    6.9188  -12.4172   25.3311 C   0  0  0  0  0  0  0  0  0  0  0  0
    7.6729  -13.2768   26.2844 C   0  0  2  0  0  0  0  0  0  0  0  0
    8.3711  -12.3704   27.2774 C   0  0  0  0  0  0  0  0  0  0  0  0
    8.5049  -14.3674   25.7677 C   0  0  2  0  0  0  0  0  0  0  0  0
    7.7546  -15.2503   24.8790 N   0  0  0  0  0  0  0  0  0  0  0  0
    9.0487  -15.2293   26.8241 C   0  0  0  0  0  0  0  0  0  0  0  0
   10.2840  -15.0886   27.4403 O   0  0  0  0  0  0  0  0  0  0  0  0
    8.3140  -16.2143   27.2131 O   0  0  0  0  0  0  0  0  0  0  0  0
  2  1  1  6
  3  2  1  0
  3  4  1  0
  4  8  1  0
  5  6  1  0
  5  4  2  0
  6  7  1  0
  7  8  2  0
  9 10  2  0
  9  2  1  0
 12 11  1  6
 12 14  1  0
 13 12  1  0
 14 16  1  0
 14 15  1  6
 15  9  1  0
 16 17  2  0
 19 18  1  0
 20 21  1  6
 20 19  1  0
 22 20  1  0
 22 23  1  6
 23 16  1  0
 24 22  1  0
 25 24  1  0
 26 24  2  0
M  END
$$$$
