PTM.pdb
     RDKit          3D

 23 23  0  0  1  0  0  0  0  0999 V2000
    8.8584  -14.9964   18.2208 N   0  0  0  0  0  0  0  0  0  0  0  0
    9.0954  -14.2353   17.0088 C   0  0  0  0  0  0  0  0  0  0  0  0
    8.0148  -13.1686   17.1294 C   0  0  0  0  0  0  0  0  0  0  0  0
    8.0705  -12.8286   18.5978 C   0  0  0  0  0  0  0  0  0  0  0  0
    8.8761  -13.9397   19.2266 C   0  0  1  0  0  0  0  0  0  0  0  0
    8.3269  -14.3869   20.5100 C   0  0  0  0  0  0  0  0  0  0  0  0
    8.1909  -13.5502   21.4379 O   0  0  0  0  0  0  0  0  0  0  0  0
    6.3004  -18.0265   20.6995 C   0  0  0  0  0  0  0  0  0  0  0  0
    7.1671  -17.7255   21.9048 C   0  0  1  0  0  0  0  0  0  0  0  0
    8.3273  -18.4735   21.7549 O   0  0  0  0  0  0  0  0  0  0  0  0
    7.4510  -16.2419   21.9696 C   0  0  2  0  0  0  0  0  0  0  0  0
    7.9518  -15.7114   20.7308 N   0  0  0  0  0  0  0  0  0  0  0  0
    8.3132  -15.9208   23.1216 C   0  0  0  0  0  0  0  0  0  0  0  0
    9.5280  -15.5887   22.9980 O   0  0  0  0  0  0  0  0  0  0  0  0
    5.5698  -12.4761   27.2201 C   0  0  0  0  0  0  0  0  0  0  0  0
    7.2227  -12.2705   27.9272 S   0  0  0  0  0  0  0  0  0  0  0  0
    8.3317  -13.6008   27.3220 C   0  0  0  0  0  0  0  0  0  0  0  0
    7.7129  -14.2375   26.1013 C   0  0  0  0  0  0  0  0  0  0  0  0
    8.5302  -15.3785   25.5852 C   0  0  2  0  0  0  0  0  0  0  0  0
    7.8169  -15.9669   24.4628 N   0  0  0  0  0  0  0  0  0  0  0  0
    8.9000  -16.3919   26.5676 C   0  0  0  0  0  0  0  0  0  0  0  0
    8.4122  -17.5482   26.6546 O   0  0  0  0  0  0  0  0  0  0  0  0
    9.8910  -16.0669   27.5132 O   0  0  0  0  0  0  0  0  0  0  0  0
  1  5  1  0
  1  2  1  0
  2  3  1  0
  4  3  1  0
  5  4  1  0
  5  6  1  1
  7  6  2  0
  9  8  1  6
  9 11  1  0
 10  9  1  0
 11 12  1  6
 11 13  1  0
 12  6  1  0
 13 20  1  0
 14 13  2  0
 15 16  1  0
 17 16  1  0
 18 17  1  0
 19 18  1  1
 19 21  1  0
 20 19  1  0
 21 23  1  0
 22 21  2  0
M  END
$$$$
