PTM.pdb
     RDKit          3D

 23 23  0  0  1  0  0  0  0  0999 V2000
    8.9780  -14.9803   18.2360 N   0  0  0  0  0  0  0  0  0  0  0  0
    9.0717  -14.2535   16.9841 C   0  0  0  0  0  0  0  0  0  0  0  0
    7.8169  -13.3936   17.0622 C   0  0  0  0  0  0  0  0  0  0  0  0
    7.8132  -12.9727   18.5106 C   0  0  0  0  0  0  0  0  0  0  0  0
    8.8070  -13.8865   19.1862 C   0  0  1  0  0  0  0  0  0  0  0  0
    8.3498  -14.3575   20.4970 C   0  0  0  0  0  0  0  0  0  0  0  0
    8.1224  -13.5142   21.4007 O   0  0  0  0  0  0  0  0  0  0  0  0
    6.7019  -18.1762   20.7989 C   0  0  0  0  0  0  0  0  0  0  0  0
    7.5460  -17.7596   21.9856 C   0  0  1  0  0  0  0  0  0  0  0  0
    8.7741  -18.3909   21.8391 O   0  0  0  0  0  0  0  0  0  0  0  0
    7.6799  -16.2538   22.0114 C   0  0  2  0  0  0  0  0  0  0  0  0
    8.1603  -15.7115   20.7696 N   0  0  0  0  0  0  0  0  0  0  0  0
    8.4734  -15.8157   23.1741 C   0  0  0  0  0  0  0  0  0  0  0  0
    9.7069  -15.5431   23.0996 O   0  0  0  0  0  0  0  0  0  0  0  0
    5.9569  -11.2897   26.2977 C   0  0  0  0  0  0  0  0  0  0  0  0
    6.8568  -11.8972   27.7454 S   0  0  0  0  0  0  0  0  0  0  0  0
    8.0946  -13.1500   27.2320 C   0  0  0  0  0  0  0  0  0  0  0  0
    7.5659  -13.8991   26.0328 C   0  0  0  0  0  0  0  0  0  0  0  0
    8.5268  -14.9373   25.5482 C   0  0  2  0  0  0  0  0  0  0  0  0
    7.8842  -15.6718   24.4701 N   0  0  0  0  0  0  0  0  0  0  0  0
    9.0528  -15.8417   26.5651 C   0  0  0  0  0  0  0  0  0  0  0  0
    9.7417  -15.5089   27.5638 O   0  0  0  0  0  0  0  0  0  0  0  0
    8.7760  -17.2160   26.4361 O   0  0  0  0  0  0  0  0  0  0  0  0
  1  5  1  0
  1  2  1  0
  2  3  1  0
  4  3  1  0
  5  4  1  0
  5  6  1  1
  7  6  2  0
  9  8  1  6
  9 11  1  0
 10  9  1  0
 11 12  1  6
 11 13  1  0
 12  6  1  0
 13 20  1  0
 14 13  2  0
 15 16  1  0
 17 16  1  0
 18 17  1  0
 19 18  1  1
 19 21  1  0
 20 19  1  0
 21 23  1  0
 22 21  2  0
M  END
$$$$
