PTM.pdb
     RDKit          3D

 23 23  0  0  1  0  0  0  0  0999 V2000
    9.2603  -14.4829   19.5025 N   0  0  0  0  0  0  0  0  0  0  0  0
    9.0984  -13.7428   18.2655 C   0  0  0  0  0  0  0  0  0  0  0  0
    7.5941  -13.5041   18.2740 C   0  0  0  0  0  0  0  0  0  0  0  0
    7.3356  -13.1756   19.7232 C   0  0  0  0  0  0  0  0  0  0  0  0
    8.5885  -13.6004   20.4503 C   0  0  1  0  0  0  0  0  0  0  0  0
    8.3098  -14.2667   21.7261 C   0  0  0  0  0  0  0  0  0  0  0  0
    7.5639  -13.6948   22.5604 O   0  0  0  0  0  0  0  0  0  0  0  0
    8.0323  -18.3045   22.1120 C   0  0  0  0  0  0  0  0  0  0  0  0
    8.9336  -17.6984   23.1678 C   0  0  1  0  0  0  0  0  0  0  0  0
   10.2387  -17.9599   22.7719 O   0  0  0  0  0  0  0  0  0  0  0  0
    8.6596  -16.2158   23.2807 C   0  0  2  0  0  0  0  0  0  0  0  0
    8.8475  -15.5141   22.0400 N   0  0  0  0  0  0  0  0  0  0  0  0
    9.4203  -15.6233   24.3960 C   0  0  0  0  0  0  0  0  0  0  0  0
   10.5620  -15.0986   24.2456 O   0  0  0  0  0  0  0  0  0  0  0  0
    6.1373  -10.9600   26.4035 C   0  0  0  0  0  0  0  0  0  0  0  0
    7.0254  -12.0520   27.5409 S   0  0  0  0  0  0  0  0  0  0  0  0
    8.1033  -13.1963   26.5954 C   0  0  0  0  0  0  0  0  0  0  0  0
    8.8432  -14.0862   27.5645 C   0  0  0  0  0  0  0  0  0  0  0  0
    9.6683  -15.1185   26.8646 C   0  0  2  0  0  0  0  0  0  0  0  0
    8.9021  -15.6079   25.7296 N   0  0  0  0  0  0  0  0  0  0  0  0
   10.1482  -16.2190   27.6937 C   0  0  0  0  0  0  0  0  0  0  0  0
    9.7983  -17.4234   27.5963 O   0  0  0  0  0  0  0  0  0  0  0  0
   11.0887  -15.9285   28.7002 O   0  0  0  0  0  0  0  0  0  0  0  0
  1  5  1  0
  1  2  1  0
  2  3  1  0
  4  3  1  0
  5  4  1  0
  5  6  1  1
  7  6  2  0
  9  8  1  6
  9 11  1  0
 10  9  1  0
 11 12  1  6
 11 13  1  0
 12  6  1  0
 13 20  1  0
 14 13  2  0
 15 16  1  0
 17 16  1  0
 18 17  1  0
 19 18  1  1
 19 21  1  0
 20 19  1  0
 21 23  1  0
 22 21  2  0
M  END
$$$$
