PTM.pdb
     RDKit          3D

 23 23  0  0  1  0  0  0  0  0999 V2000
    8.9310  -14.8840   18.1986 N   0  0  0  0  0  0  0  0  0  0  0  0
    8.9844  -14.1106   16.9725 C   0  0  0  0  0  0  0  0  0  0  0  0
    7.7149  -13.2797   17.1071 C   0  0  0  0  0  0  0  0  0  0  0  0
    7.7331  -12.9118   18.5698 C   0  0  0  0  0  0  0  0  0  0  0  0
    8.7584  -13.8290   19.1914 C   0  0  1  0  0  0  0  0  0  0  0  0
    8.3378  -14.3563   20.4929 C   0  0  0  0  0  0  0  0  0  0  0  0
    8.0856  -13.5496   21.4231 O   0  0  0  0  0  0  0  0  0  0  0  0
    6.8068  -18.2441   20.6799 C   0  0  0  0  0  0  0  0  0  0  0  0
    7.6465  -17.8290   21.8703 C   0  0  1  0  0  0  0  0  0  0  0  0
    8.8978  -18.4042   21.6920 O   0  0  0  0  0  0  0  0  0  0  0  0
    7.7187  -16.3205   21.9410 C   0  0  2  0  0  0  0  0  0  0  0  0
    8.2098  -15.7244   20.7284 N   0  0  0  0  0  0  0  0  0  0  0  0
    8.4625  -15.8845   23.1370 C   0  0  0  0  0  0  0  0  0  0  0  0
    9.6899  -15.5782   23.1077 O   0  0  0  0  0  0  0  0  0  0  0  0
    6.3467  -11.1624   26.2764 C   0  0  0  0  0  0  0  0  0  0  0  0
    6.9625  -12.0167   27.7480 S   0  0  0  0  0  0  0  0  0  0  0  0
    8.1170  -13.3551   27.2568 C   0  0  0  0  0  0  0  0  0  0  0  0
    7.5404  -14.0895   26.0707 C   0  0  0  0  0  0  0  0  0  0  0  0
    8.4648  -15.1478   25.5593 C   0  0  2  0  0  0  0  0  0  0  0  0
    7.8285  -15.7816   24.4155 N   0  0  0  0  0  0  0  0  0  0  0  0
    8.9022  -16.1377   26.5378 C   0  0  0  0  0  0  0  0  0  0  0  0
    8.5275  -17.3374   26.5922 O   0  0  0  0  0  0  0  0  0  0  0  0
    9.8276  -15.7346   27.5192 O   0  0  0  0  0  0  0  0  0  0  0  0
  1  5  1  0
  1  2  1  0
  2  3  1  0
  4  3  1  0
  5  4  1  0
  5  6  1  1
  7  6  2  0
  9  8  1  6
  9 11  1  0
 10  9  1  0
 11 12  1  6
 11 13  1  0
 12  6  1  0
 13 20  1  0
 14 13  2  0
 15 16  1  0
 17 16  1  0
 18 17  1  0
 19 18  1  1
 19 21  1  0
 20 19  1  0
 21 23  1  0
 22 21  2  0
M  END
$$$$
