PTM.pdb
     RDKit          3D

 23 23  0  0  1  0  0  0  0  0999 V2000
    9.2173  -14.8839   18.0880 N   0  0  0  0  0  0  0  0  0  0  0  0
    9.2862  -14.0755   16.8854 C   0  0  0  0  0  0  0  0  0  0  0  0
    7.9074  -13.4284   16.9008 C   0  0  0  0  0  0  0  0  0  0  0  0
    7.7285  -13.1035   18.3628 C   0  0  0  0  0  0  0  0  0  0  0  0
    8.8028  -13.8909   19.0731 C   0  0  1  0  0  0  0  0  0  0  0  0
    8.3308  -14.5074   20.3166 C   0  0  0  0  0  0  0  0  0  0  0  0
    7.8036  -13.7788   21.1945 O   0  0  0  0  0  0  0  0  0  0  0  0
    7.5383  -18.5989   20.4519 C   0  0  0  0  0  0  0  0  0  0  0  0
    8.2365  -18.0522   21.6800 C   0  0  1  0  0  0  0  0  0  0  0  0
    9.5759  -18.3987   21.5611 O   0  0  0  0  0  0  0  0  0  0  0  0
    8.0405  -16.5548   21.7526 C   0  0  2  0  0  0  0  0  0  0  0  0
    8.4496  -15.8762   20.5530 N   0  0  0  0  0  0  0  0  0  0  0  0
    8.6657  -16.0004   22.9672 C   0  0  0  0  0  0  0  0  0  0  0  0
    9.7760  -15.3936   22.9516 O   0  0  0  0  0  0  0  0  0  0  0  0
    6.4469  -11.0838   28.3122 C   0  0  0  0  0  0  0  0  0  0  0  0
    6.1630  -12.1884   26.9071 S   0  0  0  0  0  0  0  0  0  0  0  0
    7.5303  -13.4050   26.7819 C   0  0  0  0  0  0  0  0  0  0  0  0
    7.2908  -14.2903   25.5830 C   0  0  0  0  0  0  0  0  0  0  0  0
    8.3989  -15.2731   25.3777 C   0  0  2  0  0  0  0  0  0  0  0  0
    8.0423  -16.1188   24.2497 N   0  0  0  0  0  0  0  0  0  0  0  0
    8.7657  -16.0712   26.5428 C   0  0  0  0  0  0  0  0  0  0  0  0
    8.2032  -17.1322   26.9174 O   0  0  0  0  0  0  0  0  0  0  0  0
    9.8445  -15.6317   27.3333 O   0  0  0  0  0  0  0  0  0  0  0  0
  1  5  1  0
  1  2  1  0
  2  3  1  0
  4  3  1  0
  5  4  1  0
  5  6  1  1
  7  6  2  0
  9  8  1  6
  9 11  1  0
 10  9  1  0
 11 12  1  6
 11 13  1  0
 12  6  1  0
 13 20  1  0
 14 13  2  0
 15 16  1  0
 17 16  1  0
 18 17  1  0
 19 18  1  1
 19 21  1  0
 20 19  1  0
 21 23  1  0
 22 21  2  0
M  END
$$$$
