PTM.pdb
     RDKit          3D

 23 23  0  0  1  0  0  0  0  0999 V2000
    8.8390  -14.8862   18.2291 N   0  0  0  0  0  0  0  0  0  0  0  0
    8.8616  -14.0393   17.0516 C   0  0  0  0  0  0  0  0  0  0  0  0
    7.6445  -13.1612   17.3119 C   0  0  0  0  0  0  0  0  0  0  0  0
    7.7634  -12.8887   18.7906 C   0  0  0  0  0  0  0  0  0  0  0  0
    8.7753  -13.8900   19.2930 C   0  0  1  0  0  0  0  0  0  0  0  0
    8.4031  -14.4795   20.5826 C   0  0  0  0  0  0  0  0  0  0  0  0
    8.2089  -13.7200   21.5649 O   0  0  0  0  0  0  0  0  0  0  0  0
    7.2764  -18.6337   23.0961 C   0  0  0  0  0  0  0  0  0  0  0  0
    7.9239  -18.0193   21.8723 C   0  0  1  0  0  0  0  0  0  0  0  0
    7.2279  -18.5016   20.7718 O   0  0  0  0  0  0  0  0  0  0  0  0
    7.8636  -16.5115   21.9674 C   0  0  2  0  0  0  0  0  0  0  0  0
    8.2587  -15.8559   20.7505 N   0  0  0  0  0  0  0  0  0  0  0  0
    8.6052  -16.0284   23.1465 C   0  0  0  0  0  0  0  0  0  0  0  0
    9.8680  -15.9547   23.1799 O   0  0  0  0  0  0  0  0  0  0  0  0
    5.7393  -11.8258   26.9637 C   0  0  0  0  0  0  0  0  0  0  0  0
    7.4795  -11.5235   27.3572 S   0  0  0  0  0  0  0  0  0  0  0  0
    8.4731  -13.0212   26.9894 C   0  0  0  0  0  0  0  0  0  0  0  0
    7.8805  -13.7205   25.7900 C   0  0  0  0  0  0  0  0  0  0  0  0
    8.6164  -14.9770   25.4497 C   0  0  2  0  0  0  0  0  0  0  0  0
    7.9284  -15.6094   24.3355 N   0  0  0  0  0  0  0  0  0  0  0  0
    8.8168  -15.9148   26.5493 C   0  0  0  0  0  0  0  0  0  0  0  0
    8.1413  -16.9537   26.7657 O   0  0  0  0  0  0  0  0  0  0  0  0
    9.8553  -15.6519   27.4628 O   0  0  0  0  0  0  0  0  0  0  0  0
  1  5  1  0
  1  2  1  0
  2  3  1  0
  4  3  1  0
  5  4  1  0
  5  6  1  1
  7  6  2  0
  9  8  1  1
  9 11  1  0
 10  9  1  0
 11 12  1  6
 11 13  1  0
 12  6  1  0
 13 20  1  0
 14 13  2  0
 15 16  1  0
 17 16  1  0
 18 17  1  0
 19 18  1  1
 19 21  1  0
 20 19  1  0
 21 23  1  0
 22 21  2  0
M  END
$$$$
