PTM.pdb
     RDKit          3D

 23 23  0  0  1  0  0  0  0  0999 V2000
    8.9364  -14.6819   18.3236 N   0  0  0  0  0  0  0  0  0  0  0  0
    8.8072  -13.8554   17.1385 C   0  0  0  0  0  0  0  0  0  0  0  0
    7.4497  -13.2120   17.3895 C   0  0  0  0  0  0  0  0  0  0  0  0
    7.5128  -12.9095   18.8658 C   0  0  0  0  0  0  0  0  0  0  0  0
    8.6890  -13.7049   19.3784 C   0  0  1  0  0  0  0  0  0  0  0  0
    8.4271  -14.3412   20.6728 C   0  0  0  0  0  0  0  0  0  0  0  0
    8.0953  -13.6213   21.6481 O   0  0  0  0  0  0  0  0  0  0  0  0
    7.7609  -18.4719   20.7200 C   0  0  0  0  0  0  0  0  0  0  0  0
    8.4530  -17.9199   21.9491 C   0  0  1  0  0  0  0  0  0  0  0  0
    9.8039  -18.2076   21.8056 O   0  0  0  0  0  0  0  0  0  0  0  0
    8.1960  -16.4336   22.0535 C   0  0  2  0  0  0  0  0  0  0  0  0
    8.5355  -15.7194   20.8529 N   0  0  0  0  0  0  0  0  0  0  0  0
    8.8372  -15.8717   23.2563 C   0  0  0  0  0  0  0  0  0  0  0  0
   10.0103  -15.3975   23.2504 O   0  0  0  0  0  0  0  0  0  0  0  0
    6.2246  -11.5207   26.1879 C   0  0  0  0  0  0  0  0  0  0  0  0
    7.0854  -11.9955   27.7073 S   0  0  0  0  0  0  0  0  0  0  0  0
    8.2019  -13.4131   27.3766 C   0  0  0  0  0  0  0  0  0  0  0  0
    7.7713  -14.0884   26.0971 C   0  0  0  0  0  0  0  0  0  0  0  0
    8.7154  -15.1730   25.6869 C   0  0  2  0  0  0  0  0  0  0  0  0
    8.1584  -15.8302   24.5153 N   0  0  0  0  0  0  0  0  0  0  0  0
    9.0615  -16.1408   26.7225 C   0  0  0  0  0  0  0  0  0  0  0  0
    8.6931  -17.3430   26.7621 O   0  0  0  0  0  0  0  0  0  0  0  0
    9.8814  -15.7109   27.7831 O   0  0  0  0  0  0  0  0  0  0  0  0
  1  5  1  0
  1  2  1  0
  2  3  1  0
  4  3  1  0
  5  4  1  0
  5  6  1  1
  7  6  2  0
  9  8  1  6
  9 11  1  0
 10  9  1  0
 11 12  1  6
 11 13  1  0
 12  6  1  0
 13 20  1  0
 14 13  2  0
 15 16  1  0
 17 16  1  0
 18 17  1  0
 19 18  1  1
 19 21  1  0
 20 19  1  0
 21 23  1  0
 22 21  2  0
M  END
$$$$
