RYC.pdb
     RDKit          3D

 30 30  0  0  1  0  0  0  0  0999 V2000
   23.7818  -31.9833  -10.2056 N   0  0  0  0  0  0  0  0  0  0  0  0
   23.2500  -32.6376   -9.0333 C   0  0  0  0  0  0  0  0  0  0  0  0
   24.0303  -33.3500   -8.2999 N   0  0  0  0  0  0  0  0  0  0  0  0
   21.8941  -32.5156   -8.6692 N   0  0  0  0  0  0  0  0  0  0  0  0
   21.0050  -31.6109   -9.3645 C   0  0  0  0  0  0  0  0  0  0  0  0
   20.8153  -30.4012   -8.4603 C   0  0  0  0  0  0  0  0  0  0  0  0
   19.8077  -29.4921   -9.0746 C   0  0  0  0  0  0  0  0  0  0  0  0
   20.2673  -28.7844  -10.3199 C   0  0  2  0  0  0  0  0  0  0  0  0
   21.6117  -28.2774  -10.1411 N   0  0  0  0  0  0  0  0  0  0  0  0
   19.3472  -27.6146  -10.5648 C   0  0  0  0  0  0  0  0  0  0  0  0
   18.1097  -27.8613  -10.6100 O   0  0  0  0  0  0  0  0  0  0  0  0
   23.7888  -33.8322   -7.4291 O   0  0  0  0  0  0  0  0  0  0  0  0
   16.5361  -24.9962   -4.9242 C   0  0  0  0  0  0  0  0  0  0  0  0
   17.1569  -24.8147   -6.1551 C   0  0  0  0  0  0  0  0  0  0  0  0
   18.4081  -25.3539   -6.3943 C   0  0  0  0  0  0  0  0  0  0  0  0
   19.0171  -25.1735   -7.6060 C   0  0  0  0  0  0  0  0  0  0  0  0
   18.4063  -24.4488   -8.6310 C   0  0  0  0  0  0  0  0  0  0  0  0
   19.1163  -24.2330   -9.8856 C   0  0  2  0  0  0  0  0  0  0  0  0
   18.8406  -25.2120  -10.9615 N   0  0  0  0  0  0  0  0  0  0  0  0
   19.8354  -26.3097  -10.7360 C   0  0  0  0  0  0  0  0  0  0  0  0
   19.0595  -24.6852  -12.3136 O   0  0  0  0  0  0  0  0  0  0  0  0
   20.2629  -24.5338  -12.7674 C   0  0  0  0  0  0  0  0  0  0  0  0
   17.1722  -23.9159   -8.3992 C   0  0  0  0  0  0  0  0  0  0  0  0
   16.5681  -24.1009   -7.1807 N   0  0  0  0  0  0  0  0  0  0  0  0
   18.0794  -24.3026  -13.2553 C   0  0  2  0  0  0  0  0  0  0  0  0
   18.4110  -23.7453  -14.5444 C   0  0  0  0  0  0  0  0  0  0  0  0
   17.6105  -24.4134  -15.6575 S   0  0  0  0  0  0  0  0  0  0  0  0
   18.0984  -23.5813  -17.1967 C   0  0  0  0  0  0  0  0  0  0  0  0
   18.0639  -22.3303  -14.5981 O   0  0  0  0  0  0  0  0  0  0  0  0
   17.3713  -21.8228  -13.6809 O   0  0  0  0  0  0  0  0  0  0  0  0
  1  2  1  0
  2  3  2  0
  4  2  1  0
  4  5  1  0
  6  5  1  0
  7  8  1  0
  7  6  1  0
  8 10  1  0
  8  9  1  1
 10 11  2  0
 12 13  1  0
 13 23  2  0
 13 14  1  0
 14 15  2  0
 15 16  1  0
 16 17  1  0
 18 17  1  1
 19 18  1  0
 19 10  1  0
 20 21  2  0
 20 18  1  0
 22 16  2  0
 23 22  1  0
 24 20  1  0
 25 28  1  0
 25 24  1  0
 25 26  1  6
 27 26  1  0
 28 30  1  0
 29 28  2  0
M  END
$$$$
