RYC.pdb
     RDKit          3D

 30 30  0  0  1  0  0  0  0  0999 V2000
   25.9641  -25.0350  -17.0207 N   0  0  0  0  0  0  0  0  0  0  0  0
   24.8018  -24.5012  -16.3504 C   0  0  0  0  0  0  0  0  0  0  0  0
   24.3800  -25.0650  -15.2740 N   0  0  0  0  0  0  0  0  0  0  0  0
   24.1148  -23.3746  -16.8450 N   0  0  0  0  0  0  0  0  0  0  0  0
   24.5695  -22.6721  -18.0249 C   0  0  0  0  0  0  0  0  0  0  0  0
   25.5571  -21.6147  -17.5523 C   0  0  0  0  0  0  0  0  0  0  0  0
   24.8025  -20.4972  -16.9194 C   0  0  0  0  0  0  0  0  0  0  0  0
   25.1346  -20.2455  -15.4740 C   0  0  2  0  0  0  0  0  0  0  0  0
   26.4984  -20.6447  -15.1962 N   0  0  0  0  0  0  0  0  0  0  0  0
   24.2119  -21.0836  -14.6248 C   0  0  0  0  0  0  0  0  0  0  0  0
   24.5363  -22.2913  -14.4501 O   0  0  0  0  0  0  0  0  0  0  0  0
   23.5917  -24.7695  -14.6906 O   0  0  0  0  0  0  0  0  0  0  0  0
   27.5231  -21.2058   -9.3451 C   0  0  0  0  0  0  0  0  0  0  0  0
   26.2814  -21.1020   -9.9625 C   0  0  0  0  0  0  0  0  0  0  0  0
   25.3858  -20.1223   -9.5730 C   0  0  0  0  0  0  0  0  0  0  0  0
   24.1646  -20.0226  -10.1815 C   0  0  0  0  0  0  0  0  0  0  0  0
   23.7831  -20.8938  -11.2035 C   0  0  0  0  0  0  0  0  0  0  0  0
   22.4503  -20.7873  -11.7838 C   0  0  2  0  0  0  0  0  0  0  0  0
   22.2692  -21.4224  -13.1090 N   0  0  0  0  0  0  0  0  0  0  0  0
   23.0449  -20.5539  -14.0521 C   0  0  0  0  0  0  0  0  0  0  0  0
   20.8764  -21.4455  -13.5705 O   0  0  0  0  0  0  0  0  0  0  0  0
   20.2829  -20.3451  -13.9079 C   0  0  0  0  0  0  0  0  0  0  0  0
   24.6638  -21.8609  -11.5908 C   0  0  0  0  0  0  0  0  0  0  0  0
   25.8869  -21.9547  -10.9750 N   0  0  0  0  0  0  0  0  0  0  0  0
   20.0388  -22.5729  -13.7168 C   0  0  1  0  0  0  0  0  0  0  0  0
   18.6941  -22.4846  -14.2330 C   0  0  0  0  0  0  0  0  0  0  0  0
   18.3140  -23.7452  -15.0028 S   0  0  0  0  0  0  0  0  0  0  0  0
   19.7678  -24.1828  -16.0000 C   0  0  0  0  0  0  0  0  0  0  0  0
   17.7308  -22.3771  -13.1439 O   0  0  0  0  0  0  0  0  0  0  0  0
   18.1171  -22.5027  -11.9549 O   0  0  0  0  0  0  0  0  0  0  0  0
  1  2  1  0
  2  3  2  0
  4  2  1  0
  4  5  1  0
  6  5  1  0
  7  8  1  0
  7  6  1  0
  8 10  1  0
  8  9  1  6
 10 11  2  0
 12 13  1  0
 13 23  2  0
 13 14  1  0
 14 15  2  0
 15 16  1  0
 16 17  1  0
 18 17  1  1
 19 18  1  0
 19 10  1  0
 20 21  2  0
 20 18  1  0
 22 16  2  0
 23 22  1  0
 24 20  1  0
 25 28  1  0
 25 24  1  0
 25 26  1  6
 27 26  1  0
 28 30  1  0
 29 28  2  0
M  END
$$$$
