RYC.pdb
     RDKit          3D

 30 30  0  0  1  0  0  0  0  0999 V2000
    9.8515  -10.2255  -14.9927 N   0  0  0  0  0  0  0  0  0  0  0  0
   10.3069  -10.7824  -16.2447 C   0  0  0  0  0  0  0  0  0  0  0  0
    9.5501  -10.7049  -17.2819 N   0  0  0  0  0  0  0  0  0  0  0  0
   11.5631  -11.4102  -16.3618 N   0  0  0  0  0  0  0  0  0  0  0  0
   12.4837  -11.4687  -15.2476 C   0  0  0  0  0  0  0  0  0  0  0  0
   13.8492  -11.0651  -15.7854 C   0  0  0  0  0  0  0  0  0  0  0  0
   14.8475  -11.1517  -14.6832 C   0  0  0  0  0  0  0  0  0  0  0  0
   16.2573  -10.8031  -15.0750 C   0  0  2  0  0  0  0  0  0  0  0  0
   16.9267  -11.9637  -15.6240 N   0  0  0  0  0  0  0  0  0  0  0  0
   16.9984  -10.3697  -13.8349 C   0  0  0  0  0  0  0  0  0  0  0  0
   17.4137  -11.2837  -13.0692 O   0  0  0  0  0  0  0  0  0  0  0  0
    9.7760  -11.0059  -18.2345 O   0  0  0  0  0  0  0  0  0  0  0  0
   22.9032   -6.4985   -8.7449 C   0  0  0  0  0  0  0  0  0  0  0  0
   21.9917   -6.9004   -9.7152 C   0  0  0  0  0  0  0  0  0  0  0  0
   21.9056   -8.2302  -10.0866 C   0  0  0  0  0  0  0  0  0  0  0  0
   21.0085   -8.6230  -11.0418 C   0  0  0  0  0  0  0  0  0  0  0  0
   20.1590   -7.7090  -11.6676 C   0  0  0  0  0  0  0  0  0  0  0  0
   19.2591   -8.1627  -12.7207 C   0  0  1  0  0  0  0  0  0  0  0  0
   17.9486   -8.6849  -12.2711 N   0  0  0  0  0  0  0  0  0  0  0  0
   17.2201   -9.0157  -13.5382 C   0  0  0  0  0  0  0  0  0  0  0  0
   17.1397   -7.7051  -11.5368 O   0  0  0  0  0  0  0  0  0  0  0  0
   16.6980   -6.6448  -12.1350 C   0  0  0  0  0  0  0  0  0  0  0  0
   20.2404   -6.3968  -11.3036 C   0  0  0  0  0  0  0  0  0  0  0  0
   21.1435   -6.0105  -10.3449 N   0  0  0  0  0  0  0  0  0  0  0  0
   16.7411   -7.7622  -10.1835 C   0  0  2  0  0  0  0  0  0  0  0  0
   15.9478   -6.7310   -9.5591 C   0  0  0  0  0  0  0  0  0  0  0  0
   15.0020   -7.3171   -8.5160 S   0  0  0  0  0  0  0  0  0  0  0  0
   13.8823   -8.4260   -9.4194 C   0  0  0  0  0  0  0  0  0  0  0  0
   16.7994   -5.7905   -8.8410 O   0  0  0  0  0  0  0  0  0  0  0  0
   18.0309   -6.0172   -8.7383 O   0  0  0  0  0  0  0  0  0  0  0  0
  1  2  1  0
  2  3  2  0
  4  2  1  0
  4  5  1  0
  6  5  1  0
  7  8  1  0
  7  6  1  0
  8 10  1  0
  8  9  1  1
 10 11  2  0
 12 13  1  0
 13 23  2  0
 13 14  1  0
 14 15  2  0
 15 16  1  0
 16 17  1  0
 18 17  1  1
 19 18  1  0
 19 10  1  0
 20 21  2  0
 20 18  1  0
 22 16  2  0
 23 22  1  0
 24 20  1  0
 25 28  1  0
 25 24  1  0
 25 26  1  1
 27 26  1  0
 28 30  1  0
 29 28  2  0
M  END
$$$$
