RYC.pdb
     RDKit          3D

 30 30  0  0  1  0  0  0  0  0999 V2000
   27.1358  -13.0295  -21.3261 N   0  0  0  0  0  0  0  0  0  0  0  0
   26.2763  -13.1519  -22.4800 C   0  0  0  0  0  0  0  0  0  0  0  0
   26.7859  -13.0675  -23.6580 N   0  0  0  0  0  0  0  0  0  0  0  0
   24.8891  -13.3629  -22.3500 N   0  0  0  0  0  0  0  0  0  0  0  0
   24.1998  -13.1015  -21.1055 C   0  0  0  0  0  0  0  0  0  0  0  0
   22.7371  -13.4570  -21.3312 C   0  0  0  0  0  0  0  0  0  0  0  0
   21.9891  -13.2554  -20.0589 C   0  0  0  0  0  0  0  0  0  0  0  0
   21.1195  -12.0285  -20.0215 C   0  0  2  0  0  0  0  0  0  0  0  0
   21.8588  -10.9063  -19.4828 N   0  0  0  0  0  0  0  0  0  0  0  0
   19.9491  -12.3070  -19.1118 C   0  0  0  0  0  0  0  0  0  0  0  0
   19.9229  -11.6906  -18.0102 O   0  0  0  0  0  0  0  0  0  0  0  0
   26.2800  -13.0174  -24.5471 O   0  0  0  0  0  0  0  0  0  0  0  0
   11.5498  -12.0526  -19.4838 C   0  0  0  0  0  0  0  0  0  0  0  0
   12.9188  -12.0332  -19.2406 C   0  0  0  0  0  0  0  0  0  0  0  0
   13.7828  -11.4485  -20.1490 C   0  0  0  0  0  0  0  0  0  0  0  0
   15.1293  -11.4312  -19.9077 C   0  0  0  0  0  0  0  0  0  0  0  0
   15.6728  -11.9950  -18.7521 C   0  0  0  0  0  0  0  0  0  0  0  0
   17.1182  -12.0047  -18.5637 C   0  0  1  0  0  0  0  0  0  0  0  0
   17.7588  -13.3394  -18.5430 N   0  0  0  0  0  0  0  0  0  0  0  0
   18.9325  -13.2082  -19.4654 C   0  0  0  0  0  0  0  0  0  0  0  0
   16.9055  -14.4153  -19.0606 O   0  0  0  0  0  0  0  0  0  0  0  0
   16.6010  -14.4579  -20.3186 C   0  0  0  0  0  0  0  0  0  0  0  0
   14.8240  -12.5720  -17.8535 C   0  0  0  0  0  0  0  0  0  0  0  0
   13.4744  -12.5859  -18.1031 N   0  0  0  0  0  0  0  0  0  0  0  0
   16.3389  -15.4861  -18.3354 C   0  0  2  0  0  0  0  0  0  0  0  0
   15.5888  -16.5455  -18.9659 C   0  0  0  0  0  0  0  0  0  0  0  0
   16.1383  -17.9155  -18.5819 S   0  0  0  0  0  0  0  0  0  0  0  0
   15.0654  -19.1338  -19.3967 C   0  0  0  0  0  0  0  0  0  0  0  0
   14.2020  -16.5322  -18.5163 O   0  0  0  0  0  0  0  0  0  0  0  0
   13.8465  -15.7336  -17.6139 O   0  0  0  0  0  0  0  0  0  0  0  0
  1  2  1  0
  2  3  2  0
  4  2  1  0
  4  5  1  0
  6  5  1  0
  7  8  1  0
  7  6  1  0
  8 10  1  0
  8  9  1  1
 10 11  2  0
 12 13  1  0
 13 23  2  0
 13 14  1  0
 14 15  2  0
 15 16  1  0
 16 17  1  0
 18 17  1  1
 19 18  1  0
 19 10  1  0
 20 21  2  0
 20 18  1  0
 22 16  2  0
 23 22  1  0
 24 20  1  0
 25 28  1  0
 25 24  1  0
 25 26  1  1
 27 26  1  0
 28 30  1  0
 29 28  2  0
M  END
$$$$
