RYC.pdb
     RDKit          3D

 30 30  0  0  1  0  0  0  0  0999 V2000
   21.6537  -25.9250  -14.0132 N   0  0  0  0  0  0  0  0  0  0  0  0
   22.5172  -26.5377  -14.9951 C   0  0  0  0  0  0  0  0  0  0  0  0
   22.3087  -27.7579  -15.3447 N   0  0  0  0  0  0  0  0  0  0  0  0
   23.5857  -25.8322  -15.5836 N   0  0  0  0  0  0  0  0  0  0  0  0
   23.8153  -24.4334  -15.2957 C   0  0  0  0  0  0  0  0  0  0  0  0
   22.8167  -23.6442  -16.1304 C   0  0  0  0  0  0  0  0  0  0  0  0
   22.8253  -22.2245  -15.6796 C   0  0  0  0  0  0  0  0  0  0  0  0
   23.1769  -22.0207  -14.2312 C   0  0  2  0  0  0  0  0  0  0  0  0
   21.9752  -21.8382  -13.4445 N   0  0  0  0  0  0  0  0  0  0  0  0
   24.0122  -20.7698  -14.1197 C   0  0  0  0  0  0  0  0  0  0  0  0
   23.3943  -19.6863  -13.9240 O   0  0  0  0  0  0  0  0  0  0  0  0
   22.8658  -28.3165  -15.9979 O   0  0  0  0  0  0  0  0  0  0  0  0
   25.4773  -21.0100   -7.6483 C   0  0  0  0  0  0  0  0  0  0  0  0
   25.8818  -20.7436   -8.9518 C   0  0  0  0  0  0  0  0  0  0  0  0
   26.3846  -21.7559   -9.7493 C   0  0  0  0  0  0  0  0  0  0  0  0
   26.7825  -21.4912  -11.0311 C   0  0  0  0  0  0  0  0  0  0  0  0
   26.6967  -20.2077  -11.5735 C   0  0  0  0  0  0  0  0  0  0  0  0
   27.1857  -19.9598  -12.9241 C   0  0  2  0  0  0  0  0  0  0  0  0
   26.1668  -19.5441  -13.9147 N   0  0  0  0  0  0  0  0  0  0  0  0
   25.4115  -20.7999  -14.2278 C   0  0  0  0  0  0  0  0  0  0  0  0
   26.7322  -19.0410  -15.1720 O   0  0  0  0  0  0  0  0  0  0  0  0
   27.1784  -19.8677  -16.0632 C   0  0  0  0  0  0  0  0  0  0  0  0
   26.2009  -19.2068  -10.7904 C   0  0  0  0  0  0  0  0  0  0  0  0
   25.8043  -19.4804   -9.5052 N   0  0  0  0  0  0  0  0  0  0  0  0
   26.8594  -17.6947  -15.5783 C   0  0  2  0  0  0  0  0  0  0  0  0
   27.3262  -17.3161  -16.8903 C   0  0  0  0  0  0  0  0  0  0  0  0
   27.0316  -15.8477  -17.1790 S   0  0  0  0  0  0  0  0  0  0  0  0
   25.2608  -15.6157  -16.8474 C   0  0  0  0  0  0  0  0  0  0  0  0
   28.7744  -17.4573  -16.9818 O   0  0  0  0  0  0  0  0  0  0  0  0
   29.4540  -17.6048  -15.9354 O   0  0  0  0  0  0  0  0  0  0  0  0
  1  2  1  0
  2  3  2  0
  4  2  1  0
  4  5  1  0
  6  5  1  0
  7  8  1  0
  7  6  1  0
  8 10  1  0
  8  9  1  1
 10 11  2  0
 12 13  1  0
 13 23  2  0
 13 14  1  0
 14 15  2  0
 15 16  1  0
 16 17  1  0
 18 17  1  1
 19 18  1  0
 19 10  1  0
 20 21  2  0
 20 18  1  0
 22 16  2  0
 23 22  1  0
 24 20  1  0
 25 28  1  0
 25 24  1  0
 25 26  1  6
 27 26  1  0
 28 30  1  0
 29 28  2  0
M  END
$$$$
