RYC.pdb
     RDKit          3D

 30 30  0  0  1  0  0  0  0  0999 V2000
   18.7683  -21.6430  -17.7794 N   0  0  0  0  0  0  0  0  0  0  0  0
   18.9358  -20.4827  -18.6226 C   0  0  0  0  0  0  0  0  0  0  0  0
   17.8965  -19.8438  -19.0302 N   0  0  0  0  0  0  0  0  0  0  0  0
   20.2119  -20.0292  -19.0119 N   0  0  0  0  0  0  0  0  0  0  0  0
   21.2053  -19.6418  -18.0344 C   0  0  0  0  0  0  0  0  0  0  0  0
   20.6408  -18.4418  -17.2873 C   0  0  0  0  0  0  0  0  0  0  0  0
   21.2270  -18.4055  -15.9183 C   0  0  0  0  0  0  0  0  0  0  0  0
   21.4957  -19.7535  -15.3071 C   0  0  2  0  0  0  0  0  0  0  0  0
   20.5719  -20.0046  -14.2209 N   0  0  0  0  0  0  0  0  0  0  0  0
   22.8964  -19.7473  -14.7476 C   0  0  0  0  0  0  0  0  0  0  0  0
   23.2240  -18.7544  -14.0397 O   0  0  0  0  0  0  0  0  0  0  0  0
   17.8719  -19.0670  -19.6973 O   0  0  0  0  0  0  0  0  0  0  0  0
   23.1508  -20.7025   -8.3705 C   0  0  0  0  0  0  0  0  0  0  0  0
   23.6723  -20.9894   -9.6273 C   0  0  0  0  0  0  0  0  0  0  0  0
   25.0042  -20.7406   -9.9060 C   0  0  0  0  0  0  0  0  0  0  0  0
   25.5147  -21.0231  -11.1433 C   0  0  0  0  0  0  0  0  0  0  0  0
   24.7211  -21.5654  -12.1557 C   0  0  0  0  0  0  0  0  0  0  0  0
   25.2930  -21.7969  -13.4764 C   0  0  2  0  0  0  0  0  0  0  0  0
   25.1835  -20.6734  -14.4346 N   0  0  0  0  0  0  0  0  0  0  0  0
   23.7999  -20.7921  -14.9977 C   0  0  0  0  0  0  0  0  0  0  0  0
   26.1275  -20.7552  -15.5552 O   0  0  0  0  0  0  0  0  0  0  0  0
   25.9057  -21.5709  -16.5362 C   0  0  0  0  0  0  0  0  0  0  0  0
   23.4073  -21.8128  -11.8847 C   0  0  0  0  0  0  0  0  0  0  0  0
   22.9025  -21.5260  -10.6410 N   0  0  0  0  0  0  0  0  0  0  0  0
   27.3173  -20.0157  -15.7314 C   0  0  1  0  0  0  0  0  0  0  0  0
   28.1554  -20.1517  -16.8983 C   0  0  0  0  0  0  0  0  0  0  0  0
   29.1580  -19.0064  -16.9950 S   0  0  0  0  0  0  0  0  0  0  0  0
   28.1749  -17.4795  -17.0304 C   0  0  0  0  0  0  0  0  0  0  0  0
   28.9501  -21.3716  -16.8218 O   0  0  0  0  0  0  0  0  0  0  0  0
   28.9435  -22.0552  -15.7676 O   0  0  0  0  0  0  0  0  0  0  0  0
  1  2  1  0
  2  3  2  0
  4  2  1  0
  4  5  1  0
  6  5  1  0
  7  8  1  0
  7  6  1  0
  8 10  1  0
  8  9  1  1
 10 11  2  0
 12 13  1  0
 13 23  2  0
 13 14  1  0
 14 15  2  0
 15 16  1  0
 16 17  1  0
 18 17  1  1
 19 18  1  0
 19 10  1  0
 20 21  2  0
 20 18  1  0
 22 16  2  0
 23 22  1  0
 24 20  1  0
 25 28  1  0
 25 24  1  0
 25 26  1  6
 27 26  1  0
 28 30  1  0
 29 28  2  0
M  END
$$$$
