RYC.pdb
     RDKit          3D

 30 30  0  0  1  0  0  0  0  0999 V2000
   28.7511  -27.5774  -16.7114 N   0  0  0  0  0  0  0  0  0  0  0  0
   28.7511  -27.1410  -18.0879 C   0  0  0  0  0  0  0  0  0  0  0  0
   28.7268  -28.0187  -19.0278 N   0  0  0  0  0  0  0  0  0  0  0  0
   28.7763  -25.7744  -18.4307 N   0  0  0  0  0  0  0  0  0  0  0  0
   28.6402  -24.7423  -17.4264 C   0  0  0  0  0  0  0  0  0  0  0  0
   27.8054  -23.6322  -18.0487 C   0  0  0  0  0  0  0  0  0  0  0  0
   26.4947  -23.5606  -17.3445 C   0  0  0  0  0  0  0  0  0  0  0  0
   26.5516  -23.8407  -15.8677 C   0  0  2  0  0  0  0  0  0  0  0  0
   26.2721  -25.2380  -15.6113 N   0  0  0  0  0  0  0  0  0  0  0  0
   25.4902  -23.0116  -15.1887 C   0  0  0  0  0  0  0  0  0  0  0  0
   24.3315  -23.5090  -15.1243 O   0  0  0  0  0  0  0  0  0  0  0  0
   28.6968  -27.8423  -20.0363 O   0  0  0  0  0  0  0  0  0  0  0  0
   23.9266  -21.1961   -7.6025 C   0  0  0  0  0  0  0  0  0  0  0  0
   24.2908  -20.9280   -8.9175 C   0  0  0  0  0  0  0  0  0  0  0  0
   23.3430  -20.5125   -9.8354 C   0  0  0  0  0  0  0  0  0  0  0  0
   23.7036  -20.2498  -11.1287 C   0  0  0  0  0  0  0  0  0  0  0  0
   25.0230  -20.3895  -11.5630 C   0  0  0  0  0  0  0  0  0  0  0  0
   25.3513  -20.1544  -12.9636 C   0  0  2  0  0  0  0  0  0  0  0  0
   24.6622  -21.0235  -13.9443 N   0  0  0  0  0  0  0  0  0  0  0  0
   25.7690  -21.7451  -14.6512 C   0  0  0  0  0  0  0  0  0  0  0  0
   23.8960  -20.2859  -14.9554 O   0  0  0  0  0  0  0  0  0  0  0  0
   24.4756  -19.8666  -16.0349 C   0  0  0  0  0  0  0  0  0  0  0  0
   25.9607  -20.7985  -10.6607 C   0  0  0  0  0  0  0  0  0  0  0  0
   25.5908  -21.0605   -9.3651 N   0  0  0  0  0  0  0  0  0  0  0  0
   22.5240  -19.9541  -14.9201 C   0  0  2  0  0  0  0  0  0  0  0  0
   21.7940  -19.5264  -16.0891 C   0  0  0  0  0  0  0  0  0  0  0  0
   21.7052  -20.6431  -17.1242 S   0  0  0  0  0  0  0  0  0  0  0  0
   20.7322  -19.9732  -18.5040 C   0  0  0  0  0  0  0  0  0  0  0  0
   20.4174  -19.1935  -15.7429 O   0  0  0  0  0  0  0  0  0  0  0  0
   19.9397  -19.5778  -14.6463 O   0  0  0  0  0  0  0  0  0  0  0  0
  1  2  1  0
  2  3  2  0
  4  2  1  0
  4  5  1  0
  6  5  1  0
  7  8  1  0
  7  6  1  0
  8 10  1  0
  8  9  1  6
 10 11  2  0
 12 13  1  0
 13 23  2  0
 13 14  1  0
 14 15  2  0
 15 16  1  0
 16 17  1  0
 18 17  1  1
 19 18  1  0
 19 10  1  0
 20 21  2  0
 20 18  1  0
 22 16  2  0
 23 22  1  0
 24 20  1  0
 25 28  1  0
 25 24  1  0
 25 26  1  6
 27 26  1  0
 28 30  1  0
 29 28  2  0
M  END
$$$$
