RYC.pdb
     RDKit          3D

 30 30  0  0  1  0  0  0  0  0999 V2000
   24.0234  -21.4361  -20.1558 N   0  0  0  0  0  0  0  0  0  0  0  0
   24.2243  -20.9398  -18.8147 C   0  0  0  0  0  0  0  0  0  0  0  0
   24.0060  -21.7186  -17.8146 N   0  0  0  0  0  0  0  0  0  0  0  0
   24.6553  -19.6205  -18.5710 N   0  0  0  0  0  0  0  0  0  0  0  0
   25.0126  -18.7315  -19.6547 C   0  0  0  0  0  0  0  0  0  0  0  0
   26.4834  -18.9793  -19.9585 C   0  0  0  0  0  0  0  0  0  0  0  0
   27.3127  -18.2523  -18.9571 C   0  0  0  0  0  0  0  0  0  0  0  0
   28.3564  -19.0896  -18.2696 C   0  0  2  0  0  0  0  0  0  0  0  0
   28.8776  -20.0878  -19.1797 N   0  0  0  0  0  0  0  0  0  0  0  0
   27.7035  -19.7989  -17.1097 C   0  0  0  0  0  0  0  0  0  0  0  0
   27.2894  -20.9733  -17.3185 O   0  0  0  0  0  0  0  0  0  0  0  0
   24.2157  -21.5317  -16.8296 O   0  0  0  0  0  0  0  0  0  0  0  0
   25.1934  -21.4447   -8.7707 C   0  0  0  0  0  0  0  0  0  0  0  0
   25.7813  -20.9531   -9.9311 C   0  0  0  0  0  0  0  0  0  0  0  0
   25.3614  -19.7519  -10.4736 C   0  0  0  0  0  0  0  0  0  0  0  0
   25.9410  -19.2706  -11.6156 C   0  0  0  0  0  0  0  0  0  0  0  0
   26.9631  -19.9644  -12.2657 C   0  0  0  0  0  0  0  0  0  0  0  0
   27.5120  -19.4427  -13.5112 C   0  0  1  0  0  0  0  0  0  0  0  0
   26.9220  -19.9861  -14.7557 N   0  0  0  0  0  0  0  0  0  0  0  0
   27.5586  -19.1892  -15.8536 C   0  0  0  0  0  0  0  0  0  0  0  0
   25.4700  -19.7984  -14.8554 O   0  0  0  0  0  0  0  0  0  0  0  0
   24.9833  -18.6482  -15.1976 C   0  0  0  0  0  0  0  0  0  0  0  0
   27.3804  -21.1491  -11.7334 C   0  0  0  0  0  0  0  0  0  0  0  0
   26.7935  -21.6255  -10.5877 N   0  0  0  0  0  0  0  0  0  0  0  0
   24.4620  -20.7597  -14.6241 C   0  0  2  0  0  0  0  0  0  0  0  0
   23.0548  -20.4482  -14.6973 C   0  0  0  0  0  0  0  0  0  0  0  0
   22.2551  -21.6291  -15.2379 S   0  0  0  0  0  0  0  0  0  0  0  0
   23.0695  -22.1216  -16.7850 C   0  0  0  0  0  0  0  0  0  0  0  0
   22.5178  -20.1780  -13.3691 O   0  0  0  0  0  0  0  0  0  0  0  0
   21.3532  -19.7222  -13.2480 O   0  0  0  0  0  0  0  0  0  0  0  0
  1  2  1  0
  2  3  2  0
  4  2  1  0
  4  5  1  0
  6  5  1  0
  7  8  1  0
  7  6  1  0
  8 10  1  0
  8  9  1  6
 10 11  2  0
 12 13  1  0
 13 23  2  0
 13 14  1  0
 14 15  2  0
 15 16  1  0
 16 17  1  0
 18 17  1  6
 19 18  1  0
 19 10  1  0
 20 21  2  0
 20 18  1  0
 22 16  2  0
 23 22  1  0
 24 20  1  0
 25 28  1  0
 25 24  1  0
 25 26  1  6
 27 26  1  0
 28 30  1  0
 29 28  2  0
M  END
$$$$
