YVP.pdb
     RDKit          3D

 27 28  0  0  1  0  0  0  0  0999 V2000
   10.7479  -14.3464   30.5386 O   0  0  0  0  0  0  0  0  0  0  0  0
   10.3325  -14.7343   29.2712 C   0  0  0  0  0  0  0  0  0  0  0  0
    9.8563  -13.7895   28.3857 C   0  0  0  0  0  0  0  0  0  0  0  0
    9.4389  -14.1632   27.1185 C   0  0  0  0  0  0  0  0  0  0  0  0
    9.4777  -15.4732   26.6871 C   0  0  0  0  0  0  0  0  0  0  0  0
    9.0386  -15.8725   25.3505 C   0  0  0  0  0  0  0  0  0  0  0  0
    7.5955  -15.5297   25.0571 C   0  0  2  0  0  0  0  0  0  0  0  0
    6.6887  -16.3840   25.7791 N   0  0  0  0  0  0  0  0  0  0  0  0
    7.4261  -15.6923   23.5736 C   0  0  0  0  0  0  0  0  0  0  0  0
    6.8279  -16.6872   23.0836 O   0  0  0  0  0  0  0  0  0  0  0  0
    9.9571  -16.4209   27.5801 C   0  0  0  0  0  0  0  0  0  0  0  0
   10.3720  -16.0446   28.8417 C   0  0  0  0  0  0  0  0  0  0  0  0
    7.0370  -12.5299   21.1715 C   0  0  0  0  0  0  0  0  0  0  0  0
    8.0758  -13.5015   20.6628 C   0  0  2  0  0  0  0  0  0  0  0  0
    7.8507  -13.5813   19.1433 C   0  0  0  0  0  0  0  0  0  0  0  0
    7.7757  -14.9205   21.1915 C   0  0  2  0  0  0  0  0  0  0  0  0
    7.9311  -14.7349   22.6592 N   0  0  0  0  0  0  0  0  0  0  0  0
    8.7617  -15.8475   20.6749 C   0  0  0  0  0  0  0  0  0  0  0  0
    9.9850  -15.6052   20.9646 O   0  0  0  0  0  0  0  0  0  0  0  0
    8.4405  -16.9846   19.8822 N   0  0  0  0  0  0  0  0  0  0  0  0
    7.0763  -17.3203   19.5195 C   0  0  0  0  0  0  0  0  0  0  0  0
    7.2179  -18.0710   18.2284 C   0  0  0  0  0  0  0  0  0  0  0  0
    8.3765  -19.0032   18.6190 C   0  0  0  0  0  0  0  0  0  0  0  0
    9.3134  -17.9865   19.3252 C   0  0  1  0  0  0  0  0  0  0  0  0
   10.2276  -17.4371   18.3006 C   0  0  0  0  0  0  0  0  0  0  0  0
    9.8896  -16.4786   17.5864 O   0  0  0  0  0  0  0  0  0  0  0  0
   11.4733  -17.9965   18.1352 O   0  0  0  0  0  0  0  0  0  0  0  0
  1  2  1  0
  2  3  2  0
  3  4  1  0
  5  4  2  0
  5  6  1  0
  6  7  1  0
  7  8  1  1
  7  9  1  0
  9 10  2  0
 11  5  1  0
 12  2  1  0
 12 11  2  0
 14 16  1  0
 14 13  1  1
 15 14  1  0
 16 18  1  0
 17  9  1  0
 16 17  1  1
 18 20  1  0
 19 18  2  0
 20 24  1  0
 20 21  1  0
 21 22  1  0
 23 22  1  0
 24 23  1  0
 24 25  1  6
 26 25  2  0
 27 25  1  0
M  END
$$$$
