YVP.pdb
     RDKit          3D

 27 28  0  0  1  0  0  0  0  0999 V2000
   11.5660  -14.5494   31.3795 O   0  0  0  0  0  0  0  0  0  0  0  0
   10.9683  -15.3036   30.3779 C   0  0  0  0  0  0  0  0  0  0  0  0
   10.5688  -14.6949   29.2059 C   0  0  0  0  0  0  0  0  0  0  0  0
    9.9714  -15.4357   28.1989 C   0  0  0  0  0  0  0  0  0  0  0  0
    9.7504  -16.7926   28.3155 C   0  0  0  0  0  0  0  0  0  0  0  0
    9.1207  -17.5790   27.2553 C   0  0  0  0  0  0  0  0  0  0  0  0
    7.6099  -17.5227   27.2725 C   0  0  2  0  0  0  0  0  0  0  0  0
    7.0295  -18.8394   27.3269 N   0  0  0  0  0  0  0  0  0  0  0  0
    7.2091  -16.8068   26.0145 C   0  0  0  0  0  0  0  0  0  0  0  0
    7.0528  -17.4230   24.9266 O   0  0  0  0  0  0  0  0  0  0  0  0
   10.1533  -17.4017   29.4953 C   0  0  0  0  0  0  0  0  0  0  0  0
   10.7481  -16.6602   30.4962 C   0  0  0  0  0  0  0  0  0  0  0  0
    7.8244  -12.4446   24.5707 C   0  0  0  0  0  0  0  0  0  0  0  0
    6.6839  -13.2203   25.1870 C   0  0  2  0  0  0  0  0  0  0  0  0
    6.9902  -13.2686   26.6936 C   0  0  0  0  0  0  0  0  0  0  0  0
    6.7299  -14.6901   24.7173 C   0  0  2  0  0  0  0  0  0  0  0  0
    6.9890  -15.4071   25.9947 N   0  0  0  0  0  0  0  0  0  0  0  0
    7.8267  -14.8664   23.7877 C   0  0  0  0  0  0  0  0  0  0  0  0
    8.9855  -15.0597   24.2965 O   0  0  0  0  0  0  0  0  0  0  0  0
    7.6781  -14.8360   22.3729 N   0  0  0  0  0  0  0  0  0  0  0  0
    6.4307  -14.4686   21.7291 C   0  0  0  0  0  0  0  0  0  0  0  0
    6.8565  -13.9145   20.4016 C   0  0  0  0  0  0  0  0  0  0  0  0
    7.8722  -14.9982   20.0043 C   0  0  0  0  0  0  0  0  0  0  0  0
    8.6372  -15.1548   21.3461 C   0  0  1  0  0  0  0  0  0  0  0  0
    9.7772  -14.2128   21.3215 C   0  0  0  0  0  0  0  0  0  0  0  0
    9.7116  -13.1107   21.8908 O   0  0  0  0  0  0  0  0  0  0  0  0
   10.9298  -14.5623   20.6572 O   0  0  0  0  0  0  0  0  0  0  0  0
  1  2  1  0
  2  3  2  0
  3  4  1  0
  5  4  2  0
  5  6  1  0
  6  7  1  0
  7  8  1  6
  7  9  1  0
  9 10  2  0
 11  5  1  0
 12  2  1  0
 12 11  2  0
 14 16  1  0
 14 13  1  6
 15 14  1  0
 16 18  1  0
 17  9  1  0
 16 17  1  1
 18 20  1  0
 19 18  2  0
 20 24  1  0
 20 21  1  0
 21 22  1  0
 23 22  1  0
 24 23  1  0
 24 25  1  6
 26 25  2  0
 27 25  1  0
M  END
$$$$
