YVP.pdb
     RDKit          3D

 27 28  0  0  1  0  0  0  0  0999 V2000
   10.1539  -15.9903   31.6940 O   0  0  0  0  0  0  0  0  0  0  0  0
   10.1557  -15.7905   30.3195 C   0  0  0  0  0  0  0  0  0  0  0  0
    9.7753  -16.8143   29.4765 C   0  0  0  0  0  0  0  0  0  0  0  0
    9.7727  -16.6281   28.1035 C   0  0  0  0  0  0  0  0  0  0  0  0
   10.1430  -15.4330   27.5220 C   0  0  0  0  0  0  0  0  0  0  0  0
   10.1414  -15.2314   26.0735 C   0  0  0  0  0  0  0  0  0  0  0  0
   11.0337  -16.1953   25.3247 C   0  0  2  0  0  0  0  0  0  0  0  0
   12.3914  -16.1427   25.8014 N   0  0  0  0  0  0  0  0  0  0  0  0
   10.9524  -15.7953   23.8793 C   0  0  0  0  0  0  0  0  0  0  0  0
   11.4915  -14.7377   23.4567 O   0  0  0  0  0  0  0  0  0  0  0  0
   10.5250  -14.4054   28.3726 C   0  0  0  0  0  0  0  0  0  0  0  0
   10.5263  -14.5949   29.7399 C   0  0  0  0  0  0  0  0  0  0  0  0
   10.4281  -18.5813   21.2661 C   0  0  0  0  0  0  0  0  0  0  0  0
   10.8031  -17.2209   20.7268 C   0  0  2  0  0  0  0  0  0  0  0  0
   12.2952  -17.0477   21.0579 C   0  0  0  0  0  0  0  0  0  0  0  0
   10.0799  -16.1173   21.5282 C   0  0  2  0  0  0  0  0  0  0  0  0
   10.2661  -16.5887   22.9267 N   0  0  0  0  0  0  0  0  0  0  0  0
    8.6775  -16.0970   21.1661 C   0  0  0  0  0  0  0  0  0  0  0  0
    7.9725  -17.0971   21.5431 O   0  0  0  0  0  0  0  0  0  0  0  0
    8.0648  -15.0441   20.4310 N   0  0  0  0  0  0  0  0  0  0  0  0
    8.7435  -13.7924   20.1516 C   0  0  0  0  0  0  0  0  0  0  0  0
    8.1072  -13.3098   18.8816 C   0  0  0  0  0  0  0  0  0  0  0  0
    6.6333  -13.5557   19.2435 C   0  0  0  0  0  0  0  0  0  0  0  0
    6.7418  -14.9745   19.8644 C   0  0  1  0  0  0  0  0  0  0  0  0
    6.5382  -15.9541   18.7752 C   0  0  0  0  0  0  0  0  0  0  0  0
    7.5030  -16.4919   18.2070 O   0  0  0  0  0  0  0  0  0  0  0  0
    5.2591  -16.2756   18.3845 O   0  0  0  0  0  0  0  0  0  0  0  0
  1  2  1  0
  2  3  2  0
  3  4  1  0
  5  4  2  0
  5  6  1  0
  6  7  1  0
  7  8  1  1
  7  9  1  0
  9 10  2  0
 11  5  1  0
 12  2  1  0
 12 11  2  0
 14 16  1  0
 14 13  1  1
 15 14  1  0
 16 18  1  0
 17  9  1  0
 16 17  1  1
 18 20  1  0
 19 18  2  0
 20 24  1  0
 20 21  1  0
 21 22  1  0
 23 22  1  0
 24 23  1  0
 24 25  1  6
 26 25  2  0
 27 25  1  0
M  END
$$$$
