YVP.pdb
     RDKit          3D

 27 28  0  0  1  0  0  0  0  0999 V2000
   11.2105  -13.8725   29.8851 O   0  0  0  0  0  0  0  0  0  0  0  0
   10.6369  -15.0062   29.3240 C   0  0  0  0  0  0  0  0  0  0  0  0
   10.6034  -15.1516   27.9524 C   0  0  0  0  0  0  0  0  0  0  0  0
   10.0342  -16.2777   27.3800 C   0  0  0  0  0  0  0  0  0  0  0  0
    9.4832  -17.2903   28.1381 C   0  0  0  0  0  0  0  0  0  0  0  0
    8.8818  -18.4809   27.5387 C   0  0  0  0  0  0  0  0  0  0  0  0
    7.3864  -18.3732   27.3423 C   0  0  2  0  0  0  0  0  0  0  0  0
    6.7914  -19.6571   27.0757 N   0  0  0  0  0  0  0  0  0  0  0  0
    7.1885  -17.4352   26.1861 C   0  0  0  0  0  0  0  0  0  0  0  0
    7.2845  -17.8296   24.9933 O   0  0  0  0  0  0  0  0  0  0  0  0
    9.5185  -17.1410   29.5172 C   0  0  0  0  0  0  0  0  0  0  0  0
   10.0864  -16.0176   30.0836 C   0  0  0  0  0  0  0  0  0  0  0  0
    6.2762  -12.6988   24.9281 C   0  0  0  0  0  0  0  0  0  0  0  0
    6.6296  -13.7729   25.9298 C   0  0  2  0  0  0  0  0  0  0  0  0
    8.0757  -13.4713   26.3585 C   0  0  0  0  0  0  0  0  0  0  0  0
    6.6932  -15.1475   25.2301 C   0  0  2  0  0  0  0  0  0  0  0  0
    6.8852  -16.0653   26.3849 N   0  0  0  0  0  0  0  0  0  0  0  0
    7.8344  -15.1839   24.3387 C   0  0  0  0  0  0  0  0  0  0  0  0
    8.9859  -15.3068   24.8846 O   0  0  0  0  0  0  0  0  0  0  0  0
    7.7358  -15.0924   22.9222 N   0  0  0  0  0  0  0  0  0  0  0  0
    6.5398  -14.6135   22.2545 C   0  0  0  0  0  0  0  0  0  0  0  0
    7.0480  -14.0444   20.9629 C   0  0  0  0  0  0  0  0  0  0  0  0
    7.9972  -15.1835   20.5562 C   0  0  0  0  0  0  0  0  0  0  0  0
    8.7038  -15.4425   21.9141 C   0  0  1  0  0  0  0  0  0  0  0  0
    9.9078  -14.5847   21.9605 C   0  0  0  0  0  0  0  0  0  0  0  0
    9.9411  -13.5631   22.6663 O   0  0  0  0  0  0  0  0  0  0  0  0
   11.0095  -14.9234   21.2099 O   0  0  0  0  0  0  0  0  0  0  0  0
  1  2  1  0
  2  3  2  0
  3  4  1  0
  5  4  2  0
  5  6  1  0
  6  7  1  0
  7  8  1  6
  7  9  1  0
  9 10  2  0
 11  5  1  0
 12  2  1  0
 12 11  2  0
 14 16  1  0
 14 13  1  6
 15 14  1  0
 16 18  1  0
 17  9  1  0
 16 17  1  1
 18 20  1  0
 19 18  2  0
 20 24  1  0
 20 21  1  0
 21 22  1  0
 23 22  1  0
 24 23  1  0
 24 25  1  1
 26 25  2  0
 27 25  1  0
M  END
$$$$
