YVP.pdb
     RDKit          3D

 27 28  0  0  1  0  0  0  0  0999 V2000
    6.0411  -10.5327   27.8489 O   0  0  0  0  0  0  0  0  0  0  0  0
    6.4100  -11.7234   27.2362 C   0  0  0  0  0  0  0  0  0  0  0  0
    5.6774  -12.8696   27.4664 C   0  0  0  0  0  0  0  0  0  0  0  0
    6.0346  -14.0638   26.8614 C   0  0  0  0  0  0  0  0  0  0  0  0
    7.1197  -14.1646   26.0151 C   0  0  0  0  0  0  0  0  0  0  0  0
    7.5005  -15.4225   25.3738 C   0  0  0  0  0  0  0  0  0  0  0  0
    6.5076  -15.9025   24.3394 C   0  0  2  0  0  0  0  0  0  0  0  0
    5.8776  -17.1342   24.7386 N   0  0  0  0  0  0  0  0  0  0  0  0
    7.2889  -16.0817   23.0693 C   0  0  0  0  0  0  0  0  0  0  0  0
    7.8007  -17.1910   22.7611 O   0  0  0  0  0  0  0  0  0  0  0  0
    7.8544  -13.0100   25.7858 C   0  0  0  0  0  0  0  0  0  0  0  0
    7.4952  -11.8222   26.3904 C   0  0  0  0  0  0  0  0  0  0  0  0
    7.0614  -13.0668   20.2272 C   0  0  0  0  0  0  0  0  0  0  0  0
    8.3832  -13.7845   20.3680 C   0  0  2  0  0  0  0  0  0  0  0  0
    8.9297  -13.9179   18.9364 C   0  0  0  0  0  0  0  0  0  0  0  0
    8.1494  -15.2328   20.8485 C   0  0  2  0  0  0  0  0  0  0  0  0
    7.4853  -15.0117   22.1612 N   0  0  0  0  0  0  0  0  0  0  0  0
    9.4249  -15.8991   21.0141 C   0  0  0  0  0  0  0  0  0  0  0  0
   10.2724  -15.3328   21.7887 O   0  0  0  0  0  0  0  0  0  0  0  0
    9.7686  -17.1217   20.3725 N   0  0  0  0  0  0  0  0  0  0  0  0
    8.8358  -17.8485   19.5317 C   0  0  0  0  0  0  0  0  0  0  0  0
    9.7162  -18.5972   18.5752 C   0  0  0  0  0  0  0  0  0  0  0  0
   10.7489  -19.1413   19.5759 C   0  0  0  0  0  0  0  0  0  0  0  0
   11.0021  -17.8646   20.4221 C   0  0  1  0  0  0  0  0  0  0  0  0
   12.1296  -17.1355   19.8018 C   0  0  0  0  0  0  0  0  0  0  0  0
   11.9358  -16.2921   18.9106 O   0  0  0  0  0  0  0  0  0  0  0  0
   13.4145  -17.3951   20.2183 O   0  0  0  0  0  0  0  0  0  0  0  0
  1  2  1  0
  2  3  2  0
  3  4  1  0
  5  4  2  0
  5  6  1  0
  6  7  1  0
  7  8  1  1
  7  9  1  0
  9 10  2  0
 11  5  1  0
 12  2  1  0
 12 11  2  0
 14 16  1  0
 14 13  1  6
 15 14  1  0
 16 18  1  0
 17  9  1  0
 16 17  1  1
 18 20  1  0
 19 18  2  0
 20 24  1  0
 20 21  1  0
 21 22  1  0
 23 22  1  0
 24 23  1  0
 24 25  1  6
 26 25  2  0
 27 25  1  0
M  END
$$$$
