YVP.pdb
     RDKit          3D

 27 28  0  0  1  0  0  0  0  0999 V2000
    7.0360  -10.3218   26.9553 O   0  0  0  0  0  0  0  0  0  0  0  0
    6.9624  -11.6894   26.7243 C   0  0  0  0  0  0  0  0  0  0  0  0
    8.0901  -12.3811   26.3324 C   0  0  0  0  0  0  0  0  0  0  0  0
    8.0303  -13.7455   26.0987 C   0  0  0  0  0  0  0  0  0  0  0  0
    6.8629  -14.4666   26.2434 C   0  0  0  0  0  0  0  0  0  0  0  0
    6.7948  -15.9068   25.9985 C   0  0  0  0  0  0  0  0  0  0  0  0
    7.8848  -16.4202   25.0849 C   0  0  2  0  0  0  0  0  0  0  0  0
    9.1080  -15.6781   25.2473 N   0  0  0  0  0  0  0  0  0  0  0  0
    7.3508  -16.2832   23.6878 C   0  0  0  0  0  0  0  0  0  0  0  0
    6.2449  -16.7853   23.3525 O   0  0  0  0  0  0  0  0  0  0  0  0
    5.7307  -13.7680   26.6376 C   0  0  0  0  0  0  0  0  0  0  0  0
    5.7944  -12.4087   26.8694 C   0  0  0  0  0  0  0  0  0  0  0  0
    9.4348  -13.9211   21.0824 C   0  0  0  0  0  0  0  0  0  0  0  0
    8.0249  -14.3127   20.7071 C   0  0  2  0  0  0  0  0  0  0  0  0
    7.1123  -13.3613   21.4996 C   0  0  0  0  0  0  0  0  0  0  0  0
    7.7065  -15.7231   21.2480 C   0  0  2  0  0  0  0  0  0  0  0  0
    8.0666  -15.5836   22.6846 N   0  0  0  0  0  0  0  0  0  0  0  0
    8.5537  -16.6961   20.5893 C   0  0  0  0  0  0  0  0  0  0  0  0
    9.7794  -16.7332   20.9574 O   0  0  0  0  0  0  0  0  0  0  0  0
    8.0972  -17.5886   19.5796 N   0  0  0  0  0  0  0  0  0  0  0  0
    6.7006  -17.6828   19.1974 C   0  0  0  0  0  0  0  0  0  0  0  0
    6.7447  -18.1429   17.7702 C   0  0  0  0  0  0  0  0  0  0  0  0
    7.7906  -19.2610   17.9112 C   0  0  0  0  0  0  0  0  0  0  0  0
    8.8441  -18.5347   18.7902 C   0  0  1  0  0  0  0  0  0  0  0  0
    9.8080  -17.8792   17.8800 C   0  0  0  0  0  0  0  0  0  0  0  0
    9.7459  -16.6602   17.6491 O   0  0  0  0  0  0  0  0  0  0  0  0
   10.7901  -18.6313   17.2786 O   0  0  0  0  0  0  0  0  0  0  0  0
  1  2  1  0
  2  3  2  0
  3  4  1  0
  5  4  2  0
  5  6  1  0
  6  7  1  0
  7  8  1  6
  7  9  1  0
  9 10  2  0
 11  5  1  0
 12  2  1  0
 12 11  2  0
 14 16  1  0
 14 13  1  1
 15 14  1  0
 16 18  1  0
 17  9  1  0
 16 17  1  1
 18 20  1  0
 19 18  2  0
 20 24  1  0
 20 21  1  0
 21 22  1  0
 23 22  1  0
 24 23  1  0
 24 25  1  6
 26 25  2  0
 27 25  1  0
M  END
$$$$
