YVP.pdb
     RDKit          3D

 27 28  0  0  1  0  0  0  0  0999 V2000
   15.6028  -21.4014   20.1903 O   0  0  0  0  0  0  0  0  0  0  0  0
   14.5586  -20.5916   20.6182 C   0  0  0  0  0  0  0  0  0  0  0  0
   13.2599  -21.0524   20.5498 C   0  0  0  0  0  0  0  0  0  0  0  0
   12.2093  -20.2547   20.9735 C   0  0  0  0  0  0  0  0  0  0  0  0
   12.4053  -18.9844   21.4751 C   0  0  0  0  0  0  0  0  0  0  0  0
   11.2997  -18.1388   21.9240 C   0  0  0  0  0  0  0  0  0  0  0  0
   10.8532  -17.1251   20.8948 C   0  0  2  0  0  0  0  0  0  0  0  0
   11.9120  -16.7998   19.9748 N   0  0  0  0  0  0  0  0  0  0  0  0
   10.4193  -15.9139   21.6697 C   0  0  0  0  0  0  0  0  0  0  0  0
   11.2559  -15.0965   22.1383 O   0  0  0  0  0  0  0  0  0  0  0  0
   13.7125  -18.5240   21.5426 C   0  0  0  0  0  0  0  0  0  0  0  0
   14.7565  -19.3218   21.1195 C   0  0  0  0  0  0  0  0  0  0  0  0
    6.5120  -15.3307   21.7326 C   0  0  0  0  0  0  0  0  0  0  0  0
    7.2923  -14.0848   22.0801 C   0  0  2  0  0  0  0  0  0  0  0  0
    7.6659  -13.4475   20.7310 C   0  0  0  0  0  0  0  0  0  0  0  0
    8.6376  -14.4688   22.7327 C   0  0  2  0  0  0  0  0  0  0  0  0
    9.0504  -15.6364   21.9085 N   0  0  0  0  0  0  0  0  0  0  0  0
    8.4137  -14.8552   24.1107 C   0  0  0  0  0  0  0  0  0  0  0  0
    8.5563  -16.0966   24.3895 O   0  0  0  0  0  0  0  0  0  0  0  0
    8.0529  -13.9419   25.1404 N   0  0  0  0  0  0  0  0  0  0  0  0
    7.8328  -12.5303   24.8868 C   0  0  0  0  0  0  0  0  0  0  0  0
    6.8698  -12.1144   25.9592 C   0  0  0  0  0  0  0  0  0  0  0  0
    7.5451  -12.7911   27.1633 C   0  0  0  0  0  0  0  0  0  0  0  0
    7.8613  -14.1810   26.5483 C   0  0  1  0  0  0  0  0  0  0  0  0
    6.7061  -15.0628   26.8226 C   0  0  0  0  0  0  0  0  0  0  0  0
    5.8230  -15.2480   25.9689 O   0  0  0  0  0  0  0  0  0  0  0  0
    6.6072  -15.6887   28.0434 O   0  0  0  0  0  0  0  0  0  0  0  0
  1  2  1  0
  2  3  2  0
  3  4  1  0
  5  4  2  0
  5  6  1  0
  6  7  1  0
  7  8  1  6
  7  9  1  0
  9 10  2  0
 11  5  1  0
 12  2  1  0
 12 11  2  0
 14 16  1  0
 14 13  1  6
 15 14  1  0
 16 18  1  0
 17  9  1  0
 16 17  1  6
 18 20  1  0
 19 18  2  0
 20 24  1  0
 20 21  1  0
 21 22  1  0
 23 22  1  0
 24 23  1  0
 24 25  1  6
 26 25  2  0
 27 25  1  0
M  END
$$$$
