YVP.pdb
     RDKit          3D

 27 28  0  0  1  0  0  0  0  0999 V2000
    4.8507  -22.1499   21.7677 O   0  0  0  0  0  0  0  0  0  0  0  0
    5.6648  -21.0816   22.1215 C   0  0  0  0  0  0  0  0  0  0  0  0
    6.9758  -21.0462   21.6931 C   0  0  0  0  0  0  0  0  0  0  0  0
    7.7985  -19.9863   22.0390 C   0  0  0  0  0  0  0  0  0  0  0  0
    7.3565  -18.9339   22.8140 C   0  0  0  0  0  0  0  0  0  0  0  0
    8.2207  -17.8128   23.1814 C   0  0  0  0  0  0  0  0  0  0  0  0
    7.8325  -16.5062   22.5271 C   0  0  2  0  0  0  0  0  0  0  0  0
    8.4381  -16.3612   21.2288 N   0  0  0  0  0  0  0  0  0  0  0  0
    8.2918  -15.4240   23.4617 C   0  0  0  0  0  0  0  0  0  0  0  0
    9.4958  -15.0548   23.5019 O   0  0  0  0  0  0  0  0  0  0  0  0
    6.0376  -18.9726   23.2433 C   0  0  0  0  0  0  0  0  0  0  0  0
    5.2211  -20.0303   22.8966 C   0  0  0  0  0  0  0  0  0  0  0  0
    6.1740  -12.2655   25.3076 C   0  0  0  0  0  0  0  0  0  0  0  0
    6.5765  -13.4721   26.1225 C   0  0  2  0  0  0  0  0  0  0  0  0
    6.9505  -12.9218   27.5093 C   0  0  0  0  0  0  0  0  0  0  0  0
    7.8815  -14.0769   25.5617 C   0  0  2  0  0  0  0  0  0  0  0  0
    7.3921  -14.7701   24.3398 N   0  0  0  0  0  0  0  0  0  0  0  0
    8.4255  -15.0216   26.5156 C   0  0  0  0  0  0  0  0  0  0  0  0
    7.7709  -16.1088   26.6844 O   0  0  0  0  0  0  0  0  0  0  0  0
    9.6225  -14.8018   27.2528 N   0  0  0  0  0  0  0  0  0  0  0  0
   10.2666  -13.5035   27.3221 C   0  0  0  0  0  0  0  0  0  0  0  0
   10.9930  -13.5279   28.6345 C   0  0  0  0  0  0  0  0  0  0  0  0
   11.6295  -14.9236   28.5302 C   0  0  0  0  0  0  0  0  0  0  0  0
   10.4119  -15.7366   28.0138 C   0  0  1  0  0  0  0  0  0  0  0  0
    9.6915  -16.2587   29.1953 C   0  0  0  0  0  0  0  0  0  0  0  0
    8.6335  -15.7368   29.5842 O   0  0  0  0  0  0  0  0  0  0  0  0
   10.2010  -17.3403   29.8752 O   0  0  0  0  0  0  0  0  0  0  0  0
  1  2  1  0
  2  3  2  0
  3  4  1  0
  5  4  2  0
  5  6  1  0
  6  7  1  0
  7  8  1  6
  7  9  1  0
  9 10  2  0
 11  5  1  0
 12  2  1  0
 12 11  2  0
 14 16  1  0
 14 13  1  6
 15 14  1  0
 16 18  1  0
 17  9  1  0
 16 17  1  6
 18 20  1  0
 19 18  2  0
 20 24  1  0
 20 21  1  0
 21 22  1  0
 23 22  1  0
 24 23  1  0
 24 25  1  1
 26 25  2  0
 27 25  1  0
M  END
$$$$
