ISW.pdb
     RDKit          3D

 29 30  0  0  1  0  0  0  0  0999 V2000
    7.4795  -14.7450   17.8071 C   0  0  0  0  0  0  0  0  0  0  0  0
    6.8546  -14.3226   19.1085 C   0  0  0  0  0  0  0  0  0  0  0  0
    7.6604  -13.2936   19.8465 C   0  0  2  0  0  0  0  0  0  0  0  0
    7.9887  -12.1820   18.9053 C   0  0  0  0  0  0  0  0  0  0  0  0
    8.9120  -13.8520   20.4693 C   0  0  2  0  0  0  0  0  0  0  0  0
    9.7354  -14.3672   19.3913 N   0  0  0  0  0  0  0  0  0  0  0  0
    8.6696  -14.8971   21.4655 C   0  0  0  0  0  0  0  0  0  0  0  0
    7.6693  -14.9297   22.2286 O   0  0  0  0  0  0  0  0  0  0  0  0
   11.5739  -17.7608   22.0882 O   0  0  0  0  0  0  0  0  0  0  0  0
   10.2534  -18.1855   22.1719 C   0  0  0  0  0  0  0  0  0  0  0  0
    9.3697  -17.0185   22.5795 C   0  0  2  0  0  0  0  0  0  0  0  0
    9.6046  -15.9593   21.6071 N   0  0  0  0  0  0  0  0  0  0  0  0
    9.8087  -16.5721   23.9433 C   0  0  0  0  0  0  0  0  0  0  0  0
   10.7485  -15.7435   24.0023 O   0  0  0  0  0  0  0  0  0  0  0  0
    9.2174  -17.0395   25.1252 N   0  0  0  0  0  0  0  0  0  0  0  0
    9.7952  -16.6335   26.4139 C   0  0  1  0  0  0  0  0  0  0  0  0
    8.6833  -16.2611   27.3694 C   0  0  0  0  0  0  0  0  0  0  0  0
    7.6919  -15.4410   26.6400 C   0  0  0  0  0  0  0  0  0  0  0  0
    6.6003  -15.8748   25.9094 C   0  0  0  0  0  0  0  0  0  0  0  0
    5.9477  -14.8192   25.3918 N   0  0  0  0  0  0  0  0  0  0  0  0
    6.6123  -13.7063   25.7844 C   0  0  0  0  0  0  0  0  0  0  0  0
    6.3491  -12.3801   25.5209 C   0  0  0  0  0  0  0  0  0  0  0  0
    7.1729  -11.4220   26.0338 C   0  0  0  0  0  0  0  0  0  0  0  0
    8.2659  -11.7538   26.8122 C   0  0  0  0  0  0  0  0  0  0  0  0
    8.5374  -13.0794   27.0816 C   0  0  0  0  0  0  0  0  0  0  0  0
    7.7014  -14.0447   26.5607 C   0  0  0  0  0  0  0  0  0  0  0  0
   10.5361  -17.7764   26.9693 C   0  0  0  0  0  0  0  0  0  0  0  0
   11.1617  -17.6551   28.0403 O   0  0  0  0  0  0  0  0  0  0  0  0
   10.5431  -18.9846   26.3117 O   0  0  0  0  0  0  0  0  0  0  0  0
  2  1  1  0
  3  5  1  0
  3  2  1  0
  3  4  1  6
  5  7  1  0
  5  6  1  6
  7  8  2  0
  9 10  1  0
 11 10  1  6
 11 13  1  0
 12 11  1  0
 12  7  1  0
 13 15  1  0
 13 14  2  0
 15 16  1  0
 16 27  1  0
 16 17  1  1
 18 17  1  0
 19 18  2  0
 20 19  1  0
 21 20  1  0
 21 26  2  0
 22 21  1  0
 23 22  2  0
 23 24  1  0
 24 25  2  0
 25 26  1  0
 26 18  1  0
 27 28  2  0
 27 29  1  0
M  END
$$$$
