ISW.pdb
     RDKit          3D

 29 30  0  0  1  0  0  0  0  0999 V2000
    8.0469  -11.6217   19.4046 C   0  0  0  0  0  0  0  0  0  0  0  0
    8.0824  -13.1022   19.1416 C   0  0  0  0  0  0  0  0  0  0  0  0
    8.1158  -13.9263   20.3957 C   0  0  2  0  0  0  0  0  0  0  0  0
    9.2871  -13.4966   21.2160 C   0  0  0  0  0  0  0  0  0  0  0  0
    8.1635  -15.4079   20.1333 C   0  0  2  0  0  0  0  0  0  0  0  0
    6.9807  -15.7465   19.3640 N   0  0  0  0  0  0  0  0  0  0  0  0
    8.2322  -16.2280   21.3442 C   0  0  0  0  0  0  0  0  0  0  0  0
    7.2390  -16.5158   22.0618 O   0  0  0  0  0  0  0  0  0  0  0  0
   10.7723  -19.4480   23.8018 O   0  0  0  0  0  0  0  0  0  0  0  0
   10.6626  -18.6015   22.7052 C   0  0  0  0  0  0  0  0  0  0  0  0
    9.5718  -17.5755   22.9632 C   0  0  2  0  0  0  0  0  0  0  0  0
    9.4862  -16.7494   21.7661 N   0  0  0  0  0  0  0  0  0  0  0  0
   10.0013  -16.7418   24.1346 C   0  0  0  0  0  0  0  0  0  0  0  0
   10.8123  -15.8114   23.9116 O   0  0  0  0  0  0  0  0  0  0  0  0
    9.5373  -16.9634   25.4387 N   0  0  0  0  0  0  0  0  0  0  0  0
   10.1041  -16.1673   26.5361 C   0  0  1  0  0  0  0  0  0  0  0  0
    9.0111  -15.8174   27.5213 C   0  0  0  0  0  0  0  0  0  0  0  0
    7.8571  -15.2769   26.7705 C   0  0  0  0  0  0  0  0  0  0  0  0
    6.8068  -15.9764   26.2037 C   0  0  0  0  0  0  0  0  0  0  0  0
    5.9616  -15.1226   25.5999 N   0  0  0  0  0  0  0  0  0  0  0  0
    6.4608  -13.8756   25.7738 C   0  0  0  0  0  0  0  0  0  0  0  0
    5.9711  -12.6600   25.3493 C   0  0  0  0  0  0  0  0  0  0  0  0
    6.6594  -11.5219   25.6502 C   0  0  0  0  0  0  0  0  0  0  0  0
    7.8376  -11.5627   26.3719 C   0  0  0  0  0  0  0  0  0  0  0  0
    8.3358  -12.7756   26.8014 C   0  0  0  0  0  0  0  0  0  0  0  0
    7.6361  -13.9238   26.4947 C   0  0  0  0  0  0  0  0  0  0  0  0
   11.1192  -16.9814   27.2219 C   0  0  0  0  0  0  0  0  0  0  0  0
   11.7717  -16.5003   28.1684 O   0  0  0  0  0  0  0  0  0  0  0  0
   11.3544  -18.2771   26.8241 O   0  0  0  0  0  0  0  0  0  0  0  0
  2  1  1  0
  3  5  1  0
  3  2  1  0
  3  4  1  6
  5  7  1  0
  5  6  1  1
  7  8  2  0
  9 10  1  0
 11 10  1  6
 11 13  1  0
 12 11  1  0
 12  7  1  0
 13 15  1  0
 13 14  2  0
 15 16  1  0
 16 27  1  0
 16 17  1  1
 18 17  1  0
 19 18  2  0
 20 19  1  0
 21 20  1  0
 21 26  2  0
 22 21  1  0
 23 22  2  0
 23 24  1  0
 24 25  2  0
 25 26  1  0
 26 18  1  0
 27 28  2  0
 27 29  1  0
M  END
$$$$
