ISW.pdb
     RDKit          3D

 29 30  0  0  1  0  0  0  0  0999 V2000
    7.5083  -22.9577   23.1373 C   0  0  0  0  0  0  0  0  0  0  0  0
    6.9179  -21.8487   22.3103 C   0  0  0  0  0  0  0  0  0  0  0  0
    7.8124  -20.6482   22.2036 C   0  0  2  0  0  0  0  0  0  0  0  0
    8.1466  -20.1801   23.5815 C   0  0  0  0  0  0  0  0  0  0  0  0
    7.2145  -19.5306   21.3913 C   0  0  2  0  0  0  0  0  0  0  0  0
    6.8933  -20.0734   20.0844 N   0  0  0  0  0  0  0  0  0  0  0  0
    8.0829  -18.3599   21.2540 C   0  0  0  0  0  0  0  0  0  0  0  0
    9.2214  -18.3817   20.7181 O   0  0  0  0  0  0  0  0  0  0  0  0
    6.4227  -14.8647   22.1843 O   0  0  0  0  0  0  0  0  0  0  0  0
    7.5035  -14.7573   21.3174 C   0  0  0  0  0  0  0  0  0  0  0  0
    8.4626  -15.9113   21.5566 C   0  0  2  0  0  0  0  0  0  0  0  0
    7.6431  -17.1007   21.7474 N   0  0  0  0  0  0  0  0  0  0  0  0
    9.2317  -15.6094   22.8093 C   0  0  0  0  0  0  0  0  0  0  0  0
   10.0261  -14.6393   22.7767 O   0  0  0  0  0  0  0  0  0  0  0  0
    9.0948  -16.3579   23.9866 N   0  0  0  0  0  0  0  0  0  0  0  0
    9.9627  -16.0432   25.1299 C   0  0  1  0  0  0  0  0  0  0  0  0
    9.1398  -16.0326   26.3990 C   0  0  0  0  0  0  0  0  0  0  0  0
    7.8565  -15.3518   26.1212 C   0  0  0  0  0  0  0  0  0  0  0  0
    6.6440  -15.9255   25.7831 C   0  0  0  0  0  0  0  0  0  0  0  0
    5.7185  -14.9667   25.6039 N   0  0  0  0  0  0  0  0  0  0  0  0
    6.3272  -13.7770   25.8245 C   0  0  0  0  0  0  0  0  0  0  0  0
    5.8168  -12.4988   25.7683 C   0  0  0  0  0  0  0  0  0  0  0  0
    6.6356  -11.4414   26.0348 C   0  0  0  0  0  0  0  0  0  0  0  0
    7.9665  -11.6255   26.3598 C   0  0  0  0  0  0  0  0  0  0  0  0
    8.4866  -12.9020   26.4186 C   0  0  0  0  0  0  0  0  0  0  0  0
    7.6546  -13.9682   26.1484 C   0  0  0  0  0  0  0  0  0  0  0  0
   10.9867  -17.0937   25.2363 C   0  0  0  0  0  0  0  0  0  0  0  0
   11.9035  -16.9908   26.0743 O   0  0  0  0  0  0  0  0  0  0  0  0
   10.9392  -18.1951   24.4135 O   0  0  0  0  0  0  0  0  0  0  0  0
  2  1  1  0
  3  5  1  0
  3  2  1  0
  3  4  1  1
  5  7  1  0
  5  6  1  6
  7  8  2  0
  9 10  1  0
 11 10  1  1
 11 13  1  0
 12 11  1  0
 12  7  1  0
 13 15  1  0
 13 14  2  0
 15 16  1  0
 16 27  1  0
 16 17  1  1
 18 17  1  0
 19 18  2  0
 20 19  1  0
 21 20  1  0
 21 26  2  0
 22 21  1  0
 23 22  2  0
 23 24  1  0
 24 25  2  0
 25 26  1  0
 26 18  1  0
 27 28  2  0
 27 29  1  0
M  END
$$$$
