ISW.pdb
     RDKit          3D

 29 30  0  0  1  0  0  0  0  0999 V2000
    7.7757  -11.6456   19.1299 C   0  0  0  0  0  0  0  0  0  0  0  0
    8.0781  -13.0757   18.7755 C   0  0  0  0  0  0  0  0  0  0  0  0
    8.2062  -13.9693   19.9747 C   0  0  2  0  0  0  0  0  0  0  0  0
    9.3615  -13.5002   20.7961 C   0  0  0  0  0  0  0  0  0  0  0  0
    8.3604  -15.4240   19.6194 C   0  0  2  0  0  0  0  0  0  0  0  0
    7.2476  -15.7762   18.7574 N   0  0  0  0  0  0  0  0  0  0  0  0
    8.4089  -16.3204   20.7759 C   0  0  0  0  0  0  0  0  0  0  0  0
    7.4237  -16.5743   21.5168 O   0  0  0  0  0  0  0  0  0  0  0  0
   11.9166  -18.2600   21.5158 O   0  0  0  0  0  0  0  0  0  0  0  0
   10.7614  -18.8792   21.9774 C   0  0  0  0  0  0  0  0  0  0  0  0
    9.7089  -17.8267   22.2833 C   0  0  2  0  0  0  0  0  0  0  0  0
    9.6322  -16.9626   21.1128 N   0  0  0  0  0  0  0  0  0  0  0  0
   10.1835  -17.0430   23.4718 C   0  0  0  0  0  0  0  0  0  0  0  0
   11.1339  -16.2446   23.2918 O   0  0  0  0  0  0  0  0  0  0  0  0
    9.6133  -17.1708   24.7460 N   0  0  0  0  0  0  0  0  0  0  0  0
   10.3517  -16.6536   25.9065 C   0  0  1  0  0  0  0  0  0  0  0  0
   10.0201  -15.1909   26.1033 C   0  0  0  0  0  0  0  0  0  0  0  0
    8.5493  -15.0358   26.0830 C   0  0  0  0  0  0  0  0  0  0  0  0
    7.5903  -16.0251   25.9600 C   0  0  0  0  0  0  0  0  0  0  0  0
    6.3627  -15.4768   25.9774 N   0  0  0  0  0  0  0  0  0  0  0  0
    6.5242  -14.1387   26.1110 C   0  0  0  0  0  0  0  0  0  0  0  0
    5.5813  -13.1369   26.1808 C   0  0  0  0  0  0  0  0  0  0  0  0
    5.9913  -11.8435   26.3176 C   0  0  0  0  0  0  0  0  0  0  0  0
    7.3326  -11.5171   26.3875 C   0  0  0  0  0  0  0  0  0  0  0  0
    8.2843  -12.5136   26.3186 C   0  0  0  0  0  0  0  0  0  0  0  0
    7.8648  -13.8201   26.1804 C   0  0  0  0  0  0  0  0  0  0  0  0
    9.9239  -17.4022   27.0982 C   0  0  0  0  0  0  0  0  0  0  0  0
    9.0015  -18.2361   27.0150 O   0  0  0  0  0  0  0  0  0  0  0  0
   10.5383  -17.1877   28.3101 O   0  0  0  0  0  0  0  0  0  0  0  0
  2  1  1  0
  3  5  1  0
  3  2  1  0
  3  4  1  6
  5  7  1  0
  5  6  1  6
  7  8  2  0
  9 10  1  0
 11 10  1  6
 11 13  1  0
 12 11  1  0
 12  7  1  0
 13 15  1  0
 13 14  2  0
 15 16  1  0
 16 27  1  0
 16 17  1  1
 18 17  1  0
 19 18  2  0
 20 19  1  0
 21 20  1  0
 21 26  2  0
 22 21  1  0
 23 22  2  0
 23 24  1  0
 24 25  2  0
 25 26  1  0
 26 18  1  0
 27 28  2  0
 27 29  1  0
M  END
$$$$
