ISW.pdb
     RDKit          3D

 29 30  0  0  1  0  0  0  0  0999 V2000
    8.1703  -11.8332   18.9634 C   0  0  0  0  0  0  0  0  0  0  0  0
    8.0102  -13.3176   18.7804 C   0  0  0  0  0  0  0  0  0  0  0  0
    8.3070  -14.1036   20.0242 C   0  0  2  0  0  0  0  0  0  0  0  0
    9.7270  -13.8575   20.4147 C   0  0  0  0  0  0  0  0  0  0  0  0
    8.0434  -15.5780   19.8737 C   0  0  2  0  0  0  0  0  0  0  0  0
    6.6631  -15.7269   19.4515 N   0  0  0  0  0  0  0  0  0  0  0  0
    8.2881  -16.3566   21.0892 C   0  0  0  0  0  0  0  0  0  0  0  0
    7.5604  -16.3153   22.1152 O   0  0  0  0  0  0  0  0  0  0  0  0
   11.9013  -18.2483   21.5714 O   0  0  0  0  0  0  0  0  0  0  0  0
   10.7966  -18.9710   22.0055 C   0  0  0  0  0  0  0  0  0  0  0  0
    9.6666  -18.0144   22.3474 C   0  0  2  0  0  0  0  0  0  0  0  0
    9.4120  -17.2260   21.1489 N   0  0  0  0  0  0  0  0  0  0  0  0
   10.1458  -17.1248   23.4569 C   0  0  0  0  0  0  0  0  0  0  0  0
   10.9117  -16.1810   23.1471 O   0  0  0  0  0  0  0  0  0  0  0  0
    9.7747  -17.3095   24.7960 N   0  0  0  0  0  0  0  0  0  0  0  0
   10.3779  -16.4481   25.8224 C   0  0  1  0  0  0  0  0  0  0  0  0
    9.9353  -15.0184   25.6038 C   0  0  0  0  0  0  0  0  0  0  0  0
    8.4933  -14.9197   25.9175 C   0  0  0  0  0  0  0  0  0  0  0  0
    7.5478  -15.9294   25.9035 C   0  0  0  0  0  0  0  0  0  0  0  0
    6.3445  -15.4339   26.2417 N   0  0  0  0  0  0  0  0  0  0  0  0
    6.5082  -14.1096   26.4739 C   0  0  0  0  0  0  0  0  0  0  0  0
    5.5862  -13.1569   26.8480 C   0  0  0  0  0  0  0  0  0  0  0  0
    5.9937  -11.8677   27.0251 C   0  0  0  0  0  0  0  0  0  0  0  0
    7.3121  -11.4972   26.8370 C   0  0  0  0  0  0  0  0  0  0  0  0
    8.2427  -12.4444   26.4624 C   0  0  0  0  0  0  0  0  0  0  0  0
    7.8257  -13.7469   26.2846 C   0  0  0  0  0  0  0  0  0  0  0  0
    9.9026  -16.8964   27.1403 C   0  0  0  0  0  0  0  0  0  0  0  0
   10.1871  -16.2436   28.1630 O   0  0  0  0  0  0  0  0  0  0  0  0
    9.1416  -18.0369   27.2524 O   0  0  0  0  0  0  0  0  0  0  0  0
  2  1  1  0
  3  5  1  0
  3  2  1  0
  3  4  1  6
  5  7  1  0
  5  6  1  1
  7  8  2  0
  9 10  1  0
 11 10  1  6
 11 13  1  0
 12 11  1  0
 12  7  1  0
 13 15  1  0
 13 14  2  0
 15 16  1  0
 16 27  1  0
 16 17  1  6
 18 17  1  0
 19 18  2  0
 20 19  1  0
 21 20  1  0
 21 26  2  0
 22 21  1  0
 23 22  2  0
 23 24  1  0
 24 25  2  0
 25 26  1  0
 26 18  1  0
 27 28  2  0
 27 29  1  0
M  END
$$$$
