LNN.pdb
     RDKit          3D

 25 24  0  0  1  0  0  0  0  0999 V2000
   15.1717  -11.5167  -16.9691 C   0  0  0  0  0  0  0  0  0  0  0  0
   15.9144  -12.4543  -16.0718 C   0  0  2  0  0  0  0  0  0  0  0  0
   14.9093  -12.9331  -15.0123 C   0  0  0  0  0  0  0  0  0  0  0  0
   17.0651  -11.8717  -15.3331 C   0  0  0  0  0  0  0  0  0  0  0  0
   18.1906  -11.3465  -16.1673 C   0  0  2  0  0  0  0  0  0  0  0  0
   18.7382  -12.3809  -16.9732 N   0  0  0  0  0  0  0  0  0  0  0  0
   19.1426  -10.6670  -15.2631 C   0  0  0  0  0  0  0  0  0  0  0  0
   19.8976  -11.4250  -14.5645 O   0  0  0  0  0  0  0  0  0  0  0  0
   23.3405   -8.1492  -17.5318 N   0  0  0  0  0  0  0  0  0  0  0  0
   22.7250   -8.7457  -16.3962 C   0  0  0  0  0  0  0  0  0  0  0  0
   23.4489   -8.9239  -15.3726 O   0  0  0  0  0  0  0  0  0  0  0  0
   21.3077   -9.1626  -16.3441 C   0  0  0  0  0  0  0  0  0  0  0  0
   20.6363   -8.7070  -15.0548 C   0  0  2  0  0  0  0  0  0  0  0  0
   19.3003   -9.2838  -15.0957 N   0  0  0  0  0  0  0  0  0  0  0  0
   20.5934   -7.2324  -14.9967 C   0  0  0  0  0  0  0  0  0  0  0  0
   21.6802   -6.6103  -14.9133 O   0  0  0  0  0  0  0  0  0  0  0  0
   21.9873   -2.4165  -15.4486 N   0  0  0  0  0  0  0  0  0  0  0  0
   20.7695   -3.1080  -15.2227 C   0  0  0  0  0  0  0  0  0  0  0  0
   19.8359   -2.5093  -14.6608 O   0  0  0  0  0  0  0  0  0  0  0  0
   20.6361   -4.4894  -15.6485 C   0  0  0  0  0  0  0  0  0  0  0  0
   19.2862   -5.1014  -15.3524 C   0  0  2  0  0  0  0  0  0  0  0  0
   19.3804   -6.4998  -15.0313 N   0  0  0  0  0  0  0  0  0  0  0  0
   18.3259   -4.8726  -16.4626 C   0  0  0  0  0  0  0  0  0  0  0  0
   17.9321   -3.7184  -16.7503 O   0  0  0  0  0  0  0  0  0  0  0  0
   17.8324   -5.9264  -17.2185 O   0  0  0  0  0  0  0  0  0  0  0  0
  2  1  1  6
  3  2  1  0
  4  2  1  0
  4  5  1  0
  5  6  1  1
  7  5  1  0
  7  8  2  0
 10 12  1  0
 10  9  1  0
 11 10  2  0
 13 12  1  6
 13 14  1  0
 14  7  1  0
 15 13  1  0
 16 15  2  0
 18 17  1  0
 19 18  2  0
 20 18  1  0
 21 20  1  6
 21 22  1  0
 22 15  1  0
 23 21  1  0
 24 23  2  0
 25 23  1  0
M  END
$$$$
