LNN.pdb
     RDKit          3D

 25 24  0  0  1  0  0  0  0  0999 V2000
   16.5975  -13.1528  -16.2048 C   0  0  0  0  0  0  0  0  0  0  0  0
   18.0696  -12.8900  -16.2007 C   0  0  2  0  0  0  0  0  0  0  0  0
   18.7490  -14.2163  -15.8248 C   0  0  0  0  0  0  0  0  0  0  0  0
   18.5458  -11.8767  -15.2231 C   0  0  0  0  0  0  0  0  0  0  0  0
   17.9516  -10.5090  -15.3439 C   0  0  2  0  0  0  0  0  0  0  0  0
   18.1814   -9.9787  -16.6421 N   0  0  0  0  0  0  0  0  0  0  0  0
   18.4618   -9.6952  -14.2200 C   0  0  0  0  0  0  0  0  0  0  0  0
   18.2824  -10.1737  -13.0488 O   0  0  0  0  0  0  0  0  0  0  0  0
   20.9698   -6.4392  -11.0185 N   0  0  0  0  0  0  0  0  0  0  0  0
   21.3308   -6.2055  -12.3747 C   0  0  0  0  0  0  0  0  0  0  0  0
   22.2400   -5.3514  -12.5925 O   0  0  0  0  0  0  0  0  0  0  0  0
   20.7135   -6.8943  -13.5279 C   0  0  0  0  0  0  0  0  0  0  0  0
   19.5539   -7.7824  -13.0953 C   0  0  2  0  0  0  0  0  0  0  0  0
   19.1188   -8.4597  -14.3084 N   0  0  0  0  0  0  0  0  0  0  0  0
   18.4748   -6.9621  -12.5104 C   0  0  0  0  0  0  0  0  0  0  0  0
   17.7900   -6.2461  -13.2808 O   0  0  0  0  0  0  0  0  0  0  0  0
   14.9808   -5.0288   -9.1794 N   0  0  0  0  0  0  0  0  0  0  0  0
   15.7207   -6.0018   -8.4595 C   0  0  0  0  0  0  0  0  0  0  0  0
   15.4126   -6.2352   -7.2778 O   0  0  0  0  0  0  0  0  0  0  0  0
   16.8139   -6.7015   -9.1096 C   0  0  0  0  0  0  0  0  0  0  0  0
   17.0795   -6.2536  -10.5285 C   0  0  2  0  0  0  0  0  0  0  0  0
   18.1863   -6.9534  -11.1226 N   0  0  0  0  0  0  0  0  0  0  0  0
   17.2719   -4.7828  -10.6115 C   0  0  0  0  0  0  0  0  0  0  0  0
   18.2986   -4.2370  -10.1445 O   0  0  0  0  0  0  0  0  0  0  0  0
   16.3238   -3.9636  -11.2077 O   0  0  0  0  0  0  0  0  0  0  0  0
  2  1  1  1
  3  2  1  0
  4  2  1  0
  4  5  1  0
  5  6  1  6
  7  5  1  0
  7  8  2  0
 10 12  1  0
 10  9  1  0
 11 10  2  0
 13 12  1  6
 13 14  1  0
 14  7  1  0
 15 13  1  0
 16 15  2  0
 18 17  1  0
 19 18  2  0
 20 18  1  0
 21 20  1  1
 21 22  1  0
 22 15  1  0
 23 21  1  0
 24 23  2  0
 25 23  1  0
M  END
$$$$
