LNN.pdb
     RDKit          3D

 25 24  0  0  1  0  0  0  0  0999 V2000
   16.5216  -12.9923  -10.6558 C   0  0  0  0  0  0  0  0  0  0  0  0
   16.3357  -12.1718  -11.8920 C   0  0  2  0  0  0  0  0  0  0  0  0
   17.5384  -12.4723  -12.8006 C   0  0  0  0  0  0  0  0  0  0  0  0
   16.3089  -10.6987  -11.6961 C   0  0  0  0  0  0  0  0  0  0  0  0
   15.1808  -10.1601  -10.8742 C   0  0  2  0  0  0  0  0  0  0  0  0
   13.9311  -10.5099  -11.4532 N   0  0  0  0  0  0  0  0  0  0  0  0
   15.4147   -8.7131  -10.6813 C   0  0  0  0  0  0  0  0  0  0  0  0
   15.2186   -7.9681  -11.7007 O   0  0  0  0  0  0  0  0  0  0  0  0
   13.2063   -6.2869   -8.9380 N   0  0  0  0  0  0  0  0  0  0  0  0
   14.1491   -6.0637   -7.8962 C   0  0  0  0  0  0  0  0  0  0  0  0
   13.6929   -5.7105   -6.7689 O   0  0  0  0  0  0  0  0  0  0  0  0
   15.6108   -6.2191   -8.0528 C   0  0  0  0  0  0  0  0  0  0  0  0
   15.9819   -6.6320   -9.4714 C   0  0  2  0  0  0  0  0  0  0  0  0
   15.8271   -8.0793   -9.5005 N   0  0  0  0  0  0  0  0  0  0  0  0
   17.3681   -6.2244   -9.7743 C   0  0  0  0  0  0  0  0  0  0  0  0
   18.2685   -6.5294   -8.9549 O   0  0  0  0  0  0  0  0  0  0  0  0
   21.5550   -5.4499  -12.6787 N   0  0  0  0  0  0  0  0  0  0  0  0
   20.9331   -6.7052  -12.4555 C   0  0  0  0  0  0  0  0  0  0  0  0
   21.5135   -7.7372  -12.8347 O   0  0  0  0  0  0  0  0  0  0  0  0
   19.6422   -6.7618  -11.7939 C   0  0  0  0  0  0  0  0  0  0  0  0
   19.0522   -5.4085  -11.4699 C   0  0  2  0  0  0  0  0  0  0  0  0
   17.7166   -5.5076  -10.9465 N   0  0  0  0  0  0  0  0  0  0  0  0
   19.0997   -4.4958  -12.6412 C   0  0  0  0  0  0  0  0  0  0  0  0
   20.1671   -3.9348  -12.9818 O   0  0  0  0  0  0  0  0  0  0  0  0
   17.9665   -4.2331  -13.3977 O   0  0  0  0  0  0  0  0  0  0  0  0
  2  1  1  1
  3  2  1  0
  4  2  1  0
  4  5  1  0
  5  6  1  6
  7  5  1  0
  7  8  2  0
 10 12  1  0
 10  9  1  0
 11 10  2  0
 13 12  1  1
 13 14  1  0
 14  7  1  0
 15 13  1  0
 16 15  2  0
 18 17  1  0
 19 18  2  0
 20 18  1  0
 21 20  1  6
 21 22  1  0
 22 15  1  0
 23 21  1  0
 24 23  2  0
 25 23  1  0
M  END
$$$$
