LNN.pdb
     RDKit          3D

 25 24  0  0  1  0  0  0  0  0999 V2000
   25.1538  -24.7983  -17.4272 C   0  0  0  0  0  0  0  0  0  0  0  0
   25.9293  -23.7490  -16.6967 C   0  0  2  0  0  0  0  0  0  0  0  0
   27.1073  -24.4681  -16.0203 C   0  0  0  0  0  0  0  0  0  0  0  0
   25.1966  -23.0301  -15.6217 C   0  0  0  0  0  0  0  0  0  0  0  0
   23.9609  -22.2968  -16.0383 C   0  0  2  0  0  0  0  0  0  0  0  0
   24.2987  -21.1303  -16.7763 N   0  0  0  0  0  0  0  0  0  0  0  0
   23.1398  -22.0744  -14.8292 C   0  0  0  0  0  0  0  0  0  0  0  0
   23.5258  -21.1397  -14.0481 O   0  0  0  0  0  0  0  0  0  0  0  0
   22.3226  -18.9508  -13.7325 N   0  0  0  0  0  0  0  0  0  0  0  0
   21.4113  -19.8390  -13.0962 C   0  0  0  0  0  0  0  0  0  0  0  0
   21.2220  -19.6816  -11.8540 O   0  0  0  0  0  0  0  0  0  0  0  0
   20.6826  -20.9197  -13.7935 C   0  0  0  0  0  0  0  0  0  0  0  0
   21.1666  -22.2960  -13.3549 C   0  0  2  0  0  0  0  0  0  0  0  0
   21.9875  -22.7804  -14.4553 N   0  0  0  0  0  0  0  0  0  0  0  0
   20.0147  -23.1836  -13.1004 C   0  0  0  0  0  0  0  0  0  0  0  0
   19.2628  -23.4705  -14.0635 O   0  0  0  0  0  0  0  0  0  0  0  0
   18.1592  -27.6862  -10.0566 N   0  0  0  0  0  0  0  0  0  0  0  0
   17.8191  -26.3175   -9.9037 C   0  0  0  0  0  0  0  0  0  0  0  0
   16.6706  -26.0237   -9.5292 O   0  0  0  0  0  0  0  0  0  0  0  0
   18.8094  -25.2938  -10.1842 C   0  0  0  0  0  0  0  0  0  0  0  0
   18.6758  -24.6601  -11.5498 C   0  0  2  0  0  0  0  0  0  0  0  0
   19.7292  -23.7191  -11.8194 N   0  0  0  0  0  0  0  0  0  0  0  0
   17.3412  -24.0340  -11.7347 C   0  0  0  0  0  0  0  0  0  0  0  0
   16.3405  -24.7223  -12.0427 O   0  0  0  0  0  0  0  0  0  0  0  0
   17.1562  -22.6683  -11.5731 O   0  0  0  0  0  0  0  0  0  0  0  0
  2  1  1  1
  3  2  1  0
  4  2  1  0
  4  5  1  0
  5  6  1  1
  7  5  1  0
  7  8  2  0
 10 12  1  0
 10  9  1  0
 11 10  2  0
 13 12  1  6
 13 14  1  0
 14  7  1  0
 15 13  1  0
 16 15  2  0
 18 17  1  0
 19 18  2  0
 20 18  1  0
 21 20  1  1
 21 22  1  0
 22 15  1  0
 23 21  1  0
 24 23  2  0
 25 23  1  0
M  END
$$$$
