LNN.pdb
     RDKit          3D

 25 24  0  0  1  0  0  0  0  0999 V2000
   11.7017  -10.6357  -10.5557 C   0  0  0  0  0  0  0  0  0  0  0  0
   12.2033   -9.8944   -9.3578 C   0  0  2  0  0  0  0  0  0  0  0  0
   10.9751   -9.2459   -8.6996 C   0  0  0  0  0  0  0  0  0  0  0  0
   13.1683   -8.7972   -9.6299 C   0  0  0  0  0  0  0  0  0  0  0  0
   14.4737   -9.1993  -10.2404 C   0  0  2  0  0  0  0  0  0  0  0  0
   15.1157  -10.1831   -9.4408 N   0  0  0  0  0  0  0  0  0  0  0  0
   15.2529   -7.9678  -10.4894 C   0  0  0  0  0  0  0  0  0  0  0  0
   14.8783   -7.2526  -11.4798 O   0  0  0  0  0  0  0  0  0  0  0  0
   15.2594   -4.0544  -10.2047 N   0  0  0  0  0  0  0  0  0  0  0  0
   16.0417   -4.2967   -9.0413 C   0  0  0  0  0  0  0  0  0  0  0  0
   15.8784   -3.5124   -8.0606 O   0  0  0  0  0  0  0  0  0  0  0  0
   17.0203   -5.3973   -8.9141 C   0  0  0  0  0  0  0  0  0  0  0  0
   17.0320   -6.2831  -10.1534 C   0  0  2  0  0  0  0  0  0  0  0  0
   16.3542   -7.5080   -9.7535 N   0  0  0  0  0  0  0  0  0  0  0  0
   18.4210   -6.5418  -10.5813 C   0  0  0  0  0  0  0  0  0  0  0  0
   19.0361   -7.4993  -10.0522 O   0  0  0  0  0  0  0  0  0  0  0  0
   21.8217   -7.0532  -14.7409 N   0  0  0  0  0  0  0  0  0  0  0  0
   21.4712   -7.8075  -13.5917 C   0  0  0  0  0  0  0  0  0  0  0  0
   22.2026   -8.7529  -13.2496 O   0  0  0  0  0  0  0  0  0  0  0  0
   20.2761   -7.4649  -12.8424 C   0  0  0  0  0  0  0  0  0  0  0  0
   20.3291   -6.1085  -12.1776 C   0  0  2  0  0  0  0  0  0  0  0  0
   19.0798   -5.7553  -11.5594 N   0  0  0  0  0  0  0  0  0  0  0  0
   20.7737   -5.0524  -13.1232 C   0  0  0  0  0  0  0  0  0  0  0  0
   19.9504   -4.4375  -13.8404 O   0  0  0  0  0  0  0  0  0  0  0  0
   22.1129   -4.7102  -13.2453 O   0  0  0  0  0  0  0  0  0  0  0  0
  2  1  1  6
  3  2  1  0
  4  2  1  0
  4  5  1  0
  5  6  1  1
  7  5  1  0
  7  8  2  0
 10 12  1  0
 10  9  1  0
 11 10  2  0
 13 12  1  1
 13 14  1  0
 14  7  1  0
 15 13  1  0
 16 15  2  0
 18 17  1  0
 19 18  2  0
 20 18  1  0
 21 20  1  6
 21 22  1  0
 22 15  1  0
 23 21  1  0
 24 23  2  0
 25 23  1  0
M  END
$$$$
