LNN.pdb
     RDKit          3D

 25 24  0  0  1  0  0  0  0  0999 V2000
   19.6814  -14.1356  -17.0750 C   0  0  0  0  0  0  0  0  0  0  0  0
   18.2721  -13.6771  -17.2741 C   0  0  2  0  0  0  0  0  0  0  0  0
   17.8792  -14.0812  -18.7039 C   0  0  0  0  0  0  0  0  0  0  0  0
   18.0447  -12.2120  -17.1691 C   0  0  0  0  0  0  0  0  0  0  0  0
   18.3353  -11.5900  -15.8398 C   0  0  2  0  0  0  0  0  0  0  0  0
   17.7854  -12.3756  -14.7911 N   0  0  0  0  0  0  0  0  0  0  0  0
   17.8823  -10.1836  -15.8917 C   0  0  0  0  0  0  0  0  0  0  0  0
   18.1697   -9.5364  -16.9553 O   0  0  0  0  0  0  0  0  0  0  0  0
   13.6626   -7.9151  -16.3452 N   0  0  0  0  0  0  0  0  0  0  0  0
   14.3967   -8.5851  -15.3272 C   0  0  0  0  0  0  0  0  0  0  0  0
   14.1363   -9.8096  -15.1368 O   0  0  0  0  0  0  0  0  0  0  0  0
   15.4324   -7.9418  -14.4913 C   0  0  0  0  0  0  0  0  0  0  0  0
   16.8200   -8.0949  -15.1012 C   0  0  2  0  0  0  0  0  0  0  0  0
   17.1737   -9.4925  -14.8986 N   0  0  0  0  0  0  0  0  0  0  0  0
   17.7731   -7.1874  -14.4324 C   0  0  0  0  0  0  0  0  0  0  0  0
   18.1553   -7.4784  -13.2729 O   0  0  0  0  0  0  0  0  0  0  0  0
   21.8180   -4.0896  -13.8383 N   0  0  0  0  0  0  0  0  0  0  0  0
   21.8480   -5.4919  -14.0499 C   0  0  0  0  0  0  0  0  0  0  0  0
   22.9205   -6.0995  -13.8876 O   0  0  0  0  0  0  0  0  0  0  0  0
   20.6369   -6.1863  -14.4478 C   0  0  0  0  0  0  0  0  0  0  0  0
   19.4301   -5.2892  -14.6003 C   0  0  2  0  0  0  0  0  0  0  0  0
   18.2684   -6.0097  -15.0463 N   0  0  0  0  0  0  0  0  0  0  0  0
   19.7154   -4.1340  -15.4899 C   0  0  0  0  0  0  0  0  0  0  0  0
   19.6607   -4.2481  -16.7365 O   0  0  0  0  0  0  0  0  0  0  0  0
   20.0516   -2.8909  -14.9730 O   0  0  0  0  0  0  0  0  0  0  0  0
  2  1  1  6
  3  2  1  0
  4  2  1  0
  4  5  1  0
  5  6  1  1
  7  5  1  0
  7  8  2  0
 10 12  1  0
 10  9  1  0
 11 10  2  0
 13 12  1  1
 13 14  1  0
 14  7  1  0
 15 13  1  0
 16 15  2  0
 18 17  1  0
 19 18  2  0
 20 18  1  0
 21 20  1  6
 21 22  1  0
 22 15  1  0
 23 21  1  0
 24 23  2  0
 25 23  1  0
M  END
$$$$
