LNN.pdb
     RDKit          3D

 25 24  0  0  1  0  0  0  0  0999 V2000
   28.0919  -20.6102  -14.8773 C   0  0  0  0  0  0  0  0  0  0  0  0
   27.1571  -19.7423  -15.6576 C   0  0  2  0  0  0  0  0  0  0  0  0
   27.8947  -18.4166  -15.9039 C   0  0  0  0  0  0  0  0  0  0  0  0
   25.8769  -19.3976  -14.9855 C   0  0  0  0  0  0  0  0  0  0  0  0
   25.0134  -20.5483  -14.5749 C   0  0  2  0  0  0  0  0  0  0  0  0
   25.0043  -21.5492  -15.5837 N   0  0  0  0  0  0  0  0  0  0  0  0
   23.6904  -20.0068  -14.1980 C   0  0  0  0  0  0  0  0  0  0  0  0
   23.6813  -19.1397  -13.2595 O   0  0  0  0  0  0  0  0  0  0  0  0
   19.0372  -18.0277  -13.6237 N   0  0  0  0  0  0  0  0  0  0  0  0
   19.7710  -17.7926  -14.8197 C   0  0  0  0  0  0  0  0  0  0  0  0
   19.3900  -16.8331  -15.5531 O   0  0  0  0  0  0  0  0  0  0  0  0
   20.9371  -18.5935  -15.2485 C   0  0  0  0  0  0  0  0  0  0  0  0
   21.2350  -19.7200  -14.2672 C   0  0  2  0  0  0  0  0  0  0  0  0
   22.4525  -20.3457  -14.7626 N   0  0  0  0  0  0  0  0  0  0  0  0
   20.1078  -20.6725  -14.2281 C   0  0  0  0  0  0  0  0  0  0  0  0
   19.9606  -21.4573  -15.1964 O   0  0  0  0  0  0  0  0  0  0  0  0
   19.4254  -23.9038  -12.3734 N   0  0  0  0  0  0  0  0  0  0  0  0
   18.5628  -23.3420  -11.3973 C   0  0  0  0  0  0  0  0  0  0  0  0
   18.4794  -23.8904  -10.2846 O   0  0  0  0  0  0  0  0  0  0  0  0
   17.8005  -22.1474  -11.7121 C   0  0  0  0  0  0  0  0  0  0  0  0
   18.0487  -21.6016  -13.0995 C   0  0  2  0  0  0  0  0  0  0  0  0
   19.1936  -20.7329  -13.1465 N   0  0  0  0  0  0  0  0  0  0  0  0
   16.8436  -20.9259  -13.6457 C   0  0  0  0  0  0  0  0  0  0  0  0
   16.2102  -21.4129  -14.6110 O   0  0  0  0  0  0  0  0  0  0  0  0
   16.3781  -19.7346  -13.1077 O   0  0  0  0  0  0  0  0  0  0  0  0
  2  1  1  1
  3  2  1  0
  4  2  1  0
  4  5  1  0
  5  6  1  6
  7  5  1  0
  7  8  2  0
 10 12  1  0
 10  9  1  0
 11 10  2  0
 13 12  1  6
 13 14  1  0
 14  7  1  0
 15 13  1  0
 16 15  2  0
 18 17  1  0
 19 18  2  0
 20 18  1  0
 21 20  1  1
 21 22  1  0
 22 15  1  0
 23 21  1  0
 24 23  2  0
 25 23  1  0
M  END
$$$$
