LNN.pdb
     RDKit          3D

 25 24  0  0  1  0  0  0  0  0999 V2000
   18.6212  -12.1622  -20.0723 C   0  0  0  0  0  0  0  0  0  0  0  0
   18.8508  -12.5539  -18.6476 C   0  0  2  0  0  0  0  0  0  0  0  0
   17.5664  -13.2526  -18.1742 C   0  0  0  0  0  0  0  0  0  0  0  0
   19.1012  -11.4372  -17.6991 C   0  0  0  0  0  0  0  0  0  0  0  0
   20.2879  -10.5740  -17.9904 C   0  0  2  0  0  0  0  0  0  0  0  0
   21.4874  -11.3313  -17.9069 N   0  0  0  0  0  0  0  0  0  0  0  0
   20.2135   -9.3922  -17.1052 C   0  0  0  0  0  0  0  0  0  0  0  0
   19.4008   -9.4726  -16.1225 O   0  0  0  0  0  0  0  0  0  0  0  0
   19.1887   -7.1947  -13.8802 N   0  0  0  0  0  0  0  0  0  0  0  0
   20.3868   -7.9616  -13.8569 C   0  0  0  0  0  0  0  0  0  0  0  0
   20.5787   -8.7045  -12.8495 O   0  0  0  0  0  0  0  0  0  0  0  0
   21.4059   -7.9409  -14.9275 C   0  0  0  0  0  0  0  0  0  0  0  0
   20.9030   -7.2106  -16.1662 C   0  0  2  0  0  0  0  0  0  0  0  0
   20.9399   -8.1998  -17.2337 N   0  0  0  0  0  0  0  0  0  0  0  0
   21.7708   -6.0538  -16.4627 C   0  0  0  0  0  0  0  0  0  0  0  0
   22.9244   -6.0356  -15.9687 O   0  0  0  0  0  0  0  0  0  0  0  0
   22.7077   -5.0657  -21.7929 N   0  0  0  0  0  0  0  0  0  0  0  0
   23.2719   -5.1623  -20.4949 C   0  0  0  0  0  0  0  0  0  0  0  0
   24.4714   -4.8744  -20.3401 O   0  0  0  0  0  0  0  0  0  0  0  0
   22.4459   -5.5909  -19.3808 C   0  0  0  0  0  0  0  0  0  0  0  0
   22.0834   -4.4849  -18.4166 C   0  0  2  0  0  0  0  0  0  0  0  0
   21.3528   -4.9722  -17.2780 N   0  0  0  0  0  0  0  0  0  0  0  0
   21.3454   -3.3879  -19.0942 C   0  0  0  0  0  0  0  0  0  0  0  0
   21.9536   -2.4255  -19.6177 O   0  0  0  0  0  0  0  0  0  0  0  0
   19.9599   -3.3903  -19.1713 O   0  0  0  0  0  0  0  0  0  0  0  0
  2  1  1  6
  3  2  1  0
  4  2  1  0
  4  5  1  0
  5  6  1  1
  7  5  1  0
  7  8  2  0
 10 12  1  0
 10  9  1  0
 11 10  2  0
 13 12  1  1
 13 14  1  0
 14  7  1  0
 15 13  1  0
 16 15  2  0
 18 17  1  0
 19 18  2  0
 20 18  1  0
 21 20  1  6
 21 22  1  0
 22 15  1  0
 23 21  1  0
 24 23  2  0
 25 23  1  0
M  END
$$$$
