LNN.pdb
     RDKit          3D

 25 24  0  0  1  0  0  0  0  0999 V2000
   26.1010  -20.3538   -7.0898 C   0  0  0  0  0  0  0  0  0  0  0  0
   27.0567  -20.7230   -8.1790 C   0  0  2  0  0  0  0  0  0  0  0  0
   28.4484  -20.2684   -7.7116 C   0  0  0  0  0  0  0  0  0  0  0  0
   26.8197  -20.0785   -9.4972 C   0  0  0  0  0  0  0  0  0  0  0  0
   25.9871  -20.8500  -10.4718 C   0  0  2  0  0  0  0  0  0  0  0  0
   26.7139  -21.9612  -10.9780 N   0  0  0  0  0  0  0  0  0  0  0  0
   25.4826  -19.8991  -11.4852 C   0  0  0  0  0  0  0  0  0  0  0  0
   26.0518  -18.7556  -11.5199 O   0  0  0  0  0  0  0  0  0  0  0  0
   27.2001  -22.5516  -15.6072 N   0  0  0  0  0  0  0  0  0  0  0  0
   26.8247  -21.4382  -14.8049 C   0  0  0  0  0  0  0  0  0  0  0  0
   27.3249  -20.3142  -15.1048 O   0  0  0  0  0  0  0  0  0  0  0  0
   25.8962  -21.5181  -13.6574 C   0  0  0  0  0  0  0  0  0  0  0  0
   24.7696  -20.4995  -13.7759 C   0  0  2  0  0  0  0  0  0  0  0  0
   24.4496  -20.1234  -12.4063 N   0  0  0  0  0  0  0  0  0  0  0  0
   23.6095  -21.1009  -14.4628 C   0  0  0  0  0  0  0  0  0  0  0  0
   23.3596  -20.7339  -15.6367 O   0  0  0  0  0  0  0  0  0  0  0  0
   19.4548  -21.4661  -10.8495 N   0  0  0  0  0  0  0  0  0  0  0  0
   20.1529  -20.5286  -11.6534 C   0  0  0  0  0  0  0  0  0  0  0  0
   19.6165  -19.4347  -11.9009 O   0  0  0  0  0  0  0  0  0  0  0  0
   21.4694  -20.8602  -12.1675 C   0  0  0  0  0  0  0  0  0  0  0  0
   21.4538  -21.8016  -13.3498 C   0  0  2  0  0  0  0  0  0  0  0  0
   22.7748  -22.0693  -13.8507 N   0  0  0  0  0  0  0  0  0  0  0  0
   20.5633  -21.3075  -14.4315 C   0  0  0  0  0  0  0  0  0  0  0  0
   20.8687  -20.3006  -15.1120 O   0  0  0  0  0  0  0  0  0  0  0  0
   19.3649  -21.9420  -14.7259 O   0  0  0  0  0  0  0  0  0  0  0  0
  2  1  1  1
  3  2  1  0
  4  2  1  0
  4  5  1  0
  5  6  1  6
  7  5  1  0
  7  8  2  0
 10 12  1  0
 10  9  1  0
 11 10  2  0
 13 12  1  1
 13 14  1  0
 14  7  1  0
 15 13  1  0
 16 15  2  0
 18 17  1  0
 19 18  2  0
 20 18  1  0
 21 20  1  1
 21 22  1  0
 22 15  1  0
 23 21  1  0
 24 23  2  0
 25 23  1  0
M  END
$$$$
