RWH.pdb
     RDKit          3D

 36 38  0  0  1  0  0  0  0  0999 V2000
   27.7082  -27.5999  -18.9310 N   0  0  0  0  0  0  0  0  0  0  0  0
   26.4884  -26.8327  -18.7982 C   0  0  0  0  0  0  0  0  0  0  0  0
   25.4373  -27.4235  -18.3685 N   0  0  0  0  0  0  0  0  0  0  0  0
   26.4626  -25.4640  -19.1465 N   0  0  0  0  0  0  0  0  0  0  0  0
   27.6919  -24.7837  -19.4735 C   0  0  0  0  0  0  0  0  0  0  0  0
   28.4601  -24.3289  -18.2495 C   0  0  0  0  0  0  0  0  0  0  0  0
   27.7470  -23.1948  -17.5714 C   0  0  0  0  0  0  0  0  0  0  0  0
   28.5323  -22.7984  -16.3351 C   0  0  2  0  0  0  0  0  0  0  0  0
   29.4829  -23.8497  -16.0395 N   0  0  0  0  0  0  0  0  0  0  0  0
   27.6535  -22.4323  -15.2187 C   0  0  0  0  0  0  0  0  0  0  0  0
   26.9866  -23.3786  -14.6767 O   0  0  0  0  0  0  0  0  0  0  0  0
   24.5507  -26.8993  -18.2664 N   0  0  0  0  0  0  0  0  0  0  0  0
   27.4582  -21.1452  -14.6686 C   0  0  1  0  0  0  0  0  0  0  0  0
   26.6208  -20.9434  -13.4871 C   0  0  0  0  0  0  0  0  0  0  0  0
   27.2419  -19.8178  -12.6783 C   0  0  0  0  0  0  0  0  0  0  0  0
   28.0906  -20.2918  -11.5873 C   0  0  0  0  0  0  0  0  0  0  0  0
   29.3789  -20.7683  -11.7227 N   0  0  0  0  0  0  0  0  0  0  0  0
   29.8499  -21.1152  -10.4918 C   0  0  0  0  0  0  0  0  0  0  0  0
   28.9192  -20.8833   -9.5533 C   0  0  0  0  0  0  0  0  0  0  0  0
   28.8753  -21.0501   -8.1903 C   0  0  0  0  0  0  0  0  0  0  0  0
   27.7275  -20.7005   -7.5063 C   0  0  0  0  0  0  0  0  0  0  0  0
   26.6236  -20.1882   -8.1506 C   0  0  0  0  0  0  0  0  0  0  0  0
   26.7007  -20.0341   -9.5190 C   0  0  0  0  0  0  0  0  0  0  0  0
   27.8135  -20.3659  -10.2437 C   0  0  0  0  0  0  0  0  0  0  0  0
   25.2306  -20.6918  -13.8365 O   0  0  0  0  0  0  0  0  0  0  0  0
   24.8772  -19.9598  -14.8076 N   0  0  0  0  0  0  0  0  0  0  0  0
   24.1997  -21.2912  -13.0654 C   0  0  1  0  0  0  0  0  0  0  0  0
   22.7652  -21.1045  -13.3684 C   0  0  0  0  0  0  0  0  0  0  0  0
   22.1154  -22.4383  -13.3266 C   0  0  0  0  0  0  0  0  0  0  0  0
   22.2091  -23.2406  -14.5591 C   0  0  0  0  0  0  0  0  0  0  0  0
   22.7562  -23.0176  -15.7840 N   0  0  0  0  0  0  0  0  0  0  0  0
   22.6049  -24.1577  -16.5019 C   0  0  0  0  0  0  0  0  0  0  0  0
   21.9892  -25.0741  -15.7712 N   0  0  0  0  0  0  0  0  0  0  0  0
   21.7418  -24.5301  -14.5842 C   0  0  0  0  0  0  0  0  0  0  0  0
   22.2248  -20.1409  -12.3681 O   0  0  0  0  0  0  0  0  0  0  0  0
   21.0167  -19.5438  -12.4967 O   0  0  0  0  0  0  0  0  0  0  0  0
  1  2  1  0
  2  3  2  0
  4  5  1  0
  4  2  1  0
  5  6  1  0
  7  6  1  0
  8  9  1  1
  8  7  1  0
 10  8  1  0
 11 10  2  0
 12 10  1  0
 13 12  1  0
 13 14  1  6
 15 14  1  0
 16 15  2  0
 17 16  1  0
 18 17  1  0
 18 23  2  0
 19 20  2  0
 19 18  1  0
 20 21  1  0
 21 22  2  0
 23 22  1  0
 23 15  1  0
 24 25  2  0
 24 13  1  0
 26 24  1  0
 27 26  1  0
 27 28  1  1
 28 29  1  0
 29 33  1  0
 30 29  2  0
 30 31  1  0
 31 32  1  0
 33 32  2  0
 34 27  1  0
 35 34  1  0
 36 34  2  0
M  END
$$$$
