RWH.pdb
     RDKit          3D

 36 38  0  0  1  0  0  0  0  0999 V2000
   27.7823  -15.2409  -18.2116 N   0  0  0  0  0  0  0  0  0  0  0  0
   26.6019  -16.0773  -18.2473 C   0  0  0  0  0  0  0  0  0  0  0  0
   25.7510  -15.8955  -19.1861 N   0  0  0  0  0  0  0  0  0  0  0  0
   26.3943  -17.0644  -17.2584 N   0  0  0  0  0  0  0  0  0  0  0  0
   27.3912  -17.2783  -16.2380 C   0  0  0  0  0  0  0  0  0  0  0  0
   27.4870  -18.7249  -15.7984 C   0  0  0  0  0  0  0  0  0  0  0  0
   28.4841  -18.8724  -14.6855 C   0  0  0  0  0  0  0  0  0  0  0  0
   28.6705  -20.3498  -14.3941 C   0  0  2  0  0  0  0  0  0  0  0  0
   28.9658  -21.0286  -15.6384 N   0  0  0  0  0  0  0  0  0  0  0  0
   27.5420  -20.9090  -13.6415 C   0  0  0  0  0  0  0  0  0  0  0  0
   26.6351  -21.5021  -14.3196 O   0  0  0  0  0  0  0  0  0  0  0  0
   24.8928  -16.4725  -19.2295 N   0  0  0  0  0  0  0  0  0  0  0  0
   27.3405  -20.8682  -12.2432 C   0  0  2  0  0  0  0  0  0  0  0  0
   26.1501  -21.4556  -11.6301 C   0  0  0  0  0  0  0  0  0  0  0  0
   26.5657  -22.0194  -10.2824 C   0  0  0  0  0  0  0  0  0  0  0  0
   26.5494  -21.0252   -9.2116 C   0  0  0  0  0  0  0  0  0  0  0  0
   25.6081  -20.0275   -9.0580 N   0  0  0  0  0  0  0  0  0  0  0  0
   25.9187  -19.2982   -7.9494 C   0  0  0  0  0  0  0  0  0  0  0  0
   27.0283  -19.7805   -7.3690 C   0  0  0  0  0  0  0  0  0  0  0  0
   27.7551  -19.4278   -6.2578 C   0  0  0  0  0  0  0  0  0  0  0  0
   28.8816  -20.1572   -5.9311 C   0  0  0  0  0  0  0  0  0  0  0  0
   29.2988  -21.2298   -6.6871 C   0  0  0  0  0  0  0  0  0  0  0  0
   28.5471  -21.5567   -7.7962 C   0  0  0  0  0  0  0  0  0  0  0  0
   27.4239  -20.8661   -8.1639 C   0  0  0  0  0  0  0  0  0  0  0  0
   25.0553  -20.5016  -11.5336 O   0  0  0  0  0  0  0  0  0  0  0  0
   25.2258  -19.2619  -11.3388 N   0  0  0  0  0  0  0  0  0  0  0  0
   23.7181  -20.9609  -11.6660 C   0  0  1  0  0  0  0  0  0  0  0  0
   22.6451  -20.1340  -12.2568 C   0  0  0  0  0  0  0  0  0  0  0  0
   23.0515  -19.7846  -13.6409 C   0  0  0  0  0  0  0  0  0  0  0  0
   22.0567  -19.0459  -14.4385 C   0  0  0  0  0  0  0  0  0  0  0  0
   20.8561  -18.4773  -14.1473 N   0  0  0  0  0  0  0  0  0  0  0  0
   20.4231  -17.8606  -15.2743 C   0  0  0  0  0  0  0  0  0  0  0  0
   21.3062  -18.0238  -16.2472 N   0  0  0  0  0  0  0  0  0  0  0  0
   22.3077  -18.7439  -15.7528 C   0  0  0  0  0  0  0  0  0  0  0  0
   21.3853  -20.9270  -12.1822 O   0  0  0  0  0  0  0  0  0  0  0  0
   21.3249  -22.2459  -12.4812 O   0  0  0  0  0  0  0  0  0  0  0  0
  1  2  1  0
  2  3  2  0
  4  5  1  0
  4  2  1  0
  5  6  1  0
  7  6  1  0
  8  9  1  6
  8  7  1  0
 10  8  1  0
 11 10  2  0
 12 10  1  0
 13 12  1  0
 13 14  1  6
 15 14  1  0
 16 15  2  0
 17 16  1  0
 18 17  1  0
 18 23  2  0
 19 20  2  0
 19 18  1  0
 20 21  1  0
 21 22  2  0
 23 22  1  0
 23 15  1  0
 24 25  2  0
 24 13  1  0
 26 24  1  0
 27 26  1  0
 27 28  1  1
 28 29  1  0
 29 33  1  0
 30 29  2  0
 30 31  1  0
 31 32  1  0
 33 32  2  0
 34 27  1  0
 35 34  1  0
 36 34  2  0
M  END
$$$$
