RWH.pdb
     RDKit          3D

 36 38  0  0  1  0  0  0  0  0999 V2000
   28.2242  -23.5422  -18.8961 N   0  0  0  0  0  0  0  0  0  0  0  0
   26.8115  -23.7494  -19.1321 C   0  0  0  0  0  0  0  0  0  0  0  0
   26.4300  -24.8704  -19.6180 N   0  0  0  0  0  0  0  0  0  0  0  0
   25.8800  -22.7284  -18.8399 N   0  0  0  0  0  0  0  0  0  0  0  0
   26.2176  -21.7013  -17.8850 C   0  0  0  0  0  0  0  0  0  0  0  0
   26.8297  -22.2533  -16.6139 C   0  0  0  0  0  0  0  0  0  0  0  0
   26.0660  -21.7776  -15.4117 C   0  0  0  0  0  0  0  0  0  0  0  0
   27.0573  -21.3372  -14.3508 C   0  0  2  0  0  0  0  0  0  0  0  0
   28.3113  -22.0231  -14.5823 N   0  0  0  0  0  0  0  0  0  0  0  0
   26.5158  -21.4869  -12.9954 C   0  0  0  0  0  0  0  0  0  0  0  0
   25.3699  -22.0438  -12.8915 O   0  0  0  0  0  0  0  0  0  0  0  0
   25.4433  -25.0069  -19.8995 N   0  0  0  0  0  0  0  0  0  0  0  0
   27.1192  -21.0843  -11.7825 C   0  0  1  0  0  0  0  0  0  0  0  0
   26.3892  -21.1379  -10.5167 C   0  0  0  0  0  0  0  0  0  0  0  0
   27.3918  -20.8851   -9.4042 C   0  0  0  0  0  0  0  0  0  0  0  0
   26.7691  -20.7263   -8.0918 C   0  0  0  0  0  0  0  0  0  0  0  0
   25.4521  -21.0081   -7.7898 N   0  0  0  0  0  0  0  0  0  0  0  0
   25.2370  -20.7383   -6.4713 C   0  0  0  0  0  0  0  0  0  0  0  0
   26.3639  -20.2907   -5.8964 C   0  0  0  0  0  0  0  0  0  0  0  0
   26.6914  -19.8856   -4.6252 C   0  0  0  0  0  0  0  0  0  0  0  0
   27.9826  -19.4712   -4.3626 C   0  0  0  0  0  0  0  0  0  0  0  0
   28.9537  -19.4525   -5.3388 C   0  0  0  0  0  0  0  0  0  0  0  0
   28.5914  -19.8648   -6.6040 C   0  0  0  0  0  0  0  0  0  0  0  0
   27.3262  -20.2834   -6.9166 C   0  0  0  0  0  0  0  0  0  0  0  0
   25.2668  -20.2118  -10.4912 O   0  0  0  0  0  0  0  0  0  0  0  0
   25.3962  -18.9563  -10.5968 N   0  0  0  0  0  0  0  0  0  0  0  0
   23.9486  -20.7194  -10.3457 C   0  0  1  0  0  0  0  0  0  0  0  0
   22.7482  -19.9408  -10.7157 C   0  0  0  0  0  0  0  0  0  0  0  0
   22.8705  -19.5717  -12.1480 C   0  0  0  0  0  0  0  0  0  0  0  0
   21.7315  -18.8355  -12.7243 C   0  0  0  0  0  0  0  0  0  0  0  0
   20.8814  -17.8923  -12.2373 N   0  0  0  0  0  0  0  0  0  0  0  0
   20.0719  -17.5193  -13.2589 C   0  0  0  0  0  0  0  0  0  0  0  0
   20.3878  -18.1915  -14.3550 N   0  0  0  0  0  0  0  0  0  0  0  0
   21.3979  -18.9974  -14.0450 C   0  0  0  0  0  0  0  0  0  0  0  0
   21.5611  -20.7896  -10.4128 O   0  0  0  0  0  0  0  0  0  0  0  0
   20.4044  -20.2905   -9.9174 O   0  0  0  0  0  0  0  0  0  0  0  0
  1  2  1  0
  2  3  2  0
  4  5  1  0
  4  2  1  0
  5  6  1  0
  7  6  1  0
  8  9  1  1
  8  7  1  0
 10  8  1  0
 11 10  2  0
 12 10  1  0
 13 12  1  0
 13 14  1  6
 15 14  1  0
 16 15  2  0
 17 16  1  0
 18 17  1  0
 18 23  2  0
 19 20  2  0
 19 18  1  0
 20 21  1  0
 21 22  2  0
 23 22  1  0
 23 15  1  0
 24 25  2  0
 24 13  1  0
 26 24  1  0
 27 26  1  0
 27 28  1  1
 28 29  1  0
 29 33  1  0
 30 29  2  0
 30 31  1  0
 31 32  1  0
 33 32  2  0
 34 27  1  0
 35 34  1  0
 36 34  2  0
M  END
$$$$
