RWH.pdb
     RDKit          3D

 36 38  0  0  1  0  0  0  0  0999 V2000
   27.3522  -16.0887  -16.3267 N   0  0  0  0  0  0  0  0  0  0  0  0
   25.9091  -16.1960  -16.3204 C   0  0  0  0  0  0  0  0  0  0  0  0
   25.2515  -15.6640  -17.2812 N   0  0  0  0  0  0  0  0  0  0  0  0
   25.2460  -16.8659  -15.2684 N   0  0  0  0  0  0  0  0  0  0  0  0
   25.9536  -17.8494  -14.4855 C   0  0  0  0  0  0  0  0  0  0  0  0
   25.7215  -19.2671  -14.9664 C   0  0  0  0  0  0  0  0  0  0  0  0
   25.0572  -20.0843  -13.8962 C   0  0  0  0  0  0  0  0  0  0  0  0
   26.1182  -20.5623  -12.9225 C   0  0  2  0  0  0  0  0  0  0  0  0
   26.9122  -21.5826  -13.5745 N   0  0  0  0  0  0  0  0  0  0  0  0
   25.5425  -20.9615  -11.6333 C   0  0  0  0  0  0  0  0  0  0  0  0
   24.9699  -22.1034  -11.5875 O   0  0  0  0  0  0  0  0  0  0  0  0
   24.2165  -15.6686  -17.2687 N   0  0  0  0  0  0  0  0  0  0  0  0
   25.5486  -20.2246  -10.4274 C   0  0  2  0  0  0  0  0  0  0  0  0
   24.9335  -20.7538   -9.2110 C   0  0  0  0  0  0  0  0  0  0  0  0
   25.5757  -20.0431   -8.0323 C   0  0  0  0  0  0  0  0  0  0  0  0
   27.0059  -20.3144   -7.9049 C   0  0  0  0  0  0  0  0  0  0  0  0
   27.7848  -20.9659   -8.8397 N   0  0  0  0  0  0  0  0  0  0  0  0
   29.0644  -21.0316   -8.3753 C   0  0  0  0  0  0  0  0  0  0  0  0
   29.1547  -20.4468   -7.1710 C   0  0  0  0  0  0  0  0  0  0  0  0
   30.1835  -20.2416   -6.2839 C   0  0  0  0  0  0  0  0  0  0  0  0
   29.9271  -19.5842   -5.0965 C   0  0  0  0  0  0  0  0  0  0  0  0
   28.6688  -19.1269   -4.7746 C   0  0  0  0  0  0  0  0  0  0  0  0
   27.6587  -19.3499   -5.6868 C   0  0  0  0  0  0  0  0  0  0  0  0
   27.8596  -19.9966   -6.8764 C   0  0  0  0  0  0  0  0  0  0  0  0
   23.4838  -20.6270   -9.2296 O   0  0  0  0  0  0  0  0  0  0  0  0
   22.8664  -19.7881   -9.9500 N   0  0  0  0  0  0  0  0  0  0  0  0
   22.6999  -21.4806   -8.4090 C   0  0  1  0  0  0  0  0  0  0  0  0
   21.2738  -21.7588   -8.6797 C   0  0  0  0  0  0  0  0  0  0  0  0
   21.1856  -22.4336   -9.9986 C   0  0  0  0  0  0  0  0  0  0  0  0
   20.7945  -21.5807  -11.1349 C   0  0  0  0  0  0  0  0  0  0  0  0
   20.5160  -20.2556  -11.2607 N   0  0  0  0  0  0  0  0  0  0  0  0
   20.2907  -20.0186  -12.5764 C   0  0  0  0  0  0  0  0  0  0  0  0
   20.4198  -21.1408  -13.2670 N   0  0  0  0  0  0  0  0  0  0  0  0
   20.7273  -22.1018  -12.4021 C   0  0  0  0  0  0  0  0  0  0  0  0
   20.7624  -22.5823   -7.5476 O   0  0  0  0  0  0  0  0  0  0  0  0
   19.5188  -22.4376   -7.0328 O   0  0  0  0  0  0  0  0  0  0  0  0
  1  2  1  0
  2  3  2  0
  4  5  1  0
  4  2  1  0
  5  6  1  0
  7  6  1  0
  8  9  1  6
  8  7  1  0
 10  8  1  0
 11 10  2  0
 12 10  1  0
 13 12  1  0
 13 14  1  6
 15 14  1  0
 16 15  2  0
 17 16  1  0
 18 17  1  0
 18 23  2  0
 19 20  2  0
 19 18  1  0
 20 21  1  0
 21 22  2  0
 23 22  1  0
 23 15  1  0
 24 25  2  0
 24 13  1  0
 26 24  1  0
 27 26  1  0
 27 28  1  1
 28 29  1  0
 29 33  1  0
 30 29  2  0
 30 31  1  0
 31 32  1  0
 33 32  2  0
 34 27  1  0
 35 34  1  0
 36 34  2  0
M  END
$$$$
