RWH.pdb
     RDKit          3D

 36 38  0  0  1  0  0  0  0  0999 V2000
   29.9117  -25.5024  -17.2750 N   0  0  0  0  0  0  0  0  0  0  0  0
   29.0557  -26.5736  -17.7376 C   0  0  0  0  0  0  0  0  0  0  0  0
   29.5605  -27.7408  -17.8837 N   0  0  0  0  0  0  0  0  0  0  0  0
   27.6958  -26.3274  -18.0296 N   0  0  0  0  0  0  0  0  0  0  0  0
   27.1001  -25.0662  -17.6618 C   0  0  0  0  0  0  0  0  0  0  0  0
   26.8793  -24.9290  -16.1693 C   0  0  0  0  0  0  0  0  0  0  0  0
   26.1864  -23.6342  -15.8561 C   0  0  0  0  0  0  0  0  0  0  0  0
   26.9204  -22.5088  -16.5610 C   0  0  2  0  0  0  0  0  0  0  0  0
   28.2643  -22.4333  -16.0275 N   0  0  0  0  0  0  0  0  0  0  0  0
   26.1695  -21.2490  -16.5164 C   0  0  0  0  0  0  0  0  0  0  0  0
   26.1557  -20.6263  -15.4001 O   0  0  0  0  0  0  0  0  0  0  0  0
   28.9928  -28.5065  -18.2872 N   0  0  0  0  0  0  0  0  0  0  0  0
   25.4552  -20.6397  -17.5727 C   0  0  1  0  0  0  0  0  0  0  0  0
   24.7348  -19.3825  -17.3761 C   0  0  0  0  0  0  0  0  0  0  0  0
   25.1256  -18.4538  -18.5126 C   0  0  0  0  0  0  0  0  0  0  0  0
   26.3985  -17.7721  -18.2885 C   0  0  0  0  0  0  0  0  0  0  0  0
   27.5861  -18.0601  -18.9300 N   0  0  0  0  0  0  0  0  0  0  0  0
   28.5519  -17.2192  -18.4635 C   0  0  0  0  0  0  0  0  0  0  0  0
   28.0422  -16.3893  -17.5403 C   0  0  0  0  0  0  0  0  0  0  0  0
   28.5655  -15.3757  -16.7747 C   0  0  0  0  0  0  0  0  0  0  0  0
   27.7407  -14.7021  -15.8952 C   0  0  0  0  0  0  0  0  0  0  0  0
   26.4065  -15.0163  -15.7627 C   0  0  0  0  0  0  0  0  0  0  0  0
   25.9135  -16.0392  -16.5455 C   0  0  0  0  0  0  0  0  0  0  0  0
   26.6883  -16.7384  -17.4312 C   0  0  0  0  0  0  0  0  0  0  0  0
   23.2970  -19.5841  -17.2761 O   0  0  0  0  0  0  0  0  0  0  0  0
   22.6685  -20.4634  -17.9364 N   0  0  0  0  0  0  0  0  0  0  0  0
   22.5391  -18.7673  -16.3957 C   0  0  1  0  0  0  0  0  0  0  0  0
   21.0938  -18.9708  -16.1638 C   0  0  0  0  0  0  0  0  0  0  0  0
   20.7979  -18.5704  -14.7656 C   0  0  0  0  0  0  0  0  0  0  0  0
   21.2247  -19.5165  -13.7194 C   0  0  0  0  0  0  0  0  0  0  0  0
   21.8621  -20.7175  -13.7445 N   0  0  0  0  0  0  0  0  0  0  0  0
   22.0605  -21.0906  -12.4562 C   0  0  0  0  0  0  0  0  0  0  0  0
   21.5737  -20.1701  -11.6385 N   0  0  0  0  0  0  0  0  0  0  0  0
   21.0613  -19.2041  -12.3937 C   0  0  0  0  0  0  0  0  0  0  0  0
   20.3655  -18.1673  -17.1862 O   0  0  0  0  0  0  0  0  0  0  0  0
   19.1944  -18.5627  -17.7383 O   0  0  0  0  0  0  0  0  0  0  0  0
  1  2  1  0
  2  3  2  0
  4  5  1  0
  4  2  1  0
  5  6  1  0
  7  6  1  0
  8  9  1  1
  8  7  1  0
 10  8  1  0
 11 10  2  0
 12 10  1  0
 13 12  1  0
 13 14  1  1
 15 14  1  0
 16 15  2  0
 17 16  1  0
 18 17  1  0
 18 23  2  0
 19 20  2  0
 19 18  1  0
 20 21  1  0
 21 22  2  0
 23 22  1  0
 23 15  1  0
 24 25  2  0
 24 13  1  0
 26 24  1  0
 27 26  1  0
 27 28  1  6
 28 29  1  0
 29 33  1  0
 30 29  2  0
 30 31  1  0
 31 32  1  0
 33 32  2  0
 34 27  1  0
 35 34  1  0
 36 34  2  0
M  END
$$$$
