RWH.pdb
     RDKit          3D

 36 38  0  0  1  0  0  0  0  0999 V2000
   30.2865  -24.3904  -16.5254 N   0  0  0  0  0  0  0  0  0  0  0  0
   29.0143  -24.7903  -17.0873 C   0  0  0  0  0  0  0  0  0  0  0  0
   28.6925  -26.0287  -17.0539 N   0  0  0  0  0  0  0  0  0  0  0  0
   28.1553  -23.8309  -17.6680 N   0  0  0  0  0  0  0  0  0  0  0  0
   28.4197  -22.4252  -17.4814 C   0  0  0  0  0  0  0  0  0  0  0  0
   27.8249  -21.8761  -16.2009 C   0  0  0  0  0  0  0  0  0  0  0  0
   28.7682  -20.9009  -15.5576 C   0  0  0  0  0  0  0  0  0  0  0  0
   29.3590  -21.5444  -14.3170 C   0  0  2  0  0  0  0  0  0  0  0  0
   29.8331  -22.8666  -14.6681 N   0  0  0  0  0  0  0  0  0  0  0  0
   28.4307  -21.5056  -13.1815 C   0  0  0  0  0  0  0  0  0  0  0  0
   27.4585  -22.3352  -13.2040 O   0  0  0  0  0  0  0  0  0  0  0  0
   27.8145  -26.3505  -17.4978 N   0  0  0  0  0  0  0  0  0  0  0  0
   28.4879  -20.6512  -12.0571 C   0  0  1  0  0  0  0  0  0  0  0  0
   27.5451  -20.7915  -10.9482 C   0  0  0  0  0  0  0  0  0  0  0  0
   28.2204  -20.2361   -9.7063 C   0  0  0  0  0  0  0  0  0  0  0  0
   27.4028  -20.3593   -8.5014 C   0  0  0  0  0  0  0  0  0  0  0  0
   26.0875  -20.7760   -8.4641 N   0  0  0  0  0  0  0  0  0  0  0  0
   25.6605  -20.7650   -7.1699 C   0  0  0  0  0  0  0  0  0  0  0  0
   26.6467  -20.3576   -6.3562 C   0  0  0  0  0  0  0  0  0  0  0  0
   26.7487  -20.1703   -4.9990 C   0  0  0  0  0  0  0  0  0  0  0  0
   27.9450  -19.7280   -4.4688 C   0  0  0  0  0  0  0  0  0  0  0  0
   29.0410  -19.4692   -5.2613 C   0  0  0  0  0  0  0  0  0  0  0  0
   28.9045  -19.6670   -6.6194 C   0  0  0  0  0  0  0  0  0  0  0  0
   27.7415  -20.1027   -7.1949 C   0  0  0  0  0  0  0  0  0  0  0  0
   26.2666  -20.1566  -11.2316 O   0  0  0  0  0  0  0  0  0  0  0  0
   26.1507  -18.9401  -11.5643 N   0  0  0  0  0  0  0  0  0  0  0  0
   25.0740  -20.9223  -11.1411 C   0  0  1  0  0  0  0  0  0  0  0  0
   23.7492  -20.3829  -11.5128 C   0  0  0  0  0  0  0  0  0  0  0  0
   23.3044  -21.0811  -12.7447 C   0  0  0  0  0  0  0  0  0  0  0  0
   23.9120  -20.6170  -14.0045 C   0  0  0  0  0  0  0  0  0  0  0  0
   24.8669  -19.6953  -14.3015 N   0  0  0  0  0  0  0  0  0  0  0  0
   25.0756  -19.7545  -15.6398 C   0  0  0  0  0  0  0  0  0  0  0  0
   24.2912  -20.6742  -16.1799 N   0  0  0  0  0  0  0  0  0  0  0  0
   23.5763  -21.2090  -15.1955 C   0  0  0  0  0  0  0  0  0  0  0  0
   22.8457  -20.5888  -10.3455 O   0  0  0  0  0  0  0  0  0  0  0  0
   21.7185  -19.8656  -10.1483 O   0  0  0  0  0  0  0  0  0  0  0  0
  1  2  1  0
  2  3  2  0
  4  5  1  0
  4  2  1  0
  5  6  1  0
  7  6  1  0
  8  9  1  6
  8  7  1  0
 10  8  1  0
 11 10  2  0
 12 10  1  0
 13 12  1  0
 13 14  1  6
 15 14  1  0
 16 15  2  0
 17 16  1  0
 18 17  1  0
 18 23  2  0
 19 20  2  0
 19 18  1  0
 20 21  1  0
 21 22  2  0
 23 22  1  0
 23 15  1  0
 24 25  2  0
 24 13  1  0
 26 24  1  0
 27 26  1  0
 27 28  1  1
 28 29  1  0
 29 33  1  0
 30 29  2  0
 30 31  1  0
 31 32  1  0
 33 32  2  0
 34 27  1  0
 35 34  1  0
 36 34  2  0
M  END
$$$$
