RWH.pdb
     RDKit          3D

 36 38  0  0  1  0  0  0  0  0999 V2000
   29.4846  -27.7132  -17.4085 N   0  0  0  0  0  0  0  0  0  0  0  0
   30.0285  -26.4686  -17.9080 C   0  0  0  0  0  0  0  0  0  0  0  0
   30.9224  -26.5148  -18.8230 N   0  0  0  0  0  0  0  0  0  0  0  0
   29.5854  -25.2333  -17.3855 N   0  0  0  0  0  0  0  0  0  0  0  0
   28.2115  -25.0801  -16.9736 C   0  0  0  0  0  0  0  0  0  0  0  0
   27.5030  -23.9465  -17.6865 C   0  0  0  0  0  0  0  0  0  0  0  0
   26.6644  -23.1596  -16.7210 C   0  0  0  0  0  0  0  0  0  0  0  0
   27.5477  -22.6958  -15.5778 C   0  0  2  0  0  0  0  0  0  0  0  0
   28.5949  -23.6762  -15.3811 N   0  0  0  0  0  0  0  0  0  0  0  0
   26.7697  -22.3774  -14.3753 C   0  0  0  0  0  0  0  0  0  0  0  0
   26.1446  -23.3449  -13.8211 O   0  0  0  0  0  0  0  0  0  0  0  0
   31.3389  -25.6405  -19.1883 N   0  0  0  0  0  0  0  0  0  0  0  0
   26.6311  -21.1156  -13.7539 C   0  0  1  0  0  0  0  0  0  0  0  0
   25.7852  -20.9390  -12.5743 C   0  0  0  0  0  0  0  0  0  0  0  0
   26.3891  -19.8172  -11.7475 C   0  0  0  0  0  0  0  0  0  0  0  0
   27.4521  -20.2686  -10.8520 C   0  0  0  0  0  0  0  0  0  0  0  0
   28.5817  -20.9632  -11.2346 N   0  0  0  0  0  0  0  0  0  0  0  0
   29.3406  -21.2093  -10.1297 C   0  0  0  0  0  0  0  0  0  0  0  0
   28.7517  -20.7013   -9.0362 C   0  0  0  0  0  0  0  0  0  0  0  0
   29.0801  -20.6692   -7.7025 C   0  0  0  0  0  0  0  0  0  0  0  0
   28.2259  -20.0458   -6.8140 C   0  0  0  0  0  0  0  0  0  0  0  0
   27.0528  -19.4537   -7.2256 C   0  0  0  0  0  0  0  0  0  0  0  0
   26.7529  -19.5045   -8.5709 C   0  0  0  0  0  0  0  0  0  0  0  0
   27.5642  -20.1104   -9.4919 C   0  0  0  0  0  0  0  0  0  0  0  0
   24.3941  -20.6987  -12.9279 O   0  0  0  0  0  0  0  0  0  0  0  0
   24.0268  -19.8017  -13.7431 N   0  0  0  0  0  0  0  0  0  0  0  0
   23.3788  -21.5020  -12.3444 C   0  0  1  0  0  0  0  0  0  0  0  0
   21.9392  -21.2625  -12.5774 C   0  0  0  0  0  0  0  0  0  0  0  0
   21.2069  -22.4969  -12.1994 C   0  0  0  0  0  0  0  0  0  0  0  0
   19.7440  -22.4581  -12.3730 C   0  0  0  0  0  0  0  0  0  0  0  0
   18.9269  -21.9529  -13.3355 N   0  0  0  0  0  0  0  0  0  0  0  0
   17.6573  -22.2860  -12.9960 C   0  0  0  0  0  0  0  0  0  0  0  0
   17.6573  -22.9761  -11.8661 N   0  0  0  0  0  0  0  0  0  0  0  0
   18.9221  -23.0896  -11.4744 C   0  0  0  0  0  0  0  0  0  0  0  0
   21.5555  -20.0663  -11.7754 O   0  0  0  0  0  0  0  0  0  0  0  0
   20.5930  -19.1965  -12.1621 O   0  0  0  0  0  0  0  0  0  0  0  0
  1  2  1  0
  2  3  2  0
  4  5  1  0
  4  2  1  0
  5  6  1  0
  7  6  1  0
  8  9  1  1
  8  7  1  0
 10  8  1  0
 11 10  2  0
 12 10  1  0
 13 12  1  0
 13 14  1  1
 15 14  1  0
 16 15  2  0
 17 16  1  0
 18 17  1  0
 18 23  2  0
 19 20  2  0
 19 18  1  0
 20 21  1  0
 21 22  2  0
 23 22  1  0
 23 15  1  0
 24 25  2  0
 24 13  1  0
 26 24  1  0
 27 26  1  0
 27 28  1  1
 28 29  1  0
 29 33  1  0
 30 29  2  0
 30 31  1  0
 31 32  1  0
 33 32  2  0
 34 27  1  0
 35 34  1  0
 36 34  2  0
M  END
$$$$
