RWH.pdb
     RDKit          3D

 36 38  0  0  1  0  0  0  0  0999 V2000
   30.5284  -21.6323  -19.2435 N   0  0  0  0  0  0  0  0  0  0  0  0
   30.9582  -22.2177  -17.9918 C   0  0  0  0  0  0  0  0  0  0  0  0
   31.7633  -23.2122  -18.0257 N   0  0  0  0  0  0  0  0  0  0  0  0
   30.4876  -21.7043  -16.7628 N   0  0  0  0  0  0  0  0  0  0  0  0
   29.5141  -20.6398  -16.7559 C   0  0  0  0  0  0  0  0  0  0  0  0
   28.1019  -21.1279  -17.0060 C   0  0  0  0  0  0  0  0  0  0  0  0
   27.2644  -20.9734  -15.7693 C   0  0  0  0  0  0  0  0  0  0  0  0
   27.6326  -22.0757  -14.7937 C   0  0  2  0  0  0  0  0  0  0  0  0
   27.4138  -23.3523  -15.4408 N   0  0  0  0  0  0  0  0  0  0  0  0
   26.9548  -21.9168  -13.5022 C   0  0  0  0  0  0  0  0  0  0  0  0
   25.6976  -22.1472  -13.4797 O   0  0  0  0  0  0  0  0  0  0  0  0
   32.0381  -23.6895  -17.1493 N   0  0  0  0  0  0  0  0  0  0  0  0
   27.5354  -21.5364  -12.2711 C   0  0  1  0  0  0  0  0  0  0  0  0
   26.7135  -21.2979  -11.0855 C   0  0  0  0  0  0  0  0  0  0  0  0
   27.6479  -20.8838   -9.9621 C   0  0  0  0  0  0  0  0  0  0  0  0
   26.9443  -20.4403   -8.7606 C   0  0  0  0  0  0  0  0  0  0  0  0
   25.5826  -20.2405   -8.6567 N   0  0  0  0  0  0  0  0  0  0  0  0
   25.2948  -19.8301   -7.3893 C   0  0  0  0  0  0  0  0  0  0  0  0
   26.4168  -19.7541   -6.6572 C   0  0  0  0  0  0  0  0  0  0  0  0
   26.6862  -19.4032   -5.3565 C   0  0  0  0  0  0  0  0  0  0  0  0
   27.9922  -19.4338   -4.9080 C   0  0  0  0  0  0  0  0  0  0  0  0
   29.0345  -19.8068   -5.7269 C   0  0  0  0  0  0  0  0  0  0  0  0
   28.7295  -20.1523   -7.0268 C   0  0  0  0  0  0  0  0  0  0  0  0
   27.4531  -20.1377   -7.5208 C   0  0  0  0  0  0  0  0  0  0  0  0
   25.6595  -20.3259  -11.3352 O   0  0  0  0  0  0  0  0  0  0  0  0
   25.8761  -19.1638  -11.7897 N   0  0  0  0  0  0  0  0  0  0  0  0
   24.3102  -20.6779  -11.0670 C   0  0  1  0  0  0  0  0  0  0  0  0
   23.1645  -19.9069  -11.5936 C   0  0  0  0  0  0  0  0  0  0  0  0
   23.2420  -19.9343  -13.0755 C   0  0  0  0  0  0  0  0  0  0  0  0
   22.1461  -19.2576  -13.7915 C   0  0  0  0  0  0  0  0  0  0  0  0
   21.0531  -18.5570  -13.3868 N   0  0  0  0  0  0  0  0  0  0  0  0
   20.4378  -18.0974  -14.5040 C   0  0  0  0  0  0  0  0  0  0  0  0
   21.1058  -18.4836  -15.5799 N   0  0  0  0  0  0  0  0  0  0  0  0
   22.1500  -19.1913  -15.1617 C   0  0  0  0  0  0  0  0  0  0  0  0
   21.9256  -20.5274  -11.0447 O   0  0  0  0  0  0  0  0  0  0  0  0
   20.7353  -19.8840  -11.0004 O   0  0  0  0  0  0  0  0  0  0  0  0
  1  2  1  0
  2  3  2  0
  4  5  1  0
  4  2  1  0
  5  6  1  0
  7  6  1  0
  8  9  1  6
  8  7  1  0
 10  8  1  0
 11 10  2  0
 12 10  1  0
 13 12  1  0
 13 14  1  1
 15 14  1  0
 16 15  2  0
 17 16  1  0
 18 17  1  0
 18 23  2  0
 19 20  2  0
 19 18  1  0
 20 21  1  0
 21 22  2  0
 23 22  1  0
 23 15  1  0
 24 25  2  0
 24 13  1  0
 26 24  1  0
 27 26  1  0
 27 28  1  1
 28 29  1  0
 29 33  1  0
 30 29  2  0
 30 31  1  0
 31 32  1  0
 33 32  2  0
 34 27  1  0
 35 34  1  0
 36 34  2  0
M  END
$$$$
