RWH.pdb
     RDKit          3D

 36 38  0  0  1  0  0  0  0  0999 V2000
   28.8398  -26.7792  -18.2523 N   0  0  0  0  0  0  0  0  0  0  0  0
   28.2889  -26.5025  -19.5615 C   0  0  0  0  0  0  0  0  0  0  0  0
   27.9829  -27.4888  -20.3178 N   0  0  0  0  0  0  0  0  0  0  0  0
   28.1048  -25.1702  -19.9933 N   0  0  0  0  0  0  0  0  0  0  0  0
   28.2276  -24.0866  -19.0490 C   0  0  0  0  0  0  0  0  0  0  0  0
   26.9514  -23.8296  -18.2741 C   0  0  0  0  0  0  0  0  0  0  0  0
   27.0513  -22.5431  -17.5064 C   0  0  0  0  0  0  0  0  0  0  0  0
   27.7281  -22.8229  -16.1775 C   0  0  2  0  0  0  0  0  0  0  0  0
   28.2574  -24.1702  -16.2076 N   0  0  0  0  0  0  0  0  0  0  0  0
   26.8482  -22.5331  -15.0398 C   0  0  0  0  0  0  0  0  0  0  0  0
   26.0622  -23.4697  -14.6668 O   0  0  0  0  0  0  0  0  0  0  0  0
   27.5742  -27.3198  -21.2537 N   0  0  0  0  0  0  0  0  0  0  0  0
   26.7690  -21.3299  -14.3027 C   0  0  1  0  0  0  0  0  0  0  0  0
   25.8806  -21.2037  -13.1482 C   0  0  0  0  0  0  0  0  0  0  0  0
   26.4260  -20.0857  -12.2768 C   0  0  0  0  0  0  0  0  0  0  0  0
   27.4824  -20.5258  -11.3681 C   0  0  0  0  0  0  0  0  0  0  0  0
   28.7514  -20.9176  -11.7438 N   0  0  0  0  0  0  0  0  0  0  0  0
   29.4544  -21.2572  -10.6267 C   0  0  0  0  0  0  0  0  0  0  0  0
   28.6945  -21.1020   -9.5317 C   0  0  0  0  0  0  0  0  0  0  0  0
   28.9047  -21.2968   -8.1881 C   0  0  0  0  0  0  0  0  0  0  0  0
   27.8792  -21.0330   -7.3012 C   0  0  0  0  0  0  0  0  0  0  0  0
   26.6499  -20.5792   -7.7242 C   0  0  0  0  0  0  0  0  0  0  0  0
   26.4720  -20.3949   -9.0794 C   0  0  0  0  0  0  0  0  0  0  0  0
   27.4548  -20.6423   -9.9995 C   0  0  0  0  0  0  0  0  0  0  0  0
   24.4957  -20.9927  -13.5422 O   0  0  0  0  0  0  0  0  0  0  0  0
   24.1508  -20.2478  -14.5066 N   0  0  0  0  0  0  0  0  0  0  0  0
   23.4603  -21.6492  -12.8255 C   0  0  1  0  0  0  0  0  0  0  0  0
   22.0280  -21.4489  -13.1298 C   0  0  0  0  0  0  0  0  0  0  0  0
   21.2704  -22.5573  -12.4971 C   0  0  0  0  0  0  0  0  0  0  0  0
   19.8052  -22.5045  -12.6453 C   0  0  0  0  0  0  0  0  0  0  0  0
   18.9548  -21.6348  -13.2535 N   0  0  0  0  0  0  0  0  0  0  0  0
   17.7053  -22.1462  -13.1293 C   0  0  0  0  0  0  0  0  0  0  0  0
   17.7496  -23.2945  -12.4718 N   0  0  0  0  0  0  0  0  0  0  0  0
   19.0230  -23.5265  -12.1705 C   0  0  0  0  0  0  0  0  0  0  0  0
   21.6539  -20.0985  -12.6224 O   0  0  0  0  0  0  0  0  0  0  0  0
   20.6887  -19.3381  -13.1905 O   0  0  0  0  0  0  0  0  0  0  0  0
  1  2  1  0
  2  3  2  0
  4  5  1  0
  4  2  1  0
  5  6  1  0
  7  6  1  0
  8  9  1  6
  8  7  1  0
 10  8  1  0
 11 10  2  0
 12 10  1  0
 13 12  1  0
 13 14  1  1
 15 14  1  0
 16 15  2  0
 17 16  1  0
 18 17  1  0
 18 23  2  0
 19 20  2  0
 19 18  1  0
 20 21  1  0
 21 22  2  0
 23 22  1  0
 23 15  1  0
 24 25  2  0
 24 13  1  0
 26 24  1  0
 27 26  1  0
 27 28  1  1
 28 29  1  0
 29 33  1  0
 30 29  2  0
 30 31  1  0
 31 32  1  0
 33 32  2  0
 34 27  1  0
 35 34  1  0
 36 34  2  0
M  END
$$$$
