ETP.pdb
     RDKit          3D

 24 24  0  0  1  0  0  0  0  0999 V2000
   19.3270  -16.3276  -17.7706 N   0  0  0  0  0  0  0  0  0  0  0  0
   18.9491  -15.0301  -17.3208 C   0  0  1  0  0  0  0  0  0  0  0  0
   17.8581  -14.9780  -16.3109 C   0  0  0  0  0  0  0  0  0  0  0  0
   16.6332  -15.7787  -16.5816 C   0  0  0  0  0  0  0  0  0  0  0  0
   16.4602  -17.0161  -15.8198 C   0  0  0  0  0  0  0  0  0  0  0  0
   16.3334  -18.1428  -16.3314 O   0  0  0  0  0  0  0  0  0  0  0  0
   20.1182  -14.1823  -16.9006 C   0  0  0  0  0  0  0  0  0  0  0  0
   20.9706  -14.6304  -16.0931 O   0  0  0  0  0  0  0  0  0  0  0  0
   16.4264  -16.9963  -14.4043 O   0  0  0  0  0  0  0  0  0  0  0  0
   22.7048  -12.7357  -18.9890 C   0  0  0  0  0  0  0  0  0  0  0  0
   22.2187  -11.5490  -18.1892 C   0  0  1  0  0  0  0  0  0  0  0  0
   21.3413  -10.8590  -19.0315 O   0  0  0  0  0  0  0  0  0  0  0  0
   21.4696  -12.0844  -16.9751 C   0  0  2  0  0  0  0  0  0  0  0  0
   20.3275  -12.8583  -17.3766 N   0  0  0  0  0  0  0  0  0  0  0  0
   21.2268  -11.0321  -15.9936 C   0  0  0  0  0  0  0  0  0  0  0  0
   20.1218  -10.3619  -16.0849 O   0  0  0  0  0  0  0  0  0  0  0  0
   22.0533  -10.6238  -14.9189 N   0  0  0  0  0  0  0  0  0  0  0  0
   23.3238  -11.1878  -14.5743 C   0  0  0  0  0  0  0  0  0  0  0  0
   23.9349  -10.2389  -13.5386 C   0  0  0  0  0  0  0  0  0  0  0  0
   22.7137   -9.6136  -12.8849 C   0  0  0  0  0  0  0  0  0  0  0  0
   21.7179   -9.5591  -13.9957 C   0  0  1  0  0  0  0  0  0  0  0  0
   21.7056   -8.2413  -14.6830 C   0  0  0  0  0  0  0  0  0  0  0  0
   21.1146   -7.1554  -14.0753 O   0  0  0  0  0  0  0  0  0  0  0  0
   22.2280   -8.1162  -15.8057 O   0  0  0  0  0  0  0  0  0  0  0  0
  2  1  1  1
  3  2  1  0
  3  4  1  0
  4  5  1  0
  5  6  2  0
  5  9  1  0
  7  2  1  0
  7  8  2  0
 11 10  1  6
 11 13  1  0
 12 11  1  0
 13 14  1  6
 13 15  1  0
 14  7  1  0
 15 17  1  0
 16 15  2  0
 17 21  1  0
 17 18  1  0
 18 19  1  0
 20 21  1  0
 20 19  1  0
 21 22  1  6
 22 24  2  0
 22 23  1  0
M  END
$$$$
