ETP.pdb
     RDKit          3D

 24 24  0  0  1  0  0  0  0  0999 V2000
   22.3863  -20.7698  -15.1723 N   0  0  0  0  0  0  0  0  0  0  0  0
   22.7363  -19.8970  -14.1027 C   0  0  1  0  0  0  0  0  0  0  0  0
   21.6453  -19.0327  -13.5776 C   0  0  0  0  0  0  0  0  0  0  0  0
   20.2444  -19.4753  -13.8151 C   0  0  0  0  0  0  0  0  0  0  0  0
   19.7704  -20.6335  -13.0565 C   0  0  0  0  0  0  0  0  0  0  0  0
   19.5628  -20.6314  -11.8300 O   0  0  0  0  0  0  0  0  0  0  0  0
   23.4658  -20.5893  -12.9843 C   0  0  0  0  0  0  0  0  0  0  0  0
   22.9751  -21.6113  -12.4422 O   0  0  0  0  0  0  0  0  0  0  0  0
   19.5128  -21.8665  -13.7031 O   0  0  0  0  0  0  0  0  0  0  0  0
   26.2124  -22.4810  -13.1484 C   0  0  0  0  0  0  0  0  0  0  0  0
   26.6685  -21.5481  -12.0502 C   0  0  1  0  0  0  0  0  0  0  0  0
   27.4850  -20.5998  -12.6743 O   0  0  0  0  0  0  0  0  0  0  0  0
   25.4304  -20.8751  -11.4705 C   0  0  2  0  0  0  0  0  0  0  0  0
   24.7208  -20.1445  -12.4840 N   0  0  0  0  0  0  0  0  0  0  0  0
   25.7457  -20.1456  -10.2465 C   0  0  0  0  0  0  0  0  0  0  0  0
   25.8987  -18.8617  -10.3290 O   0  0  0  0  0  0  0  0  0  0  0  0
   25.9144  -20.6563   -8.9367 N   0  0  0  0  0  0  0  0  0  0  0  0
   25.8051  -22.0308   -8.5498 C   0  0  0  0  0  0  0  0  0  0  0  0
   26.3408  -22.1052   -7.1167 C   0  0  0  0  0  0  0  0  0  0  0  0
   26.0697  -20.7104   -6.5773 C   0  0  0  0  0  0  0  0  0  0  0  0
   26.2223  -19.8399   -7.7804 C   0  0  1  0  0  0  0  0  0  0  0  0
   27.5840  -19.2541   -7.8883 C   0  0  0  0  0  0  0  0  0  0  0  0
   27.9553  -18.2216   -7.0552 O   0  0  0  0  0  0  0  0  0  0  0  0
   28.3896  -19.6939   -8.7289 O   0  0  0  0  0  0  0  0  0  0  0  0
  2  1  1  6
  3  2  1  0
  3  4  1  0
  4  5  1  0
  5  6  2  0
  5  9  1  0
  7  2  1  0
  7  8  2  0
 11 10  1  6
 11 13  1  0
 12 11  1  0
 13 14  1  6
 13 15  1  0
 14  7  1  0
 15 17  1  0
 16 15  2  0
 17 21  1  0
 17 18  1  0
 18 19  1  0
 20 21  1  0
 20 19  1  0
 21 22  1  6
 22 24  2  0
 22 23  1  0
M  END
$$$$
