ETP.pdb
     RDKit          3D

 24 24  0  0  1  0  0  0  0  0999 V2000
   27.5763  -23.0827  -18.4616 N   0  0  0  0  0  0  0  0  0  0  0  0
   26.5550  -23.3376  -17.5022 C   0  0  1  0  0  0  0  0  0  0  0  0
   26.6824  -24.6020  -16.7288 C   0  0  0  0  0  0  0  0  0  0  0  0
   26.4323  -25.8778  -17.4530 C   0  0  0  0  0  0  0  0  0  0  0  0
   26.7090  -27.1215  -16.7332 C   0  0  0  0  0  0  0  0  0  0  0  0
   25.8417  -27.8158  -16.1736 O   0  0  0  0  0  0  0  0  0  0  0  0
   26.2883  -22.1698  -16.5925 C   0  0  0  0  0  0  0  0  0  0  0  0
   26.6776  -21.0172  -16.9074 O   0  0  0  0  0  0  0  0  0  0  0  0
   28.0301  -27.6207  -16.6314 O   0  0  0  0  0  0  0  0  0  0  0  0
   25.0646  -19.9640  -16.7238 C   0  0  0  0  0  0  0  0  0  0  0  0
   24.3703  -20.1849  -15.3997 C   0  0  1  0  0  0  0  0  0  0  0  0
   23.1455  -20.7840  -15.7100 O   0  0  0  0  0  0  0  0  0  0  0  0
   25.2295  -21.1397  -14.5799 C   0  0  2  0  0  0  0  0  0  0  0  0
   25.5986  -22.2922  -15.3546 N   0  0  0  0  0  0  0  0  0  0  0  0
   24.6354  -21.4006  -13.2728 C   0  0  0  0  0  0  0  0  0  0  0  0
   23.6253  -22.2101  -13.2172 O   0  0  0  0  0  0  0  0  0  0  0  0
   25.0168  -20.8786  -12.0131 N   0  0  0  0  0  0  0  0  0  0  0  0
   26.0868  -19.9573  -11.7741 C   0  0  0  0  0  0  0  0  0  0  0  0
   25.9192  -19.4892  -10.3252 C   0  0  0  0  0  0  0  0  0  0  0  0
   25.2134  -20.6628   -9.6660 C   0  0  0  0  0  0  0  0  0  0  0  0
   24.3663  -21.2162  -10.7636 C   0  0  1  0  0  0  0  0  0  0  0  0
   22.9761  -20.6918  -10.7273 C   0  0  0  0  0  0  0  0  0  0  0  0
   22.5775  -19.7391  -11.6391 O   0  0  0  0  0  0  0  0  0  0  0  0
   22.1711  -21.1113   -9.8757 O   0  0  0  0  0  0  0  0  0  0  0  0
  2  1  1  1
  3  2  1  0
  3  4  1  0
  4  5  1  0
  5  6  2  0
  5  9  1  0
  7  2  1  0
  7  8  2  0
 11 10  1  6
 11 13  1  0
 12 11  1  0
 13 14  1  6
 13 15  1  0
 14  7  1  0
 15 17  1  0
 16 15  2  0
 17 21  1  0
 17 18  1  0
 18 19  1  0
 20 21  1  0
 20 19  1  0
 21 22  1  6
 22 24  2  0
 22 23  1  0
M  END
$$$$
