ETP.pdb
     RDKit          3D

 24 24  0  0  1  0  0  0  0  0999 V2000
   17.7674  -15.6368  -17.5132 N   0  0  0  0  0  0  0  0  0  0  0  0
   17.6139  -14.4453  -16.7481 C   0  0  1  0  0  0  0  0  0  0  0  0
   17.0199  -14.6074  -15.3940 C   0  0  0  0  0  0  0  0  0  0  0  0
   15.6737  -15.2355  -15.3056 C   0  0  0  0  0  0  0  0  0  0  0  0
   15.4886  -16.2838  -14.3014 C   0  0  0  0  0  0  0  0  0  0  0  0
   16.3651  -16.6470  -13.4969 O   0  0  0  0  0  0  0  0  0  0  0  0
   18.8614  -13.6066  -16.6965 C   0  0  0  0  0  0  0  0  0  0  0  0
   19.9591  -14.1200  -16.3637 O   0  0  0  0  0  0  0  0  0  0  0  0
   14.2538  -16.9674  -14.1873 O   0  0  0  0  0  0  0  0  0  0  0  0
   20.5685  -11.7257  -19.2959 C   0  0  0  0  0  0  0  0  0  0  0  0
   20.3542  -10.6935  -18.2129 C   0  0  1  0  0  0  0  0  0  0  0  0
   19.2243   -9.9669  -18.6011 O   0  0  0  0  0  0  0  0  0  0  0  0
   20.0788  -11.4377  -16.9120 C   0  0  2  0  0  0  0  0  0  0  0  0
   18.8777  -12.2198  -17.0121 N   0  0  0  0  0  0  0  0  0  0  0  0
   20.1790  -10.5484  -15.7593 C   0  0  0  0  0  0  0  0  0  0  0  0
   19.0876  -10.0144  -15.3095 O   0  0  0  0  0  0  0  0  0  0  0  0
   21.3370  -10.1719  -15.0367 N   0  0  0  0  0  0  0  0  0  0  0  0
   22.6720  -10.6212  -15.2949 C   0  0  0  0  0  0  0  0  0  0  0  0
   23.5840   -9.7316  -14.4444 C   0  0  0  0  0  0  0  0  0  0  0  0
   22.6859   -9.3291  -13.2863 C   0  0  0  0  0  0  0  0  0  0  0  0
   21.3302   -9.2643  -13.9077 C   0  0  1  0  0  0  0  0  0  0  0  0
   20.9655   -7.8874  -14.3324 C   0  0  0  0  0  0  0  0  0  0  0  0
   20.5948   -6.9537  -13.3898 O   0  0  0  0  0  0  0  0  0  0  0  0
   20.9946   -7.5758  -15.5370 O   0  0  0  0  0  0  0  0  0  0  0  0
  2  1  1  1
  3  2  1  0
  3  4  1  0
  4  5  1  0
  5  6  2  0
  5  9  1  0
  7  2  1  0
  7  8  2  0
 11 10  1  6
 11 13  1  0
 12 11  1  0
 13 14  1  6
 13 15  1  0
 14  7  1  0
 15 17  1  0
 16 15  2  0
 17 21  1  0
 17 18  1  0
 18 19  1  0
 20 21  1  0
 20 19  1  0
 21 22  1  6
 22 24  2  0
 22 23  1  0
M  END
$$$$
