ETP.pdb
     RDKit          3D

 24 24  0  0  1  0  0  0  0  0999 V2000
   20.5023  -15.8827  -18.1278 N   0  0  0  0  0  0  0  0  0  0  0  0
   20.3865  -14.5122  -17.7579 C   0  0  1  0  0  0  0  0  0  0  0  0
   19.5609  -14.2253  -16.5542 C   0  0  0  0  0  0  0  0  0  0  0  0
   18.1914  -14.8058  -16.5067 C   0  0  0  0  0  0  0  0  0  0  0  0
   18.0529  -16.1495  -15.9440 C   0  0  0  0  0  0  0  0  0  0  0  0
   18.6150  -16.5355  -14.9036 O   0  0  0  0  0  0  0  0  0  0  0  0
   21.7097  -13.8002  -17.6905 C   0  0  0  0  0  0  0  0  0  0  0  0
   22.7338  -14.4001  -17.2776 O   0  0  0  0  0  0  0  0  0  0  0  0
   17.2402  -17.1200  -16.5784 O   0  0  0  0  0  0  0  0  0  0  0  0
   23.5944  -12.4113  -20.3996 C   0  0  0  0  0  0  0  0  0  0  0  0
   23.5216  -11.2503  -19.4348 C   0  0  1  0  0  0  0  0  0  0  0  0
   22.4857  -10.4350  -19.9014 O   0  0  0  0  0  0  0  0  0  0  0  0
   23.1713  -11.8106  -18.0617 C   0  0  2  0  0  0  0  0  0  0  0  0
   21.8811  -12.4426  -18.0789 N   0  0  0  0  0  0  0  0  0  0  0  0
   23.3949  -10.8224  -17.0114 C   0  0  0  0  0  0  0  0  0  0  0  0
   22.3761  -10.1376  -16.5971 O   0  0  0  0  0  0  0  0  0  0  0  0
   24.6067  -10.4927  -16.3574 N   0  0  0  0  0  0  0  0  0  0  0  0
   25.8892  -11.0727  -16.6212 C   0  0  0  0  0  0  0  0  0  0  0  0
   26.9033  -10.2026  -15.8724 C   0  0  0  0  0  0  0  0  0  0  0  0
   26.0862   -9.6382  -14.7219 C   0  0  0  0  0  0  0  0  0  0  0  0
   24.7179   -9.5049  -15.3036 C   0  0  1  0  0  0  0  0  0  0  0  0
   24.4527   -8.1381  -15.8236 C   0  0  0  0  0  0  0  0  0  0  0  0
   24.1393   -7.1199  -14.9501 O   0  0  0  0  0  0  0  0  0  0  0  0
   24.5134   -7.9108  -17.0458 O   0  0  0  0  0  0  0  0  0  0  0  0
  2  1  1  1
  3  2  1  0
  3  4  1  0
  4  5  1  0
  5  6  2  0
  5  9  1  0
  7  2  1  0
  7  8  2  0
 11 10  1  6
 11 13  1  0
 12 11  1  0
 13 14  1  6
 13 15  1  0
 14  7  1  0
 15 17  1  0
 16 15  2  0
 17 21  1  0
 17 18  1  0
 18 19  1  0
 20 21  1  0
 20 19  1  0
 21 22  1  6
 22 24  2  0
 22 23  1  0
M  END
$$$$
