ETP.pdb
     RDKit          3D

 24 24  0  0  1  0  0  0  0  0999 V2000
   18.1401  -15.9274  -16.9886 N   0  0  0  0  0  0  0  0  0  0  0  0
   17.8544  -14.5604  -16.7090 C   0  0  1  0  0  0  0  0  0  0  0  0
   16.9138  -14.3035  -15.5854 C   0  0  0  0  0  0  0  0  0  0  0  0
   15.5713  -14.9420  -15.6544 C   0  0  0  0  0  0  0  0  0  0  0  0
   14.6725  -14.7354  -14.5182 C   0  0  0  0  0  0  0  0  0  0  0  0
   14.5459  -15.5311  -13.5705 O   0  0  0  0  0  0  0  0  0  0  0  0
   19.0873  -13.7071  -16.5902 C   0  0  0  0  0  0  0  0  0  0  0  0
   20.1110  -14.1469  -16.0089 O   0  0  0  0  0  0  0  0  0  0  0  0
   13.8676  -13.5736  -14.4334 O   0  0  0  0  0  0  0  0  0  0  0  0
   20.9046  -11.9185  -19.3353 C   0  0  0  0  0  0  0  0  0  0  0  0
   20.6923  -10.8697  -18.2680 C   0  0  1  0  0  0  0  0  0  0  0  0
   19.5962  -10.1130  -18.6938 O   0  0  0  0  0  0  0  0  0  0  0  0
   20.3589  -11.5922  -16.9685 C   0  0  2  0  0  0  0  0  0  0  0  0
   19.1706  -12.3869  -17.1131 N   0  0  0  0  0  0  0  0  0  0  0  0
   20.3945  -10.6810  -15.8292 C   0  0  0  0  0  0  0  0  0  0  0  0
   19.2891  -10.1007  -15.4829 O   0  0  0  0  0  0  0  0  0  0  0  0
   21.5012  -10.3274  -15.0198 N   0  0  0  0  0  0  0  0  0  0  0  0
   22.8332  -10.8376  -15.1476 C   0  0  0  0  0  0  0  0  0  0  0  0
   23.7058   -9.9575  -14.2473 C   0  0  0  0  0  0  0  0  0  0  0  0
   22.7296   -9.4818  -13.1841 C   0  0  0  0  0  0  0  0  0  0  0  0
   21.4361   -9.3836  -13.9228 C   0  0  1  0  0  0  0  0  0  0  0  0
   21.1680   -8.0080  -14.4178 C   0  0  0  0  0  0  0  0  0  0  0  0
   20.7748   -7.0254  -13.5359 O   0  0  0  0  0  0  0  0  0  0  0  0
   21.2982   -7.7415  -15.6265 O   0  0  0  0  0  0  0  0  0  0  0  0
  2  1  1  1
  3  2  1  0
  3  4  1  0
  4  5  1  0
  5  6  2  0
  5  9  1  0
  7  2  1  0
  7  8  2  0
 11 10  1  6
 11 13  1  0
 12 11  1  0
 13 14  1  6
 13 15  1  0
 14  7  1  0
 15 17  1  0
 16 15  2  0
 17 21  1  0
 17 18  1  0
 18 19  1  0
 20 21  1  0
 20 19  1  0
 21 22  1  6
 22 24  2  0
 22 23  1  0
M  END
$$$$
