ETP.pdb
     RDKit          3D

 24 24  0  0  1  0  0  0  0  0999 V2000
   16.1249   -9.5781  -17.6027 N   0  0  0  0  0  0  0  0  0  0  0  0
   16.8565   -8.5016  -18.1809 C   0  0  1  0  0  0  0  0  0  0  0  0
   16.0742   -7.2808  -18.5135 C   0  0  0  0  0  0  0  0  0  0  0  0
   15.2986   -6.6422  -17.4156 C   0  0  0  0  0  0  0  0  0  0  0  0
   15.5807   -5.2356  -17.1269 C   0  0  0  0  0  0  0  0  0  0  0  0
   15.7871   -4.7813  -15.9874 O   0  0  0  0  0  0  0  0  0  0  0  0
   18.1060   -8.1543  -17.4189 C   0  0  0  0  0  0  0  0  0  0  0  0
   18.1809   -8.3793  -16.1848 O   0  0  0  0  0  0  0  0  0  0  0  0
   15.6361   -4.2793  -18.1696 O   0  0  0  0  0  0  0  0  0  0  0  0
   21.6252   -9.0904  -18.5933 C   0  0  0  0  0  0  0  0  0  0  0  0
   21.6827   -7.6381  -18.1788 C   0  0  1  0  0  0  0  0  0  0  0  0
   21.5982   -6.9025  -19.3650 O   0  0  0  0  0  0  0  0  0  0  0  0
   20.4695   -7.3590  -17.3001 C   0  0  2  0  0  0  0  0  0  0  0  0
   19.2488   -7.5668  -18.0289 N   0  0  0  0  0  0  0  0  0  0  0  0
   20.5994   -6.0831  -16.6038 C   0  0  0  0  0  0  0  0  0  0  0  0
   20.0044   -5.0514  -17.1139 O   0  0  0  0  0  0  0  0  0  0  0  0
   21.3066   -5.8002  -15.4102 N   0  0  0  0  0  0  0  0  0  0  0  0
   22.0446   -6.7447  -14.6266 C   0  0  0  0  0  0  0  0  0  0  0  0
   22.8430   -5.9156  -13.6158 C   0  0  0  0  0  0  0  0  0  0  0  0
   21.9941   -4.6656  -13.4522 C   0  0  0  0  0  0  0  0  0  0  0  0
   21.3783   -4.4882  -14.8004 C   0  0  1  0  0  0  0  0  0  0  0  0
   22.1447   -3.5440  -15.6548 C   0  0  0  0  0  0  0  0  0  0  0  0
   22.0819   -2.1899  -15.4092 O   0  0  0  0  0  0  0  0  0  0  0  0
   22.8433   -3.9733  -16.5912 O   0  0  0  0  0  0  0  0  0  0  0  0
  2  1  1  1
  3  2  1  0
  3  4  1  0
  4  5  1  0
  5  6  2  0
  5  9  1  0
  7  2  1  0
  7  8  2  0
 11 10  1  6
 11 13  1  0
 12 11  1  0
 13 14  1  6
 13 15  1  0
 14  7  1  0
 15 17  1  0
 16 15  2  0
 17 21  1  0
 17 18  1  0
 18 19  1  0
 20 21  1  0
 20 19  1  0
 21 22  1  6
 22 24  2  0
 22 23  1  0
M  END
$$$$
