DWD.pdb
     RDKit          3D

 31 32  0  0  1  0  0  0  0  0999 V2000
   28.1067  -19.9415  -14.2249 N   0  0  0  0  0  0  0  0  0  0  0  0
   27.3428  -21.1835  -14.3501 C   0  0  1  0  0  0  0  0  0  0  0  0
   28.3459  -22.2658  -14.6843 C   0  0  0  0  0  0  0  0  0  0  0  0
   28.8685  -21.9656  -16.0424 C   0  0  0  0  0  0  0  0  0  0  0  0
   28.0694  -21.7093  -17.0017 O   0  0  0  0  0  0  0  0  0  0  0  0
   26.5842  -21.4627  -13.1265 C   0  0  0  0  0  0  0  0  0  0  0  0
   26.1070  -22.6169  -12.9228 O   0  0  0  0  0  0  0  0  0  0  0  0
   30.2203  -21.9469  -16.3382 O   0  0  0  0  0  0  0  0  0  0  0  0
   26.3491  -20.4893  -12.1351 N   0  0  0  0  0  0  0  0  0  0  0  0
   25.4892  -20.7342  -10.9778 C   0  0  1  0  0  0  0  0  0  0  0  0
   26.0514  -19.8750   -9.8489 C   0  0  0  0  0  0  0  0  0  0  0  0
   27.2831  -20.4602   -9.2626 C   0  0  0  0  0  0  0  0  0  0  0  0
   28.1784  -21.3283   -9.8520 C   0  0  0  0  0  0  0  0  0  0  0  0
   29.1694  -21.6372   -9.0059 N   0  0  0  0  0  0  0  0  0  0  0  0
   28.9324  -20.9774   -7.8617 C   0  0  0  0  0  0  0  0  0  0  0  0
   29.6483  -20.9423   -6.6659 C   0  0  0  0  0  0  0  0  0  0  0  0
   29.1854  -20.1658   -5.6171 C   0  0  0  0  0  0  0  0  0  0  0  0
   28.0248  -19.4230   -5.7316 C   0  0  0  0  0  0  0  0  0  0  0  0
   27.3258  -19.4662   -6.9189 C   0  0  0  0  0  0  0  0  0  0  0  0
   27.7778  -20.2404   -7.9802 C   0  0  0  0  0  0  0  0  0  0  0  0
   24.0878  -20.4225  -11.2516 C   0  0  0  0  0  0  0  0  0  0  0  0
   23.7274  -19.2555  -11.5769 O   0  0  0  0  0  0  0  0  0  0  0  0
   23.0976  -21.4154  -11.1595 N   0  0  0  0  0  0  0  0  0  0  0  0
   21.6986  -21.1515  -11.5274 C   0  0  1  0  0  0  0  0  0  0  0  0
   21.3662  -22.1756  -12.5798 C   0  0  0  0  0  0  0  0  0  0  0  0
   21.3448  -21.6778  -13.9534 C   0  0  0  0  0  0  0  0  0  0  0  0
   21.4378  -20.4287  -14.1454 O   0  0  0  0  0  0  0  0  0  0  0  0
   20.8375  -21.2729  -10.3249 C   0  0  0  0  0  0  0  0  0  0  0  0
   21.4229  -21.7433   -9.1416 O   0  0  0  0  0  0  0  0  0  0  0  0
   21.2286  -22.4678  -15.0744 O   0  0  0  0  0  0  0  0  0  0  0  0
   19.6297  -20.9863  -10.2912 O   0  0  0  0  0  0  0  0  0  0  0  0
  2  1  1  1
  2  6  1  0
  2  3  1  0
  3  4  1  0
  4  5  2  0
  4  8  1  0
  6  9  1  0
  6  7  2  0
  9 10  1  0
 10 11  1  1
 11 12  1  0
 12 13  2  0
 14 13  1  0
 15 14  1  0
 16 15  2  0
 17 16  1  0
 18 17  2  0
 18 19  1  0
 19 20  2  0
 20 15  1  0
 20 12  1  0
 21 23  1  0
 21 10  1  0
 22 21  2  0
 24 28  1  0
 24 23  1  0
 24 25  1  6
 26 25  1  0
 27 26  2  0
 28 29  1  0
 30 26  1  0
 31 28  2  0
M  END
$$$$
