DWD.pdb
     RDKit          3D

 31 32  0  0  1  0  0  0  0  0999 V2000
   27.4279  -21.7827  -14.9710 N   0  0  0  0  0  0  0  0  0  0  0  0
   26.5873  -20.7452  -14.3722 C   0  0  1  0  0  0  0  0  0  0  0  0
   25.6693  -20.2571  -15.4714 C   0  0  0  0  0  0  0  0  0  0  0  0
   26.5310  -19.6298  -16.5066 C   0  0  0  0  0  0  0  0  0  0  0  0
   27.3919  -18.7468  -16.1844 O   0  0  0  0  0  0  0  0  0  0  0  0
   25.8623  -21.2605  -13.2062 C   0  0  0  0  0  0  0  0  0  0  0  0
   25.4907  -22.4697  -13.1709 O   0  0  0  0  0  0  0  0  0  0  0  0
   26.4514  -19.9592  -17.8483 O   0  0  0  0  0  0  0  0  0  0  0  0
   25.5459  -20.4613  -12.0895 N   0  0  0  0  0  0  0  0  0  0  0  0
   24.7249  -20.9457  -10.9805 C   0  0  1  0  0  0  0  0  0  0  0  0
   25.2772  -20.2745   -9.7261 C   0  0  0  0  0  0  0  0  0  0  0  0
   26.6963  -20.6335   -9.4800 C   0  0  0  0  0  0  0  0  0  0  0  0
   27.5379  -21.3789  -10.2791 C   0  0  0  0  0  0  0  0  0  0  0  0
   28.7499  -21.4904   -9.7206 N   0  0  0  0  0  0  0  0  0  0  0  0
   28.7121  -20.8223   -8.5574 C   0  0  0  0  0  0  0  0  0  0  0  0
   29.6965  -20.6205   -7.5910 C   0  0  0  0  0  0  0  0  0  0  0  0
   29.4000  -19.8768   -6.4613 C   0  0  0  0  0  0  0  0  0  0  0  0
   28.1447  -19.3291   -6.2715 C   0  0  0  0  0  0  0  0  0  0  0  0
   27.1799  -19.5359   -7.2341 C   0  0  0  0  0  0  0  0  0  0  0  0
   27.4623  -20.2796   -8.3730 C   0  0  0  0  0  0  0  0  0  0  0  0
   23.3055  -20.6549  -11.1721 C   0  0  0  0  0  0  0  0  0  0  0  0
   22.6992  -19.8313  -10.4293 O   0  0  0  0  0  0  0  0  0  0  0  0
   22.5719  -21.2860  -12.1910 N   0  0  0  0  0  0  0  0  0  0  0  0
   21.1927  -20.8903  -12.5122 C   0  0  1  0  0  0  0  0  0  0  0  0
   21.1041  -20.9477  -14.0142 C   0  0  0  0  0  0  0  0  0  0  0  0
   21.5082  -19.7293  -14.7124 C   0  0  0  0  0  0  0  0  0  0  0  0
   21.6794  -18.6725  -14.0345 O   0  0  0  0  0  0  0  0  0  0  0  0
   20.2427  -21.8195  -11.8515 C   0  0  0  0  0  0  0  0  0  0  0  0
   20.7434  -23.0332  -11.3613 O   0  0  0  0  0  0  0  0  0  0  0  0
   21.7202  -19.6339  -16.0689 O   0  0  0  0  0  0  0  0  0  0  0  0
   19.0301  -21.5980  -11.7007 O   0  0  0  0  0  0  0  0  0  0  0  0
  2  1  1  6
  2  6  1  0
  2  3  1  0
  3  4  1  0
  4  5  2  0
  4  8  1  0
  6  9  1  0
  6  7  2  0
  9 10  1  0
 10 11  1  1
 11 12  1  0
 12 13  2  0
 14 13  1  0
 15 14  1  0
 16 15  2  0
 17 16  1  0
 18 17  2  0
 18 19  1  0
 19 20  2  0
 20 15  1  0
 20 12  1  0
 21 23  1  0
 21 10  1  0
 22 21  2  0
 24 28  1  0
 24 23  1  0
 24 25  1  6
 26 25  1  0
 27 26  2  0
 28 29  1  0
 30 26  1  0
 31 28  2  0
M  END
$$$$
