DWD.pdb
     RDKit          3D

 31 32  0  0  1  0  0  0  0  0999 V2000
   25.1172  -20.1398   -7.8340 N   0  0  0  0  0  0  0  0  0  0  0  0
   24.6321  -20.8410   -9.0234 C   0  0  1  0  0  0  0  0  0  0  0  0
   23.1919  -21.2087   -8.7404 C   0  0  0  0  0  0  0  0  0  0  0  0
   23.1383  -21.6955   -7.3376 C   0  0  0  0  0  0  0  0  0  0  0  0
   22.0703  -22.2124   -6.8719 O   0  0  0  0  0  0  0  0  0  0  0  0
   24.7874  -20.0139  -10.2244 C   0  0  0  0  0  0  0  0  0  0  0  0
   24.2004  -18.8960  -10.3078 O   0  0  0  0  0  0  0  0  0  0  0  0
   24.2181  -21.6181   -6.4756 O   0  0  0  0  0  0  0  0  0  0  0  0
   25.5767  -20.4055  -11.3242 N   0  0  0  0  0  0  0  0  0  0  0  0
   25.7322  -19.5757  -12.5183 C   0  0  1  0  0  0  0  0  0  0  0  0
   27.1712  -19.7779  -12.9845 C   0  0  0  0  0  0  0  0  0  0  0  0
   27.4857  -18.9710  -14.1900 C   0  0  0  0  0  0  0  0  0  0  0  0
   27.3083  -17.6163  -14.3790 C   0  0  0  0  0  0  0  0  0  0  0  0
   27.7101  -17.2497  -15.6028 N   0  0  0  0  0  0  0  0  0  0  0  0
   28.1517  -18.3554  -16.2217 C   0  0  0  0  0  0  0  0  0  0  0  0
   28.6785  -18.5345  -17.5000 C   0  0  0  0  0  0  0  0  0  0  0  0
   29.0704  -19.7994  -17.9045 C   0  0  0  0  0  0  0  0  0  0  0  0
   28.9495  -20.8911  -17.0648 C   0  0  0  0  0  0  0  0  0  0  0  0
   28.4270  -20.7013  -15.8034 C   0  0  0  0  0  0  0  0  0  0  0  0
   28.0296  -19.4381  -15.3831 C   0  0  0  0  0  0  0  0  0  0  0  0
   24.7693  -19.9196  -13.5627 C   0  0  0  0  0  0  0  0  0  0  0  0
   24.4709  -21.1230  -13.8083 O   0  0  0  0  0  0  0  0  0  0  0  0
   24.1466  -18.9180  -14.3267 N   0  0  0  0  0  0  0  0  0  0  0  0
   23.1482  -19.2377  -15.3577 C   0  0  1  0  0  0  0  0  0  0  0  0
   21.9546  -18.3796  -15.0323 C   0  0  0  0  0  0  0  0  0  0  0  0
   20.6558  -19.0347  -15.1711 C   0  0  0  0  0  0  0  0  0  0  0  0
   20.6261  -20.2458  -15.5426 O   0  0  0  0  0  0  0  0  0  0  0  0
   23.7092  -18.9446  -16.7001 C   0  0  0  0  0  0  0  0  0  0  0  0
   23.7850  -19.9951  -17.6247 O   0  0  0  0  0  0  0  0  0  0  0  0
   19.4418  -18.4333  -14.9287 O   0  0  0  0  0  0  0  0  0  0  0  0
   24.1181  -17.8303  -17.0650 O   0  0  0  0  0  0  0  0  0  0  0  0
  2  1  1  1
  2  6  1  0
  2  3  1  0
  3  4  1  0
  4  5  2  0
  4  8  1  0
  6  9  1  0
  6  7  2  0
  9 10  1  0
 10 11  1  6
 11 12  1  0
 12 13  2  0
 14 13  1  0
 15 14  1  0
 16 15  2  0
 17 16  1  0
 18 17  2  0
 18 19  1  0
 19 20  2  0
 20 15  1  0
 20 12  1  0
 21 23  1  0
 21 10  1  0
 22 21  2  0
 24 28  1  0
 24 23  1  0
 24 25  1  1
 26 25  1  0
 27 26  2  0
 28 29  1  0
 30 26  1  0
 31 28  2  0
M  END
$$$$
