DWD.pdb
     RDKit          3D

 31 32  0  0  1  0  0  0  0  0999 V2000
   23.3334  -10.5687  -20.5862 N   0  0  0  0  0  0  0  0  0  0  0  0
   23.1606   -9.1192  -20.4835 C   0  0  1  0  0  0  0  0  0  0  0  0
   21.8228   -8.8062  -21.1174 C   0  0  0  0  0  0  0  0  0  0  0  0
   21.9719   -9.0389  -22.5773 C   0  0  0  0  0  0  0  0  0  0  0  0
   21.0553   -9.6317  -23.2355 O   0  0  0  0  0  0  0  0  0  0  0  0
   23.2529   -8.6736  -19.0894 C   0  0  0  0  0  0  0  0  0  0  0  0
   22.7352   -9.3649  -18.1645 O   0  0  0  0  0  0  0  0  0  0  0  0
   23.0871   -8.6357  -23.2906 O   0  0  0  0  0  0  0  0  0  0  0  0
   23.9045   -7.4831  -18.7099 N   0  0  0  0  0  0  0  0  0  0  0  0
   24.0244   -7.0600  -17.3152 C   0  0  1  0  0  0  0  0  0  0  0  0
   25.4522   -6.5457  -17.1547 C   0  0  0  0  0  0  0  0  0  0  0  0
   26.4464   -7.6478  -17.1631 C   0  0  0  0  0  0  0  0  0  0  0  0
   27.6025   -7.7473  -17.9088 C   0  0  0  0  0  0  0  0  0  0  0  0
   28.2428   -8.8932  -17.6440 N   0  0  0  0  0  0  0  0  0  0  0  0
   27.5153   -9.5500  -16.7275 C   0  0  0  0  0  0  0  0  0  0  0  0
   27.7279  -10.7803  -16.1072 C   0  0  0  0  0  0  0  0  0  0  0  0
   26.8122  -11.2417  -15.1766 C   0  0  0  0  0  0  0  0  0  0  0  0
   25.6885  -10.5056  -14.8494 C   0  0  0  0  0  0  0  0  0  0  0  0
   25.4893   -9.2908  -15.4697 C   0  0  0  0  0  0  0  0  0  0  0  0
   26.3992   -8.8144  -16.4052 C   0  0  0  0  0  0  0  0  0  0  0  0
   23.0373   -6.0436  -16.9566 C   0  0  0  0  0  0  0  0  0  0  0  0
   22.8290   -5.0418  -17.6985 O   0  0  0  0  0  0  0  0  0  0  0  0
   22.2898   -6.1517  -15.7715 N   0  0  0  0  0  0  0  0  0  0  0  0
   21.3025   -5.1340  -15.3822 C   0  0  1  0  0  0  0  0  0  0  0  0
   20.0676   -5.9062  -15.0006 C   0  0  0  0  0  0  0  0  0  0  0  0
   18.8775   -5.0978  -14.7450 C   0  0  0  0  0  0  0  0  0  0  0  0
   19.0024   -4.0363  -14.0644 O   0  0  0  0  0  0  0  0  0  0  0  0
   21.8378   -4.3272  -14.2575 C   0  0  0  0  0  0  0  0  0  0  0  0
   21.7525   -2.9314  -14.3504 O   0  0  0  0  0  0  0  0  0  0  0  0
   17.6107   -5.4009  -15.1893 O   0  0  0  0  0  0  0  0  0  0  0  0
   22.3584   -4.8020  -13.2350 O   0  0  0  0  0  0  0  0  0  0  0  0
  2  1  1  1
  2  6  1  0
  2  3  1  0
  3  4  1  0
  4  5  2  0
  4  8  1  0
  6  9  1  0
  6  7  2  0
  9 10  1  0
 10 11  1  6
 11 12  1  0
 12 13  2  0
 14 13  1  0
 15 14  1  0
 16 15  2  0
 17 16  1  0
 18 17  2  0
 18 19  1  0
 19 20  2  0
 20 15  1  0
 20 12  1  0
 21 23  1  0
 21 10  1  0
 22 21  2  0
 24 28  1  0
 24 23  1  0
 24 25  1  1
 26 25  1  0
 27 26  2  0
 28 29  1  0
 30 26  1  0
 31 28  2  0
M  END
$$$$
