DWD.pdb
     RDKit          3D

 31 32  0  0  1  0  0  0  0  0999 V2000
   28.5089  -22.6499  -16.2238 N   0  0  0  0  0  0  0  0  0  0  0  0
   27.8402  -21.4061  -15.8399 C   0  0  1  0  0  0  0  0  0  0  0  0
   27.0570  -20.9543  -17.0532 C   0  0  0  0  0  0  0  0  0  0  0  0
   27.9370  -20.0315  -17.8158 C   0  0  0  0  0  0  0  0  0  0  0  0
   29.2049  -20.1487  -17.7565 O   0  0  0  0  0  0  0  0  0  0  0  0
   26.9988  -21.6027  -14.6549 C   0  0  0  0  0  0  0  0  0  0  0  0
   26.3183  -22.6618  -14.5259 O   0  0  0  0  0  0  0  0  0  0  0  0
   27.4440  -19.0155  -18.6157 O   0  0  0  0  0  0  0  0  0  0  0  0
   26.9017  -20.6501  -13.6210 N   0  0  0  0  0  0  0  0  0  0  0  0
   25.9736  -20.7949  -12.5001 C   0  0  1  0  0  0  0  0  0  0  0  0
   26.4396  -19.8017  -11.4394 C   0  0  0  0  0  0  0  0  0  0  0  0
   27.5716  -20.3309  -10.6384 C   0  0  0  0  0  0  0  0  0  0  0  0
   28.7312  -20.9255  -11.0905 C   0  0  0  0  0  0  0  0  0  0  0  0
   29.5181  -21.2752  -10.0648 N   0  0  0  0  0  0  0  0  0  0  0  0
   28.8837  -20.9144   -8.9388 C   0  0  0  0  0  0  0  0  0  0  0  0
   29.2577  -21.0428   -7.6019 C   0  0  0  0  0  0  0  0  0  0  0  0
   28.4108  -20.5785   -6.6097 C   0  0  0  0  0  0  0  0  0  0  0  0
   27.1989  -19.9888   -6.9184 C   0  0  0  0  0  0  0  0  0  0  0  0
   26.8403  -19.8678   -8.2439 C   0  0  0  0  0  0  0  0  0  0  0  0
   27.6794  -20.3286   -9.2506 C   0  0  0  0  0  0  0  0  0  0  0  0
   24.5862  -20.5582  -12.8939 C   0  0  0  0  0  0  0  0  0  0  0  0
   24.2261  -19.4548  -13.3942 O   0  0  0  0  0  0  0  0  0  0  0  0
   23.6095  -21.5545  -12.7258 N   0  0  0  0  0  0  0  0  0  0  0  0
   22.2132  -21.3486  -13.1379 C   0  0  1  0  0  0  0  0  0  0  0  0
   21.6021  -22.7243  -13.1667 C   0  0  0  0  0  0  0  0  0  0  0  0
   20.1831  -22.7721  -13.5125 C   0  0  0  0  0  0  0  0  0  0  0  0
   19.7469  -21.9674  -14.3888 O   0  0  0  0  0  0  0  0  0  0  0  0
   21.5378  -20.4474  -12.1714 C   0  0  0  0  0  0  0  0  0  0  0  0
   21.9447  -20.4968  -10.8312 O   0  0  0  0  0  0  0  0  0  0  0  0
   19.2662  -23.6331  -12.9538 O   0  0  0  0  0  0  0  0  0  0  0  0
   20.6337  -19.6486  -12.4658 O   0  0  0  0  0  0  0  0  0  0  0  0
  2  1  1  6
  2  6  1  0
  2  3  1  0
  3  4  1  0
  4  5  2  0
  4  8  1  0
  6  9  1  0
  6  7  2  0
  9 10  1  0
 10 11  1  1
 11 12  1  0
 12 13  2  0
 14 13  1  0
 15 14  1  0
 16 15  2  0
 17 16  1  0
 18 17  2  0
 18 19  1  0
 19 20  2  0
 20 15  1  0
 20 12  1  0
 21 23  1  0
 21 10  1  0
 22 21  2  0
 24 28  1  0
 24 23  1  0
 24 25  1  1
 26 25  1  0
 27 26  2  0
 28 29  1  0
 30 26  1  0
 31 28  2  0
M  END
$$$$
