DWD.pdb
     RDKit          3D

 31 32  0  0  1  0  0  0  0  0999 V2000
   28.4420  -22.4633  -15.6199 N   0  0  0  0  0  0  0  0  0  0  0  0
   27.2991  -21.5504  -15.6648 C   0  0  1  0  0  0  0  0  0  0  0  0
   26.5890  -21.8248  -16.9725 C   0  0  0  0  0  0  0  0  0  0  0  0
   27.5143  -21.4150  -18.0604 C   0  0  0  0  0  0  0  0  0  0  0  0
   27.7153  -22.1781  -19.0614 O   0  0  0  0  0  0  0  0  0  0  0  0
   26.4340  -21.7290  -14.4941 C   0  0  0  0  0  0  0  0  0  0  0  0
   25.6203  -22.6970  -14.4455 O   0  0  0  0  0  0  0  0  0  0  0  0
   28.1956  -20.2105  -18.0509 O   0  0  0  0  0  0  0  0  0  0  0  0
   26.4578  -20.8573  -13.3871 N   0  0  0  0  0  0  0  0  0  0  0  0
   25.5129  -20.9674  -12.2764 C   0  0  1  0  0  0  0  0  0  0  0  0
   26.0465  -20.0498  -11.1800 C   0  0  0  0  0  0  0  0  0  0  0  0
   27.2609  -20.6038  -10.5307 C   0  0  0  0  0  0  0  0  0  0  0  0
   28.2773  -21.3361  -11.1078 C   0  0  0  0  0  0  0  0  0  0  0  0
   29.2051  -21.6616  -10.1987 N   0  0  0  0  0  0  0  0  0  0  0  0
   28.8061  -21.1478   -9.0251 C   0  0  0  0  0  0  0  0  0  0  0  0
   29.3990  -21.1898   -7.7640 C   0  0  0  0  0  0  0  0  0  0  0  0
   28.7753  -20.5664   -6.6965 C   0  0  0  0  0  0  0  0  0  0  0  0
   27.5734  -19.9017   -6.8559 C   0  0  0  0  0  0  0  0  0  0  0  0
   26.9969  -19.8675   -8.1077 C   0  0  0  0  0  0  0  0  0  0  0  0
   27.6108  -20.4880   -9.1884 C   0  0  0  0  0  0  0  0  0  0  0  0
   24.1510  -20.6104  -12.6686 C   0  0  0  0  0  0  0  0  0  0  0  0
   23.9138  -19.5609  -13.3317 O   0  0  0  0  0  0  0  0  0  0  0  0
   23.0626  -21.4270  -12.3172 N   0  0  0  0  0  0  0  0  0  0  0  0
   21.6886  -21.1083  -12.7325 C   0  0  1  0  0  0  0  0  0  0  0  0
   21.0849  -22.4241  -13.1462 C   0  0  0  0  0  0  0  0  0  0  0  0
   19.6748  -22.3743  -13.5262 C   0  0  0  0  0  0  0  0  0  0  0  0
   19.2696  -21.3938  -14.2190 O   0  0  0  0  0  0  0  0  0  0  0  0
   20.9609  -20.4803  -11.6018 C   0  0  0  0  0  0  0  0  0  0  0  0
   21.4943  -20.6269  -10.3141 O   0  0  0  0  0  0  0  0  0  0  0  0
   18.7349  -23.3204  -13.1860 O   0  0  0  0  0  0  0  0  0  0  0  0
   19.9085  -19.8310  -11.7148 O   0  0  0  0  0  0  0  0  0  0  0  0
  2  1  1  1
  2  6  1  0
  2  3  1  0
  3  4  1  0
  4  5  2  0
  4  8  1  0
  6  9  1  0
  6  7  2  0
  9 10  1  0
 10 11  1  1
 11 12  1  0
 12 13  2  0
 14 13  1  0
 15 14  1  0
 16 15  2  0
 17 16  1  0
 18 17  2  0
 18 19  1  0
 19 20  2  0
 20 15  1  0
 20 12  1  0
 21 23  1  0
 21 10  1  0
 22 21  2  0
 24 28  1  0
 24 23  1  0
 24 25  1  1
 26 25  1  0
 27 26  2  0
 28 29  1  0
 30 26  1  0
 31 28  2  0
M  END
$$$$
