DWD.pdb
     RDKit          3D

 31 32  0  0  1  0  0  0  0  0999 V2000
   18.4730  -13.5192  -17.1683 N   0  0  0  0  0  0  0  0  0  0  0  0
   18.6226  -12.2486  -17.8788 C   0  0  1  0  0  0  0  0  0  0  0  0
   17.4461  -12.1515  -18.8252 C   0  0  0  0  0  0  0  0  0  0  0  0
   17.6741  -13.1504  -19.9013 C   0  0  0  0  0  0  0  0  0  0  0  0
   18.7894  -13.1959  -20.5168 O   0  0  0  0  0  0  0  0  0  0  0  0
   18.6979  -11.1242  -16.9403 C   0  0  0  0  0  0  0  0  0  0  0  0
   17.7264  -10.8721  -16.1696 O   0  0  0  0  0  0  0  0  0  0  0  0
   16.7129  -14.0673  -20.2888 O   0  0  0  0  0  0  0  0  0  0  0  0
   19.8245  -10.2829  -16.8456 N   0  0  0  0  0  0  0  0  0  0  0  0
   19.8780   -9.1358  -15.9402 C   0  0  1  0  0  0  0  0  0  0  0  0
   21.3578   -8.8968  -15.6538 C   0  0  0  0  0  0  0  0  0  0  0  0
   21.5702   -7.7511  -14.7343 C   0  0  0  0  0  0  0  0  0  0  0  0
   21.3930   -7.7112  -13.3670 C   0  0  0  0  0  0  0  0  0  0  0  0
   21.6852   -6.4967  -12.8843 N   0  0  0  0  0  0  0  0  0  0  0  0
   22.0542   -5.7355  -13.9259 C   0  0  0  0  0  0  0  0  0  0  0  0
   22.4590   -4.4025  -13.9813 C   0  0  0  0  0  0  0  0  0  0  0  0
   22.7963   -3.8430  -15.2021 C   0  0  0  0  0  0  0  0  0  0  0  0
   22.7395   -4.5807  -16.3701 C   0  0  0  0  0  0  0  0  0  0  0  0
   22.3376   -5.8976  -16.3023 C   0  0  0  0  0  0  0  0  0  0  0  0
   21.9962   -6.4731  -15.0848 C   0  0  0  0  0  0  0  0  0  0  0  0
   19.2360   -7.9512  -16.5064 C   0  0  0  0  0  0  0  0  0  0  0  0
   19.4561   -7.5932  -17.6984 O   0  0  0  0  0  0  0  0  0  0  0  0
   18.3531   -7.1734  -15.7380 N   0  0  0  0  0  0  0  0  0  0  0  0
   17.7460   -5.9420  -16.2643 C   0  0  1  0  0  0  0  0  0  0  0  0
   16.2847   -6.0407  -15.9154 C   0  0  0  0  0  0  0  0  0  0  0  0
   15.5299   -7.0469  -16.6592 C   0  0  0  0  0  0  0  0  0  0  0  0
   15.7366   -7.1596  -17.9043 O   0  0  0  0  0  0  0  0  0  0  0  0
   18.3993   -4.7621  -15.6448 C   0  0  0  0  0  0  0  0  0  0  0  0
   19.2694   -4.9820  -14.5683 O   0  0  0  0  0  0  0  0  0  0  0  0
   14.5962   -7.8952  -16.1090 O   0  0  0  0  0  0  0  0  0  0  0  0
   18.2298   -3.5885  -16.0132 O   0  0  0  0  0  0  0  0  0  0  0  0
  2  1  1  1
  2  6  1  0
  2  3  1  0
  3  4  1  0
  4  5  2  0
  4  8  1  0
  6  9  1  0
  6  7  2  0
  9 10  1  0
 10 11  1  6
 11 12  1  0
 12 13  2  0
 14 13  1  0
 15 14  1  0
 16 15  2  0
 17 16  1  0
 18 17  2  0
 18 19  1  0
 19 20  2  0
 20 15  1  0
 20 12  1  0
 21 23  1  0
 21 10  1  0
 22 21  2  0
 24 28  1  0
 24 23  1  0
 24 25  1  1
 26 25  1  0
 27 26  2  0
 28 29  1  0
 30 26  1  0
 31 28  2  0
M  END
$$$$
