KMD.pdb
     RDKit          3D

 26 25  0  0  1  0  0  0  0  0999 V2000
    8.3244  -14.7746   19.1200 N   0  0  0  0  0  0  0  0  0  0  0  0
    7.5884  -15.2591   20.2591 C   0  0  1  0  0  0  0  0  0  0  0  0
    7.3343  -16.7478   20.1863 C   0  0  0  0  0  0  0  0  0  0  0  0
    7.1064  -17.2193   18.7771 C   0  0  0  0  0  0  0  0  0  0  0  0
    7.5086  -18.6620   18.5820 C   0  0  0  0  0  0  0  0  0  0  0  0
    6.4693  -19.5324   19.2649 C   0  0  0  0  0  0  0  0  0  0  0  0
    6.8025  -20.9207   19.0171 N   0  0  0  0  0  0  0  0  0  0  0  0
    8.3561  -15.0082   21.5144 C   0  0  0  0  0  0  0  0  0  0  0  0
    9.6272  -15.0878   21.5326 O   0  0  0  0  0  0  0  0  0  0  0  0
    5.6332  -12.1594   27.1141 C   0  0  0  0  0  0  0  0  0  0  0  0
    7.4073  -11.8753   27.0308 S   0  0  0  0  0  0  0  0  0  0  0  0
    8.2722  -13.2468   26.1957 C   0  0  0  0  0  0  0  0  0  0  0  0
    7.6710  -13.5245   24.8518 C   0  0  0  0  0  0  0  0  0  0  0  0
    8.4981  -14.3541   23.9302 C   0  0  2  0  0  0  0  0  0  0  0  0
    7.7234  -14.6761   22.7237 N   0  0  0  0  0  0  0  0  0  0  0  0
    8.9239  -15.6108   24.5799 C   0  0  0  0  0  0  0  0  0  0  0  0
    8.0615  -16.5516   24.7293 O   0  0  0  0  0  0  0  0  0  0  0  0
   10.2078  -15.9090   25.0630 N   0  0  0  0  0  0  0  0  0  0  0  0
   10.5288  -17.2573   25.5962 C   0  0  1  0  0  0  0  0  0  0  0  0
   12.0388  -17.3459   25.4354 C   0  0  0  0  0  0  0  0  0  0  0  0
   12.4157  -17.6201   24.0495 C   0  0  0  0  0  0  0  0  0  0  0  0
   11.6265  -17.7854   23.1023 O   0  0  0  0  0  0  0  0  0  0  0  0
   10.1411  -17.2329   27.0246 C   0  0  0  0  0  0  0  0  0  0  0  0
   10.0640  -18.3935   27.8072 O   0  0  0  0  0  0  0  0  0  0  0  0
   13.7874  -17.7137   23.7132 O   0  0  0  0  0  0  0  0  0  0  0  0
    9.8525  -16.1559   27.6303 O   0  0  0  0  0  0  0  0  0  0  0  0
  2  1  1  6
  2  3  1  0
  4  3  1  0
  5  4  1  0
  6  5  1  0
  7  6  1  0
  8  2  1  0
  9  8  2  0
 10 11  1  0
 11 12  1  0
 12 13  1  0
 14 13  1  1
 14 15  1  0
 15  8  1  0
 16 14  1  0
 16 17  2  0
 18 16  1  0
 19 20  1  1
 19 18  1  0
 20 21  1  0
 21 25  1  0
 21 22  2  0
 23 19  1  0
 24 23  1  0
 26 23  2  0
M  END
$$$$
