KMD.pdb
     RDKit          3D

 26 25  0  0  1  0  0  0  0  0999 V2000
    7.3590  -17.1685   21.2961 N   0  0  0  0  0  0  0  0  0  0  0  0
    8.1788  -16.0090   21.0561 C   0  0  1  0  0  0  0  0  0  0  0  0
    7.4822  -14.9838   20.1901 C   0  0  0  0  0  0  0  0  0  0  0  0
    8.3734  -14.4583   19.0994 C   0  0  0  0  0  0  0  0  0  0  0  0
    7.6675  -13.4613   18.2112 C   0  0  0  0  0  0  0  0  0  0  0  0
    8.6409  -13.0292   17.1296 C   0  0  0  0  0  0  0  0  0  0  0  0
    7.9818  -12.0526   16.2860 N   0  0  0  0  0  0  0  0  0  0  0  0
    8.5121  -15.3365   22.3463 C   0  0  0  0  0  0  0  0  0  0  0  0
    9.2473  -14.2967   22.3729 O   0  0  0  0  0  0  0  0  0  0  0  0
    6.1002  -11.5155   25.8217 C   0  0  0  0  0  0  0  0  0  0  0  0
    7.5206  -12.2049   26.6833 S   0  0  0  0  0  0  0  0  0  0  0  0
    7.3878  -14.0150   26.8631 C   0  0  0  0  0  0  0  0  0  0  0  0
    7.1738  -14.6744   25.5350 C   0  0  0  0  0  0  0  0  0  0  0  0
    8.4037  -15.1559   24.8442 C   0  0  2  0  0  0  0  0  0  0  0  0
    8.0380  -15.8107   23.5806 N   0  0  0  0  0  0  0  0  0  0  0  0
    9.1487  -16.1142   25.6864 C   0  0  0  0  0  0  0  0  0  0  0  0
    9.6277  -15.7084   26.8076 O   0  0  0  0  0  0  0  0  0  0  0  0
    9.3959  -17.4655   25.3970 N   0  0  0  0  0  0  0  0  0  0  0  0
   10.4364  -18.2263   26.1345 C   0  0  1  0  0  0  0  0  0  0  0  0
   11.7353  -17.7257   25.5214 C   0  0  0  0  0  0  0  0  0  0  0  0
   12.1079  -18.5058   24.3422 C   0  0  0  0  0  0  0  0  0  0  0  0
   11.4114  -19.3851   23.8044 O   0  0  0  0  0  0  0  0  0  0  0  0
   10.3160  -17.8125   27.5506 C   0  0  0  0  0  0  0  0  0  0  0  0
   10.5310  -18.6962   28.6175 O   0  0  0  0  0  0  0  0  0  0  0  0
   13.3615  -18.2718   23.7280 O   0  0  0  0  0  0  0  0  0  0  0  0
   10.0087  -16.6282   27.8870 O   0  0  0  0  0  0  0  0  0  0  0  0
  2  1  1  1
  2  3  1  0
  4  3  1  0
  5  4  1  0
  6  5  1  0
  7  6  1  0
  8  2  1  0
  9  8  2  0
 10 11  1  0
 11 12  1  0
 12 13  1  0
 14 13  1  1
 14 15  1  0
 15  8  1  0
 16 14  1  0
 16 17  2  0
 18 16  1  0
 19 20  1  6
 19 18  1  0
 20 21  1  0
 21 25  1  0
 21 22  2  0
 23 19  1  0
 24 23  1  0
 26 23  2  0
M  END
$$$$
