KMD.pdb
     RDKit          3D

 26 25  0  0  1  0  0  0  0  0999 V2000
    8.2601  -14.1673   19.5203 N   0  0  0  0  0  0  0  0  0  0  0  0
    7.5198  -14.9487   20.4770 C   0  0  1  0  0  0  0  0  0  0  0  0
    7.4493  -16.4092   20.0924 C   0  0  0  0  0  0  0  0  0  0  0  0
    7.6405  -16.6202   18.6162 C   0  0  0  0  0  0  0  0  0  0  0  0
    7.4582  -18.0646   18.2140 C   0  0  0  0  0  0  0  0  0  0  0  0
    5.9979  -18.2675   17.8531 C   0  0  0  0  0  0  0  0  0  0  0  0
    5.8167  -19.6447   17.4407 N   0  0  0  0  0  0  0  0  0  0  0  0
    8.1752  -14.8811   21.8164 C   0  0  0  0  0  0  0  0  0  0  0  0
    9.4237  -14.6536   21.9246 O   0  0  0  0  0  0  0  0  0  0  0  0
    6.4632  -10.6865   26.9547 C   0  0  0  0  0  0  0  0  0  0  0  0
    7.1017  -12.3670   26.8976 S   0  0  0  0  0  0  0  0  0  0  0  0
    6.5752  -13.2383   25.3843 C   0  0  0  0  0  0  0  0  0  0  0  0
    7.0901  -14.6450   25.3654 C   0  0  0  0  0  0  0  0  0  0  0  0
    8.1098  -14.9484   24.3214 C   0  0  2  0  0  0  0  0  0  0  0  0
    7.4571  -15.0629   23.0098 N   0  0  0  0  0  0  0  0  0  0  0  0
    8.8198  -16.2094   24.6189 C   0  0  0  0  0  0  0  0  0  0  0  0
    8.2693  -17.3214   24.2853 O   0  0  0  0  0  0  0  0  0  0  0  0
   10.0730  -16.3373   25.2386 N   0  0  0  0  0  0  0  0  0  0  0  0
   10.6966  -17.6711   25.4319 C   0  0  1  0  0  0  0  0  0  0  0  0
   12.0125  -17.5538   24.6780 C   0  0  0  0  0  0  0  0  0  0  0  0
   12.8592  -18.7268   24.8907 C   0  0  0  0  0  0  0  0  0  0  0  0
   12.4949  -19.9120   24.7909 O   0  0  0  0  0  0  0  0  0  0  0  0
   10.9221  -17.8075   26.8885 C   0  0  0  0  0  0  0  0  0  0  0  0
   11.3715  -18.9986   27.4758 O   0  0  0  0  0  0  0  0  0  0  0  0
   14.2178  -18.5424   25.2420 O   0  0  0  0  0  0  0  0  0  0  0  0
   10.7208  -16.8515   27.6982 O   0  0  0  0  0  0  0  0  0  0  0  0
  2  1  1  6
  2  3  1  0
  4  3  1  0
  5  4  1  0
  6  5  1  0
  7  6  1  0
  8  2  1  0
  9  8  2  0
 10 11  1  0
 11 12  1  0
 12 13  1  0
 14 13  1  1
 14 15  1  0
 15  8  1  0
 16 14  1  0
 16 17  2  0
 18 16  1  0
 19 20  1  6
 19 18  1  0
 20 21  1  0
 21 25  1  0
 21 22  2  0
 23 19  1  0
 24 23  1  0
 26 23  2  0
M  END
$$$$
