KMD.pdb
     RDKit          3D

 26 25  0  0  1  0  0  0  0  0999 V2000
    7.4932  -15.8758   20.1632 N   0  0  0  0  0  0  0  0  0  0  0  0
    8.4140  -14.7693   20.2037 C   0  0  1  0  0  0  0  0  0  0  0  0
    7.8887  -13.5591   19.4652 C   0  0  0  0  0  0  0  0  0  0  0  0
    7.2876  -13.9191   18.1351 C   0  0  0  0  0  0  0  0  0  0  0  0
    8.3121  -13.9292   17.0254 C   0  0  0  0  0  0  0  0  0  0  0  0
    7.5909  -14.2442   15.7275 C   0  0  0  0  0  0  0  0  0  0  0  0
    8.5452  -14.1521   14.6410 N   0  0  0  0  0  0  0  0  0  0  0  0
    8.6539  -14.3489   21.6157 C   0  0  0  0  0  0  0  0  0  0  0  0
    9.5090  -13.4472   21.8951 O   0  0  0  0  0  0  0  0  0  0  0  0
    7.2690  -11.2139   27.2666 C   0  0  0  0  0  0  0  0  0  0  0  0
    6.2521  -12.5987   26.7344 S   0  0  0  0  0  0  0  0  0  0  0  0
    7.2629  -14.0611   26.3266 C   0  0  0  0  0  0  0  0  0  0  0  0
    7.0665  -14.4711   24.8991 C   0  0  0  0  0  0  0  0  0  0  0  0
    8.3084  -14.6034   24.0855 C   0  0  2  0  0  0  0  0  0  0  0  0
    7.9576  -14.9195   22.6940 N   0  0  0  0  0  0  0  0  0  0  0  0
    9.1838  -15.6684   24.6165 C   0  0  0  0  0  0  0  0  0  0  0  0
    9.4249  -15.6976   25.8783 O   0  0  0  0  0  0  0  0  0  0  0  0
    9.7978  -16.6921   23.8775 N   0  0  0  0  0  0  0  0  0  0  0  0
   10.6062  -17.7402   24.5507 C   0  0  1  0  0  0  0  0  0  0  0  0
   10.7736  -18.7988   23.4713 C   0  0  0  0  0  0  0  0  0  0  0  0
    9.5587  -19.5958   23.3083 C   0  0  0  0  0  0  0  0  0  0  0  0
    9.4233  -20.5624   22.5371 O   0  0  0  0  0  0  0  0  0  0  0  0
   11.9004  -17.1040   24.8847 C   0  0  0  0  0  0  0  0  0  0  0  0
   12.5249  -16.1730   24.0429 O   0  0  0  0  0  0  0  0  0  0  0  0
    8.4139  -19.2733   24.0756 O   0  0  0  0  0  0  0  0  0  0  0  0
   12.5268  -17.3642   25.9571 O   0  0  0  0  0  0  0  0  0  0  0  0
  2  1  1  1
  2  3  1  0
  4  3  1  0
  5  4  1  0
  6  5  1  0
  7  6  1  0
  8  2  1  0
  9  8  2  0
 10 11  1  0
 11 12  1  0
 12 13  1  0
 14 13  1  1
 14 15  1  0
 15  8  1  0
 16 14  1  0
 16 17  2  0
 18 16  1  0
 19 20  1  6
 19 18  1  0
 20 21  1  0
 21 25  1  0
 21 22  2  0
 23 19  1  0
 24 23  1  0
 26 23  2  0
M  END
$$$$
