KMD.pdb
     RDKit          3D

 26 25  0  0  1  0  0  0  0  0999 V2000
    7.7055  -16.1624   20.9343 N   0  0  0  0  0  0  0  0  0  0  0  0
    8.7897  -15.2209   21.0444 C   0  0  1  0  0  0  0  0  0  0  0  0
    8.5689  -13.9904   20.1941 C   0  0  0  0  0  0  0  0  0  0  0  0
    7.8622  -14.3068   18.9054 C   0  0  0  0  0  0  0  0  0  0  0  0
    8.5798  -13.7412   17.7028 C   0  0  0  0  0  0  0  0  0  0  0  0
    7.7376  -14.0374   16.4752 C   0  0  0  0  0  0  0  0  0  0  0  0
    8.4332  -13.5279   15.3106 N   0  0  0  0  0  0  0  0  0  0  0  0
    8.9289  -14.7567   22.4562 C   0  0  0  0  0  0  0  0  0  0  0  0
    9.8059  -13.8911   22.7783 O   0  0  0  0  0  0  0  0  0  0  0  0
    5.7775  -10.7900   26.6983 C   0  0  0  0  0  0  0  0  0  0  0  0
    6.7286  -12.3132   26.8003 S   0  0  0  0  0  0  0  0  0  0  0  0
    6.3120  -13.4612   25.4457 C   0  0  0  0  0  0  0  0  0  0  0  0
    7.0346  -14.7642   25.6019 C   0  0  0  0  0  0  0  0  0  0  0  0
    8.3398  -14.8713   24.8901 C   0  0  2  0  0  0  0  0  0  0  0  0
    8.1101  -15.2452   23.4877 N   0  0  0  0  0  0  0  0  0  0  0  0
    9.2116  -15.8826   25.5226 C   0  0  0  0  0  0  0  0  0  0  0  0
    9.5140  -15.7475   26.7641 O   0  0  0  0  0  0  0  0  0  0  0  0
    9.7607  -17.0173   24.9047 N   0  0  0  0  0  0  0  0  0  0  0  0
   10.6944  -17.9094   25.6379 C   0  0  1  0  0  0  0  0  0  0  0  0
    9.8984  -19.1963   25.7929 C   0  0  0  0  0  0  0  0  0  0  0  0
   10.1549  -19.8338   27.0836 C   0  0  0  0  0  0  0  0  0  0  0  0
   10.9079  -19.3963   27.9718 O   0  0  0  0  0  0  0  0  0  0  0  0
   11.8589  -18.1021   24.7446 C   0  0  0  0  0  0  0  0  0  0  0  0
   13.1069  -18.5369   25.2123 O   0  0  0  0  0  0  0  0  0  0  0  0
    9.5104  -21.0563   27.3893 O   0  0  0  0  0  0  0  0  0  0  0  0
   11.7990  -17.8837   23.4961 O   0  0  0  0  0  0  0  0  0  0  0  0
  2  1  1  1
  2  3  1  0
  4  3  1  0
  5  4  1  0
  6  5  1  0
  7  6  1  0
  8  2  1  0
  9  8  2  0
 10 11  1  0
 11 12  1  0
 12 13  1  0
 14 13  1  1
 14 15  1  0
 15  8  1  0
 16 14  1  0
 16 17  2  0
 18 16  1  0
 19 20  1  6
 19 18  1  0
 20 21  1  0
 21 25  1  0
 21 22  2  0
 23 19  1  0
 24 23  1  0
 26 23  2  0
M  END
$$$$
