KMD.pdb
     RDKit          3D

 26 25  0  0  1  0  0  0  0  0999 V2000
    7.2629  -15.9110   20.2231 N   0  0  0  0  0  0  0  0  0  0  0  0
    8.3856  -15.0106   20.1699 C   0  0  1  0  0  0  0  0  0  0  0  0
    8.0511  -13.7189   19.4590 C   0  0  0  0  0  0  0  0  0  0  0  0
    7.5170  -13.9522   18.0732 C   0  0  0  0  0  0  0  0  0  0  0  0
    8.4185  -13.3784   17.0059 C   0  0  0  0  0  0  0  0  0  0  0  0
    7.8367  -13.7506   15.6543 C   0  0  0  0  0  0  0  0  0  0  0  0
    8.7254  -13.2551   14.6225 N   0  0  0  0  0  0  0  0  0  0  0  0
    8.8227  -14.6486   21.5505 C   0  0  0  0  0  0  0  0  0  0  0  0
    9.8457  -13.9147   21.7430 O   0  0  0  0  0  0  0  0  0  0  0  0
    6.9147  -12.0257   28.5331 C   0  0  0  0  0  0  0  0  0  0  0  0
    6.7201  -12.3442   26.7737 S   0  0  0  0  0  0  0  0  0  0  0  0
    7.8018  -13.6999   26.2093 C   0  0  0  0  0  0  0  0  0  0  0  0
    7.4899  -14.0854   24.7956 C   0  0  0  0  0  0  0  0  0  0  0  0
    8.5948  -14.7469   24.0450 C   0  0  2  0  0  0  0  0  0  0  0  0
    8.1366  -15.0937   22.6925 N   0  0  0  0  0  0  0  0  0  0  0  0
    9.0464  -15.9748   24.7312 C   0  0  0  0  0  0  0  0  0  0  0  0
    8.2304  -16.9624   24.8302 O   0  0  0  0  0  0  0  0  0  0  0  0
   10.3100  -16.1979   25.3008 N   0  0  0  0  0  0  0  0  0  0  0  0
   10.6345  -17.4901   25.9566 C   0  0  1  0  0  0  0  0  0  0  0  0
   12.1254  -17.6475   25.6991 C   0  0  0  0  0  0  0  0  0  0  0  0
   12.3824  -18.2977   24.4149 C   0  0  0  0  0  0  0  0  0  0  0  0
   12.0286  -17.8701   23.3016 O   0  0  0  0  0  0  0  0  0  0  0  0
   10.3556  -17.2966   27.3974 C   0  0  0  0  0  0  0  0  0  0  0  0
   10.1382  -18.3672   28.2760 O   0  0  0  0  0  0  0  0  0  0  0  0
   13.0924  -19.5219   24.3913 O   0  0  0  0  0  0  0  0  0  0  0  0
   10.2948  -16.1453   27.9274 O   0  0  0  0  0  0  0  0  0  0  0  0
  2  1  1  1
  2  3  1  0
  4  3  1  0
  5  4  1  0
  6  5  1  0
  7  6  1  0
  8  2  1  0
  9  8  2  0
 10 11  1  0
 11 12  1  0
 12 13  1  0
 14 13  1  1
 14 15  1  0
 15  8  1  0
 16 14  1  0
 16 17  2  0
 18 16  1  0
 19 20  1  1
 19 18  1  0
 20 21  1  0
 21 25  1  0
 21 22  2  0
 23 19  1  0
 24 23  1  0
 26 23  2  0
M  END
$$$$
