KMD.pdb
     RDKit          3D

 26 25  0  0  1  0  0  0  0  0999 V2000
    7.7687  -16.8776   20.4385 N   0  0  0  0  0  0  0  0  0  0  0  0
    9.0606  -16.2721   20.6345 C   0  0  1  0  0  0  0  0  0  0  0  0
    9.3107  -15.1316   19.6740 C   0  0  0  0  0  0  0  0  0  0  0  0
    8.0783  -14.7587   18.8979 C   0  0  0  0  0  0  0  0  0  0  0  0
    8.3666  -13.7490   17.8123 C   0  0  0  0  0  0  0  0  0  0  0  0
    7.0953  -13.5552   17.0060 C   0  0  0  0  0  0  0  0  0  0  0  0
    7.3702  -12.6135   15.9396 N   0  0  0  0  0  0  0  0  0  0  0  0
    9.1642  -15.7118   22.0141 C   0  0  0  0  0  0  0  0  0  0  0  0
   10.2225  -15.1198   22.4036 O   0  0  0  0  0  0  0  0  0  0  0  0
    7.4883  -12.1430   28.0805 C   0  0  0  0  0  0  0  0  0  0  0  0
    7.6338  -12.7965   26.4111 S   0  0  0  0  0  0  0  0  0  0  0  0
    6.8792  -14.4506   26.2655 C   0  0  0  0  0  0  0  0  0  0  0  0
    6.9062  -14.9324   24.8472 C   0  0  0  0  0  0  0  0  0  0  0  0
    8.2492  -15.2922   24.3099 C   0  0  2  0  0  0  0  0  0  0  0  0
    8.1130  -15.8081   22.9408 N   0  0  0  0  0  0  0  0  0  0  0  0
    8.9030  -16.3174   25.1492 C   0  0  0  0  0  0  0  0  0  0  0  0
    8.2291  -17.3564   25.4917 O   0  0  0  0  0  0  0  0  0  0  0  0
   10.2231  -16.2902   25.6259 N   0  0  0  0  0  0  0  0  0  0  0  0
   10.7593  -17.4011   26.4528 C   0  0  1  0  0  0  0  0  0  0  0  0
   12.2657  -17.2171   26.3502 C   0  0  0  0  0  0  0  0  0  0  0  0
   12.7786  -17.6954   25.0671 C   0  0  0  0  0  0  0  0  0  0  0  0
   12.1217  -18.3070   24.2059 O   0  0  0  0  0  0  0  0  0  0  0  0
   10.2800  -17.1507   27.8307 C   0  0  0  0  0  0  0  0  0  0  0  0
   10.0926  -18.1793   28.7648 O   0  0  0  0  0  0  0  0  0  0  0  0
   14.1352  -17.4631   24.7367 O   0  0  0  0  0  0  0  0  0  0  0  0
   10.0073  -15.9854   28.2524 O   0  0  0  0  0  0  0  0  0  0  0  0
  2  1  1  6
  2  3  1  0
  4  3  1  0
  5  4  1  0
  6  5  1  0
  7  6  1  0
  8  2  1  0
  9  8  2  0
 10 11  1  0
 11 12  1  0
 12 13  1  0
 14 13  1  1
 14 15  1  0
 15  8  1  0
 16 14  1  0
 16 17  2  0
 18 16  1  0
 19 20  1  1
 19 18  1  0
 20 21  1  0
 21 25  1  0
 21 22  2  0
 23 19  1  0
 24 23  1  0
 26 23  2  0
M  END
$$$$
