VST.pdb
     RDKit          3D

 21 20  0  0  1  0  0  0  0  0999 V2000
   17.8267  -10.3767  -19.8048 C   0  0  0  0  0  0  0  0  0  0  0  0
   18.2363   -9.5454  -18.6090 C   0  0  2  0  0  0  0  0  0  0  0  0
   19.3116   -8.5890  -19.0800 C   0  0  0  0  0  0  0  0  0  0  0  0
   18.7856  -10.4500  -17.5270 C   0  0  2  0  0  0  0  0  0  0  0  0
   17.7814  -11.4107  -17.1136 N   0  0  0  0  0  0  0  0  0  0  0  0
   19.3134   -9.6767  -16.3748 C   0  0  0  0  0  0  0  0  0  0  0  0
   18.5323   -9.0812  -15.5888 O   0  0  0  0  0  0  0  0  0  0  0  0
   22.1168  -10.4012  -13.4872 O   0  0  0  0  0  0  0  0  0  0  0  0
   22.4491   -9.4138  -14.3801 C   0  0  0  0  0  0  0  0  0  0  0  0
   21.2434   -8.7635  -15.0189 C   0  0  2  0  0  0  0  0  0  0  0  0
   20.7032   -9.5640  -16.0944 N   0  0  0  0  0  0  0  0  0  0  0  0
   21.6430   -7.4116  -15.4700 C   0  0  0  0  0  0  0  0  0  0  0  0
   22.2340   -7.1972  -16.5495 O   0  0  0  0  0  0  0  0  0  0  0  0
   19.7859   -4.6563  -16.4370 C   0  0  0  0  0  0  0  0  0  0  0  0
   20.4272   -4.1741  -15.1303 C   0  0  1  0  0  0  0  0  0  0  0  0
   19.5710   -4.5791  -14.0954 O   0  0  0  0  0  0  0  0  0  0  0  0
   21.7218   -4.9534  -14.9291 C   0  0  2  0  0  0  0  0  0  0  0  0
   21.3302   -6.3162  -14.6197 N   0  0  0  0  0  0  0  0  0  0  0  0
   22.3930   -4.4050  -13.7163 C   0  0  0  0  0  0  0  0  0  0  0  0
   23.0246   -3.1620  -13.7253 O   0  0  0  0  0  0  0  0  0  0  0  0
   22.4258   -5.0358  -12.6170 O   0  0  0  0  0  0  0  0  0  0  0  0
  2  1  1  6
  2  4  1  0
  3  2  1  0
  4  5  1  1
  6 11  1  0
  6  4  1  0
  7  6  2  0
  8  9  1  0
 10  9  1  6
 10 11  1  0
 10 12  1  0
 12 18  1  0
 12 13  2  0
 15 16  1  0
 15 14  1  6
 17 15  1  0
 17 18  1  1
 19 17  1  0
 19 20  1  0
 21 19  2  0
M  END
$$$$
