VST.pdb
     RDKit          3D

 21 20  0  0  1  0  0  0  0  0999 V2000
   17.3332  -11.5975  -18.8540 C   0  0  0  0  0  0  0  0  0  0  0  0
   18.5615  -11.5114  -19.7331 C   0  0  2  0  0  0  0  0  0  0  0  0
   18.6888  -12.8389  -20.4501 C   0  0  0  0  0  0  0  0  0  0  0  0
   19.7836  -11.2675  -18.8741 C   0  0  2  0  0  0  0  0  0  0  0  0
   20.0367  -12.4109  -18.0192 N   0  0  0  0  0  0  0  0  0  0  0  0
   19.6678  -10.0113  -18.0915 C   0  0  0  0  0  0  0  0  0  0  0  0
   19.6220   -8.8955  -18.6705 O   0  0  0  0  0  0  0  0  0  0  0  0
   19.2284   -9.9297  -13.7886 O   0  0  0  0  0  0  0  0  0  0  0  0
   18.6730   -8.9999  -14.6310 C   0  0  0  0  0  0  0  0  0  0  0  0
   19.4828   -8.7823  -15.8886 C   0  0  2  0  0  0  0  0  0  0  0  0
   19.6028   -9.9919  -16.6708 N   0  0  0  0  0  0  0  0  0  0  0  0
   20.7998   -8.2365  -15.4911 C   0  0  0  0  0  0  0  0  0  0  0  0
   21.8075   -8.9502  -15.3017 O   0  0  0  0  0  0  0  0  0  0  0  0
   22.7647   -5.9704  -17.3365 C   0  0  0  0  0  0  0  0  0  0  0  0
   22.4501   -5.1782  -16.0619 C   0  0  1  0  0  0  0  0  0  0  0  0
   21.2470   -4.4986  -16.3043 O   0  0  0  0  0  0  0  0  0  0  0  0
   22.1473   -6.1785  -14.9521 C   0  0  2  0  0  0  0  0  0  0  0  0
   20.9035   -6.8290  -15.3216 N   0  0  0  0  0  0  0  0  0  0  0  0
   21.8823   -5.4025  -13.7073 C   0  0  0  0  0  0  0  0  0  0  0  0
   20.6077   -5.3254  -13.1474 O   0  0  0  0  0  0  0  0  0  0  0  0
   22.7966   -4.7740  -13.0936 O   0  0  0  0  0  0  0  0  0  0  0  0
  2  1  1  1
  2  4  1  0
  3  2  1  0
  4  5  1  1
  6 11  1  0
  6  4  1  0
  7  6  2  0
  8  9  1  0
 10  9  1  1
 10 11  1  0
 10 12  1  0
 12 18  1  0
 12 13  2  0
 15 16  1  0
 15 14  1  6
 17 15  1  0
 17 18  1  6
 19 17  1  0
 19 20  1  0
 21 19  2  0
M  END
$$$$
