VST.pdb
     RDKit          3D

 21 20  0  0  1  0  0  0  0  0999 V2000
   16.5115   -9.6382  -16.8248 C   0  0  0  0  0  0  0  0  0  0  0  0
   17.5241  -10.4984  -17.5484 C   0  0  2  0  0  0  0  0  0  0  0  0
   16.7529  -11.3825  -18.5057 C   0  0  0  0  0  0  0  0  0  0  0  0
   18.2738  -11.3501  -16.5467 C   0  0  2  0  0  0  0  0  0  0  0  0
   17.3525  -12.1948  -15.8119 N   0  0  0  0  0  0  0  0  0  0  0  0
   19.1096  -10.5270  -15.6368 C   0  0  0  0  0  0  0  0  0  0  0  0
   18.6584  -10.1327  -14.5307 O   0  0  0  0  0  0  0  0  0  0  0  0
   23.4459   -8.9774  -14.1940 O   0  0  0  0  0  0  0  0  0  0  0  0
   22.6865   -9.7240  -15.0592 C   0  0  0  0  0  0  0  0  0  0  0  0
   21.2450   -9.2734  -15.1213 C   0  0  2  0  0  0  0  0  0  0  0  0
   20.4420  -10.1420  -15.9520 N   0  0  0  0  0  0  0  0  0  0  0  0
   21.2283   -7.8707  -15.5931 C   0  0  0  0  0  0  0  0  0  0  0  0
   21.4405   -7.5454  -16.7805 O   0  0  0  0  0  0  0  0  0  0  0  0
   18.5414   -5.4764  -15.4283 C   0  0  0  0  0  0  0  0  0  0  0  0
   19.6240   -4.8887  -14.5151 C   0  0  1  0  0  0  0  0  0  0  0  0
   19.3974   -5.4221  -13.2375 O   0  0  0  0  0  0  0  0  0  0  0  0
   20.9694   -5.4454  -14.9664 C   0  0  2  0  0  0  0  0  0  0  0  0
   20.9555   -6.8581  -14.6335 N   0  0  0  0  0  0  0  0  0  0  0  0
   22.0240   -4.8086  -14.1270 C   0  0  0  0  0  0  0  0  0  0  0  0
   22.3489   -3.4587  -14.2552 O   0  0  0  0  0  0  0  0  0  0  0  0
   22.6790   -5.4565  -13.2560 O   0  0  0  0  0  0  0  0  0  0  0  0
  2  1  1  1
  2  4  1  0
  3  2  1  0
  4  5  1  1
  6 11  1  0
  6  4  1  0
  7  6  2  0
  8  9  1  0
 10  9  1  6
 10 11  1  0
 10 12  1  0
 12 18  1  0
 12 13  2  0
 15 16  1  0
 15 14  1  6
 17 15  1  0
 17 18  1  1
 19 17  1  0
 19 20  1  0
 21 19  2  0
M  END
$$$$
