VST.pdb
     RDKit          3D

 21 20  0  0  1  0  0  0  0  0999 V2000
   18.5246  -11.1687  -19.8157 C   0  0  0  0  0  0  0  0  0  0  0  0
   18.6929  -10.1976  -18.6678 C   0  0  2  0  0  0  0  0  0  0  0  0
   19.6641   -9.1306  -19.1272 C   0  0  0  0  0  0  0  0  0  0  0  0
   19.2543  -10.9259  -17.4657 C   0  0  2  0  0  0  0  0  0  0  0  0
   18.3739  -12.0096  -17.0750 N   0  0  0  0  0  0  0  0  0  0  0  0
   19.5236  -10.0020  -16.3353 C   0  0  0  0  0  0  0  0  0  0  0  0
   18.5792   -9.5363  -15.6472 O   0  0  0  0  0  0  0  0  0  0  0  0
   22.9736  -10.2145  -14.4775 O   0  0  0  0  0  0  0  0  0  0  0  0
   22.0936   -9.3487  -13.8786 C   0  0  0  0  0  0  0  0  0  0  0  0
   21.1245   -8.7211  -14.8542 C   0  0  2  0  0  0  0  0  0  0  0  0
   20.8363   -9.5955  -15.9685 N   0  0  0  0  0  0  0  0  0  0  0  0
   21.6932   -7.4255  -15.2883 C   0  0  0  0  0  0  0  0  0  0  0  0
   22.5155   -7.3176  -16.2226 O   0  0  0  0  0  0  0  0  0  0  0  0
   19.8188   -4.5051  -16.3778 C   0  0  0  0  0  0  0  0  0  0  0  0
   20.5431   -4.0496  -15.1053 C   0  0  1  0  0  0  0  0  0  0  0  0
   19.6898   -4.3522  -14.0336 O   0  0  0  0  0  0  0  0  0  0  0  0
   21.7706   -4.9350  -14.9233 C   0  0  2  0  0  0  0  0  0  0  0  0
   21.2709   -6.2579  -14.5962 N   0  0  0  0  0  0  0  0  0  0  0  0
   22.5099   -4.4387  -13.7278 C   0  0  0  0  0  0  0  0  0  0  0  0
   23.2439   -3.2536  -13.7581 O   0  0  0  0  0  0  0  0  0  0  0  0
   22.5112   -5.0639  -12.6248 O   0  0  0  0  0  0  0  0  0  0  0  0
  2  1  1  6
  2  4  1  0
  3  2  1  0
  4  5  1  1
  6 11  1  0
  6  4  1  0
  7  6  2  0
  8  9  1  0
 10  9  1  1
 10 11  1  0
 10 12  1  0
 12 18  1  0
 12 13  2  0
 15 16  1  0
 15 14  1  6
 17 15  1  0
 17 18  1  1
 19 17  1  0
 19 20  1  0
 21 19  2  0
M  END
$$$$
