VST.pdb
     RDKit          3D

 21 20  0  0  1  0  0  0  0  0999 V2000
   17.2859  -12.5879  -17.8490 C   0  0  0  0  0  0  0  0  0  0  0  0
   17.5762  -11.5588  -16.7787 C   0  0  2  0  0  0  0  0  0  0  0  0
   16.3471  -10.6825  -16.6597 C   0  0  0  0  0  0  0  0  0  0  0  0
   18.7699  -10.7235  -17.1890 C   0  0  2  0  0  0  0  0  0  0  0  0
   19.8533  -11.5765  -17.6374 N   0  0  0  0  0  0  0  0  0  0  0  0
   19.2041   -9.8086  -16.1035 C   0  0  0  0  0  0  0  0  0  0  0  0
   18.3679   -9.0959  -15.4910 O   0  0  0  0  0  0  0  0  0  0  0  0
   23.3139   -9.3926  -15.0123 O   0  0  0  0  0  0  0  0  0  0  0  0
   22.3317   -9.1845  -14.0772 C   0  0  0  0  0  0  0  0  0  0  0  0
   21.0159   -8.7571  -14.6861 C   0  0  2  0  0  0  0  0  0  0  0  0
   20.5616   -9.6840  -15.6979 N   0  0  0  0  0  0  0  0  0  0  0  0
   21.1855   -7.3854  -15.2154 C   0  0  0  0  0  0  0  0  0  0  0  0
   21.4609   -7.1417  -16.4093 O   0  0  0  0  0  0  0  0  0  0  0  0
   18.9260   -4.7381  -15.5041 C   0  0  0  0  0  0  0  0  0  0  0  0
   19.9274   -4.1992  -14.4754 C   0  0  1  0  0  0  0  0  0  0  0  0
   19.4627   -4.6099  -13.2170 O   0  0  0  0  0  0  0  0  0  0  0  0
   21.2516   -4.9239  -14.6875 C   0  0  2  0  0  0  0  0  0  0  0  0
   21.0230   -6.3054  -14.3055 N   0  0  0  0  0  0  0  0  0  0  0  0
   22.2337   -4.3590  -13.7186 C   0  0  0  0  0  0  0  0  0  0  0  0
   22.7647   -3.0791  -13.8733 O   0  0  0  0  0  0  0  0  0  0  0  0
   22.6370   -5.0084  -12.7071 O   0  0  0  0  0  0  0  0  0  0  0  0
  2  1  1  6
  2  4  1  0
  3  2  1  0
  4  5  1  1
  6 11  1  0
  6  4  1  0
  7  6  2  0
  8  9  1  0
 10  9  1  6
 10 11  1  0
 10 12  1  0
 12 18  1  0
 12 13  2  0
 15 16  1  0
 15 14  1  6
 17 15  1  0
 17 18  1  1
 19 17  1  0
 19 20  1  0
 21 19  2  0
M  END
$$$$
