VST.pdb
     RDKit          3D

 21 20  0  0  1  0  0  0  0  0999 V2000
   17.6419  -11.0377  -19.4000 C   0  0  0  0  0  0  0  0  0  0  0  0
   18.1274  -10.1595  -18.2677 C   0  0  2  0  0  0  0  0  0  0  0  0
   18.8017   -8.9577  -18.8952 C   0  0  0  0  0  0  0  0  0  0  0  0
   19.1199  -10.9266  -17.4209 C   0  0  2  0  0  0  0  0  0  0  0  0
   18.5110  -12.1341  -16.8980 N   0  0  0  0  0  0  0  0  0  0  0  0
   19.6898  -10.0856  -16.3384 C   0  0  0  0  0  0  0  0  0  0  0  0
   19.0265   -9.8413  -15.2978 O   0  0  0  0  0  0  0  0  0  0  0  0
   22.7608  -10.5517  -14.2183 O   0  0  0  0  0  0  0  0  0  0  0  0
   22.9129   -9.3672  -14.8939 C   0  0  0  0  0  0  0  0  0  0  0  0
   21.5987   -8.7643  -15.3346 C   0  0  2  0  0  0  0  0  0  0  0  0
   20.9916   -9.5169  -16.4090 N   0  0  0  0  0  0  0  0  0  0  0  0
   21.8491   -7.3540  -15.7073 C   0  0  0  0  0  0  0  0  0  0  0  0
   22.3973   -7.0159  -16.7778 O   0  0  0  0  0  0  0  0  0  0  0  0
   19.5287   -4.7878  -16.2640 C   0  0  0  0  0  0  0  0  0  0  0  0
   20.2891   -4.2794  -15.0334 C   0  0  1  0  0  0  0  0  0  0  0  0
   19.6170   -4.7906  -13.9130 O   0  0  0  0  0  0  0  0  0  0  0  0
   21.6649   -4.9357  -15.0293 C   0  0  2  0  0  0  0  0  0  0  0  0
   21.4387   -6.3491  -14.7894 N   0  0  0  0  0  0  0  0  0  0  0  0
   22.4122   -4.4064  -13.8530 C   0  0  0  0  0  0  0  0  0  0  0  0
   22.8948   -3.0989  -13.8174 O   0  0  0  0  0  0  0  0  0  0  0  0
   22.6481   -5.1129  -12.8270 O   0  0  0  0  0  0  0  0  0  0  0  0
  2  1  1  6
  2  4  1  0
  3  2  1  0
  4  5  1  1
  6 11  1  0
  6  4  1  0
  7  6  2  0
  8  9  1  0
 10  9  1  6
 10 11  1  0
 10 12  1  0
 12 18  1  0
 12 13  2  0
 15 16  1  0
 15 14  1  6
 17 15  1  0
 17 18  1  1
 19 17  1  0
 19 20  1  0
 21 19  2  0
M  END
$$$$
