KYM.pdb
     RDKit          3D

 30 30  0  0  1  0  0  0  0  0999 V2000
   25.9881  -36.5315  -12.4398 N   0  0  0  0  0  0  0  0  0  0  0  0
   25.6210  -35.1507  -12.5249 C   0  0  1  0  0  0  0  0  0  0  0  0
   25.0447  -34.8170  -13.8696 C   0  0  0  0  0  0  0  0  0  0  0  0
   26.1876  -34.6226  -14.8446 C   0  0  0  0  0  0  0  0  0  0  0  0
   26.6370  -33.1904  -14.9251 C   0  0  0  0  0  0  0  0  0  0  0  0
   27.6807  -32.9799  -16.0019 C   0  0  0  0  0  0  0  0  0  0  0  0
   28.1484  -31.6031  -16.0236 N   0  0  0  0  0  0  0  0  0  0  0  0
   24.7082  -34.7341  -11.4242 C   0  0  0  0  0  0  0  0  0  0  0  0
   24.3165  -35.6128  -10.6072 O   0  0  0  0  0  0  0  0  0  0  0  0
   28.3338  -33.3787   -6.0853 O   0  0  0  0  0  0  0  0  0  0  0  0
   27.2511  -33.0211   -6.8832 C   0  0  0  0  0  0  0  0  0  0  0  0
   25.9734  -32.9541   -6.3690 C   0  0  0  0  0  0  0  0  0  0  0  0
   24.8921  -32.5992   -7.1560 C   0  0  0  0  0  0  0  0  0  0  0  0
   25.0472  -32.2970   -8.4910 C   0  0  0  0  0  0  0  0  0  0  0  0
   23.9465  -31.9122   -9.3853 C   0  0  0  0  0  0  0  0  0  0  0  0
   23.3872  -33.0317  -10.1999 C   0  0  2  0  0  0  0  0  0  0  0  0
   24.2716  -33.3961  -11.2691 N   0  0  0  0  0  0  0  0  0  0  0  0
   22.1100  -32.5347  -10.8128 C   0  0  0  0  0  0  0  0  0  0  0  0
   21.2013  -32.0760  -10.0975 O   0  0  0  0  0  0  0  0  0  0  0  0
   26.3319  -32.3654   -9.0037 C   0  0  0  0  0  0  0  0  0  0  0  0
   27.4116  -32.7193   -8.2193 C   0  0  0  0  0  0  0  0  0  0  0  0
   20.9622  -29.5558  -16.8742 C   0  0  0  0  0  0  0  0  0  0  0  0
   19.7591  -30.8899  -16.6368 S   0  0  0  0  0  0  0  0  0  0  0  0
   19.6019  -31.2790  -14.9034 C   0  0  0  0  0  0  0  0  0  0  0  0
   20.8135  -31.7695  -14.2057 C   0  0  0  0  0  0  0  0  0  0  0  0
   20.6468  -32.1182  -12.7930 C   0  0  2  0  0  0  0  0  0  0  0  0
   21.9155  -32.5781  -12.2100 N   0  0  0  0  0  0  0  0  0  0  0  0
   19.5921  -33.0275  -12.4166 C   0  0  0  0  0  0  0  0  0  0  0  0
   18.4789  -32.5012  -12.0118 O   0  0  0  0  0  0  0  0  0  0  0  0
   19.5792  -34.4041  -12.4268 O   0  0  0  0  0  0  0  0  0  0  0  0
  2  1  1  6
  2  8  1  0
  2  3  1  0
  4  3  1  0
  5  6  1  0
  5  4  1  0
  6  7  1  0
  8  9  2  0
 10 11  1  0
 11 21  2  0
 11 12  1  0
 12 13  2  0
 13 14  1  0
 14 15  1  0
 16 15  1  6
 17 16  1  0
 17  8  1  0
 18 19  2  0
 18 16  1  0
 20 14  2  0
 21 20  1  0
 23 24  1  0
 23 22  1  0
 24 25  1  0
 26 25  1  6
 26 27  1  0
 26 28  1  0
 27 18  1  0
 28 30  1  0
 29 28  2  0
M  END
$$$$
