KYM.pdb
     RDKit          3D

 30 30  0  0  1  0  0  0  0  0999 V2000
   26.3378  -20.1718  -17.5811 N   0  0  0  0  0  0  0  0  0  0  0  0
   26.6862  -20.8785  -16.3862 C   0  0  1  0  0  0  0  0  0  0  0  0
   28.1637  -20.8287  -16.1290 C   0  0  0  0  0  0  0  0  0  0  0  0
   28.8547  -21.7243  -17.1365 C   0  0  0  0  0  0  0  0  0  0  0  0
   28.8585  -23.1673  -16.7151 C   0  0  0  0  0  0  0  0  0  0  0  0
   30.2453  -23.7732  -16.7688 C   0  0  0  0  0  0  0  0  0  0  0  0
   30.2499  -25.1313  -16.2488 N   0  0  0  0  0  0  0  0  0  0  0  0
   25.9126  -20.4127  -15.2017 C   0  0  0  0  0  0  0  0  0  0  0  0
   25.6946  -19.1756  -15.0786 O   0  0  0  0  0  0  0  0  0  0  0  0
   19.8117  -18.8878  -16.9885 O   0  0  0  0  0  0  0  0  0  0  0  0
   20.6436  -19.4951  -16.0526 C   0  0  0  0  0  0  0  0  0  0  0  0
   20.6835  -19.0644  -14.7433 C   0  0  0  0  0  0  0  0  0  0  0  0
   21.5080  -19.6632  -13.8072 C   0  0  0  0  0  0  0  0  0  0  0  0
   22.3263  -20.7185  -14.1452 C   0  0  0  0  0  0  0  0  0  0  0  0
   23.2254  -21.4021  -13.2052 C   0  0  0  0  0  0  0  0  0  0  0  0
   24.6046  -20.8337  -13.1392 C   0  0  2  0  0  0  0  0  0  0  0  0
   25.4200  -21.3068  -14.2205 N   0  0  0  0  0  0  0  0  0  0  0  0
   25.2193  -21.3176  -11.8578 C   0  0  0  0  0  0  0  0  0  0  0  0
   25.3990  -22.5328  -11.6615 O   0  0  0  0  0  0  0  0  0  0  0  0
   22.2834  -21.1482  -15.4611 C   0  0  0  0  0  0  0  0  0  0  0  0
   21.4611  -20.5514  -16.3961 C   0  0  0  0  0  0  0  0  0  0  0  0
   29.1173  -18.3797   -7.4246 C   0  0  0  0  0  0  0  0  0  0  0  0
   27.8391  -19.0812   -6.3484 S   0  0  0  0  0  0  0  0  0  0  0  0
   26.7854  -20.1811   -7.2763 C   0  0  0  0  0  0  0  0  0  0  0  0
   26.6890  -19.9558   -8.7375 C   0  0  0  0  0  0  0  0  0  0  0  0
   25.8134  -20.8702   -9.4741 C   0  0  2  0  0  0  0  0  0  0  0  0
   25.6048  -20.4048  -10.8528 N   0  0  0  0  0  0  0  0  0  0  0  0
   24.5432  -21.2385   -8.8981 C   0  0  0  0  0  0  0  0  0  0  0  0
   23.4920  -20.6366   -9.3591 O   0  0  0  0  0  0  0  0  0  0  0  0
   24.2636  -22.1594   -7.9136 O   0  0  0  0  0  0  0  0  0  0  0  0
  2  1  1  6
  2  8  1  0
  2  3  1  0
  4  3  1  0
  5  6  1  0
  5  4  1  0
  6  7  1  0
  8  9  2  0
 10 11  1  0
 11 21  2  0
 11 12  1  0
 12 13  2  0
 13 14  1  0
 14 15  1  0
 16 15  1  6
 17 16  1  0
 17  8  1  0
 18 19  2  0
 18 16  1  0
 20 14  2  0
 21 20  1  0
 23 24  1  0
 23 22  1  0
 24 25  1  0
 26 25  1  1
 26 27  1  0
 26 28  1  0
 27 18  1  0
 28 30  1  0
 29 28  2  0
M  END
$$$$
