KYM.pdb
     RDKit          3D

 30 30  0  0  1  0  0  0  0  0999 V2000
   23.5023  -22.6257  -19.0997 N   0  0  0  0  0  0  0  0  0  0  0  0
   22.4704  -22.9200  -20.0468 C   0  0  1  0  0  0  0  0  0  0  0  0
   22.2457  -24.3982  -20.1735 C   0  0  0  0  0  0  0  0  0  0  0  0
   23.5862  -25.0682  -20.3946 C   0  0  0  0  0  0  0  0  0  0  0  0
   23.4512  -26.5289  -20.7232 C   0  0  0  0  0  0  0  0  0  0  0  0
   24.7870  -27.1674  -21.0415 C   0  0  0  0  0  0  0  0  0  0  0  0
   25.3027  -26.7058  -22.3205 N   0  0  0  0  0  0  0  0  0  0  0  0
   21.2004  -22.2011  -19.7487 C   0  0  0  0  0  0  0  0  0  0  0  0
   20.1966  -22.4332  -20.4778 O   0  0  0  0  0  0  0  0  0  0  0  0
   16.6740  -25.7399  -16.3875 O   0  0  0  0  0  0  0  0  0  0  0  0
   17.3135  -24.5165  -16.5634 C   0  0  0  0  0  0  0  0  0  0  0  0
   16.6020  -23.3710  -16.8514 C   0  0  0  0  0  0  0  0  0  0  0  0
   17.2308  -22.1511  -17.0276 C   0  0  0  0  0  0  0  0  0  0  0  0
   18.5989  -22.0294  -16.9221 C   0  0  0  0  0  0  0  0  0  0  0  0
   19.3330  -20.7683  -17.0955 C   0  0  0  0  0  0  0  0  0  0  0  0
   19.8704  -20.5459  -18.4707 C   0  0  2  0  0  0  0  0  0  0  0  0
   21.0873  -21.2752  -18.6834 N   0  0  0  0  0  0  0  0  0  0  0  0
   20.1880  -19.0832  -18.5880 C   0  0  0  0  0  0  0  0  0  0  0  0
   21.3679  -18.6958  -18.6625 O   0  0  0  0  0  0  0  0  0  0  0  0
   19.3100  -23.1821  -16.6327 C   0  0  0  0  0  0  0  0  0  0  0  0
   18.6835  -24.3999  -16.4568 C   0  0  0  0  0  0  0  0  0  0  0  0
   23.6026  -15.1300  -19.9287 C   0  0  0  0  0  0  0  0  0  0  0  0
   22.0079  -14.3729  -19.5192 S   0  0  0  0  0  0  0  0  0  0  0  0
   20.6937  -15.1755  -20.4191 C   0  0  0  0  0  0  0  0  0  0  0  0
   20.3527  -16.5632  -20.0277 C   0  0  0  0  0  0  0  0  0  0  0  0
   19.4722  -16.7072  -18.8662 C   0  0  2  0  0  0  0  0  0  0  0  0
   19.1561  -18.1208  -18.6160 N   0  0  0  0  0  0  0  0  0  0  0  0
   18.2584  -15.9299  -18.8079 C   0  0  0  0  0  0  0  0  0  0  0  0
   17.1775  -16.4937  -19.2480 O   0  0  0  0  0  0  0  0  0  0  0  0
   18.0608  -14.6508  -18.3387 O   0  0  0  0  0  0  0  0  0  0  0  0
  2  1  1  1
  2  8  1  0
  2  3  1  0
  4  3  1  0
  5  6  1  0
  5  4  1  0
  6  7  1  0
  8  9  2  0
 10 11  1  0
 11 21  2  0
 11 12  1  0
 12 13  2  0
 13 14  1  0
 14 15  1  0
 16 15  1  1
 17 16  1  0
 17  8  1  0
 18 19  2  0
 18 16  1  0
 20 14  2  0
 21 20  1  0
 23 24  1  0
 23 22  1  0
 24 25  1  0
 26 25  1  6
 26 27  1  0
 26 28  1  0
 27 18  1  0
 28 30  1  0
 29 28  2  0
M  END
$$$$
