KYM.pdb
     RDKit          3D

 30 30  0  0  1  0  0  0  0  0999 V2000
   25.9647  -20.1076  -18.9292 N   0  0  0  0  0  0  0  0  0  0  0  0
   26.4737  -19.1676  -17.9775 C   0  0  1  0  0  0  0  0  0  0  0  0
   27.1172  -17.9933  -18.6546 C   0  0  0  0  0  0  0  0  0  0  0  0
   27.8431  -18.4912  -19.8874 C   0  0  0  0  0  0  0  0  0  0  0  0
   29.1335  -19.1860  -19.5530 C   0  0  0  0  0  0  0  0  0  0  0  0
   29.9613  -19.4762  -20.7874 C   0  0  0  0  0  0  0  0  0  0  0  0
   31.2472  -20.0582  -20.4374 N   0  0  0  0  0  0  0  0  0  0  0  0
   25.4399  -18.7305  -16.9982 C   0  0  0  0  0  0  0  0  0  0  0  0
   25.7835  -17.9340  -16.0815 O   0  0  0  0  0  0  0  0  0  0  0  0
   17.7127  -17.2646  -12.9430 O   0  0  0  0  0  0  0  0  0  0  0  0
   18.6976  -17.6601  -13.8432 C   0  0  0  0  0  0  0  0  0  0  0  0
   18.9909  -18.9923  -14.0444 C   0  0  0  0  0  0  0  0  0  0  0  0
   19.9687  -19.3932  -14.9377 C   0  0  0  0  0  0  0  0  0  0  0  0
   20.6926  -18.4750  -15.6660 C   0  0  0  0  0  0  0  0  0  0  0  0
   21.7431  -18.8277  -16.6311 C   0  0  0  0  0  0  0  0  0  0  0  0
   23.1334  -18.7519  -16.0918 C   0  0  2  0  0  0  0  0  0  0  0  0
   24.0980  -19.1776  -17.0646 N   0  0  0  0  0  0  0  0  0  0  0  0
   23.2073  -19.7001  -14.9301 C   0  0  0  0  0  0  0  0  0  0  0  0
   23.2146  -20.9300  -15.1165 O   0  0  0  0  0  0  0  0  0  0  0  0
   20.3951  -17.1380  -15.4611 C   0  0  0  0  0  0  0  0  0  0  0  0
   19.4196  -16.7368  -14.5699 C   0  0  0  0  0  0  0  0  0  0  0  0
   25.6877  -21.4363   -7.7560 C   0  0  0  0  0  0  0  0  0  0  0  0
   25.7334  -20.2739   -9.1455 S   0  0  0  0  0  0  0  0  0  0  0  0
   24.4442  -20.6594  -10.3162 C   0  0  0  0  0  0  0  0  0  0  0  0
   24.3700  -19.8292  -11.5411 C   0  0  0  0  0  0  0  0  0  0  0  0
   23.2911  -20.1556  -12.4763 C   0  0  2  0  0  0  0  0  0  0  0  0
   23.2698  -19.2153  -13.6061 N   0  0  0  0  0  0  0  0  0  0  0  0
   21.9511  -20.3208  -11.9684 C   0  0  0  0  0  0  0  0  0  0  0  0
   21.4879  -21.5302  -11.9141 O   0  0  0  0  0  0  0  0  0  0  0  0
   21.0652  -19.3705  -11.5132 O   0  0  0  0  0  0  0  0  0  0  0  0
  2  1  1  6
  2  8  1  0
  2  3  1  0
  4  3  1  0
  5  6  1  0
  5  4  1  0
  6  7  1  0
  8  9  2  0
 10 11  1  0
 11 21  2  0
 11 12  1  0
 12 13  2  0
 13 14  1  0
 14 15  1  0
 16 15  1  6
 17 16  1  0
 17  8  1  0
 18 19  2  0
 18 16  1  0
 20 14  2  0
 21 20  1  0
 23 24  1  0
 23 22  1  0
 24 25  1  0
 26 25  1  1
 26 27  1  0
 26 28  1  0
 27 18  1  0
 28 30  1  0
 29 28  2  0
M  END
$$$$
