KYM.pdb
     RDKit          3D

 30 30  0  0  1  0  0  0  0  0999 V2000
   22.1055  -17.0204  -19.7105 N   0  0  0  0  0  0  0  0  0  0  0  0
   20.9068  -17.8024  -19.7059 C   0  0  1  0  0  0  0  0  0  0  0  0
   21.2073  -19.2697  -19.7978 C   0  0  0  0  0  0  0  0  0  0  0  0
   22.6041  -19.4374  -20.3592 C   0  0  0  0  0  0  0  0  0  0  0  0
   23.4596  -20.3376  -19.5122 C   0  0  0  0  0  0  0  0  0  0  0  0
   24.8090  -20.6034  -20.1459 C   0  0  0  0  0  0  0  0  0  0  0  0
   25.6282  -21.4624  -19.3056 N   0  0  0  0  0  0  0  0  0  0  0  0
   20.0321  -17.4990  -18.5391 C   0  0  0  0  0  0  0  0  0  0  0  0
   20.5789  -17.2806  -17.4227 O   0  0  0  0  0  0  0  0  0  0  0  0
   20.1217  -11.1161  -17.3537 O   0  0  0  0  0  0  0  0  0  0  0  0
   19.3639  -12.2809  -17.4285 C   0  0  0  0  0  0  0  0  0  0  0  0
   18.7514  -12.8101  -16.3121 C   0  0  0  0  0  0  0  0  0  0  0  0
   17.9964  -13.9677  -16.3786 C   0  0  0  0  0  0  0  0  0  0  0  0
   17.8243  -14.6425  -17.5672 C   0  0  0  0  0  0  0  0  0  0  0  0
   17.0371  -15.8748  -17.7123 C   0  0  0  0  0  0  0  0  0  0  0  0
   17.8105  -17.1348  -17.5031 C   0  0  2  0  0  0  0  0  0  0  0  0
   18.6210  -17.4492  -18.6442 N   0  0  0  0  0  0  0  0  0  0  0  0
   16.8107  -18.2420  -17.3339 C   0  0  0  0  0  0  0  0  0  0  0  0
   16.3153  -18.8045  -18.3267 O   0  0  0  0  0  0  0  0  0  0  0  0
   18.4410  -14.1080  -18.6861 C   0  0  0  0  0  0  0  0  0  0  0  0
   19.1946  -12.9528  -18.6208 C   0  0  0  0  0  0  0  0  0  0  0  0
   17.3142  -23.7555  -14.3965 C   0  0  0  0  0  0  0  0  0  0  0  0
   15.8975  -23.8189  -15.5247 S   0  0  0  0  0  0  0  0  0  0  0  0
   15.1470  -22.2070  -15.6654 C   0  0  0  0  0  0  0  0  0  0  0  0
   16.0565  -21.0434  -15.7836 C   0  0  0  0  0  0  0  0  0  0  0  0
   15.4138  -19.7323  -15.8975 C   0  0  2  0  0  0  0  0  0  0  0  0
   16.4142  -18.6656  -16.0473 N   0  0  0  0  0  0  0  0  0  0  0  0
   14.4439  -19.3399  -14.9044 C   0  0  0  0  0  0  0  0  0  0  0  0
   13.4078  -20.1052  -14.7599 O   0  0  0  0  0  0  0  0  0  0  0  0
   14.4495  -18.2543  -14.0577 O   0  0  0  0  0  0  0  0  0  0  0  0
  2  1  1  1
  2  8  1  0
  2  3  1  0
  4  3  1  0
  5  6  1  0
  5  4  1  0
  6  7  1  0
  8  9  2  0
 10 11  1  0
 11 21  2  0
 11 12  1  0
 12 13  2  0
 13 14  1  0
 14 15  1  0
 16 15  1  6
 17 16  1  0
 17  8  1  0
 18 19  2  0
 18 16  1  0
 20 14  2  0
 21 20  1  0
 23 24  1  0
 23 22  1  0
 24 25  1  0
 26 25  1  1
 26 27  1  0
 26 28  1  0
 27 18  1  0
 28 30  1  0
 29 28  2  0
M  END
$$$$
