KYM.pdb
     RDKit          3D

 30 30  0  0  1  0  0  0  0  0999 V2000
   22.9246  -32.8002  -11.2562 N   0  0  0  0  0  0  0  0  0  0  0  0
   24.1479  -33.5015  -11.5016 C   0  0  1  0  0  0  0  0  0  0  0  0
   25.0184  -32.7641  -12.4763 C   0  0  0  0  0  0  0  0  0  0  0  0
   25.1170  -33.5851  -13.7454 C   0  0  0  0  0  0  0  0  0  0  0  0
   26.5069  -34.1040  -13.9876 C   0  0  0  0  0  0  0  0  0  0  0  0
   26.6121  -34.8650  -15.2927 C   0  0  0  0  0  0  0  0  0  0  0  0
   27.9714  -35.3242  -15.5293 N   0  0  0  0  0  0  0  0  0  0  0  0
   24.8852  -33.8191  -10.2470 C   0  0  0  0  0  0  0  0  0  0  0  0
   25.8438  -34.6378  -10.3077 O   0  0  0  0  0  0  0  0  0  0  0  0
   28.9304  -33.2005   -2.4976 O   0  0  0  0  0  0  0  0  0  0  0  0
   28.2621  -33.0161   -3.7043 C   0  0  0  0  0  0  0  0  0  0  0  0
   28.7275  -33.5783   -4.8742 C   0  0  0  0  0  0  0  0  0  0  0  0
   28.0684  -33.3994   -6.0777 C   0  0  0  0  0  0  0  0  0  0  0  0
   26.9156  -32.6496   -6.1577 C   0  0  0  0  0  0  0  0  0  0  0  0
   26.1639  -32.4182   -7.3989 C   0  0  0  0  0  0  0  0  0  0  0  0
   25.2883  -33.5535   -7.8162 C   0  0  2  0  0  0  0  0  0  0  0  0
   24.5461  -33.2360   -9.0021 N   0  0  0  0  0  0  0  0  0  0  0  0
   24.3022  -33.7797   -6.7069 C   0  0  0  0  0  0  0  0  0  0  0  0
   23.3311  -33.0165   -6.5581 O   0  0  0  0  0  0  0  0  0  0  0  0
   26.4514  -32.0866   -4.9806 C   0  0  0  0  0  0  0  0  0  0  0  0
   27.1082  -32.2644   -3.7792 C   0  0  0  0  0  0  0  0  0  0  0  0
   19.7133  -38.4367   -2.6995 C   0  0  0  0  0  0  0  0  0  0  0  0
   20.7574  -38.1213   -4.1467 S   0  0  0  0  0  0  0  0  0  0  0  0
   21.7487  -36.6616   -3.8870 C   0  0  0  0  0  0  0  0  0  0  0  0
   22.7176  -36.3020   -4.9488 C   0  0  0  0  0  0  0  0  0  0  0  0
   23.4820  -35.0713   -4.7335 C   0  0  2  0  0  0  0  0  0  0  0  0
   24.4575  -34.8607   -5.8129 N   0  0  0  0  0  0  0  0  0  0  0  0
   24.1274  -34.8622   -3.4605 C   0  0  0  0  0  0  0  0  0  0  0  0
   25.3531  -35.2686   -3.3490 O   0  0  0  0  0  0  0  0  0  0  0  0
   23.6349  -34.2763   -2.3161 O   0  0  0  0  0  0  0  0  0  0  0  0
  2  1  1  1
  2  8  1  0
  2  3  1  0
  4  3  1  0
  5  6  1  0
  5  4  1  0
  6  7  1  0
  8  9  2  0
 10 11  1  0
 11 21  2  0
 11 12  1  0
 12 13  2  0
 13 14  1  0
 14 15  1  0
 16 15  1  1
 17 16  1  0
 17  8  1  0
 18 19  2  0
 18 16  1  0
 20 14  2  0
 21 20  1  0
 23 24  1  0
 23 22  1  0
 24 25  1  0
 26 25  1  1
 26 27  1  0
 26 28  1  0
 27 18  1  0
 28 30  1  0
 29 28  2  0
M  END
$$$$
