KYM.pdb
     RDKit          3D

 30 30  0  0  1  0  0  0  0  0999 V2000
   28.6675  -20.8823  -17.9539 N   0  0  0  0  0  0  0  0  0  0  0  0
   28.3220  -21.4571  -16.6895 C   0  0  1  0  0  0  0  0  0  0  0  0
   29.5047  -21.5087  -15.7675 C   0  0  0  0  0  0  0  0  0  0  0  0
   29.9703  -22.9467  -15.6672 C   0  0  0  0  0  0  0  0  0  0  0  0
   30.7449  -23.3856  -16.8785 C   0  0  0  0  0  0  0  0  0  0  0  0
   31.1447  -24.8442  -16.8018 C   0  0  0  0  0  0  0  0  0  0  0  0
   31.9369  -25.1139  -15.6125 N   0  0  0  0  0  0  0  0  0  0  0  0
   27.1636  -20.7737  -16.0494 C   0  0  0  0  0  0  0  0  0  0  0  0
   27.2142  -19.5210  -15.9040 O   0  0  0  0  0  0  0  0  0  0  0  0
   18.9950  -18.6517  -13.5430 O   0  0  0  0  0  0  0  0  0  0  0  0
   20.1409  -19.2133  -14.0982 C   0  0  0  0  0  0  0  0  0  0  0  0
   21.0981  -18.4312  -14.7095 C   0  0  0  0  0  0  0  0  0  0  0  0
   22.2400  -18.9823  -15.2637 C   0  0  0  0  0  0  0  0  0  0  0  0
   22.4692  -20.3402  -15.2278 C   0  0  0  0  0  0  0  0  0  0  0  0
   23.6573  -20.9937  -15.7941 C   0  0  0  0  0  0  0  0  0  0  0  0
   24.9127  -20.7861  -15.0127 C   0  0  2  0  0  0  0  0  0  0  0  0
   26.0202  -21.4801  -15.6041 N   0  0  0  0  0  0  0  0  0  0  0  0
   24.6837  -21.3697  -13.6485 C   0  0  0  0  0  0  0  0  0  0  0  0
   24.4515  -22.5841  -13.5105 O   0  0  0  0  0  0  0  0  0  0  0  0
   21.5056  -21.1223  -14.6131 C   0  0  0  0  0  0  0  0  0  0  0  0
   20.3658  -20.5734  -14.0598 C   0  0  0  0  0  0  0  0  0  0  0  0
   28.9021  -20.9367   -8.5330 C   0  0  0  0  0  0  0  0  0  0  0  0
   27.2037  -20.3050   -8.5116 S   0  0  0  0  0  0  0  0  0  0  0  0
   26.2604  -21.0236   -9.8439 C   0  0  0  0  0  0  0  0  0  0  0  0
   24.9048  -20.4772  -10.0868 C   0  0  0  0  0  0  0  0  0  0  0  0
   24.1770  -21.0420  -11.2254 C   0  0  2  0  0  0  0  0  0  0  0  0
   24.7273  -20.5535  -12.4980 N   0  0  0  0  0  0  0  0  0  0  0  0
   22.7386  -20.9385  -11.2573 C   0  0  0  0  0  0  0  0  0  0  0  0
   22.2379  -19.8660  -11.7854 O   0  0  0  0  0  0  0  0  0  0  0  0
   21.7878  -21.8276  -10.8090 O   0  0  0  0  0  0  0  0  0  0  0  0
  2  1  1  6
  2  8  1  0
  2  3  1  0
  4  3  1  0
  5  6  1  0
  5  4  1  0
  6  7  1  0
  8  9  2  0
 10 11  1  0
 11 21  2  0
 11 12  1  0
 12 13  2  0
 13 14  1  0
 14 15  1  0
 16 15  1  6
 17 16  1  0
 17  8  1  0
 18 19  2  0
 18 16  1  0
 20 14  2  0
 21 20  1  0
 23 24  1  0
 23 22  1  0
 24 25  1  0
 26 25  1  1
 26 27  1  0
 26 28  1  0
 27 18  1  0
 28 30  1  0
 29 28  2  0
M  END
$$$$
