KNP.pdb
     RDKit          3D

 25 25  0  0  1  0  0  0  0  0999 V2000
    6.7115  -17.1949   20.1534 N   0  0  0  0  0  0  0  0  0  0  0  0
    7.7333  -16.7524   21.0422 C   0  0  1  0  0  0  0  0  0  0  0  0
    8.5362  -15.5845   20.5567 C   0  0  0  0  0  0  0  0  0  0  0  0
    7.8222  -14.7048   19.5964 C   0  0  0  0  0  0  0  0  0  0  0  0
    8.6713  -13.6054   19.0483 C   0  0  0  0  0  0  0  0  0  0  0  0
    7.8806  -12.7242   18.1159 C   0  0  0  0  0  0  0  0  0  0  0  0
    8.7864  -11.7057   17.5757 N   0  0  0  0  0  0  0  0  0  0  0  0
    7.2099  -16.3881   22.3910 C   0  0  0  0  0  0  0  0  0  0  0  0
    6.1320  -15.7340   22.4810 O   0  0  0  0  0  0  0  0  0  0  0  0
    5.6821  -18.5945   23.9153 N   0  0  0  0  0  0  0  0  0  0  0  0
    6.4181  -18.8613   25.1027 C   0  0  0  0  0  0  0  0  0  0  0  0
    6.2630  -19.9571   25.6480 O   0  0  0  0  0  0  0  0  0  0  0  0
    7.3075  -17.8255   25.5995 C   0  0  0  0  0  0  0  0  0  0  0  0
    7.3333  -16.5120   24.9054 C   0  0  2  0  0  0  0  0  0  0  0  0
    7.8877  -16.7562   23.5534 N   0  0  0  0  0  0  0  0  0  0  0  0
    8.0812  -15.4325   25.5228 C   0  0  0  0  0  0  0  0  0  0  0  0
    9.2294  -15.1957   24.9752 O   0  0  0  0  0  0  0  0  0  0  0  0
    7.7888  -14.5949   26.6100 N   0  0  0  0  0  0  0  0  0  0  0  0
    6.6781  -14.3912   27.4807 C   0  0  0  0  0  0  0  0  0  0  0  0
    6.5201  -12.8671   27.3641 C   0  0  0  0  0  0  0  0  0  0  0  0
    7.9420  -12.3686   27.2344 C   0  0  0  0  0  0  0  0  0  0  0  0
    8.7766  -13.6072   27.1075 C   0  0  1  0  0  0  0  0  0  0  0  0
    9.3061  -14.0268   28.4028 C   0  0  0  0  0  0  0  0  0  0  0  0
    9.0311  -15.2281   29.0442 O   0  0  0  0  0  0  0  0  0  0  0  0
   10.0982  -13.2454   29.0312 O   0  0  0  0  0  0  0  0  0  0  0  0
  2  1  1  6
  3  2  1  0
  4  3  1  0
  5  4  1  0
  5  6  1  0
  7  6  1  0
  8  9  2  0
  8  2  1  0
 10 11  1  0
 11 13  1  0
 12 11  2  0
 14 13  1  1
 14 15  1  0
 15  8  1  0
 16 14  1  0
 17 16  2  0
 18 19  1  0
 18 16  1  0
 20 19  1  0
 21 20  1  0
 22 21  1  0
 22 18  1  0
 22 23  1  1
 24 23  1  0
 25 23  2  0
M  END
$$$$
