KNP.pdb
     RDKit          3D

 25 25  0  0  1  0  0  0  0  0999 V2000
    6.4253  -15.0565   20.0004 N   0  0  0  0  0  0  0  0  0  0  0  0
    7.5649  -14.8039   20.8173 C   0  0  1  0  0  0  0  0  0  0  0  0
    8.1703  -13.4425   20.6605 C   0  0  0  0  0  0  0  0  0  0  0  0
    8.7563  -13.1813   19.3210 C   0  0  0  0  0  0  0  0  0  0  0  0
    9.9810  -13.9873   19.0372 C   0  0  0  0  0  0  0  0  0  0  0  0
   11.2123  -13.3118   19.5837 C   0  0  0  0  0  0  0  0  0  0  0  0
   12.3692  -14.1588   19.2775 N   0  0  0  0  0  0  0  0  0  0  0  0
    7.2879  -14.9903   22.2715 C   0  0  0  0  0  0  0  0  0  0  0  0
    6.2010  -14.5625   22.7546 O   0  0  0  0  0  0  0  0  0  0  0  0
    5.3719  -16.9221   23.5038 N   0  0  0  0  0  0  0  0  0  0  0  0
    6.2629  -17.9104   24.0059 C   0  0  0  0  0  0  0  0  0  0  0  0
    5.8783  -19.0825   24.0256 O   0  0  0  0  0  0  0  0  0  0  0  0
    7.5715  -17.4771   24.4648 C   0  0  0  0  0  0  0  0  0  0  0  0
    7.8729  -16.0224   24.4952 C   0  0  2  0  0  0  0  0  0  0  0  0
    8.2056  -15.6279   23.1065 N   0  0  0  0  0  0  0  0  0  0  0  0
    8.9365  -15.5678   25.3715 C   0  0  0  0  0  0  0  0  0  0  0  0
   10.1151  -15.5885   24.8378 O   0  0  0  0  0  0  0  0  0  0  0  0
    8.9234  -15.1089   26.6975 N   0  0  0  0  0  0  0  0  0  0  0  0
    7.9286  -14.8530   27.6867 C   0  0  0  0  0  0  0  0  0  0  0  0
    8.3189  -13.4248   28.0982 C   0  0  0  0  0  0  0  0  0  0  0  0
    9.8286  -13.4262   28.0086 C   0  0  0  0  0  0  0  0  0  0  0  0
   10.1791  -14.7503   27.3998 C   0  0  1  0  0  0  0  0  0  0  0  0
   10.4881  -15.7427   28.4265 C   0  0  0  0  0  0  0  0  0  0  0  0
   11.5879  -15.7206   29.2751 O   0  0  0  0  0  0  0  0  0  0  0  0
    9.6975  -16.7333   28.5889 O   0  0  0  0  0  0  0  0  0  0  0  0
  2  1  1  6
  3  2  1  0
  4  3  1  0
  5  4  1  0
  5  6  1  0
  7  6  1  0
  8  9  2  0
  8  2  1  0
 10 11  1  0
 11 13  1  0
 12 11  2  0
 14 13  1  6
 14 15  1  0
 15  8  1  0
 16 14  1  0
 17 16  2  0
 18 19  1  0
 18 16  1  0
 20 19  1  0
 21 20  1  0
 22 21  1  0
 22 18  1  0
 22 23  1  1
 24 23  1  0
 25 23  2  0
M  END
$$$$
