KNP.pdb
     RDKit          3D

 25 25  0  0  1  0  0  0  0  0999 V2000
    8.3397  -16.6141   19.9618 N   0  0  0  0  0  0  0  0  0  0  0  0
    8.4501  -15.3194   20.5461 C   0  0  1  0  0  0  0  0  0  0  0  0
    7.9629  -14.1915   19.6889 C   0  0  0  0  0  0  0  0  0  0  0  0
    8.3914  -14.2695   18.2689 C   0  0  0  0  0  0  0  0  0  0  0  0
    7.7659  -13.2299   17.3983 C   0  0  0  0  0  0  0  0  0  0  0  0
    8.1940  -13.3968   15.9631 C   0  0  0  0  0  0  0  0  0  0  0  0
    7.6060  -14.6400   15.4550 N   0  0  0  0  0  0  0  0  0  0  0  0
    7.7369  -15.2107   21.8522 C   0  0  0  0  0  0  0  0  0  0  0  0
    6.4791  -15.0868   21.8624 O   0  0  0  0  0  0  0  0  0  0  0  0
    8.3825  -17.9199   24.2074 N   0  0  0  0  0  0  0  0  0  0  0  0
    7.0161  -17.5722   24.3937 C   0  0  0  0  0  0  0  0  0  0  0  0
    6.2048  -18.4836   24.5761 O   0  0  0  0  0  0  0  0  0  0  0  0
    6.6610  -16.1639   24.3575 C   0  0  0  0  0  0  0  0  0  0  0  0
    7.7488  -15.1517   24.3719 C   0  0  2  0  0  0  0  0  0  0  0  0
    8.4327  -15.2437   23.0608 N   0  0  0  0  0  0  0  0  0  0  0  0
    8.7475  -15.2434   25.4207 C   0  0  0  0  0  0  0  0  0  0  0  0
    9.8831  -15.7309   25.0370 O   0  0  0  0  0  0  0  0  0  0  0  0
    8.7089  -14.9009   26.7809 N   0  0  0  0  0  0  0  0  0  0  0  0
    7.6949  -14.5883   27.7336 C   0  0  0  0  0  0  0  0  0  0  0  0
    8.2511  -13.2713   28.2969 C   0  0  0  0  0  0  0  0  0  0  0  0
    9.7485  -13.4830   28.2905 C   0  0  0  0  0  0  0  0  0  0  0  0
    9.9520  -14.7878   27.5813 C   0  0  1  0  0  0  0  0  0  0  0  0
   10.0502  -15.8974   28.5266 C   0  0  0  0  0  0  0  0  0  0  0  0
   11.0744  -16.0970   29.4438 O   0  0  0  0  0  0  0  0  0  0  0  0
    9.1287  -16.7825   28.5413 O   0  0  0  0  0  0  0  0  0  0  0  0
  2  1  1  6
  3  2  1  0
  4  3  1  0
  5  4  1  0
  5  6  1  0
  7  6  1  0
  8  9  2  0
  8  2  1  0
 10 11  1  0
 11 13  1  0
 12 11  2  0
 14 13  1  1
 14 15  1  0
 15  8  1  0
 16 14  1  0
 17 16  2  0
 18 19  1  0
 18 16  1  0
 20 19  1  0
 21 20  1  0
 22 21  1  0
 22 18  1  0
 22 23  1  1
 24 23  1  0
 25 23  2  0
M  END
$$$$
