KNP.pdb
     RDKit          3D

 25 25  0  0  1  0  0  0  0  0999 V2000
    8.6230  -15.7205   20.5597 N   0  0  0  0  0  0  0  0  0  0  0  0
    8.7833  -14.3306   20.8285 C   0  0  1  0  0  0  0  0  0  0  0  0
    8.0137  -13.4157   19.9258 C   0  0  0  0  0  0  0  0  0  0  0  0
    7.5324  -14.0510   18.6726 C   0  0  0  0  0  0  0  0  0  0  0  0
    8.4254  -13.8111   17.5000 C   0  0  0  0  0  0  0  0  0  0  0  0
    7.8883  -14.4849   16.2637 C   0  0  0  0  0  0  0  0  0  0  0  0
    8.8987  -14.3691   15.2076 N   0  0  0  0  0  0  0  0  0  0  0  0
    8.4187  -13.9657   22.2286 C   0  0  0  0  0  0  0  0  0  0  0  0
    8.4347  -12.7505   22.5759 O   0  0  0  0  0  0  0  0  0  0  0  0
    5.3612  -13.8624   26.6932 N   0  0  0  0  0  0  0  0  0  0  0  0
    5.9815  -15.0725   26.2765 C   0  0  0  0  0  0  0  0  0  0  0  0
    6.0826  -15.9863   27.0993 O   0  0  0  0  0  0  0  0  0  0  0  0
    6.4577  -15.1568   24.9066 C   0  0  0  0  0  0  0  0  0  0  0  0
    7.8054  -14.6206   24.5839 C   0  0  2  0  0  0  0  0  0  0  0  0
    8.0607  -14.9405   23.1600 N   0  0  0  0  0  0  0  0  0  0  0  0
    8.9296  -15.0915   25.3715 C   0  0  0  0  0  0  0  0  0  0  0  0
    9.7862  -15.8010   24.7102 O   0  0  0  0  0  0  0  0  0  0  0  0
    9.2606  -14.9201   26.7243 N   0  0  0  0  0  0  0  0  0  0  0  0
    8.6321  -14.3538   27.8722 C   0  0  0  0  0  0  0  0  0  0  0  0
    9.7545  -13.4267   28.3642 C   0  0  0  0  0  0  0  0  0  0  0  0
   11.0181  -14.1960   28.0497 C   0  0  0  0  0  0  0  0  0  0  0  0
   10.5605  -15.3872   27.2634 C   0  0  1  0  0  0  0  0  0  0  0  0
   10.3644  -16.5503   28.1254 C   0  0  0  0  0  0  0  0  0  0  0  0
   11.3580  -17.2171   28.8312 O   0  0  0  0  0  0  0  0  0  0  0  0
    9.1863  -17.0239   28.2688 O   0  0  0  0  0  0  0  0  0  0  0  0
  2  1  1  6
  3  2  1  0
  4  3  1  0
  5  4  1  0
  5  6  1  0
  7  6  1  0
  8  9  2  0
  8  2  1  0
 10 11  1  0
 11 13  1  0
 12 11  2  0
 14 13  1  1
 14 15  1  0
 15  8  1  0
 16 14  1  0
 17 16  2  0
 18 19  1  0
 18 16  1  0
 20 19  1  0
 21 20  1  0
 22 21  1  0
 22 18  1  0
 22 23  1  1
 24 23  1  0
 25 23  2  0
M  END
$$$$
