KNP.pdb
     RDKit          3D

 25 25  0  0  1  0  0  0  0  0999 V2000
    7.3689  -16.1082   19.1428 N   0  0  0  0  0  0  0  0  0  0  0  0
    7.7399  -15.1330   20.1129 C   0  0  1  0  0  0  0  0  0  0  0  0
    7.4348  -13.7151   19.7378 C   0  0  0  0  0  0  0  0  0  0  0  0
    8.2440  -13.1906   18.6082 C   0  0  0  0  0  0  0  0  0  0  0  0
    7.8958  -13.8004   17.2902 C   0  0  0  0  0  0  0  0  0  0  0  0
    8.7471  -13.2271   16.1868 C   0  0  0  0  0  0  0  0  0  0  0  0
    8.3389  -13.8537   14.9256 N   0  0  0  0  0  0  0  0  0  0  0  0
    7.1127  -15.3736   21.4452 C   0  0  0  0  0  0  0  0  0  0  0  0
    5.9761  -15.9236   21.5042 O   0  0  0  0  0  0  0  0  0  0  0  0
    7.6738  -18.4726   25.7282 N   0  0  0  0  0  0  0  0  0  0  0  0
    6.7570  -17.5102   25.2222 C   0  0  0  0  0  0  0  0  0  0  0  0
    5.7315  -17.2880   25.8712 O   0  0  0  0  0  0  0  0  0  0  0  0
    7.0860  -16.8483   23.9715 C   0  0  0  0  0  0  0  0  0  0  0  0
    7.2354  -15.3700   23.9626 C   0  0  2  0  0  0  0  0  0  0  0  0
    7.7574  -15.0032   22.6255 N   0  0  0  0  0  0  0  0  0  0  0  0
    8.0869  -14.7677   24.9716 C   0  0  0  0  0  0  0  0  0  0  0  0
    9.3506  -14.8027   24.6954 O   0  0  0  0  0  0  0  0  0  0  0  0
    7.7922  -14.1527   26.1979 N   0  0  0  0  0  0  0  0  0  0  0  0
    6.6215  -13.9314   26.9815 C   0  0  0  0  0  0  0  0  0  0  0  0
    6.7439  -12.4196   27.2279 C   0  0  0  0  0  0  0  0  0  0  0  0
    8.2340  -12.1980   27.3614 C   0  0  0  0  0  0  0  0  0  0  0  0
    8.8543  -13.5178   27.0150 C   0  0  1  0  0  0  0  0  0  0  0  0
    9.1174  -14.3126   28.2122 C   0  0  0  0  0  0  0  0  0  0  0  0
    8.5588  -15.5500   28.5068 O   0  0  0  0  0  0  0  0  0  0  0  0
    9.9305  -13.8620   29.0889 O   0  0  0  0  0  0  0  0  0  0  0  0
  2  1  1  6
  3  2  1  0
  4  3  1  0
  5  4  1  0
  5  6  1  0
  7  6  1  0
  8  9  2  0
  8  2  1  0
 10 11  1  0
 11 13  1  0
 12 11  2  0
 14 13  1  1
 14 15  1  0
 15  8  1  0
 16 14  1  0
 17 16  2  0
 18 19  1  0
 18 16  1  0
 20 19  1  0
 21 20  1  0
 22 21  1  0
 22 18  1  0
 22 23  1  1
 24 23  1  0
 25 23  2  0
M  END
$$$$
