KNP.pdb
     RDKit          3D

 25 25  0  0  1  0  0  0  0  0999 V2000
    7.7413  -16.9035   20.0391 N   0  0  0  0  0  0  0  0  0  0  0  0
    8.1632  -15.8516   20.9024 C   0  0  1  0  0  0  0  0  0  0  0  0
    7.7426  -14.4767   20.4817 C   0  0  0  0  0  0  0  0  0  0  0  0
    8.2466  -14.0613   19.1477 C   0  0  0  0  0  0  0  0  0  0  0  0
    7.9326  -12.6419   18.8060 C   0  0  0  0  0  0  0  0  0  0  0  0
    8.4949  -12.2726   17.4575 C   0  0  0  0  0  0  0  0  0  0  0  0
    8.0847  -13.3015   16.4968 N   0  0  0  0  0  0  0  0  0  0  0  0
    7.6997  -16.0354   22.3087 C   0  0  0  0  0  0  0  0  0  0  0  0
    6.5119  -16.4096   22.5252 O   0  0  0  0  0  0  0  0  0  0  0  0
    5.5514  -18.2816   24.1307 N   0  0  0  0  0  0  0  0  0  0  0  0
    6.4811  -17.9808   25.1642 C   0  0  0  0  0  0  0  0  0  0  0  0
    6.0964  -18.0645   26.3335 O   0  0  0  0  0  0  0  0  0  0  0  0
    7.8269  -17.5934   24.7776 C   0  0  0  0  0  0  0  0  0  0  0  0
    8.1840  -16.1510   24.7794 C   0  0  2  0  0  0  0  0  0  0  0  0
    8.5528  -15.8025   23.3875 N   0  0  0  0  0  0  0  0  0  0  0  0
    9.2509  -15.7170   25.6621 C   0  0  0  0  0  0  0  0  0  0  0  0
   10.4428  -15.9410   25.2109 O   0  0  0  0  0  0  0  0  0  0  0  0
    9.2291  -15.0976   26.9210 N   0  0  0  0  0  0  0  0  0  0  0  0
    8.2247  -14.6639   27.8356 C   0  0  0  0  0  0  0  0  0  0  0  0
    8.6911  -13.2209   28.0837 C   0  0  0  0  0  0  0  0  0  0  0  0
   10.1998  -13.3211   28.0487 C   0  0  0  0  0  0  0  0  0  0  0  0
   10.4844  -14.7285   27.6185 C   0  0  1  0  0  0  0  0  0  0  0  0
   10.7022  -15.6025   28.7687 C   0  0  0  0  0  0  0  0  0  0  0  0
    9.9785  -16.7501   29.0676 O   0  0  0  0  0  0  0  0  0  0  0  0
   11.6347  -15.3187   29.5950 O   0  0  0  0  0  0  0  0  0  0  0  0
  2  1  1  6
  3  2  1  0
  4  3  1  0
  5  4  1  0
  5  6  1  0
  7  6  1  0
  8  9  2  0
  8  2  1  0
 10 11  1  0
 11 13  1  0
 12 11  2  0
 14 13  1  6
 14 15  1  0
 15  8  1  0
 16 14  1  0
 17 16  2  0
 18 19  1  0
 18 16  1  0
 20 19  1  0
 21 20  1  0
 22 21  1  0
 22 18  1  0
 22 23  1  1
 24 23  1  0
 25 23  2  0
M  END
$$$$
