KNP.pdb
     RDKit          3D

 25 25  0  0  1  0  0  0  0  0999 V2000
    8.0009  -16.3602   19.3154 N   0  0  0  0  0  0  0  0  0  0  0  0
    8.2786  -15.2655   20.1839 C   0  0  1  0  0  0  0  0  0  0  0  0
    8.2194  -13.9134   19.5415 C   0  0  0  0  0  0  0  0  0  0  0  0
    8.8430  -13.8451   18.1952 C   0  0  0  0  0  0  0  0  0  0  0  0
    7.8640  -13.9816   17.0758 C   0  0  0  0  0  0  0  0  0  0  0  0
    8.5303  -13.7551   15.7433 C   0  0  0  0  0  0  0  0  0  0  0  0
    7.5424  -14.0137   14.6913 N   0  0  0  0  0  0  0  0  0  0  0  0
    7.3733  -15.2224   21.3692 C   0  0  0  0  0  0  0  0  0  0  0  0
    6.1409  -14.9989   21.1991 O   0  0  0  0  0  0  0  0  0  0  0  0
    8.3855  -17.6615   24.2891 N   0  0  0  0  0  0  0  0  0  0  0  0
    6.9666  -17.6752   24.3868 C   0  0  0  0  0  0  0  0  0  0  0  0
    6.4180  -18.7278   24.7235 O   0  0  0  0  0  0  0  0  0  0  0  0
    6.2515  -16.4474   24.0837 C   0  0  0  0  0  0  0  0  0  0  0  0
    7.0310  -15.2012   23.8661 C   0  0  2  0  0  0  0  0  0  0  0  0
    7.8619  -15.4244   22.6600 N   0  0  0  0  0  0  0  0  0  0  0  0
    7.8913  -14.7423   24.9409 C   0  0  0  0  0  0  0  0  0  0  0  0
    9.1505  -14.9750   24.7545 O   0  0  0  0  0  0  0  0  0  0  0  0
    7.6089  -14.0911   26.1513 N   0  0  0  0  0  0  0  0  0  0  0  0
    6.4336  -13.7026   26.8594 C   0  0  0  0  0  0  0  0  0  0  0  0
    6.7569  -12.2244   27.1275 C   0  0  0  0  0  0  0  0  0  0  0  0
    8.2514  -12.2210   27.3595 C   0  0  0  0  0  0  0  0  0  0  0  0
    8.6957  -13.6168   27.0415 C   0  0  1  0  0  0  0  0  0  0  0  0
    8.7622  -14.4412   28.2457 C   0  0  0  0  0  0  0  0  0  0  0  0
    9.6578  -14.2783   29.2952 O   0  0  0  0  0  0  0  0  0  0  0  0
    7.9370  -15.4073   28.3818 O   0  0  0  0  0  0  0  0  0  0  0  0
  2  1  1  6
  3  2  1  0
  4  3  1  0
  5  4  1  0
  5  6  1  0
  7  6  1  0
  8  9  2  0
  8  2  1  0
 10 11  1  0
 11 13  1  0
 12 11  2  0
 14 13  1  1
 14 15  1  0
 15  8  1  0
 16 14  1  0
 17 16  2  0
 18 19  1  0
 18 16  1  0
 20 19  1  0
 21 20  1  0
 22 21  1  0
 22 18  1  0
 22 23  1  1
 24 23  1  0
 25 23  2  0
M  END
$$$$
