KNP.pdb
     RDKit          3D

 25 25  0  0  1  0  0  0  0  0999 V2000
    7.1507  -16.8279   19.6820 N   0  0  0  0  0  0  0  0  0  0  0  0
    7.8583  -15.9943   20.5954 C   0  0  1  0  0  0  0  0  0  0  0  0
    8.0505  -14.5783   20.1458 C   0  0  0  0  0  0  0  0  0  0  0  0
    7.9386  -14.3790   18.6782 C   0  0  0  0  0  0  0  0  0  0  0  0
    8.1131  -12.9581   18.2532 C   0  0  0  0  0  0  0  0  0  0  0  0
    7.9404  -12.8137   16.7632 C   0  0  0  0  0  0  0  0  0  0  0  0
    8.8731  -13.7345   16.1061 N   0  0  0  0  0  0  0  0  0  0  0  0
    7.2195  -15.9386   21.9426 C   0  0  0  0  0  0  0  0  0  0  0  0
    5.9770  -16.1459   22.0479 O   0  0  0  0  0  0  0  0  0  0  0  0
    6.7319  -17.3699   26.8250 N   0  0  0  0  0  0  0  0  0  0  0  0
    6.8039  -18.1516   25.6390 C   0  0  0  0  0  0  0  0  0  0  0  0
    6.4813  -19.3405   25.7068 O   0  0  0  0  0  0  0  0  0  0  0  0
    7.2535  -17.5002   24.4207 C   0  0  0  0  0  0  0  0  0  0  0  0
    7.5078  -16.0364   24.4446 C   0  0  2  0  0  0  0  0  0  0  0  0
    7.9680  -15.6625   23.0869 N   0  0  0  0  0  0  0  0  0  0  0  0
    8.4632  -15.5291   25.4119 C   0  0  0  0  0  0  0  0  0  0  0  0
    9.6997  -15.7796   25.1244 O   0  0  0  0  0  0  0  0  0  0  0  0
    8.2933  -14.8150   26.6078 N   0  0  0  0  0  0  0  0  0  0  0  0
    7.1955  -14.4601   27.4457 C   0  0  0  0  0  0  0  0  0  0  0  0
    7.4341  -12.9477   27.5765 C   0  0  0  0  0  0  0  0  0  0  0  0
    8.9411  -12.8236   27.6001 C   0  0  0  0  0  0  0  0  0  0  0  0
    9.4479  -14.2041   27.3095 C   0  0  1  0  0  0  0  0  0  0  0  0
    9.7381  -14.9344   28.5410 C   0  0  0  0  0  0  0  0  0  0  0  0
    9.1902  -16.1563   28.9111 O   0  0  0  0  0  0  0  0  0  0  0  0
   10.5669  -14.4363   29.3763 O   0  0  0  0  0  0  0  0  0  0  0  0
  2  1  1  6
  3  2  1  0
  4  3  1  0
  5  4  1  0
  5  6  1  0
  7  6  1  0
  8  9  2  0
  8  2  1  0
 10 11  1  0
 11 13  1  0
 12 11  2  0
 14 13  1  6
 14 15  1  0
 15  8  1  0
 16 14  1  0
 17 16  2  0
 18 19  1  0
 18 16  1  0
 20 19  1  0
 21 20  1  0
 22 21  1  0
 22 18  1  0
 22 23  1  1
 24 23  1  0
 25 23  2  0
M  END
$$$$
