KNP.pdb
     RDKit          3D

 25 25  0  0  1  0  0  0  0  0999 V2000
    8.0650  -16.8991   19.3076 N   0  0  0  0  0  0  0  0  0  0  0  0
    8.2793  -15.7885   20.1739 C   0  0  1  0  0  0  0  0  0  0  0  0
    7.9271  -14.4528   19.5942 C   0  0  0  0  0  0  0  0  0  0  0  0
    7.4090  -14.5041   18.2031 C   0  0  0  0  0  0  0  0  0  0  0  0
    7.8590  -13.3599   17.3555 C   0  0  0  0  0  0  0  0  0  0  0  0
    7.6585  -13.6587   15.8921 C   0  0  0  0  0  0  0  0  0  0  0  0
    8.1597  -12.5161   15.1221 N   0  0  0  0  0  0  0  0  0  0  0  0
    7.5403  -15.9096   21.4644 C   0  0  0  0  0  0  0  0  0  0  0  0
    6.4419  -16.5346   21.4927 O   0  0  0  0  0  0  0  0  0  0  0  0
    7.4841  -18.5038   26.0610 N   0  0  0  0  0  0  0  0  0  0  0  0
    6.7009  -17.5402   25.3676 C   0  0  0  0  0  0  0  0  0  0  0  0
    5.6300  -17.1913   25.8713 O   0  0  0  0  0  0  0  0  0  0  0  0
    7.2116  -17.0266   24.1082 C   0  0  0  0  0  0  0  0  0  0  0  0
    7.3957  -15.5600   23.9563 C   0  0  2  0  0  0  0  0  0  0  0  0
    8.0392  -15.3464   22.6390 N   0  0  0  0  0  0  0  0  0  0  0  0
    8.1710  -14.8649   24.9669 C   0  0  0  0  0  0  0  0  0  0  0  0
    9.4509  -14.9053   24.7808 O   0  0  0  0  0  0  0  0  0  0  0  0
    7.7879  -14.1548   26.1149 N   0  0  0  0  0  0  0  0  0  0  0  0
    6.5589  -13.8395   26.7658 C   0  0  0  0  0  0  0  0  0  0  0  0
    6.7180  -12.3189   26.9200 C   0  0  0  0  0  0  0  0  0  0  0  0
    8.1967  -12.1381   27.1806 C   0  0  0  0  0  0  0  0  0  0  0  0
    8.7935  -13.4992   26.9853 C   0  0  1  0  0  0  0  0  0  0  0  0
    8.9118  -14.2151   28.2532 C   0  0  0  0  0  0  0  0  0  0  0  0
    8.2405  -15.3826   28.5944 O   0  0  0  0  0  0  0  0  0  0  0  0
    9.6950  -13.7570   29.1529 O   0  0  0  0  0  0  0  0  0  0  0  0
  2  1  1  6
  3  2  1  0
  4  3  1  0
  5  4  1  0
  5  6  1  0
  7  6  1  0
  8  9  2  0
  8  2  1  0
 10 11  1  0
 11 13  1  0
 12 11  2  0
 14 13  1  1
 14 15  1  0
 15  8  1  0
 16 14  1  0
 17 16  2  0
 18 19  1  0
 18 16  1  0
 20 19  1  0
 21 20  1  0
 22 21  1  0
 22 18  1  0
 22 23  1  1
 24 23  1  0
 25 23  2  0
M  END
$$$$
