WGN.pdb
     RDKit          3D

 27 28  0  0  1  0  0  0  0  0999 V2000
    7.6079  -16.7039   23.0414 N   0  0  0  0  0  0  0  0  0  0  0  0
    8.5030  -15.5645   23.1485 C   0  0  1  0  0  0  0  0  0  0  0  0
    8.7888  -15.2743   24.6098 C   0  0  0  0  0  0  0  0  0  0  0  0
    7.5112  -14.8499   25.2562 C   0  0  0  0  0  0  0  0  0  0  0  0
    6.4340  -15.6454   25.5197 C   0  0  0  0  0  0  0  0  0  0  0  0
    5.4582  -14.9195   26.1045 N   0  0  0  0  0  0  0  0  0  0  0  0
    5.9042  -13.6464   26.2219 C   0  0  0  0  0  0  0  0  0  0  0  0
    5.3678  -12.4856   26.7270 C   0  0  0  0  0  0  0  0  0  0  0  0
    6.0905  -11.3088   26.7054 C   0  0  0  0  0  0  0  0  0  0  0  0
    7.3741  -11.2625   26.1762 C   0  0  0  0  0  0  0  0  0  0  0  0
    7.9058  -12.4227   25.6731 C   0  0  0  0  0  0  0  0  0  0  0  0
    7.1771  -13.5783   25.7020 C   0  0  0  0  0  0  0  0  0  0  0  0
    9.8182  -15.8917   22.5134 C   0  0  0  0  0  0  0  0  0  0  0  0
   10.6870  -14.9964   22.3134 O   0  0  0  0  0  0  0  0  0  0  0  0
   10.0847  -17.2347   22.1330 N   0  0  0  0  0  0  0  0  0  0  0  0
   11.2598  -17.6216   21.4264 C   0  0  0  0  0  0  0  0  0  0  0  0
   12.3141  -18.2303   22.3278 C   0  0  0  0  0  0  0  0  0  0  0  0
   11.9244  -18.6421   23.4715 O   0  0  0  0  0  0  0  0  0  0  0  0
   16.7025  -18.5293   19.7007 N   0  0  0  0  0  0  0  0  0  0  0  0
   15.9596  -19.3475   20.5818 C   0  0  0  0  0  0  0  0  0  0  0  0
   15.2434  -20.2604   20.1052 O   0  0  0  0  0  0  0  0  0  0  0  0
   16.0471  -19.1058   22.0138 C   0  0  0  0  0  0  0  0  0  0  0  0
   14.7454  -18.9031   22.7348 C   0  0  2  0  0  0  0  0  0  0  0  0
   13.6550  -18.3570   21.9808 N   0  0  0  0  0  0  0  0  0  0  0  0
   14.9330  -18.2180   24.0139 C   0  0  0  0  0  0  0  0  0  0  0  0
   15.3143  -18.8891   25.1759 O   0  0  0  0  0  0  0  0  0  0  0  0
   14.7572  -16.9694   24.1331 O   0  0  0  0  0  0  0  0  0  0  0  0
  2  1  1  1
  3  4  1  0
  3  2  1  0
  4  5  2  0
  5  6  1  0
  7  6  1  0
  8  7  2  0
  9  8  1  0
 10 11  1  0
 10  9  2  0
 11 12  2  0
 12  4  1  0
 12  7  1  0
 13  2  1  0
 13 15  1  0
 14 13  2  0
 16 15  1  0
 17 16  1  0
 18 17  2  0
 19 20  1  0
 20 21  2  0
 22 20  1  0
 23 24  1  0
 23 22  1  6
 24 17  1  0
 25 23  1  0
 26 25  1  0
 27 25  2  0
M  END
$$$$
