WGN.pdb
     RDKit          3D

 27 28  0  0  1  0  0  0  0  0999 V2000
    9.2519  -16.4531   24.9764 N   0  0  0  0  0  0  0  0  0  0  0  0
    8.8106  -16.2883   23.6019 C   0  0  1  0  0  0  0  0  0  0  0  0
    8.2512  -14.8915   23.4086 C   0  0  0  0  0  0  0  0  0  0  0  0
    7.2934  -14.6181   24.5213 C   0  0  0  0  0  0  0  0  0  0  0  0
    6.4637  -15.5239   25.1162 C   0  0  0  0  0  0  0  0  0  0  0  0
    5.7373  -14.9189   26.0792 N   0  0  0  0  0  0  0  0  0  0  0  0
    6.0974  -13.6140   26.1102 C   0  0  0  0  0  0  0  0  0  0  0  0
    5.7117  -12.5309   26.8642 C   0  0  0  0  0  0  0  0  0  0  0  0
    6.2800  -11.2896   26.6548 C   0  0  0  0  0  0  0  0  0  0  0  0
    7.2532  -11.0987   25.6820 C   0  0  0  0  0  0  0  0  0  0  0  0
    7.6352  -12.1818   24.9317 C   0  0  0  0  0  0  0  0  0  0  0  0
    7.0627  -13.4029   25.1516 C   0  0  0  0  0  0  0  0  0  0  0  0
    9.9800  -16.4114   22.6759 C   0  0  0  0  0  0  0  0  0  0  0  0
   10.9090  -15.5550   22.6803 O   0  0  0  0  0  0  0  0  0  0  0  0
   10.0373  -17.5136   21.7808 N   0  0  0  0  0  0  0  0  0  0  0  0
   11.0738  -17.6766   20.8170 C   0  0  0  0  0  0  0  0  0  0  0  0
   12.4291  -17.9227   21.4471 C   0  0  0  0  0  0  0  0  0  0  0  0
   13.4051  -18.1266   20.6501 O   0  0  0  0  0  0  0  0  0  0  0  0
   15.5507  -16.6294   21.9735 N   0  0  0  0  0  0  0  0  0  0  0  0
   15.1601  -16.2958   23.2903 C   0  0  0  0  0  0  0  0  0  0  0  0
   15.2374  -15.1004   23.6627 O   0  0  0  0  0  0  0  0  0  0  0  0
   14.6816  -17.3479   24.1737 C   0  0  0  0  0  0  0  0  0  0  0  0
   13.8054  -18.3948   23.5477 C   0  0  2  0  0  0  0  0  0  0  0  0
   12.6573  -17.9403   22.8191 N   0  0  0  0  0  0  0  0  0  0  0  0
   13.4760  -19.4635   24.4911 C   0  0  0  0  0  0  0  0  0  0  0  0
   14.3075  -20.5643   24.6983 O   0  0  0  0  0  0  0  0  0  0  0  0
   12.4095  -19.4442   25.1740 O   0  0  0  0  0  0  0  0  0  0  0  0
  2  1  1  1
  3  4  1  0
  3  2  1  0
  4  5  2  0
  5  6  1  0
  7  6  1  0
  8  7  2  0
  9  8  1  0
 10 11  1  0
 10  9  2  0
 11 12  2  0
 12  4  1  0
 12  7  1  0
 13  2  1  0
 13 15  1  0
 14 13  2  0
 16 15  1  0
 17 16  1  0
 18 17  2  0
 19 20  1  0
 20 21  2  0
 22 20  1  0
 23 24  1  0
 23 22  1  1
 24 17  1  0
 25 23  1  0
 26 25  1  0
 27 25  2  0
M  END
$$$$
