WGN.pdb
     RDKit          3D

 27 28  0  0  1  0  0  0  0  0999 V2000
    6.8772  -17.3785   23.9469 N   0  0  0  0  0  0  0  0  0  0  0  0
    7.8600  -16.3744   23.5766 C   0  0  1  0  0  0  0  0  0  0  0  0
    8.4608  -15.7614   24.8275 C   0  0  0  0  0  0  0  0  0  0  0  0
    7.4009  -14.9551   25.5032 C   0  0  0  0  0  0  0  0  0  0  0  0
    6.2793  -15.4398   26.1113 C   0  0  0  0  0  0  0  0  0  0  0  0
    5.5479  -14.4200   26.6074 N   0  0  0  0  0  0  0  0  0  0  0  0
    6.1981  -13.2674   26.3205 C   0  0  0  0  0  0  0  0  0  0  0  0
    5.9461  -11.9383   26.5658 C   0  0  0  0  0  0  0  0  0  0  0  0
    6.8252  -10.9642   26.1348 C   0  0  0  0  0  0  0  0  0  0  0  0
    7.9845  -11.2957   25.4448 C   0  0  0  0  0  0  0  0  0  0  0  0
    8.2323  -12.6230   25.2019 C   0  0  0  0  0  0  0  0  0  0  0  0
    7.3519  -13.5740   25.6351 C   0  0  0  0  0  0  0  0  0  0  0  0
    8.9879  -17.0190   22.8334 C   0  0  0  0  0  0  0  0  0  0  0  0
    9.2473  -18.2471   22.9778 O   0  0  0  0  0  0  0  0  0  0  0  0
    9.7742  -16.2280   21.9527 N   0  0  0  0  0  0  0  0  0  0  0  0
   10.8760  -16.7507   21.2161 C   0  0  0  0  0  0  0  0  0  0  0  0
   12.1481  -16.8257   22.0350 C   0  0  0  0  0  0  0  0  0  0  0  0
   12.2807  -15.9678   22.9708 O   0  0  0  0  0  0  0  0  0  0  0  0
   14.4341  -21.3187   21.3189 N   0  0  0  0  0  0  0  0  0  0  0  0
   14.5090  -20.3985   22.3890 C   0  0  0  0  0  0  0  0  0  0  0  0
   13.9639  -20.6900   23.4805 O   0  0  0  0  0  0  0  0  0  0  0  0
   15.2147  -19.1415   22.1924 C   0  0  0  0  0  0  0  0  0  0  0  0
   14.4314  -17.8894   22.4646 C   0  0  2  0  0  0  0  0  0  0  0  0
   13.1569  -17.7590   21.8209 N   0  0  0  0  0  0  0  0  0  0  0  0
   15.2544  -16.6892   22.3131 C   0  0  0  0  0  0  0  0  0  0  0  0
   16.4369  -16.4950   23.0273 O   0  0  0  0  0  0  0  0  0  0  0  0
   14.9327  -15.7566   21.5189 O   0  0  0  0  0  0  0  0  0  0  0  0
  2  1  1  1
  3  4  1  0
  3  2  1  0
  4  5  2  0
  5  6  1  0
  7  6  1  0
  8  7  2  0
  9  8  1  0
 10 11  1  0
 10  9  2  0
 11 12  2  0
 12  4  1  0
 12  7  1  0
 13  2  1  0
 13 15  1  0
 14 13  2  0
 16 15  1  0
 17 16  1  0
 18 17  2  0
 19 20  1  0
 20 21  2  0
 22 20  1  0
 23 24  1  0
 23 22  1  6
 24 17  1  0
 25 23  1  0
 26 25  1  0
 27 25  2  0
M  END
$$$$
