WGN.pdb
     RDKit          3D

 27 28  0  0  1  0  0  0  0  0999 V2000
    7.0005  -17.4203   23.3903 N   0  0  0  0  0  0  0  0  0  0  0  0
    7.7244  -16.2350   22.9637 C   0  0  1  0  0  0  0  0  0  0  0  0
    8.4925  -15.6553   24.1364 C   0  0  0  0  0  0  0  0  0  0  0  0
    7.5144  -14.9869   25.0457 C   0  0  0  0  0  0  0  0  0  0  0  0
    6.5276  -15.5984   25.7633 C   0  0  0  0  0  0  0  0  0  0  0  0
    5.8349  -14.6796   26.4683 N   0  0  0  0  0  0  0  0  0  0  0  0
    6.3750  -13.4655   26.2079 C   0  0  0  0  0  0  0  0  0  0  0  0
    6.1006  -12.1849   26.6258 C   0  0  0  0  0  0  0  0  0  0  0  0
    6.8525  -11.1197   26.1702 C   0  0  0  0  0  0  0  0  0  0  0  0
    7.9032  -11.3088   25.2813 C   0  0  0  0  0  0  0  0  0  0  0  0
    8.1738  -12.5882   24.8665 C   0  0  0  0  0  0  0  0  0  0  0  0
    7.4199  -13.6307   25.3269 C   0  0  0  0  0  0  0  0  0  0  0  0
    8.7409  -16.6066   21.9299 C   0  0  0  0  0  0  0  0  0  0  0  0
    9.3714  -15.7208   21.2865 O   0  0  0  0  0  0  0  0  0  0  0  0
    8.9941  -17.9816   21.6753 N   0  0  0  0  0  0  0  0  0  0  0  0
    9.8320  -18.4322   20.6148 C   0  0  0  0  0  0  0  0  0  0  0  0
   11.3044  -18.2142   20.8959 C   0  0  0  0  0  0  0  0  0  0  0  0
   12.1259  -18.6273   20.0105 O   0  0  0  0  0  0  0  0  0  0  0  0
   15.7858  -14.7256   21.5975 N   0  0  0  0  0  0  0  0  0  0  0  0
   15.1745  -15.8948   22.1042 C   0  0  0  0  0  0  0  0  0  0  0  0
   15.8997  -16.8091   22.5644 O   0  0  0  0  0  0  0  0  0  0  0  0
   13.7240  -16.0033   22.0759 C   0  0  0  0  0  0  0  0  0  0  0  0
   13.1502  -17.3442   22.4340 C   0  0  2  0  0  0  0  0  0  0  0  0
   11.7947  -17.6035   22.0454 N   0  0  0  0  0  0  0  0  0  0  0  0
   13.4007  -17.6867   23.8342 C   0  0  0  0  0  0  0  0  0  0  0  0
   14.3489  -18.6358   24.2166 O   0  0  0  0  0  0  0  0  0  0  0  0
   12.7638  -17.1345   24.7795 O   0  0  0  0  0  0  0  0  0  0  0  0
  2  1  1  1
  3  4  1  0
  3  2  1  0
  4  5  2  0
  5  6  1  0
  7  6  1  0
  8  7  2  0
  9  8  1  0
 10 11  1  0
 10  9  2  0
 11 12  2  0
 12  4  1  0
 12  7  1  0
 13  2  1  0
 13 15  1  0
 14 13  2  0
 16 15  1  0
 17 16  1  0
 18 17  2  0
 19 20  1  0
 20 21  2  0
 22 20  1  0
 23 24  1  0
 23 22  1  1
 24 17  1  0
 25 23  1  0
 26 25  1  0
 27 25  2  0
M  END
$$$$
