WGN.pdb
     RDKit          3D

 27 28  0  0  1  0  0  0  0  0999 V2000
    7.3788  -16.7950   22.8079 N   0  0  0  0  0  0  0  0  0  0  0  0
    8.1365  -15.5569   22.7450 C   0  0  1  0  0  0  0  0  0  0  0  0
    8.6266  -15.1864   24.1321 C   0  0  0  0  0  0  0  0  0  0  0  0
    7.4592  -14.6857   24.9174 C   0  0  0  0  0  0  0  0  0  0  0  0
    6.3328  -15.3895   25.2312 C   0  0  0  0  0  0  0  0  0  0  0  0
    5.4902  -14.6143   25.9454 N   0  0  0  0  0  0  0  0  0  0  0  0
    6.0725  -13.4012   26.0966 C   0  0  0  0  0  0  0  0  0  0  0  0
    5.7030  -12.2313   26.7170 C   0  0  0  0  0  0  0  0  0  0  0  0
    6.5377  -11.1311   26.6989 C   0  0  0  0  0  0  0  0  0  0  0  0
    7.7693  -11.1730   26.0574 C   0  0  0  0  0  0  0  0  0  0  0  0
    8.1343  -12.3421   25.4395 C   0  0  0  0  0  0  0  0  0  0  0  0
    7.2965  -13.4212   25.4667 C   0  0  0  0  0  0  0  0  0  0  0  0
    9.3561  -15.7513   21.8995 C   0  0  0  0  0  0  0  0  0  0  0  0
   10.1418  -14.7921   21.6570 O   0  0  0  0  0  0  0  0  0  0  0  0
    9.6261  -17.0402   21.3654 N   0  0  0  0  0  0  0  0  0  0  0  0
   10.6617  -17.2855   20.4182 C   0  0  0  0  0  0  0  0  0  0  0  0
   12.0290  -17.4028   21.0593 C   0  0  0  0  0  0  0  0  0  0  0  0
   13.0082  -17.6601   20.2819 O   0  0  0  0  0  0  0  0  0  0  0  0
   16.2447  -17.6029   23.4939 N   0  0  0  0  0  0  0  0  0  0  0  0
   15.5828  -16.4231   23.9034 C   0  0  0  0  0  0  0  0  0  0  0  0
   16.2663  -15.4511   24.3053 O   0  0  0  0  0  0  0  0  0  0  0  0
   14.1299  -16.3719   23.8475 C   0  0  0  0  0  0  0  0  0  0  0  0
   13.4487  -17.5320   23.1800 C   0  0  2  0  0  0  0  0  0  0  0  0
   12.2649  -17.2507   22.4216 N   0  0  0  0  0  0  0  0  0  0  0  0
   13.2648  -18.6563   24.0980 C   0  0  0  0  0  0  0  0  0  0  0  0
   12.0054  -19.1564   24.4296 O   0  0  0  0  0  0  0  0  0  0  0  0
   14.2483  -19.2385   24.6440 O   0  0  0  0  0  0  0  0  0  0  0  0
  2  1  1  1
  3  4  1  0
  3  2  1  0
  4  5  2  0
  5  6  1  0
  7  6  1  0
  8  7  2  0
  9  8  1  0
 10 11  1  0
 10  9  2  0
 11 12  2  0
 12  4  1  0
 12  7  1  0
 13  2  1  0
 13 15  1  0
 14 13  2  0
 16 15  1  0
 17 16  1  0
 18 17  2  0
 19 20  1  0
 20 21  2  0
 22 20  1  0
 23 24  1  0
 23 22  1  1
 24 17  1  0
 25 23  1  0
 26 25  1  0
 27 25  2  0
M  END
$$$$
