WGN.pdb
     RDKit          3D

 27 28  0  0  1  0  0  0  0  0999 V2000
    9.4415  -16.0907   24.2319 N   0  0  0  0  0  0  0  0  0  0  0  0
    8.2917  -16.4935   23.4403 C   0  0  1  0  0  0  0  0  0  0  0  0
    7.3458  -15.3185   23.2780 C   0  0  0  0  0  0  0  0  0  0  0  0
    6.9031  -14.8891   24.6381 C   0  0  0  0  0  0  0  0  0  0  0  0
    6.4069  -15.6964   25.6203 C   0  0  0  0  0  0  0  0  0  0  0  0
    6.1066  -14.9616   26.7116 N   0  0  0  0  0  0  0  0  0  0  0  0
    6.4097  -13.6708   26.4368 C   0  0  0  0  0  0  0  0  0  0  0  0
    6.3241  -12.4948   27.1438 C   0  0  0  0  0  0  0  0  0  0  0  0
    6.7241  -11.3013   26.5753 C   0  0  0  0  0  0  0  0  0  0  0  0
    7.2227  -11.2530   25.2796 C   0  0  0  0  0  0  0  0  0  0  0  0
    7.3065  -12.4286   24.5774 C   0  0  0  0  0  0  0  0  0  0  0  0
    6.9062  -13.6006   25.1547 C   0  0  0  0  0  0  0  0  0  0  0  0
    8.7341  -16.8783   22.0632 C   0  0  0  0  0  0  0  0  0  0  0  0
    7.9644  -17.5054   21.2818 O   0  0  0  0  0  0  0  0  0  0  0  0
   10.0435  -16.5275   21.6367 N   0  0  0  0  0  0  0  0  0  0  0  0
   10.5633  -16.8815   20.3584 C   0  0  0  0  0  0  0  0  0  0  0  0
   11.9366  -17.5158   20.4374 C   0  0  0  0  0  0  0  0  0  0  0  0
   12.5294  -17.7430   19.3300 O   0  0  0  0  0  0  0  0  0  0  0  0
   15.4757  -14.9455   22.9405 N   0  0  0  0  0  0  0  0  0  0  0  0
   15.7533  -16.2250   22.4082 C   0  0  0  0  0  0  0  0  0  0  0  0
   16.7865  -16.8286   22.7845 O   0  0  0  0  0  0  0  0  0  0  0  0
   14.8337  -16.8026   21.4401 C   0  0  0  0  0  0  0  0  0  0  0  0
   13.9672  -17.9255   21.9335 C   0  0  2  0  0  0  0  0  0  0  0  0
   12.5679  -17.8581   21.6286 N   0  0  0  0  0  0  0  0  0  0  0  0
   14.2134  -18.2228   23.3448 C   0  0  0  0  0  0  0  0  0  0  0  0
   13.3101  -17.8827   24.3521 O   0  0  0  0  0  0  0  0  0  0  0  0
   15.2686  -18.8091   23.7281 O   0  0  0  0  0  0  0  0  0  0  0  0
  2  1  1  1
  3  4  1  0
  3  2  1  0
  4  5  2  0
  5  6  1  0
  7  6  1  0
  8  7  2  0
  9  8  1  0
 10 11  1  0
 10  9  2  0
 11 12  2  0
 12  4  1  0
 12  7  1  0
 13  2  1  0
 13 15  1  0
 14 13  2  0
 16 15  1  0
 17 16  1  0
 18 17  2  0
 19 20  1  0
 20 21  2  0
 22 20  1  0
 23 24  1  0
 23 22  1  1
 24 17  1  0
 25 23  1  0
 26 25  1  0
 27 25  2  0
M  END
$$$$
