WGN.pdb
     RDKit          3D

 27 28  0  0  1  0  0  0  0  0999 V2000
    7.2034  -17.7141   24.1114 N   0  0  0  0  0  0  0  0  0  0  0  0
    7.8990  -16.6376   23.4270 C   0  0  1  0  0  0  0  0  0  0  0  0
    8.5399  -15.7141   24.4457 C   0  0  0  0  0  0  0  0  0  0  0  0
    7.4492  -15.0568   25.2258 C   0  0  0  0  0  0  0  0  0  0  0  0
    6.4678  -15.6872   25.9345 C   0  0  0  0  0  0  0  0  0  0  0  0
    5.6547  -14.7745   26.5061 N   0  0  0  0  0  0  0  0  0  0  0  0
    6.1106  -13.5453   26.1674 C   0  0  0  0  0  0  0  0  0  0  0  0
    5.7038  -12.2619   26.4459 C   0  0  0  0  0  0  0  0  0  0  0  0
    6.3962  -11.1789   25.9404 C   0  0  0  0  0  0  0  0  0  0  0  0
    7.5185  -11.3524   25.1402 C   0  0  0  0  0  0  0  0  0  0  0  0
    7.9211  -12.6346   24.8646 C   0  0  0  0  0  0  0  0  0  0  0  0
    7.2246  -13.6948   25.3725 C   0  0  0  0  0  0  0  0  0  0  0  0
    9.0129  -17.1991   22.5999 C   0  0  0  0  0  0  0  0  0  0  0  0
    9.8565  -17.9976   23.0971 O   0  0  0  0  0  0  0  0  0  0  0  0
    9.1147  -16.8219   21.2336 N   0  0  0  0  0  0  0  0  0  0  0  0
   10.3072  -16.2912   20.6626 C   0  0  0  0  0  0  0  0  0  0  0  0
   11.5001  -16.3956   21.5902 C   0  0  0  0  0  0  0  0  0  0  0  0
   11.4808  -15.6639   22.6360 O   0  0  0  0  0  0  0  0  0  0  0  0
   15.3240  -18.8999   25.1380 N   0  0  0  0  0  0  0  0  0  0  0  0
   14.6563  -17.8904   24.4082 C   0  0  0  0  0  0  0  0  0  0  0  0
   14.8175  -16.6919   24.7416 O   0  0  0  0  0  0  0  0  0  0  0  0
   13.8021  -18.2713   23.2938 C   0  0  0  0  0  0  0  0  0  0  0  0
   13.8122  -17.3545   22.1043 C   0  0  2  0  0  0  0  0  0  0  0  0
   12.5917  -17.2272   21.3629 N   0  0  0  0  0  0  0  0  0  0  0  0
   14.9645  -17.6013   21.2372 C   0  0  0  0  0  0  0  0  0  0  0  0
   14.8374  -18.1303   19.9526 O   0  0  0  0  0  0  0  0  0  0  0  0
   16.1470  -17.3454   21.6115 O   0  0  0  0  0  0  0  0  0  0  0  0
  2  1  1  1
  3  4  1  0
  3  2  1  0
  4  5  2  0
  5  6  1  0
  7  6  1  0
  8  7  2  0
  9  8  1  0
 10 11  1  0
 10  9  2  0
 11 12  2  0
 12  4  1  0
 12  7  1  0
 13  2  1  0
 13 15  1  0
 14 13  2  0
 16 15  1  0
 17 16  1  0
 18 17  2  0
 19 20  1  0
 20 21  2  0
 22 20  1  0
 23 24  1  0
 23 22  1  1
 24 17  1  0
 25 23  1  0
 26 25  1  0
 27 25  2  0
M  END
$$$$
