WGN.pdb
     RDKit          3D

 27 28  0  0  1  0  0  0  0  0999 V2000
    6.8456  -17.6470   24.6204 N   0  0  0  0  0  0  0  0  0  0  0  0
    7.2101  -16.7244   23.5588 C   0  0  1  0  0  0  0  0  0  0  0  0
    8.0611  -15.6036   24.1253 C   0  0  0  0  0  0  0  0  0  0  0  0
    7.2214  -14.8226   25.0820 C   0  0  0  0  0  0  0  0  0  0  0  0
    6.2145  -15.3128   25.8621 C   0  0  0  0  0  0  0  0  0  0  0  0
    5.6746  -14.3171   26.5956 N   0  0  0  0  0  0  0  0  0  0  0  0
    6.3346  -13.1747   26.2908 C   0  0  0  0  0  0  0  0  0  0  0  0
    6.2344  -11.8690   26.7095 C   0  0  0  0  0  0  0  0  0  0  0  0
    7.0758  -10.8999   26.1993 C   0  0  0  0  0  0  0  0  0  0  0  0
    8.0438  -11.2131   25.2535 C   0  0  0  0  0  0  0  0  0  0  0  0
    8.1407  -12.5169   24.8382 C   0  0  0  0  0  0  0  0  0  0  0  0
    7.3001  -13.4634   25.3529 C   0  0  0  0  0  0  0  0  0  0  0  0
    8.0536  -17.4286   22.5426 C   0  0  0  0  0  0  0  0  0  0  0  0
    8.9343  -18.2646   22.8918 O   0  0  0  0  0  0  0  0  0  0  0  0
    7.8527  -17.1457   21.1646 N   0  0  0  0  0  0  0  0  0  0  0  0
    8.5861  -16.1455   20.4636 C   0  0  0  0  0  0  0  0  0  0  0  0
   10.0826  -16.3762   20.5053 C   0  0  0  0  0  0  0  0  0  0  0  0
   10.7683  -15.8749   19.5525 O   0  0  0  0  0  0  0  0  0  0  0  0
   11.8922  -15.3285   23.6135 N   0  0  0  0  0  0  0  0  0  0  0  0
   12.4454  -16.5566   24.0416 C   0  0  0  0  0  0  0  0  0  0  0  0
   12.7825  -16.6854   25.2430 O   0  0  0  0  0  0  0  0  0  0  0  0
   12.6081  -17.6333   23.0768 C   0  0  0  0  0  0  0  0  0  0  0  0
   12.1304  -17.3532   21.6808 C   0  0  2  0  0  0  0  0  0  0  0  0
   10.7314  -17.0933   21.5051 N   0  0  0  0  0  0  0  0  0  0  0  0
   12.6354  -18.3392   20.7250 C   0  0  0  0  0  0  0  0  0  0  0  0
   11.8103  -19.2849   20.1158 O   0  0  0  0  0  0  0  0  0  0  0  0
   13.8583  -18.3855   20.3989 O   0  0  0  0  0  0  0  0  0  0  0  0
  2  1  1  1
  3  4  1  0
  3  2  1  0
  4  5  2  0
  5  6  1  0
  7  6  1  0
  8  7  2  0
  9  8  1  0
 10 11  1  0
 10  9  2  0
 11 12  2  0
 12  4  1  0
 12  7  1  0
 13  2  1  0
 13 15  1  0
 14 13  2  0
 16 15  1  0
 17 16  1  0
 18 17  2  0
 19 20  1  0
 20 21  2  0
 22 20  1  0
 23 24  1  0
 23 22  1  1
 24 17  1  0
 25 23  1  0
 26 25  1  0
 27 25  2  0
M  END
$$$$
