MTQ.pdb
     RDKit          3D

 25 24  0  0  1  0  0  0  0  0999 V2000
   28.3556  -19.0963   -4.3206 C   0  0  0  0  0  0  0  0  0  0  0  0
   27.7217  -19.2824   -5.9722 S   0  0  0  0  0  0  0  0  0  0  0  0
   28.1129  -20.7671   -6.8402 C   0  0  0  0  0  0  0  0  0  0  0  0
   27.6894  -20.8923   -8.2663 C   0  0  0  0  0  0  0  0  0  0  0  0
   26.3904  -20.2946   -8.6518 C   0  0  2  0  0  0  0  0  0  0  0  0
   25.2799  -21.1868   -8.2535 N   0  0  0  0  0  0  0  0  0  0  0  0
   26.2398  -20.1778  -10.1337 C   0  0  0  0  0  0  0  0  0  0  0  0
   27.0563  -19.5596  -10.8580 O   0  0  0  0  0  0  0  0  0  0  0  0
   26.8391  -22.1246  -12.7598 C   0  0  0  0  0  0  0  0  0  0  0  0
   25.3593  -21.8904  -12.9079 C   0  0  1  0  0  0  0  0  0  0  0  0
   24.6243  -22.9759  -12.5005 O   0  0  0  0  0  0  0  0  0  0  0  0
   24.9279  -20.5853  -12.2490 C   0  0  2  0  0  0  0  0  0  0  0  0
   25.1321  -20.7775  -10.8246 N   0  0  0  0  0  0  0  0  0  0  0  0
   23.5187  -20.2428  -12.5654 C   0  0  0  0  0  0  0  0  0  0  0  0
   22.5734  -20.5606  -11.7984 O   0  0  0  0  0  0  0  0  0  0  0  0
   21.6589  -17.5708  -18.1070 N   0  0  0  0  0  0  0  0  0  0  0  0
   20.8339  -16.9996  -17.0922 C   0  0  0  0  0  0  0  0  0  0  0  0
   20.3120  -15.8829  -17.2680 O   0  0  0  0  0  0  0  0  0  0  0  0
   20.6304  -17.7675  -15.8535 C   0  0  0  0  0  0  0  0  0  0  0  0
   21.9084  -18.3277  -15.3274 C   0  0  0  0  0  0  0  0  0  0  0  0
   21.8105  -19.1044  -14.0432 C   0  0  2  0  0  0  0  0  0  0  0  0
   23.1804  -19.5407  -13.7496 N   0  0  0  0  0  0  0  0  0  0  0  0
   20.9153  -20.2573  -14.2160 C   0  0  0  0  0  0  0  0  0  0  0  0
   21.3098  -21.3612  -14.7020 O   0  0  0  0  0  0  0  0  0  0  0  0
   19.5907  -20.1682  -13.8435 O   0  0  0  0  0  0  0  0  0  0  0  0
  2  3  1  0
  2  1  1  0
  4  5  1  0
  4  3  1  0
  5  7  1  0
  5  6  1  6
  7  8  2  0
  7 13  1  0
 10  9  1  1
 11 10  1  0
 12 10  1  0
 12 14  1  0
 12 13  1  1
 14 15  2  0
 16 17  1  0
 17 19  1  0
 18 17  2  0
 19 20  1  0
 21 20  1  6
 22 14  1  0
 22 21  1  0
 23 21  1  0
 23 25  1  0
 24 23  2  0
M  END
$$$$
