MTQ.pdb
     RDKit          3D

 25 24  0  0  1  0  0  0  0  0999 V2000
   26.8151  -15.4009  -15.5884 C   0  0  0  0  0  0  0  0  0  0  0  0
   27.9371  -16.2678  -16.6626 S   0  0  0  0  0  0  0  0  0  0  0  0
   28.4998  -17.8593  -16.1515 C   0  0  0  0  0  0  0  0  0  0  0  0
   27.5759  -18.7211  -15.3562 C   0  0  0  0  0  0  0  0  0  0  0  0
   28.1044  -20.0074  -14.8471 C   0  0  2  0  0  0  0  0  0  0  0  0
   28.4243  -20.9097  -15.9747 N   0  0  0  0  0  0  0  0  0  0  0  0
   27.0845  -20.7660  -14.0618 C   0  0  0  0  0  0  0  0  0  0  0  0
   26.4753  -21.7644  -14.5151 O   0  0  0  0  0  0  0  0  0  0  0  0
   24.7643  -21.1655   -9.6539 C   0  0  0  0  0  0  0  0  0  0  0  0
   25.8962  -20.6816  -10.5208 C   0  0  1  0  0  0  0  0  0  0  0  0
   27.1201  -21.0507  -10.0206 O   0  0  0  0  0  0  0  0  0  0  0  0
   25.6948  -21.0746  -11.9797 C   0  0  2  0  0  0  0  0  0  0  0  0
   26.7383  -20.3882  -12.7197 N   0  0  0  0  0  0  0  0  0  0  0  0
   24.3404  -20.7156  -12.4696 C   0  0  0  0  0  0  0  0  0  0  0  0
   24.0211  -19.5238  -12.7151 O   0  0  0  0  0  0  0  0  0  0  0  0
   21.3122  -23.3844  -16.4370 N   0  0  0  0  0  0  0  0  0  0  0  0
   20.0912  -23.0197  -15.7945 C   0  0  0  0  0  0  0  0  0  0  0  0
   19.0267  -23.0053  -16.4404 O   0  0  0  0  0  0  0  0  0  0  0  0
   20.1401  -22.6667  -14.3668 C   0  0  0  0  0  0  0  0  0  0  0  0
   21.5332  -22.6825  -13.8350 C   0  0  0  0  0  0  0  0  0  0  0  0
   22.0286  -21.3925  -13.2411 C   0  0  2  0  0  0  0  0  0  0  0  0
   23.3484  -21.7060  -12.6817 N   0  0  0  0  0  0  0  0  0  0  0  0
   21.1073  -20.9313  -12.1930 C   0  0  0  0  0  0  0  0  0  0  0  0
   21.2249  -21.2805  -10.9785 O   0  0  0  0  0  0  0  0  0  0  0  0
   20.0662  -20.0842  -12.5089 O   0  0  0  0  0  0  0  0  0  0  0  0
  2  3  1  0
  2  1  1  0
  4  5  1  0
  4  3  1  0
  5  7  1  0
  5  6  1  6
  7  8  2  0
  7 13  1  0
 10  9  1  1
 11 10  1  0
 12 10  1  0
 12 14  1  0
 12 13  1  6
 14 15  2  0
 16 17  1  0
 17 19  1  0
 18 17  2  0
 19 20  1  0
 21 20  1  1
 22 14  1  0
 22 21  1  0
 23 21  1  0
 23 25  1  0
 24 23  2  0
M  END
$$$$
