MTQ.pdb
     RDKit          3D

 25 24  0  0  1  0  0  0  0  0999 V2000
   28.5273  -25.6891  -18.1309 C   0  0  0  0  0  0  0  0  0  0  0  0
   27.4694  -24.4255  -17.4611 S   0  0  0  0  0  0  0  0  0  0  0  0
   27.6477  -24.0248  -15.7527 C   0  0  0  0  0  0  0  0  0  0  0  0
   26.8213  -22.9161  -15.1901 C   0  0  0  0  0  0  0  0  0  0  0  0
   26.4857  -21.7865  -16.0872 C   0  0  2  0  0  0  0  0  0  0  0  0
   27.6646  -20.9120  -16.2694 N   0  0  0  0  0  0  0  0  0  0  0  0
   25.4575  -20.8797  -15.4933 C   0  0  0  0  0  0  0  0  0  0  0  0
   25.6548  -20.2111  -14.4505 O   0  0  0  0  0  0  0  0  0  0  0  0
   21.5836  -18.0511  -15.7052 C   0  0  0  0  0  0  0  0  0  0  0  0
   22.7823  -18.7942  -16.2322 C   0  0  1  0  0  0  0  0  0  0  0  0
   23.8687  -17.9701  -16.3901 O   0  0  0  0  0  0  0  0  0  0  0  0
   23.0813  -20.0385  -15.4041 C   0  0  2  0  0  0  0  0  0  0  0  0
   24.1621  -20.7196  -16.0936 N   0  0  0  0  0  0  0  0  0  0  0  0
   21.8863  -20.9060  -15.2539 C   0  0  0  0  0  0  0  0  0  0  0  0
   21.5060  -21.6723  -16.1763 O   0  0  0  0  0  0  0  0  0  0  0  0
   19.6959  -22.5845   -9.8059 N   0  0  0  0  0  0  0  0  0  0  0  0
   18.5279  -22.9270  -10.5510 C   0  0  0  0  0  0  0  0  0  0  0  0
   17.5598  -23.4641   -9.9812 O   0  0  0  0  0  0  0  0  0  0  0  0
   18.5147  -22.6274  -11.9917 C   0  0  0  0  0  0  0  0  0  0  0  0
   19.7818  -21.9811  -12.4393 C   0  0  0  0  0  0  0  0  0  0  0  0
   19.8915  -21.6904  -13.9109 C   0  0  2  0  0  0  0  0  0  0  0  0
   21.1226  -20.9058  -14.0594 N   0  0  0  0  0  0  0  0  0  0  0  0
   18.7209  -20.9262  -14.3644 C   0  0  0  0  0  0  0  0  0  0  0  0
   18.6304  -19.6682  -14.2237 O   0  0  0  0  0  0  0  0  0  0  0  0
   17.6646  -21.5717  -14.9717 O   0  0  0  0  0  0  0  0  0  0  0  0
  2  3  1  0
  2  1  1  0
  4  5  1  0
  4  3  1  0
  5  7  1  0
  5  6  1  1
  7  8  2  0
  7 13  1  0
 10  9  1  1
 11 10  1  0
 12 10  1  0
 12 14  1  0
 12 13  1  6
 14 15  2  0
 16 17  1  0
 17 19  1  0
 18 17  2  0
 19 20  1  0
 21 20  1  1
 22 14  1  0
 22 21  1  0
 23 21  1  0
 23 25  1  0
 24 23  2  0
M  END
$$$$
