MTQ.pdb
     RDKit          3D

 25 24  0  0  1  0  0  0  0  0999 V2000
   28.0116  -18.0636   -6.0093 C   0  0  0  0  0  0  0  0  0  0  0  0
   28.1150  -19.7688   -6.5051 S   0  0  0  0  0  0  0  0  0  0  0  0
   26.7489  -20.4527   -7.3867 C   0  0  0  0  0  0  0  0  0  0  0  0
   26.5610  -20.0721   -8.8179 C   0  0  0  0  0  0  0  0  0  0  0  0
   26.4369  -21.1658   -9.8087 C   0  0  2  0  0  0  0  0  0  0  0  0
   27.7293  -21.8701   -9.9558 N   0  0  0  0  0  0  0  0  0  0  0  0
   26.1516  -20.6536  -11.1829 C   0  0  0  0  0  0  0  0  0  0  0  0
   26.9832  -19.9983  -11.8554 O   0  0  0  0  0  0  0  0  0  0  0  0
   26.0829  -22.4414  -14.0029 C   0  0  0  0  0  0  0  0  0  0  0  0
   24.6983  -21.8506  -13.9827 C   0  0  1  0  0  0  0  0  0  0  0  0
   23.7589  -22.7580  -13.5602 O   0  0  0  0  0  0  0  0  0  0  0  0
   24.6591  -20.5356  -13.2128 C   0  0  2  0  0  0  0  0  0  0  0  0
   24.8866  -20.8869  -11.8226 N   0  0  0  0  0  0  0  0  0  0  0  0
   23.3719  -19.8205  -13.4000 C   0  0  0  0  0  0  0  0  0  0  0  0
   22.4422  -19.9018  -12.5564 O   0  0  0  0  0  0  0  0  0  0  0  0
   22.7196  -15.5825  -17.8515 N   0  0  0  0  0  0  0  0  0  0  0  0
   21.3677  -15.5699  -17.3943 C   0  0  0  0  0  0  0  0  0  0  0  0
   20.5463  -14.7815  -17.8982 O   0  0  0  0  0  0  0  0  0  0  0  0
   20.9916  -16.5063  -16.3232 C   0  0  0  0  0  0  0  0  0  0  0  0
   22.1543  -17.3130  -15.8530 C   0  0  0  0  0  0  0  0  0  0  0  0
   21.8695  -18.3103  -14.7637 C   0  0  2  0  0  0  0  0  0  0  0  0
   23.1381  -19.0137  -14.5421 N   0  0  0  0  0  0  0  0  0  0  0  0
   20.8176  -19.2424  -15.1935 C   0  0  0  0  0  0  0  0  0  0  0  0
   19.5835  -19.0122  -15.0073 O   0  0  0  0  0  0  0  0  0  0  0  0
   21.1519  -20.4202  -15.8278 O   0  0  0  0  0  0  0  0  0  0  0  0
  2  3  1  0
  2  1  1  0
  4  5  1  0
  4  3  1  0
  5  7  1  0
  5  6  1  6
  7  8  2  0
  7 13  1  0
 10  9  1  1
 11 10  1  0
 12 10  1  0
 12 14  1  0
 12 13  1  1
 14 15  2  0
 16 17  1  0
 17 19  1  0
 18 17  2  0
 19 20  1  0
 21 20  1  6
 22 14  1  0
 22 21  1  0
 23 21  1  0
 23 25  1  0
 24 23  2  0
M  END
$$$$
