MTQ.pdb
     RDKit          3D

 25 24  0  0  1  0  0  0  0  0999 V2000
   34.7026  -28.2050  -24.4988 C   0  0  0  0  0  0  0  0  0  0  0  0
   33.8788  -28.3565  -22.9296 S   0  0  0  0  0  0  0  0  0  0  0  0
   34.7284  -29.1984  -21.6332 C   0  0  0  0  0  0  0  0  0  0  0  0
   34.0901  -29.2610  -20.2852 C   0  0  0  0  0  0  0  0  0  0  0  0
   34.8157  -28.6414  -19.1525 C   0  0  2  0  0  0  0  0  0  0  0  0
   35.7197  -29.6293  -18.5240 N   0  0  0  0  0  0  0  0  0  0  0  0
   33.8972  -28.2427  -18.0436 C   0  0  0  0  0  0  0  0  0  0  0  0
   33.3516  -29.0708  -17.2755 O   0  0  0  0  0  0  0  0  0  0  0  0
   32.4740  -24.9623  -14.7755 C   0  0  0  0  0  0  0  0  0  0  0  0
   33.3713  -25.5096  -15.8534 C   0  0  1  0  0  0  0  0  0  0  0  0
   34.5329  -26.0299  -15.3394 O   0  0  0  0  0  0  0  0  0  0  0  0
   32.6272  -26.4764  -16.7673 C   0  0  2  0  0  0  0  0  0  0  0  0
   33.5816  -26.8643  -17.7901 N   0  0  0  0  0  0  0  0  0  0  0  0
   31.4085  -25.8622  -17.3510 C   0  0  0  0  0  0  0  0  0  0  0  0
   31.4575  -25.1580  -18.3924 O   0  0  0  0  0  0  0  0  0  0  0  0
   25.8959  -28.1173  -16.4897 N   0  0  0  0  0  0  0  0  0  0  0  0
   25.4274  -26.8388  -16.9172 C   0  0  0  0  0  0  0  0  0  0  0  0
   24.2236  -26.6748  -17.1894 O   0  0  0  0  0  0  0  0  0  0  0  0
   26.4054  -25.7443  -17.0230 C   0  0  0  0  0  0  0  0  0  0  0  0
   27.7797  -26.1852  -16.6476 C   0  0  0  0  0  0  0  0  0  0  0  0
   28.9132  -25.4504  -17.3090 C   0  0  2  0  0  0  0  0  0  0  0  0
   30.1350  -26.0456  -16.7557 N   0  0  0  0  0  0  0  0  0  0  0  0
   28.8370  -24.0162  -16.9971 C   0  0  0  0  0  0  0  0  0  0  0  0
   29.2821  -23.5285  -15.9132 O   0  0  0  0  0  0  0  0  0  0  0  0
   28.2675  -23.1404  -17.8971 O   0  0  0  0  0  0  0  0  0  0  0  0
  2  3  1  0
  2  1  1  0
  4  5  1  0
  4  3  1  0
  5  7  1  0
  5  6  1  1
  7  8  2  0
  7 13  1  0
 10  9  1  1
 11 10  1  0
 12 10  1  0
 12 14  1  0
 12 13  1  6
 14 15  2  0
 16 17  1  0
 17 19  1  0
 18 17  2  0
 19 20  1  0
 21 20  1  1
 22 14  1  0
 22 21  1  0
 23 21  1  0
 23 25  1  0
 24 23  2  0
M  END
$$$$
