MQF.pdb
     RDKit          3D

 29 29  0  0  1  0  0  0  0  0999 V2000
    8.6795  -11.1806   20.4105 C   0  0  0  0  0  0  0  0  0  0  0  0
    8.2901  -12.0675   18.9358 S   0  0  0  0  0  0  0  0  0  0  0  0
    8.2804  -13.8337   19.0421 C   0  0  0  0  0  0  0  0  0  0  0  0
    8.2262  -14.3852   20.4369 C   0  0  0  0  0  0  0  0  0  0  0  0
    8.2132  -15.8924   20.4699 C   0  0  2  0  0  0  0  0  0  0  0  0
    7.0166  -16.3202   19.7749 N   0  0  0  0  0  0  0  0  0  0  0  0
    8.2262  -16.4598   21.8149 C   0  0  0  0  0  0  0  0  0  0  0  0
    7.1447  -16.7856   22.3627 O   0  0  0  0  0  0  0  0  0  0  0  0
   12.3466  -20.3958   23.5181 N   0  0  0  0  0  0  0  0  0  0  0  0
   11.6676  -20.3031   24.7636 C   0  0  0  0  0  0  0  0  0  0  0  0
   11.9804  -21.1139   25.6691 O   0  0  0  0  0  0  0  0  0  0  0  0
   10.6235  -19.2737   24.9710 C   0  0  0  0  0  0  0  0  0  0  0  0
   10.5306  -18.4509   23.6932 C   0  0  0  0  0  0  0  0  0  0  0  0
    9.4501  -17.3714   23.8421 C   0  0  2  0  0  0  0  0  0  0  0  0
    9.4095  -16.6800   22.5797 N   0  0  0  0  0  0  0  0  0  0  0  0
    9.9603  -16.4373   24.8800 C   0  0  0  0  0  0  0  0  0  0  0  0
   10.9593  -15.6807   24.6384 O   0  0  0  0  0  0  0  0  0  0  0  0
    9.3989  -16.3134   26.1787 N   0  0  0  0  0  0  0  0  0  0  0  0
    9.9955  -15.4448   27.1984 C   0  0  1  0  0  0  0  0  0  0  0  0
    8.9244  -14.7400   27.9858 C   0  0  0  0  0  0  0  0  0  0  0  0
    8.0856  -13.8722   27.1302 C   0  0  0  0  0  0  0  0  0  0  0  0
    6.8095  -14.2564   26.7383 C   0  0  0  0  0  0  0  0  0  0  0  0
    6.0196  -13.4577   25.9532 C   0  0  0  0  0  0  0  0  0  0  0  0
    6.4917  -12.2302   25.5301 C   0  0  0  0  0  0  0  0  0  0  0  0
    7.7393  -11.8234   25.8970 C   0  0  0  0  0  0  0  0  0  0  0  0
    8.5180  -12.6383   26.6855 C   0  0  0  0  0  0  0  0  0  0  0  0
   10.9549  -16.1964   28.0131 C   0  0  0  0  0  0  0  0  0  0  0  0
   11.1360  -17.4390   27.9150 O   0  0  0  0  0  0  0  0  0  0  0  0
   11.7167  -15.4923   28.9573 O   0  0  0  0  0  0  0  0  0  0  0  0
  1  2  1  0
  3  2  1  0
  4  5  1  0
  4  3  1  0
  5  6  1  1
  7 15  1  0
  7  5  1  0
  8  7  2  0
 10  9  1  0
 10 12  1  0
 11 10  2  0
 13 12  1  0
 14 13  1  6
 14 15  1  0
 16 18  1  0
 16 14  1  0
 17 16  2  0
 19 18  1  0
 19 27  1  0
 19 20  1  1
 21 22  2  0
 21 20  1  0
 23 22  1  0
 24 23  2  0
 25 24  1  0
 25 26  2  0
 26 21  1  0
 27 29  1  0
 28 27  2  0
M  END
$$$$
