MQF.pdb
     RDKit          3D

 29 29  0  0  1  0  0  0  0  0999 V2000
    7.0902  -11.3501   19.6245 C   0  0  0  0  0  0  0  0  0  0  0  0
    7.0491  -12.7260   18.5210 S   0  0  0  0  0  0  0  0  0  0  0  0
    7.4091  -14.3159   19.2092 C   0  0  0  0  0  0  0  0  0  0  0  0
    7.7089  -14.3177   20.6798 C   0  0  0  0  0  0  0  0  0  0  0  0
    8.9253  -15.1375   21.0278 C   0  0  2  0  0  0  0  0  0  0  0  0
    9.2845  -15.8859   19.8409 N   0  0  0  0  0  0  0  0  0  0  0  0
    8.7254  -16.0576   22.1435 C   0  0  0  0  0  0  0  0  0  0  0  0
    7.7607  -15.8834   22.9278 O   0  0  0  0  0  0  0  0  0  0  0  0
   12.9629  -20.3733   23.6722 N   0  0  0  0  0  0  0  0  0  0  0  0
   12.0781  -20.5110   24.7762 C   0  0  0  0  0  0  0  0  0  0  0  0
   12.3428  -21.3814   25.6409 O   0  0  0  0  0  0  0  0  0  0  0  0
   10.8825  -19.6446   24.8887 C   0  0  0  0  0  0  0  0  0  0  0  0
   10.8214  -18.7828   23.6349 C   0  0  0  0  0  0  0  0  0  0  0  0
    9.5453  -17.9304   23.6463 C   0  0  2  0  0  0  0  0  0  0  0  0
    9.5671  -17.1748   22.4209 N   0  0  0  0  0  0  0  0  0  0  0  0
    9.7037  -16.9909   24.7875 C   0  0  0  0  0  0  0  0  0  0  0  0
    9.5829  -15.7323   24.6143 O   0  0  0  0  0  0  0  0  0  0  0  0
    9.9918  -17.4007   26.1165 N   0  0  0  0  0  0  0  0  0  0  0  0
    9.6964  -16.5448   27.2699 C   0  0  1  0  0  0  0  0  0  0  0  0
    8.2555  -16.1118   27.2526 C   0  0  0  0  0  0  0  0  0  0  0  0
    8.1043  -14.7002   26.8364 C   0  0  0  0  0  0  0  0  0  0  0  0
    7.3145  -14.3455   25.7500 C   0  0  0  0  0  0  0  0  0  0  0  0
    7.1596  -13.0408   25.3601 C   0  0  0  0  0  0  0  0  0  0  0  0
    7.8014  -12.0359   26.0577 C   0  0  0  0  0  0  0  0  0  0  0  0
    8.5835  -12.3500   27.1283 C   0  0  0  0  0  0  0  0  0  0  0  0
    8.7273  -13.6651   27.5054 C   0  0  0  0  0  0  0  0  0  0  0  0
   10.1214  -17.1963   28.5126 C   0  0  0  0  0  0  0  0  0  0  0  0
   10.3149  -18.4359   28.6237 O   0  0  0  0  0  0  0  0  0  0  0  0
   10.3250  -16.3938   29.6449 O   0  0  0  0  0  0  0  0  0  0  0  0
  1  2  1  0
  3  2  1  0
  4  5  1  0
  4  3  1  0
  5  6  1  6
  7 15  1  0
  7  5  1  0
  8  7  2  0
 10  9  1  0
 10 12  1  0
 11 10  2  0
 13 12  1  0
 14 13  1  6
 14 15  1  0
 16 18  1  0
 16 14  1  0
 17 16  2  0
 19 18  1  0
 19 27  1  0
 19 20  1  1
 21 22  2  0
 21 20  1  0
 23 22  1  0
 24 23  2  0
 25 24  1  0
 25 26  2  0
 26 21  1  0
 27 29  1  0
 28 27  2  0
M  END
$$$$
