MQF.pdb
     RDKit          3D

 29 29  0  0  1  0  0  0  0  0999 V2000
    9.1611  -10.9033   21.1325 C   0  0  0  0  0  0  0  0  0  0  0  0
    7.8946  -12.0755   20.7655 S   0  0  0  0  0  0  0  0  0  0  0  0
    8.3890  -13.7678   20.6138 C   0  0  0  0  0  0  0  0  0  0  0  0
    7.2815  -14.7253   20.2836 C   0  0  0  0  0  0  0  0  0  0  0  0
    7.7425  -16.1600   20.2387 C   0  0  2  0  0  0  0  0  0  0  0  0
    6.6633  -16.9328   19.6591 N   0  0  0  0  0  0  0  0  0  0  0  0
    8.0950  -16.7143   21.5424 C   0  0  0  0  0  0  0  0  0  0  0  0
    7.2057  -17.2403   22.2554 O   0  0  0  0  0  0  0  0  0  0  0  0
   13.6687  -18.9544   22.4162 N   0  0  0  0  0  0  0  0  0  0  0  0
   13.0674  -19.3920   23.6276 C   0  0  0  0  0  0  0  0  0  0  0  0
   13.7240  -20.1634   24.3685 O   0  0  0  0  0  0  0  0  0  0  0  0
   11.7044  -18.9414   23.9911 C   0  0  0  0  0  0  0  0  0  0  0  0
   11.2487  -17.9538   22.9255 C   0  0  0  0  0  0  0  0  0  0  0  0
    9.8279  -17.4648   23.2372 C   0  0  2  0  0  0  0  0  0  0  0  0
    9.4131  -16.7050   22.0866 N   0  0  0  0  0  0  0  0  0  0  0  0
    9.9692  -16.5399   24.3925 C   0  0  0  0  0  0  0  0  0  0  0  0
   10.7002  -15.4975   24.3044 O   0  0  0  0  0  0  0  0  0  0  0  0
    9.3258  -16.7320   25.6440 N   0  0  0  0  0  0  0  0  0  0  0  0
    9.4974  -15.7888   26.7535 C   0  0  1  0  0  0  0  0  0  0  0  0
    8.1606  -15.3509   27.2876 C   0  0  0  0  0  0  0  0  0  0  0  0
    7.5931  -14.2267   26.5113 C   0  0  0  0  0  0  0  0  0  0  0  0
    6.4164  -14.3675   25.7864 C   0  0  0  0  0  0  0  0  0  0  0  0
    5.8761  -13.3312   25.0705 C   0  0  0  0  0  0  0  0  0  0  0  0
    6.5083  -12.1029   25.0588 C   0  0  0  0  0  0  0  0  0  0  0  0
    7.6643  -11.9315   25.7594 C   0  0  0  0  0  0  0  0  0  0  0  0
    8.1919  -12.9829   26.4725 C   0  0  0  0  0  0  0  0  0  0  0  0
   10.4034  -16.3454   27.7627 C   0  0  0  0  0  0  0  0  0  0  0  0
   10.7828  -15.7178   28.7868 O   0  0  0  0  0  0  0  0  0  0  0  0
   10.8765  -17.6531   27.5788 O   0  0  0  0  0  0  0  0  0  0  0  0
  1  2  1  0
  3  2  1  0
  4  5  1  0
  4  3  1  0
  5  6  1  1
  7 15  1  0
  7  5  1  0
  8  7  2  0
 10  9  1  0
 10 12  1  0
 11 10  2  0
 13 12  1  0
 14 13  1  6
 14 15  1  0
 16 18  1  0
 16 14  1  0
 17 16  2  0
 19 18  1  0
 19 27  1  0
 19 20  1  1
 21 22  2  0
 21 20  1  0
 23 22  1  0
 24 23  2  0
 25 24  1  0
 25 26  2  0
 26 21  1  0
 27 29  1  0
 28 27  2  0
M  END
$$$$
