MQF.pdb
     RDKit          3D

 29 29  0  0  1  0  0  0  0  0999 V2000
    8.5196  -11.2799   20.1933 C   0  0  0  0  0  0  0  0  0  0  0  0
    8.0200  -11.9361   18.6336 S   0  0  0  0  0  0  0  0  0  0  0  0
    8.1518  -13.6879   18.4222 C   0  0  0  0  0  0  0  0  0  0  0  0
    8.3982  -14.4626   19.6839 C   0  0  0  0  0  0  0  0  0  0  0  0
    8.4325  -15.9528   19.4580 C   0  0  2  0  0  0  0  0  0  0  0  0
    7.1526  -16.3239   18.8904 N   0  0  0  0  0  0  0  0  0  0  0  0
    8.6756  -16.7339   20.6671 C   0  0  0  0  0  0  0  0  0  0  0  0
    7.7057  -17.2197   21.2990 O   0  0  0  0  0  0  0  0  0  0  0  0
   12.1415  -20.9715   21.2172 N   0  0  0  0  0  0  0  0  0  0  0  0
   12.2380  -20.7705   22.6211 C   0  0  0  0  0  0  0  0  0  0  0  0
   12.5678  -21.7473   23.3369 O   0  0  0  0  0  0  0  0  0  0  0  0
   11.9545  -19.4404   23.2071 C   0  0  0  0  0  0  0  0  0  0  0  0
   11.5900  -18.5039   22.0632 C   0  0  0  0  0  0  0  0  0  0  0  0
   10.2288  -17.8494   22.3350 C   0  0  2  0  0  0  0  0  0  0  0  0
    9.9704  -16.9969   21.2038 N   0  0  0  0  0  0  0  0  0  0  0  0
   10.4289  -16.9975   23.5368 C   0  0  0  0  0  0  0  0  0  0  0  0
   11.1999  -15.9815   23.4918 O   0  0  0  0  0  0  0  0  0  0  0  0
    9.8018  -17.2346   24.7889 N   0  0  0  0  0  0  0  0  0  0  0  0
    9.2599  -16.1404   25.6008 C   0  0  1  0  0  0  0  0  0  0  0  0
    8.3082  -15.3018   24.7916 C   0  0  0  0  0  0  0  0  0  0  0  0
    7.6566  -14.2551   25.6093 C   0  0  0  0  0  0  0  0  0  0  0  0
    8.4006  -13.3030   26.2948 C   0  0  0  0  0  0  0  0  0  0  0  0
    7.8085  -12.3233   27.0483 C   0  0  0  0  0  0  0  0  0  0  0  0
    6.4312  -12.2668   27.1396 C   0  0  0  0  0  0  0  0  0  0  0  0
    5.6722  -13.1858   26.4794 C   0  0  0  0  0  0  0  0  0  0  0  0
    6.2839  -14.1620   25.7276 C   0  0  0  0  0  0  0  0  0  0  0  0
    8.7001  -16.6605   26.8520 C   0  0  0  0  0  0  0  0  0  0  0  0
    9.0732  -16.2872   27.9956 O   0  0  0  0  0  0  0  0  0  0  0  0
    7.6899  -17.6305   26.7728 O   0  0  0  0  0  0  0  0  0  0  0  0
  1  2  1  0
  3  2  1  0
  4  5  1  0
  4  3  1  0
  5  6  1  1
  7 15  1  0
  7  5  1  0
  8  7  2  0
 10  9  1  0
 10 12  1  0
 11 10  2  0
 13 12  1  0
 14 13  1  6
 14 15  1  0
 16 18  1  0
 16 14  1  0
 17 16  2  0
 19 18  1  0
 19 27  1  0
 19 20  1  6
 21 22  2  0
 21 20  1  0
 23 22  1  0
 24 23  2  0
 25 24  1  0
 25 26  2  0
 26 21  1  0
 27 29  1  0
 28 27  2  0
M  END
$$$$
