MQF.pdb
     RDKit          3D

 29 29  0  0  1  0  0  0  0  0999 V2000
    8.3252  -11.7951   20.0790 C   0  0  0  0  0  0  0  0  0  0  0  0
    7.9351  -12.8310   18.7051 S   0  0  0  0  0  0  0  0  0  0  0  0
    7.1275  -14.3645   19.0620 C   0  0  0  0  0  0  0  0  0  0  0  0
    7.6238  -15.0726   20.2887 C   0  0  0  0  0  0  0  0  0  0  0  0
    8.5077  -16.2508   19.9668 C   0  0  2  0  0  0  0  0  0  0  0  0
    7.7625  -17.1042   19.0644 N   0  0  0  0  0  0  0  0  0  0  0  0
    8.9245  -17.0207   21.1350 C   0  0  0  0  0  0  0  0  0  0  0  0
    8.7922  -18.2690   21.1364 O   0  0  0  0  0  0  0  0  0  0  0  0
   12.3357  -14.4333   19.1522 N   0  0  0  0  0  0  0  0  0  0  0  0
   12.6748  -14.7773   20.4891 C   0  0  0  0  0  0  0  0  0  0  0  0
   13.8905  -14.8209   20.7981 O   0  0  0  0  0  0  0  0  0  0  0  0
   11.6123  -15.0728   21.4774 C   0  0  0  0  0  0  0  0  0  0  0  0
   11.8383  -16.4911   21.9830 C   0  0  0  0  0  0  0  0  0  0  0  0
   10.7061  -16.8942   22.9373 C   0  0  2  0  0  0  0  0  0  0  0  0
    9.4883  -16.4470   22.3125 N   0  0  0  0  0  0  0  0  0  0  0  0
   10.9257  -16.0997   24.1745 C   0  0  0  0  0  0  0  0  0  0  0  0
   12.0914  -16.0003   24.6842 O   0  0  0  0  0  0  0  0  0  0  0  0
    9.8946  -15.4104   24.8664 N   0  0  0  0  0  0  0  0  0  0  0  0
    9.3688  -15.8917   26.1478 C   0  0  1  0  0  0  0  0  0  0  0  0
    7.8865  -15.6494   26.2365 C   0  0  0  0  0  0  0  0  0  0  0  0
    7.5536  -14.2096   26.1668 C   0  0  0  0  0  0  0  0  0  0  0  0
    8.4610  -13.2358   26.5645 C   0  0  0  0  0  0  0  0  0  0  0  0
    8.1677  -11.8988   26.4965 C   0  0  0  0  0  0  0  0  0  0  0  0
    6.9368  -11.4902   26.0207 C   0  0  0  0  0  0  0  0  0  0  0  0
    6.0240  -12.4200   25.6224 C   0  0  0  0  0  0  0  0  0  0  0  0
    6.3359  -13.7578   25.6976 C   0  0  0  0  0  0  0  0  0  0  0  0
    9.7731  -17.2822   26.3768 C   0  0  0  0  0  0  0  0  0  0  0  0
    9.6597  -18.1958   25.5174 O   0  0  0  0  0  0  0  0  0  0  0  0
   10.3183  -17.6163   27.6253 O   0  0  0  0  0  0  0  0  0  0  0  0
  1  2  1  0
  3  2  1  0
  4  5  1  0
  4  3  1  0
  5  6  1  6
  7 15  1  0
  7  5  1  0
  8  7  2  0
 10  9  1  0
 10 12  1  0
 11 10  2  0
 13 12  1  0
 14 13  1  6
 14 15  1  0
 16 18  1  0
 16 14  1  0
 17 16  2  0
 19 18  1  0
 19 27  1  0
 19 20  1  6
 21 22  2  0
 21 20  1  0
 23 22  1  0
 24 23  2  0
 25 24  1  0
 25 26  2  0
 26 21  1  0
 27 29  1  0
 28 27  2  0
M  END
$$$$
