MQF.pdb
     RDKit          3D

 29 29  0  0  1  0  0  0  0  0999 V2000
    9.1867  -11.2009   19.2300 C   0  0  0  0  0  0  0  0  0  0  0  0
    8.6766  -12.7931   19.7935 S   0  0  0  0  0  0  0  0  0  0  0  0
    7.6708  -13.7476   18.6942 C   0  0  0  0  0  0  0  0  0  0  0  0
    7.1634  -15.0416   19.2605 C   0  0  0  0  0  0  0  0  0  0  0  0
    8.2656  -16.0341   19.5306 C   0  0  2  0  0  0  0  0  0  0  0  0
    8.2164  -17.0194   18.4702 N   0  0  0  0  0  0  0  0  0  0  0  0
    8.1623  -16.7029   20.8241 C   0  0  0  0  0  0  0  0  0  0  0  0
    7.1544  -17.4054   21.0821 O   0  0  0  0  0  0  0  0  0  0  0  0
    9.2633  -21.3924   22.1770 N   0  0  0  0  0  0  0  0  0  0  0  0
   10.2452  -20.5595   21.5745 C   0  0  0  0  0  0  0  0  0  0  0  0
   11.1138  -21.1003   20.8477 O   0  0  0  0  0  0  0  0  0  0  0  0
   10.2301  -19.0972   21.8075 C   0  0  0  0  0  0  0  0  0  0  0  0
    9.0993  -18.8001   22.7829 C   0  0  0  0  0  0  0  0  0  0  0  0
    9.0735  -17.3022   23.1152 C   0  0  2  0  0  0  0  0  0  0  0  0
    9.1487  -16.6181   21.8505 N   0  0  0  0  0  0  0  0  0  0  0  0
   10.3254  -17.0403   23.8730 C   0  0  0  0  0  0  0  0  0  0  0  0
   11.1335  -17.9911   24.1407 O   0  0  0  0  0  0  0  0  0  0  0  0
   10.7122  -15.7576   24.3444 N   0  0  0  0  0  0  0  0  0  0  0  0
    9.9515  -15.0545   25.3822 C   0  0  1  0  0  0  0  0  0  0  0  0
    8.6185  -14.6049   24.8485 C   0  0  0  0  0  0  0  0  0  0  0  0
    7.8398  -13.8547   25.8583 C   0  0  0  0  0  0  0  0  0  0  0  0
    6.4586  -13.9757   25.9450 C   0  0  0  0  0  0  0  0  0  0  0  0
    5.7273  -13.2929   26.8816 C   0  0  0  0  0  0  0  0  0  0  0  0
    6.3675  -12.4547   27.7738 C   0  0  0  0  0  0  0  0  0  0  0  0
    7.7215  -12.3137   27.7156 C   0  0  0  0  0  0  0  0  0  0  0  0
    8.4394  -13.0071   26.7689 C   0  0  0  0  0  0  0  0  0  0  0  0
    9.8769  -15.8664   26.6006 C   0  0  0  0  0  0  0  0  0  0  0  0
   10.2702  -15.4729   27.7305 O   0  0  0  0  0  0  0  0  0  0  0  0
    9.3362  -17.1572   26.5042 O   0  0  0  0  0  0  0  0  0  0  0  0
  1  2  1  0
  3  2  1  0
  4  5  1  0
  4  3  1  0
  5  6  1  6
  7 15  1  0
  7  5  1  0
  8  7  2  0
 10  9  1  0
 10 12  1  0
 11 10  2  0
 13 12  1  0
 14 13  1  6
 14 15  1  0
 16 18  1  0
 16 14  1  0
 17 16  2  0
 19 18  1  0
 19 27  1  0
 19 20  1  6
 21 22  2  0
 21 20  1  0
 23 22  1  0
 24 23  2  0
 25 24  1  0
 25 26  2  0
 26 21  1  0
 27 29  1  0
 28 27  2  0
M  END
$$$$
