TDV.pdb
     RDKit          3D

 23 22  0  0  1  0  0  0  0  0999 V2000
    7.5840  -12.7557   17.5396 C   0  0  0  0  0  0  0  0  0  0  0  0
    7.4201  -13.7950   18.6450 C   0  0  1  0  0  0  0  0  0  0  0  0
    7.9616  -15.0176   18.2137 O   0  0  0  0  0  0  0  0  0  0  0  0
    8.1297  -13.3297   19.8847 C   0  0  2  0  0  0  0  0  0  0  0  0
    9.5533  -13.2029   19.6018 N   0  0  0  0  0  0  0  0  0  0  0  0
    7.9052  -14.2744   21.0180 C   0  0  0  0  0  0  0  0  0  0  0  0
    6.7236  -14.5305   21.3616 O   0  0  0  0  0  0  0  0  0  0  0  0
    8.9983  -14.8607   21.6819 N   0  0  0  0  0  0  0  0  0  0  0  0
    8.7221  -15.8260   22.8069 C   0  0  1  0  0  0  0  0  0  0  0  0
    9.6416  -16.9820   22.5748 C   0  0  0  0  0  0  0  0  0  0  0  0
    9.7851  -18.0147   23.5630 C   0  0  0  0  0  0  0  0  0  0  0  0
   10.8327  -18.5298   23.9377 O   0  0  0  0  0  0  0  0  0  0  0  0
    8.9833  -15.0432   24.0347 C   0  0  0  0  0  0  0  0  0  0  0  0
   10.0999  -14.4230   24.1537 O   0  0  0  0  0  0  0  0  0  0  0  0
    8.5998  -18.4912   24.1707 O   0  0  0  0  0  0  0  0  0  0  0  0
    7.5420  -11.9722   25.5600 C   0  0  0  0  0  0  0  0  0  0  0  0
    7.4866  -13.0637   26.6111 C   0  0  1  0  0  0  0  0  0  0  0  0
    6.0897  -13.5721   26.7368 C   0  0  0  0  0  0  0  0  0  0  0  0
    8.4335  -14.1795   26.3263 C   0  0  2  0  0  0  0  0  0  0  0  0
    8.0881  -14.9130   25.1075 N   0  0  0  0  0  0  0  0  0  0  0  0
    8.5250  -15.1457   27.4798 C   0  0  0  0  0  0  0  0  0  0  0  0
    9.1826  -14.8131   28.6531 O   0  0  0  0  0  0  0  0  0  0  0  0
    8.0055  -16.2900   27.4153 O   0  0  0  0  0  0  0  0  0  0  0  0
  2  1  1  6
  3  2  1  0
  4  5  1  6
  4  2  1  0
  6  4  1  0
  7  6  2  0
  8  6  1  0
  9  8  1  0
  9 10  1  6
 10 11  1  0
 11 15  1  0
 11 12  2  0
 13  9  1  0
 13 20  1  0
 14 13  2  0
 17 16  1  6
 18 17  1  0
 19 20  1  6
 19 17  1  0
 21 19  1  0
 21 22  1  0
 23 21  2  0
M  END
$$$$
