TDV.pdb
     RDKit          3D

 23 22  0  0  1  0  0  0  0  0999 V2000
    8.7273  -12.5023   20.3424 C   0  0  0  0  0  0  0  0  0  0  0  0
    7.8975  -13.2886   19.3314 C   0  0  1  0  0  0  0  0  0  0  0  0
    8.0674  -12.7244   18.0559 O   0  0  0  0  0  0  0  0  0  0  0  0
    8.3426  -14.7233   19.3200 C   0  0  2  0  0  0  0  0  0  0  0  0
    7.6171  -15.4408   18.2799 N   0  0  0  0  0  0  0  0  0  0  0  0
    8.1196  -15.3650   20.6488 C   0  0  0  0  0  0  0  0  0  0  0  0
    7.0082  -15.9063   20.8756 O   0  0  0  0  0  0  0  0  0  0  0  0
    9.1369  -15.3593   21.6206 N   0  0  0  0  0  0  0  0  0  0  0  0
    8.9208  -16.1414   22.8916 C   0  0  1  0  0  0  0  0  0  0  0  0
   10.0156  -17.1593   22.9239 C   0  0  0  0  0  0  0  0  0  0  0  0
   10.2646  -17.9310   24.1096 C   0  0  0  0  0  0  0  0  0  0  0  0
   11.3508  -18.1218   24.6452 O   0  0  0  0  0  0  0  0  0  0  0  0
    8.9693  -15.1222   23.9627 C   0  0  0  0  0  0  0  0  0  0  0  0
    9.9565  -14.3039   24.0012 O   0  0  0  0  0  0  0  0  0  0  0  0
    9.1456  -18.5362   24.7287 O   0  0  0  0  0  0  0  0  0  0  0  0
    6.9024  -12.1031   27.2255 C   0  0  0  0  0  0  0  0  0  0  0  0
    6.7937  -13.2192   26.2048 C   0  0  1  0  0  0  0  0  0  0  0  0
    6.2556  -12.6790   24.9225 C   0  0  0  0  0  0  0  0  0  0  0  0
    8.0917  -13.9183   25.9826 C   0  0  2  0  0  0  0  0  0  0  0  0
    7.9992  -14.9660   24.9645 N   0  0  0  0  0  0  0  0  0  0  0  0
    8.6356  -14.5101   27.2579 C   0  0  0  0  0  0  0  0  0  0  0  0
    8.7920  -15.8780   27.4129 O   0  0  0  0  0  0  0  0  0  0  0  0
    8.9669  -13.7791   28.2270 O   0  0  0  0  0  0  0  0  0  0  0  0
  2  1  1  1
  3  2  1  0
  4  5  1  6
  4  2  1  0
  6  4  1  0
  7  6  2  0
  8  6  1  0
  9  8  1  0
  9 10  1  1
 10 11  1  0
 11 15  1  0
 11 12  2  0
 13  9  1  0
 13 20  1  0
 14 13  2  0
 17 16  1  1
 18 17  1  0
 19 20  1  6
 19 17  1  0
 21 19  1  0
 21 22  1  0
 23 21  2  0
M  END
$$$$
