TDV.pdb
     RDKit          3D

 23 22  0  0  1  0  0  0  0  0999 V2000
    8.8641  -12.4825   20.3305 C   0  0  0  0  0  0  0  0  0  0  0  0
    8.0096  -13.2936   19.3605 C   0  0  1  0  0  0  0  0  0  0  0  0
    8.1814  -12.7892   18.0604 O   0  0  0  0  0  0  0  0  0  0  0  0
    8.4236  -14.7369   19.4084 C   0  0  2  0  0  0  0  0  0  0  0  0
    7.6547  -15.4879   18.4248 N   0  0  0  0  0  0  0  0  0  0  0  0
    8.2239  -15.3075   20.7729 C   0  0  0  0  0  0  0  0  0  0  0  0
    7.0589  -15.6142   21.1312 O   0  0  0  0  0  0  0  0  0  0  0  0
    9.3216  -15.4944   21.6329 N   0  0  0  0  0  0  0  0  0  0  0  0
    9.0929  -16.1964   22.9476 C   0  0  1  0  0  0  0  0  0  0  0  0
   10.2086  -17.1842   23.0711 C   0  0  0  0  0  0  0  0  0  0  0  0
   10.2422  -18.3594   22.2457 C   0  0  0  0  0  0  0  0  0  0  0  0
    9.3135  -19.1301   22.0297 O   0  0  0  0  0  0  0  0  0  0  0  0
    9.0940  -15.1084   23.9499 C   0  0  0  0  0  0  0  0  0  0  0  0
   10.1145  -14.3353   24.0306 O   0  0  0  0  0  0  0  0  0  0  0  0
   11.4703  -18.6651   21.6134 O   0  0  0  0  0  0  0  0  0  0  0  0
    6.9995  -11.9984   27.1537 C   0  0  0  0  0  0  0  0  0  0  0  0
    6.8668  -13.1037   26.1241 C   0  0  1  0  0  0  0  0  0  0  0  0
    6.3298  -12.5439   24.8498 C   0  0  0  0  0  0  0  0  0  0  0  0
    8.1520  -13.8217   25.8881 C   0  0  2  0  0  0  0  0  0  0  0  0
    8.0439  -14.8388   24.8409 N   0  0  0  0  0  0  0  0  0  0  0  0
    8.6782  -14.4590   27.1487 C   0  0  0  0  0  0  0  0  0  0  0  0
    9.3941  -13.7302   28.0847 O   0  0  0  0  0  0  0  0  0  0  0  0
    8.4840  -15.6779   27.3938 O   0  0  0  0  0  0  0  0  0  0  0  0
  2  1  1  1
  3  2  1  0
  4  5  1  6
  4  2  1  0
  6  4  1  0
  7  6  2  0
  8  6  1  0
  9  8  1  0
  9 10  1  1
 10 11  1  0
 11 15  1  0
 11 12  2  0
 13  9  1  0
 13 20  1  0
 14 13  2  0
 17 16  1  1
 18 17  1  0
 19 20  1  6
 19 17  1  0
 21 19  1  0
 21 22  1  0
 23 21  2  0
M  END
$$$$
