TDV.pdb
     RDKit          3D

 23 22  0  0  1  0  0  0  0  0999 V2000
    8.6847  -12.5390   18.6192 C   0  0  0  0  0  0  0  0  0  0  0  0
    8.6114  -13.1558   20.0132 C   0  0  1  0  0  0  0  0  0  0  0  0
    7.9299  -12.2771   20.8720 O   0  0  0  0  0  0  0  0  0  0  0  0
    7.8874  -14.4704   19.9462 C   0  0  2  0  0  0  0  0  0  0  0  0
    6.5644  -14.2591   19.3735 N   0  0  0  0  0  0  0  0  0  0  0  0
    7.7772  -15.0919   21.2985 C   0  0  0  0  0  0  0  0  0  0  0  0
    6.6858  -14.9994   21.9150 O   0  0  0  0  0  0  0  0  0  0  0  0
    8.8761  -15.7646   21.8634 N   0  0  0  0  0  0  0  0  0  0  0  0
    8.7045  -16.4140   23.2134 C   0  0  1  0  0  0  0  0  0  0  0  0
    9.6544  -17.5687   23.2237 C   0  0  0  0  0  0  0  0  0  0  0  0
    9.8264  -18.3662   24.4060 C   0  0  0  0  0  0  0  0  0  0  0  0
    9.1173  -18.3564   25.4061 O   0  0  0  0  0  0  0  0  0  0  0  0
    9.0050  -15.3357   24.1805 C   0  0  0  0  0  0  0  0  0  0  0  0
   10.0870  -14.6599   24.0453 O   0  0  0  0  0  0  0  0  0  0  0  0
   10.9251  -19.2573   24.4253 O   0  0  0  0  0  0  0  0  0  0  0  0
    6.9913  -12.2106   25.2683 C   0  0  0  0  0  0  0  0  0  0  0  0
    7.4310  -12.9872   26.4942 C   0  0  1  0  0  0  0  0  0  0  0  0
    6.2668  -13.7206   27.0708 C   0  0  0  0  0  0  0  0  0  0  0  0
    8.5561  -13.9217   26.2051 C   0  0  2  0  0  0  0  0  0  0  0  0
    8.1834  -14.9752   25.2595 N   0  0  0  0  0  0  0  0  0  0  0  0
    9.0999  -14.5509   27.4624 C   0  0  0  0  0  0  0  0  0  0  0  0
    9.7797  -13.8040   28.4108 O   0  0  0  0  0  0  0  0  0  0  0  0
    8.9539  -15.7793   27.6931 O   0  0  0  0  0  0  0  0  0  0  0  0
  2  1  1  6
  3  2  1  0
  4  5  1  1
  4  2  1  0
  6  4  1  0
  7  6  2  0
  8  6  1  0
  9  8  1  0
  9 10  1  6
 10 11  1  0
 11 15  1  0
 11 12  2  0
 13  9  1  0
 13 20  1  0
 14 13  2  0
 17 16  1  6
 18 17  1  0
 19 20  1  6
 19 17  1  0
 21 19  1  0
 21 22  1  0
 23 21  2  0
M  END
$$$$
