TDV.pdb
     RDKit          3D

 23 22  0  0  1  0  0  0  0  0999 V2000
    8.7416  -12.4164   20.3931 C   0  0  0  0  0  0  0  0  0  0  0  0
    7.8704  -13.2045   19.4191 C   0  0  1  0  0  0  0  0  0  0  0  0
    8.0883  -12.7285   18.1152 O   0  0  0  0  0  0  0  0  0  0  0  0
    8.2195  -14.6636   19.4963 C   0  0  2  0  0  0  0  0  0  0  0  0
    7.4641  -15.3904   18.4844 N   0  0  0  0  0  0  0  0  0  0  0  0
    7.9343  -15.2125   20.8545 C   0  0  0  0  0  0  0  0  0  0  0  0
    6.7707  -15.6144   21.1078 O   0  0  0  0  0  0  0  0  0  0  0  0
    8.9518  -15.2747   21.8241 N   0  0  0  0  0  0  0  0  0  0  0  0
    8.6675  -15.9935   23.1188 C   0  0  1  0  0  0  0  0  0  0  0  0
    9.6130  -17.1515   23.1475 C   0  0  0  0  0  0  0  0  0  0  0  0
    9.7582  -17.9504   24.3325 C   0  0  0  0  0  0  0  0  0  0  0  0
    8.8788  -18.2309   25.1395 O   0  0  0  0  0  0  0  0  0  0  0  0
    8.8862  -14.9689   24.1633 C   0  0  0  0  0  0  0  0  0  0  0  0
   10.0297  -14.3930   24.2428 O   0  0  0  0  0  0  0  0  0  0  0  0
   11.0458  -18.4707   24.6025 O   0  0  0  0  0  0  0  0  0  0  0  0
    6.9828  -11.6889   25.2862 C   0  0  0  0  0  0  0  0  0  0  0  0
    7.1639  -12.6484   26.4463 C   0  0  1  0  0  0  0  0  0  0  0  0
    5.8697  -13.3273   26.7458 C   0  0  0  0  0  0  0  0  0  0  0  0
    8.2420  -13.6480   26.1979 C   0  0  2  0  0  0  0  0  0  0  0  0
    7.9223  -14.5580   25.0968 N   0  0  0  0  0  0  0  0  0  0  0  0
    8.5565  -14.4524   27.4333 C   0  0  0  0  0  0  0  0  0  0  0  0
    9.1823  -13.8816   28.5298 O   0  0  0  0  0  0  0  0  0  0  0  0
    8.2602  -15.6729   27.5102 O   0  0  0  0  0  0  0  0  0  0  0  0
  2  1  1  1
  3  2  1  0
  4  5  1  6
  4  2  1  0
  6  4  1  0
  7  6  2  0
  8  6  1  0
  9  8  1  0
  9 10  1  1
 10 11  1  0
 11 15  1  0
 11 12  2  0
 13  9  1  0
 13 20  1  0
 14 13  2  0
 17 16  1  6
 18 17  1  0
 19 20  1  6
 19 17  1  0
 21 19  1  0
 21 22  1  0
 23 21  2  0
M  END
$$$$
