TDV.pdb
     RDKit          3D

 23 22  0  0  1  0  0  0  0  0999 V2000
    9.1409  -12.3365   20.3633 C   0  0  0  0  0  0  0  0  0  0  0  0
    8.2749  -13.0057   19.2997 C   0  0  1  0  0  0  0  0  0  0  0  0
    8.5337  -12.4122   18.0527 O   0  0  0  0  0  0  0  0  0  0  0  0
    8.5891  -14.4736   19.2431 C   0  0  2  0  0  0  0  0  0  0  0  0
    7.8330  -15.0830   18.1570 N   0  0  0  0  0  0  0  0  0  0  0  0
    8.2702  -15.1411   20.5392 C   0  0  0  0  0  0  0  0  0  0  0  0
    7.0698  -15.4097   20.7973 O   0  0  0  0  0  0  0  0  0  0  0  0
    9.2973  -15.4589   21.4467 N   0  0  0  0  0  0  0  0  0  0  0  0
    8.9369  -16.2020   22.7083 C   0  0  1  0  0  0  0  0  0  0  0  0
    9.9117  -17.3323   22.7973 C   0  0  0  0  0  0  0  0  0  0  0  0
    9.9445  -18.1830   23.9543 C   0  0  0  0  0  0  0  0  0  0  0  0
    9.1534  -18.1770   24.8910 O   0  0  0  0  0  0  0  0  0  0  0  0
    9.0445  -15.1848   23.7770 C   0  0  0  0  0  0  0  0  0  0  0  0
   10.1155  -14.4844   23.8664 O   0  0  0  0  0  0  0  0  0  0  0  0
   10.9951  -19.1276   24.0272 O   0  0  0  0  0  0  0  0  0  0  0  0
    7.2926  -12.1531   27.2437 C   0  0  0  0  0  0  0  0  0  0  0  0
    7.0865  -13.0881   26.0679 C   0  0  1  0  0  0  0  0  0  0  0  0
    6.7670  -12.2967   24.8443 C   0  0  0  0  0  0  0  0  0  0  0  0
    8.2600  -13.9774   25.8328 C   0  0  2  0  0  0  0  0  0  0  0  0
    8.0465  -14.9092   24.7243 N   0  0  0  0  0  0  0  0  0  0  0  0
    8.6328  -14.7531   27.0705 C   0  0  0  0  0  0  0  0  0  0  0  0
    9.3991  -14.1874   28.0767 O   0  0  0  0  0  0  0  0  0  0  0  0
    8.2591  -15.9437   27.2315 O   0  0  0  0  0  0  0  0  0  0  0  0
  2  1  1  1
  3  2  1  0
  4  5  1  6
  4  2  1  0
  6  4  1  0
  7  6  2  0
  8  6  1  0
  9  8  1  0
  9 10  1  1
 10 11  1  0
 11 15  1  0
 11 12  2  0
 13  9  1  0
 13 20  1  0
 14 13  2  0
 17 16  1  1
 18 17  1  0
 19 20  1  6
 19 17  1  0
 21 19  1  0
 21 22  1  0
 23 21  2  0
M  END
$$$$
