TDV.pdb
     RDKit          3D

 23 22  0  0  1  0  0  0  0  0999 V2000
    9.4434  -12.3530   18.5121 C   0  0  0  0  0  0  0  0  0  0  0  0
    8.9557  -12.9535   19.8275 C   0  0  1  0  0  0  0  0  0  0  0  0
    7.9151  -12.1605   20.3397 O   0  0  0  0  0  0  0  0  0  0  0  0
    8.4641  -14.3534   19.5920 C   0  0  2  0  0  0  0  0  0  0  0  0
    7.3110  -14.3120   18.7024 N   0  0  0  0  0  0  0  0  0  0  0  0
    8.1068  -15.0203   20.8783 C   0  0  0  0  0  0  0  0  0  0  0  0
    6.8972  -15.0637   21.2168 O   0  0  0  0  0  0  0  0  0  0  0  0
    9.1088  -15.5854   21.6884 N   0  0  0  0  0  0  0  0  0  0  0  0
    8.6946  -16.3025   22.9484 C   0  0  1  0  0  0  0  0  0  0  0  0
    9.5907  -17.4959   23.0406 C   0  0  0  0  0  0  0  0  0  0  0  0
    9.4795  -18.5712   22.0946 C   0  0  0  0  0  0  0  0  0  0  0  0
    8.4464  -19.0076   21.5993 O   0  0  0  0  0  0  0  0  0  0  0  0
    8.8666  -15.2950   24.0178 C   0  0  0  0  0  0  0  0  0  0  0  0
    9.9540  -14.6161   24.0666 O   0  0  0  0  0  0  0  0  0  0  0  0
   10.6821  -19.1957   21.6880 O   0  0  0  0  0  0  0  0  0  0  0  0
    7.1661  -12.3056   27.5879 C   0  0  0  0  0  0  0  0  0  0  0  0
    6.9154  -13.3116   26.4813 C   0  0  1  0  0  0  0  0  0  0  0  0
    6.2707  -12.6329   25.3197 C   0  0  0  0  0  0  0  0  0  0  0  0
    8.1586  -14.0184   26.0596 C   0  0  2  0  0  0  0  0  0  0  0  0
    7.9144  -15.0064   25.0075 N   0  0  0  0  0  0  0  0  0  0  0  0
    8.8447  -14.6886   27.2225 C   0  0  0  0  0  0  0  0  0  0  0  0
    9.6242  -13.9711   28.1153 O   0  0  0  0  0  0  0  0  0  0  0  0
    8.7319  -15.9259   27.4217 O   0  0  0  0  0  0  0  0  0  0  0  0
  2  1  1  6
  3  2  1  0
  4  5  1  6
  4  2  1  0
  6  4  1  0
  7  6  2  0
  8  6  1  0
  9  8  1  0
  9 10  1  1
 10 11  1  0
 11 15  1  0
 11 12  2  0
 13  9  1  0
 13 20  1  0
 14 13  2  0
 17 16  1  1
 18 17  1  0
 19 20  1  6
 19 17  1  0
 21 19  1  0
 21 22  1  0
 23 21  2  0
M  END
$$$$
