LVY.pdb
     RDKit          3D

 28 28  0  0  1  0  0  0  0  0999 V2000
   16.8826  -12.7928    2.5294 C   0  0  0  0  0  0  0  0  0  0  0  0
   18.3401  -13.0752    2.7058 C   0  0  2  0  0  0  0  0  0  0  0  0
   18.8491  -13.7890    1.4678 C   0  0  0  0  0  0  0  0  0  0  0  0
   18.6236  -13.8318    3.9587 C   0  0  0  0  0  0  0  0  0  0  0  0
   18.2351  -13.1153    5.2216 C   0  0  2  0  0  0  0  0  0  0  0  0
   19.2130  -12.1068    5.5792 N   0  0  0  0  0  0  0  0  0  0  0  0
   18.1118  -14.1368    6.2969 C   0  0  0  0  0  0  0  0  0  0  0  0
   19.1504  -14.5600    6.8785 O   0  0  0  0  0  0  0  0  0  0  0  0
   15.9124  -16.8123    9.6857 C   0  0  0  0  0  0  0  0  0  0  0  0
   16.0103  -15.5559    8.8557 C   0  0  1  0  0  0  0  0  0  0  0  0
   16.6116  -14.4720    9.7110 C   0  0  0  0  0  0  0  0  0  0  0  0
   16.8343  -15.8169    7.6130 C   0  0  2  0  0  0  0  0  0  0  0  0
   16.8769  -14.6901    6.7335 N   0  0  0  0  0  0  0  0  0  0  0  0
   16.3676  -17.0613    6.9679 C   0  0  0  0  0  0  0  0  0  0  0  0
   15.3417  -16.9691    6.2374 O   0  0  0  0  0  0  0  0  0  0  0  0
   15.5263  -23.4176    1.3464 O   0  0  0  0  0  0  0  0  0  0  0  0
   15.9594  -22.4687    2.2485 C   0  0  0  0  0  0  0  0  0  0  0  0
   16.8683  -22.8421    3.2074 C   0  0  0  0  0  0  0  0  0  0  0  0
   17.3207  -21.9108    4.1258 C   0  0  0  0  0  0  0  0  0  0  0  0
   16.8954  -20.5955    4.1276 C   0  0  0  0  0  0  0  0  0  0  0  0
   17.3392  -19.5786    5.0779 C   0  0  0  0  0  0  0  0  0  0  0  0
   16.5004  -19.4823    6.3289 C   0  0  2  0  0  0  0  0  0  0  0  0
   16.9647  -18.3246    7.0992 N   0  0  0  0  0  0  0  0  0  0  0  0
   16.5126  -20.6827    7.1650 C   0  0  0  0  0  0  0  0  0  0  0  0
   15.6075  -21.7492    7.0206 O   0  0  0  0  0  0  0  0  0  0  0  0
   15.9749  -20.2470    3.1449 C   0  0  0  0  0  0  0  0  0  0  0  0
   15.5165  -21.1643    2.2247 C   0  0  0  0  0  0  0  0  0  0  0  0
   17.3927  -20.7691    8.0767 O   0  0  0  0  0  0  0  0  0  0  0  0
  2  1  1  6
  2  3  1  0
  4  5  1  0
  4  2  1  0
  5  6  1  1
  7 13  1  0
  7  5  1  0
  8  7  2  0
 10  9  1  1
 11 10  1  0
 12 14  1  0
 12 10  1  0
 12 13  1  6
 14 15  2  0
 16 17  1  0
 17 27  2  0
 17 18  1  0
 18 19  2  0
 19 20  1  0
 20 21  1  0
 22 21  1  6
 22 24  1  0
 23 22  1  0
 23 14  1  0
 24 25  1  0
 26 20  2  0
 27 26  1  0
 28 24  2  0
M  END
$$$$
