LVY.pdb
     RDKit          3D

 28 28  0  0  1  0  0  0  0  0999 V2000
   28.8762  -21.5117  -15.8390 C   0  0  0  0  0  0  0  0  0  0  0  0
   28.8853  -20.3801  -14.8619 C   0  0  2  0  0  0  0  0  0  0  0  0
   29.4462  -20.8815  -13.5445 C   0  0  0  0  0  0  0  0  0  0  0  0
   27.5420  -19.7521  -14.7089 C   0  0  0  0  0  0  0  0  0  0  0  0
   26.9521  -19.2221  -15.9856 C   0  0  2  0  0  0  0  0  0  0  0  0
   27.6199  -18.0083  -16.4125 N   0  0  0  0  0  0  0  0  0  0  0  0
   25.5056  -18.9715  -15.7412 C   0  0  0  0  0  0  0  0  0  0  0  0
   25.1447  -17.9067  -15.1648 O   0  0  0  0  0  0  0  0  0  0  0  0
   20.7213  -19.7435  -16.4421 C   0  0  0  0  0  0  0  0  0  0  0  0
   22.1472  -19.9060  -16.9082 C   0  0  1  0  0  0  0  0  0  0  0  0
   22.3679  -18.9850  -18.0791 C   0  0  0  0  0  0  0  0  0  0  0  0
   23.1024  -19.6125  -15.7711 C   0  0  2  0  0  0  0  0  0  0  0  0
   24.4664  -19.8659  -16.1181 N   0  0  0  0  0  0  0  0  0  0  0  0
   22.6524  -20.3238  -14.5571 C   0  0  0  0  0  0  0  0  0  0  0  0
   22.8468  -21.5712  -14.5279 O   0  0  0  0  0  0  0  0  0  0  0  0
   20.3696  -22.1861   -6.2001 O   0  0  0  0  0  0  0  0  0  0  0  0
   20.7050  -21.5683   -7.3864 C   0  0  0  0  0  0  0  0  0  0  0  0
   22.0287  -21.5157   -7.7472 C   0  0  0  0  0  0  0  0  0  0  0  0
   22.3945  -20.9021   -8.9325 C   0  0  0  0  0  0  0  0  0  0  0  0
   21.4761  -20.3268   -9.7906 C   0  0  0  0  0  0  0  0  0  0  0  0
   21.8135  -19.6640  -11.0480 C   0  0  0  0  0  0  0  0  0  0  0  0
   21.6288  -20.5209  -12.2766 C   0  0  2  0  0  0  0  0  0  0  0  0
   22.0328  -19.7330  -13.4450 N   0  0  0  0  0  0  0  0  0  0  0  0
   20.2728  -21.0382  -12.4609 C   0  0  0  0  0  0  0  0  0  0  0  0
   19.8566  -22.3155  -12.0452 O   0  0  0  0  0  0  0  0  0  0  0  0
   20.1434  -20.3955   -9.3987 C   0  0  0  0  0  0  0  0  0  0  0  0
   19.7657  -21.0035   -8.2213 C   0  0  0  0  0  0  0  0  0  0  0  0
   19.4185  -20.2906  -13.0303 O   0  0  0  0  0  0  0  0  0  0  0  0
  2  1  1  6
  2  3  1  0
  4  5  1  0
  4  2  1  0
  5  6  1  1
  7 13  1  0
  7  5  1  0
  8  7  2  0
 10  9  1  1
 11 10  1  0
 12 14  1  0
 12 10  1  0
 12 13  1  6
 14 15  2  0
 16 17  1  0
 17 27  2  0
 17 18  1  0
 18 19  2  0
 19 20  1  0
 20 21  1  0
 22 21  1  1
 22 24  1  0
 23 22  1  0
 23 14  1  0
 24 25  1  0
 26 20  2  0
 27 26  1  0
 28 24  2  0
M  END
$$$$
