LVY.pdb
     RDKit          3D

 28 28  0  0  1  0  0  0  0  0999 V2000
   21.7032  -14.7801  -17.0033 C   0  0  0  0  0  0  0  0  0  0  0  0
   21.0289  -16.0984  -17.2093 C   0  0  2  0  0  0  0  0  0  0  0  0
   19.7702  -16.1368  -16.3633 C   0  0  0  0  0  0  0  0  0  0  0  0
   21.9367  -17.2487  -16.9353 C   0  0  0  0  0  0  0  0  0  0  0  0
   23.2682  -17.1714  -17.6284 C   0  0  2  0  0  0  0  0  0  0  0  0
   23.1469  -17.4730  -19.0411 N   0  0  0  0  0  0  0  0  0  0  0  0
   24.1796  -18.1382  -16.9579 C   0  0  0  0  0  0  0  0  0  0  0  0
   23.9324  -19.3756  -17.0198 O   0  0  0  0  0  0  0  0  0  0  0  0
   28.5010  -19.4358  -15.0503 C   0  0  0  0  0  0  0  0  0  0  0  0
   27.6614  -18.3924  -15.7455 C   0  0  1  0  0  0  0  0  0  0  0  0
   28.1082  -18.3084  -17.1812 C   0  0  0  0  0  0  0  0  0  0  0  0
   26.1938  -18.7453  -15.6307 C   0  0  2  0  0  0  0  0  0  0  0  0
   25.3429  -17.7648  -16.2306 N   0  0  0  0  0  0  0  0  0  0  0  0
   25.8685  -19.0357  -14.2193 C   0  0  0  0  0  0  0  0  0  0  0  0
   25.4953  -18.0582  -13.5123 O   0  0  0  0  0  0  0  0  0  0  0  0
   21.2874  -21.6186   -7.4853 O   0  0  0  0  0  0  0  0  0  0  0  0
   21.9595  -21.2273   -8.6240 C   0  0  0  0  0  0  0  0  0  0  0  0
   21.6068  -21.7971   -9.8223 C   0  0  0  0  0  0  0  0  0  0  0  0
   22.2640  -21.4234  -10.9815 C   0  0  0  0  0  0  0  0  0  0  0  0
   23.2796  -20.4857  -10.9954 C   0  0  0  0  0  0  0  0  0  0  0  0
   24.0056  -20.0629  -12.1905 C   0  0  0  0  0  0  0  0  0  0  0  0
   25.4422  -20.5224  -12.2456 C   0  0  2  0  0  0  0  0  0  0  0  0
   25.9398  -20.2960  -13.6059 N   0  0  0  0  0  0  0  0  0  0  0  0
   25.6516  -21.9171  -11.8570 C   0  0  0  0  0  0  0  0  0  0  0  0
   25.4365  -23.0114  -12.7136 O   0  0  0  0  0  0  0  0  0  0  0  0
   23.6148  -19.9260   -9.7671 C   0  0  0  0  0  0  0  0  0  0  0  0
   22.9685  -20.2892   -8.6058 C   0  0  0  0  0  0  0  0  0  0  0  0
   26.0516  -22.1565  -10.6756 O   0  0  0  0  0  0  0  0  0  0  0  0
  2  1  1  1
  2  3  1  0
  4  5  1  0
  4  2  1  0
  5  6  1  6
  7 13  1  0
  7  5  1  0
  8  7  2  0
 10  9  1  1
 11 10  1  0
 12 14  1  0
 12 10  1  0
 12 13  1  1
 14 15  2  0
 16 17  1  0
 17 27  2  0
 17 18  1  0
 18 19  2  0
 19 20  1  0
 20 21  1  0
 22 21  1  6
 22 24  1  0
 23 22  1  0
 23 14  1  0
 24 25  1  0
 26 20  2  0
 27 26  1  0
 28 24  2  0
M  END
$$$$
