LVY.pdb
     RDKit          3D

 28 28  0  0  1  0  0  0  0  0999 V2000
   21.8339  -10.1372  -22.6224 C   0  0  0  0  0  0  0  0  0  0  0  0
   23.1433  -10.6795  -22.1467 C   0  0  2  0  0  0  0  0  0  0  0  0
   23.8360  -11.3641  -23.3099 C   0  0  0  0  0  0  0  0  0  0  0  0
   22.9904  -11.5757  -20.9652 C   0  0  0  0  0  0  0  0  0  0  0  0
   24.2833  -12.1131  -20.4184 C   0  0  2  0  0  0  0  0  0  0  0  0
   24.3795  -13.5477  -20.6030 N   0  0  0  0  0  0  0  0  0  0  0  0
   24.3398  -11.7611  -18.9735 C   0  0  0  0  0  0  0  0  0  0  0  0
   23.5941  -12.3672  -18.1533 O   0  0  0  0  0  0  0  0  0  0  0  0
   26.4230  -10.0888  -14.9382 C   0  0  0  0  0  0  0  0  0  0  0  0
   26.5005  -10.5795  -16.3630 C   0  0  1  0  0  0  0  0  0  0  0  0
   26.9591  -12.0137  -16.3430 C   0  0  0  0  0  0  0  0  0  0  0  0
   25.1549  -10.4263  -17.0393 C   0  0  2  0  0  0  0  0  0  0  0  0
   25.1949  -10.7644  -18.4283 N   0  0  0  0  0  0  0  0  0  0  0  0
   24.6208   -9.0760  -16.7680 C   0  0  0  0  0  0  0  0  0  0  0  0
   25.2412   -8.1073  -17.2889 O   0  0  0  0  0  0  0  0  0  0  0  0
   17.8319   -9.2492  -19.2596 O   0  0  0  0  0  0  0  0  0  0  0  0
   18.9970   -8.6953  -18.7724 C   0  0  0  0  0  0  0  0  0  0  0  0
   18.9087   -7.7460  -17.7844 C   0  0  0  0  0  0  0  0  0  0  0  0
   20.0615   -7.1731  -17.2763 C   0  0  0  0  0  0  0  0  0  0  0  0
   21.3247   -7.5145  -17.7220 C   0  0  0  0  0  0  0  0  0  0  0  0
   22.5688   -6.9349  -17.2214 C   0  0  0  0  0  0  0  0  0  0  0  0
   22.9779   -7.4182  -15.8515 C   0  0  2  0  0  0  0  0  0  0  0  0
   23.4921   -8.7844  -15.9865 N   0  0  0  0  0  0  0  0  0  0  0  0
   21.9148   -7.3758  -14.8474 C   0  0  0  0  0  0  0  0  0  0  0  0
   21.3451   -8.5188  -14.2586 O   0  0  0  0  0  0  0  0  0  0  0  0
   21.3824   -8.4784  -18.7230 C   0  0  0  0  0  0  0  0  0  0  0  0
   20.2425   -9.0567  -19.2375 C   0  0  0  0  0  0  0  0  0  0  0  0
   21.4786   -6.2397  -14.4840 O   0  0  0  0  0  0  0  0  0  0  0  0
  2  1  1  6
  2  3  1  0
  4  5  1  0
  4  2  1  0
  5  6  1  1
  7 13  1  0
  7  5  1  0
  8  7  2  0
 10  9  1  1
 11 10  1  0
 12 14  1  0
 12 10  1  0
 12 13  1  6
 14 15  2  0
 16 17  1  0
 17 27  2  0
 17 18  1  0
 18 19  2  0
 19 20  1  0
 20 21  1  0
 22 21  1  6
 22 24  1  0
 23 22  1  0
 23 14  1  0
 24 25  1  0
 26 20  2  0
 27 26  1  0
 28 24  2  0
M  END
$$$$
