LVY.pdb
     RDKit          3D

 28 28  0  0  1  0  0  0  0  0999 V2000
   21.1270  -15.7801  -26.4349 C   0  0  0  0  0  0  0  0  0  0  0  0
   20.7358  -17.2149  -26.2811 C   0  0  2  0  0  0  0  0  0  0  0  0
   19.2675  -17.3577  -26.6348 C   0  0  0  0  0  0  0  0  0  0  0  0
   21.0511  -17.7465  -24.9245 C   0  0  0  0  0  0  0  0  0  0  0  0
   22.4982  -17.6382  -24.5328 C   0  0  2  0  0  0  0  0  0  0  0  0
   23.3315  -18.5028  -25.3449 N   0  0  0  0  0  0  0  0  0  0  0  0
   22.6018  -18.0037  -23.0939 C   0  0  0  0  0  0  0  0  0  0  0  0
   22.7842  -19.2105  -22.7675 O   0  0  0  0  0  0  0  0  0  0  0  0
   25.0580  -16.8633  -20.4827 C   0  0  0  0  0  0  0  0  0  0  0  0
   23.6779  -16.6374  -19.9159 C   0  0  1  0  0  0  0  0  0  0  0  0
   23.3656  -15.1672  -20.0086 C   0  0  0  0  0  0  0  0  0  0  0  0
   22.6651  -17.4781  -20.6635 C   0  0  2  0  0  0  0  0  0  0  0  0
   22.5085  -17.0703  -22.0253 N   0  0  0  0  0  0  0  0  0  0  0  0
   21.4002  -17.5145  -19.9013 C   0  0  0  0  0  0  0  0  0  0  0  0
   20.5059  -16.6941  -20.2503 O   0  0  0  0  0  0  0  0  0  0  0  0
   13.5111  -19.6687  -17.5100 O   0  0  0  0  0  0  0  0  0  0  0  0
   14.7965  -19.4440  -17.9559 C   0  0  0  0  0  0  0  0  0  0  0  0
   15.6830  -20.4925  -17.9570 C   0  0  0  0  0  0  0  0  0  0  0  0
   16.9796  -20.2963  -18.3993 C   0  0  0  0  0  0  0  0  0  0  0  0
   17.4383  -19.0725  -18.8497 C   0  0  0  0  0  0  0  0  0  0  0  0
   18.7970  -18.8151  -19.3206 C   0  0  0  0  0  0  0  0  0  0  0  0
   19.7775  -18.4484  -18.2333 C   0  0  2  0  0  0  0  0  0  0  0  0
   21.1139  -18.3771  -18.8319 N   0  0  0  0  0  0  0  0  0  0  0  0
   19.7855  -19.3579  -17.0875 C   0  0  0  0  0  0  0  0  0  0  0  0
   20.7269  -20.3871  -16.9087 O   0  0  0  0  0  0  0  0  0  0  0  0
   16.5180  -18.0298  -18.8368 C   0  0  0  0  0  0  0  0  0  0  0  0
   15.2243  -18.2116  -18.3991 C   0  0  0  0  0  0  0  0  0  0  0  0
   18.8893  -19.2109  -16.1996 O   0  0  0  0  0  0  0  0  0  0  0  0
  2  1  1  1
  2  3  1  0
  4  5  1  0
  4  2  1  0
  5  6  1  6
  7 13  1  0
  7  5  1  0
  8  7  2  0
 10  9  1  6
 11 10  1  0
 12 14  1  0
 12 10  1  0
 12 13  1  6
 14 15  2  0
 16 17  1  0
 17 27  2  0
 17 18  1  0
 18 19  2  0
 19 20  1  0
 20 21  1  0
 22 21  1  6
 22 24  1  0
 23 22  1  0
 23 14  1  0
 24 25  1  0
 26 20  2  0
 27 26  1  0
 28 24  2  0
M  END
$$$$
