LVY.pdb
     RDKit          3D

 28 28  0  0  1  0  0  0  0  0999 V2000
   29.8466  -24.6452  -16.7483 C   0  0  0  0  0  0  0  0  0  0  0  0
   29.3101  -25.7062  -17.6547 C   0  0  2  0  0  0  0  0  0  0  0  0
   29.9560  -25.5510  -19.0186 C   0  0  0  0  0  0  0  0  0  0  0  0
   27.8209  -25.6940  -17.7230 C   0  0  0  0  0  0  0  0  0  0  0  0
   27.1349  -25.7143  -16.3859 C   0  0  2  0  0  0  0  0  0  0  0  0
   27.4186  -26.9395  -15.6649 N   0  0  0  0  0  0  0  0  0  0  0  0
   25.6737  -25.5705  -16.6293 C   0  0  0  0  0  0  0  0  0  0  0  0
   25.2416  -24.5651  -17.2604 O   0  0  0  0  0  0  0  0  0  0  0  0
   23.5573  -26.9005  -18.9150 C   0  0  0  0  0  0  0  0  0  0  0  0
   22.8601  -27.2642  -17.6271 C   0  0  1  0  0  0  0  0  0  0  0  0
   23.1606  -28.7075  -17.3202 C   0  0  0  0  0  0  0  0  0  0  0  0
   23.3125  -26.3440  -16.5135 C   0  0  2  0  0  0  0  0  0  0  0  0
   24.6966  -26.5067  -16.1925 N   0  0  0  0  0  0  0  0  0  0  0  0
   22.4085  -26.4954  -15.3550 C   0  0  0  0  0  0  0  0  0  0  0  0
   22.5441  -27.5445  -14.6652 O   0  0  0  0  0  0  0  0  0  0  0  0
   17.4025  -25.4418   -8.2480 O   0  0  0  0  0  0  0  0  0  0  0  0
   18.2670  -25.3714   -9.3201 C   0  0  0  0  0  0  0  0  0  0  0  0
   19.0818  -26.4462   -9.5772 C   0  0  0  0  0  0  0  0  0  0  0  0
   19.9592  -26.4036  -10.6466 C   0  0  0  0  0  0  0  0  0  0  0  0
   20.0599  -25.3111  -11.4875 C   0  0  0  0  0  0  0  0  0  0  0  0
   20.9729  -25.2170  -12.6241 C   0  0  0  0  0  0  0  0  0  0  0  0
   20.4729  -25.8783  -13.8852 C   0  0  2  0  0  0  0  0  0  0  0  0
   21.4213  -25.5784  -14.9622 N   0  0  0  0  0  0  0  0  0  0  0  0
   19.1194  -25.4900  -14.2818 C   0  0  0  0  0  0  0  0  0  0  0  0
   18.8341  -24.4591  -15.1947 O   0  0  0  0  0  0  0  0  0  0  0  0
   19.2224  -24.2380  -11.2022 C   0  0  0  0  0  0  0  0  0  0  0  0
   18.3444  -24.2675  -10.1408 C   0  0  0  0  0  0  0  0  0  0  0  0
   18.1416  -26.1205  -13.7723 O   0  0  0  0  0  0  0  0  0  0  0  0
  2  1  1  1
  2  3  1  0
  4  5  1  0
  4  2  1  0
  5  6  1  6
  7 13  1  0
  7  5  1  0
  8  7  2  0
 10  9  1  6
 11 10  1  0
 12 14  1  0
 12 10  1  0
 12 13  1  1
 14 15  2  0
 16 17  1  0
 17 27  2  0
 17 18  1  0
 18 19  2  0
 19 20  1  0
 20 21  1  0
 22 21  1  1
 22 24  1  0
 23 22  1  0
 23 14  1  0
 24 25  1  0
 26 20  2  0
 27 26  1  0
 28 24  2  0
M  END
$$$$
