LVY.pdb
     RDKit          3D

 28 28  0  0  1  0  0  0  0  0999 V2000
   28.6007  -17.4716  -16.7860 C   0  0  0  0  0  0  0  0  0  0  0  0
   27.5767  -18.1514  -17.6371 C   0  0  2  0  0  0  0  0  0  0  0  0
   26.7731  -17.0925  -18.3680 C   0  0  0  0  0  0  0  0  0  0  0  0
   26.7155  -19.0825  -16.8535 C   0  0  0  0  0  0  0  0  0  0  0  0
   27.4610  -19.9506  -15.8789 C   0  0  2  0  0  0  0  0  0  0  0  0
   28.3009  -20.9133  -16.5638 N   0  0  0  0  0  0  0  0  0  0  0  0
   26.4519  -20.6396  -15.0292 C   0  0  0  0  0  0  0  0  0  0  0  0
   25.7723  -21.5889  -15.5119 O   0  0  0  0  0  0  0  0  0  0  0  0
   25.7801  -19.7255  -10.8645 C   0  0  0  0  0  0  0  0  0  0  0  0
   25.6058  -21.1113  -11.4353 C   0  0  1  0  0  0  0  0  0  0  0  0
   24.5571  -21.8261  -10.6247 C   0  0  0  0  0  0  0  0  0  0  0  0
   25.2279  -21.0269  -12.8988 C   0  0  2  0  0  0  0  0  0  0  0  0
   26.1857  -20.3012  -13.6740 N   0  0  0  0  0  0  0  0  0  0  0  0
   23.8482  -20.5129  -13.0198 C   0  0  0  0  0  0  0  0  0  0  0  0
   23.6669  -19.3018  -12.7116 O   0  0  0  0  0  0  0  0  0  0  0  0
   23.2160  -15.9152  -17.3754 O   0  0  0  0  0  0  0  0  0  0  0  0
   22.6835  -17.0397  -16.7806 C   0  0  0  0  0  0  0  0  0  0  0  0
   21.5222  -16.9125  -16.0593 C   0  0  0  0  0  0  0  0  0  0  0  0
   20.9650  -18.0240  -15.4516 C   0  0  0  0  0  0  0  0  0  0  0  0
   21.5296  -19.2830  -15.5350 C   0  0  0  0  0  0  0  0  0  0  0  0
   20.9827  -20.4836  -14.9076 C   0  0  0  0  0  0  0  0  0  0  0  0
   21.3862  -20.6760  -13.4661 C   0  0  2  0  0  0  0  0  0  0  0  0
   22.7338  -21.2527  -13.4446 N   0  0  0  0  0  0  0  0  0  0  0  0
   20.4701  -21.5042  -12.6818 C   0  0  0  0  0  0  0  0  0  0  0  0
   20.8126  -22.7552  -12.1384 O   0  0  0  0  0  0  0  0  0  0  0  0
   22.7051  -19.3807  -16.2720 C   0  0  0  0  0  0  0  0  0  0  0  0
   23.2702  -18.2821  -16.8819 C   0  0  0  0  0  0  0  0  0  0  0  0
   19.2943  -21.0693  -12.4783 O   0  0  0  0  0  0  0  0  0  0  0  0
  2  1  1  1
  2  3  1  0
  4  5  1  0
  4  2  1  0
  5  6  1  6
  7 13  1  0
  7  5  1  0
  8  7  2  0
 10  9  1  1
 11 10  1  0
 12 14  1  0
 12 10  1  0
 12 13  1  6
 14 15  2  0
 16 17  1  0
 17 27  2  0
 17 18  1  0
 18 19  2  0
 19 20  1  0
 20 21  1  0
 22 21  1  6
 22 24  1  0
 23 22  1  0
 23 14  1  0
 24 25  1  0
 26 20  2  0
 27 26  1  0
 28 24  2  0
M  END
$$$$
