LVY.pdb
     RDKit          3D

 28 28  0  0  1  0  0  0  0  0999 V2000
   29.7802  -20.5226   -4.9855 C   0  0  0  0  0  0  0  0  0  0  0  0
   28.3764  -20.0387   -4.8108 C   0  0  2  0  0  0  0  0  0  0  0  0
   27.7434  -20.7933   -3.6570 C   0  0  0  0  0  0  0  0  0  0  0  0
   27.5802  -20.1428   -6.0669 C   0  0  0  0  0  0  0  0  0  0  0  0
   28.2259  -19.5123   -7.2688 C   0  0  2  0  0  0  0  0  0  0  0  0
   28.4313  -18.0906   -7.0735 N   0  0  0  0  0  0  0  0  0  0  0  0
   27.3389  -19.7625   -8.4374 C   0  0  0  0  0  0  0  0  0  0  0  0
   26.3741  -18.9802   -8.6681 O   0  0  0  0  0  0  0  0  0  0  0  0
   27.3303  -21.4552  -13.0513 C   0  0  0  0  0  0  0  0  0  0  0  0
   27.9200  -21.5098  -11.6634 C   0  0  1  0  0  0  0  0  0  0  0  0
   29.3041  -20.9187  -11.7161 C   0  0  0  0  0  0  0  0  0  0  0  0
   27.0271  -20.7706  -10.6898 C   0  0  2  0  0  0  0  0  0  0  0  0
   27.4987  -20.8479   -9.3420 N   0  0  0  0  0  0  0  0  0  0  0  0
   25.6321  -21.2253  -10.8619 C   0  0  0  0  0  0  0  0  0  0  0  0
   25.3713  -22.4033  -10.4891 O   0  0  0  0  0  0  0  0  0  0  0  0
   16.8927  -21.5226  -12.4016 O   0  0  0  0  0  0  0  0  0  0  0  0
   18.1946  -21.1486  -12.1431 C   0  0  0  0  0  0  0  0  0  0  0  0
   18.7244  -21.4288  -10.9078 C   0  0  0  0  0  0  0  0  0  0  0  0
   20.0285  -21.0653  -10.6204 C   0  0  0  0  0  0  0  0  0  0  0  0
   20.8428  -20.4205  -11.5326 C   0  0  0  0  0  0  0  0  0  0  0  0
   22.2216  -20.0126  -11.2746 C   0  0  0  0  0  0  0  0  0  0  0  0
   23.2599  -21.0404  -11.6531 C   0  0  2  0  0  0  0  0  0  0  0  0
   24.5837  -20.4633  -11.4004 N   0  0  0  0  0  0  0  0  0  0  0  0
   23.1718  -21.5162  -13.0337 C   0  0  0  0  0  0  0  0  0  0  0  0
   22.3423  -22.5734  -13.4483 O   0  0  0  0  0  0  0  0  0  0  0  0
   20.2787  -20.1500  -12.7748 C   0  0  0  0  0  0  0  0  0  0  0  0
   18.9818  -20.5065  -13.0738 C   0  0  0  0  0  0  0  0  0  0  0  0
   23.8865  -20.9415  -13.9123 O   0  0  0  0  0  0  0  0  0  0  0  0
  2  1  1  6
  2  3  1  0
  4  5  1  0
  4  2  1  0
  5  6  1  1
  7 13  1  0
  7  5  1  0
  8  7  2  0
 10  9  1  6
 11 10  1  0
 12 14  1  0
 12 10  1  0
 12 13  1  1
 14 15  2  0
 16 17  1  0
 17 27  2  0
 17 18  1  0
 18 19  2  0
 19 20  1  0
 20 21  1  0
 22 21  1  6
 22 24  1  0
 23 22  1  0
 23 14  1  0
 24 25  1  0
 26 20  2  0
 27 26  1  0
 28 24  2  0
M  END
$$$$
