LVY.pdb
     RDKit          3D

 28 28  0  0  1  0  0  0  0  0999 V2000
   24.0885  -17.4794  -19.2009 C   0  0  0  0  0  0  0  0  0  0  0  0
   23.1092  -18.5679  -18.8985 C   0  0  2  0  0  0  0  0  0  0  0  0
   21.7805  -17.9360  -18.5289 C   0  0  0  0  0  0  0  0  0  0  0  0
   23.6076  -19.5042  -17.8508 C   0  0  0  0  0  0  0  0  0  0  0  0
   25.0333  -19.9435  -18.0339 C   0  0  2  0  0  0  0  0  0  0  0  0
   25.1549  -20.9097  -19.1077 N   0  0  0  0  0  0  0  0  0  0  0  0
   25.4921  -20.5266  -16.7438 C   0  0  0  0  0  0  0  0  0  0  0  0
   25.1413  -21.6984  -16.4281 O   0  0  0  0  0  0  0  0  0  0  0  0
   29.0023  -20.8734  -15.5317 C   0  0  0  0  0  0  0  0  0  0  0  0
   28.2323  -20.3261  -14.3550 C   0  0  1  0  0  0  0  0  0  0  0  0
   28.6337  -18.8882  -14.1571 C   0  0  0  0  0  0  0  0  0  0  0  0
   26.7446  -20.4691  -14.5956 C   0  0  2  0  0  0  0  0  0  0  0  0
   26.3206  -19.8451  -15.8105 N   0  0  0  0  0  0  0  0  0  0  0  0
   26.0085  -20.0106  -13.3997 C   0  0  0  0  0  0  0  0  0  0  0  0
   25.3379  -18.9475  -13.5214 O   0  0  0  0  0  0  0  0  0  0  0  0
   18.9546  -18.7266   -9.4753 O   0  0  0  0  0  0  0  0  0  0  0  0
   20.0901  -19.2365  -10.0687 C   0  0  0  0  0  0  0  0  0  0  0  0
   20.6650  -20.3597   -9.5275 C   0  0  0  0  0  0  0  0  0  0  0  0
   21.8051  -20.8937  -10.1023 C   0  0  0  0  0  0  0  0  0  0  0  0
   22.4081  -20.3425  -11.2174 C   0  0  0  0  0  0  0  0  0  0  0  0
   23.6134  -20.8658  -11.8560 C   0  0  0  0  0  0  0  0  0  0  0  0
   24.9039  -20.4514  -11.1921 C   0  0  2  0  0  0  0  0  0  0  0  0
   25.9936  -20.6530  -12.1519 N   0  0  0  0  0  0  0  0  0  0  0  0
   25.1976  -21.1500   -9.9408 C   0  0  0  0  0  0  0  0  0  0  0  0
   24.8618  -20.6553   -8.6680 O   0  0  0  0  0  0  0  0  0  0  0  0
   21.8034  -19.2057  -11.7430 C   0  0  0  0  0  0  0  0  0  0  0  0
   20.6683  -18.6640  -11.1806 C   0  0  0  0  0  0  0  0  0  0  0  0
   25.7915  -22.2708  -10.0054 O   0  0  0  0  0  0  0  0  0  0  0  0
  2  1  1  1
  2  3  1  0
  4  5  1  0
  4  2  1  0
  5  6  1  6
  7 13  1  0
  7  5  1  0
  8  7  2  0
 10  9  1  6
 11 10  1  0
 12 14  1  0
 12 10  1  0
 12 13  1  6
 14 15  2  0
 16 17  1  0
 17 27  2  0
 17 18  1  0
 18 19  2  0
 19 20  1  0
 20 21  1  0
 22 21  1  6
 22 24  1  0
 23 22  1  0
 23 14  1  0
 24 25  1  0
 26 20  2  0
 27 26  1  0
 28 24  2  0
M  END
$$$$
