RVA.pdb
     RDKit          3D

 24 23  0  0  1  0  0  0  0  0999 V2000
    8.8860  -15.3701   16.4967 N   0  0  0  0  0  0  0  0  0  0  0  0
    8.2127  -14.1228   16.2534 C   0  0  0  0  0  0  0  0  0  0  0  0
    8.0617  -13.7225   15.0452 N   0  0  0  0  0  0  0  0  0  0  0  0
    7.7305  -13.3623   17.3285 N   0  0  0  0  0  0  0  0  0  0  0  0
    7.4508  -13.9378   18.6367 C   0  0  0  0  0  0  0  0  0  0  0  0
    8.6452  -14.5822   19.2442 C   0  0  0  0  0  0  0  0  0  0  0  0
    9.0395  -14.1276   20.6126 C   0  0  0  0  0  0  0  0  0  0  0  0
    8.4590  -14.9842   21.6668 C   0  0  2  0  0  0  0  0  0  0  0  0
    7.0205  -14.9724   21.6020 N   0  0  0  0  0  0  0  0  0  0  0  0
    8.8617  -14.5690   23.0475 C   0  0  0  0  0  0  0  0  0  0  0  0
   10.0775  -14.4735   23.3461 O   0  0  0  0  0  0  0  0  0  0  0  0
    7.6080  -12.8739   14.7137 C   0  0  0  0  0  0  0  0  0  0  0  0
    5.8349  -13.3681   26.0189 C   0  0  1  0  0  0  0  0  0  0  0  0
    7.2923  -12.9926   26.0279 C   0  0  0  0  0  0  0  0  0  0  0  0
    7.7787  -12.3573   27.2841 C   0  0  1  0  0  0  0  0  0  0  0  0
    8.2204  -13.9772   25.4525 N   0  0  0  0  0  0  0  0  0  0  0  0
    7.9104  -14.2736   24.0501 C   0  0  0  0  0  0  0  0  0  0  0  0
    8.5403  -15.1892   26.2029 O   0  0  0  0  0  0  0  0  0  0  0  0
    7.6024  -16.0599   26.3209 C   0  0  0  0  0  0  0  0  0  0  0  0
   11.2353  -17.4686   27.0495 C   0  0  2  0  0  0  0  0  0  0  0  0
    9.9579  -16.8008   27.5064 N   0  0  0  0  0  0  0  0  0  0  0  0
    9.7451  -15.5354   26.8179 C   0  0  0  0  0  0  0  0  0  0  0  0
   10.0590  -16.5265   28.9545 O   0  0  0  0  0  0  0  0  0  0  0  0
   10.0192  -15.2482   29.4961 O   0  0  0  0  0  0  0  0  0  0  0  0
  1  2  1  0
  2  3  2  0
  4  5  1  0
  4  2  1  0
  6  7  1  0
  6  5  1  0
  8  9  1  1
  8  7  1  0
 10  8  1  0
 10 16  1  0
 11 10  2  0
 13 12  1  6
 13 15  1  0
 14 13  1  0
 15 16  1  6
 15 17  1  0
 17 21  1  0
 18 17  2  0
 20 22  1  0
 20 19  1  6
 21 20  1  0
 22 23  1  0
 24 22  2  0
M  END
$$$$
