RVA.pdb
     RDKit          3D

 24 23  0  0  1  0  0  0  0  0999 V2000
    8.1412  -15.5782   17.0471 N   0  0  0  0  0  0  0  0  0  0  0  0
    8.3659  -14.2371   16.5791 C   0  0  0  0  0  0  0  0  0  0  0  0
    8.8608  -14.0607   15.4099 N   0  0  0  0  0  0  0  0  0  0  0  0
    8.0441  -13.1436   17.3961 N   0  0  0  0  0  0  0  0  0  0  0  0
    7.3410  -13.2880   18.6632 C   0  0  0  0  0  0  0  0  0  0  0  0
    8.1304  -14.0441   19.6712 C   0  0  0  0  0  0  0  0  0  0  0  0
    7.4934  -14.2655   21.0054 C   0  0  0  0  0  0  0  0  0  0  0  0
    7.5071  -15.6908   21.3933 C   0  0  2  0  0  0  0  0  0  0  0  0
    6.5167  -16.4318   20.6562 N   0  0  0  0  0  0  0  0  0  0  0  0
    7.2508  -15.9038   22.8526 C   0  0  0  0  0  0  0  0  0  0  0  0
    6.1251  -15.6353   23.3393 O   0  0  0  0  0  0  0  0  0  0  0  0
    8.9533  -13.1917   14.8884 C   0  0  0  0  0  0  0  0  0  0  0  0
    6.6551  -18.6124   24.9683 C   0  0  2  0  0  0  0  0  0  0  0  0
    7.8646  -17.9488   25.5700 C   0  0  0  0  0  0  0  0  0  0  0  0
    9.0943  -18.7879   25.6167 C   0  0  2  0  0  0  0  0  0  0  0  0
    8.1029  -16.5525   25.1762 N   0  0  0  0  0  0  0  0  0  0  0  0
    8.2442  -16.4053   23.7239 C   0  0  0  0  0  0  0  0  0  0  0  0
    9.0952  -15.7601   25.8986 O   0  0  0  0  0  0  0  0  0  0  0  0
   10.3106  -15.8444   25.4896 C   0  0  0  0  0  0  0  0  0  0  0  0
    9.5921  -12.9970   28.3568 C   0  0  2  0  0  0  0  0  0  0  0  0
    9.9910  -14.3255   27.7548 N   0  0  0  0  0  0  0  0  0  0  0  0
    8.8992  -14.9103   26.9890 C   0  0  0  0  0  0  0  0  0  0  0  0
   10.3369  -15.2560   28.8489 O   0  0  0  0  0  0  0  0  0  0  0  0
   11.4978  -15.1518   29.6043 O   0  0  0  0  0  0  0  0  0  0  0  0
  1  2  1  0
  2  3  2  0
  4  5  1  0
  4  2  1  0
  6  7  1  0
  6  5  1  0
  8  9  1  6
  8  7  1  0
 10  8  1  0
 10 16  1  0
 11 10  2  0
 13 12  1  1
 13 15  1  0
 14 13  1  0
 15 16  1  1
 15 17  1  0
 17 21  1  0
 18 17  2  0
 20 22  1  0
 20 19  1  6
 21 20  1  0
 22 23  1  0
 24 22  2  0
M  END
$$$$
