RVA.pdb
     RDKit          3D

 24 23  0  0  1  0  0  0  0  0999 V2000
    8.7554  -11.4724   19.9644 N   0  0  0  0  0  0  0  0  0  0  0  0
    9.4105  -12.6429   19.4458 C   0  0  0  0  0  0  0  0  0  0  0  0
   10.6097  -12.9010   19.8176 N   0  0  0  0  0  0  0  0  0  0  0  0
    8.7391  -13.4851   18.5476 N   0  0  0  0  0  0  0  0  0  0  0  0
    8.1190  -14.7376   18.9568 C   0  0  0  0  0  0  0  0  0  0  0  0
    7.1454  -14.5571   20.0660 C   0  0  0  0  0  0  0  0  0  0  0  0
    6.5164  -15.7926   20.6250 C   0  0  0  0  0  0  0  0  0  0  0  0
    7.5190  -16.8362   20.9211 C   0  0  2  0  0  0  0  0  0  0  0  0
    7.1183  -18.1034   20.3669 N   0  0  0  0  0  0  0  0  0  0  0  0
    7.7514  -17.0269   22.3875 C   0  0  0  0  0  0  0  0  0  0  0  0
    6.8288  -17.4626   23.1191 O   0  0  0  0  0  0  0  0  0  0  0  0
   11.2196  -13.6529   19.5036 C   0  0  0  0  0  0  0  0  0  0  0  0
    9.9837  -19.3385   24.1970 C   0  0  2  0  0  0  0  0  0  0  0  0
   10.3380  -17.9404   24.6269 C   0  0  0  0  0  0  0  0  0  0  0  0
   11.7174  -17.4978   24.2808 C   0  0  2  0  0  0  0  0  0  0  0  0
    9.3058  -16.9148   24.4164 N   0  0  0  0  0  0  0  0  0  0  0  0
    8.9923  -16.7310   22.9957 C   0  0  0  0  0  0  0  0  0  0  0  0
    9.4076  -15.6367   25.1170 O   0  0  0  0  0  0  0  0  0  0  0  0
   10.1592  -14.7426   24.5810 C   0  0  0  0  0  0  0  0  0  0  0  0
    7.7999  -13.2836   27.3894 C   0  0  2  0  0  0  0  0  0  0  0  0
    9.0733  -13.9914   26.9844 N   0  0  0  0  0  0  0  0  0  0  0  0
    8.7890  -15.2488   26.3071 C   0  0  0  0  0  0  0  0  0  0  0  0
    9.8563  -14.2897   28.2010 O   0  0  0  0  0  0  0  0  0  0  0  0
   10.4972  -13.3165   28.9568 O   0  0  0  0  0  0  0  0  0  0  0  0
  1  2  1  0
  2  3  2  0
  4  5  1  0
  4  2  1  0
  6  7  1  0
  6  5  1  0
  8  9  1  1
  8  7  1  0
 10  8  1  0
 10 16  1  0
 11 10  2  0
 13 12  1  1
 13 15  1  0
 14 13  1  0
 15 16  1  1
 15 17  1  0
 17 21  1  0
 18 17  2  0
 20 22  1  0
 20 19  1  6
 21 20  1  0
 22 23  1  0
 24 22  2  0
M  END
$$$$
