RVA.pdb
     RDKit          3D

 24 23  0  0  1  0  0  0  0  0999 V2000
    8.2763  -20.2378   18.7918 N   0  0  0  0  0  0  0  0  0  0  0  0
    6.8896  -19.8565   18.7895 C   0  0  0  0  0  0  0  0  0  0  0  0
    6.2453  -19.8594   17.6814 N   0  0  0  0  0  0  0  0  0  0  0  0
    6.2590  -19.4893   19.9870 N   0  0  0  0  0  0  0  0  0  0  0  0
    6.9588  -18.8111   21.0691 C   0  0  0  0  0  0  0  0  0  0  0  0
    7.6948  -17.6051   20.6057 C   0  0  0  0  0  0  0  0  0  0  0  0
    8.4901  -16.8601   21.6290 C   0  0  0  0  0  0  0  0  0  0  0  0
    7.9549  -15.5033   21.8627 C   0  0  2  0  0  0  0  0  0  0  0  0
    8.1638  -14.6649   20.7108 N   0  0  0  0  0  0  0  0  0  0  0  0
    8.5731  -14.8247   23.0451 C   0  0  0  0  0  0  0  0  0  0  0  0
    9.7871  -14.5053   23.0233 O   0  0  0  0  0  0  0  0  0  0  0  0
    5.2879  -19.5612   17.5075 C   0  0  0  0  0  0  0  0  0  0  0  0
    6.2898  -12.5188   25.1326 C   0  0  2  0  0  0  0  0  0  0  0  0
    7.4881  -12.8746   25.9709 C   0  0  0  0  0  0  0  0  0  0  0  0
    7.2293  -12.9971   27.4325 C   0  0  2  0  0  0  0  0  0  0  0  0
    8.3759  -13.9129   25.4274 N   0  0  0  0  0  0  0  0  0  0  0  0
    7.8316  -14.5221   24.2095 C   0  0  0  0  0  0  0  0  0  0  0  0
    8.9452  -14.9153   26.3249 O   0  0  0  0  0  0  0  0  0  0  0  0
    8.1577  -15.8512   26.7191 C   0  0  0  0  0  0  0  0  0  0  0  0
   12.2211  -16.1792   27.6682 C   0  0  2  0  0  0  0  0  0  0  0  0
   10.7127  -16.0741   27.6811 N   0  0  0  0  0  0  0  0  0  0  0  0
   10.2485  -14.9960   26.8192 C   0  0  0  0  0  0  0  0  0  0  0  0
   10.2702  -15.7846   29.0605 O   0  0  0  0  0  0  0  0  0  0  0  0
   10.2573  -16.7329   30.0753 O   0  0  0  0  0  0  0  0  0  0  0  0
  1  2  1  0
  2  3  2  0
  4  5  1  0
  4  2  1  0
  6  7  1  0
  6  5  1  0
  8  9  1  6
  8  7  1  0
 10  8  1  0
 10 16  1  0
 11 10  2  0
 13 12  1  1
 13 15  1  0
 14 13  1  0
 15 16  1  6
 15 17  1  0
 17 21  1  0
 18 17  2  0
 20 22  1  0
 20 19  1  6
 21 20  1  0
 22 23  1  0
 24 22  2  0
M  END
$$$$
