RVA.pdb
     RDKit          3D

 24 23  0  0  1  0  0  0  0  0999 V2000
    8.4468  -12.3929   18.5764 N   0  0  0  0  0  0  0  0  0  0  0  0
    8.0121  -13.3817   17.6269 C   0  0  0  0  0  0  0  0  0  0  0  0
    8.6212  -13.4753   16.5030 N   0  0  0  0  0  0  0  0  0  0  0  0
    6.9372  -14.2280   17.9349 N   0  0  0  0  0  0  0  0  0  0  0  0
    6.7336  -14.7901   19.2628 C   0  0  0  0  0  0  0  0  0  0  0  0
    7.7998  -15.7537   19.6446 C   0  0  0  0  0  0  0  0  0  0  0  0
    8.7391  -15.3325   20.7286 C   0  0  0  0  0  0  0  0  0  0  0  0
    8.3978  -15.9519   22.0254 C   0  0  2  0  0  0  0  0  0  0  0  0
    6.9783  -16.1695   22.1314 N   0  0  0  0  0  0  0  0  0  0  0  0
    8.8271  -15.1286   23.1996 C   0  0  0  0  0  0  0  0  0  0  0  0
    9.9630  -14.5940   23.2113 O   0  0  0  0  0  0  0  0  0  0  0  0
    8.3881  -14.0639   15.7061 C   0  0  0  0  0  0  0  0  0  0  0  0
    7.1744  -12.1586   24.9266 C   0  0  2  0  0  0  0  0  0  0  0  0
    7.4611  -13.2082   25.9665 C   0  0  0  0  0  0  0  0  0  0  0  0
    6.2772  -13.6832   26.7353 C   0  0  2  0  0  0  0  0  0  0  0  0
    8.3913  -14.2763   25.5722 N   0  0  0  0  0  0  0  0  0  0  0  0
    7.9892  -14.9233   24.3190 C   0  0  0  0  0  0  0  0  0  0  0  0
    8.8306  -15.2519   26.5671 O   0  0  0  0  0  0  0  0  0  0  0  0
    7.9268  -16.0208   27.0603 C   0  0  0  0  0  0  0  0  0  0  0  0
   11.7624  -17.1263   27.8051 C   0  0  2  0  0  0  0  0  0  0  0  0
   10.4315  -16.4618   28.0768 N   0  0  0  0  0  0  0  0  0  0  0  0
   10.1188  -15.4658   27.0615 C   0  0  0  0  0  0  0  0  0  0  0  0
   10.5013  -15.7801   29.3854 O   0  0  0  0  0  0  0  0  0  0  0  0
   10.3886  -14.4042   29.5390 O   0  0  0  0  0  0  0  0  0  0  0  0
  1  2  1  0
  2  3  2  0
  4  5  1  0
  4  2  1  0
  6  7  1  0
  6  5  1  0
  8  9  1  6
  8  7  1  0
 10  8  1  0
 10 16  1  0
 11 10  2  0
 13 12  1  1
 13 15  1  0
 14 13  1  0
 15 16  1  1
 15 17  1  0
 17 21  1  0
 18 17  2  0
 20 22  1  0
 20 19  1  6
 21 20  1  0
 22 23  1  0
 24 22  2  0
M  END
$$$$
