RVA.pdb
     RDKit          3D

 24 23  0  0  1  0  0  0  0  0999 V2000
    7.2612  -20.2061   13.5390 N   0  0  0  0  0  0  0  0  0  0  0  0
    6.6679  -21.2217   14.3665 C   0  0  0  0  0  0  0  0  0  0  0  0
    6.7981  -22.4521   14.0314 N   0  0  0  0  0  0  0  0  0  0  0  0
    5.9597  -20.8624   15.5224 N   0  0  0  0  0  0  0  0  0  0  0  0
    5.8142  -19.4806   15.9585 C   0  0  0  0  0  0  0  0  0  0  0  0
    7.1046  -18.8778   16.3857 C   0  0  0  0  0  0  0  0  0  0  0  0
    7.0724  -17.9822   17.5821 C   0  0  0  0  0  0  0  0  0  0  0  0
    7.5644  -16.6251   17.2685 C   0  0  2  0  0  0  0  0  0  0  0  0
    8.3375  -16.6286   16.0536 N   0  0  0  0  0  0  0  0  0  0  0  0
    8.4151  -16.0442   18.3547 C   0  0  0  0  0  0  0  0  0  0  0  0
    9.6630  -16.1769   18.3152 O   0  0  0  0  0  0  0  0  0  0  0  0
    6.4464  -23.2775   14.5118 C   0  0  0  0  0  0  0  0  0  0  0  0
    7.7681  -12.4127   20.0648 C   0  0  2  0  0  0  0  0  0  0  0  0
    7.9888  -13.5188   21.0613 C   0  0  0  0  0  0  0  0  0  0  0  0
    6.8572  -13.7681   21.9971 C   0  0  2  0  0  0  0  0  0  0  0  0
    8.6243  -14.7403   20.5459 N   0  0  0  0  0  0  0  0  0  0  0  0
    7.8605  -15.3376   19.4457 C   0  0  0  0  0  0  0  0  0  0  0  0
    9.1032  -15.7532   21.4835 O   0  0  0  0  0  0  0  0  0  0  0  0
    8.2833  -16.6965   21.7831 C   0  0  0  0  0  0  0  0  0  0  0  0
   11.9985  -17.5957   22.5553 C   0  0  2  0  0  0  0  0  0  0  0  0
   10.7236  -16.9195   23.0068 N   0  0  0  0  0  0  0  0  0  0  0  0
   10.3497  -15.8372   22.1070 C   0  0  0  0  0  0  0  0  0  0  0  0
   10.9420  -16.3468   24.3509 O   0  0  0  0  0  0  0  0  0  0  0  0
   11.1869  -17.1169   25.4806 O   0  0  0  0  0  0  0  0  0  0  0  0
  1  2  1  0
  2  3  2  0
  4  5  1  0
  4  2  1  0
  6  7  1  0
  6  5  1  0
  8  9  1  6
  8  7  1  0
 10  8  1  0
 10 16  1  0
 11 10  2  0
 13 12  1  1
 13 15  1  0
 14 13  1  0
 15 16  1  1
 15 17  1  0
 17 21  1  0
 18 17  2  0
 20 22  1  0
 20 19  1  6
 21 20  1  0
 22 23  1  0
 24 22  2  0
M  END
$$$$
