RVA.pdb
     RDKit          3D

 24 23  0  0  1  0  0  0  0  0999 V2000
    7.2248  -12.4685   18.2843 N   0  0  0  0  0  0  0  0  0  0  0  0
    8.5362  -13.0320   18.4601 C   0  0  0  0  0  0  0  0  0  0  0  0
    9.4735  -12.2932   18.9275 N   0  0  0  0  0  0  0  0  0  0  0  0
    8.7770  -14.3720   18.1234 N   0  0  0  0  0  0  0  0  0  0  0  0
    8.5365  -15.4711   19.0480 C   0  0  0  0  0  0  0  0  0  0  0  0
    9.2066  -15.2705   20.3601 C   0  0  0  0  0  0  0  0  0  0  0  0
    9.3451  -16.4696   21.2420 C   0  0  0  0  0  0  0  0  0  0  0  0
    8.3137  -16.4987   22.2991 C   0  0  2  0  0  0  0  0  0  0  0  0
    7.0497  -16.0284   21.7945 N   0  0  0  0  0  0  0  0  0  0  0  0
    8.6724  -15.6677   23.4913 C   0  0  0  0  0  0  0  0  0  0  0  0
    9.8705  -15.5723   23.8542 O   0  0  0  0  0  0  0  0  0  0  0  0
   10.4695  -12.4956   18.9805 C   0  0  0  0  0  0  0  0  0  0  0  0
    5.5072  -13.6899   25.8978 C   0  0  1  0  0  0  0  0  0  0  0  0
    6.9508  -13.2719   25.8192 C   0  0  0  0  0  0  0  0  0  0  0  0
    7.3897  -12.2989   26.8579 C   0  0  1  0  0  0  0  0  0  0  0  0
    7.9227  -14.3408   25.5463 N   0  0  0  0  0  0  0  0  0  0  0  0
    7.6980  -14.9709   24.2413 C   0  0  0  0  0  0  0  0  0  0  0  0
    8.2139  -15.3303   26.5810 O   0  0  0  0  0  0  0  0  0  0  0  0
    8.5903  -14.8777   27.7234 C   0  0  0  0  0  0  0  0  0  0  0  0
    7.6376  -18.9055   27.4933 C   0  0  2  0  0  0  0  0  0  0  0  0
    8.4051  -17.6087   27.6195 N   0  0  0  0  0  0  0  0  0  0  0  0
    8.1368  -16.7219   26.4961 C   0  0  0  0  0  0  0  0  0  0  0  0
    9.8505  -17.9135   27.6313 O   0  0  0  0  0  0  0  0  0  0  0  0
   10.4892  -18.5548   28.6849 O   0  0  0  0  0  0  0  0  0  0  0  0
  1  2  1  0
  2  3  2  0
  4  5  1  0
  4  2  1  0
  6  7  1  0
  6  5  1  0
  8  9  1  6
  8  7  1  0
 10  8  1  0
 10 16  1  0
 11 10  2  0
 13 12  1  6
 13 15  1  0
 14 13  1  0
 15 16  1  6
 15 17  1  0
 17 21  1  0
 18 17  2  0
 20 22  1  0
 20 19  1  1
 21 20  1  0
 22 23  1  0
 24 22  2  0
M  END
$$$$
