RVA.pdb
     RDKit          3D

 24 23  0  0  1  0  0  0  0  0999 V2000
    6.7057  -19.7612   24.4723 N   0  0  0  0  0  0  0  0  0  0  0  0
    5.7967  -20.6331   23.7782 C   0  0  0  0  0  0  0  0  0  0  0  0
    5.0394  -21.4117   24.4586 N   0  0  0  0  0  0  0  0  0  0  0  0
    5.7454  -20.6243   22.3767 N   0  0  0  0  0  0  0  0  0  0  0  0
    6.3801  -19.5893   21.5725 C   0  0  0  0  0  0  0  0  0  0  0  0
    6.3698  -18.2608   22.2402 C   0  0  0  0  0  0  0  0  0  0  0  0
    7.6915  -17.7002   22.6570 C   0  0  0  0  0  0  0  0  0  0  0  0
    7.8077  -16.2635   22.3338 C   0  0  2  0  0  0  0  0  0  0  0  0
    8.6138  -16.0667   21.1570 N   0  0  0  0  0  0  0  0  0  0  0  0
    8.4087  -15.4595   23.4442 C   0  0  0  0  0  0  0  0  0  0  0  0
    9.6548  -15.3272   23.5218 O   0  0  0  0  0  0  0  0  0  0  0  0
    4.3965  -22.1232   24.1176 C   0  0  0  0  0  0  0  0  0  0  0  0
    7.2678  -11.8804   24.7728 C   0  0  2  0  0  0  0  0  0  0  0  0
    7.3512  -12.8927   25.8833 C   0  0  0  0  0  0  0  0  0  0  0  0
    6.0783  -13.1412   26.6156 C   0  0  2  0  0  0  0  0  0  0  0  0
    8.1289  -14.1074   25.5981 N   0  0  0  0  0  0  0  0  0  0  0  0
    7.6153  -14.8297   24.4297 C   0  0  0  0  0  0  0  0  0  0  0  0
    8.4687  -15.0174   26.6893 O   0  0  0  0  0  0  0  0  0  0  0  0
    7.7022  -16.0361   26.8517 C   0  0  0  0  0  0  0  0  0  0  0  0
   10.9697  -16.9072   27.7559 C   0  0  2  0  0  0  0  0  0  0  0  0
    9.9476  -16.0328   28.4466 N   0  0  0  0  0  0  0  0  0  0  0  0
    9.5296  -14.9296   27.5929 C   0  0  0  0  0  0  0  0  0  0  0  0
   10.5572  -15.4659   29.6670 O   0  0  0  0  0  0  0  0  0  0  0  0
   10.9477  -16.2348   30.7558 O   0  0  0  0  0  0  0  0  0  0  0  0
  1  2  1  0
  2  3  2  0
  4  5  1  0
  4  2  1  0
  6  7  1  0
  6  5  1  0
  8  9  1  6
  8  7  1  0
 10  8  1  0
 10 16  1  0
 11 10  2  0
 13 12  1  1
 13 15  1  0
 14 13  1  0
 15 16  1  1
 15 17  1  0
 17 21  1  0
 18 17  2  0
 20 22  1  0
 20 19  1  6
 21 20  1  0
 22 23  1  0
 24 22  2  0
M  END
$$$$
