RVA.pdb
     RDKit          3D

 24 23  0  0  1  0  0  0  0  0999 V2000
   11.3247  -16.0010   19.3035 N   0  0  0  0  0  0  0  0  0  0  0  0
   11.9142  -14.7017   19.1233 C   0  0  0  0  0  0  0  0  0  0  0  0
   13.1912  -14.5973   19.0867 N   0  0  0  0  0  0  0  0  0  0  0  0
   11.0962  -13.5705   18.9891 N   0  0  0  0  0  0  0  0  0  0  0  0
    9.6420  -13.6436   19.0138 C   0  0  0  0  0  0  0  0  0  0  0  0
    9.0808  -13.3978   20.3686 C   0  0  0  0  0  0  0  0  0  0  0  0
    7.6507  -13.7730   20.5894 C   0  0  0  0  0  0  0  0  0  0  0  0
    7.5078  -15.1861   20.9956 C   0  0  2  0  0  0  0  0  0  0  0  0
    6.4580  -15.8299   20.2492 N   0  0  0  0  0  0  0  0  0  0  0  0
    7.2049  -15.3497   22.4524 C   0  0  0  0  0  0  0  0  0  0  0  0
    6.2039  -14.7819   22.9544 O   0  0  0  0  0  0  0  0  0  0  0  0
   13.7528  -13.7541   18.9895 C   0  0  0  0  0  0  0  0  0  0  0  0
    7.3995  -18.7176   23.7119 C   0  0  2  0  0  0  0  0  0  0  0  0
    7.4286  -17.8436   24.9368 C   0  0  0  0  0  0  0  0  0  0  0  0
    8.1061  -18.4340   26.1245 C   0  0  2  0  0  0  0  0  0  0  0  0
    7.7334  -16.4227   24.7140 N   0  0  0  0  0  0  0  0  0  0  0  0
    8.0157  -16.1334   23.3043 C   0  0  0  0  0  0  0  0  0  0  0  0
    8.6692  -15.7391   25.6037 O   0  0  0  0  0  0  0  0  0  0  0  0
    9.9069  -15.7491   25.2580 C   0  0  0  0  0  0  0  0  0  0  0  0
    8.8380  -13.3752   28.5166 C   0  0  2  0  0  0  0  0  0  0  0  0
    9.4252  -14.4356   27.6126 N   0  0  0  0  0  0  0  0  0  0  0  0
    8.3970  -15.0656   26.7961 C   0  0  0  0  0  0  0  0  0  0  0  0
   10.0514  -15.4784   28.4509 O   0  0  0  0  0  0  0  0  0  0  0  0
   11.2318  -15.2864   29.1572 O   0  0  0  0  0  0  0  0  0  0  0  0
  1  2  1  0
  2  3  2  0
  4  5  1  0
  4  2  1  0
  6  7  1  0
  6  5  1  0
  8  9  1  6
  8  7  1  0
 10  8  1  0
 10 16  1  0
 11 10  2  0
 13 12  1  1
 13 15  1  0
 14 13  1  0
 15 16  1  1
 15 17  1  0
 17 21  1  0
 18 17  2  0
 20 22  1  0
 20 19  1  6
 21 20  1  0
 22 23  1  0
 24 22  2  0
M  END
$$$$
