RVA.pdb
     RDKit          3D

 24 23  0  0  1  0  0  0  0  0999 V2000
   10.5621  -15.0834   20.3220 N   0  0  0  0  0  0  0  0  0  0  0  0
   11.2001  -14.1690   19.4137 C   0  0  0  0  0  0  0  0  0  0  0  0
   12.4138  -14.3853   19.0631 N   0  0  0  0  0  0  0  0  0  0  0  0
   10.4966  -13.0597   18.9224 N   0  0  0  0  0  0  0  0  0  0  0  0
    9.1829  -12.6772   19.4210 C   0  0  0  0  0  0  0  0  0  0  0  0
    8.1885  -13.7775   19.3129 C   0  0  0  0  0  0  0  0  0  0  0  0
    7.3361  -14.0425   20.5120 C   0  0  0  0  0  0  0  0  0  0  0  0
    7.4867  -15.4286   21.0001 C   0  0  2  0  0  0  0  0  0  0  0  0
    6.6324  -16.3258   20.2663 N   0  0  0  0  0  0  0  0  0  0  0  0
    7.1683  -15.5756   22.4554 C   0  0  0  0  0  0  0  0  0  0  0  0
    5.9966  -15.3867   22.8650 O   0  0  0  0  0  0  0  0  0  0  0  0
   12.9966  -13.8361   18.4349 C   0  0  0  0  0  0  0  0  0  0  0  0
    6.4397  -18.1898   24.3148 C   0  0  2  0  0  0  0  0  0  0  0  0
    7.6008  -17.6112   25.0778 C   0  0  0  0  0  0  0  0  0  0  0  0
    8.8045  -18.4839   25.1643 C   0  0  2  0  0  0  0  0  0  0  0  0
    7.9012  -16.1939   24.8273 N   0  0  0  0  0  0  0  0  0  0  0  0
    8.1522  -15.9257   23.4076 C   0  0  0  0  0  0  0  0  0  0  0  0
    8.8568  -15.4980   25.6858 O   0  0  0  0  0  0  0  0  0  0  0  0
   10.0843  -15.5018   25.3054 C   0  0  0  0  0  0  0  0  0  0  0  0
    9.2009  -13.1295   28.5586 C   0  0  2  0  0  0  0  0  0  0  0  0
    9.6717  -14.3138   27.7449 N   0  0  0  0  0  0  0  0  0  0  0  0
    8.6135  -14.8183   26.8810 C   0  0  0  0  0  0  0  0  0  0  0  0
   10.0675  -15.3959   28.6693 O   0  0  0  0  0  0  0  0  0  0  0  0
   11.2001  -15.3416   29.4715 O   0  0  0  0  0  0  0  0  0  0  0  0
  1  2  1  0
  2  3  2  0
  4  5  1  0
  4  2  1  0
  6  7  1  0
  6  5  1  0
  8  9  1  6
  8  7  1  0
 10  8  1  0
 10 16  1  0
 11 10  2  0
 13 12  1  1
 13 15  1  0
 14 13  1  0
 15 16  1  1
 15 17  1  0
 17 21  1  0
 18 17  2  0
 20 22  1  0
 20 19  1  6
 21 20  1  0
 22 23  1  0
 24 22  2  0
M  END
$$$$
