RVA.pdb
     RDKit          3D

 24 23  0  0  1  0  0  0  0  0999 V2000
    9.5693  -13.7135   19.3954 N   0  0  0  0  0  0  0  0  0  0  0  0
    8.5508  -12.6991   19.3529 C   0  0  0  0  0  0  0  0  0  0  0  0
    8.8987  -11.4660   19.3918 N   0  0  0  0  0  0  0  0  0  0  0  0
    7.1990  -13.0626   19.2690 N   0  0  0  0  0  0  0  0  0  0  0  0
    6.7492  -14.4451   19.3523 C   0  0  0  0  0  0  0  0  0  0  0  0
    6.8041  -14.9810   20.7382 C   0  0  0  0  0  0  0  0  0  0  0  0
    7.6438  -16.1971   20.9632 C   0  0  0  0  0  0  0  0  0  0  0  0
    7.5110  -16.7116   22.3415 C   0  0  2  0  0  0  0  0  0  0  0  0
    6.1276  -16.7639   22.7377 N   0  0  0  0  0  0  0  0  0  0  0  0
    8.2484  -15.8859   23.3492 C   0  0  0  0  0  0  0  0  0  0  0  0
    9.4525  -15.5869   23.1573 O   0  0  0  0  0  0  0  0  0  0  0  0
    8.3045  -10.6411   19.3453 C   0  0  0  0  0  0  0  0  0  0  0  0
    6.1492  -13.7082   26.3912 C   0  0  1  0  0  0  0  0  0  0  0  0
    7.6155  -13.5476   26.0921 C   0  0  0  0  0  0  0  0  0  0  0  0
    8.3781  -12.7215   27.0690 C   0  0  1  0  0  0  0  0  0  0  0  0
    8.3230  -14.7558   25.6432 N   0  0  0  0  0  0  0  0  0  0  0  0
    7.6325  -15.4189   24.5323 C   0  0  0  0  0  0  0  0  0  0  0  0
    8.8034  -15.7179   26.6321 O   0  0  0  0  0  0  0  0  0  0  0  0
    7.9510  -16.5777   27.0629 C   0  0  0  0  0  0  0  0  0  0  0  0
   11.7241  -17.5680   27.7317 C   0  0  2  0  0  0  0  0  0  0  0  0
   10.4522  -16.8609   28.1425 N   0  0  0  0  0  0  0  0  0  0  0  0
   10.0825  -15.8323   27.1803 C   0  0  0  0  0  0  0  0  0  0  0  0
   10.6735  -16.2107   29.4504 O   0  0  0  0  0  0  0  0  0  0  0  0
   10.8931  -16.9141   30.6277 O   0  0  0  0  0  0  0  0  0  0  0  0
  1  2  1  0
  2  3  2  0
  4  5  1  0
  4  2  1  0
  6  7  1  0
  6  5  1  0
  8  9  1  1
  8  7  1  0
 10  8  1  0
 10 16  1  0
 11 10  2  0
 13 12  1  6
 13 15  1  0
 14 13  1  0
 15 16  1  6
 15 17  1  0
 17 21  1  0
 18 17  2  0
 20 22  1  0
 20 19  1  6
 21 20  1  0
 22 23  1  0
 24 22  2  0
M  END
$$$$
