RVA.pdb
     RDKit          3D

 24 23  0  0  1  0  0  0  0  0999 V2000
    2.9546  -21.0348   21.7737 N   0  0  0  0  0  0  0  0  0  0  0  0
    2.5452  -19.6957   21.4460 C   0  0  0  0  0  0  0  0  0  0  0  0
    1.2959  -19.4419   21.3127 N   0  0  0  0  0  0  0  0  0  0  0  0
    3.5057  -18.6878   21.2774 N   0  0  0  0  0  0  0  0  0  0  0  0
    4.9336  -18.9276   21.4331 C   0  0  0  0  0  0  0  0  0  0  0  0
    5.3688  -18.8807   22.8542 C   0  0  0  0  0  0  0  0  0  0  0  0
    6.6822  -18.2268   23.1408 C   0  0  0  0  0  0  0  0  0  0  0  0
    6.6700  -16.7906   22.7957 C   0  0  2  0  0  0  0  0  0  0  0  0
    7.0735  -16.5889   21.4282 N   0  0  0  0  0  0  0  0  0  0  0  0
    7.5690  -15.9704   23.6675 C   0  0  0  0  0  0  0  0  0  0  0  0
    8.7819  -15.8377   23.3719 O   0  0  0  0  0  0  0  0  0  0  0  0
    0.8538  -18.5569   21.0737 C   0  0  0  0  0  0  0  0  0  0  0  0
    7.8111  -12.6036   27.3925 C   0  0  1  0  0  0  0  0  0  0  0  0
    7.1898  -13.3318   26.2311 C   0  0  0  0  0  0  0  0  0  0  0  0
    6.6415  -12.4620   25.1536 C   0  0  1  0  0  0  0  0  0  0  0  0
    7.9160  -14.5125   25.7410 N   0  0  0  0  0  0  0  0  0  0  0  0
    7.0993  -15.3254   24.8340 C   0  0  0  0  0  0  0  0  0  0  0  0
    8.6631  -15.3410   26.6844 O   0  0  0  0  0  0  0  0  0  0  0  0
    7.9733  -16.1016   27.4571 C   0  0  0  0  0  0  0  0  0  0  0  0
   12.1497  -16.5386   27.4406 C   0  0  2  0  0  0  0  0  0  0  0  0
   10.6835  -16.3659   27.7677 N   0  0  0  0  0  0  0  0  0  0  0  0
   10.0458  -15.4202   26.8624 C   0  0  0  0  0  0  0  0  0  0  0  0
   10.5643  -15.8398   29.1429 O   0  0  0  0  0  0  0  0  0  0  0  0
   10.7659  -16.6134   30.2788 O   0  0  0  0  0  0  0  0  0  0  0  0
  1  2  1  0
  2  3  2  0
  4  5  1  0
  4  2  1  0
  6  7  1  0
  6  5  1  0
  8  9  1  6
  8  7  1  0
 10  8  1  0
 10 16  1  0
 11 10  2  0
 13 12  1  1
 13 15  1  0
 14 13  1  0
 15 16  1  1
 15 17  1  0
 17 21  1  0
 18 17  2  0
 20 22  1  0
 20 19  1  6
 21 20  1  0
 22 23  1  0
 24 22  2  0
M  END
$$$$
