RVA.pdb
     RDKit          3D

 24 23  0  0  1  0  0  0  0  0999 V2000
    7.0728  -13.0980   18.6347 N   0  0  0  0  0  0  0  0  0  0  0  0
    8.3175  -13.6145   18.1326 C   0  0  0  0  0  0  0  0  0  0  0  0
    9.1596  -12.8049   17.6049 N   0  0  0  0  0  0  0  0  0  0  0  0
    8.5983  -14.9855   18.2240 N   0  0  0  0  0  0  0  0  0  0  0  0
    7.8698  -15.8804   19.1122 C   0  0  0  0  0  0  0  0  0  0  0  0
    7.9310  -15.4486   20.5337 C   0  0  0  0  0  0  0  0  0  0  0  0
    6.9740  -16.0965   21.4819 C   0  0  0  0  0  0  0  0  0  0  0  0
    7.6176  -16.4394   22.7665 C   0  0  2  0  0  0  0  0  0  0  0  0
    6.7151  -17.1791   23.6103 N   0  0  0  0  0  0  0  0  0  0  0  0
    8.0813  -15.2377   23.5291 C   0  0  0  0  0  0  0  0  0  0  0  0
    9.0963  -14.6043   23.1484 O   0  0  0  0  0  0  0  0  0  0  0  0
   10.0523  -13.0204   17.1663 C   0  0  0  0  0  0  0  0  0  0  0  0
    5.5229  -13.5994   26.6555 C   0  0  1  0  0  0  0  0  0  0  0  0
    6.5022  -12.8211   25.8186 C   0  0  0  0  0  0  0  0  0  0  0  0
    6.7403  -11.4177   26.2570 C   0  0  1  0  0  0  0  0  0  0  0  0
    7.7179  -13.5378   25.4063 N   0  0  0  0  0  0  0  0  0  0  0  0
    7.4100  -14.7764   24.6841 C   0  0  0  0  0  0  0  0  0  0  0  0
    8.8023  -13.7277   26.3668 O   0  0  0  0  0  0  0  0  0  0  0  0
    9.2413  -12.6744   26.9580 C   0  0  0  0  0  0  0  0  0  0  0  0
    9.7978  -14.4903   29.1230 C   0  0  2  0  0  0  0  0  0  0  0  0
   10.3899  -15.0083   27.8317 N   0  0  0  0  0  0  0  0  0  0  0  0
    9.4352  -14.9163   26.7358 C   0  0  0  0  0  0  0  0  0  0  0  0
   10.7488  -16.4299   28.0123 O   0  0  0  0  0  0  0  0  0  0  0  0
   10.2273  -17.4560   27.2349 O   0  0  0  0  0  0  0  0  0  0  0  0
  1  2  1  0
  2  3  2  0
  4  5  1  0
  4  2  1  0
  6  7  1  0
  6  5  1  0
  8  9  1  1
  8  7  1  0
 10  8  1  0
 10 16  1  0
 11 10  2  0
 13 12  1  6
 13 15  1  0
 14 13  1  0
 15 16  1  6
 15 17  1  0
 17 21  1  0
 18 17  2  0
 20 22  1  0
 20 19  1  6
 21 20  1  0
 22 23  1  0
 24 22  2  0
M  END
$$$$
