HRA.pdb
     RDKit          3D

 27 27  0  0  1  0  0  0  0  0999 V2000
   10.3556  -16.6807   20.0426 N   0  0  0  0  0  0  0  0  0  0  0  0
   10.9628  -16.7381   21.3445 C   0  0  1  0  0  0  0  0  0  0  0  0
   12.3266  -16.0901   21.3956 C   0  0  0  0  0  0  0  0  0  0  0  0
   13.3054  -16.8653   20.5929 C   0  0  0  0  0  0  0  0  0  0  0  0
   13.1814  -18.1269   20.0566 C   0  0  0  0  0  0  0  0  0  0  0  0
   14.3126  -18.4540   19.3969 N   0  0  0  0  0  0  0  0  0  0  0  0
   15.1441  -17.4030   19.5177 C   0  0  0  0  0  0  0  0  0  0  0  0
   14.5275  -16.4331   20.2486 N   0  0  0  0  0  0  0  0  0  0  0  0
   10.0372  -16.1433   22.3316 C   0  0  0  0  0  0  0  0  0  0  0  0
    9.1877  -15.3016   21.9594 O   0  0  0  0  0  0  0  0  0  0  0  0
    9.8846  -20.4915   26.6271 N   0  0  0  0  0  0  0  0  0  0  0  0
    9.1328  -21.2585   25.6959 C   0  0  0  0  0  0  0  0  0  0  0  0
    9.5224  -22.4528   25.3945 N   0  0  0  0  0  0  0  0  0  0  0  0
    7.9606  -20.7506   25.0842 N   0  0  0  0  0  0  0  0  0  0  0  0
    7.5045  -19.3841   25.2111 C   0  0  0  0  0  0  0  0  0  0  0  0
    8.6218  -18.3975   24.9668 C   0  0  0  0  0  0  0  0  0  0  0  0
    8.1675  -16.9814   24.9927 C   0  0  0  0  0  0  0  0  0  0  0  0
    9.2389  -15.9841   24.6723 C   0  0  2  0  0  0  0  0  0  0  0  0
   10.1482  -16.5565   23.6904 N   0  0  0  0  0  0  0  0  0  0  0  0
   10.0110  -15.7614   25.9497 C   0  0  0  0  0  0  0  0  0  0  0  0
   11.0233  -16.4512   26.2323 O   0  0  0  0  0  0  0  0  0  0  0  0
    9.0196  -23.0789   24.7370 C   0  0  0  0  0  0  0  0  0  0  0  0
    9.8969  -13.2587   28.7191 C   0  0  1  0  0  0  0  0  0  0  0  0
   10.4150  -14.5184   28.0758 N   0  0  0  0  0  0  0  0  0  0  0  0
    9.6228  -14.7628   26.8818 C   0  0  0  0  0  0  0  0  0  0  0  0
   10.2787  -15.6901   28.9811 O   0  0  0  0  0  0  0  0  0  0  0  0
    9.3702  -16.5368   28.8147 O   0  0  0  0  0  0  0  0  0  0  0  0
  2  1  1  6
  2  3  1  0
  4  3  1  0
  5  4  2  0
  6  7  1  0
  6  5  1  0
  7  8  2  0
  8  4  1  0
  9 19  1  0
  9  2  1  0
 10  9  2  0
 11 12  1  0
 12 14  1  0
 13 12  2  0
 14 15  1  0
 16 15  1  0
 18 17  1  1
 17 16  1  0
 18 19  1  0
 20 18  1  0
 21 20  2  0
 23 22  1  6
 23 25  1  0
 23 24  1  0
 24 20  1  0
 25 27  1  0
 26 25  2  0
M  END
$$$$
