HRA.pdb
     RDKit          3D

 27 27  0  0  1  0  0  0  0  0999 V2000
   13.2358  -19.5118   11.7182 N   0  0  0  0  0  0  0  0  0  0  0  0
   14.5319  -19.7115   12.3073 C   0  0  1  0  0  0  0  0  0  0  0  0
   15.3453  -18.4420   12.4038 C   0  0  0  0  0  0  0  0  0  0  0  0
   15.7188  -17.9552   11.0522 C   0  0  0  0  0  0  0  0  0  0  0  0
   15.4826  -16.7273   10.4767 C   0  0  0  0  0  0  0  0  0  0  0  0
   15.9924  -16.7048    9.2272 N   0  0  0  0  0  0  0  0  0  0  0  0
   16.5468  -17.9129    9.0177 C   0  0  0  0  0  0  0  0  0  0  0  0
   16.3789  -18.6758   10.1335 N   0  0  0  0  0  0  0  0  0  0  0  0
   14.3645  -20.3555   13.6272 C   0  0  0  0  0  0  0  0  0  0  0  0
   13.4471  -19.9778   14.3917 O   0  0  0  0  0  0  0  0  0  0  0  0
   17.6606  -28.1659   16.4279 N   0  0  0  0  0  0  0  0  0  0  0  0
   18.1773  -26.8709   16.1509 C   0  0  0  0  0  0  0  0  0  0  0  0
   19.4261  -26.7357   15.8492 N   0  0  0  0  0  0  0  0  0  0  0  0
   17.3591  -25.7155   16.1950 N   0  0  0  0  0  0  0  0  0  0  0  0
   15.9135  -25.7419   16.1659 C   0  0  0  0  0  0  0  0  0  0  0  0
   15.3268  -24.3565   16.2998 C   0  0  0  0  0  0  0  0  0  0  0  0
   15.6511  -23.4705   15.1499 C   0  0  0  0  0  0  0  0  0  0  0  0
   15.0660  -22.0944   15.2475 C   0  0  2  0  0  0  0  0  0  0  0  0
   15.2671  -21.3978   13.9853 N   0  0  0  0  0  0  0  0  0  0  0  0
   15.8537  -21.3699   16.3114 C   0  0  0  0  0  0  0  0  0  0  0  0
   16.9740  -20.8569   16.0623 O   0  0  0  0  0  0  0  0  0  0  0  0
   19.8895  -25.8206   15.6911 C   0  0  0  0  0  0  0  0  0  0  0  0
   15.0578  -19.9116   19.6003 C   0  0  1  0  0  0  0  0  0  0  0  0
   16.0701  -20.4358   18.6156 N   0  0  0  0  0  0  0  0  0  0  0  0
   15.3583  -21.2399   17.6360 C   0  0  0  0  0  0  0  0  0  0  0  0
   17.0868  -21.2928   19.2812 O   0  0  0  0  0  0  0  0  0  0  0  0
   17.9091  -20.8116   20.0949 O   0  0  0  0  0  0  0  0  0  0  0  0
  2  1  1  1
  2  3  1  0
  4  3  1  0
  5  4  2  0
  6  7  1  0
  6  5  1  0
  7  8  2  0
  8  4  1  0
  9 19  1  0
  9  2  1  0
 10  9  2  0
 11 12  1  0
 12 14  1  0
 13 12  2  0
 14 15  1  0
 16 15  1  0
 18 17  1  6
 17 16  1  0
 18 19  1  0
 20 18  1  0
 21 20  2  0
 23 22  1  6
 23 25  1  0
 23 24  1  0
 24 20  1  0
 25 27  1  0
 26 25  2  0
M  END
$$$$
