HRA.pdb
     RDKit          3D

 27 27  0  0  1  0  0  0  0  0999 V2000
    8.5770  -15.5915   20.8704 N   0  0  0  0  0  0  0  0  0  0  0  0
    7.6844  -14.4730   21.0084 C   0  0  1  0  0  0  0  0  0  0  0  0
    6.6784  -14.3707   19.8859 C   0  0  0  0  0  0  0  0  0  0  0  0
    7.3650  -14.2011   18.5809 C   0  0  0  0  0  0  0  0  0  0  0  0
    8.1737  -13.1724   18.1537 C   0  0  0  0  0  0  0  0  0  0  0  0
    8.5914  -13.4154   16.8935 N   0  0  0  0  0  0  0  0  0  0  0  0
    8.0481  -14.5915   16.5297 C   0  0  0  0  0  0  0  0  0  0  0  0
    7.2990  -15.0704   17.5616 N   0  0  0  0  0  0  0  0  0  0  0  0
    7.0249  -14.5463   22.3292 C   0  0  0  0  0  0  0  0  0  0  0  0
    6.0320  -13.8217   22.5697 O   0  0  0  0  0  0  0  0  0  0  0  0
    8.5475  -20.5123   27.7569 N   0  0  0  0  0  0  0  0  0  0  0  0
    9.0318  -20.7131   26.4356 C   0  0  0  0  0  0  0  0  0  0  0  0
   10.0982  -21.4181   26.2495 N   0  0  0  0  0  0  0  0  0  0  0  0
    8.3762  -20.1604   25.3081 N   0  0  0  0  0  0  0  0  0  0  0  0
    7.2766  -19.2244   25.3854 C   0  0  0  0  0  0  0  0  0  0  0  0
    7.7128  -17.8205   25.0389 C   0  0  0  0  0  0  0  0  0  0  0  0
    6.5856  -16.8507   25.0001 C   0  0  0  0  0  0  0  0  0  0  0  0
    6.9863  -15.4538   24.6349 C   0  0  2  0  0  0  0  0  0  0  0  0
    7.5517  -15.4526   23.2936 N   0  0  0  0  0  0  0  0  0  0  0  0
    8.0750  -15.0553   25.6010 C   0  0  0  0  0  0  0  0  0  0  0  0
    8.7068  -15.9142   26.2670 O   0  0  0  0  0  0  0  0  0  0  0  0
   10.4831  -21.6530   25.3148 C   0  0  0  0  0  0  0  0  0  0  0  0
    6.5000  -12.8156   26.9026 C   0  0  1  0  0  0  0  0  0  0  0  0
    7.9952  -12.9799   26.9848 N   0  0  0  0  0  0  0  0  0  0  0  0
    8.4274  -13.6932   25.7944 C   0  0  0  0  0  0  0  0  0  0  0  0
    8.3930  -13.7704   28.1798 O   0  0  0  0  0  0  0  0  0  0  0  0
    8.9117  -13.2202   29.1789 O   0  0  0  0  0  0  0  0  0  0  0  0
  2  1  1  6
  2  3  1  0
  4  3  1  0
  5  4  2  0
  6  7  1  0
  6  5  1  0
  7  8  2  0
  8  4  1  0
  9 19  1  0
  9  2  1  0
 10  9  2  0
 11 12  1  0
 12 14  1  0
 13 12  2  0
 14 15  1  0
 16 15  1  0
 18 17  1  1
 17 16  1  0
 18 19  1  0
 20 18  1  0
 21 20  2  0
 23 22  1  6
 23 25  1  0
 23 24  1  0
 24 20  1  0
 25 27  1  0
 26 25  2  0
M  END
$$$$
