HRA.pdb
     RDKit          3D

 27 27  0  0  1  0  0  0  0  0999 V2000
    8.5247  -16.7482   19.3679 N   0  0  0  0  0  0  0  0  0  0  0  0
    8.5826  -15.7565   20.4071 C   0  0  1  0  0  0  0  0  0  0  0  0
    7.4375  -14.7723   20.3568 C   0  0  0  0  0  0  0  0  0  0  0  0
    7.4660  -13.9998   19.0896 C   0  0  0  0  0  0  0  0  0  0  0  0
    7.9930  -12.7517   18.8464 C   0  0  0  0  0  0  0  0  0  0  0  0
    7.8031  -12.4220   17.5514 N   0  0  0  0  0  0  0  0  0  0  0  0
    7.1597  -13.4580   16.9827 C   0  0  0  0  0  0  0  0  0  0  0  0
    6.9544  -14.4213   17.9235 N   0  0  0  0  0  0  0  0  0  0  0  0
    8.6609  -16.4382   21.7163 C   0  0  0  0  0  0  0  0  0  0  0  0
    7.7544  -17.2314   22.0597 O   0  0  0  0  0  0  0  0  0  0  0  0
   15.1869  -20.7325   22.9282 N   0  0  0  0  0  0  0  0  0  0  0  0
   14.5375  -20.1360   24.0431 C   0  0  0  0  0  0  0  0  0  0  0  0
   14.8124  -20.5500   25.2355 N   0  0  0  0  0  0  0  0  0  0  0  0
   13.5916  -19.0933   23.8862 N   0  0  0  0  0  0  0  0  0  0  0  0
   13.1328  -18.5980   22.6073 C   0  0  0  0  0  0  0  0  0  0  0  0
   12.0912  -17.5161   22.7684 C   0  0  0  0  0  0  0  0  0  0  0  0
   10.9986  -17.8912   23.7053 C   0  0  0  0  0  0  0  0  0  0  0  0
    9.9042  -16.8736   23.8154 C   0  0  2  0  0  0  0  0  0  0  0  0
    9.7819  -16.1628   22.5510 N   0  0  0  0  0  0  0  0  0  0  0  0
   10.3448  -15.8844   24.8664 C   0  0  0  0  0  0  0  0  0  0  0  0
   11.4528  -15.2956   24.7887 O   0  0  0  0  0  0  0  0  0  0  0  0
   14.3900  -20.1573   26.0983 C   0  0  0  0  0  0  0  0  0  0  0  0
    8.7733  -13.6794   27.2232 C   0  0  1  0  0  0  0  0  0  0  0  0
    9.9434  -14.5918   26.9632 N   0  0  0  0  0  0  0  0  0  0  0  0
    9.5234  -15.5810   25.9844 C   0  0  0  0  0  0  0  0  0  0  0  0
   10.3684  -15.3011   28.1991 O   0  0  0  0  0  0  0  0  0  0  0  0
   10.2211  -16.5394   28.3201 O   0  0  0  0  0  0  0  0  0  0  0  0
  2  1  1  6
  2  3  1  0
  4  3  1  0
  5  4  2  0
  6  7  1  0
  6  5  1  0
  7  8  2  0
  8  4  1  0
  9 19  1  0
  9  2  1  0
 10  9  2  0
 11 12  1  0
 12 14  1  0
 13 12  2  0
 14 15  1  0
 16 15  1  0
 18 17  1  6
 17 16  1  0
 18 19  1  0
 20 18  1  0
 21 20  2  0
 23 22  1  6
 23 25  1  0
 23 24  1  0
 24 20  1  0
 25 27  1  0
 26 25  2  0
M  END
$$$$
