HRA.pdb
     RDKit          3D

 27 27  0  0  1  0  0  0  0  0999 V2000
    7.4938  -17.3229   19.8652 N   0  0  0  0  0  0  0  0  0  0  0  0
    8.2578  -16.8317   20.9796 C   0  0  1  0  0  0  0  0  0  0  0  0
    9.2978  -15.8091   20.5853 C   0  0  0  0  0  0  0  0  0  0  0  0
    8.6606  -14.6405   19.9283 C   0  0  0  0  0  0  0  0  0  0  0  0
    7.3303  -14.4193   19.6527 C   0  0  0  0  0  0  0  0  0  0  0  0
    7.1847  -13.2240   19.0429 N   0  0  0  0  0  0  0  0  0  0  0  0
    8.4176  -12.6958   18.9356 C   0  0  0  0  0  0  0  0  0  0  0  0
    9.3184  -13.5623   19.4770 N   0  0  0  0  0  0  0  0  0  0  0  0
    7.3297  -16.3024   22.0009 C   0  0  0  0  0  0  0  0  0  0  0  0
    6.2147  -15.8500   21.6534 O   0  0  0  0  0  0  0  0  0  0  0  0
    7.1110  -21.6178   27.9669 N   0  0  0  0  0  0  0  0  0  0  0  0
    8.2244  -21.3205   27.1347 C   0  0  0  0  0  0  0  0  0  0  0  0
    9.2229  -22.1390   27.0920 N   0  0  0  0  0  0  0  0  0  0  0  0
    8.2732  -20.1461   26.3443 N   0  0  0  0  0  0  0  0  0  0  0  0
    7.2561  -19.1180   26.3529 C   0  0  0  0  0  0  0  0  0  0  0  0
    7.6076  -17.9769   25.4278 C   0  0  0  0  0  0  0  0  0  0  0  0
    6.5573  -16.9253   25.3711 C   0  0  0  0  0  0  0  0  0  0  0  0
    6.8311  -15.8329   24.3826 C   0  0  2  0  0  0  0  0  0  0  0  0
    7.7451  -16.3272   23.3633 N   0  0  0  0  0  0  0  0  0  0  0  0
    7.5307  -14.7336   25.1438 C   0  0  0  0  0  0  0  0  0  0  0  0
    8.7794  -14.7295   25.2895 O   0  0  0  0  0  0  0  0  0  0  0  0
   10.0452  -22.0199   26.4701 C   0  0  0  0  0  0  0  0  0  0  0  0
    6.4712  -11.6058   26.8994 C   0  0  1  0  0  0  0  0  0  0  0  0
    7.4827  -12.6595   26.5309 N   0  0  0  0  0  0  0  0  0  0  0  0
    6.8040  -13.6608   25.7249 C   0  0  0  0  0  0  0  0  0  0  0  0
    8.0431  -13.3244   27.7371 O   0  0  0  0  0  0  0  0  0  0  0  0
    7.6439  -14.4555   28.0993 O   0  0  0  0  0  0  0  0  0  0  0  0
  2  1  1  6
  2  3  1  0
  4  3  1  0
  5  4  2  0
  6  7  1  0
  6  5  1  0
  7  8  2  0
  8  4  1  0
  9 19  1  0
  9  2  1  0
 10  9  2  0
 11 12  1  0
 12 14  1  0
 13 12  2  0
 14 15  1  0
 16 15  1  0
 18 17  1  1
 17 16  1  0
 18 19  1  0
 20 18  1  0
 21 20  2  0
 23 22  1  6
 23 25  1  0
 23 24  1  0
 24 20  1  0
 25 27  1  0
 26 25  2  0
M  END
$$$$
