HRA.pdb
     RDKit          3D

 27 27  0  0  1  0  0  0  0  0999 V2000
    7.1059  -15.7363   26.5802 N   0  0  0  0  0  0  0  0  0  0  0  0
    7.1552  -14.9869   25.3543 C   0  0  1  0  0  0  0  0  0  0  0  0
    7.8878  -13.6724   25.4879 C   0  0  0  0  0  0  0  0  0  0  0  0
    7.1624  -12.7594   26.4063 C   0  0  0  0  0  0  0  0  0  0  0  0
    7.6603  -11.7467   27.1946 C   0  0  0  0  0  0  0  0  0  0  0  0
    6.6524  -11.1646   27.8779 N   0  0  0  0  0  0  0  0  0  0  0  0
    5.5257  -11.8081   27.5211 C   0  0  0  0  0  0  0  0  0  0  0  0
    5.8388  -12.7822   26.6220 N   0  0  0  0  0  0  0  0  0  0  0  0
    7.7433  -15.8360   24.2969 C   0  0  0  0  0  0  0  0  0  0  0  0
    8.3305  -16.8980   24.6068 O   0  0  0  0  0  0  0  0  0  0  0  0
   10.5105  -14.6807   18.0069 N   0  0  0  0  0  0  0  0  0  0  0  0
    9.3028  -13.9698   17.7691 C   0  0  0  0  0  0  0  0  0  0  0  0
    9.3489  -12.7026   17.5219 N   0  0  0  0  0  0  0  0  0  0  0  0
    8.0408  -14.6125   17.7941 N   0  0  0  0  0  0  0  0  0  0  0  0
    7.8495  -16.0166   18.0826 C   0  0  0  0  0  0  0  0  0  0  0  0
    8.4537  -16.4010   19.4124 C   0  0  0  0  0  0  0  0  0  0  0  0
    7.8421  -15.6824   20.5622 C   0  0  0  0  0  0  0  0  0  0  0  0
    8.3032  -16.1619   21.9049 C   0  0  2  0  0  0  0  0  0  0  0  0
    7.6181  -15.4074   22.9442 N   0  0  0  0  0  0  0  0  0  0  0  0
    9.7757  -15.8428   21.9899 C   0  0  0  0  0  0  0  0  0  0  0  0
   10.1822  -14.6668   22.1692 O   0  0  0  0  0  0  0  0  0  0  0  0
    8.5117  -12.1131   17.3528 C   0  0  0  0  0  0  0  0  0  0  0  0
   12.8280  -17.8058   22.6045 C   0  0  1  0  0  0  0  0  0  0  0  0
   12.1649  -16.5580   22.0828 N   0  0  0  0  0  0  0  0  0  0  0  0
   10.7591  -16.8604   21.8706 C   0  0  0  0  0  0  0  0  0  0  0  0
   12.7558  -16.1256   20.7885 O   0  0  0  0  0  0  0  0  0  0  0  0
   12.2044  -16.4035   19.6982 O   0  0  0  0  0  0  0  0  0  0  0  0
  2  1  1  1
  2  3  1  0
  4  3  1  0
  5  4  2  0
  6  7  1  0
  6  5  1  0
  7  8  2  0
  8  4  1  0
  9 19  1  0
  9  2  1  0
 10  9  2  0
 11 12  1  0
 12 14  1  0
 13 12  2  0
 14 15  1  0
 16 15  1  0
 18 17  1  6
 17 16  1  0
 18 19  1  0
 20 18  1  0
 21 20  2  0
 23 22  1  1
 23 25  1  0
 23 24  1  0
 24 20  1  0
 25 27  1  0
 26 25  2  0
M  END
$$$$
