HRA.pdb
     RDKit          3D

 27 27  0  0  1  0  0  0  0  0999 V2000
   12.2622  -16.1063   18.6122 N   0  0  0  0  0  0  0  0  0  0  0  0
   13.1338  -15.6232   19.6485 C   0  0  1  0  0  0  0  0  0  0  0  0
   13.9201  -14.3984   19.2436 C   0  0  0  0  0  0  0  0  0  0  0  0
   14.8453  -14.7153   18.1269 C   0  0  0  0  0  0  0  0  0  0  0  0
   15.6601  -15.8123   17.9605 C   0  0  0  0  0  0  0  0  0  0  0  0
   16.3398  -15.7022   16.7996 N   0  0  0  0  0  0  0  0  0  0  0  0
   15.9543  -14.5415   16.2384 C   0  0  0  0  0  0  0  0  0  0  0  0
   15.0413  -13.9396   17.0504 N   0  0  0  0  0  0  0  0  0  0  0  0
   12.3381  -15.3831   20.8708 C   0  0  0  0  0  0  0  0  0  0  0  0
   12.7019  -14.5060   21.6875 O   0  0  0  0  0  0  0  0  0  0  0  0
    8.0920  -14.4314   18.1114 N   0  0  0  0  0  0  0  0  0  0  0  0
    8.2169  -13.2306   18.8617 C   0  0  0  0  0  0  0  0  0  0  0  0
    8.4432  -12.1172   18.2469 N   0  0  0  0  0  0  0  0  0  0  0  0
    8.0993  -13.2165   20.2732 N   0  0  0  0  0  0  0  0  0  0  0  0
    7.6180  -14.3306   21.0597 C   0  0  0  0  0  0  0  0  0  0  0  0
    8.3628  -15.6046   20.7379 C   0  0  0  0  0  0  0  0  0  0  0  0
    8.9239  -16.2739   21.9418 C   0  0  0  0  0  0  0  0  0  0  0  0
   10.3442  -15.9059   22.2464 C   0  0  2  0  0  0  0  0  0  0  0  0
   11.1691  -16.1707   21.0768 N   0  0  0  0  0  0  0  0  0  0  0  0
   10.7957  -16.8258   23.3542 C   0  0  0  0  0  0  0  0  0  0  0  0
   11.2343  -17.9786   23.1110 O   0  0  0  0  0  0  0  0  0  0  0  0
    8.5818  -11.2071   18.7260 C   0  0  0  0  0  0  0  0  0  0  0  0
   11.0901  -16.5735   27.0751 C   0  0  2  0  0  0  0  0  0  0  0  0
   11.2101  -17.3108   25.7670 N   0  0  0  0  0  0  0  0  0  0  0  0
   10.7421  -16.4235   24.7151 C   0  0  0  0  0  0  0  0  0  0  0  0
   10.3742  -18.5406   25.7543 O   0  0  0  0  0  0  0  0  0  0  0  0
   10.6623  -19.5287   26.4688 O   0  0  0  0  0  0  0  0  0  0  0  0
  2  1  1  6
  2  3  1  0
  4  3  1  0
  5  4  2  0
  6  7  1  0
  6  5  1  0
  7  8  2  0
  8  4  1  0
  9 19  1  0
  9  2  1  0
 10  9  2  0
 11 12  1  0
 12 14  1  0
 13 12  2  0
 14 15  1  0
 16 15  1  0
 18 17  1  6
 17 16  1  0
 18 19  1  0
 20 18  1  0
 21 20  2  0
 23 22  1  6
 23 25  1  0
 23 24  1  0
 24 20  1  0
 25 27  1  0
 26 25  2  0
M  END
$$$$
