MTL.pdb
     RDKit          3D

 24 23  0  0  1  0  0  0  0  0999 V2000
   17.6469  -15.1821  -15.9843 C   0  0  0  0  0  0  0  0  0  0  0  0
   17.3785  -15.9840  -17.5879 S   0  0  0  0  0  0  0  0  0  0  0  0
   18.4635  -15.2729  -18.8561 C   0  0  0  0  0  0  0  0  0  0  0  0
   19.4981  -14.3528  -18.2431 C   0  0  0  0  0  0  0  0  0  0  0  0
   20.3969  -13.8418  -19.3477 C   0  0  2  0  0  0  0  0  0  0  0  0
   21.1817  -14.9385  -19.8674 N   0  0  0  0  0  0  0  0  0  0  0  0
   21.2505  -12.7178  -18.8848 C   0  0  0  0  0  0  0  0  0  0  0  0
   22.3968  -12.9766  -18.4284 O   0  0  0  0  0  0  0  0  0  0  0  0
   22.5834   -9.8509  -20.7335 C   0  0  0  0  0  0  0  0  0  0  0  0
   21.8258   -9.2054  -19.5945 C   0  0  1  0  0  0  0  0  0  0  0  0
   20.5381   -8.8347  -19.9877 O   0  0  0  0  0  0  0  0  0  0  0  0
   21.7188  -10.2673  -18.4891 C   0  0  2  0  0  0  0  0  0  0  0  0
   20.8569  -11.3513  -18.9226 N   0  0  0  0  0  0  0  0  0  0  0  0
   21.2013   -9.5854  -17.2909 C   0  0  0  0  0  0  0  0  0  0  0  0
   19.9707   -9.6046  -17.0287 O   0  0  0  0  0  0  0  0  0  0  0  0
   20.6410  -10.1726  -12.7159 C   0  0  0  0  0  0  0  0  0  0  0  0
   22.0214   -9.9266  -13.2828 C   0  0  2  0  0  0  0  0  0  0  0  0
   23.0404  -10.3013  -12.2540 C   0  0  0  0  0  0  0  0  0  0  0  0
   22.2053   -8.6005  -13.9107 C   0  0  0  0  0  0  0  0  0  0  0  0
   21.5036   -8.2919  -15.1640 C   0  0  2  0  0  0  0  0  0  0  0  0
   22.0116   -8.8748  -16.3623 N   0  0  0  0  0  0  0  0  0  0  0  0
   21.3231   -6.8292  -15.2972 C   0  0  0  0  0  0  0  0  0  0  0  0
   20.5375   -6.1174  -14.4052 O   0  0  0  0  0  0  0  0  0  0  0  0
   21.8730   -6.1790  -16.2217 O   0  0  0  0  0  0  0  0  0  0  0  0
  1  2  1  0
  2  3  1  0
  4  3  1  0
  5  7  1  0
  5  4  1  0
  5  6  1  1
  7  8  2  0
 10  9  1  6
 10 12  1  0
 11 10  1  0
 12 13  1  6
 13  7  1  0
 14 12  1  0
 15 14  2  0
 17 16  1  1
 17 19  1  0
 18 17  1  0
 20 19  1  1
 20 21  1  0
 20 22  1  0
 21 14  1  0
 22 23  1  0
 24 22  2  0
M  END
$$$$
