MTL.pdb
     RDKit          3D

 24 23  0  0  1  0  0  0  0  0999 V2000
   18.9824  -22.3354  -12.3792 C   0  0  0  0  0  0  0  0  0  0  0  0
   19.1205  -20.5295  -12.4585 S   0  0  0  0  0  0  0  0  0  0  0  0
   20.7807  -20.0308  -12.9933 C   0  0  0  0  0  0  0  0  0  0  0  0
   21.7832  -21.1475  -12.7916 C   0  0  0  0  0  0  0  0  0  0  0  0
   23.1569  -20.6273  -13.1541 C   0  0  2  0  0  0  0  0  0  0  0  0
   23.4047  -20.8764  -14.5559 N   0  0  0  0  0  0  0  0  0  0  0  0
   24.2121  -21.2155  -12.2899 C   0  0  0  0  0  0  0  0  0  0  0  0
   24.8048  -22.2568  -12.6823 O   0  0  0  0  0  0  0  0  0  0  0  0
   26.7726  -21.8376  -12.4072 C   0  0  0  0  0  0  0  0  0  0  0  0
   27.0251  -21.0222  -11.1584 C   0  0  1  0  0  0  0  0  0  0  0  0
   27.2260  -19.6746  -11.4647 O   0  0  0  0  0  0  0  0  0  0  0  0
   25.7605  -21.1500  -10.2951 C   0  0  2  0  0  0  0  0  0  0  0  0
   24.6045  -20.6762  -11.0334 N   0  0  0  0  0  0  0  0  0  0  0  0
   26.0000  -20.3702   -9.0692 C   0  0  0  0  0  0  0  0  0  0  0  0
   25.2332  -19.4225   -8.7571 O   0  0  0  0  0  0  0  0  0  0  0  0
   27.3897  -20.6131   -4.0288 C   0  0  0  0  0  0  0  0  0  0  0  0
   28.3672  -21.0577   -5.0938 C   0  0  2  0  0  0  0  0  0  0  0  0
   29.6374  -21.4911   -4.4336 C   0  0  0  0  0  0  0  0  0  0  0  0
   28.5232  -20.1155   -6.2228 C   0  0  0  0  0  0  0  0  0  0  0  0
   27.3542  -19.7742   -7.0446 C   0  0  2  0  0  0  0  0  0  0  0  0
   27.0735  -20.6085   -8.1666 N   0  0  0  0  0  0  0  0  0  0  0  0
   27.3989  -18.3435   -7.4203 C   0  0  0  0  0  0  0  0  0  0  0  0
   27.8676  -17.9399   -8.6600 O   0  0  0  0  0  0  0  0  0  0  0  0
   27.0156  -17.4430   -6.6317 O   0  0  0  0  0  0  0  0  0  0  0  0
  1  2  1  0
  2  3  1  0
  4  3  1  0
  5  7  1  0
  5  4  1  0
  5  6  1  6
  7  8  2  0
 10  9  1  6
 10 12  1  0
 11 10  1  0
 12 13  1  6
 13  7  1  0
 14 12  1  0
 15 14  2  0
 17 16  1  1
 17 19  1  0
 18 17  1  0
 20 19  1  6
 20 21  1  0
 20 22  1  0
 21 14  1  0
 22 23  1  0
 24 22  2  0
M  END
$$$$
