MTL.pdb
     RDKit          3D

 24 23  0  0  1  0  0  0  0  0999 V2000
   26.6832  -18.7840   -6.6409 C   0  0  0  0  0  0  0  0  0  0  0  0
   27.5474  -20.3648   -6.4380 S   0  0  0  0  0  0  0  0  0  0  0  0
   27.4557  -21.3515   -7.9575 C   0  0  0  0  0  0  0  0  0  0  0  0
   26.8310  -20.5632   -9.0894 C   0  0  0  0  0  0  0  0  0  0  0  0
   26.7577  -21.4555  -10.3091 C   0  0  2  0  0  0  0  0  0  0  0  0
   28.0873  -21.9118  -10.6448 N   0  0  0  0  0  0  0  0  0  0  0  0
   26.1002  -20.7705  -11.4514 C   0  0  0  0  0  0  0  0  0  0  0  0
   26.8180  -20.1358  -12.2708 O   0  0  0  0  0  0  0  0  0  0  0  0
   26.0454  -21.1153  -14.1411 C   0  0  0  0  0  0  0  0  0  0  0  0
   24.5349  -21.1827  -14.0967 C   0  0  1  0  0  0  0  0  0  0  0  0
   24.0919  -22.4877  -13.8714 O   0  0  0  0  0  0  0  0  0  0  0  0
   24.0969  -20.3012  -12.9168 C   0  0  2  0  0  0  0  0  0  0  0  0
   24.6973  -20.7827  -11.6866 N   0  0  0  0  0  0  0  0  0  0  0  0
   22.6256  -20.3433  -12.8757 C   0  0  0  0  0  0  0  0  0  0  0  0
   22.0318  -20.9846  -11.9703 O   0  0  0  0  0  0  0  0  0  0  0  0
   19.4712  -16.9643  -12.2534 C   0  0  0  0  0  0  0  0  0  0  0  0
   19.8942  -17.1050  -13.6986 C   0  0  2  0  0  0  0  0  0  0  0  0
   19.3171  -15.9704  -14.4840 C   0  0  0  0  0  0  0  0  0  0  0  0
   19.6885  -18.4510  -14.2754 C   0  0  0  0  0  0  0  0  0  0  0  0
   20.3640  -19.6066  -13.6697 C   0  0  2  0  0  0  0  0  0  0  0  0
   21.7801  -19.6907  -13.8154 N   0  0  0  0  0  0  0  0  0  0  0  0
   19.6930  -20.8594  -14.0820 C   0  0  0  0  0  0  0  0  0  0  0  0
   18.4403  -21.1977  -13.5964 O   0  0  0  0  0  0  0  0  0  0  0  0
   20.2322  -21.6621  -14.8849 O   0  0  0  0  0  0  0  0  0  0  0  0
  1  2  1  0
  2  3  1  0
  4  3  1  0
  5  7  1  0
  5  4  1  0
  5  6  1  6
  7  8  2  0
 10  9  1  1
 10 12  1  0
 11 10  1  0
 12 13  1  1
 13  7  1  0
 14 12  1  0
 15 14  2  0
 17 16  1  1
 17 19  1  0
 18 17  1  0
 20 19  1  6
 20 21  1  0
 20 22  1  0
 21 14  1  0
 22 23  1  0
 24 22  2  0
M  END
$$$$
