MTL.pdb
     RDKit          3D

 24 23  0  0  1  0  0  0  0  0999 V2000
   19.0398  -19.2107  -15.6130 C   0  0  0  0  0  0  0  0  0  0  0  0
   19.1762  -20.3452  -17.0204 S   0  0  0  0  0  0  0  0  0  0  0  0
   20.9028  -20.5121  -17.5514 C   0  0  0  0  0  0  0  0  0  0  0  0
   21.6604  -19.2124  -17.3787 C   0  0  0  0  0  0  0  0  0  0  0  0
   23.0863  -19.4264  -17.8371 C   0  0  2  0  0  0  0  0  0  0  0  0
   23.6781  -20.4957  -17.0657 N   0  0  0  0  0  0  0  0  0  0  0  0
   23.8827  -18.1752  -17.7551 C   0  0  0  0  0  0  0  0  0  0  0  0
   24.9156  -18.1617  -17.0324 O   0  0  0  0  0  0  0  0  0  0  0  0
   26.3356  -17.2978  -18.3460 C   0  0  0  0  0  0  0  0  0  0  0  0
   25.7538  -16.1299  -19.1113 C   0  0  1  0  0  0  0  0  0  0  0  0
   25.5237  -16.4635  -20.4477 O   0  0  0  0  0  0  0  0  0  0  0  0
   24.4086  -15.8027  -18.4446 C   0  0  2  0  0  0  0  0  0  0  0  0
   23.5545  -16.9758  -18.4461 N   0  0  0  0  0  0  0  0  0  0  0  0
   23.8212  -14.6814  -19.1968 C   0  0  0  0  0  0  0  0  0  0  0  0
   22.8256  -14.8675  -19.9436 O   0  0  0  0  0  0  0  0  0  0  0  0
   21.6806   -9.5338  -19.5814 C   0  0  0  0  0  0  0  0  0  0  0  0
   21.6069  -10.8745  -20.2772 C   0  0  2  0  0  0  0  0  0  0  0  0
   20.1887  -11.1355  -20.6749 C   0  0  0  0  0  0  0  0  0  0  0  0
   22.2842  -11.9795  -19.5653 C   0  0  0  0  0  0  0  0  0  0  0  0
   23.6967  -12.2642  -19.8523 C   0  0  2  0  0  0  0  0  0  0  0  0
   24.3055  -13.3446  -19.1482 N   0  0  0  0  0  0  0  0  0  0  0  0
   24.4949  -11.0222  -19.7511 C   0  0  0  0  0  0  0  0  0  0  0  0
   24.3402   -9.9915  -20.6640 O   0  0  0  0  0  0  0  0  0  0  0  0
   25.3414  -10.8557  -18.8371 O   0  0  0  0  0  0  0  0  0  0  0  0
  1  2  1  0
  2  3  1  0
  4  3  1  0
  5  7  1  0
  5  4  1  0
  5  6  1  1
  7  8  2  0
 10  9  1  1
 10 12  1  0
 11 10  1  0
 12 13  1  6
 13  7  1  0
 14 12  1  0
 15 14  2  0
 17 16  1  1
 17 19  1  0
 18 17  1  0
 20 19  1  1
 20 21  1  0
 20 22  1  0
 21 14  1  0
 22 23  1  0
 24 22  2  0
M  END
$$$$
