MTL.pdb
     RDKit          3D

 24 23  0  0  1  0  0  0  0  0999 V2000
   21.0511  -24.0071  -12.5157 C   0  0  0  0  0  0  0  0  0  0  0  0
   20.6996  -23.3908  -14.1840 S   0  0  0  0  0  0  0  0  0  0  0  0
   22.0795  -23.7433  -15.3076 C   0  0  0  0  0  0  0  0  0  0  0  0
   23.4052  -23.7203  -14.5763 C   0  0  0  0  0  0  0  0  0  0  0  0
   24.0224  -22.3498  -14.7496 C   0  0  2  0  0  0  0  0  0  0  0  0
   24.2882  -22.1222  -16.1518 N   0  0  0  0  0  0  0  0  0  0  0  0
   25.2433  -22.1889  -13.9191 C   0  0  0  0  0  0  0  0  0  0  0  0
   26.3067  -22.7554  -14.2903 O   0  0  0  0  0  0  0  0  0  0  0  0
   27.4459  -19.7793  -13.7997 C   0  0  0  0  0  0  0  0  0  0  0  0
   27.0336  -19.7459  -12.3447 C   0  0  1  0  0  0  0  0  0  0  0  0
   25.9969  -18.8348  -12.1322 O   0  0  0  0  0  0  0  0  0  0  0  0
   26.5293  -21.1571  -12.0053 C   0  0  2  0  0  0  0  0  0  0  0  0
   25.2946  -21.4286  -12.7178 N   0  0  0  0  0  0  0  0  0  0  0  0
   26.3553  -21.2081  -10.5440 C   0  0  0  0  0  0  0  0  0  0  0  0
   25.2616  -21.5809  -10.0454 O   0  0  0  0  0  0  0  0  0  0  0  0
   28.4713  -18.7929   -5.3295 C   0  0  0  0  0  0  0  0  0  0  0  0
   28.0086  -20.1122   -5.9061 C   0  0  2  0  0  0  0  0  0  0  0  0
   28.5415  -21.2237   -5.0588 C   0  0  0  0  0  0  0  0  0  0  0  0
   28.2217  -20.2601   -7.3619 C   0  0  0  0  0  0  0  0  0  0  0  0
   27.1421  -20.8024   -8.1979 C   0  0  2  0  0  0  0  0  0  0  0  0
   27.3647  -20.8561   -9.6055 N   0  0  0  0  0  0  0  0  0  0  0  0
   25.8624  -20.1366   -7.8681 C   0  0  0  0  0  0  0  0  0  0  0  0
   24.9028  -20.7668   -7.0926 O   0  0  0  0  0  0  0  0  0  0  0  0
   25.5976  -18.9783   -8.2781 O   0  0  0  0  0  0  0  0  0  0  0  0
  1  2  1  0
  2  3  1  0
  4  3  1  0
  5  7  1  0
  5  4  1  0
  5  6  1  6
  7  8  2  0
 10  9  1  6
 10 12  1  0
 11 10  1  0
 12 13  1  6
 13  7  1  0
 14 12  1  0
 15 14  2  0
 17 16  1  1
 17 19  1  0
 18 17  1  0
 20 19  1  1
 20 21  1  0
 20 22  1  0
 21 14  1  0
 22 23  1  0
 24 22  2  0
M  END
$$$$
