MTL.pdb
     RDKit          3D

 24 23  0  0  1  0  0  0  0  0999 V2000
   27.7200  -18.1861   -5.6813 C   0  0  0  0  0  0  0  0  0  0  0  0
   28.2828  -19.8789   -5.3582 S   0  0  0  0  0  0  0  0  0  0  0  0
   28.0352  -20.9316   -6.8148 C   0  0  0  0  0  0  0  0  0  0  0  0
   27.2697  -20.2018   -7.8983 C   0  0  0  0  0  0  0  0  0  0  0  0
   27.1793  -21.1041   -9.1095 C   0  0  2  0  0  0  0  0  0  0  0  0
   28.5094  -21.5195   -9.4929 N   0  0  0  0  0  0  0  0  0  0  0  0
   26.4571  -20.4483  -10.2297 C   0  0  0  0  0  0  0  0  0  0  0  0
   26.8692  -19.3310  -10.6436 O   0  0  0  0  0  0  0  0  0  0  0  0
   27.2496  -20.2482  -12.6485 C   0  0  0  0  0  0  0  0  0  0  0  0
   25.9854  -20.8452  -13.2258 C   0  0  1  0  0  0  0  0  0  0  0  0
   26.1150  -22.2228  -13.4139 O   0  0  0  0  0  0  0  0  0  0  0  0
   24.8756  -20.5892  -12.1943 C   0  0  2  0  0  0  0  0  0  0  0  0
   25.3175  -21.0031  -10.8755 N   0  0  0  0  0  0  0  0  0  0  0  0
   23.6907  -21.3364  -12.6479 C   0  0  0  0  0  0  0  0  0  0  0  0
   23.3090  -22.3628  -12.0278 O   0  0  0  0  0  0  0  0  0  0  0  0
   19.1570  -18.2768  -11.9700 C   0  0  0  0  0  0  0  0  0  0  0  0
   19.5461  -19.6212  -12.5431 C   0  0  2  0  0  0  0  0  0  0  0  0
   18.8064  -20.6929  -11.8072 C   0  0  0  0  0  0  0  0  0  0  0  0
   21.0023  -19.8342  -12.6879 C   0  0  0  0  0  0  0  0  0  0  0  0
   21.4975  -20.7581  -13.7173 C   0  0  2  0  0  0  0  0  0  0  0  0
   22.9049  -20.9800  -13.7790 N   0  0  0  0  0  0  0  0  0  0  0  0
   20.9398  -20.3916  -15.0381 C   0  0  0  0  0  0  0  0  0  0  0  0
   21.4241  -19.3039  -15.7465 O   0  0  0  0  0  0  0  0  0  0  0  0
   20.0083  -21.0503  -15.5657 O   0  0  0  0  0  0  0  0  0  0  0  0
  1  2  1  0
  2  3  1  0
  4  3  1  0
  5  7  1  0
  5  4  1  0
  5  6  1  6
  7  8  2  0
 10  9  1  1
 10 12  1  0
 11 10  1  0
 12 13  1  1
 13  7  1  0
 14 12  1  0
 15 14  2  0
 17 16  1  1
 17 19  1  0
 18 17  1  0
 20 19  1  1
 20 21  1  0
 20 22  1  0
 21 14  1  0
 22 23  1  0
 24 22  2  0
M  END
$$$$
