MTL.pdb
     RDKit          3D

 24 23  0  0  1  0  0  0  0  0999 V2000
   18.8222  -14.6412  -24.4623 C   0  0  0  0  0  0  0  0  0  0  0  0
   20.3683  -14.3514  -23.5610 S   0  0  0  0  0  0  0  0  0  0  0  0
   20.0349  -13.7683  -21.8759 C   0  0  0  0  0  0  0  0  0  0  0  0
   21.3152  -13.3961  -21.1582 C   0  0  0  0  0  0  0  0  0  0  0  0
   20.9596  -12.8996  -19.7739 C   0  0  2  0  0  0  0  0  0  0  0  0
   19.5610  -13.1606  -19.5202 N   0  0  0  0  0  0  0  0  0  0  0  0
   21.2971  -11.4633  -19.6026 C   0  0  0  0  0  0  0  0  0  0  0  0
   22.4896  -11.0962  -19.7830 O   0  0  0  0  0  0  0  0  0  0  0  0
   18.4270   -8.4500  -19.5581 C   0  0  0  0  0  0  0  0  0  0  0  0
   19.8721   -8.1480  -19.8878 C   0  0  1  0  0  0  0  0  0  0  0  0
   20.1950   -6.8234  -19.5856 O   0  0  0  0  0  0  0  0  0  0  0  0
   20.7205   -9.0773  -19.0061 C   0  0  2  0  0  0  0  0  0  0  0  0
   20.3534  -10.4609  -19.2445 N   0  0  0  0  0  0  0  0  0  0  0  0
   20.4897   -8.6693  -17.6102 C   0  0  0  0  0  0  0  0  0  0  0  0
   19.4169   -8.9733  -17.0269 O   0  0  0  0  0  0  0  0  0  0  0  0
   20.7216   -9.8886  -13.2715 C   0  0  0  0  0  0  0  0  0  0  0  0
   21.9837   -9.6253  -14.0621 C   0  0  2  0  0  0  0  0  0  0  0  0
   23.1426  -10.2364  -13.3405 C   0  0  0  0  0  0  0  0  0  0  0  0
   22.1652   -8.2211  -14.4887 C   0  0  0  0  0  0  0  0  0  0  0  0
   21.2225   -7.6309  -15.4486 C   0  0  2  0  0  0  0  0  0  0  0  0
   21.4191   -7.9272  -16.8296 N   0  0  0  0  0  0  0  0  0  0  0  0
   21.1006   -6.1756  -15.2100 C   0  0  0  0  0  0  0  0  0  0  0  0
   21.3473   -5.2583  -16.2186 O   0  0  0  0  0  0  0  0  0  0  0  0
   20.7706   -5.7174  -14.0871 O   0  0  0  0  0  0  0  0  0  0  0  0
  1  2  1  0
  2  3  1  0
  4  3  1  0
  5  7  1  0
  5  4  1  0
  5  6  1  6
  7  8  2  0
 10  9  1  1
 10 12  1  0
 11 10  1  0
 12 13  1  1
 13  7  1  0
 14 12  1  0
 15 14  2  0
 17 16  1  1
 17 19  1  0
 18 17  1  0
 20 19  1  1
 20 21  1  0
 20 22  1  0
 21 14  1  0
 22 23  1  0
 24 22  2  0
M  END
$$$$
