MTL.pdb
     RDKit          3D

 24 23  0  0  1  0  0  0  0  0999 V2000
   19.8911  -16.6751  -12.9647 C   0  0  0  0  0  0  0  0  0  0  0  0
   18.4663  -17.0089  -14.0348 S   0  0  0  0  0  0  0  0  0  0  0  0
   18.5861  -18.6610  -14.7744 C   0  0  0  0  0  0  0  0  0  0  0  0
   19.3251  -19.6197  -13.8647 C   0  0  0  0  0  0  0  0  0  0  0  0
   19.4850  -20.9382  -14.5894 C   0  0  2  0  0  0  0  0  0  0  0  0
   18.2371  -21.6651  -14.5344 N   0  0  0  0  0  0  0  0  0  0  0  0
   20.6150  -21.7317  -14.0419 C   0  0  0  0  0  0  0  0  0  0  0  0
   20.4105  -22.4595  -13.0330 O   0  0  0  0  0  0  0  0  0  0  0  0
   22.8231  -24.5128  -15.1320 C   0  0  0  0  0  0  0  0  0  0  0  0
   23.7453  -23.3276  -14.9503 C   0  0  1  0  0  0  0  0  0  0  0  0
   23.9337  -22.6427  -16.1526 O   0  0  0  0  0  0  0  0  0  0  0  0
   23.0522  -22.3894  -13.9500 C   0  0  2  0  0  0  0  0  0  0  0  0
   21.9293  -21.7261  -14.5863 N   0  0  0  0  0  0  0  0  0  0  0  0
   24.0725  -21.4370  -13.4808 C   0  0  0  0  0  0  0  0  0  0  0  0
   24.0835  -20.2534  -13.9082 O   0  0  0  0  0  0  0  0  0  0  0  0
   24.9344  -19.6434   -9.5666 C   0  0  0  0  0  0  0  0  0  0  0  0
   25.7728  -20.9003   -9.6345 C   0  0  2  0  0  0  0  0  0  0  0  0
   26.4191  -21.1228   -8.3040 C   0  0  0  0  0  0  0  0  0  0  0  0
   26.6742  -20.9806  -10.8039 C   0  0  0  0  0  0  0  0  0  0  0  0
   26.1163  -20.8408  -12.1559 C   0  0  2  0  0  0  0  0  0  0  0  0
   25.0931  -21.7559  -12.5424 N   0  0  0  0  0  0  0  0  0  0  0  0
   27.2093  -20.7847  -13.1520 C   0  0  0  0  0  0  0  0  0  0  0  0
   28.1252  -19.7452  -13.1568 O   0  0  0  0  0  0  0  0  0  0  0  0
   27.3476  -21.6742  -14.0291 O   0  0  0  0  0  0  0  0  0  0  0  0
  1  2  1  0
  2  3  1  0
  4  3  1  0
  5  7  1  0
  5  4  1  0
  5  6  1  1
  7  8  2  0
 10  9  1  6
 10 12  1  0
 11 10  1  0
 12 13  1  6
 13  7  1  0
 14 12  1  0
 15 14  2  0
 17 16  1  1
 17 19  1  0
 18 17  1  0
 20 19  1  1
 20 21  1  0
 20 22  1  0
 21 14  1  0
 22 23  1  0
 24 22  2  0
M  END
$$$$
