MTL.pdb
     RDKit          3D

 24 23  0  0  1  0  0  0  0  0999 V2000
   16.1568  -21.8587  -11.6516 C   0  0  0  0  0  0  0  0  0  0  0  0
   15.9075  -20.8601  -13.1440 S   0  0  0  0  0  0  0  0  0  0  0  0
   17.4392  -20.7469  -14.1096 C   0  0  0  0  0  0  0  0  0  0  0  0
   18.5234  -21.6297  -13.5283 C   0  0  0  0  0  0  0  0  0  0  0  0
   19.8106  -21.3602  -14.2764 C   0  0  2  0  0  0  0  0  0  0  0  0
   19.6541  -21.7683  -15.6539 N   0  0  0  0  0  0  0  0  0  0  0  0
   20.9710  -22.0238  -13.6285 C   0  0  0  0  0  0  0  0  0  0  0  0
   20.7956  -23.1410  -13.0713 O   0  0  0  0  0  0  0  0  0  0  0  0
   23.1014  -24.0993  -14.7157 C   0  0  0  0  0  0  0  0  0  0  0  0
   24.0548  -22.9741  -14.3794 C   0  0  1  0  0  0  0  0  0  0  0  0
   24.1748  -22.0765  -15.4424 O   0  0  0  0  0  0  0  0  0  0  0  0
   23.4470  -22.2371  -13.1759 C   0  0  2  0  0  0  0  0  0  0  0  0
   22.2838  -21.4769  -13.5941 N   0  0  0  0  0  0  0  0  0  0  0  0
   24.5072  -21.3786  -12.6214 C   0  0  0  0  0  0  0  0  0  0  0  0
   24.3914  -20.1259  -12.6481 O   0  0  0  0  0  0  0  0  0  0  0  0
   29.9300  -20.6785  -12.1694 C   0  0  0  0  0  0  0  0  0  0  0  0
   29.2123  -20.8955  -10.8559 C   0  0  2  0  0  0  0  0  0  0  0  0
   30.1809  -21.4541   -9.8623 C   0  0  0  0  0  0  0  0  0  0  0  0
   27.9243  -21.6136  -10.9656 C   0  0  0  0  0  0  0  0  0  0  0  0
   26.8576  -21.0573  -11.8089 C   0  0  2  0  0  0  0  0  0  0  0  0
   25.7055  -21.8678  -12.0310 N   0  0  0  0  0  0  0  0  0  0  0  0
   27.4265  -20.5503  -13.0774 C   0  0  0  0  0  0  0  0  0  0  0  0
   27.7461  -19.2118  -13.2380 O   0  0  0  0  0  0  0  0  0  0  0  0
   27.6402  -21.3116  -14.0544 O   0  0  0  0  0  0  0  0  0  0  0  0
  1  2  1  0
  2  3  1  0
  4  3  1  0
  5  7  1  0
  5  4  1  0
  5  6  1  6
  7  8  2  0
 10  9  1  6
 10 12  1  0
 11 10  1  0
 12 13  1  6
 13  7  1  0
 14 12  1  0
 15 14  2  0
 17 16  1  6
 17 19  1  0
 18 17  1  0
 20 19  1  6
 20 21  1  0
 20 22  1  0
 21 14  1  0
 22 23  1  0
 24 22  2  0
M  END
$$$$
