MTL.pdb
     RDKit          3D

 24 23  0  0  1  0  0  0  0  0999 V2000
   14.8033  -16.6786  -14.8581 C   0  0  0  0  0  0  0  0  0  0  0  0
   15.8622  -16.8090  -16.3239 S   0  0  0  0  0  0  0  0  0  0  0  0
   16.0243  -15.2017  -17.1494 C   0  0  0  0  0  0  0  0  0  0  0  0
   15.9839  -14.0634  -16.1516 C   0  0  0  0  0  0  0  0  0  0  0  0
   16.2928  -12.7757  -16.8836 C   0  0  2  0  0  0  0  0  0  0  0  0
   17.6256  -12.8517  -17.4372 N   0  0  0  0  0  0  0  0  0  0  0  0
   16.1228  -11.5905  -16.0045 C   0  0  0  0  0  0  0  0  0  0  0  0
   15.0930  -11.5164  -15.2811 O   0  0  0  0  0  0  0  0  0  0  0  0
   18.2214  -10.7482  -13.2375 C   0  0  0  0  0  0  0  0  0  0  0  0
   18.2582   -9.4795  -14.0604 C   0  0  1  0  0  0  0  0  0  0  0  0
   19.3658   -9.4584  -14.9106 O   0  0  0  0  0  0  0  0  0  0  0  0
   16.9800   -9.4797  -14.9133 C   0  0  2  0  0  0  0  0  0  0  0  0
   17.0558  -10.5198  -15.9224 N   0  0  0  0  0  0  0  0  0  0  0  0
   16.8598   -8.1356  -15.5024 C   0  0  0  0  0  0  0  0  0  0  0  0
   17.2294   -7.9237  -16.6865 O   0  0  0  0  0  0  0  0  0  0  0  0
   13.5476   -5.2057  -16.7822 C   0  0  0  0  0  0  0  0  0  0  0  0
   13.8327   -5.1391  -15.2984 C   0  0  2  0  0  0  0  0  0  0  0  0
   12.7799   -4.3044  -14.6409 C   0  0  0  0  0  0  0  0  0  0  0  0
   15.2287   -4.7968  -14.9511 C   0  0  0  0  0  0  0  0  0  0  0  0
   16.3165   -5.6911  -15.3696 C   0  0  2  0  0  0  0  0  0  0  0  0
   16.3372   -7.0049  -14.8152 N   0  0  0  0  0  0  0  0  0  0  0  0
   17.6208   -5.0089  -15.2172 C   0  0  0  0  0  0  0  0  0  0  0  0
   17.9294   -3.8750  -15.9511 O   0  0  0  0  0  0  0  0  0  0  0  0
   18.4957   -5.4309  -14.4196 O   0  0  0  0  0  0  0  0  0  0  0  0
  1  2  1  0
  2  3  1  0
  4  3  1  0
  5  7  1  0
  5  4  1  0
  5  6  1  1
  7  8  2  0
 10  9  1  6
 10 12  1  0
 11 10  1  0
 12 13  1  6
 13  7  1  0
 14 12  1  0
 15 14  2  0
 17 16  1  6
 17 19  1  0
 18 17  1  0
 20 19  1  1
 20 21  1  0
 20 22  1  0
 21 14  1  0
 22 23  1  0
 24 22  2  0
M  END
$$$$
