GPR.pdb
     RDKit          3D

 23 23  0  0  1  0  0  0  0  0999 V2000
   23.0636  -22.2037   -5.6403 N   0  0  0  0  0  0  0  0  0  0  0  0
   24.4049  -21.6405   -5.4263 C   0  0  0  0  0  0  0  0  0  0  0  0
   24.8086  -20.8863   -6.6292 C   0  0  0  0  0  0  0  0  0  0  0  0
   23.9679  -20.5763   -7.5092 O   0  0  0  0  0  0  0  0  0  0  0  0
   26.1582  -20.5063   -6.7969 N   0  0  0  0  0  0  0  0  0  0  0  0
   27.2818  -20.7975   -5.8960 C   0  0  0  0  0  0  0  0  0  0  0  0
   28.1153  -19.5399   -6.0038 C   0  0  0  0  0  0  0  0  0  0  0  0
   27.9998  -19.1711   -7.4432 C   0  0  0  0  0  0  0  0  0  0  0  0
   26.6924  -19.7560   -7.8858 C   0  0  1  0  0  0  0  0  0  0  0  0
   26.9670  -20.5889   -9.0833 C   0  0  0  0  0  0  0  0  0  0  0  0
   27.5313  -21.6954   -9.0135 O   0  0  0  0  0  0  0  0  0  0  0  0
   21.5184  -21.9691  -14.3941 N   0  0  0  0  0  0  0  0  0  0  0  0
   21.6627  -20.7018  -13.7810 C   0  0  0  0  0  0  0  0  0  0  0  0
   20.6177  -20.0657  -13.3325 N   0  0  0  0  0  0  0  0  0  0  0  0
   22.9190  -20.0577  -13.6162 N   0  0  0  0  0  0  0  0  0  0  0  0
   24.0158  -20.4208  -14.4911 C   0  0  0  0  0  0  0  0  0  0  0  0
   25.0790  -21.0778  -13.6365 C   0  0  0  0  0  0  0  0  0  0  0  0
   25.2994  -20.3473  -12.3418 C   0  0  0  0  0  0  0  0  0  0  0  0
   26.4335  -20.9141  -11.5198 C   0  0  2  0  0  0  0  0  0  0  0  0
   26.5567  -20.0718  -10.3386 N   0  0  0  0  0  0  0  0  0  0  0  0
   27.7178  -20.8899  -12.2312 C   0  0  0  0  0  0  0  0  0  0  0  0
   28.4879  -19.9158  -12.1462 O   0  0  0  0  0  0  0  0  0  0  0  0
   28.0825  -21.9659  -13.0103 O   0  0  0  0  0  0  0  0  0  0  0  0
  2  1  1  0
  3  2  1  0
  4  3  2  0
  5  9  1  0
  5  3  1  0
  6  5  1  0
  7  6  1  0
  7  8  1  0
  8  9  1  0
  9 10  1  6
 10 11  2  0
 10 20  1  0
 13 12  1  0
 13 14  2  0
 15 13  1  0
 16 15  1  0
 16 17  1  0
 18 17  1  0
 19 18  1  6
 20 19  1  0
 21 19  1  0
 21 23  1  0
 22 21  2  0
M  END
$$$$
