GPR.pdb
     RDKit          3D

 23 23  0  0  1  0  0  0  0  0999 V2000
   25.6606  -23.3221  -14.8756 N   0  0  0  0  0  0  0  0  0  0  0  0
   24.6231  -22.3629  -15.2822 C   0  0  0  0  0  0  0  0  0  0  0  0
   23.7479  -22.0810  -14.1275 C   0  0  0  0  0  0  0  0  0  0  0  0
   23.9404  -22.6406  -13.0197 O   0  0  0  0  0  0  0  0  0  0  0  0
   22.6779  -21.1701  -14.2662 N   0  0  0  0  0  0  0  0  0  0  0  0
   22.2877  -20.4353  -15.4772 C   0  0  0  0  0  0  0  0  0  0  0  0
   21.8304  -19.1077  -14.9151 C   0  0  0  0  0  0  0  0  0  0  0  0
   21.1323  -19.4881  -13.6545 C   0  0  0  0  0  0  0  0  0  0  0  0
   21.7630  -20.7842  -13.2424 C   0  0  1  0  0  0  0  0  0  0  0  0
   20.6652  -21.7641  -13.0475 C   0  0  0  0  0  0  0  0  0  0  0  0
   20.2109  -22.4537  -13.9779 O   0  0  0  0  0  0  0  0  0  0  0  0
   15.9048  -23.9016   -7.6454 N   0  0  0  0  0  0  0  0  0  0  0  0
   16.3787  -25.2119   -7.3973 C   0  0  0  0  0  0  0  0  0  0  0  0
   15.5493  -26.1570   -7.0554 N   0  0  0  0  0  0  0  0  0  0  0  0
   17.7488  -25.5750   -7.5028 N   0  0  0  0  0  0  0  0  0  0  0  0
   18.7122  -24.5736   -7.9142 C   0  0  0  0  0  0  0  0  0  0  0  0
   18.4765  -24.2945   -9.3835 C   0  0  0  0  0  0  0  0  0  0  0  0
   19.4329  -23.2714   -9.9285 C   0  0  0  0  0  0  0  0  0  0  0  0
   19.1914  -22.9405  -11.3829 C   0  0  2  0  0  0  0  0  0  0  0  0
   20.1382  -21.8926  -11.7370 N   0  0  0  0  0  0  0  0  0  0  0  0
   17.8366  -22.4321  -11.6322 C   0  0  0  0  0  0  0  0  0  0  0  0
   16.9058  -23.1952  -11.9494 O   0  0  0  0  0  0  0  0  0  0  0  0
   17.5854  -21.0828  -11.5137 O   0  0  0  0  0  0  0  0  0  0  0  0
  2  1  1  0
  3  2  1  0
  4  3  2  0
  5  9  1  0
  5  3  1  0
  6  5  1  0
  7  6  1  0
  7  8  1  0
  8  9  1  0
  9 10  1  6
 10 11  2  0
 10 20  1  0
 13 12  1  0
 13 14  2  0
 15 13  1  0
 16 15  1  0
 16 17  1  0
 18 17  1  0
 19 18  1  1
 20 19  1  0
 21 19  1  0
 21 23  1  0
 22 21  2  0
M  END
$$$$
