GPR.pdb
     RDKit          3D

 23 23  0  0  1  0  0  0  0  0999 V2000
   21.0844  -32.5435  -10.0055 N   0  0  0  0  0  0  0  0  0  0  0  0
   22.5452  -32.4346   -9.8778 C   0  0  0  0  0  0  0  0  0  0  0  0
   22.9467  -32.8898   -8.5323 C   0  0  0  0  0  0  0  0  0  0  0  0
   22.1072  -33.3877   -7.7420 O   0  0  0  0  0  0  0  0  0  0  0  0
   24.2927  -32.7652   -8.1239 N   0  0  0  0  0  0  0  0  0  0  0  0
   25.4093  -32.2105   -8.9012 C   0  0  0  0  0  0  0  0  0  0  0  0
   26.5655  -33.0879   -8.4752 C   0  0  0  0  0  0  0  0  0  0  0  0
   26.3133  -33.3111   -7.0234 C   0  0  0  0  0  0  0  0  0  0  0  0
   24.8302  -33.1620   -6.8639 C   0  0  1  0  0  0  0  0  0  0  0  0
   24.6024  -32.1574   -5.7951 C   0  0  0  0  0  0  0  0  0  0  0  0
   24.2205  -30.9983   -6.0369 O   0  0  0  0  0  0  0  0  0  0  0  0
   20.6901  -27.4929   -2.3825 N   0  0  0  0  0  0  0  0  0  0  0  0
   20.2657  -28.4823   -1.4638 C   0  0  0  0  0  0  0  0  0  0  0  0
   19.4805  -28.1660   -0.4732 N   0  0  0  0  0  0  0  0  0  0  0  0
   20.6537  -29.8464   -1.5578 N   0  0  0  0  0  0  0  0  0  0  0  0
   21.5296  -30.2559   -2.6373 C   0  0  0  0  0  0  0  0  0  0  0  0
   21.7428  -31.7491   -2.5066 C   0  0  0  0  0  0  0  0  0  0  0  0
   22.6442  -32.2910   -3.5800 C   0  0  0  0  0  0  0  0  0  0  0  0
   24.1075  -32.0059   -3.3336 C   0  0  2  0  0  0  0  0  0  0  0  0
   24.8395  -32.5696   -4.4590 N   0  0  0  0  0  0  0  0  0  0  0  0
   24.6093  -32.6337   -2.1047 C   0  0  0  0  0  0  0  0  0  0  0  0
   24.9072  -31.9550   -1.1048 O   0  0  0  0  0  0  0  0  0  0  0  0
   24.7551  -34.0026   -2.0525 O   0  0  0  0  0  0  0  0  0  0  0  0
  2  1  1  0
  3  2  1  0
  4  3  2  0
  5  9  1  0
  5  3  1  0
  6  5  1  0
  7  6  1  0
  7  8  1  0
  8  9  1  0
  9 10  1  1
 10 11  2  0
 10 20  1  0
 13 12  1  0
 13 14  2  0
 15 13  1  0
 16 15  1  0
 16 17  1  0
 18 17  1  0
 19 18  1  6
 20 19  1  0
 21 19  1  0
 21 23  1  0
 22 21  2  0
M  END
$$$$
