GPR.pdb
     RDKit          3D

 23 23  0  0  1  0  0  0  0  0999 V2000
   27.0779  -22.0635  -10.6545 N   0  0  0  0  0  0  0  0  0  0  0  0
   27.3847  -21.5189  -11.9853 C   0  0  0  0  0  0  0  0  0  0  0  0
   26.2605  -20.6724  -12.4306 C   0  0  0  0  0  0  0  0  0  0  0  0
   25.2356  -20.5329  -11.7182 O   0  0  0  0  0  0  0  0  0  0  0  0
   26.3343  -20.0085  -13.6748 N   0  0  0  0  0  0  0  0  0  0  0  0
   27.4510  -20.0313  -14.6293 C   0  0  0  0  0  0  0  0  0  0  0  0
   27.4311  -18.6235  -15.1820 C   0  0  0  0  0  0  0  0  0  0  0  0
   25.9770  -18.3127  -15.2837 C   0  0  0  0  0  0  0  0  0  0  0  0
   25.3261  -19.1772  -14.2463 C   0  0  1  0  0  0  0  0  0  0  0  0
   24.2562  -19.9492  -14.9266 C   0  0  0  0  0  0  0  0  0  0  0  0
   24.4792  -21.0160  -15.5264 O   0  0  0  0  0  0  0  0  0  0  0  0
   19.1839  -24.1895  -12.6095 N   0  0  0  0  0  0  0  0  0  0  0  0
   19.5536  -23.6434  -11.3574 C   0  0  0  0  0  0  0  0  0  0  0  0
   19.7286  -24.4213  -10.3268 N   0  0  0  0  0  0  0  0  0  0  0  0
   19.7549  -22.2523  -11.1461 N   0  0  0  0  0  0  0  0  0  0  0  0
   19.5577  -21.3370  -12.2523 C   0  0  0  0  0  0  0  0  0  0  0  0
   20.9241  -20.8523  -12.6886 C   0  0  0  0  0  0  0  0  0  0  0  0
   20.8455  -19.8968  -13.8459 C   0  0  0  0  0  0  0  0  0  0  0  0
   21.7616  -20.2649  -14.9898 C   0  0  2  0  0  0  0  0  0  0  0  0
   22.9415  -19.4202  -14.8702 N   0  0  0  0  0  0  0  0  0  0  0  0
   21.1564  -20.0167  -16.3044 C   0  0  0  0  0  0  0  0  0  0  0  0
   21.1355  -18.8769  -16.8040 O   0  0  0  0  0  0  0  0  0  0  0  0
   20.5987  -21.0645  -17.0036 O   0  0  0  0  0  0  0  0  0  0  0  0
  2  1  1  0
  3  2  1  0
  4  3  2  0
  5  9  1  0
  5  3  1  0
  6  5  1  0
  7  6  1  0
  7  8  1  0
  8  9  1  0
  9 10  1  6
 10 11  2  0
 10 20  1  0
 13 12  1  0
 13 14  2  0
 15 13  1  0
 16 15  1  0
 16 17  1  0
 18 17  1  0
 19 18  1  1
 20 19  1  0
 21 19  1  0
 21 23  1  0
 22 21  2  0
M  END
$$$$
