GPR.pdb
     RDKit          3D

 23 23  0  0  1  0  0  0  0  0999 V2000
   22.6443   -6.2930  -17.7241 N   0  0  0  0  0  0  0  0  0  0  0  0
   22.9544   -7.0906  -16.5284 C   0  0  0  0  0  0  0  0  0  0  0  0
   21.6923   -7.5199  -15.8947 C   0  0  0  0  0  0  0  0  0  0  0  0
   20.5821   -7.2289  -16.4047 O   0  0  0  0  0  0  0  0  0  0  0  0
   21.7293   -8.2684  -14.6978 N   0  0  0  0  0  0  0  0  0  0  0  0
   22.9221   -8.7397  -13.9811 C   0  0  0  0  0  0  0  0  0  0  0  0
   22.4707  -10.0833  -13.4531 C   0  0  0  0  0  0  0  0  0  0  0  0
   21.0498   -9.8450  -13.0717 C   0  0  0  0  0  0  0  0  0  0  0  0
   20.6005   -8.7162  -13.9499 C   0  0  1  0  0  0  0  0  0  0  0  0
   20.0400   -7.6662  -13.0630 C   0  0  0  0  0  0  0  0  0  0  0  0
   20.7509   -6.8078  -12.5105 O   0  0  0  0  0  0  0  0  0  0  0  0
   11.4747   -4.4662  -12.9731 N   0  0  0  0  0  0  0  0  0  0  0  0
   12.0297   -4.8890  -11.7418 C   0  0  0  0  0  0  0  0  0  0  0  0
   11.2524   -5.2263  -10.7519 N   0  0  0  0  0  0  0  0  0  0  0  0
   13.4293   -4.9736  -11.5093 N   0  0  0  0  0  0  0  0  0  0  0  0
   14.2884   -5.4755  -12.5631 C   0  0  0  0  0  0  0  0  0  0  0  0
   15.7043   -5.4864  -12.0270 C   0  0  0  0  0  0  0  0  0  0  0  0
   16.5666   -6.5039  -12.7195 C   0  0  0  0  0  0  0  0  0  0  0  0
   17.9546   -6.6118  -12.1323 C   0  0  2  0  0  0  0  0  0  0  0  0
   18.6363   -7.6726  -12.8604 N   0  0  0  0  0  0  0  0  0  0  0  0
   17.9427   -6.9726  -10.7090 C   0  0  0  0  0  0  0  0  0  0  0  0
   17.9894   -8.1606  -10.3407 O   0  0  0  0  0  0  0  0  0  0  0  0
   17.8785   -5.9786   -9.7573 O   0  0  0  0  0  0  0  0  0  0  0  0
  2  1  1  0
  3  2  1  0
  4  3  2  0
  5  9  1  0
  5  3  1  0
  6  5  1  0
  7  6  1  0
  7  8  1  0
  8  9  1  0
  9 10  1  1
 10 11  2  0
 10 20  1  0
 13 12  1  0
 13 14  2  0
 15 13  1  0
 16 15  1  0
 16 17  1  0
 18 17  1  0
 19 18  1  6
 20 19  1  0
 21 19  1  0
 21 23  1  0
 22 21  2  0
M  END
$$$$
