GPR.pdb
     RDKit          3D

 23 23  0  0  1  0  0  0  0  0999 V2000
   27.6480  -27.8668  -16.1121 N   0  0  0  0  0  0  0  0  0  0  0  0
   27.9308  -26.9095  -17.1918 C   0  0  0  0  0  0  0  0  0  0  0  0
   28.1448  -25.5717  -16.6060 C   0  0  0  0  0  0  0  0  0  0  0  0
   28.0687  -25.3903  -15.3656 O   0  0  0  0  0  0  0  0  0  0  0  0
   28.4393  -24.4776  -17.4488 N   0  0  0  0  0  0  0  0  0  0  0  0
   28.6565  -24.5082  -18.9015 C   0  0  0  0  0  0  0  0  0  0  0  0
   29.7309  -23.4602  -19.0887 C   0  0  0  0  0  0  0  0  0  0  0  0
   29.3534  -22.3999  -18.1118 C   0  0  0  0  0  0  0  0  0  0  0  0
   28.5858  -23.1182  -17.0431 C   0  0  1  0  0  0  0  0  0  0  0  0
   27.2868  -22.4168  -16.8888 C   0  0  0  0  0  0  0  0  0  0  0  0
   26.1946  -23.0082  -16.9595 O   0  0  0  0  0  0  0  0  0  0  0  0
   25.9296  -19.9799   -9.1580 N   0  0  0  0  0  0  0  0  0  0  0  0
   24.8660  -20.6120   -9.8451 C   0  0  0  0  0  0  0  0  0  0  0  0
   23.7297  -20.8251   -9.2440 N   0  0  0  0  0  0  0  0  0  0  0  0
   24.9617  -21.0423  -11.1963 N   0  0  0  0  0  0  0  0  0  0  0  0
   26.2157  -20.8705  -11.9022 C   0  0  0  0  0  0  0  0  0  0  0  0
   25.8936  -20.2951  -13.2651 C   0  0  0  0  0  0  0  0  0  0  0  0
   26.7010  -20.9366  -14.3583 C   0  0  0  0  0  0  0  0  0  0  0  0
   26.4198  -20.3612  -15.7269 C   0  0  2  0  0  0  0  0  0  0  0  0
   27.3306  -21.0189  -16.6532 N   0  0  0  0  0  0  0  0  0  0  0  0
   26.6663  -18.9154  -15.7967 C   0  0  0  0  0  0  0  0  0  0  0  0
   25.7305  -18.0955  -15.7602 O   0  0  0  0  0  0  0  0  0  0  0  0
   27.9590  -18.4516  -15.9049 O   0  0  0  0  0  0  0  0  0  0  0  0
  2  1  1  0
  3  2  1  0
  4  3  2  0
  5  9  1  0
  5  3  1  0
  6  5  1  0
  7  6  1  0
  7  8  1  0
  8  9  1  0
  9 10  1  6
 10 11  2  0
 10 20  1  0
 13 12  1  0
 13 14  2  0
 15 13  1  0
 16 15  1  0
 16 17  1  0
 18 17  1  0
 19 18  1  1
 20 19  1  0
 21 19  1  0
 21 23  1  0
 22 21  2  0
M  END
$$$$
