GPR.pdb
     RDKit          3D

 23 23  0  0  1  0  0  0  0  0999 V2000
   25.3143  -16.6640  -16.9519 N   0  0  0  0  0  0  0  0  0  0  0  0
   26.3654  -17.5686  -16.4633 C   0  0  0  0  0  0  0  0  0  0  0  0
   25.7816  -18.4970  -15.4754 C   0  0  0  0  0  0  0  0  0  0  0  0
   24.5603  -18.4482  -15.1867 O   0  0  0  0  0  0  0  0  0  0  0  0
   26.6045  -19.4549  -14.8434 N   0  0  0  0  0  0  0  0  0  0  0  0
   28.0539  -19.6291  -15.0093 C   0  0  0  0  0  0  0  0  0  0  0  0
   28.2096  -21.1312  -14.9241 C   0  0  0  0  0  0  0  0  0  0  0  0
   27.2243  -21.5219  -13.8764 C   0  0  0  0  0  0  0  0  0  0  0  0
   26.1779  -20.4492  -13.9142 C   0  0  1  0  0  0  0  0  0  0  0  0
   26.0347  -19.9267  -12.5323 C   0  0  0  0  0  0  0  0  0  0  0  0
   26.6216  -18.9022  -12.1403 O   0  0  0  0  0  0  0  0  0  0  0  0
   20.1561  -22.3420   -7.2209 N   0  0  0  0  0  0  0  0  0  0  0  0
   20.1021  -22.6827   -8.5935 C   0  0  0  0  0  0  0  0  0  0  0  0
   19.3537  -23.6703   -8.9966 N   0  0  0  0  0  0  0  0  0  0  0  0
   20.8363  -21.9907   -9.5946 N   0  0  0  0  0  0  0  0  0  0  0  0
   22.0230  -21.2518   -9.2124 C   0  0  0  0  0  0  0  0  0  0  0  0
   22.5268  -20.5336  -10.4463 C   0  0  0  0  0  0  0  0  0  0  0  0
   23.6719  -19.6101  -10.1388 C   0  0  0  0  0  0  0  0  0  0  0  0
   25.0244  -20.2737  -10.2550 C   0  0  2  0  0  0  0  0  0  0  0  0
   25.1885  -20.6487  -11.6524 N   0  0  0  0  0  0  0  0  0  0  0  0
   25.1309  -21.4919   -9.4421 C   0  0  0  0  0  0  0  0  0  0  0  0
   25.1626  -22.6205   -9.9661 O   0  0  0  0  0  0  0  0  0  0  0  0
   25.1978  -21.3886   -8.0700 O   0  0  0  0  0  0  0  0  0  0  0  0
  2  1  1  0
  3  2  1  0
  4  3  2  0
  5  9  1  0
  5  3  1  0
  6  5  1  0
  7  6  1  0
  7  8  1  0
  8  9  1  0
  9 10  1  1
 10 11  2  0
 10 20  1  0
 13 12  1  0
 13 14  2  0
 15 13  1  0
 16 15  1  0
 16 17  1  0
 18 17  1  0
 19 18  1  6
 20 19  1  0
 21 19  1  0
 21 23  1  0
 22 21  2  0
M  END
$$$$
