GPR.pdb
     RDKit          3D

 23 23  0  0  1  0  0  0  0  0999 V2000
   28.5454  -19.9711  -16.7817 N   0  0  0  0  0  0  0  0  0  0  0  0
   29.1318  -19.7104  -15.4588 C   0  0  0  0  0  0  0  0  0  0  0  0
   28.3773  -20.4659  -14.4397 C   0  0  0  0  0  0  0  0  0  0  0  0
   27.2756  -21.0013  -14.7172 O   0  0  0  0  0  0  0  0  0  0  0  0
   28.8978  -20.5905  -13.1329 N   0  0  0  0  0  0  0  0  0  0  0  0
   30.2231  -20.1677  -12.6603 C   0  0  0  0  0  0  0  0  0  0  0  0
   30.5686  -21.2490  -11.6607 C   0  0  0  0  0  0  0  0  0  0  0  0
   29.2655  -21.5345  -10.9962 C   0  0  0  0  0  0  0  0  0  0  0  0
   28.2271  -21.1602  -12.0106 C   0  0  1  0  0  0  0  0  0  0  0  0
   27.2923  -20.2132  -11.3528 C   0  0  0  0  0  0  0  0  0  0  0  0
   27.3964  -18.9792  -11.4717 O   0  0  0  0  0  0  0  0  0  0  0  0
   21.7763  -19.4255  -15.9420 N   0  0  0  0  0  0  0  0  0  0  0  0
   20.8603  -19.5649  -14.8722 C   0  0  0  0  0  0  0  0  0  0  0  0
   19.5781  -19.4850  -15.0901 N   0  0  0  0  0  0  0  0  0  0  0  0
   21.2645  -19.7964  -13.5293 N   0  0  0  0  0  0  0  0  0  0  0  0
   22.6738  -19.7328  -13.1979 C   0  0  0  0  0  0  0  0  0  0  0  0
   23.0220  -21.0036  -12.4522 C   0  0  0  0  0  0  0  0  0  0  0  0
   24.4877  -21.0916  -12.1321 C   0  0  0  0  0  0  0  0  0  0  0  0
   24.8500  -20.4644  -10.8061 C   0  0  2  0  0  0  0  0  0  0  0  0
   26.2528  -20.7720  -10.5663 N   0  0  0  0  0  0  0  0  0  0  0  0
   24.0680  -21.0079   -9.6883 C   0  0  0  0  0  0  0  0  0  0  0  0
   22.9715  -20.5161   -9.3644 O   0  0  0  0  0  0  0  0  0  0  0  0
   24.5541  -22.0849   -8.9803 O   0  0  0  0  0  0  0  0  0  0  0  0
  2  1  1  0
  3  2  1  0
  4  3  2  0
  5  9  1  0
  5  3  1  0
  6  5  1  0
  7  6  1  0
  7  8  1  0
  8  9  1  0
  9 10  1  1
 10 11  2  0
 10 20  1  0
 13 12  1  0
 13 14  2  0
 15 13  1  0
 16 15  1  0
 16 17  1  0
 18 17  1  0
 19 18  1  6
 20 19  1  0
 21 19  1  0
 21 23  1  0
 22 21  2  0
M  END
$$$$
