IRT.pdb
     RDKit          3D

 27 26  0  0  1  0  0  0  0  0999 V2000
   19.7444  -11.9644    4.3455 C   0  0  0  0  0  0  0  0  0  0  0  0
   18.6114  -11.5735    5.3165 C   0  0  0  0  0  0  0  0  0  0  0  0
   18.0154  -12.8465    5.7849 C   0  0  2  0  0  0  0  0  0  0  0  0
   19.1519  -13.6599    6.4192 C   0  0  0  0  0  0  0  0  0  0  0  0
   17.2273  -13.6438    4.8196 C   0  0  2  0  0  0  0  0  0  0  0  0
   16.0515  -12.7950    4.4828 N   0  0  0  0  0  0  0  0  0  0  0  0
   16.6956  -14.9256    5.2424 C   0  0  0  0  0  0  0  0  0  0  0  0
   15.6412  -14.9632    5.9800 O   0  0  0  0  0  0  0  0  0  0  0  0
   15.2057  -21.6282    0.5211 N   0  0  0  0  0  0  0  0  0  0  0  0
   14.1053  -20.7977    0.8278 C   0  0  0  0  0  0  0  0  0  0  0  0
   12.9653  -20.8740    0.2346 N   0  0  0  0  0  0  0  0  0  0  0  0
   14.2865  -19.8173    1.8638 N   0  0  0  0  0  0  0  0  0  0  0  0
   15.5337  -19.7317    2.6022 C   0  0  0  0  0  0  0  0  0  0  0  0
   15.3730  -18.6831    3.6717 C   0  0  0  0  0  0  0  0  0  0  0  0
   16.6466  -18.4785    4.3837 C   0  0  0  0  0  0  0  0  0  0  0  0
   16.6531  -17.4364    5.4721 C   0  0  2  0  0  0  0  0  0  0  0  0
   17.2028  -16.2248    4.9348 N   0  0  0  0  0  0  0  0  0  0  0  0
   17.3318  -17.9674    6.6670 C   0  0  0  0  0  0  0  0  0  0  0  0
   18.5928  -18.1833    6.5970 O   0  0  0  0  0  0  0  0  0  0  0  0
   12.1866  -20.2588    0.5866 C   0  0  0  0  0  0  0  0  0  0  0  0
   17.4465  -16.6650   10.2623 C   0  0  2  0  0  0  0  0  0  0  0  0
   16.9914  -18.1093   10.2906 O   0  0  0  0  0  0  0  0  0  0  0  0
   15.6025  -18.1001   10.3048 C   0  0  2  0  0  0  0  0  0  0  0  0
   17.5273  -18.7967    9.0397 N   0  0  0  0  0  0  0  0  0  0  0  0
   16.7407  -18.2736    7.9103 C   0  0  0  0  0  0  0  0  0  0  0  0
   17.4430  -20.2532    9.1292 O   0  0  0  0  0  0  0  0  0  0  0  0
   16.7544  -20.9707    8.3594 O   0  0  0  0  0  0  0  0  0  0  0  0
  1  2  1  0
  2  3  1  0
  3  5  1  0
  3  4  1  6
  5  6  1  1
  7  8  2  0
  7  5  1  0
  9 10  1  0
 10 12  1  0
 11 10  2  0
 12 13  1  0
 13 14  1  0
 14 15  1  0
 16 15  1  6
 16 17  1  0
 17  7  1  0
 18 16  1  0
 19 18  2  0
 21 20  1  1
 21 22  1  0
 23 21  1  0
 23 24  1  1
 24 18  1  0
 25 27  1  0
 25 23  1  0
 26 25  2  0
M  END
$$$$
