IRT.pdb
     RDKit          3D

 27 26  0  0  1  0  0  0  0  0999 V2000
   16.6634  -15.6691  -21.8855 C   0  0  0  0  0  0  0  0  0  0  0  0
   17.5850  -14.5116  -22.3218 C   0  0  0  0  0  0  0  0  0  0  0  0
   17.3654  -13.4213  -21.3430 C   0  0  2  0  0  0  0  0  0  0  0  0
   15.8672  -13.0897  -21.3790 C   0  0  0  0  0  0  0  0  0  0  0  0
   18.2095  -12.2109  -21.4472 C   0  0  2  0  0  0  0  0  0  0  0  0
   19.6031  -12.7187  -21.5760 N   0  0  0  0  0  0  0  0  0  0  0  0
   18.2201  -11.2699  -20.3431 C   0  0  0  0  0  0  0  0  0  0  0  0
   17.1100  -10.7707  -19.9240 O   0  0  0  0  0  0  0  0  0  0  0  0
   23.3784  -10.1637  -13.3111 N   0  0  0  0  0  0  0  0  0  0  0  0
   22.2384   -9.3797  -13.0275 C   0  0  0  0  0  0  0  0  0  0  0  0
   21.9975   -8.8601  -11.8746 N   0  0  0  0  0  0  0  0  0  0  0  0
   21.3049   -9.1599  -14.0987 N   0  0  0  0  0  0  0  0  0  0  0  0
   21.4213   -9.8837  -15.3520 C   0  0  0  0  0  0  0  0  0  0  0  0
   20.3205   -9.4146  -16.2670 C   0  0  0  0  0  0  0  0  0  0  0  0
   20.3081  -10.2134  -17.5049 C   0  0  0  0  0  0  0  0  0  0  0  0
   19.2573   -9.8621  -18.5262 C   0  0  2  0  0  0  0  0  0  0  0  0
   19.3514  -10.7962  -19.6114 N   0  0  0  0  0  0  0  0  0  0  0  0
   19.3778   -8.4416  -18.8976 C   0  0  0  0  0  0  0  0  0  0  0  0
   20.5091   -8.0273  -19.3336 O   0  0  0  0  0  0  0  0  0  0  0  0
   21.0819   -8.3563  -11.7448 C   0  0  0  0  0  0  0  0  0  0  0  0
   16.7599   -6.1792  -20.7626 C   0  0  2  0  0  0  0  0  0  0  0  0
   17.2778   -5.4459  -19.5428 O   0  0  0  0  0  0  0  0  0  0  0  0
   16.3443   -5.6269  -18.5301 C   0  0  2  0  0  0  0  0  0  0  0  0
   18.6260   -6.0504  -19.1667 N   0  0  0  0  0  0  0  0  0  0  0  0
   18.3679   -7.4597  -18.8274 C   0  0  0  0  0  0  0  0  0  0  0  0
   19.2644   -5.3362  -18.0628 O   0  0  0  0  0  0  0  0  0  0  0  0
   19.6422   -4.1380  -18.1196 O   0  0  0  0  0  0  0  0  0  0  0  0
  1  2  1  0
  2  3  1  0
  3  5  1  0
  3  4  1  6
  5  6  1  1
  7  8  2  0
  7  5  1  0
  9 10  1  0
 10 12  1  0
 11 10  2  0
 12 13  1  0
 13 14  1  0
 14 15  1  0
 16 15  1  1
 16 17  1  0
 17  7  1  0
 18 16  1  0
 19 18  2  0
 21 20  1  6
 21 22  1  0
 23 21  1  0
 23 24  1  6
 24 18  1  0
 25 27  1  0
 25 23  1  0
 26 25  2  0
M  END
$$$$
