IRT.pdb
     RDKit          3D

 27 26  0  0  1  0  0  0  0  0999 V2000
   28.6165  -12.7672  -16.2447 C   0  0  0  0  0  0  0  0  0  0  0  0
   27.2317  -13.4116  -16.0291 C   0  0  0  0  0  0  0  0  0  0  0  0
   26.2459  -12.3108  -16.1367 C   0  0  2  0  0  0  0  0  0  0  0  0
   26.6113  -11.2827  -15.0572 C   0  0  0  0  0  0  0  0  0  0  0  0
   24.8081  -12.6585  -16.1149 C   0  0  2  0  0  0  0  0  0  0  0  0
   24.6267  -13.6321  -17.2265 N   0  0  0  0  0  0  0  0  0  0  0  0
   23.8323  -11.6072  -16.3320 C   0  0  0  0  0  0  0  0  0  0  0  0
   23.6682  -11.1281  -17.5155 O   0  0  0  0  0  0  0  0  0  0  0  0
   15.9300  -11.6337  -14.6549 N   0  0  0  0  0  0  0  0  0  0  0  0
   17.0054  -12.2082  -15.3675 C   0  0  0  0  0  0  0  0  0  0  0  0
   16.9895  -13.4045  -15.8430 N   0  0  0  0  0  0  0  0  0  0  0  0
   18.1762  -11.3970  -15.5635 N   0  0  0  0  0  0  0  0  0  0  0  0
   18.2589  -10.0577  -15.0089 C   0  0  0  0  0  0  0  0  0  0  0  0
   19.5655   -9.4497  -15.4478 C   0  0  0  0  0  0  0  0  0  0  0  0
   20.6693  -10.4035  -15.2408 C   0  0  0  0  0  0  0  0  0  0  0  0
   22.0400   -9.9575  -15.6800 C   0  0  2  0  0  0  0  0  0  0  0  0
   22.9766  -10.9977  -15.3644 N   0  0  0  0  0  0  0  0  0  0  0  0
   22.3418   -8.6346  -15.1063 C   0  0  0  0  0  0  0  0  0  0  0  0
   22.6979   -8.5787  -13.8768 O   0  0  0  0  0  0  0  0  0  0  0  0
   17.8107  -13.7120  -16.4260 C   0  0  0  0  0  0  0  0  0  0  0  0
   24.6788   -5.9161  -16.4356 C   0  0  2  0  0  0  0  0  0  0  0  0
   23.3437   -5.2697  -16.1297 O   0  0  0  0  0  0  0  0  0  0  0  0
   22.6307   -5.2208  -17.3207 C   0  0  2  0  0  0  0  0  0  0  0  0
   22.6302   -6.1301  -15.0927 N   0  0  0  0  0  0  0  0  0  0  0  0
   22.2829   -7.3911  -15.7690 C   0  0  0  0  0  0  0  0  0  0  0  0
   21.4490   -5.4682  -14.5422 O   0  0  0  0  0  0  0  0  0  0  0  0
   20.2654   -5.8238  -14.7753 O   0  0  0  0  0  0  0  0  0  0  0  0
  1  2  1  0
  2  3  1  0
  3  5  1  0
  3  4  1  1
  5  6  1  6
  7  8  2  0
  7  5  1  0
  9 10  1  0
 10 12  1  0
 11 10  2  0
 12 13  1  0
 13 14  1  0
 14 15  1  0
 16 15  1  1
 16 17  1  0
 17  7  1  0
 18 16  1  0
 19 18  2  0
 21 20  1  6
 21 22  1  0
 23 21  1  0
 23 24  1  1
 24 18  1  0
 25 27  1  0
 25 23  1  0
 26 25  2  0
M  END
$$$$
