IRT.pdb
     RDKit          3D

 27 26  0  0  1  0  0  0  0  0999 V2000
   27.6305  -19.7968   -5.8055 C   0  0  0  0  0  0  0  0  0  0  0  0
   26.3171  -19.5406   -6.5728 C   0  0  0  0  0  0  0  0  0  0  0  0
   26.5580  -19.9967   -7.9617 C   0  0  2  0  0  0  0  0  0  0  0  0
   27.9308  -19.4491   -8.3753 C   0  0  0  0  0  0  0  0  0  0  0  0
   25.5166  -19.7217   -8.9759 C   0  0  2  0  0  0  0  0  0  0  0  0
   24.3062  -20.4435   -8.4960 N   0  0  0  0  0  0  0  0  0  0  0  0
   25.7378  -20.1614  -10.3406 C   0  0  0  0  0  0  0  0  0  0  0  0
   26.6905  -19.6373  -11.0297 O   0  0  0  0  0  0  0  0  0  0  0  0
   23.5221  -26.8834  -13.8910 N   0  0  0  0  0  0  0  0  0  0  0  0
   22.5436  -26.0459  -14.4703 C   0  0  0  0  0  0  0  0  0  0  0  0
   21.3121  -26.3873  -14.6254 N   0  0  0  0  0  0  0  0  0  0  0  0
   22.9643  -24.7418  -14.9056 N   0  0  0  0  0  0  0  0  0  0  0  0
   24.2633  -24.2119  -14.5314 C   0  0  0  0  0  0  0  0  0  0  0  0
   24.1268  -22.7224  -14.3519 C   0  0  0  0  0  0  0  0  0  0  0  0
   24.1376  -22.3761  -12.9199 C   0  0  0  0  0  0  0  0  0  0  0  0
   25.1955  -21.4033  -12.4672 C   0  0  2  0  0  0  0  0  0  0  0  0
   25.0097  -21.1525  -11.0666 N   0  0  0  0  0  0  0  0  0  0  0  0
   25.1815  -20.2120  -13.3338 C   0  0  0  0  0  0  0  0  0  0  0  0
   24.2505  -19.3497  -13.1566 O   0  0  0  0  0  0  0  0  0  0  0  0
   20.6739  -25.7117  -15.1206 C   0  0  0  0  0  0  0  0  0  0  0  0
   27.9915  -17.8021  -14.1227 C   0  0  2  0  0  0  0  0  0  0  0  0
   27.3763  -18.1904  -15.4511 O   0  0  0  0  0  0  0  0  0  0  0  0
   28.1713  -19.1926  -15.9925 C   0  0  2  0  0  0  0  0  0  0  0  0
   25.9604  -18.6900  -15.1865 N   0  0  0  0  0  0  0  0  0  0  0  0
   26.0961  -19.9020  -14.3615 C   0  0  0  0  0  0  0  0  0  0  0  0
   25.2271  -18.9561  -16.4226 O   0  0  0  0  0  0  0  0  0  0  0  0
   24.8313  -20.0953  -16.7793 O   0  0  0  0  0  0  0  0  0  0  0  0
  1  2  1  0
  2  3  1  0
  3  5  1  0
  3  4  1  6
  5  6  1  1
  7  8  2  0
  7  5  1  0
  9 10  1  0
 10 12  1  0
 11 10  2  0
 12 13  1  0
 13 14  1  0
 14 15  1  0
 16 15  1  6
 16 17  1  0
 17  7  1  0
 18 16  1  0
 19 18  2  0
 21 20  1  6
 21 22  1  0
 23 21  1  0
 23 24  1  6
 24 18  1  0
 25 27  1  0
 25 23  1  0
 26 25  2  0
M  END
$$$$
