IRT.pdb
     RDKit          3D

 27 26  0  0  1  0  0  0  0  0999 V2000
   28.5611  -19.2928   -6.0498 C   0  0  0  0  0  0  0  0  0  0  0  0
   28.6834  -20.4324   -7.0822 C   0  0  0  0  0  0  0  0  0  0  0  0
   27.6808  -20.1426   -8.1337 C   0  0  2  0  0  0  0  0  0  0  0  0
   26.3311  -19.9726   -7.4230 C   0  0  0  0  0  0  0  0  0  0  0  0
   27.5940  -21.0651   -9.2870 C   0  0  2  0  0  0  0  0  0  0  0  0
   28.9855  -21.1707   -9.8058 N   0  0  0  0  0  0  0  0  0  0  0  0
   26.7655  -20.6926  -10.4181 C   0  0  0  0  0  0  0  0  0  0  0  0
   26.9879  -19.5816  -11.0291 O   0  0  0  0  0  0  0  0  0  0  0  0
   29.6703  -22.0181  -13.7029 N   0  0  0  0  0  0  0  0  0  0  0  0
   29.1404  -22.2667  -14.9881 C   0  0  0  0  0  0  0  0  0  0  0  0
   29.6268  -23.1338  -15.8060 N   0  0  0  0  0  0  0  0  0  0  0  0
   27.9930  -21.4989  -15.3893 N   0  0  0  0  0  0  0  0  0  0  0  0
   27.0851  -20.9407  -14.4032 C   0  0  0  0  0  0  0  0  0  0  0  0
   26.4940  -22.0796  -13.6141 C   0  0  0  0  0  0  0  0  0  0  0  0
   25.0917  -21.7893  -13.2679 C   0  0  0  0  0  0  0  0  0  0  0  0
   24.8589  -20.9316  -12.0511 C   0  0  2  0  0  0  0  0  0  0  0  0
   25.6800  -21.4281  -10.9841 N   0  0  0  0  0  0  0  0  0  0  0  0
   23.4164  -20.8574  -11.7615 C   0  0  0  0  0  0  0  0  0  0  0  0
   22.9955  -21.3684  -10.6645 O   0  0  0  0  0  0  0  0  0  0  0  0
   29.1479  -23.2542  -16.7361 C   0  0  0  0  0  0  0  0  0  0  0  0
   20.8302  -17.8621  -12.4338 C   0  0  2  0  0  0  0  0  0  0  0  0
   20.3235  -19.1811  -12.9791 O   0  0  0  0  0  0  0  0  0  0  0  0
   20.6687  -19.2272  -14.3238 C   0  0  2  0  0  0  0  0  0  0  0  0
   20.9956  -20.3038  -12.1967 N   0  0  0  0  0  0  0  0  0  0  0  0
   22.4193  -20.2750  -12.5712 C   0  0  0  0  0  0  0  0  0  0  0  0
   20.3910  -21.6066  -12.4678 O   0  0  0  0  0  0  0  0  0  0  0  0
   20.9025  -22.4834  -13.2102 O   0  0  0  0  0  0  0  0  0  0  0  0
  1  2  1  0
  2  3  1  0
  3  5  1  0
  3  4  1  1
  5  6  1  6
  7  8  2  0
  7  5  1  0
  9 10  1  0
 10 12  1  0
 11 10  2  0
 12 13  1  0
 13 14  1  0
 14 15  1  0
 16 15  1  6
 16 17  1  0
 17  7  1  0
 18 16  1  0
 19 18  2  0
 21 20  1  6
 21 22  1  0
 23 21  1  0
 23 24  1  1
 24 18  1  0
 25 27  1  0
 25 23  1  0
 26 25  2  0
M  END
$$$$
