IRT.pdb
     RDKit          3D

 27 26  0  0  1  0  0  0  0  0999 V2000
   22.0196  -28.1973  -17.3811 C   0  0  0  0  0  0  0  0  0  0  0  0
   23.2698  -27.3941  -16.9672 C   0  0  0  0  0  0  0  0  0  0  0  0
   22.7754  -26.2487  -16.1681 C   0  0  2  0  0  0  0  0  0  0  0  0
   21.6881  -25.5617  -17.0056 C   0  0  0  0  0  0  0  0  0  0  0  0
   23.7680  -25.2865  -15.6412 C   0  0  2  0  0  0  0  0  0  0  0  0
   24.5894  -26.0657  -14.6745 N   0  0  0  0  0  0  0  0  0  0  0  0
   23.2948  -24.1180  -14.9235 C   0  0  0  0  0  0  0  0  0  0  0  0
   22.6142  -24.2703  -13.8414 O   0  0  0  0  0  0  0  0  0  0  0  0
   28.7869  -19.2891  -12.1754 N   0  0  0  0  0  0  0  0  0  0  0  0
   28.5468  -20.5984  -11.7037 C   0  0  0  0  0  0  0  0  0  0  0  0
   29.3263  -21.2180  -10.8877 N   0  0  0  0  0  0  0  0  0  0  0  0
   27.3602  -21.2618  -12.1716 N   0  0  0  0  0  0  0  0  0  0  0  0
   26.3961  -20.5682  -13.0068 C   0  0  0  0  0  0  0  0  0  0  0  0
   25.2174  -21.4820  -13.2182 C   0  0  0  0  0  0  0  0  0  0  0  0
   24.1966  -20.8179  -14.0474 C   0  0  0  0  0  0  0  0  0  0  0  0
   23.0146  -21.6544  -14.4643 C   0  0  2  0  0  0  0  0  0  0  0  0
   23.4925  -22.7453  -15.2645 N   0  0  0  0  0  0  0  0  0  0  0  0
   21.9968  -20.7988  -15.0984 C   0  0  0  0  0  0  0  0  0  0  0  0
   22.1806  -20.4464  -16.3165 O   0  0  0  0  0  0  0  0  0  0  0  0
   29.0482  -22.1869  -10.5830 C   0  0  0  0  0  0  0  0  0  0  0  0
   17.4582  -19.0221  -15.5115 C   0  0  2  0  0  0  0  0  0  0  0  0
   18.4687  -19.9215  -14.8304 O   0  0  0  0  0  0  0  0  0  0  0  0
   18.2141  -21.2188  -15.2566 C   0  0  1  0  0  0  0  0  0  0  0  0
   19.8623  -19.4656  -15.2480 N   0  0  0  0  0  0  0  0  0  0  0  0
   20.8138  -20.3098  -14.5064 C   0  0  0  0  0  0  0  0  0  0  0  0
   20.0816  -18.0445  -14.9859 O   0  0  0  0  0  0  0  0  0  0  0  0
   20.4416  -17.5770  -13.8753 O   0  0  0  0  0  0  0  0  0  0  0  0
  1  2  1  0
  2  3  1  0
  3  5  1  0
  3  4  1  6
  5  6  1  1
  7  8  2  0
  7  5  1  0
  9 10  1  0
 10 12  1  0
 11 10  2  0
 12 13  1  0
 13 14  1  0
 14 15  1  0
 16 15  1  6
 16 17  1  0
 17  7  1  0
 18 16  1  0
 19 18  2  0
 21 20  1  1
 21 22  1  0
 23 21  1  0
 23 24  1  1
 24 18  1  0
 25 27  1  0
 25 23  1  0
 26 25  2  0
M  END
$$$$
