IRT.pdb
     RDKit          3D

 27 26  0  0  1  0  0  0  0  0999 V2000
   27.8883  -19.1475   -6.8664 C   0  0  0  0  0  0  0  0  0  0  0  0
   26.4203  -19.5992   -7.0093 C   0  0  0  0  0  0  0  0  0  0  0  0
   26.1956  -19.8111   -8.4583 C   0  0  2  0  0  0  0  0  0  0  0  0
   26.6083  -18.5123   -9.1644 C   0  0  0  0  0  0  0  0  0  0  0  0
   24.8646  -20.2871   -8.8948 C   0  0  2  0  0  0  0  0  0  0  0  0
   24.6566  -21.5735   -8.1749 N   0  0  0  0  0  0  0  0  0  0  0  0
   24.6509  -20.5693  -10.3016 C   0  0  0  0  0  0  0  0  0  0  0  0
   25.2034  -21.6037  -10.8325 O   0  0  0  0  0  0  0  0  0  0  0  0
   18.4393  -21.6999  -12.6977 N   0  0  0  0  0  0  0  0  0  0  0  0
   18.3762  -20.8801  -11.5494 C   0  0  0  0  0  0  0  0  0  0  0  0
   17.6274  -21.1311  -10.5327 N   0  0  0  0  0  0  0  0  0  0  0  0
   19.2016  -19.7030  -11.5321 N   0  0  0  0  0  0  0  0  0  0  0  0
   20.0269  -19.3519  -12.6740 C   0  0  0  0  0  0  0  0  0  0  0  0
   21.1853  -20.3134  -12.7272 C   0  0  0  0  0  0  0  0  0  0  0  0
   22.4188  -19.6082  -13.1165 C   0  0  0  0  0  0  0  0  0  0  0  0
   23.7161  -20.1854  -12.6119 C   0  0  2  0  0  0  0  0  0  0  0  0
   23.8662  -19.8220  -11.2319 N   0  0  0  0  0  0  0  0  0  0  0  0
   24.8204  -19.7819  -13.4996 C   0  0  0  0  0  0  0  0  0  0  0  0
   25.3387  -18.6230  -13.3268 O   0  0  0  0  0  0  0  0  0  0  0  0
   17.6691  -20.4671   -9.7165 C   0  0  0  0  0  0  0  0  0  0  0  0
   28.7810  -20.6139  -16.0973 C   0  0  2  0  0  0  0  0  0  0  0  0
   27.6253  -21.0687  -15.2305 O   0  0  0  0  0  0  0  0  0  0  0  0
   28.0979  -21.1464  -13.9267 C   0  0  1  0  0  0  0  0  0  0  0  0
   26.5093  -20.0372  -15.3538 N   0  0  0  0  0  0  0  0  0  0  0  0
   25.3879  -20.5413  -14.5436 C   0  0  0  0  0  0  0  0  0  0  0  0
   26.1148  -19.8116  -16.7429 O   0  0  0  0  0  0  0  0  0  0  0  0
   25.1381  -20.3737  -17.3013 O   0  0  0  0  0  0  0  0  0  0  0  0
  1  2  1  0
  2  3  1  0
  3  5  1  0
  3  4  1  6
  5  6  1  1
  7  8  2  0
  7  5  1  0
  9 10  1  0
 10 12  1  0
 11 10  2  0
 12 13  1  0
 13 14  1  0
 14 15  1  0
 16 15  1  6
 16 17  1  0
 17  7  1  0
 18 16  1  0
 19 18  2  0
 21 20  1  6
 21 22  1  0
 23 21  1  0
 23 24  1  6
 24 18  1  0
 25 27  1  0
 25 23  1  0
 26 25  2  0
M  END
$$$$
