HSV.pdb
     RDKit          3D

 24 24  0  0  1  0  0  0  0  0999 V2000
   17.4050  -11.7888  -15.5054 N   0  0  0  0  0  0  0  0  0  0  0  0
   17.7235  -10.5040  -16.0531 C   0  0  1  0  0  0  0  0  0  0  0  0
   16.4867   -9.6900  -16.3648 C   0  0  0  0  0  0  0  0  0  0  0  0
   15.6204  -10.3897  -17.3500 C   0  0  0  0  0  0  0  0  0  0  0  0
   15.9041  -10.4484  -18.6943 C   0  0  0  0  0  0  0  0  0  0  0  0
   14.9288  -11.1507  -19.3099 N   0  0  0  0  0  0  0  0  0  0  0  0
   14.0557  -11.5213  -18.3653 C   0  0  0  0  0  0  0  0  0  0  0  0
   14.4866  -11.0520  -17.1722 N   0  0  0  0  0  0  0  0  0  0  0  0
   18.6522   -9.7670  -15.1577 C   0  0  0  0  0  0  0  0  0  0  0  0
   18.2870   -9.5346  -13.9840 O   0  0  0  0  0  0  0  0  0  0  0  0
   22.5942   -9.5692  -16.1278 O   0  0  0  0  0  0  0  0  0  0  0  0
   22.1669   -9.3792  -14.8371 C   0  0  0  0  0  0  0  0  0  0  0  0
   20.8527   -8.6046  -14.7617 C   0  0  2  0  0  0  0  0  0  0  0  0
   19.9084   -9.3370  -15.6026 N   0  0  0  0  0  0  0  0  0  0  0  0
   21.0023   -7.2101  -15.2057 C   0  0  0  0  0  0  0  0  0  0  0  0
   20.9960   -6.8755  -16.4363 O   0  0  0  0  0  0  0  0  0  0  0  0
   18.9236   -4.4623  -15.1226 C   0  0  0  0  0  0  0  0  0  0  0  0
   20.1073   -3.9519  -14.3435 C   0  0  1  0  0  0  0  0  0  0  0  0
   19.7563   -3.9359  -12.8875 C   0  0  0  0  0  0  0  0  0  0  0  0
   21.3527   -4.7864  -14.6190 C   0  0  2  0  0  0  0  0  0  0  0  0
   21.1619   -6.1626  -14.2766 N   0  0  0  0  0  0  0  0  0  0  0  0
   22.5372   -4.1847  -13.9673 C   0  0  0  0  0  0  0  0  0  0  0  0
   23.3030   -3.1676  -14.4984 O   0  0  0  0  0  0  0  0  0  0  0  0
   22.8706   -4.6338  -12.8461 O   0  0  0  0  0  0  0  0  0  0  0  0
  2  1  1  1
  3  2  1  0
  4  3  1  0
  5  4  2  0
  6  5  1  0
  7  6  1  0
  7  8  2  0
  8  4  1  0
  9  2  1  0
 10  9  2  0
 11 12  1  0
 13 12  1  6
 13 15  1  0
 13 14  1  0
 14  9  1  0
 15 21  1  0
 16 15  2  0
 18 20  1  0
 18 19  1  1
 18 17  1  0
 20 22  1  0
 20 21  1  1
 22 24  2  0
 22 23  1  0
M  END
$$$$
