HSV.pdb
     RDKit          3D

 24 24  0  0  1  0  0  0  0  0999 V2000
   21.4766  -11.9705  -17.1132 N   0  0  0  0  0  0  0  0  0  0  0  0
   22.1486  -11.0303  -16.2668 C   0  0  1  0  0  0  0  0  0  0  0  0
   23.5863  -10.8081  -16.6832 C   0  0  0  0  0  0  0  0  0  0  0  0
   24.3764  -12.0622  -16.5674 C   0  0  0  0  0  0  0  0  0  0  0  0
   24.4012  -13.0296  -17.5444 C   0  0  0  0  0  0  0  0  0  0  0  0
   25.2065  -14.0336  -17.1360 N   0  0  0  0  0  0  0  0  0  0  0  0
   25.6731  -13.6958  -15.9276 C   0  0  0  0  0  0  0  0  0  0  0  0
   25.1606  -12.4907  -15.5891 N   0  0  0  0  0  0  0  0  0  0  0  0
   21.3946   -9.7519  -16.1996 C   0  0  0  0  0  0  0  0  0  0  0  0
   21.2066   -9.1163  -17.2605 O   0  0  0  0  0  0  0  0  0  0  0  0
   19.6527   -8.6378  -12.5997 O   0  0  0  0  0  0  0  0  0  0  0  0
   19.1190   -8.2149  -13.7917 C   0  0  0  0  0  0  0  0  0  0  0  0
   20.1827   -7.9913  -14.8649 C   0  0  2  0  0  0  0  0  0  0  0  0
   20.9006   -9.2583  -14.9859 N   0  0  0  0  0  0  0  0  0  0  0  0
   21.0917   -6.8856  -14.5255 C   0  0  0  0  0  0  0  0  0  0  0  0
   22.1388   -7.0488  -13.8161 O   0  0  0  0  0  0  0  0  0  0  0  0
   20.9307   -3.2803  -16.7948 C   0  0  0  0  0  0  0  0  0  0  0  0
   22.1185   -3.7452  -15.9939 C   0  0  1  0  0  0  0  0  0  0  0  0
   23.0032   -2.5691  -15.7153 C   0  0  0  0  0  0  0  0  0  0  0  0
   21.6821   -4.4446  -14.7118 C   0  0  2  0  0  0  0  0  0  0  0  0
   20.8437   -5.5736  -14.9763 N   0  0  0  0  0  0  0  0  0  0  0  0
   21.0737   -3.4770  -13.7721 C   0  0  0  0  0  0  0  0  0  0  0  0
   21.7757   -2.5880  -12.9848 O   0  0  0  0  0  0  0  0  0  0  0  0
   19.8238   -3.4639  -13.6846 O   0  0  0  0  0  0  0  0  0  0  0  0
  2  1  1  6
  3  2  1  0
  4  3  1  0
  5  4  2  0
  6  5  1  0
  7  6  1  0
  7  8  2  0
  8  4  1  0
  9  2  1  0
 10  9  2  0
 11 12  1  0
 13 12  1  1
 13 15  1  0
 13 14  1  0
 14  9  1  0
 15 21  1  0
 16 15  2  0
 18 20  1  0
 18 19  1  1
 18 17  1  0
 20 22  1  0
 20 21  1  6
 22 24  2  0
 22 23  1  0
M  END
$$$$
