HSV.pdb
     RDKit          3D

 24 24  0  0  1  0  0  0  0  0999 V2000
   26.0902  -22.1886  -19.1433 N   0  0  0  0  0  0  0  0  0  0  0  0
   25.3871  -21.1385  -18.4688 C   0  0  1  0  0  0  0  0  0  0  0  0
   23.8863  -21.3221  -18.5281 C   0  0  0  0  0  0  0  0  0  0  0  0
   23.2193  -20.1041  -19.0593 C   0  0  0  0  0  0  0  0  0  0  0  0
   22.6546  -19.1429  -18.2542 C   0  0  0  0  0  0  0  0  0  0  0  0
   22.1353  -18.1745  -19.0391 N   0  0  0  0  0  0  0  0  0  0  0  0
   22.3733  -18.5279  -20.3082 C   0  0  0  0  0  0  0  0  0  0  0  0
   23.0356  -19.7073  -20.3101 N   0  0  0  0  0  0  0  0  0  0  0  0
   25.8665  -21.0000  -17.0694 C   0  0  0  0  0  0  0  0  0  0  0  0
   26.4466  -21.9741  -16.5407 O   0  0  0  0  0  0  0  0  0  0  0  0
   24.9656  -17.5199  -14.8675 O   0  0  0  0  0  0  0  0  0  0  0  0
   26.1926  -18.1232  -14.7457 C   0  0  0  0  0  0  0  0  0  0  0  0
   26.1293  -19.6330  -14.9689 C   0  0  2  0  0  0  0  0  0  0  0  0
   25.6807  -19.8145  -16.3477 N   0  0  0  0  0  0  0  0  0  0  0  0
   25.2285  -20.2991  -14.0157 C   0  0  0  0  0  0  0  0  0  0  0  0
   24.0589  -20.6944  -14.3354 O   0  0  0  0  0  0  0  0  0  0  0  0
   26.9706  -21.6680  -10.5759 C   0  0  0  0  0  0  0  0  0  0  0  0
   25.5313  -21.2845  -10.3523 C   0  0  1  0  0  0  0  0  0  0  0  0
   25.4872  -20.0364   -9.5254 C   0  0  0  0  0  0  0  0  0  0  0  0
   24.7914  -21.1170  -11.6743 C   0  0  2  0  0  0  0  0  0  0  0  0
   25.6227  -20.5354  -12.6835 N   0  0  0  0  0  0  0  0  0  0  0  0
   23.5234  -20.3817  -11.4718 C   0  0  0  0  0  0  0  0  0  0  0  0
   22.3748  -20.9174  -10.9271 O   0  0  0  0  0  0  0  0  0  0  0  0
   23.4902  -19.1791  -11.8221 O   0  0  0  0  0  0  0  0  0  0  0  0
  2  1  1  1
  3  2  1  0
  4  3  1  0
  5  4  2  0
  6  5  1  0
  7  6  1  0
  7  8  2  0
  8  4  1  0
  9  2  1  0
 10  9  2  0
 11 12  1  0
 13 12  1  1
 13 15  1  0
 13 14  1  0
 14  9  1  0
 15 21  1  0
 16 15  2  0
 18 20  1  0
 18 19  1  6
 18 17  1  0
 20 22  1  0
 20 21  1  6
 22 24  2  0
 22 23  1  0
M  END
$$$$
