HSV.pdb
     RDKit          3D

 24 24  0  0  1  0  0  0  0  0999 V2000
   21.8190  -16.6330  -18.5342 N   0  0  0  0  0  0  0  0  0  0  0  0
   22.7451  -17.6061  -18.0369 C   0  0  1  0  0  0  0  0  0  0  0  0
   24.1680  -17.3137  -18.4604 C   0  0  0  0  0  0  0  0  0  0  0  0
   24.3131  -17.3930  -19.9379 C   0  0  0  0  0  0  0  0  0  0  0  0
   24.3629  -18.5821  -20.6270 C   0  0  0  0  0  0  0  0  0  0  0  0
   24.4977  -18.3118  -21.9431 N   0  0  0  0  0  0  0  0  0  0  0  0
   24.5309  -16.9794  -22.0690 C   0  0  0  0  0  0  0  0  0  0  0  0
   24.4175  -16.4275  -20.8393 N   0  0  0  0  0  0  0  0  0  0  0  0
   22.6290  -17.7356  -16.5614 C   0  0  0  0  0  0  0  0  0  0  0  0
   22.8334  -16.7216  -15.8579 O   0  0  0  0  0  0  0  0  0  0  0  0
   20.4027  -19.7104  -12.9589 O   0  0  0  0  0  0  0  0  0  0  0  0
   20.6861  -19.4777  -14.2818 C   0  0  0  0  0  0  0  0  0  0  0  0
   22.1544  -19.1274  -14.5150 C   0  0  2  0  0  0  0  0  0  0  0  0
   22.2997  -18.9559  -15.9589 N   0  0  0  0  0  0  0  0  0  0  0  0
   23.0624  -20.1639  -14.0001 C   0  0  0  0  0  0  0  0  0  0  0  0
   23.2528  -21.2723  -14.6014 O   0  0  0  0  0  0  0  0  0  0  0  0
   24.1937  -20.2329   -9.8176 C   0  0  0  0  0  0  0  0  0  0  0  0
   25.2325  -20.4494  -10.8865 C   0  0  1  0  0  0  0  0  0  0  0  0
   26.2768  -21.3864  -10.3622 C   0  0  0  0  0  0  0  0  0  0  0  0
   24.6017  -20.9645  -12.1750 C   0  0  2  0  0  0  0  0  0  0  0  0
   23.7755  -19.9769  -12.7991 N   0  0  0  0  0  0  0  0  0  0  0  0
   23.8971  -22.2434  -11.9346 C   0  0  0  0  0  0  0  0  0  0  0  0
   24.4391  -23.4964  -12.1327 O   0  0  0  0  0  0  0  0  0  0  0  0
   22.7166  -22.1837  -11.5188 O   0  0  0  0  0  0  0  0  0  0  0  0
  2  1  1  1
  3  2  1  0
  4  3  1  0
  5  4  2  0
  6  5  1  0
  7  6  1  0
  7  8  2  0
  8  4  1  0
  9  2  1  0
 10  9  2  0
 11 12  1  0
 13 12  1  6
 13 15  1  0
 13 14  1  0
 14  9  1  0
 15 21  1  0
 16 15  2  0
 18 20  1  0
 18 19  1  1
 18 17  1  0
 20 22  1  0
 20 21  1  1
 22 24  2  0
 22 23  1  0
M  END
$$$$
