HSV.pdb
     RDKit          3D

 24 24  0  0  1  0  0  0  0  0999 V2000
   14.6018  -13.0208  -16.3036 N   0  0  0  0  0  0  0  0  0  0  0  0
   14.5488  -13.1010  -14.8744 C   0  0  1  0  0  0  0  0  0  0  0  0
   14.8386  -11.7711  -14.2134 C   0  0  0  0  0  0  0  0  0  0  0  0
   16.2009  -11.2871  -14.5605 C   0  0  0  0  0  0  0  0  0  0  0  0
   17.3510  -11.9362  -14.1772 C   0  0  0  0  0  0  0  0  0  0  0  0
   18.4121  -11.2461  -14.6476 N   0  0  0  0  0  0  0  0  0  0  0  0
   17.9297  -10.1879  -15.3107 C   0  0  0  0  0  0  0  0  0  0  0  0
   16.5788  -10.2218  -15.2519 N   0  0  0  0  0  0  0  0  0  0  0  0
   13.2475  -13.6619  -14.4277 C   0  0  0  0  0  0  0  0  0  0  0  0
   12.2195  -12.9633  -14.5686 O   0  0  0  0  0  0  0  0  0  0  0  0
   12.7834  -17.6524  -14.3617 O   0  0  0  0  0  0  0  0  0  0  0  0
   11.7423  -16.7629  -14.4592 C   0  0  0  0  0  0  0  0  0  0  0  0
   11.8921  -15.5770  -13.5083 C   0  0  2  0  0  0  0  0  0  0  0  0
   13.1587  -14.9394  -13.8614 N   0  0  0  0  0  0  0  0  0  0  0  0
   11.8702  -15.9894  -12.0964 C   0  0  0  0  0  0  0  0  0  0  0  0
   12.9335  -16.1781  -11.4181 O   0  0  0  0  0  0  0  0  0  0  0  0
    8.0902  -17.2399  -10.2791 C   0  0  0  0  0  0  0  0  0  0  0  0
    9.1500  -16.4999   -9.5057 C   0  0  1  0  0  0  0  0  0  0  0  0
    9.0774  -16.9153   -8.0685 C   0  0  0  0  0  0  0  0  0  0  0  0
   10.5345  -16.7381  -10.0972 C   0  0  2  0  0  0  0  0  0  0  0  0
   10.6533  -16.1983  -11.4170 N   0  0  0  0  0  0  0  0  0  0  0  0
   10.8933  -18.1717  -10.0216 C   0  0  0  0  0  0  0  0  0  0  0  0
   11.3323  -18.8202   -8.8860 O   0  0  0  0  0  0  0  0  0  0  0  0
   10.7902  -18.8494  -11.0706 O   0  0  0  0  0  0  0  0  0  0  0  0
  2  1  1  6
  3  2  1  0
  4  3  1  0
  5  4  2  0
  6  5  1  0
  7  6  1  0
  7  8  2  0
  8  4  1  0
  9  2  1  0
 10  9  2  0
 11 12  1  0
 13 12  1  6
 13 15  1  0
 13 14  1  0
 14  9  1  0
 15 21  1  0
 16 15  2  0
 18 20  1  0
 18 19  1  1
 18 17  1  0
 20 22  1  0
 20 21  1  6
 22 24  2  0
 22 23  1  0
M  END
$$$$
