HSV.pdb
     RDKit          3D

 24 24  0  0  1  0  0  0  0  0999 V2000
   20.6593  -12.4027  -18.4923 N   0  0  0  0  0  0  0  0  0  0  0  0
   20.3354  -11.0089  -18.5579 C   0  0  1  0  0  0  0  0  0  0  0  0
   18.8937  -10.7722  -18.9518 C   0  0  0  0  0  0  0  0  0  0  0  0
   18.5998  -11.3624  -20.2844 C   0  0  0  0  0  0  0  0  0  0  0  0
   19.0020  -10.7885  -21.4675 C   0  0  0  0  0  0  0  0  0  0  0  0
   18.5803  -11.5654  -22.4883 N   0  0  0  0  0  0  0  0  0  0  0  0
   17.9283  -12.6027  -21.9489 C   0  0  0  0  0  0  0  0  0  0  0  0
   17.9456  -12.4697  -20.6029 N   0  0  0  0  0  0  0  0  0  0  0  0
   20.6716  -10.3309  -17.2794 C   0  0  0  0  0  0  0  0  0  0  0  0
   19.8968  -10.4760  -16.3080 O   0  0  0  0  0  0  0  0  0  0  0  0
   24.5176   -9.1504  -16.6713 O   0  0  0  0  0  0  0  0  0  0  0  0
   23.6629   -9.4342  -15.6353 C   0  0  0  0  0  0  0  0  0  0  0  0
   22.2430   -8.9329  -15.8914 C   0  0  2  0  0  0  0  0  0  0  0  0
   21.8238   -9.5458  -17.1500 N   0  0  0  0  0  0  0  0  0  0  0  0
   22.1743   -7.4649  -15.9562 C   0  0  0  0  0  0  0  0  0  0  0  0
   22.4671   -6.8083  -17.0095 O   0  0  0  0  0  0  0  0  0  0  0  0
   19.5588   -5.2960  -16.1223 C   0  0  0  0  0  0  0  0  0  0  0  0
   20.2456   -4.7900  -14.8810 C   0  0  1  0  0  0  0  0  0  0  0  0
   19.4531   -5.2155  -13.6833 C   0  0  0  0  0  0  0  0  0  0  0  0
   21.6886   -5.2759  -14.8099 C   0  0  2  0  0  0  0  0  0  0  0  0
   21.7750   -6.7039  -14.8393 N   0  0  0  0  0  0  0  0  0  0  0  0
   22.3834   -4.6759  -13.6493 C   0  0  0  0  0  0  0  0  0  0  0  0
   22.8130   -3.3673  -13.5724 O   0  0  0  0  0  0  0  0  0  0  0  0
   22.5982   -5.4136  -12.6595 O   0  0  0  0  0  0  0  0  0  0  0  0
  2  1  1  1
  3  2  1  0
  4  3  1  0
  5  4  2  0
  6  5  1  0
  7  6  1  0
  7  8  2  0
  8  4  1  0
  9  2  1  0
 10  9  2  0
 11 12  1  0
 13 12  1  6
 13 15  1  0
 13 14  1  0
 14  9  1  0
 15 21  1  0
 16 15  2  0
 18 20  1  0
 18 19  1  1
 18 17  1  0
 20 22  1  0
 20 21  1  1
 22 24  2  0
 22 23  1  0
M  END
$$$$
