IWI.pdb
     RDKit          3D

 31 32  0  0  1  0  0  0  0  0999 V2000
   11.6596  -21.2961   19.1275 C   0  0  0  0  0  0  0  0  0  0  0  0
   10.7660  -20.0889   18.8143 C   0  0  0  0  0  0  0  0  0  0  0  0
   10.9535  -19.1074   19.9434 C   0  0  2  0  0  0  0  0  0  0  0  0
   10.7639  -19.7193   21.2914 C   0  0  0  0  0  0  0  0  0  0  0  0
   10.0759  -17.8932   19.8453 C   0  0  2  0  0  0  0  0  0  0  0  0
   10.4112  -17.2539   18.5672 N   0  0  0  0  0  0  0  0  0  0  0  0
   10.2901  -16.9445   20.9630 C   0  0  0  0  0  0  0  0  0  0  0  0
   11.4188  -16.4082   21.0889 O   0  0  0  0  0  0  0  0  0  0  0  0
    9.2877  -16.6116   21.8955 N   0  0  0  0  0  0  0  0  0  0  0  0
    9.4949  -15.5837   22.9480 C   0  0  1  0  0  0  0  0  0  0  0  0
    8.2558  -14.7490   22.9216 C   0  0  0  0  0  0  0  0  0  0  0  0
    7.5239  -14.6712   24.2010 C   0  0  0  0  0  0  0  0  0  0  0  0
    6.9723  -15.6772   24.9585 C   0  0  0  0  0  0  0  0  0  0  0  0
    6.3684  -15.1636   26.0390 N   0  0  0  0  0  0  0  0  0  0  0  0
    6.4977  -13.8232   26.0335 C   0  0  0  0  0  0  0  0  0  0  0  0
    6.0630  -12.8287   26.9069 C   0  0  0  0  0  0  0  0  0  0  0  0
    6.3358  -11.5096   26.6588 C   0  0  0  0  0  0  0  0  0  0  0  0
    7.0560  -11.2111   25.5121 C   0  0  0  0  0  0  0  0  0  0  0  0
    7.4980  -12.1774   24.6308 C   0  0  0  0  0  0  0  0  0  0  0  0
    7.2117  -13.5087   24.8995 C   0  0  0  0  0  0  0  0  0  0  0  0
    9.6243  -16.3021   24.2228 C   0  0  0  0  0  0  0  0  0  0  0  0
    9.1275  -17.4892   24.2707 O   0  0  0  0  0  0  0  0  0  0  0  0
   13.2319  -14.5081   28.4156 C   0  0  0  0  0  0  0  0  0  0  0  0
   11.8763  -14.9750   27.8635 C   0  0  0  0  0  0  0  0  0  0  0  0
   12.0616  -16.1970   26.9985 C   0  0  2  0  0  0  0  0  0  0  0  0
   13.0953  -15.9423   25.9248 C   0  0  0  0  0  0  0  0  0  0  0  0
   10.7627  -16.7090   26.4045 C   0  0  2  0  0  0  0  0  0  0  0  0
   10.2590  -15.7905   25.4025 N   0  0  0  0  0  0  0  0  0  0  0  0
    9.7743  -17.1048   27.4015 C   0  0  0  0  0  0  0  0  0  0  0  0
   10.0657  -17.9782   28.2558 O   0  0  0  0  0  0  0  0  0  0  0  0
    8.4924  -16.5724   27.4830 O   0  0  0  0  0  0  0  0  0  0  0  0
  2  3  1  0
  2  1  1  0
  3  4  1  1
  5  6  1  6
  5  3  1  0
  7  8  2  0
  7  5  1  0
  9  7  1  0
 10 21  1  0
 10  9  1  0
 10 11  1  1
 12 11  1  0
 13 12  2  0
 14 13  1  0
 15 14  1  0
 15 20  2  0
 16 15  1  0
 17 16  2  0
 17 18  1  0
 18 19  2  0
 19 20  1  0
 20 12  1  0
 21 28  1  0
 22 21  2  0
 23 24  1  0
 24 25  1  0
 25 26  1  6
 25 27  1  0
 27 29  1  0
 27 28  1  1
 29 30  2  0
 29 31  1  0
M  END
$$$$
