IWI.pdb
     RDKit          3D

 31 32  0  0  1  0  0  0  0  0999 V2000
    6.5129  -12.6102   19.0623 C   0  0  0  0  0  0  0  0  0  0  0  0
    7.1029  -14.0153   19.2402 C   0  0  0  0  0  0  0  0  0  0  0  0
    7.8985  -13.9914   20.5208 C   0  0  2  0  0  0  0  0  0  0  0  0
    8.9948  -12.9788   20.5126 C   0  0  0  0  0  0  0  0  0  0  0  0
    8.4835  -15.3217   20.8978 C   0  0  2  0  0  0  0  0  0  0  0  0
    7.3559  -16.2601   20.9477 N   0  0  0  0  0  0  0  0  0  0  0  0
    9.1784  -15.2875   22.2059 C   0  0  0  0  0  0  0  0  0  0  0  0
   10.1515  -14.5066   22.3499 O   0  0  0  0  0  0  0  0  0  0  0  0
    8.8013  -16.0894   23.3013 N   0  0  0  0  0  0  0  0  0  0  0  0
    9.4821  -16.0013   24.6190 C   0  0  1  0  0  0  0  0  0  0  0  0
    8.4082  -16.2566   25.6260 C   0  0  0  0  0  0  0  0  0  0  0  0
    7.3342  -15.2450   25.6687 C   0  0  0  0  0  0  0  0  0  0  0  0
    6.0004  -15.3682   25.3588 C   0  0  0  0  0  0  0  0  0  0  0  0
    5.3810  -14.1892   25.5074 N   0  0  0  0  0  0  0  0  0  0  0  0
    6.2685  -13.2615   25.9139 C   0  0  0  0  0  0  0  0  0  0  0  0
    6.1490  -11.9051   26.2088 C   0  0  0  0  0  0  0  0  0  0  0  0
    7.2372  -11.1765   26.6097 C   0  0  0  0  0  0  0  0  0  0  0  0
    8.4501  -11.8413   26.7078 C   0  0  0  0  0  0  0  0  0  0  0  0
    8.5951  -13.1840   26.4214 C   0  0  0  0  0  0  0  0  0  0  0  0
    7.4806  -13.9056   26.0168 C   0  0  0  0  0  0  0  0  0  0  0  0
   10.4970  -17.0630   24.6438 C   0  0  0  0  0  0  0  0  0  0  0  0
   10.1192  -18.2333   24.2616 O   0  0  0  0  0  0  0  0  0  0  0  0
   15.6154  -16.2976   23.1134 C   0  0  0  0  0  0  0  0  0  0  0  0
   14.1737  -16.7208   23.4347 C   0  0  0  0  0  0  0  0  0  0  0  0
   14.1557  -17.6259   24.6414 C   0  0  2  0  0  0  0  0  0  0  0  0
   15.0414  -18.8313   24.4210 C   0  0  0  0  0  0  0  0  0  0  0  0
   12.7555  -18.0378   25.0563 C   0  0  2  0  0  0  0  0  0  0  0  0
   11.8618  -16.8965   25.0512 N   0  0  0  0  0  0  0  0  0  0  0  0
   12.7118  -18.8240   26.2841 C   0  0  0  0  0  0  0  0  0  0  0  0
   12.3259  -18.2897   27.3533 O   0  0  0  0  0  0  0  0  0  0  0  0
   13.0754  -20.1636   26.3657 O   0  0  0  0  0  0  0  0  0  0  0  0
  2  3  1  0
  2  1  1  0
  3  4  1  6
  5  6  1  1
  5  3  1  0
  7  8  2  0
  7  5  1  0
  9  7  1  0
 10 21  1  0
 10  9  1  0
 10 11  1  1
 12 11  1  0
 13 12  2  0
 14 13  1  0
 15 14  1  0
 15 20  2  0
 16 15  1  0
 17 16  2  0
 17 18  1  0
 18 19  2  0
 19 20  1  0
 20 12  1  0
 21 28  1  0
 22 21  2  0
 23 24  1  0
 24 25  1  0
 25 26  1  6
 25 27  1  0
 27 29  1  0
 27 28  1  1
 29 30  2  0
 29 31  1  0
M  END
$$$$
