IWI.pdb
     RDKit          3D

 31 32  0  0  1  0  0  0  0  0999 V2000
   13.4637  -18.8856   17.5534 C   0  0  0  0  0  0  0  0  0  0  0  0
   13.0884  -19.4842   18.9153 C   0  0  0  0  0  0  0  0  0  0  0  0
   12.6624  -18.3331   19.7911 C   0  0  2  0  0  0  0  0  0  0  0  0
   13.7327  -17.8794   20.7270 C   0  0  0  0  0  0  0  0  0  0  0  0
   11.4184  -18.6031   20.5872 C   0  0  2  0  0  0  0  0  0  0  0  0
   10.3551  -18.8486   19.6055 N   0  0  0  0  0  0  0  0  0  0  0  0
   11.0494  -17.4701   21.4678 C   0  0  0  0  0  0  0  0  0  0  0  0
   11.9117  -16.5889   21.7075 O   0  0  0  0  0  0  0  0  0  0  0  0
    9.7750  -17.3301   22.0521 N   0  0  0  0  0  0  0  0  0  0  0  0
    9.4372  -16.1989   22.9541 C   0  0  1  0  0  0  0  0  0  0  0  0
    7.9812  -15.9483   22.7302 C   0  0  0  0  0  0  0  0  0  0  0  0
    7.4649  -14.6909   23.3055 C   0  0  0  0  0  0  0  0  0  0  0  0
    7.1790  -13.4962   22.6883 C   0  0  0  0  0  0  0  0  0  0  0  0
    6.7575  -12.5994   23.5904 N   0  0  0  0  0  0  0  0  0  0  0  0
    6.7500  -13.1605   24.8146 C   0  0  0  0  0  0  0  0  0  0  0  0
    6.4058  -12.6749   26.0742 C   0  0  0  0  0  0  0  0  0  0  0  0
    6.4929  -13.4757   27.1820 C   0  0  0  0  0  0  0  0  0  0  0  0
    6.9343  -14.7770   26.9962 C   0  0  0  0  0  0  0  0  0  0  0  0
    7.2814  -15.2823   25.7593 C   0  0  0  0  0  0  0  0  0  0  0  0
    7.1864  -14.4554   24.6486 C   0  0  0  0  0  0  0  0  0  0  0  0
    9.6922  -16.6593   24.3256 C   0  0  0  0  0  0  0  0  0  0  0  0
    9.4643  -17.9030   24.5699 O   0  0  0  0  0  0  0  0  0  0  0  0
   10.1504  -13.6504   29.3421 C   0  0  0  0  0  0  0  0  0  0  0  0
    9.6858  -14.6405   28.2630 C   0  0  0  0  0  0  0  0  0  0  0  0
   10.8705  -15.3813   27.6943 C   0  0  2  0  0  0  0  0  0  0  0  0
   11.8804  -14.4153   27.1172 C   0  0  0  0  0  0  0  0  0  0  0  0
   10.4799  -16.4421   26.6822 C   0  0  2  0  0  0  0  0  0  0  0  0
   10.1751  -15.8404   25.3992 N   0  0  0  0  0  0  0  0  0  0  0  0
    9.4615  -17.3691   27.1632 C   0  0  0  0  0  0  0  0  0  0  0  0
    8.3145  -17.3556   26.6514 O   0  0  0  0  0  0  0  0  0  0  0  0
    9.6686  -18.2978   28.1770 O   0  0  0  0  0  0  0  0  0  0  0  0
  2  3  1  0
  2  1  1  0
  3  4  1  1
  5  6  1  6
  5  3  1  0
  7  8  2  0
  7  5  1  0
  9  7  1  0
 10 21  1  0
 10  9  1  0
 10 11  1  1
 12 11  1  0
 13 12  2  0
 14 13  1  0
 15 14  1  0
 15 20  2  0
 16 15  1  0
 17 16  2  0
 17 18  1  0
 18 19  2  0
 19 20  1  0
 20 12  1  0
 21 28  1  0
 22 21  2  0
 23 24  1  0
 24 25  1  0
 25 26  1  6
 25 27  1  0
 27 29  1  0
 27 28  1  6
 29 30  2  0
 29 31  1  0
M  END
$$$$
