IWI.pdb
     RDKit          3D

 31 32  0  0  1  0  0  0  0  0999 V2000
    9.1968  -13.8188   17.0727 C   0  0  0  0  0  0  0  0  0  0  0  0
    7.8881  -14.2765   17.7299 C   0  0  0  0  0  0  0  0  0  0  0  0
    8.0425  -14.0407   19.2112 C   0  0  2  0  0  0  0  0  0  0  0  0
    8.4069  -12.6329   19.5471 C   0  0  0  0  0  0  0  0  0  0  0  0
    9.0300  -14.9577   19.8730 C   0  0  2  0  0  0  0  0  0  0  0  0
    8.5602  -16.3217   19.6018 N   0  0  0  0  0  0  0  0  0  0  0  0
    9.1262  -14.7312   21.3340 C   0  0  0  0  0  0  0  0  0  0  0  0
    9.6855  -13.6843   21.7449 O   0  0  0  0  0  0  0  0  0  0  0  0
    8.6198  -15.6339   22.2899 N   0  0  0  0  0  0  0  0  0  0  0  0
    8.7726  -15.4091   23.7506 C   0  0  1  0  0  0  0  0  0  0  0  0
    7.6285  -16.1395   24.3753 C   0  0  0  0  0  0  0  0  0  0  0  0
    6.7195  -15.3061   25.1863 C   0  0  0  0  0  0  0  0  0  0  0  0
    5.5507  -15.6482   25.8242 C   0  0  0  0  0  0  0  0  0  0  0  0
    5.0220  -14.5744   26.4269 N   0  0  0  0  0  0  0  0  0  0  0  0
    5.8095  -13.5033   26.2122 C   0  0  0  0  0  0  0  0  0  0  0  0
    5.7199  -12.1705   26.6077 C   0  0  0  0  0  0  0  0  0  0  0  0
    6.6803  -11.2649   26.2424 C   0  0  0  0  0  0  0  0  0  0  0  0
    7.7344  -11.7284   25.4698 C   0  0  0  0  0  0  0  0  0  0  0  0
    7.8464  -13.0434   25.0649 C   0  0  0  0  0  0  0  0  0  0  0  0
    6.8632  -13.9462   25.4451 C   0  0  0  0  0  0  0  0  0  0  0  0
   10.0583  -16.0042   24.1389 C   0  0  0  0  0  0  0  0  0  0  0  0
   10.3907  -17.0993   23.5483 O   0  0  0  0  0  0  0  0  0  0  0  0
   10.0009  -13.9134   28.9019 C   0  0  0  0  0  0  0  0  0  0  0  0
   10.5359  -14.3359   27.5250 C   0  0  0  0  0  0  0  0  0  0  0  0
   10.8628  -15.8086   27.5252 C   0  0  2  0  0  0  0  0  0  0  0  0
   11.7806  -16.1540   28.6761 C   0  0  0  0  0  0  0  0  0  0  0  0
   11.4281  -16.2935   26.2033 C   0  0  2  0  0  0  0  0  0  0  0  0
   10.9635  -15.4624   25.1103 N   0  0  0  0  0  0  0  0  0  0  0  0
   11.2572  -17.7246   25.9787 C   0  0  0  0  0  0  0  0  0  0  0  0
   12.2609  -18.4798   25.9788 O   0  0  0  0  0  0  0  0  0  0  0  0
   10.0293  -18.3383   25.7580 O   0  0  0  0  0  0  0  0  0  0  0  0
  2  3  1  0
  2  1  1  0
  3  4  1  6
  5  6  1  1
  5  3  1  0
  7  8  2  0
  7  5  1  0
  9  7  1  0
 10 21  1  0
 10  9  1  0
 10 11  1  1
 12 11  1  0
 13 12  2  0
 14 13  1  0
 15 14  1  0
 15 20  2  0
 16 15  1  0
 17 16  2  0
 17 18  1  0
 18 19  2  0
 19 20  1  0
 20 12  1  0
 21 28  1  0
 22 21  2  0
 23 24  1  0
 24 25  1  0
 25 26  1  1
 25 27  1  0
 27 29  1  0
 27 28  1  6
 29 30  2  0
 29 31  1  0
M  END
$$$$
