IWI.pdb
     RDKit          3D

 31 32  0  0  1  0  0  0  0  0999 V2000
    8.2743  -12.7835   16.9483 C   0  0  0  0  0  0  0  0  0  0  0  0
    8.8088  -14.0580   17.6144 C   0  0  0  0  0  0  0  0  0  0  0  0
    8.4536  -13.9634   19.0767 C   0  0  2  0  0  0  0  0  0  0  0  0
    9.0413  -12.7669   19.7479 C   0  0  0  0  0  0  0  0  0  0  0  0
    8.8218  -15.1826   19.8718 C   0  0  2  0  0  0  0  0  0  0  0  0
    8.1834  -16.3165   19.1926 N   0  0  0  0  0  0  0  0  0  0  0  0
    8.3625  -15.1048   21.2782 C   0  0  0  0  0  0  0  0  0  0  0  0
    7.2918  -14.4979   21.5287 O   0  0  0  0  0  0  0  0  0  0  0  0
    9.0684  -15.6797   22.3536 N   0  0  0  0  0  0  0  0  0  0  0  0
    8.7492  -15.3638   23.7698 C   0  0  1  0  0  0  0  0  0  0  0  0
    7.4691  -16.0831   24.0466 C   0  0  0  0  0  0  0  0  0  0  0  0
    6.5050  -15.3475   24.8880 C   0  0  0  0  0  0  0  0  0  0  0  0
    5.2420  -15.7077   25.2945 C   0  0  0  0  0  0  0  0  0  0  0  0
    4.6962  -14.7284   26.0286 N   0  0  0  0  0  0  0  0  0  0  0  0
    5.5645  -13.7043   26.1314 C   0  0  0  0  0  0  0  0  0  0  0  0
    5.4960  -12.4681   26.7703 C   0  0  0  0  0  0  0  0  0  0  0  0
    6.5468  -11.5915   26.7153 C   0  0  0  0  0  0  0  0  0  0  0  0
    7.6698  -11.9844   26.0030 C   0  0  0  0  0  0  0  0  0  0  0  0
    7.7628  -13.2031   25.3612 C   0  0  0  0  0  0  0  0  0  0  0  0
    6.6875  -14.0781   25.4285 C   0  0  0  0  0  0  0  0  0  0  0  0
    9.8478  -15.9028   24.5825 C   0  0  0  0  0  0  0  0  0  0  0  0
   10.8001  -16.4940   23.9485 O   0  0  0  0  0  0  0  0  0  0  0  0
   10.6254  -13.5027   29.1724 C   0  0  0  0  0  0  0  0  0  0  0  0
   11.2535  -14.0979   27.9028 C   0  0  0  0  0  0  0  0  0  0  0  0
   11.3221  -15.6008   28.0137 C   0  0  2  0  0  0  0  0  0  0  0  0
   12.6074  -16.0311   28.6838 C   0  0  0  0  0  0  0  0  0  0  0  0
   11.1296  -16.3057   26.6839 C   0  0  2  0  0  0  0  0  0  0  0  0
    9.9424  -15.8171   26.0108 N   0  0  0  0  0  0  0  0  0  0  0  0
   11.2105  -17.7596   26.7703 C   0  0  0  0  0  0  0  0  0  0  0  0
   10.1565  -18.4407   26.8213 O   0  0  0  0  0  0  0  0  0  0  0  0
   12.4031  -18.4738   26.8006 O   0  0  0  0  0  0  0  0  0  0  0  0
  2  3  1  0
  2  1  1  0
  3  4  1  1
  5  6  1  6
  5  3  1  0
  7  8  2  0
  7  5  1  0
  9  7  1  0
 10 21  1  0
 10  9  1  0
 10 11  1  1
 12 11  1  0
 13 12  2  0
 14 13  1  0
 15 14  1  0
 15 20  2  0
 16 15  1  0
 17 16  2  0
 17 18  1  0
 18 19  2  0
 19 20  1  0
 20 12  1  0
 21 28  1  0
 22 21  2  0
 23 24  1  0
 24 25  1  0
 25 26  1  6
 25 27  1  0
 27 29  1  0
 27 28  1  1
 29 30  2  0
 29 31  1  0
M  END
$$$$
