IWI.pdb
     RDKit          3D

 31 32  0  0  1  0  0  0  0  0999 V2000
    8.2418  -13.6288   16.4058 C   0  0  0  0  0  0  0  0  0  0  0  0
    8.8130  -14.7552   17.2770 C   0  0  0  0  0  0  0  0  0  0  0  0
    8.5399  -14.3744   18.7101 C   0  0  2  0  0  0  0  0  0  0  0  0
    9.0364  -13.0113   19.0607 C   0  0  0  0  0  0  0  0  0  0  0  0
    9.0841  -15.3505   19.7127 C   0  0  2  0  0  0  0  0  0  0  0  0
    8.4462  -16.6378   19.4115 N   0  0  0  0  0  0  0  0  0  0  0  0
    8.7954  -14.9514   21.1100 C   0  0  0  0  0  0  0  0  0  0  0  0
    8.2695  -13.8301   21.3189 O   0  0  0  0  0  0  0  0  0  0  0  0
    9.0814  -15.7694   22.2210 N   0  0  0  0  0  0  0  0  0  0  0  0
    8.7401  -15.3667   23.6098 C   0  0  1  0  0  0  0  0  0  0  0  0
    7.4532  -16.0647   23.9087 C   0  0  0  0  0  0  0  0  0  0  0  0
    6.5451  -15.3433   24.8217 C   0  0  0  0  0  0  0  0  0  0  0  0
    5.3449  -15.7418   25.3609 C   0  0  0  0  0  0  0  0  0  0  0  0
    4.8316  -14.7634   26.1192 N   0  0  0  0  0  0  0  0  0  0  0  0
    5.6605  -13.7021   26.1080 C   0  0  0  0  0  0  0  0  0  0  0  0
    5.6012  -12.4507   26.7173 C   0  0  0  0  0  0  0  0  0  0  0  0
    6.6025  -11.5341   26.5350 C   0  0  0  0  0  0  0  0  0  0  0  0
    7.6662  -11.9029   25.7256 C   0  0  0  0  0  0  0  0  0  0  0  0
    7.7489  -13.1360   25.1105 C   0  0  0  0  0  0  0  0  0  0  0  0
    6.7243  -14.0515   25.3074 C   0  0  0  0  0  0  0  0  0  0  0  0
    9.8234  -15.8576   24.4720 C   0  0  0  0  0  0  0  0  0  0  0  0
   10.5750  -16.7834   23.9859 O   0  0  0  0  0  0  0  0  0  0  0  0
   10.8147  -14.0930   29.9132 C   0  0  0  0  0  0  0  0  0  0  0  0
   10.4322  -15.0881   28.8069 C   0  0  0  0  0  0  0  0  0  0  0  0
   11.5262  -15.1570   27.7704 C   0  0  2  0  0  0  0  0  0  0  0  0
   11.9506  -13.7693   27.3456 C   0  0  0  0  0  0  0  0  0  0  0  0
   11.1591  -16.0132   26.5728 C   0  0  2  0  0  0  0  0  0  0  0  0
   10.1078  -15.3862   25.7961 N   0  0  0  0  0  0  0  0  0  0  0  0
   10.9037  -17.4107   26.9034 C   0  0  0  0  0  0  0  0  0  0  0  0
   11.8244  -18.1152   27.3868 O   0  0  0  0  0  0  0  0  0  0  0  0
    9.6799  -18.0445   26.7198 O   0  0  0  0  0  0  0  0  0  0  0  0
  2  3  1  0
  2  1  1  0
  3  4  1  1
  5  6  1  6
  5  3  1  0
  7  8  2  0
  7  5  1  0
  9  7  1  0
 10 21  1  0
 10  9  1  0
 10 11  1  1
 12 11  1  0
 13 12  2  0
 14 13  1  0
 15 14  1  0
 15 20  2  0
 16 15  1  0
 17 16  2  0
 17 18  1  0
 18 19  2  0
 19 20  1  0
 20 12  1  0
 21 28  1  0
 22 21  2  0
 23 24  1  0
 24 25  1  0
 25 26  1  6
 25 27  1  0
 27 29  1  0
 27 28  1  1
 29 30  2  0
 29 31  1  0
M  END
$$$$
