IWI.pdb
     RDKit          3D

 31 32  0  0  1  0  0  0  0  0999 V2000
   10.9125  -19.4836   19.0000 C   0  0  0  0  0  0  0  0  0  0  0  0
   10.1860  -18.2138   19.4624 C   0  0  0  0  0  0  0  0  0  0  0  0
    8.8569  -18.6550   20.0211 C   0  0  2  0  0  0  0  0  0  0  0  0
    8.0171  -19.3891   19.0294 C   0  0  0  0  0  0  0  0  0  0  0  0
    8.0395  -17.5366   20.6001 C   0  0  2  0  0  0  0  0  0  0  0  0
    7.7544  -16.6249   19.4856 N   0  0  0  0  0  0  0  0  0  0  0  0
    8.7487  -16.8149   21.6824 C   0  0  0  0  0  0  0  0  0  0  0  0
    9.5046  -15.8604   21.3740 O   0  0  0  0  0  0  0  0  0  0  0  0
    8.6173  -17.1457   23.0456 N   0  0  0  0  0  0  0  0  0  0  0  0
    9.3392  -16.4065   24.1132 C   0  0  1  0  0  0  0  0  0  0  0  0
    8.4794  -16.5448   25.3274 C   0  0  0  0  0  0  0  0  0  0  0  0
    7.4298  -15.5174   25.4737 C   0  0  0  0  0  0  0  0  0  0  0  0
    6.0713  -15.6187   25.2882 C   0  0  0  0  0  0  0  0  0  0  0  0
    5.4866  -14.4314   25.4985 N   0  0  0  0  0  0  0  0  0  0  0  0
    6.4222  -13.5194   25.8248 C   0  0  0  0  0  0  0  0  0  0  0  0
    6.3515  -12.1631   26.1351 C   0  0  0  0  0  0  0  0  0  0  0  0
    7.4833  -11.4531   26.4363 C   0  0  0  0  0  0  0  0  0  0  0  0
    8.6897  -12.1367   26.4188 C   0  0  0  0  0  0  0  0  0  0  0  0
    8.7868  -13.4797   26.1147 C   0  0  0  0  0  0  0  0  0  0  0  0
    7.6286  -14.1822   25.8122 C   0  0  0  0  0  0  0  0  0  0  0  0
   10.6309  -17.0815   24.2973 C   0  0  0  0  0  0  0  0  0  0  0  0
   10.6272  -18.3672   24.2240 O   0  0  0  0  0  0  0  0  0  0  0  0
   15.3087  -14.9414   22.4654 C   0  0  0  0  0  0  0  0  0  0  0  0
   14.0934  -15.8041   22.8388 C   0  0  0  0  0  0  0  0  0  0  0  0
   14.2987  -16.4293   24.1963 C   0  0  2  0  0  0  0  0  0  0  0  0
   15.5486  -17.2801   24.2114 C   0  0  0  0  0  0  0  0  0  0  0  0
   13.0921  -17.2116   24.6804 C   0  0  2  0  0  0  0  0  0  0  0  0
   11.8819  -16.4254   24.5441 N   0  0  0  0  0  0  0  0  0  0  0  0
   13.2686  -17.8112   25.9984 C   0  0  0  0  0  0  0  0  0  0  0  0
   14.0686  -18.7682   26.1459 O   0  0  0  0  0  0  0  0  0  0  0  0
   12.5986  -17.3915   27.1422 O   0  0  0  0  0  0  0  0  0  0  0  0
  2  3  1  0
  2  1  1  0
  3  4  1  6
  5  6  1  6
  5  3  1  0
  7  8  2  0
  7  5  1  0
  9  7  1  0
 10 21  1  0
 10  9  1  0
 10 11  1  1
 12 11  1  0
 13 12  2  0
 14 13  1  0
 15 14  1  0
 15 20  2  0
 16 15  1  0
 17 16  2  0
 17 18  1  0
 18 19  2  0
 19 20  1  0
 20 12  1  0
 21 28  1  0
 22 21  2  0
 23 24  1  0
 24 25  1  0
 25 26  1  6
 25 27  1  0
 27 29  1  0
 27 28  1  1
 29 30  2  0
 29 31  1  0
M  END
$$$$
