TSL.pdb
     RDKit          3D

 22 21  0  0  1  0  0  0  0  0999 V2000
   17.6584   -9.0524  -18.2930 C   0  0  0  0  0  0  0  0  0  0  0  0
   16.9245   -9.8670  -17.2738 C   0  0  1  0  0  0  0  0  0  0  0  0
   16.1040  -10.8243  -17.8572 O   0  0  0  0  0  0  0  0  0  0  0  0
   17.8525  -10.5459  -16.2928 C   0  0  2  0  0  0  0  0  0  0  0  0
   17.0256  -11.3578  -15.4274 N   0  0  0  0  0  0  0  0  0  0  0  0
   18.6270   -9.5967  -15.4731 C   0  0  0  0  0  0  0  0  0  0  0  0
   18.0132   -8.7887  -14.7353 O   0  0  0  0  0  0  0  0  0  0  0  0
   22.9613   -8.2717  -13.6682 O   0  0  0  0  0  0  0  0  0  0  0  0
   22.2148   -9.0741  -14.5024 C   0  0  0  0  0  0  0  0  0  0  0  0
   20.7653   -8.5826  -14.6094 C   0  0  2  0  0  0  0  0  0  0  0  0
   20.0472   -9.5220  -15.4510 N   0  0  0  0  0  0  0  0  0  0  0  0
   20.7840   -7.2210  -15.1789 C   0  0  0  0  0  0  0  0  0  0  0  0
   20.8664   -7.1354  -16.4387 O   0  0  0  0  0  0  0  0  0  0  0  0
   18.0297   -1.9177  -14.6396 C   0  0  0  0  0  0  0  0  0  0  0  0
   19.2026   -2.6697  -15.2316 C   0  0  2  0  0  0  0  0  0  0  0  0
   19.3326   -2.3742  -16.6697 C   0  0  0  0  0  0  0  0  0  0  0  0
   19.3980   -4.0378  -14.7435 C   0  0  0  0  0  0  0  0  0  0  0  0
   20.7062   -4.6872  -14.9964 C   0  0  2  0  0  0  0  0  0  0  0  0
   20.7162   -6.0401  -14.4095 N   0  0  0  0  0  0  0  0  0  0  0  0
   21.8074   -3.9711  -14.3768 C   0  0  0  0  0  0  0  0  0  0  0  0
   22.4704   -2.9285  -14.9790 O   0  0  0  0  0  0  0  0  0  0  0  0
   22.2037   -4.2997  -13.2338 O   0  0  0  0  0  0  0  0  0  0  0  0
  2  1  1  6
  2  3  1  0
  4  5  1  1
  4  2  1  0
  6  4  1  0
  6  7  2  0
  9  8  1  0
 10  9  1  6
 10 11  1  0
 10 12  1  0
 11  6  1  0
 12 13  2  0
 12 19  1  0
 15 16  1  6
 15 14  1  0
 17 15  1  0
 18 17  1  1
 19 18  1  0
 20 18  1  0
 20 21  1  0
 22 20  2  0
M  END
$$$$
