TSL.pdb
     RDKit          3D

 22 21  0  0  1  0  0  0  0  0999 V2000
   19.8268  -10.7105  -16.4683 C   0  0  0  0  0  0  0  0  0  0  0  0
   18.4109  -10.6666  -16.9523 C   0  0  1  0  0  0  0  0  0  0  0  0
   18.0384  -11.8401  -17.5957 O   0  0  0  0  0  0  0  0  0  0  0  0
   17.4250  -10.3787  -15.8434 C   0  0  2  0  0  0  0  0  0  0  0  0
   16.1029  -10.4892  -16.4195 N   0  0  0  0  0  0  0  0  0  0  0  0
   17.5874   -9.0370  -15.2551 C   0  0  0  0  0  0  0  0  0  0  0  0
   17.7243   -8.0508  -16.0185 O   0  0  0  0  0  0  0  0  0  0  0  0
   18.3160   -8.4959  -11.1954 O   0  0  0  0  0  0  0  0  0  0  0  0
   17.6142   -7.4873  -11.8178 C   0  0  0  0  0  0  0  0  0  0  0  0
   17.8996   -7.4485  -13.3248 C   0  0  2  0  0  0  0  0  0  0  0  0
   17.6014   -8.7646  -13.8592 N   0  0  0  0  0  0  0  0  0  0  0  0
   19.3149   -7.0745  -13.5138 C   0  0  0  0  0  0  0  0  0  0  0  0
   20.1259   -8.0206  -13.7334 O   0  0  0  0  0  0  0  0  0  0  0  0
   22.7395   -5.4130  -17.3993 C   0  0  0  0  0  0  0  0  0  0  0  0
   22.6521   -5.2621  -15.8955 C   0  0  2  0  0  0  0  0  0  0  0  0
   23.9394   -5.6075  -15.2662 C   0  0  0  0  0  0  0  0  0  0  0  0
   21.3950   -5.6975  -15.2804 C   0  0  0  0  0  0  0  0  0  0  0  0
   21.1669   -5.3675  -13.8536 C   0  0  2  0  0  0  0  0  0  0  0  0
   19.7970   -5.7493  -13.4633 N   0  0  0  0  0  0  0  0  0  0  0  0
   21.2784   -3.9433  -13.5912 C   0  0  0  0  0  0  0  0  0  0  0  0
   22.4435   -3.3332  -13.1920 O   0  0  0  0  0  0  0  0  0  0  0  0
   20.2756   -3.2025  -13.7208 O   0  0  0  0  0  0  0  0  0  0  0  0
  2  1  1  1
  2  3  1  0
  4  5  1  6
  4  2  1  0
  6  4  1  0
  6  7  2  0
  9  8  1  0
 10  9  1  1
 10 11  1  0
 10 12  1  0
 11  6  1  0
 12 13  2  0
 12 19  1  0
 15 16  1  1
 15 14  1  0
 17 15  1  0
 18 17  1  6
 19 18  1  0
 20 18  1  0
 20 21  1  0
 22 20  2  0
M  END
$$$$
