TSL.pdb
     RDKit          3D

 22 21  0  0  1  0  0  0  0  0999 V2000
   28.6030  -17.9480  -15.1212 C   0  0  0  0  0  0  0  0  0  0  0  0
   27.4136  -18.7163  -14.6353 C   0  0  1  0  0  0  0  0  0  0  0  0
   26.3542  -18.6685  -15.5325 O   0  0  0  0  0  0  0  0  0  0  0  0
   27.7376  -20.1612  -14.3326 C   0  0  2  0  0  0  0  0  0  0  0  0
   28.0446  -20.7950  -15.5959 N   0  0  0  0  0  0  0  0  0  0  0  0
   26.6272  -20.8826  -13.6850 C   0  0  0  0  0  0  0  0  0  0  0  0
   25.8902  -21.6186  -14.3846 O   0  0  0  0  0  0  0  0  0  0  0  0
   25.3473  -19.9187   -9.8524 O   0  0  0  0  0  0  0  0  0  0  0  0
   25.1950  -21.2395  -10.2121 C   0  0  0  0  0  0  0  0  0  0  0  0
   25.1189  -21.4040  -11.7357 C   0  0  2  0  0  0  0  0  0  0  0  0
   26.3173  -20.8096  -12.2989 N   0  0  0  0  0  0  0  0  0  0  0  0
   23.8886  -20.7390  -12.2076 C   0  0  0  0  0  0  0  0  0  0  0  0
   23.9537  -19.4877  -12.3841 O   0  0  0  0  0  0  0  0  0  0  0  0
   22.2229  -19.0435  -15.4378 C   0  0  0  0  0  0  0  0  0  0  0  0
   22.1229  -20.5536  -15.4014 C   0  0  2  0  0  0  0  0  0  0  0  0
   22.1177  -21.1039  -16.7687 C   0  0  0  0  0  0  0  0  0  0  0  0
   21.2285  -21.1115  -14.3830 C   0  0  0  0  0  0  0  0  0  0  0  0
   21.4637  -20.7360  -12.9686 C   0  0  2  0  0  0  0  0  0  0  0  0
   22.6748  -21.4106  -12.4654 N   0  0  0  0  0  0  0  0  0  0  0  0
   20.3787  -21.1540  -12.0982 C   0  0  0  0  0  0  0  0  0  0  0  0
   20.3512  -22.3632  -11.4454 O   0  0  0  0  0  0  0  0  0  0  0  0
   19.3962  -20.3974  -11.9149 O   0  0  0  0  0  0  0  0  0  0  0  0
  2  1  1  6
  2  3  1  0
  4  5  1  6
  4  2  1  0
  6  4  1  0
  6  7  2  0
  9  8  1  0
 10  9  1  1
 10 11  1  0
 10 12  1  0
 11  6  1  0
 12 13  2  0
 12 19  1  0
 15 16  1  6
 15 14  1  0
 17 15  1  0
 18 17  1  6
 19 18  1  0
 20 18  1  0
 20 21  1  0
 22 20  2  0
M  END
$$$$
