TSL.pdb
     RDKit          3D

 22 21  0  0  1  0  0  0  0  0999 V2000
   21.4109  -32.1183  -10.2707 C   0  0  0  0  0  0  0  0  0  0  0  0
   21.3596  -33.2136  -11.2897 C   0  0  1  0  0  0  0  0  0  0  0  0
   20.5028  -32.9139  -12.3414 O   0  0  0  0  0  0  0  0  0  0  0  0
   22.7224  -33.5549  -11.8470 C   0  0  2  0  0  0  0  0  0  0  0  0
   22.5186  -34.5636  -12.8634 N   0  0  0  0  0  0  0  0  0  0  0  0
   23.6536  -34.0735  -10.8288 C   0  0  0  0  0  0  0  0  0  0  0  0
   23.2228  -34.8694   -9.9599 O   0  0  0  0  0  0  0  0  0  0  0  0
   27.4288  -32.4135  -10.1011 O   0  0  0  0  0  0  0  0  0  0  0  0
   27.3286  -33.7851  -10.0246 C   0  0  0  0  0  0  0  0  0  0  0  0
   25.8974  -34.2285   -9.6939 C   0  0  2  0  0  0  0  0  0  0  0  0
   25.0331  -33.7360  -10.7507 N   0  0  0  0  0  0  0  0  0  0  0  0
   25.5395  -33.6745   -8.3734 C   0  0  0  0  0  0  0  0  0  0  0  0
   24.7882  -32.6563   -8.3716 O   0  0  0  0  0  0  0  0  0  0  0  0
   22.0105  -33.7210   -4.2743 C   0  0  0  0  0  0  0  0  0  0  0  0
   23.4734  -33.3685   -4.4394 C   0  0  2  0  0  0  0  0  0  0  0  0
   23.7572  -32.0499   -3.8453 C   0  0  0  0  0  0  0  0  0  0  0  0
   24.0813  -33.7422   -5.7197 C   0  0  0  0  0  0  0  0  0  0  0  0
   25.5582  -33.6864   -5.8320 C   0  0  2  0  0  0  0  0  0  0  0  0
   25.9814  -34.2089   -7.1446 N   0  0  0  0  0  0  0  0  0  0  0  0
   26.2195  -34.5126   -4.8373 C   0  0  0  0  0  0  0  0  0  0  0  0
   26.7584  -34.0165   -3.6742 O   0  0  0  0  0  0  0  0  0  0  0  0
   26.3269  -35.7479   -5.0206 O   0  0  0  0  0  0  0  0  0  0  0  0
  2  1  1  1
  2  3  1  0
  4  5  1  6
  4  2  1  0
  6  4  1  0
  6  7  2  0
  9  8  1  0
 10  9  1  6
 10 11  1  0
 10 12  1  0
 11  6  1  0
 12 13  2  0
 12 19  1  0
 15 16  1  6
 15 14  1  0
 17 15  1  0
 18 17  1  6
 19 18  1  0
 20 18  1  0
 20 21  1  0
 22 20  2  0
M  END
$$$$
