TSL.pdb
     RDKit          3D

 22 21  0  0  1  0  0  0  0  0999 V2000
   17.3278  -13.0467  -17.0644 C   0  0  0  0  0  0  0  0  0  0  0  0
   18.1744  -14.0086  -17.8384 C   0  0  1  0  0  0  0  0  0  0  0  0
   17.5306  -15.2206  -18.0537 O   0  0  0  0  0  0  0  0  0  0  0  0
   18.6261  -13.4480  -19.1674 C   0  0  2  0  0  0  0  0  0  0  0  0
   19.4083  -14.4794  -19.8127 N   0  0  0  0  0  0  0  0  0  0  0  0
   19.4443  -12.2290  -19.0363 C   0  0  0  0  0  0  0  0  0  0  0  0
   20.6530  -12.3392  -18.7186 O   0  0  0  0  0  0  0  0  0  0  0  0
   17.8139   -8.3418  -19.0336 O   0  0  0  0  0  0  0  0  0  0  0  0
   19.0469   -8.5297  -19.6180 C   0  0  0  0  0  0  0  0  0  0  0  0
   19.7812   -9.7325  -19.0111 C   0  0  2  0  0  0  0  0  0  0  0  0
   18.9622  -10.9075  -19.2460 N   0  0  0  0  0  0  0  0  0  0  0  0
   19.9828   -9.4683  -17.5730 C   0  0  0  0  0  0  0  0  0  0  0  0
   19.0590   -9.8430  -16.7937 O   0  0  0  0  0  0  0  0  0  0  0  0
   21.8239  -10.8238  -13.7086 C   0  0  0  0  0  0  0  0  0  0  0  0
   22.8510  -10.3017  -14.6905 C   0  0  2  0  0  0  0  0  0  0  0  0
   24.2009  -10.7629  -14.3200 C   0  0  0  0  0  0  0  0  0  0  0  0
   22.6483   -8.9276  -15.1587 C   0  0  0  0  0  0  0  0  0  0  0  0
   21.2892   -8.5363  -15.6021 C   0  0  2  0  0  0  0  0  0  0  0  0
   21.1243   -8.8355  -17.0368 N   0  0  0  0  0  0  0  0  0  0  0  0
   21.0497   -7.1112  -15.4576 C   0  0  0  0  0  0  0  0  0  0  0  0
   20.7372   -6.5106  -14.2614 O   0  0  0  0  0  0  0  0  0  0  0  0
   21.1182   -6.3602  -16.4589 O   0  0  0  0  0  0  0  0  0  0  0  0
  2  1  1  6
  2  3  1  0
  4  5  1  1
  4  2  1  0
  6  4  1  0
  6  7  2  0
  9  8  1  0
 10  9  1  1
 10 11  1  0
 10 12  1  0
 11  6  1  0
 12 13  2  0
 12 19  1  0
 15 16  1  1
 15 14  1  0
 17 15  1  0
 18 17  1  6
 19 18  1  0
 20 18  1  0
 20 21  1  0
 22 20  2  0
M  END
$$$$
