TSL.pdb
     RDKit          3D

 22 21  0  0  1  0  0  0  0  0999 V2000
   18.5469   -9.7486  -18.7573 C   0  0  0  0  0  0  0  0  0  0  0  0
   17.6823  -10.4162  -17.7337 C   0  0  1  0  0  0  0  0  0  0  0  0
   16.9277  -11.4491  -18.2756 O   0  0  0  0  0  0  0  0  0  0  0  0
   18.4731  -10.9474  -16.5603 C   0  0  2  0  0  0  0  0  0  0  0  0
   17.5412  -11.6631  -15.7169 N   0  0  0  0  0  0  0  0  0  0  0  0
   19.1259   -9.8871  -15.7714 C   0  0  0  0  0  0  0  0  0  0  0  0
   18.4114   -9.0746  -15.1362 O   0  0  0  0  0  0  0  0  0  0  0  0
   23.1772   -9.0924  -16.1791 O   0  0  0  0  0  0  0  0  0  0  0  0
   22.6386   -8.7882  -14.9484 C   0  0  0  0  0  0  0  0  0  0  0  0
   21.1268   -8.5428  -15.0394 C   0  0  2  0  0  0  0  0  0  0  0  0
   20.5331   -9.7073  -15.6703 N   0  0  0  0  0  0  0  0  0  0  0  0
   20.9089   -7.3099  -15.8211 C   0  0  0  0  0  0  0  0  0  0  0  0
   20.4253   -7.4535  -16.9816 O   0  0  0  0  0  0  0  0  0  0  0  0
   17.8832   -3.1623  -17.6014 C   0  0  0  0  0  0  0  0  0  0  0  0
   19.3578   -3.4799  -17.4729 C   0  0  2  0  0  0  0  0  0  0  0  0
   20.0513   -3.2381  -18.7507 C   0  0  0  0  0  0  0  0  0  0  0  0
   19.6909   -4.6596  -16.6695 C   0  0  0  0  0  0  0  0  0  0  0  0
   21.0840   -4.8004  -16.1834 C   0  0  2  0  0  0  0  0  0  0  0  0
   21.2049   -6.0125  -15.3520 N   0  0  0  0  0  0  0  0  0  0  0  0
   21.4893   -3.6905  -15.3389 C   0  0  0  0  0  0  0  0  0  0  0  0
   21.5979   -3.7765  -13.9713 O   0  0  0  0  0  0  0  0  0  0  0  0
   21.7564   -2.5784  -15.8518 O   0  0  0  0  0  0  0  0  0  0  0  0
  2  1  1  6
  2  3  1  0
  4  5  1  1
  4  2  1  0
  6  4  1  0
  6  7  2  0
  9  8  1  0
 10  9  1  6
 10 11  1  0
 10 12  1  0
 11  6  1  0
 12 13  2  0
 12 19  1  0
 15 16  1  6
 15 14  1  0
 17 15  1  0
 18 17  1  1
 19 18  1  0
 20 18  1  0
 20 21  1  0
 22 20  2  0
M  END
$$$$
