TSL.pdb
     RDKit          3D

 22 21  0  0  1  0  0  0  0  0999 V2000
   33.2548  -10.1998  -17.6184 C   0  0  0  0  0  0  0  0  0  0  0  0
   33.1183  -11.3520  -18.5644 C   0  0  1  0  0  0  0  0  0  0  0  0
   34.1945  -12.2270  -18.4863 O   0  0  0  0  0  0  0  0  0  0  0  0
   31.8375  -12.1272  -18.3570 C   0  0  2  0  0  0  0  0  0  0  0  0
   31.9070  -13.2882  -19.2168 N   0  0  0  0  0  0  0  0  0  0  0  0
   30.6284  -11.3511  -18.6865 C   0  0  0  0  0  0  0  0  0  0  0  0
   30.4183  -11.0308  -19.8813 O   0  0  0  0  0  0  0  0  0  0  0  0
   28.2774   -9.5865  -15.7404 O   0  0  0  0  0  0  0  0  0  0  0  0
   27.6132   -9.9903  -16.8774 C   0  0  0  0  0  0  0  0  0  0  0  0
   28.5539  -10.0533  -18.0878 C   0  0  2  0  0  0  0  0  0  0  0  0
   29.6586  -10.9267  -17.7367 N   0  0  0  0  0  0  0  0  0  0  0  0
   29.0005   -8.6799  -18.3930 C   0  0  0  0  0  0  0  0  0  0  0  0
   30.1508   -8.3536  -17.9789 O   0  0  0  0  0  0  0  0  0  0  0  0
   29.8357   -4.2100  -21.0378 C   0  0  0  0  0  0  0  0  0  0  0  0
   30.6484   -5.4840  -20.9481 C   0  0  2  0  0  0  0  0  0  0  0  0
   31.5430   -5.6088  -22.1127 C   0  0  0  0  0  0  0  0  0  0  0  0
   29.9392   -6.6612  -20.4387 C   0  0  0  0  0  0  0  0  0  0  0  0
   28.7578   -6.4410  -19.5712 C   0  0  2  0  0  0  0  0  0  0  0  0
   28.2296   -7.7366  -19.1050 N   0  0  0  0  0  0  0  0  0  0  0  0
   27.6672   -5.7918  -20.2771 C   0  0  0  0  0  0  0  0  0  0  0  0
   26.7960   -6.4572  -21.1063 O   0  0  0  0  0  0  0  0  0  0  0  0
   27.4856   -4.5581  -20.1500 O   0  0  0  0  0  0  0  0  0  0  0  0
  2  1  1  1
  2  3  1  0
  4  5  1  6
  4  2  1  0
  6  4  1  0
  6  7  2  0
  9  8  1  0
 10  9  1  1
 10 11  1  0
 10 12  1  0
 11  6  1  0
 12 13  2  0
 12 19  1  0
 15 16  1  6
 15 14  1  0
 17 15  1  0
 18 17  1  6
 19 18  1  0
 20 18  1  0
 20 21  1  0
 22 20  2  0
M  END
$$$$
