TSL.pdb
     RDKit          3D

 22 21  0  0  1  0  0  0  0  0999 V2000
   28.3269  -33.3857   -3.7745 C   0  0  0  0  0  0  0  0  0  0  0  0
   27.9862  -33.4438   -2.3180 C   0  0  1  0  0  0  0  0  0  0  0  0
   26.8570  -32.6947   -2.0118 O   0  0  0  0  0  0  0  0  0  0  0  0
   27.7884  -34.8577   -1.8220 C   0  0  2  0  0  0  0  0  0  0  0  0
   26.6854  -35.4147   -2.5738 N   0  0  0  0  0  0  0  0  0  0  0  0
   27.4804  -34.9310   -0.3824 C   0  0  0  0  0  0  0  0  0  0  0  0
   26.2835  -34.8636   -0.0124 O   0  0  0  0  0  0  0  0  0  0  0  0
   30.4710  -34.8831    2.4351 O   0  0  0  0  0  0  0  0  0  0  0  0
   29.3438  -35.5713    2.8265 C   0  0  0  0  0  0  0  0  0  0  0  0
   28.1029  -35.1077    2.0524 C   0  0  2  0  0  0  0  0  0  0  0  0
   28.4539  -35.0755    0.6444 N   0  0  0  0  0  0  0  0  0  0  0  0
   27.7138  -33.7787    2.5634 C   0  0  0  0  0  0  0  0  0  0  0  0
   28.1852  -32.7767    1.9512 O   0  0  0  0  0  0  0  0  0  0  0  0
   25.2021  -30.2450    2.3243 C   0  0  0  0  0  0  0  0  0  0  0  0
   24.4897  -31.4738    2.8481 C   0  0  2  0  0  0  0  0  0  0  0  0
   23.0324  -31.3395    2.6736 C   0  0  0  0  0  0  0  0  0  0  0  0
   25.0305  -32.0496    4.0827 C   0  0  0  0  0  0  0  0  0  0  0  0
   26.4973  -32.2390    4.1786 C   0  0  2  0  0  0  0  0  0  0  0  0
   26.8647  -33.5742    3.6717 N   0  0  0  0  0  0  0  0  0  0  0  0
   26.9732  -32.1836    5.5497 C   0  0  0  0  0  0  0  0  0  0  0  0
   27.0756  -31.0187    6.2720 O   0  0  0  0  0  0  0  0  0  0  0  0
   27.3229  -33.2360    6.1340 O   0  0  0  0  0  0  0  0  0  0  0  0
  2  1  1  6
  2  3  1  0
  4  5  1  6
  4  2  1  0
  6  4  1  0
  6  7  2  0
  9  8  1  0
 10  9  1  1
 10 11  1  0
 10 12  1  0
 11  6  1  0
 12 13  2  0
 12 19  1  0
 15 16  1  1
 15 14  1  0
 17 15  1  0
 18 17  1  1
 19 18  1  0
 20 18  1  0
 20 21  1  0
 22 20  2  0
M  END
$$$$
