TSL.pdb
     RDKit          3D

 22 21  0  0  1  0  0  0  0  0999 V2000
   17.6997  -13.4356  -16.3755 C   0  0  0  0  0  0  0  0  0  0  0  0
   18.0654  -12.0150  -16.0773 C   0  0  1  0  0  0  0  0  0  0  0  0
   18.7029  -11.4002  -17.1476 O   0  0  0  0  0  0  0  0  0  0  0  0
   16.8735  -11.1802  -15.6687 C   0  0  2  0  0  0  0  0  0  0  0  0
   15.9939  -11.1169  -16.8152 N   0  0  0  0  0  0  0  0  0  0  0  0
   17.2355   -9.8114  -15.2589 C   0  0  0  0  0  0  0  0  0  0  0  0
   17.3181   -8.9163  -16.1341 O   0  0  0  0  0  0  0  0  0  0  0  0
   18.3893   -8.8960  -11.3742 O   0  0  0  0  0  0  0  0  0  0  0  0
   17.6933   -7.9150  -12.0453 C   0  0  0  0  0  0  0  0  0  0  0  0
   17.8514   -8.0508  -13.5654 C   0  0  2  0  0  0  0  0  0  0  0  0
   17.5048   -9.4150  -13.9198 N   0  0  0  0  0  0  0  0  0  0  0  0
   19.2472   -7.7192  -13.9125 C   0  0  0  0  0  0  0  0  0  0  0  0
   20.0456   -8.6926  -14.0386 O   0  0  0  0  0  0  0  0  0  0  0  0
   23.0997   -4.0651  -15.6101 C   0  0  0  0  0  0  0  0  0  0  0  0
   22.2797   -4.9752  -16.4995 C   0  0  2  0  0  0  0  0  0  0  0  0
   22.3051   -4.4954  -17.8928 C   0  0  0  0  0  0  0  0  0  0  0  0
   21.0317   -5.4810  -15.9207 C   0  0  0  0  0  0  0  0  0  0  0  0
   21.0881   -6.0964  -14.5735 C   0  0  2  0  0  0  0  0  0  0  0  0
   19.7240   -6.4053  -14.1058 N   0  0  0  0  0  0  0  0  0  0  0  0
   21.6614   -5.2036  -13.5817 C   0  0  0  0  0  0  0  0  0  0  0  0
   22.9762   -5.2535  -13.1841 O   0  0  0  0  0  0  0  0  0  0  0  0
   20.9450   -4.3324  -13.0350 O   0  0  0  0  0  0  0  0  0  0  0  0
  2  1  1  6
  2  3  1  0
  4  5  1  6
  4  2  1  0
  6  4  1  0
  6  7  2  0
  9  8  1  0
 10  9  1  1
 10 11  1  0
 10 12  1  0
 11  6  1  0
 12 13  2  0
 12 19  1  0
 15 16  1  6
 15 14  1  0
 17 15  1  0
 18 17  1  6
 19 18  1  0
 20 18  1  0
 20 21  1  0
 22 20  2  0
M  END
$$$$
