TSL.pdb
     RDKit          3D

 22 21  0  0  1  0  0  0  0  0999 V2000
   19.5938  -22.7422  -15.4064 C   0  0  0  0  0  0  0  0  0  0  0  0
   20.0800  -21.3335  -15.5476 C   0  0  1  0  0  0  0  0  0  0  0  0
   19.0618  -20.4053  -15.3696 O   0  0  0  0  0  0  0  0  0  0  0  0
   21.2120  -21.0103  -14.5998 C   0  0  2  0  0  0  0  0  0  0  0  0
   20.6812  -21.1245  -13.2592 N   0  0  0  0  0  0  0  0  0  0  0  0
   21.7611  -19.6557  -14.7904 C   0  0  0  0  0  0  0  0  0  0  0  0
   21.2727  -18.7038  -14.1351 O   0  0  0  0  0  0  0  0  0  0  0  0
   25.5783  -18.3681  -16.0921 O   0  0  0  0  0  0  0  0  0  0  0  0
   24.4741  -18.0159  -16.8363 C   0  0  0  0  0  0  0  0  0  0  0  0
   23.2059  -17.9652  -15.9743 C   0  0  2  0  0  0  0  0  0  0  0  0
   22.8247  -19.3340  -15.6782 N   0  0  0  0  0  0  0  0  0  0  0  0
   22.1645  -17.2452  -16.7331 C   0  0  0  0  0  0  0  0  0  0  0  0
   21.2458  -17.9506  -17.2425 O   0  0  0  0  0  0  0  0  0  0  0  0
   18.5575  -15.8442  -18.8356 C   0  0  0  0  0  0  0  0  0  0  0  0
   18.6264  -15.9558  -17.3275 C   0  0  2  0  0  0  0  0  0  0  0  0
   17.2859  -15.7955  -16.7361 C   0  0  0  0  0  0  0  0  0  0  0  0
   19.7883  -15.3282  -16.6916 C   0  0  0  0  0  0  0  0  0  0  0  0
   21.0049  -15.1222  -17.5128 C   0  0  2  0  0  0  0  0  0  0  0  0
   22.1421  -15.8461  -16.9146 N   0  0  0  0  0  0  0  0  0  0  0  0
   21.4020  -13.7265  -17.5719 C   0  0  0  0  0  0  0  0  0  0  0  0
   20.7617  -12.7864  -18.3437 O   0  0  0  0  0  0  0  0  0  0  0  0
   22.3807  -13.3250  -16.8995 O   0  0  0  0  0  0  0  0  0  0  0  0
  2  1  1  1
  2  3  1  0
  4  5  1  1
  4  2  1  0
  6  4  1  0
  6  7  2  0
  9  8  1  0
 10  9  1  6
 10 11  1  0
 10 12  1  0
 11  6  1  0
 12 13  2  0
 12 19  1  0
 15 16  1  1
 15 14  1  0
 17 15  1  0
 18 17  1  1
 19 18  1  0
 20 18  1  0
 20 21  1  0
 22 20  2  0
M  END
$$$$
