VCQ.pdb
     RDKit          3D

 23 22  0  0  1  0  0  0  0  0999 V2000
   16.1699  -13.1767  -18.0270 C   0  0  0  0  0  0  0  0  0  0  0  0
   16.5998  -12.0169  -17.1767 C   0  0  2  0  0  0  0  0  0  0  0  0
   16.5705  -10.7676  -18.0229 C   0  0  0  0  0  0  0  0  0  0  0  0
   18.0198  -12.2298  -16.6326 C   0  0  2  0  0  0  0  0  0  0  0  0
   17.9675  -13.4137  -15.8097 N   0  0  0  0  0  0  0  0  0  0  0  0
   18.4557  -11.0864  -15.8227 C   0  0  0  0  0  0  0  0  0  0  0  0
   17.8884  -10.9324  -14.6878 O   0  0  0  0  0  0  0  0  0  0  0  0
   19.4588  -10.1697  -16.2447 N   0  0  0  0  0  0  0  0  0  0  0  0
   19.7719   -9.0749  -15.3406 C   0  0  1  0  0  0  0  0  0  0  0  0
   21.2958   -9.0527  -15.2901 C   0  0  0  0  0  0  0  0  0  0  0  0
   21.8111   -7.9793  -13.9415 S   0  0  0  0  0  0  0  0  0  0  0  0
   19.3049   -7.7867  -15.8680 C   0  0  0  0  0  0  0  0  0  0  0  0
   19.4596   -7.5177  -17.1146 O   0  0  0  0  0  0  0  0  0  0  0  0
   14.3776   -4.6206  -15.3480 N   0  0  0  0  0  0  0  0  0  0  0  0
   15.1706   -3.5399  -15.7791 C   0  0  0  0  0  0  0  0  0  0  0  0
   14.7000   -2.5105  -16.3107 O   0  0  0  0  0  0  0  0  0  0  0  0
   16.6567   -3.6089  -15.5998 C   0  0  0  0  0  0  0  0  0  0  0  0
   17.0710   -4.9269  -15.0167 C   0  0  0  0  0  0  0  0  0  0  0  0
   18.2313   -5.5013  -15.7253 C   0  0  2  0  0  0  0  0  0  0  0  0
   18.6753   -6.7636  -15.1380 N   0  0  0  0  0  0  0  0  0  0  0  0
   19.3967   -4.6271  -15.8177 C   0  0  0  0  0  0  0  0  0  0  0  0
   19.5721   -3.7228  -16.8372 O   0  0  0  0  0  0  0  0  0  0  0  0
   20.3073   -4.6697  -14.9506 O   0  0  0  0  0  0  0  0  0  0  0  0
  2  1  1  6
  2  4  1  0
  3  2  1  0
  4  5  1  1
  6  4  1  0
  7  6  2  0
  8  6  1  0
  9  8  1  0
  9 12  1  0
  9 10  1  6
 11 10  1  0
 12 13  2  0
 12 20  1  0
 14 15  1  0
 15 16  2  0
 17 15  1  0
 17 18  1  0
 19 18  1  1
 19 21  1  0
 20 19  1  0
 21 22  1  0
 23 21  2  0
M  END
$$$$
