VCQ.pdb
     RDKit          3D

 23 22  0  0  1  0  0  0  0  0999 V2000
   19.6493  -21.4351  -12.5328 C   0  0  0  0  0  0  0  0  0  0  0  0
   20.8902  -20.6049  -12.3785 C   0  0  2  0  0  0  0  0  0  0  0  0
   20.5006  -19.1481  -12.4378 C   0  0  0  0  0  0  0  0  0  0  0  0
   21.8980  -20.9080  -13.4966 C   0  0  2  0  0  0  0  0  0  0  0  0
   21.9065  -22.3415  -13.6597 N   0  0  0  0  0  0  0  0  0  0  0  0
   23.2439  -20.4454  -13.1390 C   0  0  0  0  0  0  0  0  0  0  0  0
   23.5540  -19.2527  -13.4779 O   0  0  0  0  0  0  0  0  0  0  0  0
   24.1882  -21.2549  -12.4480 N   0  0  0  0  0  0  0  0  0  0  0  0
   25.4960  -20.6714  -12.1969 C   0  0  1  0  0  0  0  0  0  0  0  0
   25.9974  -21.3936  -10.9510 C   0  0  0  0  0  0  0  0  0  0  0  0
   25.0294  -20.8430   -9.5381 S   0  0  0  0  0  0  0  0  0  0  0  0
   26.4294  -20.9402  -13.2980 C   0  0  0  0  0  0  0  0  0  0  0  0
   26.7715  -22.1507  -13.5586 O   0  0  0  0  0  0  0  0  0  0  0  0
   23.3553  -21.0084  -17.3685 N   0  0  0  0  0  0  0  0  0  0  0  0
   24.4488  -20.8536  -18.2418 C   0  0  0  0  0  0  0  0  0  0  0  0
   24.3622  -20.9850  -19.4824 O   0  0  0  0  0  0  0  0  0  0  0  0
   25.7932  -20.5139  -17.6738 C   0  0  0  0  0  0  0  0  0  0  0  0
   25.7482  -20.4520  -16.1762 C   0  0  0  0  0  0  0  0  0  0  0  0
   27.0625  -20.1069  -15.6003 C   0  0  2  0  0  0  0  0  0  0  0  0
   27.0200  -19.9861  -14.1446 N   0  0  0  0  0  0  0  0  0  0  0  0
   27.6680  -18.8861  -16.1238 C   0  0  0  0  0  0  0  0  0  0  0  0
   28.6275  -18.8915  -17.1073 O   0  0  0  0  0  0  0  0  0  0  0  0
   27.3299  -17.7568  -15.6842 O   0  0  0  0  0  0  0  0  0  0  0  0
  2  1  1  6
  2  4  1  0
  3  2  1  0
  4  5  1  1
  6  4  1  0
  7  6  2  0
  8  6  1  0
  9  8  1  0
  9 12  1  0
  9 10  1  1
 11 10  1  0
 12 13  2  0
 12 20  1  0
 14 15  1  0
 15 16  2  0
 17 15  1  0
 17 18  1  0
 19 18  1  6
 19 21  1  0
 20 19  1  0
 21 22  1  0
 23 21  2  0
M  END
$$$$
