VCQ.pdb
     RDKit          3D

 23 22  0  0  1  0  0  0  0  0999 V2000
   17.7310  -10.2611  -18.7516 C   0  0  0  0  0  0  0  0  0  0  0  0
   19.0625  -10.4431  -19.4204 C   0  0  2  0  0  0  0  0  0  0  0  0
   18.8331  -11.0465  -20.7845 C   0  0  0  0  0  0  0  0  0  0  0  0
   19.9686  -11.3716  -18.5991 C   0  0  2  0  0  0  0  0  0  0  0  0
   19.2392  -12.6044  -18.4264 N   0  0  0  0  0  0  0  0  0  0  0  0
   20.2730  -10.7919  -17.2858 C   0  0  0  0  0  0  0  0  0  0  0  0
   19.4699  -11.0700  -16.3312 O   0  0  0  0  0  0  0  0  0  0  0  0
   21.3986   -9.9553  -17.0452 N   0  0  0  0  0  0  0  0  0  0  0  0
   21.5544   -9.4339  -15.6970 C   0  0  1  0  0  0  0  0  0  0  0  0
   22.8590  -10.0503  -15.2036 C   0  0  0  0  0  0  0  0  0  0  0  0
   23.2011   -9.4266  -13.5512 S   0  0  0  0  0  0  0  0  0  0  0  0
   21.6999   -7.9728  -15.6949 C   0  0  0  0  0  0  0  0  0  0  0  0
   22.4990   -7.4136  -16.5309 O   0  0  0  0  0  0  0  0  0  0  0  0
   17.1752   -5.5530  -17.1914 N   0  0  0  0  0  0  0  0  0  0  0  0
   17.9510   -5.4118  -16.0250 C   0  0  0  0  0  0  0  0  0  0  0  0
   17.5525   -5.7494  -14.8888 O   0  0  0  0  0  0  0  0  0  0  0  0
   19.3275   -4.8291  -16.1310 C   0  0  0  0  0  0  0  0  0  0  0  0
   20.0259   -4.8453  -14.8040 C   0  0  0  0  0  0  0  0  0  0  0  0
   21.2769   -5.6268  -14.8505 C   0  0  2  0  0  0  0  0  0  0  0  0
   21.0354   -7.0680  -14.8490 N   0  0  0  0  0  0  0  0  0  0  0  0
   22.2273   -5.3407  -13.7799 C   0  0  0  0  0  0  0  0  0  0  0  0
   23.1494   -4.3247  -13.8526 O   0  0  0  0  0  0  0  0  0  0  0  0
   22.2417   -6.0292  -12.7271 O   0  0  0  0  0  0  0  0  0  0  0  0
  2  1  1  1
  2  4  1  0
  3  2  1  0
  4  5  1  1
  6  4  1  0
  7  6  2  0
  8  6  1  0
  9  8  1  0
  9 12  1  0
  9 10  1  6
 11 10  1  0
 12 13  2  0
 12 20  1  0
 14 15  1  0
 15 16  2  0
 17 15  1  0
 17 18  1  0
 19 18  1  1
 19 21  1  0
 20 19  1  0
 21 22  1  0
 23 21  2  0
M  END
$$$$
