VCQ.pdb
     RDKit          3D

 23 22  0  0  1  0  0  0  0  0999 V2000
   20.5394  -12.7579  -19.3569 C   0  0  0  0  0  0  0  0  0  0  0  0
   20.0505  -11.5643  -18.5891 C   0  0  2  0  0  0  0  0  0  0  0  0
   19.6074  -10.5112  -19.5751 C   0  0  0  0  0  0  0  0  0  0  0  0
   21.1610  -10.9911  -17.6971 C   0  0  2  0  0  0  0  0  0  0  0  0
   21.7038  -12.1039  -16.9565 N   0  0  0  0  0  0  0  0  0  0  0  0
   20.6299   -9.9910  -16.7637 C   0  0  0  0  0  0  0  0  0  0  0  0
   20.2036   -8.8974  -17.2695 O   0  0  0  0  0  0  0  0  0  0  0  0
   20.5745  -10.1908  -15.3560 N   0  0  0  0  0  0  0  0  0  0  0  0
   20.0873   -9.0812  -14.5527 C   0  0  1  0  0  0  0  0  0  0  0  0
   19.8641   -9.6863  -13.1710 C   0  0  0  0  0  0  0  0  0  0  0  0
   19.3496   -8.3795  -12.0468 S   0  0  0  0  0  0  0  0  0  0  0  0
   21.0900   -8.0148  -14.4374 C   0  0  0  0  0  0  0  0  0  0  0  0
   22.3137   -8.3184  -14.1911 O   0  0  0  0  0  0  0  0  0  0  0  0
   22.9390   -3.9889  -18.2143 N   0  0  0  0  0  0  0  0  0  0  0  0
   23.5556   -3.4114  -17.0878 C   0  0  0  0  0  0  0  0  0  0  0  0
   24.4653   -2.5568  -17.1641 O   0  0  0  0  0  0  0  0  0  0  0  0
   23.1121   -3.8302  -15.7191 C   0  0  0  0  0  0  0  0  0  0  0  0
   22.0462   -4.8824  -15.7937 C   0  0  0  0  0  0  0  0  0  0  0  0
   21.9190   -5.6272  -14.5259 C   0  0  2  0  0  0  0  0  0  0  0  0
   20.8615   -6.6345  -14.5737 N   0  0  0  0  0  0  0  0  0  0  0  0
   21.6866   -4.8036  -13.3432 C   0  0  0  0  0  0  0  0  0  0  0  0
   22.7061   -4.2442  -12.6113 O   0  0  0  0  0  0  0  0  0  0  0  0
   20.5189   -4.5705  -12.9370 O   0  0  0  0  0  0  0  0  0  0  0  0
  2  1  1  6
  2  4  1  0
  3  2  1  0
  4  5  1  1
  6  4  1  0
  7  6  2  0
  8  6  1  0
  9  8  1  0
  9 12  1  0
  9 10  1  1
 11 10  1  0
 12 13  2  0
 12 20  1  0
 14 15  1  0
 15 16  2  0
 17 15  1  0
 17 18  1  0
 19 18  1  6
 19 21  1  0
 20 19  1  0
 21 22  1  0
 23 21  2  0
M  END
$$$$
