FWA.pdb
     RDKit          3D

 31 33  0  0  1  0  0  0  0  0999 V2000
    5.4217  -17.3112   21.3244 N   0  0  0  0  0  0  0  0  0  0  0  0
    6.5725  -17.9472   21.8851 C   0  0  1  0  0  0  0  0  0  0  0  0
    7.2751  -18.8035   20.8505 C   0  0  0  0  0  0  0  0  0  0  0  0
    7.5334  -20.1775   21.3840 C   0  0  0  0  0  0  0  0  0  0  0  0
    7.0703  -20.5011   22.6356 C   0  0  0  0  0  0  0  0  0  0  0  0
    7.3049  -21.7659   23.1326 C   0  0  0  0  0  0  0  0  0  0  0  0
    7.9909  -22.6980   22.3961 C   0  0  0  0  0  0  0  0  0  0  0  0
    8.4466  -22.3522   21.1426 C   0  0  0  0  0  0  0  0  0  0  0  0
    8.2273  -21.0968   20.6204 C   0  0  0  0  0  0  0  0  0  0  0  0
    7.5430  -16.9522   22.4074 C   0  0  0  0  0  0  0  0  0  0  0  0
    7.9006  -15.9646   21.7264 O   0  0  0  0  0  0  0  0  0  0  0  0
    8.0819  -17.1201   23.7109 N   0  0  0  0  0  0  0  0  0  0  0  0
    9.0610  -16.2545   24.3140 C   0  0  1  0  0  0  0  0  0  0  0  0
    8.7510  -15.9687   25.7670 C   0  0  0  0  0  0  0  0  0  0  0  0
    7.5271  -15.1608   25.9177 C   0  0  0  0  0  0  0  0  0  0  0  0
    6.2073  -15.5602   25.9386 C   0  0  0  0  0  0  0  0  0  0  0  0
    5.4195  -14.4762   26.0968 N   0  0  0  0  0  0  0  0  0  0  0  0
    6.1527  -13.3629   26.1834 C   0  0  0  0  0  0  0  0  0  0  0  0
    5.8342  -12.0370   26.3451 C   0  0  0  0  0  0  0  0  0  0  0  0
    6.8490  -11.1154   26.3968 C   0  0  0  0  0  0  0  0  0  0  0  0
    8.1626  -11.5101   26.2888 C   0  0  0  0  0  0  0  0  0  0  0  0
    8.4836  -12.8424   26.1262 C   0  0  0  0  0  0  0  0  0  0  0  0
    7.4818  -13.7865   26.0713 C   0  0  0  0  0  0  0  0  0  0  0  0
   10.4135  -16.8349   24.2515 C   0  0  0  0  0  0  0  0  0  0  0  0
   10.6426  -17.9287   24.7997 O   0  0  0  0  0  0  0  0  0  0  0  0
   13.5298  -15.8928   22.4254 C   0  0  0  0  0  0  0  0  0  0  0  0
   12.7515  -16.7404   23.3797 C   0  0  2  0  0  0  0  0  0  0  0  0
   11.4370  -16.1491   23.5728 N   0  0  0  0  0  0  0  0  0  0  0  0
   13.4194  -16.8769   24.6999 C   0  0  0  0  0  0  0  0  0  0  0  0
   12.8992  -16.3785   25.7304 O   0  0  0  0  0  0  0  0  0  0  0  0
   14.6230  -17.5467   24.8543 O   0  0  0  0  0  0  0  0  0  0  0  0
  2  1  1  6
  2  3  1  0
  2 10  1  0
  3  4  1  0
  4  5  2  0
  4  9  1  0
  5  6  1  0
  6  7  2  0
  8  7  1  0
  9  8  2  0
 10 11  2  0
 12 10  1  0
 12 13  1  0
 13 14  1  1
 14 15  1  0
 15 16  2  0
 16 17  1  0
 18 17  1  0
 19 18  2  0
 20 19  1  0
 21 22  1  0
 21 20  2  0
 22 23  2  0
 23 15  1  0
 23 18  1  0
 24 13  1  0
 24 25  2  0
 27 26  1  6
 27 29  1  0
 27 28  1  0
 28 24  1  0
 29 31  1  0
 30 29  2  0
M  END
$$$$
