FWA.pdb
     RDKit          3D

 31 33  0  0  1  0  0  0  0  0999 V2000
    5.8371  -18.3111   25.3895 N   0  0  0  0  0  0  0  0  0  0  0  0
    6.4518  -17.0209   25.4132 C   0  0  1  0  0  0  0  0  0  0  0  0
    6.7292  -16.5802   26.8366 C   0  0  0  0  0  0  0  0  0  0  0  0
    7.0480  -15.1190   26.8883 C   0  0  0  0  0  0  0  0  0  0  0  0
    6.0619  -14.2136   26.5825 C   0  0  0  0  0  0  0  0  0  0  0  0
    6.3494  -12.8657   26.6287 C   0  0  0  0  0  0  0  0  0  0  0  0
    7.6006  -12.4220   26.9742 C   0  0  0  0  0  0  0  0  0  0  0  0
    8.5752  -13.3476   27.2774 C   0  0  0  0  0  0  0  0  0  0  0  0
    8.3171  -14.6999   27.2397 C   0  0  0  0  0  0  0  0  0  0  0  0
    7.7330  -17.0153   24.6627 C   0  0  0  0  0  0  0  0  0  0  0  0
    8.4112  -18.0570   24.5150 O   0  0  0  0  0  0  0  0  0  0  0  0
    8.2051  -15.8013   24.0963 N   0  0  0  0  0  0  0  0  0  0  0  0
    9.2978  -15.6982   23.1651 C   0  0  1  0  0  0  0  0  0  0  0  0
    9.4043  -14.3146   22.5624 C   0  0  0  0  0  0  0  0  0  0  0  0
    8.3473  -14.0685   21.5646 C   0  0  0  0  0  0  0  0  0  0  0  0
    6.9806  -13.9929   21.7323 C   0  0  0  0  0  0  0  0  0  0  0  0
    6.4009  -13.7519   20.5380 N   0  0  0  0  0  0  0  0  0  0  0  0
    7.3194  -13.6620   19.5721 C   0  0  0  0  0  0  0  0  0  0  0  0
    7.2435  -13.4331   18.2202 C   0  0  0  0  0  0  0  0  0  0  0  0
    8.4041  -13.4002   17.4897 C   0  0  0  0  0  0  0  0  0  0  0  0
    9.6230  -13.5928   18.0982 C   0  0  0  0  0  0  0  0  0  0  0  0
    9.7001  -13.8228   19.4568 C   0  0  0  0  0  0  0  0  0  0  0  0
    8.5482  -13.8604   20.2115 C   0  0  0  0  0  0  0  0  0  0  0  0
   10.5888  -16.0082   23.8033 C   0  0  0  0  0  0  0  0  0  0  0  0
   11.0091  -15.2893   24.7284 O   0  0  0  0  0  0  0  0  0  0  0  0
   13.1094  -18.7335   23.3971 C   0  0  0  0  0  0  0  0  0  0  0  0
   12.6638  -17.3944   23.8899 C   0  0  2  0  0  0  0  0  0  0  0  0
   11.3376  -17.1144   23.3631 N   0  0  0  0  0  0  0  0  0  0  0  0
   13.5853  -16.3006   23.4874 C   0  0  0  0  0  0  0  0  0  0  0  0
   14.4732  -15.8934   24.2791 O   0  0  0  0  0  0  0  0  0  0  0  0
   13.5111  -15.6902   22.2452 O   0  0  0  0  0  0  0  0  0  0  0  0
  2  1  1  1
  2  3  1  0
  2 10  1  0
  3  4  1  0
  4  5  2  0
  4  9  1  0
  5  6  1  0
  6  7  2  0
  8  7  1  0
  9  8  2  0
 10 11  2  0
 12 10  1  0
 12 13  1  0
 13 14  1  1
 14 15  1  0
 15 16  2  0
 16 17  1  0
 18 17  1  0
 19 18  2  0
 20 19  1  0
 21 22  1  0
 21 20  2  0
 22 23  2  0
 23 15  1  0
 23 18  1  0
 24 13  1  0
 24 25  2  0
 27 26  1  6
 27 29  1  0
 27 28  1  0
 28 24  1  0
 29 31  1  0
 30 29  2  0
M  END
$$$$
