FWA.pdb
     RDKit          3D

 31 33  0  0  1  0  0  0  0  0999 V2000
    7.7674  -16.8994   19.8522 N   0  0  0  0  0  0  0  0  0  0  0  0
    8.3793  -17.7022   20.8643 C   0  0  1  0  0  0  0  0  0  0  0  0
    9.3568  -18.6876   20.2555 C   0  0  0  0  0  0  0  0  0  0  0  0
    8.6488  -19.6532   19.3578 C   0  0  0  0  0  0  0  0  0  0  0  0
    8.6719  -19.4377   18.0019 C   0  0  0  0  0  0  0  0  0  0  0  0
    8.0216  -20.3243   17.1695 C   0  0  0  0  0  0  0  0  0  0  0  0
    7.3565  -21.4113   17.6770 C   0  0  0  0  0  0  0  0  0  0  0  0
    7.3459  -21.6085   19.0406 C   0  0  0  0  0  0  0  0  0  0  0  0
    7.9865  -20.7400   19.8963 C   0  0  0  0  0  0  0  0  0  0  0  0
    9.1090  -16.8679   21.8524 C   0  0  0  0  0  0  0  0  0  0  0  0
    9.9054  -15.9715   21.4932 O   0  0  0  0  0  0  0  0  0  0  0  0
    8.9019  -17.0880   23.2403 N   0  0  0  0  0  0  0  0  0  0  0  0
    9.6021  -16.4033   24.2952 C   0  0  1  0  0  0  0  0  0  0  0  0
    8.8059  -16.3728   25.5813 C   0  0  0  0  0  0  0  0  0  0  0  0
    7.6310  -15.4882   25.4777 C   0  0  0  0  0  0  0  0  0  0  0  0
    6.3165  -15.8015   25.2028 C   0  0  0  0  0  0  0  0  0  0  0  0
    5.5818  -14.6698   25.2069 N   0  0  0  0  0  0  0  0  0  0  0  0
    6.3458  -13.6067   25.4731 C   0  0  0  0  0  0  0  0  0  0  0  0
    6.0822  -12.2639   25.5877 C   0  0  0  0  0  0  0  0  0  0  0  0
    7.1162  -11.4102   25.8774 C   0  0  0  0  0  0  0  0  0  0  0  0
    8.3946  -11.8885   26.0503 C   0  0  0  0  0  0  0  0  0  0  0  0
    8.6604  -13.2378   25.9353 C   0  0  0  0  0  0  0  0  0  0  0  0
    7.6383  -14.1148   25.6449 C   0  0  0  0  0  0  0  0  0  0  0  0
   10.8998  -17.0360   24.5880 C   0  0  0  0  0  0  0  0  0  0  0  0
   10.9342  -18.1971   25.0353 O   0  0  0  0  0  0  0  0  0  0  0  0
   14.4520  -15.9803   24.0960 C   0  0  0  0  0  0  0  0  0  0  0  0
   13.3941  -16.9513   24.5117 C   0  0  2  0  0  0  0  0  0  0  0  0
   12.0910  -16.3238   24.3602 N   0  0  0  0  0  0  0  0  0  0  0  0
   13.5530  -17.4036   25.9181 C   0  0  0  0  0  0  0  0  0  0  0  0
   14.0751  -18.5188   26.1724 O   0  0  0  0  0  0  0  0  0  0  0  0
   13.1414  -16.6328   26.9940 O   0  0  0  0  0  0  0  0  0  0  0  0
  2  1  1  6
  2  3  1  0
  2 10  1  0
  3  4  1  0
  4  5  2  0
  4  9  1  0
  5  6  1  0
  6  7  2  0
  8  7  1  0
  9  8  2  0
 10 11  2  0
 12 10  1  0
 12 13  1  0
 13 14  1  1
 14 15  1  0
 15 16  2  0
 16 17  1  0
 18 17  1  0
 19 18  2  0
 20 19  1  0
 21 22  1  0
 21 20  2  0
 22 23  2  0
 23 15  1  0
 23 18  1  0
 24 13  1  0
 24 25  2  0
 27 26  1  1
 27 29  1  0
 27 28  1  0
 28 24  1  0
 29 31  1  0
 30 29  2  0
M  END
$$$$
