FWA.pdb
     RDKit          3D

 31 33  0  0  1  0  0  0  0  0999 V2000
    8.5433  -17.4110   21.9009 N   0  0  0  0  0  0  0  0  0  0  0  0
    9.8356  -16.8052   21.8209 C   0  0  1  0  0  0  0  0  0  0  0  0
    9.8349  -15.6587   20.8295 C   0  0  0  0  0  0  0  0  0  0  0  0
    8.7310  -14.6947   21.1322 C   0  0  0  0  0  0  0  0  0  0  0  0
    7.4382  -15.1560   21.1662 C   0  0  0  0  0  0  0  0  0  0  0  0
    6.4166  -14.2726   21.4448 C   0  0  0  0  0  0  0  0  0  0  0  0
    6.6754  -12.9474   21.6867 C   0  0  0  0  0  0  0  0  0  0  0  0
    7.9800  -12.5057   21.6475 C   0  0  0  0  0  0  0  0  0  0  0  0
    9.0205  -13.3648   21.3720 C   0  0  0  0  0  0  0  0  0  0  0  0
   10.2741  -16.2838   23.1402 C   0  0  0  0  0  0  0  0  0  0  0  0
   11.2549  -15.5135   23.2481 O   0  0  0  0  0  0  0  0  0  0  0  0
    9.5669  -16.6649   24.3116 N   0  0  0  0  0  0  0  0  0  0  0  0
   10.0188  -16.4310   25.6580 C   0  0  1  0  0  0  0  0  0  0  0  0
    8.8673  -16.2822   26.6279 C   0  0  0  0  0  0  0  0  0  0  0  0
    7.7767  -15.4666   26.0628 C   0  0  0  0  0  0  0  0  0  0  0  0
    6.6188  -15.8653   25.4288 C   0  0  0  0  0  0  0  0  0  0  0  0
    5.9098  -14.7733   25.0747 N   0  0  0  0  0  0  0  0  0  0  0  0
    6.5410  -13.6552   25.4435 C   0  0  0  0  0  0  0  0  0  0  0  0
    6.2424  -12.3209   25.3168 C   0  0  0  0  0  0  0  0  0  0  0  0
    7.1243  -11.3962   25.8157 C   0  0  0  0  0  0  0  0  0  0  0  0
    8.2875  -11.7962   26.4323 C   0  0  0  0  0  0  0  0  0  0  0  0
    8.5885  -13.1370   26.5600 C   0  0  0  0  0  0  0  0  0  0  0  0
    7.7182  -14.0843   26.0668 C   0  0  0  0  0  0  0  0  0  0  0  0
   10.8735  -17.5280   26.1442 C   0  0  0  0  0  0  0  0  0  0  0  0
   11.2338  -17.5491   27.3355 O   0  0  0  0  0  0  0  0  0  0  0  0
   11.9200  -20.8096   24.7954 C   0  0  0  0  0  0  0  0  0  0  0  0
   12.1378  -19.6330   25.6914 C   0  0  2  0  0  0  0  0  0  0  0  0
   11.2765  -18.5441   25.2591 N   0  0  0  0  0  0  0  0  0  0  0  0
   13.5480  -19.1649   25.6890 C   0  0  0  0  0  0  0  0  0  0  0  0
   14.4542  -19.8737   26.1962 O   0  0  0  0  0  0  0  0  0  0  0  0
   13.9230  -17.9494   25.1385 O   0  0  0  0  0  0  0  0  0  0  0  0
  2  1  1  1
  2  3  1  0
  2 10  1  0
  3  4  1  0
  4  5  2  0
  4  9  1  0
  5  6  1  0
  6  7  2  0
  8  7  1  0
  9  8  2  0
 10 11  2  0
 12 10  1  0
 12 13  1  0
 13 14  1  1
 14 15  1  0
 15 16  2  0
 16 17  1  0
 18 17  1  0
 19 18  2  0
 20 19  1  0
 21 22  1  0
 21 20  2  0
 22 23  2  0
 23 15  1  0
 23 18  1  0
 24 13  1  0
 24 25  2  0
 27 26  1  6
 27 29  1  0
 27 28  1  0
 28 24  1  0
 29 31  1  0
 30 29  2  0
M  END
$$$$
