FWA.pdb
     RDKit          3D

 31 33  0  0  1  0  0  0  0  0999 V2000
    8.4550  -16.8412   21.5221 N   0  0  0  0  0  0  0  0  0  0  0  0
    9.8356  -16.5033   21.6737 C   0  0  1  0  0  0  0  0  0  0  0  0
   10.1504  -15.1918   20.9821 C   0  0  0  0  0  0  0  0  0  0  0  0
    8.9237  -14.3424   20.8691 C   0  0  0  0  0  0  0  0  0  0  0  0
    8.9477  -13.0702   21.3855 C   0  0  0  0  0  0  0  0  0  0  0  0
    7.8204  -12.2824   21.2841 C   0  0  0  0  0  0  0  0  0  0  0  0
    6.6831  -12.7519   20.6775 C   0  0  0  0  0  0  0  0  0  0  0  0
    6.6807  -14.0313   20.1662 C   0  0  0  0  0  0  0  0  0  0  0  0
    7.7916  -14.8408   20.2528 C   0  0  0  0  0  0  0  0  0  0  0  0
   10.2110  -16.3803   23.1050 C   0  0  0  0  0  0  0  0  0  0  0  0
   11.2207  -15.7340   23.4652 O   0  0  0  0  0  0  0  0  0  0  0  0
    9.4083  -17.0093   24.0938 N   0  0  0  0  0  0  0  0  0  0  0  0
    9.6364  -16.9274   25.5127 C   0  0  1  0  0  0  0  0  0  0  0  0
    8.3457  -16.7930   26.2904 C   0  0  0  0  0  0  0  0  0  0  0  0
    7.5254  -15.6697   25.8014 C   0  0  0  0  0  0  0  0  0  0  0  0
    6.3930  -15.6856   25.0145 C   0  0  0  0  0  0  0  0  0  0  0  0
    5.9761  -14.4181   24.8137 N   0  0  0  0  0  0  0  0  0  0  0  0
    6.7799  -13.5485   25.4320 C   0  0  0  0  0  0  0  0  0  0  0  0
    6.7853  -12.1789   25.5311 C   0  0  0  0  0  0  0  0  0  0  0  0
    7.7763  -11.5733   26.2611 C   0  0  0  0  0  0  0  0  0  0  0  0
    8.7482  -12.3226   26.8833 C   0  0  0  0  0  0  0  0  0  0  0  0
    8.7436  -13.6991   26.7841 C   0  0  0  0  0  0  0  0  0  0  0  0
    7.7585  -14.3300   26.0565 C   0  0  0  0  0  0  0  0  0  0  0  0
   10.3424  -18.1163   26.0206 C   0  0  0  0  0  0  0  0  0  0  0  0
    9.9109  -19.2527   25.7526 O   0  0  0  0  0  0  0  0  0  0  0  0
   13.6784  -18.7117   27.4737 C   0  0  0  0  0  0  0  0  0  0  0  0
   12.2473  -19.1056   27.2963 C   0  0  2  0  0  0  0  0  0  0  0  0
   11.4993  -17.9594   26.8050 N   0  0  0  0  0  0  0  0  0  0  0  0
   11.6250  -19.5852   28.5574 C   0  0  0  0  0  0  0  0  0  0  0  0
   10.6303  -18.9885   29.0428 O   0  0  0  0  0  0  0  0  0  0  0  0
   12.1021  -20.6907   29.2440 O   0  0  0  0  0  0  0  0  0  0  0  0
  2  1  1  1
  2  3  1  0
  2 10  1  0
  3  4  1  0
  4  5  2  0
  4  9  1  0
  5  6  1  0
  6  7  2  0
  8  7  1  0
  9  8  2  0
 10 11  2  0
 12 10  1  0
 12 13  1  0
 13 14  1  1
 14 15  1  0
 15 16  2  0
 16 17  1  0
 18 17  1  0
 19 18  2  0
 20 19  1  0
 21 22  1  0
 21 20  2  0
 22 23  2  0
 23 15  1  0
 23 18  1  0
 24 13  1  0
 24 25  2  0
 27 26  1  1
 27 29  1  0
 27 28  1  0
 28 24  1  0
 29 31  1  0
 30 29  2  0
M  END
$$$$
