FWA.pdb
     RDKit          3D

 31 33  0  0  1  0  0  0  0  0999 V2000
    8.6418  -16.6633   21.6727 N   0  0  0  0  0  0  0  0  0  0  0  0
    9.9338  -16.0904   21.8864 C   0  0  1  0  0  0  0  0  0  0  0  0
    9.9909  -14.6719   21.3557 C   0  0  0  0  0  0  0  0  0  0  0  0
    8.6887  -14.2865   20.7270 C   0  0  0  0  0  0  0  0  0  0  0  0
    7.6709  -13.8370   21.5317 C   0  0  0  0  0  0  0  0  0  0  0  0
    6.4686  -13.4801   20.9583 C   0  0  0  0  0  0  0  0  0  0  0  0
    6.2792  -13.5683   19.6025 C   0  0  0  0  0  0  0  0  0  0  0  0
    7.3138  -14.0218   18.8137 C   0  0  0  0  0  0  0  0  0  0  0  0
    8.5254  -14.3853   19.3583 C   0  0  0  0  0  0  0  0  0  0  0  0
   10.2856  -16.0657   23.3287 C   0  0  0  0  0  0  0  0  0  0  0  0
   11.3053  -15.4710   23.7452 O   0  0  0  0  0  0  0  0  0  0  0  0
    9.4480  -16.7313   24.2631 N   0  0  0  0  0  0  0  0  0  0  0  0
    9.7185  -16.8496   25.6719 C   0  0  1  0  0  0  0  0  0  0  0  0
    8.4524  -16.8225   26.4995 C   0  0  0  0  0  0  0  0  0  0  0  0
    7.5703  -15.7054   26.1154 C   0  0  0  0  0  0  0  0  0  0  0  0
    6.4500  -15.7066   25.3112 C   0  0  0  0  0  0  0  0  0  0  0  0
    5.9583  -14.4524   25.2357 N   0  0  0  0  0  0  0  0  0  0  0  0
    6.7000  -13.6057   25.9552 C   0  0  0  0  0  0  0  0  0  0  0  0
    6.6200  -12.2562   26.1961 C   0  0  0  0  0  0  0  0  0  0  0  0
    7.5636  -11.6721   27.0025 C   0  0  0  0  0  0  0  0  0  0  0  0
    8.5727  -12.4228   27.5606 C   0  0  0  0  0  0  0  0  0  0  0  0
    8.6538  -13.7790   27.3189 C   0  0  0  0  0  0  0  0  0  0  0  0
    7.7176  -14.3882   26.5124 C   0  0  0  0  0  0  0  0  0  0  0  0
   10.4314  -18.0997   25.9867 C   0  0  0  0  0  0  0  0  0  0  0  0
    9.9766  -19.1876   25.5882 O   0  0  0  0  0  0  0  0  0  0  0  0
   13.8059  -18.9081   27.2477 C   0  0  0  0  0  0  0  0  0  0  0  0
   12.3669  -19.2630   27.0523 C   0  0  2  0  0  0  0  0  0  0  0  0
   11.6212  -18.0554   26.7356 N   0  0  0  0  0  0  0  0  0  0  0  0
   11.7668  -19.9017   28.2521 C   0  0  0  0  0  0  0  0  0  0  0  0
   10.7980  -19.3605   28.8432 O   0  0  0  0  0  0  0  0  0  0  0  0
   12.2373  -21.1001   28.7656 O   0  0  0  0  0  0  0  0  0  0  0  0
  2  1  1  1
  2  3  1  0
  2 10  1  0
  3  4  1  0
  4  5  2  0
  4  9  1  0
  5  6  1  0
  6  7  2  0
  8  7  1  0
  9  8  2  0
 10 11  2  0
 12 10  1  0
 12 13  1  0
 13 14  1  1
 14 15  1  0
 15 16  2  0
 16 17  1  0
 18 17  1  0
 19 18  2  0
 20 19  1  0
 21 22  1  0
 21 20  2  0
 22 23  2  0
 23 15  1  0
 23 18  1  0
 24 13  1  0
 24 25  2  0
 27 26  1  1
 27 29  1  0
 27 28  1  0
 28 24  1  0
 29 31  1  0
 30 29  2  0
M  END
$$$$
