FWA.pdb
     RDKit          3D

 31 33  0  0  1  0  0  0  0  0999 V2000
    6.8821  -20.3260   20.5841 N   0  0  0  0  0  0  0  0  0  0  0  0
    6.9982  -20.1977   22.0030 C   0  0  1  0  0  0  0  0  0  0  0  0
    7.7170  -21.3926   22.5970 C   0  0  0  0  0  0  0  0  0  0  0  0
    6.9539  -22.6540   22.3399 C   0  0  0  0  0  0  0  0  0  0  0  0
    5.8231  -22.9071   23.0767 C   0  0  0  0  0  0  0  0  0  0  0  0
    5.1155  -24.0676   22.8442 C   0  0  0  0  0  0  0  0  0  0  0  0
    5.5254  -24.9659   21.8920 C   0  0  0  0  0  0  0  0  0  0  0  0
    6.6629  -24.6922   21.1641 C   0  0  0  0  0  0  0  0  0  0  0  0
    7.3898  -23.5414   21.3744 C   0  0  0  0  0  0  0  0  0  0  0  0
    7.7424  -18.9689   22.3786 C   0  0  0  0  0  0  0  0  0  0  0  0
    8.7741  -18.6136   21.7652 O   0  0  0  0  0  0  0  0  0  0  0  0
    7.2765  -18.1734   23.4592 N   0  0  0  0  0  0  0  0  0  0  0  0
    7.9263  -16.9846   23.9454 C   0  0  1  0  0  0  0  0  0  0  0  0
    6.9348  -15.9582   24.4477 C   0  0  0  0  0  0  0  0  0  0  0  0
    7.5967  -14.6967   24.8274 C   0  0  0  0  0  0  0  0  0  0  0  0
    8.8373  -14.2127   24.4693 C   0  0  0  0  0  0  0  0  0  0  0  0
    9.0302  -13.0128   25.0555 N   0  0  0  0  0  0  0  0  0  0  0  0
    7.9716  -12.6676   25.7938 C   0  0  0  0  0  0  0  0  0  0  0  0
    7.6820  -11.5710   26.5679 C   0  0  0  0  0  0  0  0  0  0  0  0
    6.4735  -11.5198   27.2149 C   0  0  0  0  0  0  0  0  0  0  0  0
    5.5667  -12.5473   27.0920 C   0  0  0  0  0  0  0  0  0  0  0  0
    5.8571  -13.6498   26.3144 C   0  0  0  0  0  0  0  0  0  0  0  0
    7.0643  -13.7239   25.6548 C   0  0  0  0  0  0  0  0  0  0  0  0
    8.8564  -17.2842   25.0478 C   0  0  0  0  0  0  0  0  0  0  0  0
    8.4410  -17.8692   26.0650 O   0  0  0  0  0  0  0  0  0  0  0  0
   12.5669  -17.2771   25.1844 C   0  0  0  0  0  0  0  0  0  0  0  0
   11.2253  -17.4736   25.8140 C   0  0  2  0  0  0  0  0  0  0  0  0
   10.2074  -16.9073   24.9435 N   0  0  0  0  0  0  0  0  0  0  0  0
   11.1234  -16.8399   27.1540 C   0  0  0  0  0  0  0  0  0  0  0  0
   10.5421  -15.7335   27.2917 O   0  0  0  0  0  0  0  0  0  0  0  0
   11.6537  -17.4268   28.2922 O   0  0  0  0  0  0  0  0  0  0  0  0
  2  1  1  6
  2  3  1  0
  2 10  1  0
  3  4  1  0
  4  5  2  0
  4  9  1  0
  5  6  1  0
  6  7  2  0
  8  7  1  0
  9  8  2  0
 10 11  2  0
 12 10  1  0
 12 13  1  0
 13 14  1  1
 14 15  1  0
 15 16  2  0
 16 17  1  0
 18 17  1  0
 19 18  2  0
 20 19  1  0
 21 22  1  0
 21 20  2  0
 22 23  2  0
 23 15  1  0
 23 18  1  0
 24 13  1  0
 24 25  2  0
 27 26  1  6
 27 29  1  0
 27 28  1  0
 28 24  1  0
 29 31  1  0
 30 29  2  0
M  END
$$$$
