FWA.pdb
     RDKit          3D

 31 33  0  0  1  0  0  0  0  0999 V2000
    8.8734  -18.8950   27.7218 N   0  0  0  0  0  0  0  0  0  0  0  0
    8.7456  -17.7213   26.9160 C   0  0  1  0  0  0  0  0  0  0  0  0
   10.0409  -16.9344   26.8975 C   0  0  0  0  0  0  0  0  0  0  0  0
   10.0290  -15.8660   27.9452 C   0  0  0  0  0  0  0  0  0  0  0  0
    9.4679  -14.6491   27.6454 C   0  0  0  0  0  0  0  0  0  0  0  0
    9.4537  -13.6606   28.6069 C   0  0  0  0  0  0  0  0  0  0  0  0
    9.9899  -13.8775   29.8507 C   0  0  0  0  0  0  0  0  0  0  0  0
   10.5479  -15.1059   30.1303 C   0  0  0  0  0  0  0  0  0  0  0  0
   10.5764  -16.1119   29.1901 C   0  0  0  0  0  0  0  0  0  0  0  0
    8.3829  -18.0597   25.5164 C   0  0  0  0  0  0  0  0  0  0  0  0
    8.3890  -19.2418   25.1047 O   0  0  0  0  0  0  0  0  0  0  0  0
    8.0190  -17.0207   24.6188 N   0  0  0  0  0  0  0  0  0  0  0  0
    7.5776  -17.2216   23.2636 C   0  0  1  0  0  0  0  0  0  0  0  0
    6.5443  -16.1996   22.8435 C   0  0  0  0  0  0  0  0  0  0  0  0
    7.0377  -14.8204   23.0111 C   0  0  0  0  0  0  0  0  0  0  0  0
    7.5419  -13.9469   22.0707 C   0  0  0  0  0  0  0  0  0  0  0  0
    7.8733  -12.7877   22.6763 N   0  0  0  0  0  0  0  0  0  0  0  0
    7.6136  -12.8429   23.9856 C   0  0  0  0  0  0  0  0  0  0  0  0
    7.7680  -11.9461   25.0139 C   0  0  0  0  0  0  0  0  0  0  0  0
    7.3943  -12.3212   26.2794 C   0  0  0  0  0  0  0  0  0  0  0  0
    6.8742  -13.5728   26.5162 C   0  0  0  0  0  0  0  0  0  0  0  0
    6.7187  -14.4748   25.4834 C   0  0  0  0  0  0  0  0  0  0  0  0
    7.0868  -14.1209   24.2038 C   0  0  0  0  0  0  0  0  0  0  0  0
    8.6968  -17.1439   22.3088 C   0  0  0  0  0  0  0  0  0  0  0  0
    8.5307  -17.5105   21.1309 O   0  0  0  0  0  0  0  0  0  0  0  0
   11.7825  -15.3106   21.9751 C   0  0  0  0  0  0  0  0  0  0  0  0
   11.0968  -16.6328   21.8468 C   0  0  2  0  0  0  0  0  0  0  0  0
    9.9453  -16.6561   22.7346 N   0  0  0  0  0  0  0  0  0  0  0  0
   11.9877  -17.7744   22.1796 C   0  0  0  0  0  0  0  0  0  0  0  0
   11.7103  -18.5391   23.1384 O   0  0  0  0  0  0  0  0  0  0  0  0
   13.1430  -18.0445   21.4631 O   0  0  0  0  0  0  0  0  0  0  0  0
  2  1  1  1
  2  3  1  0
  2 10  1  0
  3  4  1  0
  4  5  2  0
  4  9  1  0
  5  6  1  0
  6  7  2  0
  8  7  1  0
  9  8  2  0
 10 11  2  0
 12 10  1  0
 12 13  1  0
 13 14  1  6
 14 15  1  0
 15 16  2  0
 16 17  1  0
 18 17  1  0
 19 18  2  0
 20 19  1  0
 21 22  1  0
 21 20  2  0
 22 23  2  0
 23 15  1  0
 23 18  1  0
 24 13  1  0
 24 25  2  0
 27 26  1  1
 27 29  1  0
 27 28  1  0
 28 24  1  0
 29 31  1  0
 30 29  2  0
M  END
$$$$
