FWA.pdb
     RDKit          3D

 31 33  0  0  1  0  0  0  0  0999 V2000
   10.0482  -16.8193   20.0029 N   0  0  0  0  0  0  0  0  0  0  0  0
    9.5051  -16.1190   21.1244 C   0  0  1  0  0  0  0  0  0  0  0  0
    8.0209  -15.8726   20.9411 C   0  0  0  0  0  0  0  0  0  0  0  0
    7.7830  -14.6390   20.1281 C   0  0  0  0  0  0  0  0  0  0  0  0
    7.1951  -14.7615   18.8932 C   0  0  0  0  0  0  0  0  0  0  0  0
    6.9730  -13.6283   18.1393 C   0  0  0  0  0  0  0  0  0  0  0  0
    7.3302  -12.3887   18.6058 C   0  0  0  0  0  0  0  0  0  0  0  0
    7.9187  -12.2886   19.8476 C   0  0  0  0  0  0  0  0  0  0  0  0
    8.1528  -13.4027   20.6226 C   0  0  0  0  0  0  0  0  0  0  0  0
    9.7020  -16.8771   22.3859 C   0  0  0  0  0  0  0  0  0  0  0  0
   10.1874  -18.0309   22.3889 O   0  0  0  0  0  0  0  0  0  0  0  0
    9.3325  -16.2833   23.6222 N   0  0  0  0  0  0  0  0  0  0  0  0
   10.1195  -16.3332   24.8264 C   0  0  1  0  0  0  0  0  0  0  0  0
    9.9070  -15.1141   25.6968 C   0  0  0  0  0  0  0  0  0  0  0  0
    8.4796  -14.7622   25.8083 C   0  0  0  0  0  0  0  0  0  0  0  0
    7.3626  -15.5358   25.5725 C   0  0  0  0  0  0  0  0  0  0  0  0
    6.2568  -14.7972   25.8006 N   0  0  0  0  0  0  0  0  0  0  0  0
    6.5813  -13.5581   26.1803 C   0  0  0  0  0  0  0  0  0  0  0  0
    5.8394  -12.4537   26.5201 C   0  0  0  0  0  0  0  0  0  0  0  0
    6.4941  -11.3011   26.8728 C   0  0  0  0  0  0  0  0  0  0  0  0
    7.8690  -11.2503   26.8866 C   0  0  0  0  0  0  0  0  0  0  0  0
    8.6154  -12.3597   26.5452 C   0  0  0  0  0  0  0  0  0  0  0  0
    7.9804  -13.5288   26.1874 C   0  0  0  0  0  0  0  0  0  0  0  0
    9.8011  -17.5216   25.6366 C   0  0  0  0  0  0  0  0  0  0  0  0
    8.6299  -17.9402   25.6858 O   0  0  0  0  0  0  0  0  0  0  0  0
   11.5298  -20.4202   26.8199 C   0  0  0  0  0  0  0  0  0  0  0  0
   10.5510  -19.3454   27.1683 C   0  0  2  0  0  0  0  0  0  0  0  0
   10.8227  -18.1752   26.3489 N   0  0  0  0  0  0  0  0  0  0  0  0
   10.6125  -18.9577   28.6013 C   0  0  0  0  0  0  0  0  0  0  0  0
   10.9124  -17.7816   28.9296 O   0  0  0  0  0  0  0  0  0  0  0  0
   10.3473  -19.8563   29.6228 O   0  0  0  0  0  0  0  0  0  0  0  0
  2  1  1  6
  2  3  1  0
  2 10  1  0
  3  4  1  0
  4  5  2  0
  4  9  1  0
  5  6  1  0
  6  7  2  0
  8  7  1  0
  9  8  2  0
 10 11  2  0
 12 10  1  0
 12 13  1  0
 13 14  1  1
 14 15  1  0
 15 16  2  0
 16 17  1  0
 18 17  1  0
 19 18  2  0
 20 19  1  0
 21 22  1  0
 21 20  2  0
 22 23  2  0
 23 15  1  0
 23 18  1  0
 24 13  1  0
 24 25  2  0
 27 26  1  1
 27 29  1  0
 27 28  1  0
 28 24  1  0
 29 31  1  0
 30 29  2  0
M  END
$$$$
