FWA.pdb
     RDKit          3D

 31 33  0  0  1  0  0  0  0  0999 V2000
    7.9807  -15.8768   20.0570 N   0  0  0  0  0  0  0  0  0  0  0  0
    8.7328  -16.8653   20.7646 C   0  0  1  0  0  0  0  0  0  0  0  0
    9.7964  -17.4757   19.8738 C   0  0  0  0  0  0  0  0  0  0  0  0
    9.1735  -18.2050   18.7251 C   0  0  0  0  0  0  0  0  0  0  0  0
    8.5907  -19.4273   18.9530 C   0  0  0  0  0  0  0  0  0  0  0  0
    8.0148  -20.1042   17.8985 C   0  0  0  0  0  0  0  0  0  0  0  0
    8.0175  -19.5741   16.6333 C   0  0  0  0  0  0  0  0  0  0  0  0
    8.6079  -18.3463   16.4270 C   0  0  0  0  0  0  0  0  0  0  0  0
    9.1907  -17.6475   17.4607 C   0  0  0  0  0  0  0  0  0  0  0  0
    9.3975  -16.2891   21.9608 C   0  0  0  0  0  0  0  0  0  0  0  0
   10.0954  -15.2525   21.8881 O   0  0  0  0  0  0  0  0  0  0  0  0
    9.2407  -16.9255   23.2210 N   0  0  0  0  0  0  0  0  0  0  0  0
    9.8677  -16.4958   24.4433 C   0  0  1  0  0  0  0  0  0  0  0  0
    8.9176  -16.5463   25.6195 C   0  0  0  0  0  0  0  0  0  0  0  0
    7.7617  -15.6511   25.4293 C   0  0  0  0  0  0  0  0  0  0  0  0
    6.5260  -15.9163   24.8777 C   0  0  0  0  0  0  0  0  0  0  0  0
    5.7780  -14.7938   24.9076 N   0  0  0  0  0  0  0  0  0  0  0  0
    6.4575  -13.7829   25.4563 C   0  0  0  0  0  0  0  0  0  0  0  0
    6.1481  -12.4692   25.7095 C   0  0  0  0  0  0  0  0  0  0  0  0
    7.0934  -11.6700   26.3007 C   0  0  0  0  0  0  0  0  0  0  0  0
    8.3296  -12.1734   26.6346 C   0  0  0  0  0  0  0  0  0  0  0  0
    8.6414  -13.4936   26.3805 C   0  0  0  0  0  0  0  0  0  0  0  0
    7.7084  -14.3157   25.7875 C   0  0  0  0  0  0  0  0  0  0  0  0
   11.0370  -17.3271   24.7774 C   0  0  0  0  0  0  0  0  0  0  0  0
   10.9450  -18.5678   24.7369 O   0  0  0  0  0  0  0  0  0  0  0  0
   14.6398  -16.6382   24.9327 C   0  0  0  0  0  0  0  0  0  0  0  0
   13.4695  -17.4843   25.3191 C   0  0  2  0  0  0  0  0  0  0  0  0
   12.2495  -16.7133   25.1399 N   0  0  0  0  0  0  0  0  0  0  0  0
   13.5427  -17.9543   26.7267 C   0  0  0  0  0  0  0  0  0  0  0  0
   12.6791  -17.5895   27.5646 O   0  0  0  0  0  0  0  0  0  0  0  0
   14.5461  -18.7999   27.1730 O   0  0  0  0  0  0  0  0  0  0  0  0
  2  1  1  6
  2  3  1  0
  2 10  1  0
  3  4  1  0
  4  5  2  0
  4  9  1  0
  5  6  1  0
  6  7  2  0
  8  7  1  0
  9  8  2  0
 10 11  2  0
 12 10  1  0
 12 13  1  0
 13 14  1  1
 14 15  1  0
 15 16  2  0
 16 17  1  0
 18 17  1  0
 19 18  2  0
 20 19  1  0
 21 22  1  0
 21 20  2  0
 22 23  2  0
 23 15  1  0
 23 18  1  0
 24 13  1  0
 24 25  2  0
 27 26  1  1
 27 29  1  0
 27 28  1  0
 28 24  1  0
 29 31  1  0
 30 29  2  0
M  END
$$$$
