FWA.pdb
     RDKit          3D

 31 33  0  0  1  0  0  0  0  0999 V2000
   11.5790  -16.4782   19.2998 N   0  0  0  0  0  0  0  0  0  0  0  0
   10.4395  -15.7731   19.7972 C   0  0  1  0  0  0  0  0  0  0  0  0
    9.1784  -16.2068   19.0770 C   0  0  0  0  0  0  0  0  0  0  0  0
    8.2954  -15.0317   18.7962 C   0  0  0  0  0  0  0  0  0  0  0  0
    7.1819  -14.8373   19.5759 C   0  0  0  0  0  0  0  0  0  0  0  0
    6.3645  -13.7560   19.3222 C   0  0  0  0  0  0  0  0  0  0  0  0
    6.6491  -12.8784   18.3070 C   0  0  0  0  0  0  0  0  0  0  0  0
    7.7714  -13.0923   17.5369 C   0  0  0  0  0  0  0  0  0  0  0  0
    8.6060  -14.1634   17.7669 C   0  0  0  0  0  0  0  0  0  0  0  0
   10.2508  -16.0025   21.2520 C   0  0  0  0  0  0  0  0  0  0  0  0
   11.1492  -16.5147   21.9573 O   0  0  0  0  0  0  0  0  0  0  0  0
    9.0229  -15.6336   21.8636 N   0  0  0  0  0  0  0  0  0  0  0  0
    8.8018  -15.5566   23.2837 C   0  0  1  0  0  0  0  0  0  0  0  0
    7.3720  -15.1927   23.6189 C   0  0  0  0  0  0  0  0  0  0  0  0
    7.1704  -15.0442   25.0718 C   0  0  0  0  0  0  0  0  0  0  0  0
    6.7897  -15.9835   26.0068 C   0  0  0  0  0  0  0  0  0  0  0  0
    6.7308  -15.3997   27.2218 N   0  0  0  0  0  0  0  0  0  0  0  0
    7.0558  -14.1062   27.1451 C   0  0  0  0  0  0  0  0  0  0  0  0
    7.1449  -13.1018   28.0773 C   0  0  0  0  0  0  0  0  0  0  0  0
    7.5159  -11.8476   27.6636 C   0  0  0  0  0  0  0  0  0  0  0  0
    7.7940  -11.5984   26.3393 C   0  0  0  0  0  0  0  0  0  0  0  0
    7.7047  -12.6072   25.4019 C   0  0  0  0  0  0  0  0  0  0  0  0
    7.3340  -13.8750   25.7933 C   0  0  0  0  0  0  0  0  0  0  0  0
    9.1064  -16.8332   23.9527 C   0  0  0  0  0  0  0  0  0  0  0  0
    8.4636  -17.8563   23.6538 O   0  0  0  0  0  0  0  0  0  0  0  0
   11.9167  -18.4630   25.1637 C   0  0  0  0  0  0  0  0  0  0  0  0
   10.5094  -18.1408   25.5516 C   0  0  2  0  0  0  0  0  0  0  0  0
   10.1217  -16.8873   24.9246 N   0  0  0  0  0  0  0  0  0  0  0  0
   10.3341  -18.0210   27.0221 C   0  0  0  0  0  0  0  0  0  0  0  0
   10.6266  -18.9824   27.7779 O   0  0  0  0  0  0  0  0  0  0  0  0
    9.8498  -16.8670   27.6178 O   0  0  0  0  0  0  0  0  0  0  0  0
  2  1  1  6
  2  3  1  0
  2 10  1  0
  3  4  1  0
  4  5  2  0
  4  9  1  0
  5  6  1  0
  6  7  2  0
  8  7  1  0
  9  8  2  0
 10 11  2  0
 12 10  1  0
 12 13  1  0
 13 14  1  6
 14 15  1  0
 15 16  2  0
 16 17  1  0
 18 17  1  0
 19 18  2  0
 20 19  1  0
 21 22  1  0
 21 20  2  0
 22 23  2  0
 23 15  1  0
 23 18  1  0
 24 13  1  0
 24 25  2  0
 27 26  1  1
 27 29  1  0
 27 28  1  0
 28 24  1  0
 29 31  1  0
 30 29  2  0
M  END
$$$$
