GMQ.pdb
     RDKit          3D

 22 21  0  0  1  0  0  0  0  0999 V2000
    7.0514  -17.0051   20.0530 N   0  0  0  0  0  0  0  0  0  0  0  0
    6.3255  -16.9003   21.2933 C   0  0  0  0  0  0  0  0  0  0  0  0
    7.1568  -16.1559   22.3039 C   0  0  0  0  0  0  0  0  0  0  0  0
    8.3902  -15.9664   22.1286 O   0  0  0  0  0  0  0  0  0  0  0  0
    7.7691  -10.7224   27.3190 C   0  0  0  0  0  0  0  0  0  0  0  0
    7.0276  -11.7359   26.0137 S   0  0  0  0  0  0  0  0  0  0  0  0
    6.9599  -13.4810   26.5077 C   0  0  0  0  0  0  0  0  0  0  0  0
    6.3487  -14.3080   25.4236 C   0  0  0  0  0  0  0  0  0  0  0  0
    7.3241  -15.0563   24.5775 C   0  0  2  0  0  0  0  0  0  0  0  0
    6.5797  -15.6469   23.4803 N   0  0  0  0  0  0  0  0  0  0  0  0
    8.1385  -16.0418   25.2861 C   0  0  0  0  0  0  0  0  0  0  0  0
    7.6836  -17.0733   25.8177 O   0  0  0  0  0  0  0  0  0  0  0  0
   10.2413  -20.9921   22.9771 N   0  0  0  0  0  0  0  0  0  0  0  0
   10.4377  -20.2965   24.2000 C   0  0  0  0  0  0  0  0  0  0  0  0
   11.3924  -20.7028   24.9329 O   0  0  0  0  0  0  0  0  0  0  0  0
    9.5825  -19.1511   24.6190 C   0  0  0  0  0  0  0  0  0  0  0  0
   10.2199  -17.8666   24.2662 C   0  0  0  0  0  0  0  0  0  0  0  0
   10.5204  -16.8849   25.2994 C   0  0  2  0  0  0  0  0  0  0  0  0
    9.5410  -15.8190   25.3813 N   0  0  0  0  0  0  0  0  0  0  0  0
   11.8563  -16.3535   25.4534 C   0  0  0  0  0  0  0  0  0  0  0  0
   12.9164  -16.9094   26.1401 O   0  0  0  0  0  0  0  0  0  0  0  0
   12.1365  -15.2569   24.9166 O   0  0  0  0  0  0  0  0  0  0  0  0
  2  1  1  0
  2  3  1  0
  3 10  1  0
  4  3  2  0
  6  5  1  0
  6  7  1  0
  8  7  1  0
  9 11  1  0
  9  8  1  1
 10  9  1  0
 11 12  2  0
 14 13  1  0
 14 16  1  0
 15 14  2  0
 17 16  1  0
 18 17  1  6
 19 11  1  0
 19 18  1  0
 20 21  1  0
 20 18  1  0
 22 20  2  0
M  END
$$$$
