GMQ.pdb
     RDKit          3D

 22 21  0  0  1  0  0  0  0  0999 V2000
    5.6701  -19.8012   22.7757 N   0  0  0  0  0  0  0  0  0  0  0  0
    5.4265  -18.9174   23.8874 C   0  0  0  0  0  0  0  0  0  0  0  0
    6.3655  -17.7430   23.8144 C   0  0  0  0  0  0  0  0  0  0  0  0
    7.3469  -17.7344   23.0240 O   0  0  0  0  0  0  0  0  0  0  0  0
    6.9683  -10.8033   27.2898 C   0  0  0  0  0  0  0  0  0  0  0  0
    6.0760  -11.7298   26.0146 S   0  0  0  0  0  0  0  0  0  0  0  0
    7.1099  -13.0578   25.3354 C   0  0  0  0  0  0  0  0  0  0  0  0
    6.3448  -14.3402   25.2808 C   0  0  0  0  0  0  0  0  0  0  0  0
    7.1032  -15.5023   24.7319 C   0  0  2  0  0  0  0  0  0  0  0  0
    6.1756  -16.6140   24.6302 N   0  0  0  0  0  0  0  0  0  0  0  0
    8.3156  -15.8600   25.4659 C   0  0  0  0  0  0  0  0  0  0  0  0
    8.3242  -16.2889   26.6361 O   0  0  0  0  0  0  0  0  0  0  0  0
    8.2467  -18.8329   27.1023 N   0  0  0  0  0  0  0  0  0  0  0  0
    9.6056  -18.7185   27.4997 C   0  0  0  0  0  0  0  0  0  0  0  0
    9.8246  -18.6571   28.7494 O   0  0  0  0  0  0  0  0  0  0  0  0
   10.7277  -18.6713   26.5209 C   0  0  0  0  0  0  0  0  0  0  0  0
   10.3145  -17.9756   25.2856 C   0  0  0  0  0  0  0  0  0  0  0  0
   10.6997  -16.5898   25.0564 C   0  0  2  0  0  0  0  0  0  0  0  0
    9.5714  -15.7127   24.8124 N   0  0  0  0  0  0  0  0  0  0  0  0
   11.7943  -16.2595   24.1712 C   0  0  0  0  0  0  0  0  0  0  0  0
   13.1466  -16.4098   24.4016 O   0  0  0  0  0  0  0  0  0  0  0  0
   11.5362  -15.7749   23.0453 O   0  0  0  0  0  0  0  0  0  0  0  0
  2  1  1  0
  2  3  1  0
  3 10  1  0
  4  3  2  0
  6  5  1  0
  6  7  1  0
  8  7  1  0
  9 11  1  0
  9  8  1  1
 10  9  1  0
 11 12  2  0
 14 13  1  0
 14 16  1  0
 15 14  2  0
 17 16  1  0
 18 17  1  6
 19 11  1  0
 19 18  1  0
 20 21  1  0
 20 18  1  0
 22 20  2  0
M  END
$$$$
