GMQ.pdb
     RDKit          3D

 22 21  0  0  1  0  0  0  0  0999 V2000
    8.0151  -17.4632   19.3948 N   0  0  0  0  0  0  0  0  0  0  0  0
    7.4432  -17.4311   20.7170 C   0  0  0  0  0  0  0  0  0  0  0  0
    8.1479  -16.3915   21.5471 C   0  0  0  0  0  0  0  0  0  0  0  0
    9.2905  -15.9632   21.2326 O   0  0  0  0  0  0  0  0  0  0  0  0
    6.8211  -11.0429   27.2388 C   0  0  0  0  0  0  0  0  0  0  0  0
    6.2398  -12.3385   26.1144 S   0  0  0  0  0  0  0  0  0  0  0  0
    7.6221  -13.0561   25.1826 C   0  0  0  0  0  0  0  0  0  0  0  0
    7.1303  -14.1154   24.2504 C   0  0  0  0  0  0  0  0  0  0  0  0
    8.1987  -14.9504   23.6273 C   0  0  2  0  0  0  0  0  0  0  0  0
    7.5498  -15.8639   22.7047 N   0  0  0  0  0  0  0  0  0  0  0  0
    9.0761  -15.6457   24.5673 C   0  0  0  0  0  0  0  0  0  0  0  0
    8.7255  -16.6184   25.2631 O   0  0  0  0  0  0  0  0  0  0  0  0
   10.4070  -14.8091   29.6402 N   0  0  0  0  0  0  0  0  0  0  0  0
   11.2173  -15.9563   29.4281 C   0  0  0  0  0  0  0  0  0  0  0  0
   11.5016  -16.6442   30.4575 O   0  0  0  0  0  0  0  0  0  0  0  0
   11.7170  -16.3491   28.0809 C   0  0  0  0  0  0  0  0  0  0  0  0
   11.0191  -15.5908   27.0232 C   0  0  0  0  0  0  0  0  0  0  0  0
   11.3673  -15.7887   25.6228 C   0  0  2  0  0  0  0  0  0  0  0  0
   10.4177  -15.1909   24.7047 N   0  0  0  0  0  0  0  0  0  0  0  0
   11.7889  -17.0841   25.1379 C   0  0  0  0  0  0  0  0  0  0  0  0
   13.0722  -17.5104   24.8628 O   0  0  0  0  0  0  0  0  0  0  0  0
   10.9209  -17.9621   24.9260 O   0  0  0  0  0  0  0  0  0  0  0  0
  2  1  1  0
  2  3  1  0
  3 10  1  0
  4  3  2  0
  6  5  1  0
  6  7  1  0
  8  7  1  0
  9 11  1  0
  9  8  1  1
 10  9  1  0
 11 12  2  0
 14 13  1  0
 14 16  1  0
 15 14  2  0
 17 16  1  0
 18 17  1  1
 19 11  1  0
 19 18  1  0
 20 21  1  0
 20 18  1  0
 22 20  2  0
M  END
$$$$
