GMQ.pdb
     RDKit          3D

 22 21  0  0  1  0  0  0  0  0999 V2000
    7.7510  -14.7775   19.6164 N   0  0  0  0  0  0  0  0  0  0  0  0
    6.9445  -14.9078   20.8033 C   0  0  0  0  0  0  0  0  0  0  0  0
    7.8221  -14.8163   22.0231 C   0  0  0  0  0  0  0  0  0  0  0  0
    9.0788  -14.8274   21.9308 O   0  0  0  0  0  0  0  0  0  0  0  0
    6.1529  -10.0972   26.8179 C   0  0  0  0  0  0  0  0  0  0  0  0
    6.2075  -11.9055   26.9055 S   0  0  0  0  0  0  0  0  0  0  0  0
    7.0686  -12.5984   25.4660 C   0  0  0  0  0  0  0  0  0  0  0  0
    7.1892  -14.0824   25.5931 C   0  0  0  0  0  0  0  0  0  0  0  0
    8.0251  -14.7377   24.5449 C   0  0  2  0  0  0  0  0  0  0  0  0
    7.2638  -14.7153   23.3092 N   0  0  0  0  0  0  0  0  0  0  0  0
    8.5026  -16.0792   24.8749 C   0  0  0  0  0  0  0  0  0  0  0  0
    7.7793  -17.0939   24.8964 O   0  0  0  0  0  0  0  0  0  0  0  0
   13.5574  -18.8601   22.9082 N   0  0  0  0  0  0  0  0  0  0  0  0
   13.4899  -17.4647   23.1649 C   0  0  0  0  0  0  0  0  0  0  0  0
   14.3525  -16.7407   22.5772 O   0  0  0  0  0  0  0  0  0  0  0  0
   12.4715  -16.8626   24.0702 C   0  0  0  0  0  0  0  0  0  0  0  0
   11.5549  -17.8984   24.5876 C   0  0  0  0  0  0  0  0  0  0  0  0
   10.4712  -17.5382   25.4917 C   0  0  2  0  0  0  0  0  0  0  0  0
    9.8793  -16.2486   25.1940 N   0  0  0  0  0  0  0  0  0  0  0  0
   10.6074  -17.7114   26.9209 C   0  0  0  0  0  0  0  0  0  0  0  0
   10.3013  -16.8077   27.9179 O   0  0  0  0  0  0  0  0  0  0  0  0
   11.0532  -18.7972   27.3585 O   0  0  0  0  0  0  0  0  0  0  0  0
  2  1  1  0
  2  3  1  0
  3 10  1  0
  4  3  2  0
  6  5  1  0
  6  7  1  0
  8  7  1  0
  9 11  1  0
  9  8  1  1
 10  9  1  0
 11 12  2  0
 14 13  1  0
 14 16  1  0
 15 14  2  0
 17 16  1  0
 18 17  1  6
 19 11  1  0
 19 18  1  0
 20 21  1  0
 20 18  1  0
 22 20  2  0
M  END
$$$$
