GMQ.pdb
     RDKit          3D

 22 21  0  0  1  0  0  0  0  0999 V2000
    5.8271  -19.6932   22.7339 N   0  0  0  0  0  0  0  0  0  0  0  0
    5.8956  -18.7848   23.8503 C   0  0  0  0  0  0  0  0  0  0  0  0
    6.7763  -17.6159   23.4973 C   0  0  0  0  0  0  0  0  0  0  0  0
    7.4825  -17.6168   22.4537 O   0  0  0  0  0  0  0  0  0  0  0  0
    5.5523  -11.5305   26.1184 C   0  0  0  0  0  0  0  0  0  0  0  0
    6.9268  -12.4613   26.8431 S   0  0  0  0  0  0  0  0  0  0  0  0
    6.9752  -14.1558   26.1949 C   0  0  0  0  0  0  0  0  0  0  0  0
    6.9718  -14.1443   24.7007 C   0  0  0  0  0  0  0  0  0  0  0  0
    7.6515  -15.3088   24.0612 C   0  0  2  0  0  0  0  0  0  0  0  0
    6.8384  -16.4818   24.3255 N   0  0  0  0  0  0  0  0  0  0  0  0
    9.0475  -15.5062   24.4467 C   0  0  0  0  0  0  0  0  0  0  0  0
    9.9147  -14.6116   24.4176 O   0  0  0  0  0  0  0  0  0  0  0  0
   10.1365  -13.7852   28.6576 N   0  0  0  0  0  0  0  0  0  0  0  0
   10.6279  -14.9954   29.2158 C   0  0  0  0  0  0  0  0  0  0  0  0
   11.0961  -14.9237   30.3945 O   0  0  0  0  0  0  0  0  0  0  0  0
   10.6049  -16.2886   28.4767 C   0  0  0  0  0  0  0  0  0  0  0  0
    9.9394  -16.1307   27.1680 C   0  0  0  0  0  0  0  0  0  0  0  0
   10.2726  -17.0160   26.0604 C   0  0  2  0  0  0  0  0  0  0  0  0
    9.4531  -16.7984   24.8844 N   0  0  0  0  0  0  0  0  0  0  0  0
   10.4775  -18.4311   26.2761 C   0  0  0  0  0  0  0  0  0  0  0  0
    9.9101  -19.4848   25.5889 O   0  0  0  0  0  0  0  0  0  0  0  0
   11.2562  -18.7975   27.1863 O   0  0  0  0  0  0  0  0  0  0  0  0
  2  1  1  0
  2  3  1  0
  3 10  1  0
  4  3  2  0
  6  5  1  0
  6  7  1  0
  8  7  1  0
  9 11  1  0
  9  8  1  1
 10  9  1  0
 11 12  2  0
 14 13  1  0
 14 16  1  0
 15 14  2  0
 17 16  1  0
 18 17  1  1
 19 11  1  0
 19 18  1  0
 20 21  1  0
 20 18  1  0
 22 20  2  0
M  END
$$$$
