GMQ.pdb
     RDKit          3D

 22 21  0  0  1  0  0  0  0  0999 V2000
    7.0802  -18.5105   20.5770 N   0  0  0  0  0  0  0  0  0  0  0  0
    6.8194  -18.1643   21.9512 C   0  0  0  0  0  0  0  0  0  0  0  0
    7.3887  -16.8020   22.2458 C   0  0  0  0  0  0  0  0  0  0  0  0
    8.2790  -16.2900   21.5157 O   0  0  0  0  0  0  0  0  0  0  0  0
    6.6826  -10.8186   27.2866 C   0  0  0  0  0  0  0  0  0  0  0  0
    6.3160  -12.4953   26.7077 S   0  0  0  0  0  0  0  0  0  0  0  0
    6.7130  -12.6739   24.9458 C   0  0  0  0  0  0  0  0  0  0  0  0
    6.3638  -14.0459   24.4676 C   0  0  0  0  0  0  0  0  0  0  0  0
    7.4504  -14.7485   23.7242 C   0  0  2  0  0  0  0  0  0  0  0  0
    6.9423  -16.0556   23.3502 N   0  0  0  0  0  0  0  0  0  0  0  0
    8.7315  -14.8332   24.4228 C   0  0  0  0  0  0  0  0  0  0  0  0
    9.3722  -13.8455   24.8319 O   0  0  0  0  0  0  0  0  0  0  0  0
   11.6595  -18.7997   28.3238 N   0  0  0  0  0  0  0  0  0  0  0  0
   10.4023  -19.0931   27.7314 C   0  0  0  0  0  0  0  0  0  0  0  0
    9.8656  -20.1954   28.0639 O   0  0  0  0  0  0  0  0  0  0  0  0
    9.7325  -18.1727   26.7705 C   0  0  0  0  0  0  0  0  0  0  0  0
   10.5404  -16.9539   26.5647 C   0  0  0  0  0  0  0  0  0  0  0  0
   10.5974  -16.3202   25.2545 C   0  0  2  0  0  0  0  0  0  0  0  0
    9.2923  -16.1205   24.6557 N   0  0  0  0  0  0  0  0  0  0  0  0
   11.5467  -16.7609   24.2567 C   0  0  0  0  0  0  0  0  0  0  0  0
   11.2896  -17.1746   22.9655 O   0  0  0  0  0  0  0  0  0  0  0  0
   12.7640  -16.7887   24.5509 O   0  0  0  0  0  0  0  0  0  0  0  0
  2  1  1  0
  2  3  1  0
  3 10  1  0
  4  3  2  0
  6  5  1  0
  6  7  1  0
  8  7  1  0
  9 11  1  0
  9  8  1  1
 10  9  1  0
 11 12  2  0
 14 13  1  0
 14 16  1  0
 15 14  2  0
 17 16  1  0
 18 17  1  1
 19 11  1  0
 19 18  1  0
 20 21  1  0
 20 18  1  0
 22 20  2  0
M  END
$$$$
