GMQ.pdb
     RDKit          3D

 22 21  0  0  1  0  0  0  0  0999 V2000
    7.8044  -15.6804   19.2272 N   0  0  0  0  0  0  0  0  0  0  0  0
    7.0942  -15.8368   20.4711 C   0  0  0  0  0  0  0  0  0  0  0  0
    7.9409  -15.3223   21.6046 C   0  0  0  0  0  0  0  0  0  0  0  0
    9.1995  -15.3613   21.5549 O   0  0  0  0  0  0  0  0  0  0  0  0
    6.2999  -10.6661   25.8916 C   0  0  0  0  0  0  0  0  0  0  0  0
    6.7427  -12.0376   26.9888 S   0  0  0  0  0  0  0  0  0  0  0  0
    7.8139  -13.2293   26.1367 C   0  0  0  0  0  0  0  0  0  0  0  0
    7.2132  -13.6302   24.8285 C   0  0  0  0  0  0  0  0  0  0  0  0
    8.0379  -14.5765   24.0214 C   0  0  2  0  0  0  0  0  0  0  0  0
    7.3506  -14.7798   22.7592 N   0  0  0  0  0  0  0  0  0  0  0  0
    8.3655  -15.8390   24.6813 C   0  0  0  0  0  0  0  0  0  0  0  0
    7.5330  -16.7294   24.9411 O   0  0  0  0  0  0  0  0  0  0  0  0
   13.5618  -17.2906   23.4225 N   0  0  0  0  0  0  0  0  0  0  0  0
   12.4097  -17.6221   22.6605 C   0  0  0  0  0  0  0  0  0  0  0  0
   12.5482  -17.6179   21.3978 O   0  0  0  0  0  0  0  0  0  0  0  0
   11.1013  -17.9591   23.2877 C   0  0  0  0  0  0  0  0  0  0  0  0
   11.2141  -17.9665   24.7601 C   0  0  0  0  0  0  0  0  0  0  0  0
   10.1839  -17.3450   25.5811 C   0  0  2  0  0  0  0  0  0  0  0  0
    9.7180  -16.0767   25.0555 N   0  0  0  0  0  0  0  0  0  0  0  0
   10.3222  -17.2736   27.0187 C   0  0  0  0  0  0  0  0  0  0  0  0
   10.1043  -16.1854   27.8389 O   0  0  0  0  0  0  0  0  0  0  0  0
   10.6814  -18.2984   27.6432 O   0  0  0  0  0  0  0  0  0  0  0  0
  2  1  1  0
  2  3  1  0
  3 10  1  0
  4  3  2  0
  6  5  1  0
  6  7  1  0
  8  7  1  0
  9 11  1  0
  9  8  1  1
 10  9  1  0
 11 12  2  0
 14 13  1  0
 14 16  1  0
 15 14  2  0
 17 16  1  0
 18 17  1  6
 19 11  1  0
 19 18  1  0
 20 21  1  0
 20 18  1  0
 22 20  2  0
M  END
$$$$
