GMQ.pdb
     RDKit          3D

 22 21  0  0  1  0  0  0  0  0999 V2000
    8.1965  -16.5575   19.4117 N   0  0  0  0  0  0  0  0  0  0  0  0
    7.2729  -16.5430   20.5176 C   0  0  0  0  0  0  0  0  0  0  0  0
    7.9764  -16.0577   21.7571 C   0  0  0  0  0  0  0  0  0  0  0  0
    9.1606  -16.4007   22.0174 O   0  0  0  0  0  0  0  0  0  0  0  0
    7.2667  -10.7943   27.6387 C   0  0  0  0  0  0  0  0  0  0  0  0
    6.5637  -11.6413   26.2003 S   0  0  0  0  0  0  0  0  0  0  0  0
    7.5772  -13.0718   25.7311 C   0  0  0  0  0  0  0  0  0  0  0  0
    7.0632  -13.6856   24.4694 C   0  0  0  0  0  0  0  0  0  0  0  0
    7.8316  -14.8708   23.9880 C   0  0  2  0  0  0  0  0  0  0  0  0
    7.3303  -15.2029   22.6669 N   0  0  0  0  0  0  0  0  0  0  0  0
    7.8282  -16.0242   24.8859 C   0  0  0  0  0  0  0  0  0  0  0  0
    6.9354  -16.8937   24.9048 O   0  0  0  0  0  0  0  0  0  0  0  0
    6.6775  -21.3250   25.5412 N   0  0  0  0  0  0  0  0  0  0  0  0
    7.8622  -20.5477   25.6408 C   0  0  0  0  0  0  0  0  0  0  0  0
    8.8366  -21.0811   26.2570 O   0  0  0  0  0  0  0  0  0  0  0  0
    7.9769  -19.1801   25.0617 C   0  0  0  0  0  0  0  0  0  0  0  0
    9.2544  -18.5519   25.4542 C   0  0  0  0  0  0  0  0  0  0  0  0
    9.2708  -17.4434   26.3989 C   0  0  2  0  0  0  0  0  0  0  0  0
    8.9081  -16.1735   25.8009 N   0  0  0  0  0  0  0  0  0  0  0  0
   10.3708  -17.2694   27.3212 C   0  0  0  0  0  0  0  0  0  0  0  0
   11.6664  -16.8907   27.0343 O   0  0  0  0  0  0  0  0  0  0  0  0
   10.1753  -17.4753   28.5412 O   0  0  0  0  0  0  0  0  0  0  0  0
  2  1  1  0
  2  3  1  0
  3 10  1  0
  4  3  2  0
  6  5  1  0
  6  7  1  0
  8  7  1  0
  9 11  1  0
  9  8  1  1
 10  9  1  0
 11 12  2  0
 14 13  1  0
 14 16  1  0
 15 14  2  0
 17 16  1  0
 18 17  1  6
 19 11  1  0
 19 18  1  0
 20 21  1  0
 20 18  1  0
 22 20  2  0
M  END
$$$$
