EWC.pdb
     RDKit          3D

 30 31  0  0  1  0  0  0  0  0999 V2000
    9.5106  -15.5812   20.4900 N   0  0  0  0  0  0  0  0  0  0  0  0
   10.0301  -16.6327   21.3602 C   0  0  1  0  0  0  0  0  0  0  0  0
   11.4043  -16.9837   20.7944 C   0  0  0  0  0  0  0  0  0  0  0  0
   11.1349  -17.7660   19.5142 C   0  0  0  0  0  0  0  0  0  0  0  0
   11.0382  -19.2170   19.8155 C   0  0  0  0  0  0  0  0  0  0  0  0
   11.8596  -19.8048   20.5636 O   0  0  0  0  0  0  0  0  0  0  0  0
   10.1373  -16.1150   22.7479 C   0  0  0  0  0  0  0  0  0  0  0  0
   10.6701  -15.0034   22.9636 O   0  0  0  0  0  0  0  0  0  0  0  0
   10.0098  -19.9505   19.2557 O   0  0  0  0  0  0  0  0  0  0  0  0
    9.6433  -16.8677   23.8158 N   0  0  0  0  0  0  0  0  0  0  0  0
    9.6436  -16.4093   25.2173 C   0  0  1  0  0  0  0  0  0  0  0  0
    8.2829  -16.6411   25.7602 C   0  0  0  0  0  0  0  0  0  0  0  0
    7.2893  -15.5841   25.4937 C   0  0  0  0  0  0  0  0  0  0  0  0
    6.0552  -15.6759   24.8544 C   0  0  0  0  0  0  0  0  0  0  0  0
    5.4627  -14.4706   24.8037 N   0  0  0  0  0  0  0  0  0  0  0  0
    6.2587  -13.5599   25.3907 C   0  0  0  0  0  0  0  0  0  0  0  0
    6.1078  -12.2066   25.5927 C   0  0  0  0  0  0  0  0  0  0  0  0
    7.1178  -11.5313   26.2393 C   0  0  0  0  0  0  0  0  0  0  0  0
    8.2540  -12.1918   26.6750 C   0  0  0  0  0  0  0  0  0  0  0  0
    8.3883  -13.5470   26.4643 C   0  0  0  0  0  0  0  0  0  0  0  0
    7.3966  -14.2352   25.8243 C   0  0  0  0  0  0  0  0  0  0  0  0
   10.7620  -17.0446   25.8923 C   0  0  0  0  0  0  0  0  0  0  0  0
   11.0155  -18.2720   25.6275 O   0  0  0  0  0  0  0  0  0  0  0  0
   11.6239  -16.4447   26.8301 N   0  0  0  0  0  0  0  0  0  0  0  0
   12.6421  -17.2056   27.4766 C   0  0  1  0  0  0  0  0  0  0  0  0
   13.6676  -16.3538   28.1879 C   0  0  0  0  0  0  0  0  0  0  0  0
   14.3911  -15.2480   26.9253 S   0  0  0  0  0  0  0  0  0  0  0  0
   12.0222  -18.0701   28.5156 C   0  0  0  0  0  0  0  0  0  0  0  0
   12.8454  -18.8916   29.3049 O   0  0  0  0  0  0  0  0  0  0  0  0
   10.7995  -18.1241   28.7467 O   0  0  0  0  0  0  0  0  0  0  0  0
  2  1  1  6
  2  7  1  0
  3  2  1  0
  3  4  1  0
  4  5  1  0
  5  6  2  0
  7  8  2  0
  9  5  1  0
 10 11  1  0
 10  7  1  0
 12 13  1  0
 11 12  1  1
 13 14  2  0
 15 14  1  0
 16 15  1  0
 17 16  2  0
 18 17  1  0
 19 20  1  0
 19 18  2  0
 20 21  2  0
 21 16  1  0
 21 13  1  0
 22 11  1  0
 22 24  1  0
 23 22  2  0
 25 24  1  0
 25 26  1  1
 27 26  1  0
 28 25  1  0
 29 28  1  0
 30 28  2  0
M  END
$$$$
