EWC.pdb
     RDKit          3D

 30 31  0  0  1  0  0  0  0  0999 V2000
   10.2894  -18.3988   22.1701 N   0  0  0  0  0  0  0  0  0  0  0  0
   11.5169  -17.6682   22.4736 C   0  0  1  0  0  0  0  0  0  0  0  0
   11.7439  -16.7450   21.2787 C   0  0  0  0  0  0  0  0  0  0  0  0
   12.0472  -17.6634   20.1005 C   0  0  0  0  0  0  0  0  0  0  0  0
   12.3019  -16.8573   18.8795 C   0  0  0  0  0  0  0  0  0  0  0  0
   12.8399  -15.7221   18.9232 O   0  0  0  0  0  0  0  0  0  0  0  0
   11.3303  -16.8906   23.7249 C   0  0  0  0  0  0  0  0  0  0  0  0
   12.2108  -16.0841   24.0997 O   0  0  0  0  0  0  0  0  0  0  0  0
   11.9362  -17.3700   17.6497 O   0  0  0  0  0  0  0  0  0  0  0  0
   10.1714  -17.0576   24.4864 N   0  0  0  0  0  0  0  0  0  0  0  0
    9.9222  -16.3741   25.7690 C   0  0  1  0  0  0  0  0  0  0  0  0
    8.4588  -16.1589   25.8800 C   0  0  0  0  0  0  0  0  0  0  0  0
    7.9012  -15.0601   25.0692 C   0  0  0  0  0  0  0  0  0  0  0  0
    7.7083  -14.9920   23.6915 C   0  0  0  0  0  0  0  0  0  0  0  0
    7.1857  -13.8019   23.3494 N   0  0  0  0  0  0  0  0  0  0  0  0
    7.0170  -13.0570   24.4559 C   0  0  0  0  0  0  0  0  0  0  0  0
    6.5235  -11.7848   24.6366 C   0  0  0  0  0  0  0  0  0  0  0  0
    6.4746  -11.2845   25.9179 C   0  0  0  0  0  0  0  0  0  0  0  0
    6.9088  -12.0374   26.9958 C   0  0  0  0  0  0  0  0  0  0  0  0
    7.3999  -13.3094   26.7964 C   0  0  0  0  0  0  0  0  0  0  0  0
    7.4565  -13.8238   25.5320 C   0  0  0  0  0  0  0  0  0  0  0  0
   10.5779  -17.1395   26.8151 C   0  0  0  0  0  0  0  0  0  0  0  0
   10.5361  -16.6917   28.0145 O   0  0  0  0  0  0  0  0  0  0  0  0
   11.2720  -18.3537   26.6538 N   0  0  0  0  0  0  0  0  0  0  0  0
   11.7766  -19.0615   27.7843 C   0  0  1  0  0  0  0  0  0  0  0  0
   10.9404  -20.2616   28.1632 C   0  0  0  0  0  0  0  0  0  0  0  0
    9.3884  -19.6100   28.8753 S   0  0  0  0  0  0  0  0  0  0  0  0
   13.1350  -19.5795   27.4713 C   0  0  0  0  0  0  0  0  0  0  0  0
   13.8301  -20.3149   28.4467 O   0  0  0  0  0  0  0  0  0  0  0  0
   13.7192  -19.4080   26.3848 O   0  0  0  0  0  0  0  0  0  0  0  0
  2  1  1  6
  2  7  1  0
  3  2  1  0
  3  4  1  0
  4  5  1  0
  5  6  2  0
  7  8  2  0
  9  5  1  0
 10 11  1  0
 10  7  1  0
 12 13  1  0
 11 12  1  1
 13 14  2  0
 15 14  1  0
 16 15  1  0
 17 16  2  0
 18 17  1  0
 19 20  1  0
 19 18  2  0
 20 21  2  0
 21 16  1  0
 21 13  1  0
 22 11  1  0
 22 24  1  0
 23 22  2  0
 25 24  1  0
 25 26  1  6
 27 26  1  0
 28 25  1  0
 29 28  1  0
 30 28  2  0
M  END
$$$$
