EWC.pdb
     RDKit          3D

 30 31  0  0  1  0  0  0  0  0999 V2000
   10.6585  -18.9644   20.5688 N   0  0  0  0  0  0  0  0  0  0  0  0
   10.9939  -17.5821   20.2374 C   0  0  1  0  0  0  0  0  0  0  0  0
   10.0849  -17.2149   19.0668 C   0  0  0  0  0  0  0  0  0  0  0  0
   10.9416  -16.3730   18.1285 C   0  0  0  0  0  0  0  0  0  0  0  0
   11.6080  -17.2450   17.1280 C   0  0  0  0  0  0  0  0  0  0  0  0
   11.3000  -18.4546   16.9788 O   0  0  0  0  0  0  0  0  0  0  0  0
   10.7300  -16.7159   21.4143 C   0  0  0  0  0  0  0  0  0  0  0  0
   11.6326  -15.9736   21.8621 O   0  0  0  0  0  0  0  0  0  0  0  0
   12.6024  -16.7116   16.3307 O   0  0  0  0  0  0  0  0  0  0  0  0
    9.4735  -16.7276   22.0243 N   0  0  0  0  0  0  0  0  0  0  0  0
    9.1557  -16.0074   23.2711 C   0  0  1  0  0  0  0  0  0  0  0  0
    7.7421  -15.5672   23.1812 C   0  0  0  0  0  0  0  0  0  0  0  0
    7.1480  -15.0354   24.4221 C   0  0  0  0  0  0  0  0  0  0  0  0
    6.4098  -15.6980   25.3999 C   0  0  0  0  0  0  0  0  0  0  0  0
    6.0381  -14.8421   26.3672 N   0  0  0  0  0  0  0  0  0  0  0  0
    6.5026  -13.6145   26.0758 C   0  0  0  0  0  0  0  0  0  0  0  0
    6.3938  -12.4132   26.7390 C   0  0  0  0  0  0  0  0  0  0  0  0
    6.9900  -11.3068   26.1780 C   0  0  0  0  0  0  0  0  0  0  0  0
    7.6798  -11.3969   24.9808 C   0  0  0  0  0  0  0  0  0  0  0  0
    7.7786  -12.6078   24.3305 C   0  0  0  0  0  0  0  0  0  0  0  0
    7.1937  -13.7177   24.8713 C   0  0  0  0  0  0  0  0  0  0  0  0
    9.5324  -16.8602   24.3852 C   0  0  0  0  0  0  0  0  0  0  0  0
    8.7823  -17.8593   24.6680 O   0  0  0  0  0  0  0  0  0  0  0  0
   10.6626  -16.7081   25.2107 N   0  0  0  0  0  0  0  0  0  0  0  0
   10.5670  -16.8975   26.6209 C   0  0  1  0  0  0  0  0  0  0  0  0
    9.8711  -18.1816   27.0083 C   0  0  0  0  0  0  0  0  0  0  0  0
    8.6637  -17.7466   28.3095 S   0  0  0  0  0  0  0  0  0  0  0  0
   11.9352  -16.9716   27.1989 C   0  0  0  0  0  0  0  0  0  0  0  0
   13.0445  -16.7407   26.3673 O   0  0  0  0  0  0  0  0  0  0  0  0
   12.1806  -17.2289   28.3925 O   0  0  0  0  0  0  0  0  0  0  0  0
  2  1  1  1
  2  7  1  0
  3  2  1  0
  3  4  1  0
  4  5  1  0
  5  6  2  0
  7  8  2  0
  9  5  1  0
 10 11  1  0
 10  7  1  0
 12 13  1  0
 11 12  1  1
 13 14  2  0
 15 14  1  0
 16 15  1  0
 17 16  2  0
 18 17  1  0
 19 20  1  0
 19 18  2  0
 20 21  2  0
 21 16  1  0
 21 13  1  0
 22 11  1  0
 22 24  1  0
 23 22  2  0
 25 24  1  0
 25 26  1  6
 27 26  1  0
 28 25  1  0
 29 28  1  0
 30 28  2  0
M  END
$$$$
