EWC.pdb
     RDKit          3D

 30 31  0  0  1  0  0  0  0  0999 V2000
    9.6745  -18.2165   21.1753 N   0  0  0  0  0  0  0  0  0  0  0  0
   11.0090  -17.8790   21.6632 C   0  0  1  0  0  0  0  0  0  0  0  0
   11.5798  -16.9028   20.6371 C   0  0  0  0  0  0  0  0  0  0  0  0
   11.5649  -17.6477   19.3073 C   0  0  0  0  0  0  0  0  0  0  0  0
   12.0817  -16.7698   18.2267 C   0  0  0  0  0  0  0  0  0  0  0  0
   12.6211  -15.6592   18.4625 O   0  0  0  0  0  0  0  0  0  0  0  0
   10.8982  -17.2465   23.0022 C   0  0  0  0  0  0  0  0  0  0  0  0
   11.8583  -16.5937   23.4693 O   0  0  0  0  0  0  0  0  0  0  0  0
   11.9677  -17.1852   16.9139 O   0  0  0  0  0  0  0  0  0  0  0  0
    9.7217  -17.3786   23.7434 N   0  0  0  0  0  0  0  0  0  0  0  0
    9.5013  -16.7504   25.0591 C   0  0  1  0  0  0  0  0  0  0  0  0
    8.0487  -16.4771   25.1825 C   0  0  0  0  0  0  0  0  0  0  0  0
    7.5840  -15.1839   24.6464 C   0  0  0  0  0  0  0  0  0  0  0  0
    7.1636  -14.8644   23.3576 C   0  0  0  0  0  0  0  0  0  0  0  0
    6.8351  -13.5634   23.2806 N   0  0  0  0  0  0  0  0  0  0  0  0
    7.0199  -12.9873   24.4813 C   0  0  0  0  0  0  0  0  0  0  0  0
    6.8300  -11.6951   24.9157 C   0  0  0  0  0  0  0  0  0  0  0  0
    7.1131  -11.4053   26.2311 C   0  0  0  0  0  0  0  0  0  0  0  0
    7.5757  -12.3838   27.0945 C   0  0  0  0  0  0  0  0  0  0  0  0
    7.7601  -13.6724   26.6424 C   0  0  0  0  0  0  0  0  0  0  0  0
    7.4847  -13.9800   25.3401 C   0  0  0  0  0  0  0  0  0  0  0  0
   10.1217  -17.5956   26.0645 C   0  0  0  0  0  0  0  0  0  0  0  0
    9.7246  -18.8089   26.1692 O   0  0  0  0  0  0  0  0  0  0  0  0
   11.1406  -17.2203   26.9606 N   0  0  0  0  0  0  0  0  0  0  0  0
   11.6510  -18.1484   27.9155 C   0  0  1  0  0  0  0  0  0  0  0  0
   12.9686  -17.7233   28.5207 C   0  0  0  0  0  0  0  0  0  0  0  0
   14.0955  -17.3787   27.1237 S   0  0  0  0  0  0  0  0  0  0  0  0
   10.6904  -18.2674   29.0444 C   0  0  0  0  0  0  0  0  0  0  0  0
   10.9751  -19.1548   30.0966 O   0  0  0  0  0  0  0  0  0  0  0  0
    9.6265  -17.6257   29.1324 O   0  0  0  0  0  0  0  0  0  0  0  0
  2  1  1  6
  2  7  1  0
  3  2  1  0
  3  4  1  0
  4  5  1  0
  5  6  2  0
  7  8  2  0
  9  5  1  0
 10 11  1  0
 10  7  1  0
 12 13  1  0
 11 12  1  1
 13 14  2  0
 15 14  1  0
 16 15  1  0
 17 16  2  0
 18 17  1  0
 19 20  1  0
 19 18  2  0
 20 21  2  0
 21 16  1  0
 21 13  1  0
 22 11  1  0
 22 24  1  0
 23 22  2  0
 25 24  1  0
 25 26  1  1
 27 26  1  0
 28 25  1  0
 29 28  1  0
 30 28  2  0
M  END
$$$$
