EWC.pdb
     RDKit          3D

 30 31  0  0  1  0  0  0  0  0999 V2000
   11.0814  -18.1961   19.7210 N   0  0  0  0  0  0  0  0  0  0  0  0
   10.9824  -18.4934   21.1474 C   0  0  1  0  0  0  0  0  0  0  0  0
   12.3237  -19.1183   21.5242 C   0  0  0  0  0  0  0  0  0  0  0  0
   12.3582  -20.4722   20.8249 C   0  0  0  0  0  0  0  0  0  0  0  0
   13.6107  -21.1915   21.1705 C   0  0  0  0  0  0  0  0  0  0  0  0
   13.6130  -22.3813   21.5760 O   0  0  0  0  0  0  0  0  0  0  0  0
   10.7474  -17.2336   21.8976 C   0  0  0  0  0  0  0  0  0  0  0  0
   11.4205  -16.2118   21.6348 O   0  0  0  0  0  0  0  0  0  0  0  0
   14.8187  -20.5330   21.0428 O   0  0  0  0  0  0  0  0  0  0  0  0
    9.7742  -17.1862   22.8985 N   0  0  0  0  0  0  0  0  0  0  0  0
    9.4849  -15.9901   23.7109 C   0  0  1  0  0  0  0  0  0  0  0  0
    8.0272  -15.7321   23.6169 C   0  0  0  0  0  0  0  0  0  0  0  0
    7.6021  -14.3332   23.8120 C   0  0  0  0  0  0  0  0  0  0  0  0
    7.6030  -13.2773   22.9037 C   0  0  0  0  0  0  0  0  0  0  0  0
    7.1486  -12.1555   23.4883 N   0  0  0  0  0  0  0  0  0  0  0  0
    6.8380  -12.4177   24.7699 C   0  0  0  0  0  0  0  0  0  0  0  0
    6.3411  -11.6175   25.7736 C   0  0  0  0  0  0  0  0  0  0  0  0
    6.1216  -12.1865   27.0074 C   0  0  0  0  0  0  0  0  0  0  0  0
    6.3921  -13.5253   27.2350 C   0  0  0  0  0  0  0  0  0  0  0  0
    6.8892  -14.3116   26.2185 C   0  0  0  0  0  0  0  0  0  0  0  0
    7.1139  -13.7653   24.9865 C   0  0  0  0  0  0  0  0  0  0  0  0
   10.0540  -16.2010   25.0306 C   0  0  0  0  0  0  0  0  0  0  0  0
   10.0353  -17.3847   25.5197 O   0  0  0  0  0  0  0  0  0  0  0  0
   10.6423  -15.2226   25.8545 N   0  0  0  0  0  0  0  0  0  0  0  0
   11.0192  -15.5284   27.1954 C   0  0  1  0  0  0  0  0  0  0  0  0
   10.6050  -14.4703   28.1914 C   0  0  0  0  0  0  0  0  0  0  0  0
   11.1947  -15.0358   29.8263 S   0  0  0  0  0  0  0  0  0  0  0  0
   10.3487  -16.7867   27.6177 C   0  0  0  0  0  0  0  0  0  0  0  0
    8.9599  -16.9155   27.4439 O   0  0  0  0  0  0  0  0  0  0  0  0
   10.9368  -17.7597   28.1262 O   0  0  0  0  0  0  0  0  0  0  0  0
  2  1  1  6
  2  7  1  0
  3  2  1  0
  3  4  1  0
  4  5  1  0
  5  6  2  0
  7  8  2  0
  9  5  1  0
 10 11  1  0
 10  7  1  0
 12 13  1  0
 11 12  1  1
 13 14  2  0
 15 14  1  0
 16 15  1  0
 17 16  2  0
 18 17  1  0
 19 20  1  0
 19 18  2  0
 20 21  2  0
 21 16  1  0
 21 13  1  0
 22 11  1  0
 22 24  1  0
 23 22  2  0
 25 24  1  0
 25 26  1  1
 27 26  1  0
 28 25  1  0
 29 28  1  0
 30 28  2  0
M  END
$$$$
