EWC.pdb
     RDKit          3D

 30 31  0  0  1  0  0  0  0  0999 V2000
   10.9202  -18.7086   21.1333 N   0  0  0  0  0  0  0  0  0  0  0  0
   11.9104  -17.6537   21.3321 C   0  0  1  0  0  0  0  0  0  0  0  0
   11.9720  -16.9016   20.0047 C   0  0  0  0  0  0  0  0  0  0  0  0
   13.3738  -17.1450   19.4580 C   0  0  0  0  0  0  0  0  0  0  0  0
   13.3192  -17.3418   17.9870 C   0  0  0  0  0  0  0  0  0  0  0  0
   13.5759  -18.4472   17.4463 O   0  0  0  0  0  0  0  0  0  0  0  0
   11.4660  -16.7627   22.4339 C   0  0  0  0  0  0  0  0  0  0  0  0
   12.1961  -15.8188   22.8108 O   0  0  0  0  0  0  0  0  0  0  0  0
   12.9739  -16.2744   17.1805 O   0  0  0  0  0  0  0  0  0  0  0  0
   10.2318  -16.9762   23.0520 N   0  0  0  0  0  0  0  0  0  0  0  0
    9.7028  -16.1419   24.1467 C   0  0  1  0  0  0  0  0  0  0  0  0
    8.2225  -16.1967   24.0707 C   0  0  0  0  0  0  0  0  0  0  0  0
    7.5330  -14.9032   23.9064 C   0  0  0  0  0  0  0  0  0  0  0  0
    7.0530  -14.3018   22.7454 C   0  0  0  0  0  0  0  0  0  0  0  0
    6.4996  -13.1102   23.0288 N   0  0  0  0  0  0  0  0  0  0  0  0
    6.5891  -12.8828   24.3509 C   0  0  0  0  0  0  0  0  0  0  0  0
    6.1777  -11.8234   25.1275 C   0  0  0  0  0  0  0  0  0  0  0  0
    6.4152  -11.8819   26.4819 C   0  0  0  0  0  0  0  0  0  0  0  0
    7.0497  -12.9739   27.0494 C   0  0  0  0  0  0  0  0  0  0  0  0
    7.4550  -14.0257   26.2566 C   0  0  0  0  0  0  0  0  0  0  0  0
    7.2282  -13.9864   24.9099 C   0  0  0  0  0  0  0  0  0  0  0  0
   10.3364  -16.5737   25.3805 C   0  0  0  0  0  0  0  0  0  0  0  0
   11.4874  -17.1315   25.3111 O   0  0  0  0  0  0  0  0  0  0  0  0
    9.8129  -16.4422   26.6808 N   0  0  0  0  0  0  0  0  0  0  0  0
   10.6765  -16.2491   27.7990 C   0  0  1  0  0  0  0  0  0  0  0  0
   10.5154  -14.8977   28.4555 C   0  0  0  0  0  0  0  0  0  0  0  0
   11.6141  -14.8948   29.9161 S   0  0  0  0  0  0  0  0  0  0  0  0
   10.3614  -17.2615   28.8416 C   0  0  0  0  0  0  0  0  0  0  0  0
   11.3959  -17.7506   29.6577 O   0  0  0  0  0  0  0  0  0  0  0  0
    9.2234  -17.7214   29.0532 O   0  0  0  0  0  0  0  0  0  0  0  0
  2  1  1  6
  2  7  1  0
  3  2  1  0
  3  4  1  0
  4  5  1  0
  5  6  2  0
  7  8  2  0
  9  5  1  0
 10 11  1  0
 10  7  1  0
 12 13  1  0
 11 12  1  1
 13 14  2  0
 15 14  1  0
 16 15  1  0
 17 16  2  0
 18 17  1  0
 19 20  1  0
 19 18  2  0
 20 21  2  0
 21 16  1  0
 21 13  1  0
 22 11  1  0
 22 24  1  0
 23 22  2  0
 25 24  1  0
 25 26  1  1
 27 26  1  0
 28 25  1  0
 29 28  1  0
 30 28  2  0
M  END
$$$$
