EWC.pdb
     RDKit          3D

 30 31  0  0  1  0  0  0  0  0999 V2000
   11.1030  -19.0918   21.3706 N   0  0  0  0  0  0  0  0  0  0  0  0
   12.0063  -17.9469   21.4485 C   0  0  1  0  0  0  0  0  0  0  0  0
   12.2335  -17.5120   20.0025 C   0  0  0  0  0  0  0  0  0  0  0  0
   10.8436  -17.3181   19.4076 C   0  0  0  0  0  0  0  0  0  0  0  0
   10.9524  -16.8371   18.0068 C   0  0  0  0  0  0  0  0  0  0  0  0
   11.6285  -17.4437   17.1379 O   0  0  0  0  0  0  0  0  0  0  0  0
   11.3644  -16.8664   22.2395 C   0  0  0  0  0  0  0  0  0  0  0  0
   11.8772  -15.7254   22.2751 O   0  0  0  0  0  0  0  0  0  0  0  0
   10.2879  -15.6820   17.6414 O   0  0  0  0  0  0  0  0  0  0  0  0
   10.1865  -17.1212   22.9456 N   0  0  0  0  0  0  0  0  0  0  0  0
    9.5773  -16.1772   23.9007 C   0  0  1  0  0  0  0  0  0  0  0  0
    8.1102  -16.3924   23.8624 C   0  0  0  0  0  0  0  0  0  0  0  0
    7.3034  -15.5184   24.7347 C   0  0  0  0  0  0  0  0  0  0  0  0
    6.3517  -15.8646   25.6909 C   0  0  0  0  0  0  0  0  0  0  0  0
    5.8333  -14.7614   26.2573 N   0  0  0  0  0  0  0  0  0  0  0  0
    6.4054  -13.6730   25.7135 C   0  0  0  0  0  0  0  0  0  0  0  0
    6.2222  -12.3290   25.9476 C   0  0  0  0  0  0  0  0  0  0  0  0
    6.9719  -11.4357   25.2164 C   0  0  0  0  0  0  0  0  0  0  0  0
    7.8846  -11.8740   24.2720 C   0  0  0  0  0  0  0  0  0  0  0  0
    8.0550  -13.2234   24.0508 C   0  0  0  0  0  0  0  0  0  0  0  0
    7.3202  -14.1260   24.7665 C   0  0  0  0  0  0  0  0  0  0  0  0
   10.2545  -16.3364   25.1759 C   0  0  0  0  0  0  0  0  0  0  0  0
   11.0688  -17.3153   25.3150 O   0  0  0  0  0  0  0  0  0  0  0  0
   10.1133  -15.5105   26.3073 N   0  0  0  0  0  0  0  0  0  0  0  0
   10.8385  -15.7828   27.5046 C   0  0  1  0  0  0  0  0  0  0  0  0
   10.5566  -14.7969   28.6145 C   0  0  0  0  0  0  0  0  0  0  0  0
   10.0147  -13.2483   27.8092 S   0  0  0  0  0  0  0  0  0  0  0  0
   10.4448  -17.1201   28.0222 C   0  0  0  0  0  0  0  0  0  0  0  0
   11.1386  -17.6632   29.1173 O   0  0  0  0  0  0  0  0  0  0  0  0
    9.5250  -17.8138   27.5489 O   0  0  0  0  0  0  0  0  0  0  0  0
  2  1  1  6
  2  7  1  0
  3  2  1  0
  3  4  1  0
  4  5  1  0
  5  6  2  0
  7  8  2  0
  9  5  1  0
 10 11  1  0
 10  7  1  0
 12 13  1  0
 11 12  1  1
 13 14  2  0
 15 14  1  0
 16 15  1  0
 17 16  2  0
 18 17  1  0
 19 20  1  0
 19 18  2  0
 20 21  2  0
 21 16  1  0
 21 13  1  0
 22 11  1  0
 22 24  1  0
 23 22  2  0
 25 24  1  0
 25 26  1  1
 27 26  1  0
 28 25  1  0
 29 28  1  0
 30 28  2  0
M  END
$$$$
