KWS.pdb
     RDKit          3D

 30 31  0  0  1  0  0  0  0  0999 V2000
   27.8590  -19.4985  -14.6397 N   0  0  0  0  0  0  0  0  0  0  0  0
   27.3840  -20.8284  -14.8889 C   0  0  1  0  0  0  0  0  0  0  0  0
   28.5211  -21.7559  -15.2755 C   0  0  0  0  0  0  0  0  0  0  0  0
   29.2086  -21.1111  -16.4515 C   0  0  0  0  0  0  0  0  0  0  0  0
   28.3779  -21.2057  -17.6963 C   0  0  0  0  0  0  0  0  0  0  0  0
   29.1289  -20.6440  -18.8579 C   0  0  0  0  0  0  0  0  0  0  0  0
   28.2671  -20.7719  -20.0289 N   0  0  0  0  0  0  0  0  0  0  0  0
   26.6066  -21.3135  -13.7365 C   0  0  0  0  0  0  0  0  0  0  0  0
   26.2896  -22.5122  -13.6704 O   0  0  0  0  0  0  0  0  0  0  0  0
   26.2332  -20.3919  -12.7199 N   0  0  0  0  0  0  0  0  0  0  0  0
   25.4241  -20.7738  -11.5937 C   0  0  1  0  0  0  0  0  0  0  0  0
   25.7941  -20.2127  -10.2840 C   0  0  0  0  0  0  0  0  0  0  0  0
   27.0318  -20.6935   -9.6641 C   0  0  0  0  0  0  0  0  0  0  0  0
   28.0676  -21.4742  -10.0808 C   0  0  0  0  0  0  0  0  0  0  0  0
   29.0083  -21.6314   -9.1307 N   0  0  0  0  0  0  0  0  0  0  0  0
   28.5762  -20.9323   -8.0578 C   0  0  0  0  0  0  0  0  0  0  0  0
   29.1783  -20.7739   -6.8292 C   0  0  0  0  0  0  0  0  0  0  0  0
   28.5200  -19.9994   -5.8976 C   0  0  0  0  0  0  0  0  0  0  0  0
   27.3096  -19.3997   -6.1638 C   0  0  0  0  0  0  0  0  0  0  0  0
   26.7221  -19.5710   -7.4014 C   0  0  0  0  0  0  0  0  0  0  0  0
   27.3649  -20.3427   -8.3483 C   0  0  0  0  0  0  0  0  0  0  0  0
   23.9940  -20.4512  -11.9114 C   0  0  0  0  0  0  0  0  0  0  0  0
   23.7013  -19.2986  -12.3058 O   0  0  0  0  0  0  0  0  0  0  0  0
   20.8401  -22.8018  -10.6796 O   0  0  0  0  0  0  0  0  0  0  0  0
   20.8128  -22.3924  -12.0258 C   0  0  0  0  0  0  0  0  0  0  0  0
   21.5524  -21.0702  -12.1561 C   0  0  2  0  0  0  0  0  0  0  0  0
   22.9423  -21.3831  -11.7915 N   0  0  0  0  0  0  0  0  0  0  0  0
   20.9520  -20.1136  -11.2261 C   0  0  0  0  0  0  0  0  0  0  0  0
   19.6787  -19.6480  -11.4392 O   0  0  0  0  0  0  0  0  0  0  0  0
   21.6031  -19.7191  -10.2319 O   0  0  0  0  0  0  0  0  0  0  0  0
  2  1  1  1
  3  4  1  0
  3  2  1  0
  5  6  1  0
  5  4  1  0
  7  6  1  0
  8  2  1  0
  8  9  2  0
 10  8  1  0
 11 10  1  0
 11 12  1  1
 13 12  1  0
 14 13  2  0
 15 14  1  0
 16 21  2  0
 16 15  1  0
 17 16  1  0
 18 17  2  0
 18 19  1  0
 19 20  2  0
 20 21  1  0
 21 13  1  0
 22 11  1  0
 23 22  2  0
 25 24  1  0
 26 25  1  1
 26 28  1  0
 26 27  1  0
 27 22  1  0
 28 29  1  0
 30 28  2  0
M  END
$$$$
