KWS.pdb
     RDKit          3D

 30 31  0  0  1  0  0  0  0  0999 V2000
   28.0509  -21.3604  -15.0781 N   0  0  0  0  0  0  0  0  0  0  0  0
   27.4112  -20.2813  -14.3833 C   0  0  1  0  0  0  0  0  0  0  0  0
   26.4211  -19.5599  -15.2788 C   0  0  0  0  0  0  0  0  0  0  0  0
   27.2193  -19.0151  -16.4353 C   0  0  0  0  0  0  0  0  0  0  0  0
   27.8512  -17.6978  -16.0978 C   0  0  0  0  0  0  0  0  0  0  0  0
   28.6365  -17.1923  -17.2627 C   0  0  0  0  0  0  0  0  0  0  0  0
   29.3297  -15.9859  -16.8222 N   0  0  0  0  0  0  0  0  0  0  0  0
   26.8109  -20.7698  -13.1308 C   0  0  0  0  0  0  0  0  0  0  0  0
   26.0965  -21.7851  -13.1474 O   0  0  0  0  0  0  0  0  0  0  0  0
   27.0636  -20.0621  -11.9235 N   0  0  0  0  0  0  0  0  0  0  0  0
   26.4658  -20.4388  -10.6707 C   0  0  1  0  0  0  0  0  0  0  0  0
   27.0761  -19.8918   -9.4477 C   0  0  0  0  0  0  0  0  0  0  0  0
   26.6020  -20.4102   -8.1617 C   0  0  0  0  0  0  0  0  0  0  0  0
   25.6087  -21.2624   -7.7834 C   0  0  0  0  0  0  0  0  0  0  0  0
   25.5678  -21.4460   -6.4504 N   0  0  0  0  0  0  0  0  0  0  0  0
   26.5651  -20.6911   -5.9386 C   0  0  0  0  0  0  0  0  0  0  0  0
   26.9426  -20.5332   -4.6234 C   0  0  0  0  0  0  0  0  0  0  0  0
   28.0076  -19.6958   -4.3673 C   0  0  0  0  0  0  0  0  0  0  0  0
   28.6803  -19.0347   -5.3703 C   0  0  0  0  0  0  0  0  0  0  0  0
   28.2863  -19.2058   -6.6824 C   0  0  0  0  0  0  0  0  0  0  0  0
   27.2223  -20.0401   -6.9601 C   0  0  0  0  0  0  0  0  0  0  0  0
   25.0072  -20.0921  -10.7227 C   0  0  0  0  0  0  0  0  0  0  0  0
   24.6573  -18.8994  -10.5661 O   0  0  0  0  0  0  0  0  0  0  0  0
   22.5979  -22.8761  -12.0760 O   0  0  0  0  0  0  0  0  0  0  0  0
   22.1229  -21.5705  -12.3002 C   0  0  0  0  0  0  0  0  0  0  0  0
   22.5837  -20.6739  -11.1619 C   0  0  2  0  0  0  0  0  0  0  0  0
   23.9899  -21.0439  -10.9418 N   0  0  0  0  0  0  0  0  0  0  0  0
   21.7593  -20.9605   -9.9877 C   0  0  0  0  0  0  0  0  0  0  0  0
   20.4077  -20.7246  -10.0175 O   0  0  0  0  0  0  0  0  0  0  0  0
   22.2900  -21.4234   -8.9522 O   0  0  0  0  0  0  0  0  0  0  0  0
  2  1  1  6
  3  4  1  0
  3  2  1  0
  5  6  1  0
  5  4  1  0
  7  6  1  0
  8  2  1  0
  8  9  2  0
 10  8  1  0
 11 10  1  0
 11 12  1  1
 13 12  1  0
 14 13  2  0
 15 14  1  0
 16 21  2  0
 16 15  1  0
 17 16  1  0
 18 17  2  0
 18 19  1  0
 19 20  2  0
 20 21  1  0
 21 13  1  0
 22 11  1  0
 23 22  2  0
 25 24  1  0
 26 25  1  6
 26 28  1  0
 26 27  1  0
 27 22  1  0
 28 29  1  0
 30 28  2  0
M  END
$$$$
