KWS.pdb
     RDKit          3D

 30 31  0  0  1  0  0  0  0  0999 V2000
   26.7658  -21.7577  -14.6959 N   0  0  0  0  0  0  0  0  0  0  0  0
   26.2491  -20.6949  -13.8834 C   0  0  1  0  0  0  0  0  0  0  0  0
   24.9573  -20.1420  -14.4562 C   0  0  0  0  0  0  0  0  0  0  0  0
   25.2395  -19.8267  -15.9027 C   0  0  0  0  0  0  0  0  0  0  0  0
   24.0475  -19.2162  -16.5772 C   0  0  0  0  0  0  0  0  0  0  0  0
   24.3916  -18.8327  -17.9785 C   0  0  0  0  0  0  0  0  0  0  0  0
   23.1756  -18.3068  -18.5907 N   0  0  0  0  0  0  0  0  0  0  0  0
   26.1194  -21.1418  -12.4865 C   0  0  0  0  0  0  0  0  0  0  0  0
   25.9012  -22.3395  -12.2427 O   0  0  0  0  0  0  0  0  0  0  0  0
   26.2464  -20.1849  -11.4422 N   0  0  0  0  0  0  0  0  0  0  0  0
   26.1760  -20.5482  -10.0523 C   0  0  1  0  0  0  0  0  0  0  0  0
   26.8919  -19.6848   -9.0988 C   0  0  0  0  0  0  0  0  0  0  0  0
   27.7934  -20.3315   -8.1415 C   0  0  0  0  0  0  0  0  0  0  0  0
   28.5663  -21.4532   -8.1655 C   0  0  0  0  0  0  0  0  0  0  0  0
   29.2469  -21.6340   -7.0181 N   0  0  0  0  0  0  0  0  0  0  0  0
   28.9101  -20.5991   -6.2169 C   0  0  0  0  0  0  0  0  0  0  0  0
   29.3362  -20.3222   -4.9367 C   0  0  0  0  0  0  0  0  0  0  0  0
   28.8349  -19.1876   -4.3349 C   0  0  0  0  0  0  0  0  0  0  0  0
   27.9439  -18.3516   -4.9697 C   0  0  0  0  0  0  0  0  0  0  0  0
   27.5286  -18.6467   -6.2529 C   0  0  0  0  0  0  0  0  0  0  0  0
   28.0187  -19.7781   -6.8732 C   0  0  0  0  0  0  0  0  0  0  0  0
   24.7302  -20.6588   -9.6680 C   0  0  0  0  0  0  0  0  0  0  0  0
   23.9161  -19.8121  -10.1040 O   0  0  0  0  0  0  0  0  0  0  0  0
   21.5422  -21.9413   -6.4174 O   0  0  0  0  0  0  0  0  0  0  0  0
   22.8493  -21.7590   -6.9059 C   0  0  0  0  0  0  0  0  0  0  0  0
   22.8126  -21.7472   -8.4260 C   0  0  2  0  0  0  0  0  0  0  0  0
   24.2241  -21.6759   -8.8323 N   0  0  0  0  0  0  0  0  0  0  0  0
   22.0653  -20.5663   -8.8590 C   0  0  0  0  0  0  0  0  0  0  0  0
   20.7741  -20.6910   -9.3070 O   0  0  0  0  0  0  0  0  0  0  0  0
   22.6066  -19.4378   -8.8199 O   0  0  0  0  0  0  0  0  0  0  0  0
  2  1  1  6
  3  4  1  0
  3  2  1  0
  5  6  1  0
  5  4  1  0
  7  6  1  0
  8  2  1  0
  8  9  2  0
 10  8  1  0
 11 10  1  0
 11 12  1  1
 13 12  1  0
 14 13  2  0
 15 14  1  0
 16 21  2  0
 16 15  1  0
 17 16  1  0
 18 17  2  0
 18 19  1  0
 19 20  2  0
 20 21  1  0
 21 13  1  0
 22 11  1  0
 23 22  2  0
 25 24  1  0
 26 25  1  1
 26 28  1  0
 26 27  1  0
 27 22  1  0
 28 29  1  0
 30 28  2  0
M  END
$$$$
