KWS.pdb
     RDKit          3D

 30 31  0  0  1  0  0  0  0  0999 V2000
   29.1144  -21.4545  -14.5727 N   0  0  0  0  0  0  0  0  0  0  0  0
   27.8527  -20.7732  -14.5590 C   0  0  1  0  0  0  0  0  0  0  0  0
   27.0634  -21.0503  -15.8250 C   0  0  0  0  0  0  0  0  0  0  0  0
   28.0638  -21.5190  -16.8503 C   0  0  0  0  0  0  0  0  0  0  0  0
   28.6463  -20.3703  -17.6183 C   0  0  0  0  0  0  0  0  0  0  0  0
   29.0192  -20.8106  -18.9953 C   0  0  0  0  0  0  0  0  0  0  0  0
   29.6139  -19.6598  -19.6677 N   0  0  0  0  0  0  0  0  0  0  0  0
   27.1117  -21.1028  -13.3302 C   0  0  0  0  0  0  0  0  0  0  0  0
   26.1076  -21.8303  -13.3951 O   0  0  0  0  0  0  0  0  0  0  0  0
   27.5652  -20.5760  -12.0895 N   0  0  0  0  0  0  0  0  0  0  0  0
   26.8376  -20.7605  -10.8627 C   0  0  1  0  0  0  0  0  0  0  0  0
   27.4567  -20.2383   -9.6334 C   0  0  0  0  0  0  0  0  0  0  0  0
   26.7696  -20.4950   -8.3648 C   0  0  0  0  0  0  0  0  0  0  0  0
   25.5722  -21.0471   -8.0222 C   0  0  0  0  0  0  0  0  0  0  0  0
   25.3813  -21.0766   -6.6899 N   0  0  0  0  0  0  0  0  0  0  0  0
   26.4877  -20.5270   -6.1418 C   0  0  0  0  0  0  0  0  0  0  0  0
   26.7856  -20.3261   -4.8121 C   0  0  0  0  0  0  0  0  0  0  0  0
   27.9978  -19.7391   -4.5173 C   0  0  0  0  0  0  0  0  0  0  0  0
   28.8889  -19.3616   -5.4965 C   0  0  0  0  0  0  0  0  0  0  0  0
   28.5716  -19.5711   -6.8238 C   0  0  0  0  0  0  0  0  0  0  0  0
   27.3628  -20.1575   -7.1402 C   0  0  0  0  0  0  0  0  0  0  0  0
   25.4648  -20.1819  -11.0387 C   0  0  0  0  0  0  0  0  0  0  0  0
   25.3301  -18.9379  -11.1013 O   0  0  0  0  0  0  0  0  0  0  0  0
   22.7435  -22.6039  -12.3179 O   0  0  0  0  0  0  0  0  0  0  0  0
   22.4374  -21.2549  -12.5769 C   0  0  0  0  0  0  0  0  0  0  0  0
   22.9758  -20.3983  -11.4419 C   0  0  2  0  0  0  0  0  0  0  0  0
   24.2978  -20.9673  -11.1403 N   0  0  0  0  0  0  0  0  0  0  0  0
   22.0641  -20.5167  -10.3037 C   0  0  0  0  0  0  0  0  0  0  0  0
   20.7716  -20.0662  -10.4032 O   0  0  0  0  0  0  0  0  0  0  0  0
   22.4657  -21.0316   -9.2352 O   0  0  0  0  0  0  0  0  0  0  0  0
  2  1  1  6
  3  4  1  0
  3  2  1  0
  5  6  1  0
  5  4  1  0
  7  6  1  0
  8  2  1  0
  8  9  2  0
 10  8  1  0
 11 10  1  0
 11 12  1  1
 13 12  1  0
 14 13  2  0
 15 14  1  0
 16 21  2  0
 16 15  1  0
 17 16  1  0
 18 17  2  0
 18 19  1  0
 19 20  2  0
 20 21  1  0
 21 13  1  0
 22 11  1  0
 23 22  2  0
 25 24  1  0
 26 25  1  6
 26 28  1  0
 26 27  1  0
 27 22  1  0
 28 29  1  0
 30 28  2  0
M  END
$$$$
