KWS.pdb
     RDKit          3D

 30 31  0  0  1  0  0  0  0  0999 V2000
   28.4823  -21.7807  -16.2413 N   0  0  0  0  0  0  0  0  0  0  0  0
   27.2136  -22.4204  -16.4353 C   0  0  1  0  0  0  0  0  0  0  0  0
   27.3821  -23.8149  -17.0094 C   0  0  0  0  0  0  0  0  0  0  0  0
   27.9899  -23.6362  -18.3769 C   0  0  0  0  0  0  0  0  0  0  0  0
   29.4031  -24.1356  -18.4223 C   0  0  0  0  0  0  0  0  0  0  0  0
   30.0074  -23.8444  -19.7562 C   0  0  0  0  0  0  0  0  0  0  0  0
   31.4185  -24.2084  -19.6770 N   0  0  0  0  0  0  0  0  0  0  0  0
   26.4382  -22.3986  -15.1839 C   0  0  0  0  0  0  0  0  0  0  0  0
   26.0570  -23.4670  -14.6790 O   0  0  0  0  0  0  0  0  0  0  0  0
   26.1407  -21.1464  -14.5791 N   0  0  0  0  0  0  0  0  0  0  0  0
   25.4688  -21.0438  -13.3115 C   0  0  1  0  0  0  0  0  0  0  0  0
   26.0706  -20.1525  -12.3063 C   0  0  0  0  0  0  0  0  0  0  0  0
   27.2127  -20.6627  -11.5429 C   0  0  0  0  0  0  0  0  0  0  0  0
   28.4189  -21.2019  -11.8750 C   0  0  0  0  0  0  0  0  0  0  0  0
   29.1565  -21.5182  -10.7942 N   0  0  0  0  0  0  0  0  0  0  0  0
   28.4111  -21.1759   -9.7200 C   0  0  0  0  0  0  0  0  0  0  0  0
   28.7158  -21.2961   -8.3822 C   0  0  0  0  0  0  0  0  0  0  0  0
   27.7694  -20.8651   -7.4769 C   0  0  0  0  0  0  0  0  0  0  0  0
   26.5627  -20.3331   -7.8724 C   0  0  0  0  0  0  0  0  0  0  0  0
   26.2759  -20.2214   -9.2184 C   0  0  0  0  0  0  0  0  0  0  0  0
   27.2101  -20.6471  -10.1410 C   0  0  0  0  0  0  0  0  0  0  0  0
   24.0432  -20.6521  -13.5655 C   0  0  0  0  0  0  0  0  0  0  0  0
   23.8007  -19.5509  -14.1116 O   0  0  0  0  0  0  0  0  0  0  0  0
   20.9163  -23.0471  -12.3032 O   0  0  0  0  0  0  0  0  0  0  0  0
   20.7741  -22.3665  -13.5267 C   0  0  0  0  0  0  0  0  0  0  0  0
   21.5477  -21.0592  -13.4588 C   0  0  2  0  0  0  0  0  0  0  0  0
   22.9417  -21.4629  -13.2214 N   0  0  0  0  0  0  0  0  0  0  0  0
   21.0176  -20.2680  -12.3480 C   0  0  0  0  0  0  0  0  0  0  0  0
   19.7544  -19.7363  -12.4187 O   0  0  0  0  0  0  0  0  0  0  0  0
   21.7199  -20.0764  -11.3291 O   0  0  0  0  0  0  0  0  0  0  0  0
  2  1  1  1
  3  4  1  0
  3  2  1  0
  5  6  1  0
  5  4  1  0
  7  6  1  0
  8  2  1  0
  8  9  2  0
 10  8  1  0
 11 10  1  0
 11 12  1  1
 13 12  1  0
 14 13  2  0
 15 14  1  0
 16 21  2  0
 16 15  1  0
 17 16  1  0
 18 17  2  0
 18 19  1  0
 19 20  2  0
 20 21  1  0
 21 13  1  0
 22 11  1  0
 23 22  2  0
 25 24  1  0
 26 25  1  1
 26 28  1  0
 26 27  1  0
 27 22  1  0
 28 29  1  0
 30 28  2  0
M  END
$$$$
