KWS.pdb
     RDKit          3D

 30 31  0  0  1  0  0  0  0  0999 V2000
   25.8603  -19.8429  -18.2847 N   0  0  0  0  0  0  0  0  0  0  0  0
   25.0735  -20.3548  -17.2006 C   0  0  1  0  0  0  0  0  0  0  0  0
   25.9384  -20.6754  -15.9957 C   0  0  0  0  0  0  0  0  0  0  0  0
   26.4916  -22.0574  -16.2308 C   0  0  0  0  0  0  0  0  0  0  0  0
   25.4961  -23.1192  -15.8698 C   0  0  0  0  0  0  0  0  0  0  0  0
   26.0814  -24.4723  -16.1053 C   0  0  0  0  0  0  0  0  0  0  0  0
   25.0266  -25.4473  -15.8467 N   0  0  0  0  0  0  0  0  0  0  0  0
   23.9711  -19.4287  -16.8928 C   0  0  0  0  0  0  0  0  0  0  0  0
   24.2254  -18.2970  -16.4496 O   0  0  0  0  0  0  0  0  0  0  0  0
   22.6318  -19.8548  -17.1102 N   0  0  0  0  0  0  0  0  0  0  0  0
   21.4995  -19.0237  -16.8004 C   0  0  1  0  0  0  0  0  0  0  0  0
   20.5536  -18.7480  -17.8943 C   0  0  0  0  0  0  0  0  0  0  0  0
   19.8485  -17.4636  -17.8750 C   0  0  0  0  0  0  0  0  0  0  0  0
   19.3363  -16.6703  -16.8930 C   0  0  0  0  0  0  0  0  0  0  0  0
   18.7735  -15.5480  -17.3791 N   0  0  0  0  0  0  0  0  0  0  0  0
   18.9212  -15.6072  -18.7212 C   0  0  0  0  0  0  0  0  0  0  0  0
   18.5166  -14.7011  -19.6765 C   0  0  0  0  0  0  0  0  0  0  0  0
   18.7944  -15.0035  -20.9926 C   0  0  0  0  0  0  0  0  0  0  0  0
   19.4484  -16.1583  -21.3591 C   0  0  0  0  0  0  0  0  0  0  0  0
   19.8455  -17.0541  -20.3866 C   0  0  0  0  0  0  0  0  0  0  0  0
   19.5770  -16.7701  -19.0627 C   0  0  0  0  0  0  0  0  0  0  0  0
   20.7793  -19.6273  -15.6311 C   0  0  0  0  0  0  0  0  0  0  0  0
   20.5758  -20.8634  -15.6114 O   0  0  0  0  0  0  0  0  0  0  0  0
   19.3552  -17.2451  -12.5943 O   0  0  0  0  0  0  0  0  0  0  0  0
   19.8350  -18.5202  -12.2418 C   0  0  0  0  0  0  0  0  0  0  0  0
   19.5956  -19.4767  -13.3994 C   0  0  2  0  0  0  0  0  0  0  0  0
   20.3107  -18.8744  -14.5345 N   0  0  0  0  0  0  0  0  0  0  0  0
   18.1552  -19.5496  -13.6456 C   0  0  0  0  0  0  0  0  0  0  0  0
   17.3574  -20.3370  -12.8537 O   0  0  0  0  0  0  0  0  0  0  0  0
   17.6493  -18.8903  -14.5823 O   0  0  0  0  0  0  0  0  0  0  0  0
  2  1  1  6
  3  4  1  0
  3  2  1  0
  5  6  1  0
  5  4  1  0
  7  6  1  0
  8  2  1  0
  8  9  2  0
 10  8  1  0
 11 10  1  0
 11 12  1  6
 13 12  1  0
 14 13  2  0
 15 14  1  0
 16 21  2  0
 16 15  1  0
 17 16  1  0
 18 17  2  0
 18 19  1  0
 19 20  2  0
 20 21  1  0
 21 13  1  0
 22 11  1  0
 23 22  2  0
 25 24  1  0
 26 25  1  1
 26 28  1  0
 26 27  1  0
 27 22  1  0
 28 29  1  0
 30 28  2  0
M  END
$$$$
