KWS.pdb
     RDKit          3D

 30 31  0  0  1  0  0  0  0  0999 V2000
   28.7439  -21.6016  -14.6550 N   0  0  0  0  0  0  0  0  0  0  0  0
   27.4164  -21.2507  -15.0684 C   0  0  1  0  0  0  0  0  0  0  0  0
   27.0796  -21.8620  -16.4158 C   0  0  0  0  0  0  0  0  0  0  0  0
   27.5258  -20.8645  -17.4537 C   0  0  0  0  0  0  0  0  0  0  0  0
   28.8910  -21.1905  -17.9816 C   0  0  0  0  0  0  0  0  0  0  0  0
   29.2905  -20.1950  -19.0200 C   0  0  0  0  0  0  0  0  0  0  0  0
   30.6801  -20.4729  -19.3692 N   0  0  0  0  0  0  0  0  0  0  0  0
   26.4484  -21.5998  -14.0154 C   0  0  0  0  0  0  0  0  0  0  0  0
   25.8404  -22.6807  -14.0740 O   0  0  0  0  0  0  0  0  0  0  0  0
   26.2298  -20.6843  -12.9493 N   0  0  0  0  0  0  0  0  0  0  0  0
   25.3913  -20.9991  -11.8239 C   0  0  1  0  0  0  0  0  0  0  0  0
   25.7891  -20.4465  -10.5187 C   0  0  0  0  0  0  0  0  0  0  0  0
   27.1018  -20.8282   -9.9911 C   0  0  0  0  0  0  0  0  0  0  0  0
   28.1423  -21.5693  -10.4644 C   0  0  0  0  0  0  0  0  0  0  0  0
   29.1690  -21.6289   -9.5956 N   0  0  0  0  0  0  0  0  0  0  0  0
   28.7902  -20.9046   -8.5194 C   0  0  0  0  0  0  0  0  0  0  0  0
   29.4853  -20.6548   -7.3568 C   0  0  0  0  0  0  0  0  0  0  0  0
   28.8650  -19.8745   -6.4043 C   0  0  0  0  0  0  0  0  0  0  0  0
   27.6028  -19.3560   -6.5874 C   0  0  0  0  0  0  0  0  0  0  0  0
   26.9221  -19.6182   -7.7596 C   0  0  0  0  0  0  0  0  0  0  0  0
   27.5256  -20.3973   -8.7261 C   0  0  0  0  0  0  0  0  0  0  0  0
   23.9867  -20.5890  -12.1549 C   0  0  0  0  0  0  0  0  0  0  0  0
   23.6848  -19.3733  -12.1338 O   0  0  0  0  0  0  0  0  0  0  0  0
   21.2823  -23.4484  -12.9536 O   0  0  0  0  0  0  0  0  0  0  0  0
   21.0394  -22.2484  -13.6476 C   0  0  0  0  0  0  0  0  0  0  0  0
   21.6030  -21.0881  -12.8426 C   0  0  2  0  0  0  0  0  0  0  0  0
   22.9696  -21.5050  -12.4946 N   0  0  0  0  0  0  0  0  0  0  0  0
   20.7729  -20.9086  -11.6512 C   0  0  0  0  0  0  0  0  0  0  0  0
   19.4837  -20.4531  -11.7689 O   0  0  0  0  0  0  0  0  0  0  0  0
   21.2414  -21.1723  -10.5203 O   0  0  0  0  0  0  0  0  0  0  0  0
  2  1  1  1
  3  4  1  0
  3  2  1  0
  5  6  1  0
  5  4  1  0
  7  6  1  0
  8  2  1  0
  8  9  2  0
 10  8  1  0
 11 10  1  0
 11 12  1  1
 13 12  1  0
 14 13  2  0
 15 14  1  0
 16 21  2  0
 16 15  1  0
 17 16  1  0
 18 17  2  0
 18 19  1  0
 19 20  2  0
 20 21  1  0
 21 13  1  0
 22 11  1  0
 23 22  2  0
 25 24  1  0
 26 25  1  6
 26 28  1  0
 26 27  1  0
 27 22  1  0
 28 29  1  0
 30 28  2  0
M  END
$$$$
