KWS.pdb
     RDKit          3D

 30 31  0  0  1  0  0  0  0  0999 V2000
   23.5557  -13.4514  -18.9024 N   0  0  0  0  0  0  0  0  0  0  0  0
   22.9394  -12.8185  -17.7728 C   0  0  1  0  0  0  0  0  0  0  0  0
   23.5806  -13.2670  -16.4726 C   0  0  0  0  0  0  0  0  0  0  0  0
   23.4523  -14.7682  -16.4362 C   0  0  0  0  0  0  0  0  0  0  0  0
   24.0610  -15.3441  -15.1927 C   0  0  0  0  0  0  0  0  0  0  0  0
   24.0445  -16.8357  -15.2570 C   0  0  0  0  0  0  0  0  0  0  0  0
   24.6211  -17.3256  -14.0089 N   0  0  0  0  0  0  0  0  0  0  0  0
   22.9425  -11.3565  -17.9465 C   0  0  0  0  0  0  0  0  0  0  0  0
   23.9205  -10.8029  -18.4744 O   0  0  0  0  0  0  0  0  0  0  0  0
   21.8187  -10.6071  -17.5015 N   0  0  0  0  0  0  0  0  0  0  0  0
   21.7161   -9.1855  -17.6940 C   0  0  1  0  0  0  0  0  0  0  0  0
   20.6822   -8.7104  -18.6281 C   0  0  0  0  0  0  0  0  0  0  0  0
   20.8405   -9.0473  -20.0454 C   0  0  0  0  0  0  0  0  0  0  0  0
   20.9094  -10.2126  -20.7478 C   0  0  0  0  0  0  0  0  0  0  0  0
   21.0503  -10.0085  -22.0710 N   0  0  0  0  0  0  0  0  0  0  0  0
   21.0745   -8.6680  -22.2417 C   0  0  0  0  0  0  0  0  0  0  0  0
   21.2001   -7.9469  -23.4085 C   0  0  0  0  0  0  0  0  0  0  0  0
   21.1944   -6.5720  -23.3059 C   0  0  0  0  0  0  0  0  0  0  0  0
   21.0694   -5.9258  -22.0966 C   0  0  0  0  0  0  0  0  0  0  0  0
   20.9450   -6.6666  -20.9381 C   0  0  0  0  0  0  0  0  0  0  0  0
   20.9483   -8.0445  -21.0192 C   0  0  0  0  0  0  0  0  0  0  0  0
   21.5383   -8.5409  -16.3512 C   0  0  0  0  0  0  0  0  0  0  0  0
   20.8963   -9.1479  -15.4629 O   0  0  0  0  0  0  0  0  0  0  0  0
   22.6329   -4.7105  -13.5355 O   0  0  0  0  0  0  0  0  0  0  0  0
   22.5766   -5.3056  -14.8095 C   0  0  0  0  0  0  0  0  0  0  0  0
   21.9125   -6.6683  -14.6906 C   0  0  2  0  0  0  0  0  0  0  0  0
   22.0596   -7.2722  -16.0233 N   0  0  0  0  0  0  0  0  0  0  0  0
   20.5062   -6.4658  -14.3413 C   0  0  0  0  0  0  0  0  0  0  0  0
   20.1022   -6.5345  -13.0315 O   0  0  0  0  0  0  0  0  0  0  0  0
   19.6688   -6.2287  -15.2416 O   0  0  0  0  0  0  0  0  0  0  0  0
  2  1  1  6
  3  4  1  0
  3  2  1  0
  5  6  1  0
  5  4  1  0
  7  6  1  0
  8  2  1  0
  8  9  2  0
 10  8  1  0
 11 10  1  0
 11 12  1  6
 13 12  1  0
 14 13  2  0
 15 14  1  0
 16 21  2  0
 16 15  1  0
 17 16  1  0
 18 17  2  0
 18 19  1  0
 19 20  2  0
 20 21  1  0
 21 13  1  0
 22 11  1  0
 23 22  2  0
 25 24  1  0
 26 25  1  6
 26 28  1  0
 26 27  1  0
 27 22  1  0
 28 29  1  0
 30 28  2  0
M  END
$$$$
