KWS.pdb
     RDKit          3D

 30 31  0  0  1  0  0  0  0  0999 V2000
   27.5193  -20.9949  -17.4711 N   0  0  0  0  0  0  0  0  0  0  0  0
   27.1389  -22.3248  -17.0928 C   0  0  1  0  0  0  0  0  0  0  0  0
   28.2227  -23.3278  -17.4419 C   0  0  0  0  0  0  0  0  0  0  0  0
   28.8272  -22.8592  -18.7405 C   0  0  0  0  0  0  0  0  0  0  0  0
   29.0669  -24.0017  -19.6817 C   0  0  0  0  0  0  0  0  0  0  0  0
   28.3608  -23.7580  -20.9744 C   0  0  0  0  0  0  0  0  0  0  0  0
   29.2727  -23.0002  -21.8255 N   0  0  0  0  0  0  0  0  0  0  0  0
   26.7548  -22.3574  -15.6719 C   0  0  0  0  0  0  0  0  0  0  0  0
   26.5533  -23.4488  -15.1152 O   0  0  0  0  0  0  0  0  0  0  0  0
   26.6212  -21.1303  -14.9656 N   0  0  0  0  0  0  0  0  0  0  0  0
   26.2990  -21.0793  -13.5648 C   0  0  1  0  0  0  0  0  0  0  0  0
   26.9985  -20.0687  -12.7545 C   0  0  0  0  0  0  0  0  0  0  0  0
   27.7399  -20.5345  -11.5795 C   0  0  0  0  0  0  0  0  0  0  0  0
   28.9542  -21.1215  -11.3878 C   0  0  0  0  0  0  0  0  0  0  0  0
   29.2111  -21.3603  -10.0880 N   0  0  0  0  0  0  0  0  0  0  0  0
   28.1320  -20.9161   -9.4063 C   0  0  0  0  0  0  0  0  0  0  0  0
   27.9010  -20.9300   -8.0485 C   0  0  0  0  0  0  0  0  0  0  0  0
   26.7044  -20.4078   -7.6052 C   0  0  0  0  0  0  0  0  0  0  0  0
   25.7649  -19.8884   -8.4674 C   0  0  0  0  0  0  0  0  0  0  0  0
   26.0152  -19.8840   -9.8251 C   0  0  0  0  0  0  0  0  0  0  0  0
   27.2073  -20.4022  -10.2894 C   0  0  0  0  0  0  0  0  0  0  0  0
   24.8139  -20.9161  -13.4296 C   0  0  0  0  0  0  0  0  0  0  0  0
   24.2185  -20.1049  -14.1761 O   0  0  0  0  0  0  0  0  0  0  0  0
   20.8022  -22.2028  -10.9745 O   0  0  0  0  0  0  0  0  0  0  0  0
   22.2035  -22.1874  -11.1030 C   0  0  0  0  0  0  0  0  0  0  0  0
   22.5735  -21.4993  -12.4074 C   0  0  2  0  0  0  0  0  0  0  0  0
   24.0352  -21.6333  -12.4979 N   0  0  0  0  0  0  0  0  0  0  0  0
   22.1637  -20.0975  -12.3205 C   0  0  0  0  0  0  0  0  0  0  0  0
   20.9358  -19.7056  -12.7917 O   0  0  0  0  0  0  0  0  0  0  0  0
   22.9369  -19.2529  -11.8137 O   0  0  0  0  0  0  0  0  0  0  0  0
  2  1  1  1
  3  4  1  0
  3  2  1  0
  5  6  1  0
  5  4  1  0
  7  6  1  0
  8  2  1  0
  8  9  2  0
 10  8  1  0
 11 10  1  0
 11 12  1  6
 13 12  1  0
 14 13  2  0
 15 14  1  0
 16 21  2  0
 16 15  1  0
 17 16  1  0
 18 17  2  0
 18 19  1  0
 19 20  2  0
 20 21  1  0
 21 13  1  0
 22 11  1  0
 23 22  2  0
 25 24  1  0
 26 25  1  1
 26 28  1  0
 26 27  1  0
 27 22  1  0
 28 29  1  0
 30 28  2  0
M  END
$$$$
