VGY.pdb
     RDKit          3D

 24 24  0  0  1  0  0  0  0  0999 V2000
    1.7127  -19.5762   21.6485 C   0  0  0  0  0  0  0  0  0  0  0  0
    2.9932  -18.8845   22.0291 C   0  0  2  0  0  0  0  0  0  0  0  0
    3.4426  -17.9808   20.9003 C   0  0  0  0  0  0  0  0  0  0  0  0
    4.1095  -19.8557   22.3129 C   0  0  2  0  0  0  0  0  0  0  0  0
    3.7045  -20.7851   23.3253 N   0  0  0  0  0  0  0  0  0  0  0  0
    5.3924  -19.2016   22.5787 C   0  0  0  0  0  0  0  0  0  0  0  0
    6.1438  -18.9090   21.6194 O   0  0  0  0  0  0  0  0  0  0  0  0
    5.8251  -18.8795   23.9198 N   0  0  0  0  0  0  0  0  0  0  0  0
    7.1467  -18.3611   24.1655 C   0  0  0  0  0  0  0  0  0  0  0  0
    7.2495  -16.9141   24.1446 C   0  0  0  0  0  0  0  0  0  0  0  0
    6.1977  -16.2077   23.9630 O   0  0  0  0  0  0  0  0  0  0  0  0
    9.7098  -16.0183   30.3043 O   0  0  0  0  0  0  0  0  0  0  0  0
    9.6900  -15.5686   28.9711 C   0  0  0  0  0  0  0  0  0  0  0  0
   10.3261  -16.3074   27.9954 C   0  0  0  0  0  0  0  0  0  0  0  0
   10.3110  -15.8730   26.6858 C   0  0  0  0  0  0  0  0  0  0  0  0
    9.6726  -14.7097   26.3168 C   0  0  0  0  0  0  0  0  0  0  0  0
    9.6336  -14.2000   24.9293 C   0  0  0  0  0  0  0  0  0  0  0  0
    8.4877  -14.7325   24.1160 C   0  0  2  0  0  0  0  0  0  0  0  0
    8.4427  -16.1736   24.3114 N   0  0  0  0  0  0  0  0  0  0  0  0
    8.5195  -14.3667   22.6956 C   0  0  0  0  0  0  0  0  0  0  0  0
    8.6860  -15.3298   21.6820 O   0  0  0  0  0  0  0  0  0  0  0  0
    9.0432  -13.9843   27.3016 C   0  0  0  0  0  0  0  0  0  0  0  0
    9.0524  -14.4133   28.6242 C   0  0  0  0  0  0  0  0  0  0  0  0
    8.4012  -13.1821   22.2967 O   0  0  0  0  0  0  0  0  0  0  0  0
  2  1  1  6
  2  4  1  0
  2  3  1  0
  4  5  1  1
  6  4  1  0
  7  6  2  0
  8  6  1  0
  9 10  1  0
  9  8  1  0
 10 19  1  0
 11 10  2  0
 13 12  1  0
 13 14  2  0
 15 14  1  0
 16 15  2  0
 17 16  1  0
 18 17  1  1
 18 20  1  0
 19 18  1  0
 20 24  2  0
 20 21  1  0
 22 23  2  0
 22 16  1  0
 23 13  1  0
M  END
$$$$
