VGY.pdb
     RDKit          3D

 24 24  0  0  1  0  0  0  0  0999 V2000
    6.7384  -13.6622   18.9227 C   0  0  0  0  0  0  0  0  0  0  0  0
    7.9354  -13.2138   19.7158 C   0  0  2  0  0  0  0  0  0  0  0  0
    8.6567  -12.1083   18.9740 C   0  0  0  0  0  0  0  0  0  0  0  0
    8.9208  -14.3290   19.9507 C   0  0  2  0  0  0  0  0  0  0  0  0
    9.5470  -14.6975   18.7159 N   0  0  0  0  0  0  0  0  0  0  0  0
    8.3536  -15.4557   20.6945 C   0  0  0  0  0  0  0  0  0  0  0  0
    8.5179  -16.6214   20.2647 O   0  0  0  0  0  0  0  0  0  0  0  0
    7.6049  -15.2680   21.9166 N   0  0  0  0  0  0  0  0  0  0  0  0
    7.1341  -16.3983   22.6759 C   0  0  0  0  0  0  0  0  0  0  0  0
    7.8161  -16.6136   23.9382 C   0  0  0  0  0  0  0  0  0  0  0  0
    7.4182  -17.5442   24.7217 O   0  0  0  0  0  0  0  0  0  0  0  0
    5.6695  -10.8992   26.8168 O   0  0  0  0  0  0  0  0  0  0  0  0
    6.3147  -12.1495   26.7907 C   0  0  0  0  0  0  0  0  0  0  0  0
    7.6838  -12.2108   26.9461 C   0  0  0  0  0  0  0  0  0  0  0  0
    8.3237  -13.4331   26.9218 C   0  0  0  0  0  0  0  0  0  0  0  0
    7.6297  -14.6095   26.7449 C   0  0  0  0  0  0  0  0  0  0  0  0
    8.2701  -15.9417   26.7057 C   0  0  0  0  0  0  0  0  0  0  0  0
    9.4365  -16.0302   25.7624 C   0  0  2  0  0  0  0  0  0  0  0  0
    8.9217  -15.8693   24.4111 N   0  0  0  0  0  0  0  0  0  0  0  0
   10.2515  -17.2418   25.9041 C   0  0  0  0  0  0  0  0  0  0  0  0
   10.5924  -18.0438   24.7981 O   0  0  0  0  0  0  0  0  0  0  0  0
    6.2650  -14.5314   26.5912 C   0  0  0  0  0  0  0  0  0  0  0  0
    5.6106  -13.3048   26.6143 C   0  0  0  0  0  0  0  0  0  0  0  0
   10.6932  -17.6374   27.0109 O   0  0  0  0  0  0  0  0  0  0  0  0
  2  1  1  6
  2  4  1  0
  2  3  1  0
  4  5  1  6
  6  4  1  0
  7  6  2  0
  8  6  1  0
  9 10  1  0
  9  8  1  0
 10 19  1  0
 11 10  2  0
 13 12  1  0
 13 14  2  0
 15 14  1  0
 16 15  2  0
 17 16  1  0
 18 17  1  1
 18 20  1  0
 19 18  1  0
 20 24  2  0
 20 21  1  0
 22 23  2  0
 22 16  1  0
 23 13  1  0
M  END
$$$$
