VGY.pdb
     RDKit          3D

 24 24  0  0  1  0  0  0  0  0999 V2000
    7.9487  -13.1560   17.6252 C   0  0  0  0  0  0  0  0  0  0  0  0
    7.6976  -13.7644   18.9778 C   0  0  2  0  0  0  0  0  0  0  0  0
    7.7827  -12.6938   20.0451 C   0  0  0  0  0  0  0  0  0  0  0  0
    8.6984  -14.8369   19.3213 C   0  0  2  0  0  0  0  0  0  0  0  0
    8.6783  -15.8637   18.3224 N   0  0  0  0  0  0  0  0  0  0  0  0
    8.5680  -15.3327   20.6930 C   0  0  0  0  0  0  0  0  0  0  0  0
    8.7202  -14.5392   21.6508 O   0  0  0  0  0  0  0  0  0  0  0  0
    8.2674  -16.7168   20.9821 N   0  0  0  0  0  0  0  0  0  0  0  0
    8.0113  -17.1510   22.3318 C   0  0  0  0  0  0  0  0  0  0  0  0
    9.0398  -16.7992   23.2927 C   0  0  0  0  0  0  0  0  0  0  0  0
   10.2727  -16.9482   22.9829 O   0  0  0  0  0  0  0  0  0  0  0  0
    5.2197  -11.9014   27.1287 O   0  0  0  0  0  0  0  0  0  0  0  0
    6.4112  -12.5626   26.7775 C   0  0  0  0  0  0  0  0  0  0  0  0
    6.3854  -13.5362   25.8010 C   0  0  0  0  0  0  0  0  0  0  0  0
    7.5498  -14.1890   25.4511 C   0  0  0  0  0  0  0  0  0  0  0  0
    8.7528  -13.8953   26.0539 C   0  0  0  0  0  0  0  0  0  0  0  0
   10.0248  -14.5703   25.7180 C   0  0  0  0  0  0  0  0  0  0  0  0
    9.8961  -16.0556   25.5305 C   0  0  2  0  0  0  0  0  0  0  0  0
    8.8096  -16.2871   24.5907 N   0  0  0  0  0  0  0  0  0  0  0  0
    9.7274  -16.8199   26.7714 C   0  0  0  0  0  0  0  0  0  0  0  0
    9.7165  -18.2278   26.7834 O   0  0  0  0  0  0  0  0  0  0  0  0
    8.7616  -12.9220   27.0258 C   0  0  0  0  0  0  0  0  0  0  0  0
    7.5940  -12.2583   27.3857 C   0  0  0  0  0  0  0  0  0  0  0  0
    9.5834  -16.2721   27.8919 O   0  0  0  0  0  0  0  0  0  0  0  0
  2  1  1  6
  2  4  1  0
  2  3  1  0
  4  5  1  6
  6  4  1  0
  7  6  2  0
  8  6  1  0
  9 10  1  0
  9  8  1  0
 10 19  1  0
 11 10  2  0
 13 12  1  0
 13 14  2  0
 15 14  1  0
 16 15  2  0
 17 16  1  0
 18 17  1  1
 18 20  1  0
 19 18  1  0
 20 24  2  0
 20 21  1  0
 22 23  2  0
 22 16  1  0
 23 13  1  0
M  END
$$$$
