VGY.pdb
     RDKit          3D

 24 24  0  0  1  0  0  0  0  0999 V2000
    8.4159  -12.3440   18.0097 C   0  0  0  0  0  0  0  0  0  0  0  0
    7.8597  -13.2043   19.1112 C   0  0  2  0  0  0  0  0  0  0  0  0
    8.1616  -12.5751   20.4550 C   0  0  0  0  0  0  0  0  0  0  0  0
    8.4475  -14.5915   19.1105 C   0  0  2  0  0  0  0  0  0  0  0  0
    8.3156  -15.1787   17.8103 N   0  0  0  0  0  0  0  0  0  0  0  0
    7.9490  -15.4322   20.2009 C   0  0  0  0  0  0  0  0  0  0  0  0
    6.9463  -16.1587   20.0082 O   0  0  0  0  0  0  0  0  0  0  0  0
    8.5787  -15.4529   21.5019 N   0  0  0  0  0  0  0  0  0  0  0  0
    8.1096  -16.3398   22.5359 C   0  0  0  0  0  0  0  0  0  0  0  0
    8.8056  -16.2230   23.8035 C   0  0  0  0  0  0  0  0  0  0  0  0
    9.9881  -15.7340   23.8334 O   0  0  0  0  0  0  0  0  0  0  0  0
    5.8820  -10.8583   26.3356 O   0  0  0  0  0  0  0  0  0  0  0  0
    6.4347  -12.1278   26.5870 C   0  0  0  0  0  0  0  0  0  0  0  0
    5.7200  -13.2585   26.2511 C   0  0  0  0  0  0  0  0  0  0  0  0
    6.2554  -14.5069   26.4945 C   0  0  0  0  0  0  0  0  0  0  0  0
    7.4971  -14.6618   27.0698 C   0  0  0  0  0  0  0  0  0  0  0  0
    8.1104  -15.9766   27.3557 C   0  0  0  0  0  0  0  0  0  0  0  0
    9.0553  -16.4536   26.2891 C   0  0  2  0  0  0  0  0  0  0  0  0
    8.2895  -16.6104   25.0619 N   0  0  0  0  0  0  0  0  0  0  0  0
    9.8077  -17.6657   26.6314 C   0  0  0  0  0  0  0  0  0  0  0  0
   10.8539  -17.6518   27.5736 O   0  0  0  0  0  0  0  0  0  0  0  0
    8.1970  -13.5243   27.3991 C   0  0  0  0  0  0  0  0  0  0  0  0
    7.6666  -12.2618   27.1580 C   0  0  0  0  0  0  0  0  0  0  0  0
    9.5687  -18.7829   26.1105 O   0  0  0  0  0  0  0  0  0  0  0  0
  2  1  1  6
  2  4  1  0
  2  3  1  0
  4  5  1  6
  6  4  1  0
  7  6  2  0
  8  6  1  0
  9 10  1  0
  9  8  1  0
 10 19  1  0
 11 10  2  0
 13 12  1  0
 13 14  2  0
 15 14  1  0
 16 15  2  0
 17 16  1  0
 18 17  1  1
 18 20  1  0
 19 18  1  0
 20 24  2  0
 20 21  1  0
 22 23  2  0
 22 16  1  0
 23 13  1  0
M  END
$$$$
