VGY.pdb
     RDKit          3D

 24 24  0  0  1  0  0  0  0  0999 V2000
    8.0887  -13.0894   19.4160 C   0  0  0  0  0  0  0  0  0  0  0  0
    7.4148  -13.7758   20.5726 C   0  0  2  0  0  0  0  0  0  0  0  0
    7.5394  -12.9233   21.8177 C   0  0  0  0  0  0  0  0  0  0  0  0
    8.0197  -15.1222   20.8745 C   0  0  2  0  0  0  0  0  0  0  0  0
    8.1720  -15.8733   19.6640 N   0  0  0  0  0  0  0  0  0  0  0  0
    7.3248  -15.8427   21.9433 C   0  0  0  0  0  0  0  0  0  0  0  0
    6.1105  -16.1214   21.8083 O   0  0  0  0  0  0  0  0  0  0  0  0
    7.9966  -16.2465   23.1578 N   0  0  0  0  0  0  0  0  0  0  0  0
    7.2498  -16.7445   24.2848 C   0  0  0  0  0  0  0  0  0  0  0  0
    7.0171  -15.7763   25.3399 C   0  0  0  0  0  0  0  0  0  0  0  0
    6.6389  -16.1778   26.4949 O   0  0  0  0  0  0  0  0  0  0  0  0
   11.4559  -16.5805   29.6975 O   0  0  0  0  0  0  0  0  0  0  0  0
   10.6634  -15.6742   28.9691 C   0  0  0  0  0  0  0  0  0  0  0  0
   10.8127  -15.5887   27.6007 C   0  0  0  0  0  0  0  0  0  0  0  0
   10.0391  -14.7024   26.8794 C   0  0  0  0  0  0  0  0  0  0  0  0
    9.1103  -13.8896   27.4906 C   0  0  0  0  0  0  0  0  0  0  0  0
    8.2628  -12.9208   26.7626 C   0  0  0  0  0  0  0  0  0  0  0  0
    6.9332  -13.4747   26.3345 C   0  0  2  0  0  0  0  0  0  0  0  0
    7.1719  -14.3759   25.2175 N   0  0  0  0  0  0  0  0  0  0  0  0
    5.9172  -12.4633   26.0230 C   0  0  0  0  0  0  0  0  0  0  0  0
    5.2923  -11.7008   27.0284 O   0  0  0  0  0  0  0  0  0  0  0  0
    8.9736  -13.9868   28.8558 C   0  0  0  0  0  0  0  0  0  0  0  0
    9.7481  -14.8766   29.5918 C   0  0  0  0  0  0  0  0  0  0  0  0
    5.5433  -12.2152   24.8503 O   0  0  0  0  0  0  0  0  0  0  0  0
  2  1  1  6
  2  4  1  0
  2  3  1  0
  4  5  1  6
  6  4  1  0
  7  6  2  0
  8  6  1  0
  9 10  1  0
  9  8  1  0
 10 19  1  0
 11 10  2  0
 13 12  1  0
 13 14  2  0
 15 14  1  0
 16 15  2  0
 17 16  1  0
 18 17  1  6
 18 20  1  0
 19 18  1  0
 20 24  2  0
 20 21  1  0
 22 23  2  0
 22 16  1  0
 23 13  1  0
M  END
$$$$
