VGY.pdb
     RDKit          3D

 24 24  0  0  1  0  0  0  0  0999 V2000
    7.3767  -12.9175   18.3825 C   0  0  0  0  0  0  0  0  0  0  0  0
    7.9312  -13.6946   19.5451 C   0  0  2  0  0  0  0  0  0  0  0  0
    9.1987  -13.0343   20.0451 C   0  0  0  0  0  0  0  0  0  0  0  0
    8.2671  -15.1169   19.1788 C   0  0  2  0  0  0  0  0  0  0  0  0
    7.2025  -15.6889   18.4092 N   0  0  0  0  0  0  0  0  0  0  0  0
    8.6802  -15.9281   20.3258 C   0  0  0  0  0  0  0  0  0  0  0  0
    7.8085  -16.3860   21.1010 O   0  0  0  0  0  0  0  0  0  0  0  0
   10.0696  -16.2210   20.5966 N   0  0  0  0  0  0  0  0  0  0  0  0
   10.4563  -16.9316   21.7887 C   0  0  0  0  0  0  0  0  0  0  0  0
   10.1114  -16.2706   23.0333 C   0  0  0  0  0  0  0  0  0  0  0  0
   10.5966  -15.1147   23.2914 O   0  0  0  0  0  0  0  0  0  0  0  0
    6.0912  -10.9763   28.1824 O   0  0  0  0  0  0  0  0  0  0  0  0
    6.5557  -11.9328   27.2606 C   0  0  0  0  0  0  0  0  0  0  0  0
    5.7448  -12.9938   26.9159 C   0  0  0  0  0  0  0  0  0  0  0  0
    6.1932  -13.9358   26.0126 C   0  0  0  0  0  0  0  0  0  0  0  0
    7.4413  -13.8490   25.4367 C   0  0  0  0  0  0  0  0  0  0  0  0
    7.9686  -14.8353   24.4693 C   0  0  0  0  0  0  0  0  0  0  0  0
    8.7280  -15.9660   25.1038 C   0  0  2  0  0  0  0  0  0  0  0  0
    9.2585  -16.7949   24.0321 N   0  0  0  0  0  0  0  0  0  0  0  0
    7.9636  -16.7477   26.0821 C   0  0  0  0  0  0  0  0  0  0  0  0
    8.1368  -16.5791   27.4693 O   0  0  0  0  0  0  0  0  0  0  0  0
    8.2378  -12.7851   25.7911 C   0  0  0  0  0  0  0  0  0  0  0  0
    7.7955  -11.8305   26.7002 C   0  0  0  0  0  0  0  0  0  0  0  0
    7.1137  -17.6093   25.7478 O   0  0  0  0  0  0  0  0  0  0  0  0
  2  1  1  6
  2  4  1  0
  2  3  1  0
  4  5  1  1
  6  4  1  0
  7  6  2  0
  8  6  1  0
  9 10  1  0
  9  8  1  0
 10 19  1  0
 11 10  2  0
 13 12  1  0
 13 14  2  0
 15 14  1  0
 16 15  2  0
 17 16  1  0
 18 17  1  6
 18 20  1  0
 19 18  1  0
 20 24  2  0
 20 21  1  0
 22 23  2  0
 22 16  1  0
 23 13  1  0
M  END
$$$$
