RTF.pdb
     RDKit          3D

 30 30  0  0  1  0  0  0  0  0999 V2000
   31.0358  -24.6572  -16.3441 N   0  0  0  0  0  0  0  0  0  0  0  0
   29.7252  -24.9979  -16.7422 C   0  0  0  0  0  0  0  0  0  0  0  0
   29.3002  -26.2188  -16.5399 N   0  0  0  0  0  0  0  0  0  0  0  0
   28.8161  -24.0911  -17.3687 N   0  0  0  0  0  0  0  0  0  0  0  0
   29.0469  -22.6899  -17.4338 C   0  0  0  0  0  0  0  0  0  0  0  0
   29.0043  -22.0018  -16.0950 C   0  0  0  0  0  0  0  0  0  0  0  0
   27.8255  -21.0588  -15.9380 C   0  0  0  0  0  0  0  0  0  0  0  0
   26.7209  -21.8364  -15.2407 C   0  0  2  0  0  0  0  0  0  0  0  0
   26.2216  -22.7684  -16.2572 N   0  0  0  0  0  0  0  0  0  0  0  0
   25.6415  -20.9690  -14.7368 C   0  0  0  0  0  0  0  0  0  0  0  0
   25.8744  -19.8803  -14.1285 O   0  0  0  0  0  0  0  0  0  0  0  0
   28.3442  -26.4619  -16.8920 C   0  0  0  0  0  0  0  0  0  0  0  0
   24.7398  -18.5537  -14.4971 C   0  0  2  0  0  0  0  0  0  0  0  0
   23.4221  -19.0480  -15.0833 O   0  0  0  0  0  0  0  0  0  0  0  0
   23.4706  -18.9156  -16.4721 C   0  0  2  0  0  0  0  0  0  0  0  0
   23.2142  -20.4520  -14.6193 N   0  0  0  0  0  0  0  0  0  0  0  0
   24.2936  -21.3593  -14.9368 C   0  0  0  0  0  0  0  0  0  0  0  0
   21.8885  -21.0093  -14.9756 O   0  0  0  0  0  0  0  0  0  0  0  0
   21.8963  -21.7487  -16.0292 N   0  0  0  0  0  0  0  0  0  0  0  0
   20.6839  -20.8209  -14.3070 C   0  0  1  0  0  0  0  0  0  0  0  0
   19.3771  -21.2819  -14.7629 C   0  0  0  0  0  0  0  0  0  0  0  0
   18.8545  -22.1229  -13.5782 C   0  0  0  0  0  0  0  0  0  0  0  0
   19.4310  -23.4657  -13.5116 C   0  0  0  0  0  0  0  0  0  0  0  0
   18.8057  -24.5194  -14.1238 C   0  0  0  0  0  0  0  0  0  0  0  0
   19.3639  -25.7721  -14.0708 C   0  0  0  0  0  0  0  0  0  0  0  0
   20.5515  -25.9835  -13.4059 C   0  0  0  0  0  0  0  0  0  0  0  0
   21.1967  -24.9119  -12.7754 C   0  0  0  0  0  0  0  0  0  0  0  0
   20.6270  -23.6712  -12.8379 C   0  0  0  0  0  0  0  0  0  0  0  0
   18.4431  -20.2047  -15.0167 O   0  0  0  0  0  0  0  0  0  0  0  0
   17.1744  -20.4832  -15.5787 O   0  0  0  0  0  0  0  0  0  0  0  0
  2  1  1  0
  3  2  2  0
  4  2  1  0
  5  4  1  0
  6  5  1  0
  7  6  1  0
  8  7  1  0
  8  9  1  6
 10  8  1  0
 10 11  2  0
 13 12  1  1
 13 15  1  0
 13 14  1  0
 15 16  1  1
 16 10  1  0
 17 15  1  0
 18 17  2  0
 19 17  1  0
 20 28  1  0
 20 19  1  0
 20 21  1  6
 22 21  1  0
 22 23  2  0
 24 23  1  0
 25 24  2  0
 26 27  2  0
 26 25  1  0
 27 22  1  0
 28 29  1  0
 30 28  2  0
M  END
$$$$
