RTF.pdb
     RDKit          3D

 30 30  0  0  1  0  0  0  0  0999 V2000
   27.8182  -25.7820  -15.8694 N   0  0  0  0  0  0  0  0  0  0  0  0
   27.7234  -25.6034  -17.2664 C   0  0  0  0  0  0  0  0  0  0  0  0
   26.7058  -26.1244  -17.9028 N   0  0  0  0  0  0  0  0  0  0  0  0
   28.6805  -24.8887  -18.0502 N   0  0  0  0  0  0  0  0  0  0  0  0
   29.3939  -23.7621  -17.5574 C   0  0  0  0  0  0  0  0  0  0  0  0
   28.5767  -22.4985  -17.5035 C   0  0  0  0  0  0  0  0  0  0  0  0
   28.9328  -21.5986  -16.3344 C   0  0  0  0  0  0  0  0  0  0  0  0
   28.0169  -21.9791  -15.1823 C   0  0  2  0  0  0  0  0  0  0  0  0
   26.6810  -22.0683  -15.7813 N   0  0  0  0  0  0  0  0  0  0  0  0
   28.0435  -20.9984  -14.0828 C   0  0  0  0  0  0  0  0  0  0  0  0
   28.6062  -19.8670  -14.1964 O   0  0  0  0  0  0  0  0  0  0  0  0
   26.7132  -26.0738  -18.9489 C   0  0  0  0  0  0  0  0  0  0  0  0
   27.0898  -18.7223  -13.7788 C   0  0  2  0  0  0  0  0  0  0  0  0
   26.3605  -19.1164  -12.4994 O   0  0  0  0  0  0  0  0  0  0  0  0
   25.0225  -19.3708  -12.8053 C   0  0  2  0  0  0  0  0  0  0  0  0
   27.0757  -20.2864  -11.9081 N   0  0  0  0  0  0  0  0  0  0  0  0
   27.4191  -21.3249  -12.8528 C   0  0  0  0  0  0  0  0  0  0  0  0
   26.4313  -20.8268  -10.6883 O   0  0  0  0  0  0  0  0  0  0  0  0
   26.1446  -22.0798  -10.7579 N   0  0  0  0  0  0  0  0  0  0  0  0
   26.1207  -20.1396   -9.5200 C   0  0  1  0  0  0  0  0  0  0  0  0
   25.4064  -20.6907   -8.3737 C   0  0  0  0  0  0  0  0  0  0  0  0
   25.6688  -19.6618   -7.2528 C   0  0  0  0  0  0  0  0  0  0  0  0
   27.0249  -19.7204   -6.7074 C   0  0  0  0  0  0  0  0  0  0  0  0
   27.4773  -20.8595   -6.0960 C   0  0  0  0  0  0  0  0  0  0  0  0
   28.7573  -20.9108   -5.6035 C   0  0  0  0  0  0  0  0  0  0  0  0
   29.5968  -19.8247   -5.7171 C   0  0  0  0  0  0  0  0  0  0  0  0
   29.1417  -18.6551   -6.3392 C   0  0  0  0  0  0  0  0  0  0  0  0
   27.8643  -18.6212   -6.8238 C   0  0  0  0  0  0  0  0  0  0  0  0
   23.9774  -20.7968   -8.5827 O   0  0  0  0  0  0  0  0  0  0  0  0
   23.3946  -20.2927   -9.7699 O   0  0  0  0  0  0  0  0  0  0  0  0
  2  1  1  0
  3  2  2  0
  4  2  1  0
  5  4  1  0
  6  5  1  0
  7  6  1  0
  8  7  1  0
  8  9  1  6
 10  8  1  0
 10 11  2  0
 13 12  1  1
 13 15  1  0
 13 14  1  0
 15 16  1  1
 16 10  1  0
 17 15  1  0
 18 17  2  0
 19 17  1  0
 20 28  1  0
 20 19  1  0
 20 21  1  1
 22 21  1  0
 22 23  2  0
 24 23  1  0
 25 24  2  0
 26 27  2  0
 26 25  1  0
 27 22  1  0
 28 29  1  0
 30 28  2  0
M  END
$$$$
