RTF.pdb
     RDKit          3D

 30 30  0  0  1  0  0  0  0  0999 V2000
   18.0886  -15.4776  -15.4212 N   0  0  0  0  0  0  0  0  0  0  0  0
   17.6776  -16.8113  -15.6327 C   0  0  0  0  0  0  0  0  0  0  0  0
   16.9968  -17.0994  -16.7123 N   0  0  0  0  0  0  0  0  0  0  0  0
   17.9498  -17.8867  -14.7324 N   0  0  0  0  0  0  0  0  0  0  0  0
   18.6659  -17.7122  -13.5168 C   0  0  0  0  0  0  0  0  0  0  0  0
   20.1625  -17.7247  -13.6833 C   0  0  0  0  0  0  0  0  0  0  0  0
   20.8588  -18.7507  -12.8081 C   0  0  0  0  0  0  0  0  0  0  0  0
   21.4268  -19.8152  -13.7330 C   0  0  2  0  0  0  0  0  0  0  0  0
   20.2549  -20.5522  -14.2178 N   0  0  0  0  0  0  0  0  0  0  0  0
   22.3781  -20.7132  -13.0549 C   0  0  0  0  0  0  0  0  0  0  0  0
   22.0030  -21.7512  -12.4292 O   0  0  0  0  0  0  0  0  0  0  0  0
   16.6614  -18.0854  -16.8230 C   0  0  0  0  0  0  0  0  0  0  0  0
   26.4199  -21.2411  -14.1931 C   0  0  1  0  0  0  0  0  0  0  0  0
   25.5115  -22.1428  -13.3650 O   0  0  0  0  0  0  0  0  0  0  0  0
   26.2979  -23.0898  -12.7067 C   0  0  1  0  0  0  0  0  0  0  0  0
   24.7206  -21.2725  -12.4446 N   0  0  0  0  0  0  0  0  0  0  0  0
   23.7625  -20.4122  -13.1010 C   0  0  0  0  0  0  0  0  0  0  0  0
   25.5472  -20.5415  -11.4557 O   0  0  0  0  0  0  0  0  0  0  0  0
   25.8956  -19.3613  -11.8334 N   0  0  0  0  0  0  0  0  0  0  0  0
   25.9645  -20.9879  -10.2067 C   0  0  1  0  0  0  0  0  0  0  0  0
   27.0274  -20.3943   -9.4030 C   0  0  0  0  0  0  0  0  0  0  0  0
   26.5865  -20.6773   -7.9507 C   0  0  0  0  0  0  0  0  0  0  0  0
   27.4490  -20.0590   -6.9439 C   0  0  0  0  0  0  0  0  0  0  0  0
   27.0763  -18.8895   -6.3362 C   0  0  0  0  0  0  0  0  0  0  0  0
   27.8839  -18.3266   -5.3798 C   0  0  0  0  0  0  0  0  0  0  0  0
   29.0708  -18.9269   -5.0219 C   0  0  0  0  0  0  0  0  0  0  0  0
   29.4605  -20.1221   -5.6397 C   0  0  0  0  0  0  0  0  0  0  0  0
   28.6446  -20.6688   -6.5901 C   0  0  0  0  0  0  0  0  0  0  0  0
   28.3232  -21.0024   -9.6229 O   0  0  0  0  0  0  0  0  0  0  0  0
   29.4908  -20.2026   -9.6269 O   0  0  0  0  0  0  0  0  0  0  0  0
  2  1  1  0
  3  2  2  0
  4  2  1  0
  5  4  1  0
  6  5  1  0
  7  6  1  0
  8  7  1  0
  8  9  1  1
 10  8  1  0
 10 11  2  0
 13 12  1  6
 13 15  1  0
 13 14  1  0
 15 16  1  6
 16 10  1  0
 17 15  1  0
 18 17  2  0
 19 17  1  0
 20 28  1  0
 20 19  1  0
 20 21  1  6
 22 21  1  0
 22 23  2  0
 24 23  1  0
 25 24  2  0
 26 27  2  0
 26 25  1  0
 27 22  1  0
 28 29  1  0
 30 28  2  0
M  END
$$$$
