RTF.pdb
     RDKit          3D

 30 30  0  0  1  0  0  0  0  0999 V2000
   24.9293  -26.0453  -15.3443 N   0  0  0  0  0  0  0  0  0  0  0  0
   24.5217  -25.9488  -16.6923 C   0  0  0  0  0  0  0  0  0  0  0  0
   23.2473  -25.8217  -16.9599 N   0  0  0  0  0  0  0  0  0  0  0  0
   25.4164  -25.9887  -17.8054 N   0  0  0  0  0  0  0  0  0  0  0  0
   26.3998  -24.9893  -18.0405 C   0  0  0  0  0  0  0  0  0  0  0  0
   27.5629  -25.0414  -17.0855 C   0  0  0  0  0  0  0  0  0  0  0  0
   28.5655  -23.9212  -17.2935 C   0  0  0  0  0  0  0  0  0  0  0  0
   27.8166  -22.6111  -17.1089 C   0  0  2  0  0  0  0  0  0  0  0  0
   28.3667  -21.7190  -18.1350 N   0  0  0  0  0  0  0  0  0  0  0  0
   27.9856  -22.0410  -15.7607 C   0  0  0  0  0  0  0  0  0  0  0  0
   29.0619  -22.1672  -15.1009 O   0  0  0  0  0  0  0  0  0  0  0  0
   22.9685  -25.7675  -17.9680 C   0  0  0  0  0  0  0  0  0  0  0  0
   28.5158  -18.9558  -14.5877 C   0  0  2  0  0  0  0  0  0  0  0  0
   27.2344  -19.2757  -13.8261 O   0  0  0  0  0  0  0  0  0  0  0  0
   26.1807  -18.5627  -14.4006 C   0  0  2  0  0  0  0  0  0  0  0  0
   27.0447  -20.7566  -13.8534 N   0  0  0  0  0  0  0  0  0  0  0  0
   26.9116  -21.3244  -15.1758 C   0  0  0  0  0  0  0  0  0  0  0  0
   25.9970  -21.2423  -12.9251 O   0  0  0  0  0  0  0  0  0  0  0  0
   24.9947  -21.7988  -13.5104 N   0  0  0  0  0  0  0  0  0  0  0  0
   25.9926  -21.1610  -11.5369 C   0  0  1  0  0  0  0  0  0  0  0  0
   24.8149  -21.2670  -10.6827 C   0  0  0  0  0  0  0  0  0  0  0  0
   25.3903  -21.7254   -9.3253 C   0  0  0  0  0  0  0  0  0  0  0  0
   26.4132  -20.8285   -8.7878 C   0  0  0  0  0  0  0  0  0  0  0  0
   26.0532  -19.6997   -8.1006 C   0  0  0  0  0  0  0  0  0  0  0  0
   27.0204  -18.8739   -7.5846 C   0  0  0  0  0  0  0  0  0  0  0  0
   28.3557  -19.1681   -7.7506 C   0  0  0  0  0  0  0  0  0  0  0  0
   28.7328  -20.3195   -8.4537 C   0  0  0  0  0  0  0  0  0  0  0  0
   27.7568  -21.1306   -8.9609 C   0  0  0  0  0  0  0  0  0  0  0  0
   24.1252  -20.0077  -10.4944 O   0  0  0  0  0  0  0  0  0  0  0  0
   24.6976  -18.8063  -10.9761 O   0  0  0  0  0  0  0  0  0  0  0  0
  2  1  1  0
  3  2  2  0
  4  2  1  0
  5  4  1  0
  6  5  1  0
  7  6  1  0
  8  7  1  0
  8  9  1  6
 10  8  1  0
 10 11  2  0
 13 12  1  1
 13 15  1  0
 13 14  1  0
 15 16  1  1
 16 10  1  0
 17 15  1  0
 18 17  2  0
 19 17  1  0
 20 28  1  0
 20 19  1  0
 20 21  1  1
 22 21  1  0
 22 23  2  0
 24 23  1  0
 25 24  2  0
 26 27  2  0
 26 25  1  0
 27 22  1  0
 28 29  1  0
 30 28  2  0
M  END
$$$$
