RTF.pdb
     RDKit          3D

 30 30  0  0  1  0  0  0  0  0999 V2000
   28.8840  -26.6724  -18.6972 N   0  0  0  0  0  0  0  0  0  0  0  0
   29.5378  -26.1983  -17.5395 C   0  0  0  0  0  0  0  0  0  0  0  0
   30.7803  -25.7990  -17.6339 N   0  0  0  0  0  0  0  0  0  0  0  0
   28.9318  -26.1296  -16.2476 N   0  0  0  0  0  0  0  0  0  0  0  0
   27.5922  -26.5368  -16.0016 C   0  0  0  0  0  0  0  0  0  0  0  0
   26.5841  -25.4249  -16.1253 C   0  0  0  0  0  0  0  0  0  0  0  0
   27.0304  -24.1300  -15.4717 C   0  0  0  0  0  0  0  0  0  0  0  0
   25.8928  -23.1340  -15.6304 C   0  0  2  0  0  0  0  0  0  0  0  0
   25.8507  -22.8413  -17.0670 N   0  0  0  0  0  0  0  0  0  0  0  0
   26.0941  -21.9056  -14.8419 C   0  0  0  0  0  0  0  0  0  0  0  0
   26.3036  -20.7781  -15.3844 O   0  0  0  0  0  0  0  0  0  0  0  0
   31.2270  -25.4032  -16.7733 C   0  0  0  0  0  0  0  0  0  0  0  0
   25.2940  -19.4041  -14.5001 C   0  0  2  0  0  0  0  0  0  0  0  0
   25.0365  -19.7574  -13.0396 O   0  0  0  0  0  0  0  0  0  0  0  0
   23.7171  -20.1943  -12.9091 C   0  0  2  0  0  0  0  0  0  0  0  0
   26.0505  -20.7744  -12.6303 N   0  0  0  0  0  0  0  0  0  0  0  0
   26.0523  -21.9803  -13.4270 C   0  0  0  0  0  0  0  0  0  0  0  0
   26.0565  -21.0611  -11.1767 O   0  0  0  0  0  0  0  0  0  0  0  0
   25.2939  -22.0391  -10.8318 N   0  0  0  0  0  0  0  0  0  0  0  0
   26.7798  -20.4039  -10.1875 C   0  0  2  0  0  0  0  0  0  0  0  0
   26.6791  -20.6521   -8.7535 C   0  0  0  0  0  0  0  0  0  0  0  0
   27.8666  -19.8614   -8.1633 C   0  0  0  0  0  0  0  0  0  0  0  0
   28.0084  -20.0088   -6.7148 C   0  0  0  0  0  0  0  0  0  0  0  0
   28.5348  -21.1562   -6.1833 C   0  0  0  0  0  0  0  0  0  0  0  0
   28.6805  -21.2776   -4.8240 C   0  0  0  0  0  0  0  0  0  0  0  0
   28.3017  -20.2542   -3.9836 C   0  0  0  0  0  0  0  0  0  0  0  0
   27.7608  -19.0781   -4.5185 C   0  0  0  0  0  0  0  0  0  0  0  0
   27.6226  -18.9740   -5.8742 C   0  0  0  0  0  0  0  0  0  0  0  0
   25.4516  -20.1544   -8.1681 O   0  0  0  0  0  0  0  0  0  0  0  0
   24.8557  -20.8378   -7.0814 O   0  0  0  0  0  0  0  0  0  0  0  0
  2  1  1  0
  3  2  2  0
  4  2  1  0
  5  4  1  0
  6  5  1  0
  7  6  1  0
  8  7  1  0
  8  9  1  6
 10  8  1  0
 10 11  2  0
 13 12  1  1
 13 15  1  0
 13 14  1  0
 15 16  1  1
 16 10  1  0
 17 15  1  0
 18 17  2  0
 19 17  1  0
 20 28  1  0
 20 19  1  0
 20 21  1  6
 22 21  1  0
 22 23  2  0
 24 23  1  0
 25 24  2  0
 26 27  2  0
 26 25  1  0
 27 22  1  0
 28 29  1  0
 30 28  2  0
M  END
$$$$
