RTF.pdb
     RDKit          3D

 30 30  0  0  1  0  0  0  0  0999 V2000
   32.5398  -24.5483  -18.3341 N   0  0  0  0  0  0  0  0  0  0  0  0
   31.7436  -25.4810  -19.0332 C   0  0  0  0  0  0  0  0  0  0  0  0
   32.3231  -26.5092  -19.5979 N   0  0  0  0  0  0  0  0  0  0  0  0
   30.3262  -25.3763  -19.1778 N   0  0  0  0  0  0  0  0  0  0  0  0
   29.5559  -24.3770  -18.5226 C   0  0  0  0  0  0  0  0  0  0  0  0
   30.1168  -22.9863  -18.6607 C   0  0  0  0  0  0  0  0  0  0  0  0
   29.2580  -21.9210  -18.0043 C   0  0  0  0  0  0  0  0  0  0  0  0
   28.5408  -22.5813  -16.8377 C   0  0  2  0  0  0  0  0  0  0  0  0
   27.1453  -22.6963  -17.2745 N   0  0  0  0  0  0  0  0  0  0  0  0
   28.6463  -21.8062  -15.5890 C   0  0  0  0  0  0  0  0  0  0  0  0
   29.5697  -20.9586  -15.3927 O   0  0  0  0  0  0  0  0  0  0  0  0
   31.7253  -27.1394  -20.1830 C   0  0  0  0  0  0  0  0  0  0  0  0
   29.0324  -19.4868  -14.5784 C   0  0  2  0  0  0  0  0  0  0  0  0
   27.7427  -19.6632  -13.7849 O   0  0  0  0  0  0  0  0  0  0  0  0
   26.6788  -19.1686  -14.5413 C   0  0  2  0  0  0  0  0  0  0  0  0
   27.6138  -21.1102  -13.4390 N   0  0  0  0  0  0  0  0  0  0  0  0
   27.6843  -22.0099  -14.5681 C   0  0  0  0  0  0  0  0  0  0  0  0
   26.4676  -21.4126  -12.5502 O   0  0  0  0  0  0  0  0  0  0  0  0
   25.4001  -21.7702  -13.1742 N   0  0  0  0  0  0  0  0  0  0  0  0
   26.4349  -21.3527  -11.1614 C   0  0  1  0  0  0  0  0  0  0  0  0
   25.2659  -21.6064  -10.3265 C   0  0  0  0  0  0  0  0  0  0  0  0
   25.8675  -21.8755   -8.9303 C   0  0  0  0  0  0  0  0  0  0  0  0
   26.6332  -20.7504   -8.3939 C   0  0  0  0  0  0  0  0  0  0  0  0
   25.9892  -19.6541   -7.8845 C   0  0  0  0  0  0  0  0  0  0  0  0
   26.7162  -18.6113   -7.3671 C   0  0  0  0  0  0  0  0  0  0  0  0
   28.0929  -18.6543   -7.3538 C   0  0  0  0  0  0  0  0  0  0  0  0
   28.7596  -19.7708   -7.8744 C   0  0  0  0  0  0  0  0  0  0  0  0
   28.0202  -20.8001   -8.3859 C   0  0  0  0  0  0  0  0  0  0  0  0
   24.3669  -20.4747  -10.2357 O   0  0  0  0  0  0  0  0  0  0  0  0
   24.7595  -19.2140  -10.7451 O   0  0  0  0  0  0  0  0  0  0  0  0
  2  1  1  0
  3  2  2  0
  4  2  1  0
  5  4  1  0
  6  5  1  0
  7  6  1  0
  8  7  1  0
  8  9  1  6
 10  8  1  0
 10 11  2  0
 13 12  1  1
 13 15  1  0
 13 14  1  0
 15 16  1  1
 16 10  1  0
 17 15  1  0
 18 17  2  0
 19 17  1  0
 20 28  1  0
 20 19  1  0
 20 21  1  1
 22 21  1  0
 22 23  2  0
 24 23  1  0
 25 24  2  0
 26 27  2  0
 26 25  1  0
 27 22  1  0
 28 29  1  0
 30 28  2  0
M  END
$$$$
