RTF.pdb
     RDKit          3D

 30 30  0  0  1  0  0  0  0  0999 V2000
   23.2880  -27.7887  -17.0737 N   0  0  0  0  0  0  0  0  0  0  0  0
   24.6637  -27.8913  -17.3726 C   0  0  0  0  0  0  0  0  0  0  0  0
   25.0791  -28.8947  -18.1024 N   0  0  0  0  0  0  0  0  0  0  0  0
   25.6538  -26.9658  -16.9205 N   0  0  0  0  0  0  0  0  0  0  0  0
   25.3476  -25.8540  -16.0891 C   0  0  0  0  0  0  0  0  0  0  0  0
   26.5296  -24.9687  -15.7945 C   0  0  0  0  0  0  0  0  0  0  0  0
   26.1769  -23.7459  -14.9677 C   0  0  0  0  0  0  0  0  0  0  0  0
   25.1447  -22.9559  -15.7560 C   0  0  2  0  0  0  0  0  0  0  0  0
   25.7960  -21.6735  -16.0434 N   0  0  0  0  0  0  0  0  0  0  0  0
   23.8863  -22.7602  -15.0148 C   0  0  0  0  0  0  0  0  0  0  0  0
   23.4784  -21.6118  -14.6620 O   0  0  0  0  0  0  0  0  0  0  0  0
   26.1061  -28.9574  -18.2975 C   0  0  0  0  0  0  0  0  0  0  0  0
   21.5782  -21.5171  -15.1115 C   0  0  2  0  0  0  0  0  0  0  0  0
   20.8655  -22.8433  -14.8719 O   0  0  0  0  0  0  0  0  0  0  0  0
   20.4822  -23.3762  -16.1039 C   0  0  2  0  0  0  0  0  0  0  0  0
   21.7887  -23.7241  -14.0961 N   0  0  0  0  0  0  0  0  0  0  0  0
   23.0992  -23.8912  -14.6825 C   0  0  0  0  0  0  0  0  0  0  0  0
   21.1847  -25.0154  -13.6927 O   0  0  0  0  0  0  0  0  0  0  0  0
   21.4553  -25.9918  -14.4866 N   0  0  0  0  0  0  0  0  0  0  0  0
   20.3871  -25.2661  -12.5815 C   0  0  1  0  0  0  0  0  0  0  0  0
   19.7801  -26.5485  -12.2424 C   0  0  0  0  0  0  0  0  0  0  0  0
   19.8993  -26.6120  -10.7044 C   0  0  0  0  0  0  0  0  0  0  0  0
   19.3518  -27.8375  -10.1228 C   0  0  0  0  0  0  0  0  0  0  0  0
   20.0680  -29.0043  -10.1645 C   0  0  0  0  0  0  0  0  0  0  0  0
   19.5535  -30.1446   -9.6001 C   0  0  0  0  0  0  0  0  0  0  0  0
   18.3191  -30.1297   -8.9892 C   0  0  0  0  0  0  0  0  0  0  0  0
   17.5791  -28.9412   -8.9436 C   0  0  0  0  0  0  0  0  0  0  0  0
   18.1064  -27.8150   -9.5107 C   0  0  0  0  0  0  0  0  0  0  0  0
   18.3808  -26.6367  -12.6047 O   0  0  0  0  0  0  0  0  0  0  0  0
   17.8445  -27.8603  -13.0719 O   0  0  0  0  0  0  0  0  0  0  0  0
  2  1  1  0
  3  2  2  0
  4  2  1  0
  5  4  1  0
  6  5  1  0
  7  6  1  0
  8  7  1  0
  8  9  1  1
 10  8  1  0
 10 11  2  0
 13 12  1  1
 13 15  1  0
 13 14  1  0
 15 16  1  1
 16 10  1  0
 17 15  1  0
 18 17  2  0
 19 17  1  0
 20 28  1  0
 20 19  1  0
 20 21  1  6
 22 21  1  0
 22 23  2  0
 24 23  1  0
 25 24  2  0
 26 27  2  0
 26 25  1  0
 27 22  1  0
 28 29  1  0
 30 28  2  0
M  END
$$$$
