QSW.pdb
     RDKit          3D

 30 31  0  0  1  0  0  0  0  0999 V2000
   29.8431  -20.3883  -18.0601 N   0  0  0  0  0  0  0  0  0  0  0  0
   28.6948  -21.1586  -18.3333 C   0  0  0  0  0  0  0  0  0  0  0  0
   27.8372  -20.7171  -19.1494 O   0  0  0  0  0  0  0  0  0  0  0  0
   28.4528  -22.4877  -17.6938 C   0  0  0  0  0  0  0  0  0  0  0  0
   27.0779  -22.4315  -17.0941 C   0  0  0  0  0  0  0  0  0  0  0  0
   26.9018  -21.3590  -16.0339 C   0  0  2  0  0  0  0  0  0  0  0  0
   28.0414  -21.4951  -15.1034 N   0  0  0  0  0  0  0  0  0  0  0  0
   25.6770  -21.6820  -15.2547 C   0  0  0  0  0  0  0  0  0  0  0  0
   24.6457  -22.0782  -15.8719 O   0  0  0  0  0  0  0  0  0  0  0  0
   25.5196  -20.8391  -11.2001 O   0  0  0  0  0  0  0  0  0  0  0  0
   24.8725  -22.0149  -11.5720 C   0  0  0  0  0  0  0  0  0  0  0  0
   24.4656  -21.8464  -13.0420 C   0  0  2  0  0  0  0  0  0  0  0  0
   25.6031  -21.5729  -13.8557 N   0  0  0  0  0  0  0  0  0  0  0  0
   23.4406  -20.7954  -13.0484 C   0  0  0  0  0  0  0  0  0  0  0  0
   23.9199  -19.6036  -12.9256 O   0  0  0  0  0  0  0  0  0  0  0  0
   22.0489  -21.0022  -13.1788 N   0  0  0  0  0  0  0  0  0  0  0  0
   21.1727  -19.8603  -13.1846 C   0  0  1  0  0  0  0  0  0  0  0  0
   21.5314  -18.8894  -14.2803 C   0  0  0  0  0  0  0  0  0  0  0  0
   21.3141  -19.3638  -15.6492 C   0  0  0  0  0  0  0  0  0  0  0  0
   20.0905  -19.9326  -16.0558 C   0  0  0  0  0  0  0  0  0  0  0  0
   20.1825  -20.2369  -17.3592 N   0  0  0  0  0  0  0  0  0  0  0  0
   21.3847  -19.9055  -17.8373 C   0  0  0  0  0  0  0  0  0  0  0  0
   21.9489  -20.0224  -19.0820 C   0  0  0  0  0  0  0  0  0  0  0  0
   23.2401  -19.5826  -19.2372 C   0  0  0  0  0  0  0  0  0  0  0  0
   23.9965  -19.0386  -18.2323 C   0  0  0  0  0  0  0  0  0  0  0  0
   23.3904  -18.9363  -16.9815 C   0  0  0  0  0  0  0  0  0  0  0  0
   22.0775  -19.3688  -16.7755 C   0  0  0  0  0  0  0  0  0  0  0  0
   19.7687  -20.2696  -13.1603 C   0  0  0  0  0  0  0  0  0  0  0  0
   18.7900  -19.4712  -13.0373 O   0  0  0  0  0  0  0  0  0  0  0  0
   19.4216  -21.6131  -13.2812 O   0  0  0  0  0  0  0  0  0  0  0  0
  2  1  1  0
  3  2  2  0
  4  2  1  0
  5  6  1  0
  5  4  1  0
  6  8  1  0
  6  7  1  1
  8  9  2  0
 10 11  1  0
 12 11  1  1
 12 14  1  0
 13  8  1  0
 13 12  1  0
 14 15  2  0
 16 17  1  0
 16 14  1  0
 17 28  1  0
 17 18  1  6
 19 18  1  0
 20 19  2  0
 21 22  1  0
 21 20  1  0
 22 27  2  0
 23 22  1  0
 23 24  2  0
 24 25  1  0
 25 26  2  0
 27 19  1  0
 27 26  1  0
 28 29  2  0
 28 30  1  0
M  END
$$$$
