QSW.pdb
     RDKit          3D

 30 31  0  0  1  0  0  0  0  0999 V2000
   30.5170  -21.6407  -19.9569 N   0  0  0  0  0  0  0  0  0  0  0  0
   29.6260  -21.0438  -20.8714 C   0  0  0  0  0  0  0  0  0  0  0  0
   29.7585  -21.2825  -22.1050 O   0  0  0  0  0  0  0  0  0  0  0  0
   28.5209  -20.1368  -20.4351 C   0  0  0  0  0  0  0  0  0  0  0  0
   28.5775  -20.0820  -18.9360 C   0  0  0  0  0  0  0  0  0  0  0  0
   28.6123  -18.6765  -18.3629 C   0  0  2  0  0  0  0  0  0  0  0  0
   30.0202  -18.2322  -18.4214 N   0  0  0  0  0  0  0  0  0  0  0  0
   28.2535  -18.7605  -16.9221 C   0  0  0  0  0  0  0  0  0  0  0  0
   28.9200  -19.5288  -16.1691 O   0  0  0  0  0  0  0  0  0  0  0  0
   24.9116  -16.7998  -15.5742 O   0  0  0  0  0  0  0  0  0  0  0  0
   25.9522  -16.8004  -14.6485 C   0  0  0  0  0  0  0  0  0  0  0  0
   26.8267  -18.0194  -14.9712 C   0  0  2  0  0  0  0  0  0  0  0  0
   27.2057  -18.0231  -16.3450 N   0  0  0  0  0  0  0  0  0  0  0  0
   26.0448  -19.1875  -14.5480 C   0  0  0  0  0  0  0  0  0  0  0  0
   25.6043  -19.8995  -15.5300 O   0  0  0  0  0  0  0  0  0  0  0  0
   25.7702  -19.5553  -13.2116 N   0  0  0  0  0  0  0  0  0  0  0  0
   24.9924  -20.7403  -12.9612 C   0  0  1  0  0  0  0  0  0  0  0  0
   25.6759  -21.6572  -11.9794 C   0  0  0  0  0  0  0  0  0  0  0  0
   26.1981  -21.0195  -10.7682 C   0  0  0  0  0  0  0  0  0  0  0  0
   25.3562  -20.3600   -9.8506 C   0  0  0  0  0  0  0  0  0  0  0  0
   26.1116  -19.9108   -8.8369 N   0  0  0  0  0  0  0  0  0  0  0  0
   27.3942  -20.2315   -9.0262 C   0  0  0  0  0  0  0  0  0  0  0  0
   28.5253  -19.9936   -8.2878 C   0  0  0  0  0  0  0  0  0  0  0  0
   29.7166  -20.4629   -8.7831 C   0  0  0  0  0  0  0  0  0  0  0  0
   29.8460  -21.1486   -9.9624 C   0  0  0  0  0  0  0  0  0  0  0  0
   28.6757  -21.3711  -10.6857 C   0  0  0  0  0  0  0  0  0  0  0  0
   27.4393  -20.9141  -10.2210 C   0  0  0  0  0  0  0  0  0  0  0  0
   23.6079  -20.4050  -12.6292 C   0  0  0  0  0  0  0  0  0  0  0  0
   22.6731  -21.2542  -12.5061 O   0  0  0  0  0  0  0  0  0  0  0  0
   23.2324  -19.0805  -12.4176 O   0  0  0  0  0  0  0  0  0  0  0  0
  2  1  1  0
  3  2  2  0
  4  2  1  0
  5  6  1  0
  5  4  1  0
  6  8  1  0
  6  7  1  1
  8  9  2  0
 10 11  1  0
 12 11  1  6
 12 14  1  0
 13  8  1  0
 13 12  1  0
 14 15  2  0
 16 17  1  0
 16 14  1  0
 17 28  1  0
 17 18  1  1
 19 18  1  0
 20 19  2  0
 21 22  1  0
 21 20  1  0
 22 27  2  0
 23 22  1  0
 23 24  2  0
 24 25  1  0
 25 26  2  0
 27 19  1  0
 27 26  1  0
 28 29  2  0
 28 30  1  0
M  END
$$$$
