QSW.pdb
     RDKit          3D

 30 31  0  0  1  0  0  0  0  0999 V2000
   22.7843   -9.6943  -24.7575 N   0  0  0  0  0  0  0  0  0  0  0  0
   21.8028   -9.4717  -23.7708 C   0  0  0  0  0  0  0  0  0  0  0  0
   20.7707  -10.2003  -23.7537 O   0  0  0  0  0  0  0  0  0  0  0  0
   21.9386   -8.4029  -22.7348 C   0  0  0  0  0  0  0  0  0  0  0  0
   20.7928   -7.4556  -22.9428 C   0  0  0  0  0  0  0  0  0  0  0  0
   19.8915   -7.2897  -21.7322 C   0  0  2  0  0  0  0  0  0  0  0  0
   18.7942   -6.3900  -22.1439 N   0  0  0  0  0  0  0  0  0  0  0  0
   20.6610   -6.5681  -20.6840 C   0  0  0  0  0  0  0  0  0  0  0  0
   21.6782   -7.1258  -20.1784 O   0  0  0  0  0  0  0  0  0  0  0  0
   21.3242   -2.3790  -18.3474 O   0  0  0  0  0  0  0  0  0  0  0  0
   20.4287   -3.1138  -19.1205 C   0  0  0  0  0  0  0  0  0  0  0  0
   20.9963   -4.5361  -19.2178 C   0  0  2  0  0  0  0  0  0  0  0  0
   20.3179   -5.2861  -20.2219 N   0  0  0  0  0  0  0  0  0  0  0  0
   20.8952   -5.0934  -17.8635 C   0  0  0  0  0  0  0  0  0  0  0  0
   19.7466   -5.6220  -17.6052 O   0  0  0  0  0  0  0  0  0  0  0  0
   21.9209   -5.0890  -16.8916 N   0  0  0  0  0  0  0  0  0  0  0  0
   21.6767   -5.7141  -15.6184 C   0  0  1  0  0  0  0  0  0  0  0  0
   22.6506   -6.8333  -15.3522 C   0  0  0  0  0  0  0  0  0  0  0  0
   22.2420   -7.8061  -14.3359 C   0  0  0  0  0  0  0  0  0  0  0  0
   21.4065   -7.4518  -13.2579 C   0  0  0  0  0  0  0  0  0  0  0  0
   21.1834   -8.5510  -12.5217 N   0  0  0  0  0  0  0  0  0  0  0  0
   21.8159   -9.6050  -13.0441 C   0  0  0  0  0  0  0  0  0  0  0  0
   21.8975  -10.9186  -12.6584 C   0  0  0  0  0  0  0  0  0  0  0  0
   22.6581  -11.7607  -13.4311 C   0  0  0  0  0  0  0  0  0  0  0  0
   23.3380  -11.3731  -14.5560 C   0  0  0  0  0  0  0  0  0  0  0  0
   23.2322  -10.0312  -14.9168 C   0  0  0  0  0  0  0  0  0  0  0  0
   22.4681   -9.1366  -14.1625 C   0  0  0  0  0  0  0  0  0  0  0  0
   21.5752   -4.7197  -14.5506 C   0  0  0  0  0  0  0  0  0  0  0  0
   22.2843   -3.6699  -14.4771 O   0  0  0  0  0  0  0  0  0  0  0  0
   20.6518   -4.8804  -13.5202 O   0  0  0  0  0  0  0  0  0  0  0  0
  2  1  1  0
  3  2  2  0
  4  2  1  0
  5  6  1  0
  5  4  1  0
  6  8  1  0
  6  7  1  6
  8  9  2  0
 10 11  1  0
 12 11  1  1
 12 14  1  0
 13  8  1  0
 13 12  1  0
 14 15  2  0
 16 17  1  0
 16 14  1  0
 17 28  1  0
 17 18  1  1
 19 18  1  0
 20 19  2  0
 21 22  1  0
 21 20  1  0
 22 27  2  0
 23 22  1  0
 23 24  2  0
 24 25  1  0
 25 26  2  0
 27 19  1  0
 27 26  1  0
 28 29  2  0
 28 30  1  0
M  END
$$$$
