QSW.pdb
     RDKit          3D

 30 31  0  0  1  0  0  0  0  0999 V2000
   27.4582  -17.5988  -18.5212 N   0  0  0  0  0  0  0  0  0  0  0  0
   28.2239  -17.1912  -17.4103 C   0  0  0  0  0  0  0  0  0  0  0  0
   29.4366  -16.8798  -17.5794 O   0  0  0  0  0  0  0  0  0  0  0  0
   27.6518  -17.1088  -16.0319 C   0  0  0  0  0  0  0  0  0  0  0  0
   26.7157  -18.2731  -15.8854 C   0  0  0  0  0  0  0  0  0  0  0  0
   27.2458  -19.3950  -15.0104 C   0  0  2  0  0  0  0  0  0  0  0  0
   28.0427  -20.2749  -15.8901 N   0  0  0  0  0  0  0  0  0  0  0  0
   26.0852  -20.1996  -14.5444 C   0  0  0  0  0  0  0  0  0  0  0  0
   25.2250  -20.5804  -15.3909 O   0  0  0  0  0  0  0  0  0  0  0  0
   25.5292  -20.7814  -10.5203 O   0  0  0  0  0  0  0  0  0  0  0  0
   25.1783  -21.8919  -11.2839 C   0  0  0  0  0  0  0  0  0  0  0  0
   24.8344  -21.3705  -12.6856 C   0  0  2  0  0  0  0  0  0  0  0  0
   25.8916  -20.5663  -13.2018 N   0  0  0  0  0  0  0  0  0  0  0  0
   23.5494  -20.6753  -12.5423 C   0  0  0  0  0  0  0  0  0  0  0  0
   23.6320  -19.5621  -11.8949 O   0  0  0  0  0  0  0  0  0  0  0  0
   22.3083  -21.1250  -13.0462 N   0  0  0  0  0  0  0  0  0  0  0  0
   21.1282  -20.3411  -12.7922 C   0  0  1  0  0  0  0  0  0  0  0  0
   21.2651  -18.9396  -13.3295 C   0  0  0  0  0  0  0  0  0  0  0  0
   21.5841  -18.8313  -14.7552 C   0  0  0  0  0  0  0  0  0  0  0  0
   20.8121  -19.4750  -15.7429 C   0  0  0  0  0  0  0  0  0  0  0  0
   21.3251  -19.1655  -16.9434 N   0  0  0  0  0  0  0  0  0  0  0  0
   22.3826  -18.3605  -16.8112 C   0  0  0  0  0  0  0  0  0  0  0  0
   23.2295  -17.7891  -17.7262 C   0  0  0  0  0  0  0  0  0  0  0  0
   24.2466  -17.0027  -17.2447 C   0  0  0  0  0  0  0  0  0  0  0  0
   24.4683  -16.7555  -15.9152 C   0  0  0  0  0  0  0  0  0  0  0  0
   23.5882  -17.3531  -15.0150 C   0  0  0  0  0  0  0  0  0  0  0  0
   22.5367  -18.1603  -15.4578 C   0  0  0  0  0  0  0  0  0  0  0  0
   19.9206  -21.0482  -13.2178 C   0  0  0  0  0  0  0  0  0  0  0  0
   19.9180  -22.1393  -13.8657 O   0  0  0  0  0  0  0  0  0  0  0  0
   18.6597  -20.5394  -12.9155 O   0  0  0  0  0  0  0  0  0  0  0  0
  2  1  1  0
  3  2  2  0
  4  2  1  0
  5  6  1  0
  5  4  1  0
  6  8  1  0
  6  7  1  6
  8  9  2  0
 10 11  1  0
 12 11  1  1
 12 14  1  0
 13  8  1  0
 13 12  1  0
 14 15  2  0
 16 17  1  0
 16 14  1  0
 17 28  1  0
 17 18  1  6
 19 18  1  0
 20 19  2  0
 21 22  1  0
 21 20  1  0
 22 27  2  0
 23 22  1  0
 23 24  2  0
 24 25  1  0
 25 26  2  0
 27 19  1  0
 27 26  1  0
 28 29  2  0
 28 30  1  0
M  END
$$$$
