QSW.pdb
     RDKit          3D

 30 31  0  0  1  0  0  0  0  0999 V2000
   27.3421  -16.6769  -13.9060 N   0  0  0  0  0  0  0  0  0  0  0  0
   27.6610  -16.7514  -15.2769 C   0  0  0  0  0  0  0  0  0  0  0  0
   28.3718  -15.8437  -15.7937 O   0  0  0  0  0  0  0  0  0  0  0  0
   27.1911  -17.8719  -16.1474 C   0  0  0  0  0  0  0  0  0  0  0  0
   26.4683  -18.8364  -15.2525 C   0  0  0  0  0  0  0  0  0  0  0  0
   27.3558  -19.9038  -14.6378 C   0  0  2  0  0  0  0  0  0  0  0  0
   27.8887  -20.7057  -15.7585 N   0  0  0  0  0  0  0  0  0  0  0  0
   26.4919  -20.8132  -13.8387 C   0  0  0  0  0  0  0  0  0  0  0  0
   25.6830  -21.5763  -14.4426 O   0  0  0  0  0  0  0  0  0  0  0  0
   26.3167  -20.0471   -9.8156 O   0  0  0  0  0  0  0  0  0  0  0  0
   25.9555  -21.3583  -10.1154 C   0  0  0  0  0  0  0  0  0  0  0  0
   25.4986  -21.3642  -11.5803 C   0  0  2  0  0  0  0  0  0  0  0  0
   26.5279  -20.8737  -12.4353 N   0  0  0  0  0  0  0  0  0  0  0  0
   24.2555  -20.5838  -11.6077 C   0  0  0  0  0  0  0  0  0  0  0  0
   24.4426  -19.3088  -11.5418 O   0  0  0  0  0  0  0  0  0  0  0  0
   22.9500  -21.1163  -11.7020 N   0  0  0  0  0  0  0  0  0  0  0  0
   22.0057  -20.4919  -12.5909 C   0  0  1  0  0  0  0  0  0  0  0  0
   22.6133  -20.2141  -13.9420 C   0  0  0  0  0  0  0  0  0  0  0  0
   21.7254  -19.5864  -14.9237 C   0  0  0  0  0  0  0  0  0  0  0  0
   21.0767  -18.3620  -14.6668 C   0  0  0  0  0  0  0  0  0  0  0  0
   20.3656  -18.0283  -15.7545 N   0  0  0  0  0  0  0  0  0  0  0  0
   20.5039  -18.9512  -16.7100 C   0  0  0  0  0  0  0  0  0  0  0  0
   19.9811  -19.0594  -17.9733 C   0  0  0  0  0  0  0  0  0  0  0  0
   20.3249  -20.1657  -18.7097 C   0  0  0  0  0  0  0  0  0  0  0  0
   21.1517  -21.1636  -18.2639 C   0  0  0  0  0  0  0  0  0  0  0  0
   21.6634  -21.0199  -16.9756 C   0  0  0  0  0  0  0  0  0  0  0  0
   21.3433  -19.9100  -16.1889 C   0  0  0  0  0  0  0  0  0  0  0  0
   20.7423  -21.2281  -12.6238 C   0  0  0  0  0  0  0  0  0  0  0  0
   20.6474  -22.4933  -12.5976 O   0  0  0  0  0  0  0  0  0  0  0  0
   19.5286  -20.5473  -12.6831 O   0  0  0  0  0  0  0  0  0  0  0  0
  2  1  1  0
  3  2  2  0
  4  2  1  0
  5  6  1  0
  5  4  1  0
  6  8  1  0
  6  7  1  6
  8  9  2  0
 10 11  1  0
 12 11  1  1
 12 14  1  0
 13  8  1  0
 13 12  1  0
 14 15  2  0
 16 17  1  0
 16 14  1  0
 17 28  1  0
 17 18  1  6
 19 18  1  0
 20 19  2  0
 21 22  1  0
 21 20  1  0
 22 27  2  0
 23 22  1  0
 23 24  2  0
 24 25  1  0
 25 26  2  0
 27 19  1  0
 27 26  1  0
 28 29  2  0
 28 30  1  0
M  END
$$$$
