QSW.pdb
     RDKit          3D

 30 31  0  0  1  0  0  0  0  0999 V2000
   30.0781  -23.2242  -16.6445 N   0  0  0  0  0  0  0  0  0  0  0  0
   29.7401  -22.4900  -17.7992 C   0  0  0  0  0  0  0  0  0  0  0  0
   29.9014  -23.0201  -18.9347 O   0  0  0  0  0  0  0  0  0  0  0  0
   29.1910  -21.1015  -17.7316 C   0  0  0  0  0  0  0  0  0  0  0  0
   28.8930  -20.8278  -16.2861 C   0  0  0  0  0  0  0  0  0  0  0  0
   27.6786  -21.5634  -15.7481 C   0  0  2  0  0  0  0  0  0  0  0  0
   26.5628  -21.2650  -16.6695 N   0  0  0  0  0  0  0  0  0  0  0  0
   27.3201  -20.9583  -14.4378 C   0  0  0  0  0  0  0  0  0  0  0  0
   28.2461  -20.6486  -13.6328 O   0  0  0  0  0  0  0  0  0  0  0  0
   23.4252  -20.9891  -13.1372 O   0  0  0  0  0  0  0  0  0  0  0  0
   24.0712  -19.7866  -12.8609 C   0  0  0  0  0  0  0  0  0  0  0  0
   25.5745  -20.0931  -12.8269 C   0  0  2  0  0  0  0  0  0  0  0  0
   25.9953  -20.7066  -14.0424 N   0  0  0  0  0  0  0  0  0  0  0  0
   25.7823  -20.9094  -11.6245 C   0  0  0  0  0  0  0  0  0  0  0  0
   25.9594  -22.1631  -11.8737 O   0  0  0  0  0  0  0  0  0  0  0  0
   25.8037  -20.4290  -10.2958 N   0  0  0  0  0  0  0  0  0  0  0  0
   25.9814  -21.3673   -9.2188 C   0  0  1  0  0  0  0  0  0  0  0  0
   27.3561  -21.2616   -8.6100 C   0  0  0  0  0  0  0  0  0  0  0  0
   27.5328  -20.2021   -7.6138 C   0  0  0  0  0  0  0  0  0  0  0  0
   26.8955  -18.9511   -7.7348 C   0  0  0  0  0  0  0  0  0  0  0  0
   27.2201  -18.2103   -6.6643 N   0  0  0  0  0  0  0  0  0  0  0  0
   28.0279  -18.8908   -5.8470 C   0  0  0  0  0  0  0  0  0  0  0  0
   28.6226  -18.5667   -4.6543 C   0  0  0  0  0  0  0  0  0  0  0  0
   29.4211  -19.5152   -4.0651 C   0  0  0  0  0  0  0  0  0  0  0  0
   29.6610  -20.7576   -4.5913 C   0  0  0  0  0  0  0  0  0  0  0  0
   29.0405  -21.0512   -5.8041 C   0  0  0  0  0  0  0  0  0  0  0  0
   28.2172  -20.1184   -6.4408 C   0  0  0  0  0  0  0  0  0  0  0  0
   24.8773  -21.2915   -8.2625 C   0  0  0  0  0  0  0  0  0  0  0  0
   24.7972  -21.9833   -7.2017 O   0  0  0  0  0  0  0  0  0  0  0  0
   23.8161  -20.4147   -8.4756 O   0  0  0  0  0  0  0  0  0  0  0  0
  2  1  1  0
  3  2  2  0
  4  2  1  0
  5  6  1  0
  5  4  1  0
  6  8  1  0
  6  7  1  6
  8  9  2  0
 10 11  1  0
 12 11  1  6
 12 14  1  0
 13  8  1  0
 13 12  1  0
 14 15  2  0
 16 17  1  0
 16 14  1  0
 17 28  1  0
 17 18  1  1
 19 18  1  0
 20 19  2  0
 21 22  1  0
 21 20  1  0
 22 27  2  0
 23 22  1  0
 23 24  2  0
 24 25  1  0
 25 26  2  0
 27 19  1  0
 27 26  1  0
 28 29  2  0
 28 30  1  0
M  END
$$$$
