YTL.pdb
     RDKit          3D

 28 28  0  0  1  0  0  0  0  0999 V2000
   36.3415   -2.1311    1.7560 O   0  0  0  0  0  0  0  0  0  0  0  0
   36.6594   -2.6247    0.4890 C   0  0  0  0  0  0  0  0  0  0  0  0
   35.7141   -2.4513   -0.5170 C   0  0  0  0  0  0  0  0  0  0  0  0
   35.9756   -2.9235   -1.8031 C   0  0  0  0  0  0  0  0  0  0  0  0
   37.1524   -3.5624   -2.1103 C   0  0  0  0  0  0  0  0  0  0  0  0
   37.3666   -4.0377   -3.4760 C   0  0  0  0  0  0  0  0  0  0  0  0
   38.4997   -3.4108   -4.2148 C   0  0  2  0  0  0  0  0  0  0  0  0
   38.1058   -2.0091   -4.4344 N   0  0  0  0  0  0  0  0  0  0  0  0
   38.7250   -4.1056   -5.4875 C   0  0  0  0  0  0  0  0  0  0  0  0
   38.0307   -3.8293   -6.4986 O   0  0  0  0  0  0  0  0  0  0  0  0
   38.0782   -3.7226   -1.0899 C   0  0  0  0  0  0  0  0  0  0  0  0
   37.8273   -3.2576    0.1879 C   0  0  0  0  0  0  0  0  0  0  0  0
   41.5375   -4.0271   -7.7120 C   0  0  0  0  0  0  0  0  0  0  0  0
   41.3012   -5.5114   -7.4941 C   0  0  1  0  0  0  0  0  0  0  0  0
   42.2613   -5.9707   -6.6000 O   0  0  0  0  0  0  0  0  0  0  0  0
   39.8946   -5.7456   -6.9281 C   0  0  2  0  0  0  0  0  0  0  0  0
   39.7275   -5.1205   -5.6571 N   0  0  0  0  0  0  0  0  0  0  0  0
   39.6854   -7.2027   -6.9088 C   0  0  0  0  0  0  0  0  0  0  0  0
   39.8461   -7.7957   -5.8056 O   0  0  0  0  0  0  0  0  0  0  0  0
   36.6680  -11.8861   -9.0973 C   0  0  0  0  0  0  0  0  0  0  0  0
   37.7983  -11.4260   -8.1567 C   0  0  2  0  0  0  0  0  0  0  0  0
   37.5378  -12.0656   -6.8230 C   0  0  0  0  0  0  0  0  0  0  0  0
   37.8542   -9.9246   -8.1033 C   0  0  0  0  0  0  0  0  0  0  0  0
   39.2525   -9.4432   -8.0229 C   0  0  2  0  0  0  0  0  0  0  0  0
   39.3226   -7.9808   -8.0175 N   0  0  0  0  0  0  0  0  0  0  0  0
   40.1317   -9.8775   -9.1227 C   0  0  0  0  0  0  0  0  0  0  0  0
   40.9540  -10.9922   -9.0365 O   0  0  0  0  0  0  0  0  0  0  0  0
   40.1646   -9.2389  -10.1940 O   0  0  0  0  0  0  0  0  0  0  0  0
  2 12  2  0
  2  1  1  0
  3  2  1  0
  4  5  1  0
  4  3  2  0
  5 11  2  0
  6  7  1  0
  6  5  1  0
  7  8  1  6
  9  7  1  0
  9 10  2  0
 11 12  1  0
 14 13  1  1
 14 16  1  0
 15 14  1  0
 16 17  1  1
 17  9  1  0
 18 16  1  0
 19 18  2  0
 21 20  1  6
 21 22  1  0
 23 21  1  0
 24 25  1  0
 24 23  1  6
 25 18  1  0
 26 24  1  0
 27 26  1  0
 28 26  2  0
M  END
$$$$
