YTL.pdb
     RDKit          3D

 28 28  0  0  1  0  0  0  0  0999 V2000
   27.2338  -18.7308   -4.8691 O   0  0  0  0  0  0  0  0  0  0  0  0
   27.0970  -19.1327   -6.1995 C   0  0  0  0  0  0  0  0  0  0  0  0
   27.0262  -18.1312   -7.1626 C   0  0  0  0  0  0  0  0  0  0  0  0
   26.8893  -18.4717   -8.5082 C   0  0  0  0  0  0  0  0  0  0  0  0
   26.8214  -19.7817   -8.9164 C   0  0  0  0  0  0  0  0  0  0  0  0
   26.6745  -20.0746  -10.3409 C   0  0  0  0  0  0  0  0  0  0  0  0
   25.4151  -20.7667  -10.7382 C   0  0  2  0  0  0  0  0  0  0  0  0
   25.5343  -22.1400  -10.2206 N   0  0  0  0  0  0  0  0  0  0  0  0
   25.2683  -20.7594  -12.1983 C   0  0  0  0  0  0  0  0  0  0  0  0
   25.9074  -21.5758  -12.9093 O   0  0  0  0  0  0  0  0  0  0  0  0
   26.8943  -20.7611   -7.9368 C   0  0  0  0  0  0  0  0  0  0  0  0
   27.0301  -20.4326   -6.6006 C   0  0  0  0  0  0  0  0  0  0  0  0
   22.2912  -21.3348  -14.3766 C   0  0  0  0  0  0  0  0  0  0  0  0
   22.8796  -20.0009  -14.8019 C   0  0  1  0  0  0  0  0  0  0  0  0
   22.1027  -18.9929  -14.2428 O   0  0  0  0  0  0  0  0  0  0  0  0
   24.3300  -19.8836  -14.3161 C   0  0  2  0  0  0  0  0  0  0  0  0
   24.4071  -19.8429  -12.8926 N   0  0  0  0  0  0  0  0  0  0  0  0
   24.9020  -18.7000  -14.9790 C   0  0  0  0  0  0  0  0  0  0  0  0
   24.9488  -17.6292  -14.3114 O   0  0  0  0  0  0  0  0  0  0  0  0
   27.6931  -16.6055  -19.2129 C   0  0  0  0  0  0  0  0  0  0  0  0
   28.1857  -16.6023  -17.7529 C   0  0  2  0  0  0  0  0  0  0  0  0
   29.6831  -16.7062  -17.8019 C   0  0  0  0  0  0  0  0  0  0  0  0
   27.5306  -17.7120  -16.9786 C   0  0  0  0  0  0  0  0  0  0  0  0
   26.0639  -17.5197  -16.9039 C   0  0  2  0  0  0  0  0  0  0  0  0
   25.3973  -18.6698  -16.2905 N   0  0  0  0  0  0  0  0  0  0  0  0
   25.3894  -17.3149  -18.1977 C   0  0  0  0  0  0  0  0  0  0  0  0
   25.0101  -18.3622  -19.0255 O   0  0  0  0  0  0  0  0  0  0  0  0
   25.1318  -16.1621  -18.5994 O   0  0  0  0  0  0  0  0  0  0  0  0
  2 12  2  0
  2  1  1  0
  3  2  1  0
  4  5  1  0
  4  3  2  0
  5 11  2  0
  6  7  1  0
  6  5  1  0
  7  8  1  6
  9  7  1  0
  9 10  2  0
 11 12  1  0
 14 13  1  1
 14 16  1  0
 15 14  1  0
 16 17  1  1
 17  9  1  0
 18 16  1  0
 19 18  2  0
 21 20  1  6
 21 22  1  0
 23 21  1  0
 24 25  1  0
 24 23  1  6
 25 18  1  0
 26 24  1  0
 27 26  1  0
 28 26  2  0
M  END
$$$$
