YTL.pdb
     RDKit          3D

 28 28  0  0  1  0  0  0  0  0999 V2000
   26.6299  -26.4774  -17.9538 O   0  0  0  0  0  0  0  0  0  0  0  0
   26.5727  -25.3314  -17.1578 C   0  0  0  0  0  0  0  0  0  0  0  0
   26.1128  -25.4849  -15.8538 C   0  0  0  0  0  0  0  0  0  0  0  0
   26.0335  -24.3760  -15.0114 C   0  0  0  0  0  0  0  0  0  0  0  0
   26.4001  -23.1217  -15.4355 C   0  0  0  0  0  0  0  0  0  0  0  0
   26.2912  -21.9984  -14.5066 C   0  0  0  0  0  0  0  0  0  0  0  0
   24.9281  -21.7283  -13.9664 C   0  0  2  0  0  0  0  0  0  0  0  0
   24.1552  -21.1766  -15.0917 N   0  0  0  0  0  0  0  0  0  0  0  0
   25.0006  -20.7753  -12.8529 C   0  0  0  0  0  0  0  0  0  0  0  0
   24.7210  -19.5624  -13.0301 O   0  0  0  0  0  0  0  0  0  0  0  0
   26.8552  -22.9955  -16.7397 C   0  0  0  0  0  0  0  0  0  0  0  0
   26.9371  -24.0893  -17.5816 C   0  0  0  0  0  0  0  0  0  0  0  0
   22.9844  -19.5306  -11.2977 C   0  0  0  0  0  0  0  0  0  0  0  0
   23.7574  -20.0207  -10.0857 C   0  0  1  0  0  0  0  0  0  0  0  0
   23.1898  -21.2205   -9.6729 O   0  0  0  0  0  0  0  0  0  0  0  0
   25.2332  -20.2295  -10.4486 C   0  0  2  0  0  0  0  0  0  0  0  0
   25.3857  -21.1558  -11.5223 N   0  0  0  0  0  0  0  0  0  0  0  0
   25.9186  -20.6335   -9.2099 C   0  0  0  0  0  0  0  0  0  0  0  0
   26.0066  -21.8709   -8.9745 O   0  0  0  0  0  0  0  0  0  0  0  0
   29.2402  -18.2227   -4.5143 C   0  0  0  0  0  0  0  0  0  0  0  0
   28.6772  -19.4675   -5.2266 C   0  0  2  0  0  0  0  0  0  0  0  0
   29.8146  -20.4388   -5.3628 C   0  0  0  0  0  0  0  0  0  0  0  0
   28.0556  -19.0810   -6.5398 C   0  0  0  0  0  0  0  0  0  0  0  0
   27.1947  -20.1657   -7.0648 C   0  0  2  0  0  0  0  0  0  0  0  0
   26.4798  -19.7529   -8.2739 N   0  0  0  0  0  0  0  0  0  0  0  0
   26.1572  -20.6503   -6.1375 C   0  0  0  0  0  0  0  0  0  0  0  0
   26.4354  -21.4792   -5.0597 O   0  0  0  0  0  0  0  0  0  0  0  0
   24.9644  -20.3211   -6.2975 O   0  0  0  0  0  0  0  0  0  0  0  0
  2 12  2  0
  2  1  1  0
  3  2  1  0
  4  5  1  0
  4  3  2  0
  5 11  2  0
  6  7  1  0
  6  5  1  0
  7  8  1  6
  9  7  1  0
  9 10  2  0
 11 12  1  0
 14 13  1  6
 14 16  1  0
 15 14  1  0
 16 17  1  6
 17  9  1  0
 18 16  1  0
 19 18  2  0
 21 20  1  6
 21 22  1  0
 23 21  1  0
 24 25  1  0
 24 23  1  1
 25 18  1  0
 26 24  1  0
 27 26  1  0
 28 26  2  0
M  END
$$$$
