YTL.pdb
     RDKit          3D

 28 28  0  0  1  0  0  0  0  0999 V2000
   29.5678  -18.5884   -3.5391 O   0  0  0  0  0  0  0  0  0  0  0  0
   28.9785  -19.0172   -4.7303 C   0  0  0  0  0  0  0  0  0  0  0  0
   29.2245  -20.3281   -5.1260 C   0  0  0  0  0  0  0  0  0  0  0  0
   28.6628  -20.8130   -6.3070 C   0  0  0  0  0  0  0  0  0  0  0  0
   27.8645  -20.0259   -7.1010 C   0  0  0  0  0  0  0  0  0  0  0  0
   27.3076  -20.5905   -8.3289 C   0  0  0  0  0  0  0  0  0  0  0  0
   25.8356  -20.4365   -8.5088 C   0  0  2  0  0  0  0  0  0  0  0  0
   25.2184  -21.1666   -7.3889 N   0  0  0  0  0  0  0  0  0  0  0  0
   25.4189  -20.9935   -9.8009 C   0  0  0  0  0  0  0  0  0  0  0  0
   25.6349  -22.2010  -10.0763 O   0  0  0  0  0  0  0  0  0  0  0  0
   27.6346  -18.7230   -6.6844 C   0  0  0  0  0  0  0  0  0  0  0  0
   28.1873  -18.2341   -5.5150 C   0  0  0  0  0  0  0  0  0  0  0  0
   21.9582  -21.0685  -11.5754 C   0  0  0  0  0  0  0  0  0  0  0  0
   22.9862  -20.4290  -12.4924 C   0  0  1  0  0  0  0  0  0  0  0  0
   22.8242  -19.0502  -12.4208 O   0  0  0  0  0  0  0  0  0  0  0  0
   24.4030  -20.8199  -12.0527 C   0  0  2  0  0  0  0  0  0  0  0  0
   24.7543  -20.2157  -10.8094 N   0  0  0  0  0  0  0  0  0  0  0  0
   25.3017  -20.4654  -13.1635 C   0  0  0  0  0  0  0  0  0  0  0  0
   26.4425  -20.0149  -12.8636 O   0  0  0  0  0  0  0  0  0  0  0  0
   27.7140  -23.7663  -16.8196 C   0  0  0  0  0  0  0  0  0  0  0  0
   27.7376  -22.2624  -16.4854 C   0  0  2  0  0  0  0  0  0  0  0  0
   29.1731  -21.8975  -16.2367 C   0  0  0  0  0  0  0  0  0  0  0  0
   26.8326  -21.9722  -15.3206 C   0  0  0  0  0  0  0  0  0  0  0  0
   25.9725  -20.7970  -15.5902 C   0  0  2  0  0  0  0  0  0  0  0  0
   24.9898  -20.5890  -14.5251 N   0  0  0  0  0  0  0  0  0  0  0  0
   25.1943  -20.8602  -16.8399 C   0  0  0  0  0  0  0  0  0  0  0  0
   23.9923  -21.5455  -16.9469 O   0  0  0  0  0  0  0  0  0  0  0  0
   25.6038  -20.2838  -17.8679 O   0  0  0  0  0  0  0  0  0  0  0  0
  2 12  2  0
  2  1  1  0
  3  2  1  0
  4  5  1  0
  4  3  2  0
  5 11  2  0
  6  7  1  0
  6  5  1  0
  7  8  1  1
  9  7  1  0
  9 10  2  0
 11 12  1  0
 14 13  1  1
 14 16  1  0
 15 14  1  0
 16 17  1  1
 17  9  1  0
 18 16  1  0
 19 18  2  0
 21 20  1  1
 21 22  1  0
 23 21  1  0
 24 25  1  0
 24 23  1  1
 25 18  1  0
 26 24  1  0
 27 26  1  0
 28 26  2  0
M  END
$$$$
