YTL.pdb
     RDKit          3D

 28 28  0  0  1  0  0  0  0  0999 V2000
   31.3265  -23.3132  -19.4547 O   0  0  0  0  0  0  0  0  0  0  0  0
   30.4787  -22.5677  -18.6327 C   0  0  0  0  0  0  0  0  0  0  0  0
   30.1984  -23.0850  -17.3719 C   0  0  0  0  0  0  0  0  0  0  0  0
   29.3579  -22.3850  -16.5065 C   0  0  0  0  0  0  0  0  0  0  0  0
   28.7915  -21.1859  -16.8656 C   0  0  0  0  0  0  0  0  0  0  0  0
   27.9163  -20.5016  -15.9157 C   0  0  0  0  0  0  0  0  0  0  0  0
   26.5501  -21.0768  -15.7562 C   0  0  2  0  0  0  0  0  0  0  0  0
   25.8531  -20.8069  -17.0249 N   0  0  0  0  0  0  0  0  0  0  0  0
   25.8600  -20.4454  -14.6255 C   0  0  0  0  0  0  0  0  0  0  0  0
   25.1140  -19.4498  -14.8068 O   0  0  0  0  0  0  0  0  0  0  0  0
   29.0868  -20.6919  -18.1277 C   0  0  0  0  0  0  0  0  0  0  0  0
   29.9190  -21.3791  -18.9920 C   0  0  0  0  0  0  0  0  0  0  0  0
   23.3827  -19.7671  -13.9047 C   0  0  0  0  0  0  0  0  0  0  0  0
   23.6768  -20.4691  -12.5904 C   0  0  1  0  0  0  0  0  0  0  0  0
   23.3205  -21.8054  -12.7301 O   0  0  0  0  0  0  0  0  0  0  0  0
   25.1679  -20.3507  -12.2496 C   0  0  2  0  0  0  0  0  0  0  0  0
   25.9882  -20.9116  -13.2727 N   0  0  0  0  0  0  0  0  0  0  0  0
   25.3493  -20.9762  -10.9293 C   0  0  0  0  0  0  0  0  0  0  0  0
   25.4349  -22.2354  -10.8925 O   0  0  0  0  0  0  0  0  0  0  0  0
   28.5161  -21.0216   -7.8960 C   0  0  0  0  0  0  0  0  0  0  0  0
   27.6546  -19.7441   -7.9028 C   0  0  2  0  0  0  0  0  0  0  0  0
   28.3691  -18.7366   -7.0485 C   0  0  0  0  0  0  0  0  0  0  0  0
   26.2606  -20.0521   -7.4314 C   0  0  0  0  0  0  0  0  0  0  0  0
   25.5473  -20.9181   -8.3983 C   0  0  2  0  0  0  0  0  0  0  0  0
   25.4340  -20.2837   -9.7129 N   0  0  0  0  0  0  0  0  0  0  0  0
   24.1727  -21.2875   -8.0172 C   0  0  0  0  0  0  0  0  0  0  0  0
   23.8872  -22.2806   -7.0909 O   0  0  0  0  0  0  0  0  0  0  0  0
   23.1971  -20.7026   -8.5298 O   0  0  0  0  0  0  0  0  0  0  0  0
  2 12  2  0
  2  1  1  0
  3  2  1  0
  4  5  1  0
  4  3  2  0
  5 11  2  0
  6  7  1  0
  6  5  1  0
  7  8  1  6
  9  7  1  0
  9 10  2  0
 11 12  1  0
 14 13  1  6
 14 16  1  0
 15 14  1  0
 16 17  1  6
 17  9  1  0
 18 16  1  0
 19 18  2  0
 21 20  1  1
 21 22  1  0
 23 21  1  0
 24 25  1  0
 24 23  1  1
 25 18  1  0
 26 24  1  0
 27 26  1  0
 28 26  2  0
M  END
$$$$
