YTL.pdb
     RDKit          3D

 28 28  0  0  1  0  0  0  0  0999 V2000
   17.2787  -19.5741  -16.3628 O   0  0  0  0  0  0  0  0  0  0  0  0
   17.7985  -18.2904  -16.5417 C   0  0  0  0  0  0  0  0  0  0  0  0
   16.9028  -17.2274  -16.4835 C   0  0  0  0  0  0  0  0  0  0  0  0
   17.3637  -15.9222  -16.6548 C   0  0  0  0  0  0  0  0  0  0  0  0
   18.6912  -15.6511  -16.8822 C   0  0  0  0  0  0  0  0  0  0  0  0
   19.1122  -14.2623  -17.0572 C   0  0  0  0  0  0  0  0  0  0  0  0
   18.5832  -13.5675  -18.2656 C   0  0  2  0  0  0  0  0  0  0  0  0
   19.1777  -14.2644  -19.4185 N   0  0  0  0  0  0  0  0  0  0  0  0
   18.9639  -12.1505  -18.2465 C   0  0  0  0  0  0  0  0  0  0  0  0
   20.0867  -11.7841  -18.6775 O   0  0  0  0  0  0  0  0  0  0  0  0
   19.5636  -16.7282  -16.9356 C   0  0  0  0  0  0  0  0  0  0  0  0
   19.1154  -18.0253  -16.7668 C   0  0  0  0  0  0  0  0  0  0  0  0
   17.1396   -9.2634  -19.8506 C   0  0  0  0  0  0  0  0  0  0  0  0
   17.4212   -8.8585  -18.4141 C   0  0  1  0  0  0  0  0  0  0  0  0
   16.2414   -8.9958  -17.6919 O   0  0  0  0  0  0  0  0  0  0  0  0
   18.5152   -9.7531  -17.8173 C   0  0  2  0  0  0  0  0  0  0  0  0
   18.1011  -11.1161  -17.7470 N   0  0  0  0  0  0  0  0  0  0  0  0
   18.8718   -9.1697  -16.5135 C   0  0  0  0  0  0  0  0  0  0  0  0
   18.4733   -9.7759  -15.4800 O   0  0  0  0  0  0  0  0  0  0  0  0
   22.7445   -5.3321  -13.7947 C   0  0  0  0  0  0  0  0  0  0  0  0
   21.7670   -6.5094  -13.6139 C   0  0  2  0  0  0  0  0  0  0  0  0
   22.4269   -7.4786  -12.6754 C   0  0  0  0  0  0  0  0  0  0  0  0
   21.4173   -7.1072  -14.9482 C   0  0  0  0  0  0  0  0  0  0  0  0
   19.9738   -7.4285  -15.0296 C   0  0  2  0  0  0  0  0  0  0  0  0
   19.6176   -7.9963  -16.3311 N   0  0  0  0  0  0  0  0  0  0  0  0
   19.0631   -6.2869  -14.8330 C   0  0  0  0  0  0  0  0  0  0  0  0
   18.6496   -5.8581  -13.5796 O   0  0  0  0  0  0  0  0  0  0  0  0
   18.6239   -5.6539  -15.8144 O   0  0  0  0  0  0  0  0  0  0  0  0
  2 12  2  0
  2  1  1  0
  3  2  1  0
  4  5  1  0
  4  3  2  0
  5 11  2  0
  6  7  1  0
  6  5  1  0
  7  8  1  6
  9  7  1  0
  9 10  2  0
 11 12  1  0
 14 13  1  6
 14 16  1  0
 15 14  1  0
 16 17  1  1
 17  9  1  0
 18 16  1  0
 19 18  2  0
 21 20  1  6
 21 22  1  0
 23 21  1  0
 24 25  1  0
 24 23  1  6
 25 18  1  0
 26 24  1  0
 27 26  1  0
 28 26  2  0
M  END
$$$$
