YTL.pdb
     RDKit          3D

 28 28  0  0  1  0  0  0  0  0999 V2000
   10.6974  -14.7304  -19.7795 O   0  0  0  0  0  0  0  0  0  0  0  0
   11.6126  -13.8476  -19.2023 C   0  0  0  0  0  0  0  0  0  0  0  0
   11.7315  -13.8705  -17.8163 C   0  0  0  0  0  0  0  0  0  0  0  0
   12.6294  -13.0114  -17.1831 C   0  0  0  0  0  0  0  0  0  0  0  0
   13.4092  -12.1325  -17.8950 C   0  0  0  0  0  0  0  0  0  0  0  0
   14.3291  -11.2549  -17.1736 C   0  0  0  0  0  0  0  0  0  0  0  0
   15.7735  -11.6154  -17.2551 C   0  0  2  0  0  0  0  0  0  0  0  0
   15.9320  -12.8189  -16.4217 N   0  0  0  0  0  0  0  0  0  0  0  0
   16.6032  -10.5115  -16.7586 C   0  0  0  0  0  0  0  0  0  0  0  0
   16.7680  -10.3407  -15.5239 O   0  0  0  0  0  0  0  0  0  0  0  0
   13.2718  -12.1292  -19.2752 C   0  0  0  0  0  0  0  0  0  0  0  0
   12.3843  -12.9775  -19.9113 C   0  0  0  0  0  0  0  0  0  0  0  0
   20.1092   -9.7603  -16.6898 C   0  0  0  0  0  0  0  0  0  0  0  0
   19.4860   -8.5709  -17.3995 C   0  0  1  0  0  0  0  0  0  0  0  0
   19.6689   -8.7446  -18.7665 O   0  0  0  0  0  0  0  0  0  0  0  0
   17.9899   -8.4838  -17.0716 C   0  0  2  0  0  0  0  0  0  0  0  0
   17.2641   -9.5782  -17.6279 N   0  0  0  0  0  0  0  0  0  0  0  0
   17.5323   -7.1648  -17.5388 C   0  0  0  0  0  0  0  0  0  0  0  0
   16.6508   -7.1451  -18.4426 O   0  0  0  0  0  0  0  0  0  0  0  0
   16.5097   -2.6796  -19.1545 C   0  0  0  0  0  0  0  0  0  0  0  0
   15.6301   -3.1465  -17.9788 C   0  0  2  0  0  0  0  0  0  0  0  0
   15.7131   -2.0783  -16.9263 C   0  0  0  0  0  0  0  0  0  0  0  0
   16.0756   -4.4998  -17.4989 C   0  0  0  0  0  0  0  0  0  0  0  0
   17.5506   -4.6255  -17.5444 C   0  0  2  0  0  0  0  0  0  0  0  0
   17.9983   -5.9323  -17.0593 N   0  0  0  0  0  0  0  0  0  0  0  0
   18.2917   -3.6322  -16.7474 C   0  0  0  0  0  0  0  0  0  0  0  0
   18.4971   -3.7619  -15.3810 O   0  0  0  0  0  0  0  0  0  0  0  0
   18.7700   -2.6165  -17.2917 O   0  0  0  0  0  0  0  0  0  0  0  0
  2 12  2  0
  2  1  1  0
  3  2  1  0
  4  5  1  0
  4  3  2  0
  5 11  2  0
  6  7  1  0
  6  5  1  0
  7  8  1  1
  9  7  1  0
  9 10  2  0
 11 12  1  0
 14 13  1  1
 14 16  1  0
 15 14  1  0
 16 17  1  6
 17  9  1  0
 18 16  1  0
 19 18  2  0
 21 20  1  6
 21 22  1  0
 23 21  1  0
 24 25  1  0
 24 23  1  1
 25 18  1  0
 26 24  1  0
 27 26  1  0
 28 26  2  0
M  END
$$$$
