YTL.pdb
     RDKit          3D

 28 28  0  0  1  0  0  0  0  0999 V2000
   16.1475  -24.6135    0.1172 O   0  0  0  0  0  0  0  0  0  0  0  0
   16.2828  -23.4736    0.9124 C   0  0  0  0  0  0  0  0  0  0  0  0
   16.0349  -22.2443    0.3098 C   0  0  0  0  0  0  0  0  0  0  0  0
   16.1540  -21.0707    1.0539 C   0  0  0  0  0  0  0  0  0  0  0  0
   16.5131  -21.0919    2.3798 C   0  0  0  0  0  0  0  0  0  0  0  0
   16.6244  -19.8278    3.1053 C   0  0  0  0  0  0  0  0  0  0  0  0
   15.4408  -19.4393    3.9245 C   0  0  2  0  0  0  0  0  0  0  0  0
   14.3926  -19.0676    2.9595 N   0  0  0  0  0  0  0  0  0  0  0  0
   15.7770  -18.3141    4.8044 C   0  0  0  0  0  0  0  0  0  0  0  0
   15.5371  -17.1318    4.4506 O   0  0  0  0  0  0  0  0  0  0  0  0
   16.7547  -22.3299    2.9570 C   0  0  0  0  0  0  0  0  0  0  0  0
   16.6389  -23.4983    2.2268 C   0  0  0  0  0  0  0  0  0  0  0  0
   14.0710  -17.0277    7.4185 C   0  0  0  0  0  0  0  0  0  0  0  0
   15.4129  -17.3661    8.0443 C   0  0  1  0  0  0  0  0  0  0  0  0
   15.3079  -18.6235    8.6275 O   0  0  0  0  0  0  0  0  0  0  0  0
   16.5106  -17.3688    6.9726 C   0  0  2  0  0  0  0  0  0  0  0  0
   16.3864  -18.4854    6.0940 N   0  0  0  0  0  0  0  0  0  0  0  0
   17.7967  -17.3114    7.6867 C   0  0  0  0  0  0  0  0  0  0  0  0
   18.4410  -18.3908    7.8058 O   0  0  0  0  0  0  0  0  0  0  0  0
   22.2308  -15.6190    7.9093 C   0  0  0  0  0  0  0  0  0  0  0  0
   21.1732  -14.4987    7.9289 C   0  0  2  0  0  0  0  0  0  0  0  0
   21.9195  -13.2022    8.0623 C   0  0  0  0  0  0  0  0  0  0  0  0
   20.1802  -14.7376    9.0321 C   0  0  0  0  0  0  0  0  0  0  0  0
   19.6304  -16.1114    8.9697 C   0  0  2  0  0  0  0  0  0  0  0  0
   18.3600  -16.1542    8.2433 N   0  0  0  0  0  0  0  0  0  0  0  0
   19.3619  -16.7416   10.2743 C   0  0  0  0  0  0  0  0  0  0  0  0
   20.2778  -17.5602   10.9201 O   0  0  0  0  0  0  0  0  0  0  0  0
   18.2731  -16.5532   10.8538 O   0  0  0  0  0  0  0  0  0  0  0  0
  2 12  2  0
  2  1  1  0
  3  2  1  0
  4  5  1  0
  4  3  2  0
  5 11  2  0
  6  7  1  0
  6  5  1  0
  7  8  1  6
  9  7  1  0
  9 10  2  0
 11 12  1  0
 14 13  1  6
 14 16  1  0
 15 14  1  0
 16 17  1  1
 17  9  1  0
 18 16  1  0
 19 18  2  0
 21 20  1  1
 21 22  1  0
 23 21  1  0
 24 25  1  0
 24 23  1  1
 25 18  1  0
 26 24  1  0
 27 26  1  0
 28 26  2  0
M  END
$$$$
