ANW.pdb
     RDKit          3D

 28 29  0  0  1  0  0  0  0  0999 V2000
   11.1759  -16.3746   17.7416 C   0  0  0  0  0  0  0  0  0  0  0  0
   11.6492  -17.0318   19.0173 C   0  0  2  0  0  0  0  0  0  0  0  0
   11.9841  -18.4175   18.8568 N   0  0  0  0  0  0  0  0  0  0  0  0
   10.6609  -16.8544   20.1165 C   0  0  0  0  0  0  0  0  0  0  0  0
   10.3513  -15.6795   20.4236 O   0  0  0  0  0  0  0  0  0  0  0  0
    6.7863  -18.4477   19.6557 N   0  0  0  0  0  0  0  0  0  0  0  0
    7.6391  -19.2108   20.4924 C   0  0  0  0  0  0  0  0  0  0  0  0
    8.0476  -20.3216   20.0442 O   0  0  0  0  0  0  0  0  0  0  0  0
    8.0544  -18.7638   21.8345 C   0  0  0  0  0  0  0  0  0  0  0  0
    9.0433  -17.6122   21.8154 C   0  0  2  0  0  0  0  0  0  0  0  0
   10.0748  -17.9234   20.8078 N   0  0  0  0  0  0  0  0  0  0  0  0
    9.7241  -17.3580   23.0747 C   0  0  0  0  0  0  0  0  0  0  0  0
   10.8593  -17.9182   23.3010 O   0  0  0  0  0  0  0  0  0  0  0  0
    9.2820  -16.5271   24.1422 N   0  0  0  0  0  0  0  0  0  0  0  0
   10.0668  -16.3915   25.3779 C   0  0  1  0  0  0  0  0  0  0  0  0
    9.7709  -15.0356   25.9925 C   0  0  0  0  0  0  0  0  0  0  0  0
    8.3436  -14.7424   25.8640 C   0  0  0  0  0  0  0  0  0  0  0  0
    7.2881  -15.6359   25.7092 C   0  0  0  0  0  0  0  0  0  0  0  0
    6.1708  -14.8954   25.6365 N   0  0  0  0  0  0  0  0  0  0  0  0
    6.4187  -13.5813   25.7323 C   0  0  0  0  0  0  0  0  0  0  0  0
    5.6126  -12.4419   25.7124 C   0  0  0  0  0  0  0  0  0  0  0  0
    6.1530  -11.1991   25.8338 C   0  0  0  0  0  0  0  0  0  0  0  0
    7.5217  -11.0802   25.9783 C   0  0  0  0  0  0  0  0  0  0  0  0
    8.3299  -12.1991   25.9997 C   0  0  0  0  0  0  0  0  0  0  0  0
    7.7920  -13.4781   25.8764 C   0  0  0  0  0  0  0  0  0  0  0  0
    9.6288  -17.4465   26.3074 C   0  0  0  0  0  0  0  0  0  0  0  0
    8.6073  -18.1089   26.0734 O   0  0  0  0  0  0  0  0  0  0  0  0
   10.3668  -17.6987   27.4513 O   0  0  0  0  0  0  0  0  0  0  0  0
  2  4  1  0
  2  1  1  6
  3  2  1  0
  4  5  2  0
  6  7  1  0
  7  9  1  0
  8  7  2  0
 10  9  1  1
 10 12  1  0
 11 10  1  0
 11  4  1  0
 12 13  2  0
 12 14  1  0
 14 15  1  0
 15 26  1  0
 15 16  1  1
 17 18  2  0
 17 16  1  0
 19 18  1  0
 20 25  2  0
 20 19  1  0
 21 20  1  0
 22 23  1  0
 22 21  2  0
 23 24  2  0
 24 25  1  0
 25 17  1  0
 26 28  1  0
 27 26  2  0
M  END
$$$$
