ANW.pdb
     RDKit          3D

 28 29  0  0  1  0  0  0  0  0999 V2000
   10.4120  -19.6307   18.9483 C   0  0  0  0  0  0  0  0  0  0  0  0
   10.4055  -19.3231   20.4277 C   0  0  2  0  0  0  0  0  0  0  0  0
    9.5784  -20.2111   21.1930 N   0  0  0  0  0  0  0  0  0  0  0  0
   10.0313  -17.9052   20.6842 C   0  0  0  0  0  0  0  0  0  0  0  0
   10.8357  -17.0231   20.3031 O   0  0  0  0  0  0  0  0  0  0  0  0
    7.1080  -17.6701   19.6764 N   0  0  0  0  0  0  0  0  0  0  0  0
    6.4222  -16.7196   20.4738 C   0  0  0  0  0  0  0  0  0  0  0  0
    5.1683  -16.6357   20.3251 O   0  0  0  0  0  0  0  0  0  0  0  0
    7.1057  -15.8469   21.4458 C   0  0  0  0  0  0  0  0  0  0  0  0
    8.6029  -16.0831   21.5310 C   0  0  2  0  0  0  0  0  0  0  0  0
    8.8423  -17.5235   21.3206 N   0  0  0  0  0  0  0  0  0  0  0  0
    9.2178  -15.7174   22.7967 C   0  0  0  0  0  0  0  0  0  0  0  0
    9.7497  -14.5537   22.9252 O   0  0  0  0  0  0  0  0  0  0  0  0
    9.3105  -16.5134   23.9728 N   0  0  0  0  0  0  0  0  0  0  0  0
   10.0857  -16.0639   25.1382 C   0  0  1  0  0  0  0  0  0  0  0  0
    9.2125  -16.1810   26.3742 C   0  0  0  0  0  0  0  0  0  0  0  0
    8.0221  -15.3467   26.2117 C   0  0  0  0  0  0  0  0  0  0  0  0
    6.7288  -15.7408   25.8822 C   0  0  0  0  0  0  0  0  0  0  0  0
    5.9868  -14.6225   25.8518 N   0  0  0  0  0  0  0  0  0  0  0  0
    6.7011  -13.5245   26.1374 C   0  0  0  0  0  0  0  0  0  0  0  0
    6.3908  -12.1667   26.2295 C   0  0  0  0  0  0  0  0  0  0  0  0
    7.3450  -11.2498   26.5462 C   0  0  0  0  0  0  0  0  0  0  0  0
    8.6354  -11.6855   26.7773 C   0  0  0  0  0  0  0  0  0  0  0  0
    8.9553  -13.0255   26.6895 C   0  0  0  0  0  0  0  0  0  0  0  0
    7.9899  -13.9763   26.3661 C   0  0  0  0  0  0  0  0  0  0  0  0
   11.2445  -16.9614   25.2816 C   0  0  0  0  0  0  0  0  0  0  0  0
   11.3827  -17.9377   24.5301 O   0  0  0  0  0  0  0  0  0  0  0  0
   12.1862  -16.7095   26.2647 O   0  0  0  0  0  0  0  0  0  0  0  0
  2  4  1  0
  2  1  1  6
  3  2  1  0
  4  5  2  0
  6  7  1  0
  7  9  1  0
  8  7  2  0
 10  9  1  1
 10 12  1  0
 11 10  1  0
 11  4  1  0
 12 13  2  0
 12 14  1  0
 14 15  1  0
 15 26  1  0
 15 16  1  1
 17 18  2  0
 17 16  1  0
 19 18  1  0
 20 25  2  0
 20 19  1  0
 21 20  1  0
 22 23  1  0
 22 21  2  0
 23 24  2  0
 24 25  1  0
 25 17  1  0
 26 28  1  0
 27 26  2  0
M  END
$$$$
