ANW.pdb
     RDKit          3D

 28 29  0  0  1  0  0  0  0  0999 V2000
    6.8726  -19.3416   19.4411 C   0  0  0  0  0  0  0  0  0  0  0  0
    7.3505  -18.9865   20.8299 C   0  0  2  0  0  0  0  0  0  0  0  0
    6.2927  -18.5940   21.7159 N   0  0  0  0  0  0  0  0  0  0  0  0
    8.4130  -17.9445   20.7868 C   0  0  0  0  0  0  0  0  0  0  0  0
    9.4749  -18.2344   20.1877 O   0  0  0  0  0  0  0  0  0  0  0  0
    8.6822  -15.4705   18.5487 N   0  0  0  0  0  0  0  0  0  0  0  0
    8.4751  -14.3842   19.4356 C   0  0  0  0  0  0  0  0  0  0  0  0
    7.8922  -13.3610   18.9720 O   0  0  0  0  0  0  0  0  0  0  0  0
    8.9067  -14.4069   20.8450 C   0  0  0  0  0  0  0  0  0  0  0  0
    9.4276  -15.7576   21.3022 C   0  0  2  0  0  0  0  0  0  0  0  0
    8.2785  -16.6799   21.3757 N   0  0  0  0  0  0  0  0  0  0  0  0
   10.0780  -15.7642   22.6025 C   0  0  0  0  0  0  0  0  0  0  0  0
   11.2873  -15.3384   22.7036 O   0  0  0  0  0  0  0  0  0  0  0  0
    9.5264  -16.1964   23.8411 N   0  0  0  0  0  0  0  0  0  0  0  0
   10.3507  -16.2777   25.0557 C   0  0  1  0  0  0  0  0  0  0  0  0
    9.8677  -15.2274   26.0392 C   0  0  0  0  0  0  0  0  0  0  0  0
    8.4135  -15.1013   25.9437 C   0  0  0  0  0  0  0  0  0  0  0  0
    7.4739  -16.0975   25.6966 C   0  0  0  0  0  0  0  0  0  0  0  0
    6.2730  -15.4975   25.7036 N   0  0  0  0  0  0  0  0  0  0  0  0
    6.3587  -14.1801   25.9371 C   0  0  0  0  0  0  0  0  0  0  0  0
    5.4184  -13.1535   26.0383 C   0  0  0  0  0  0  0  0  0  0  0  0
    5.8035  -11.8728   26.2896 C   0  0  0  0  0  0  0  0  0  0  0  0
    7.1491  -11.6012   26.4445 C   0  0  0  0  0  0  0  0  0  0  0  0
    8.0890  -12.6075   26.3469 C   0  0  0  0  0  0  0  0  0  0  0  0
    7.7108  -13.9232   26.0900 C   0  0  0  0  0  0  0  0  0  0  0  0
   10.1549  -17.6135   25.6441 C   0  0  0  0  0  0  0  0  0  0  0  0
   10.7243  -17.9272   26.6997 O   0  0  0  0  0  0  0  0  0  0  0  0
    9.3266  -18.5243   25.0107 O   0  0  0  0  0  0  0  0  0  0  0  0
  2  4  1  0
  2  1  1  6
  3  2  1  0
  4  5  2  0
  6  7  1  0
  7  9  1  0
  8  7  2  0
 10  9  1  1
 10 12  1  0
 11 10  1  0
 11  4  1  0
 12 13  2  0
 12 14  1  0
 14 15  1  0
 15 26  1  0
 15 16  1  1
 17 18  2  0
 17 16  1  0
 19 18  1  0
 20 25  2  0
 20 19  1  0
 21 20  1  0
 22 23  1  0
 22 21  2  0
 23 24  2  0
 24 25  1  0
 25 17  1  0
 26 28  1  0
 27 26  2  0
M  END
$$$$
