MTG.pdb
     RDKit          3D

 20 19  0  0  1  0  0  0  0  0999 V2000
    6.5528  -11.0766   26.4075 C   0  0  0  0  0  0  0  0  0  0  0  0
    6.5257  -12.2421   27.7717 S   0  0  0  0  0  0  0  0  0  0  0  0
    6.1557  -13.9130   27.1946 C   0  0  0  0  0  0  0  0  0  0  0  0
    7.2214  -14.3868   26.2134 C   0  0  0  0  0  0  0  0  0  0  0  0
    6.8045  -15.7451   25.7020 C   0  0  2  0  0  0  0  0  0  0  0  0
    6.8846  -16.7015   26.7638 N   0  0  0  0  0  0  0  0  0  0  0  0
    7.7289  -16.0913   24.5726 C   0  0  0  0  0  0  0  0  0  0  0  0
    8.6829  -16.8889   24.7691 O   0  0  0  0  0  0  0  0  0  0  0  0
    7.6468  -13.8517   21.0195 C   0  0  0  0  0  0  0  0  0  0  0  0
    7.9082  -15.3248   20.9620 C   0  0  1  0  0  0  0  0  0  0  0  0
    8.8073  -15.5396   19.8958 O   0  0  0  0  0  0  0  0  0  0  0  0
    8.5386  -15.9028   22.2055 C   0  0  2  0  0  0  0  0  0  0  0  0
    7.5775  -15.5566   23.2795 N   0  0  0  0  0  0  0  0  0  0  0  0
    9.8646  -15.3740   22.5249 C   0  0  0  0  0  0  0  0  0  0  0  0
    9.9518  -14.3136   23.1999 O   0  0  0  0  0  0  0  0  0  0  0  0
   11.0703  -15.9870   22.1203 N   0  0  0  0  0  0  0  0  0  0  0  0
   12.3709  -15.4746   22.5251 C   0  0  0  0  0  0  0  0  0  0  0  0
   13.4649  -16.2970   21.9653 C   0  0  0  0  0  0  0  0  0  0  0  0
   13.2101  -17.3172   21.2803 O   0  0  0  0  0  0  0  0  0  0  0  0
   14.7805  -15.9760   22.1735 O   0  0  0  0  0  0  0  0  0  0  0  0
  1  2  1  0
  3  2  1  0
  3  4  1  0
  5  4  1  0
  5  6  1  1
  7  5  1  0
  8  7  2  0
 10  9  1  1
 10 11  1  0
 10 12  1  0
 12 13  1  1
 13  7  1  0
 14 12  1  0
 14 16  1  0
 15 14  2  0
 17 16  1  0
 18 17  1  0
 19 18  2  0
 20 18  1  0
M  END
$$$$
