MTG.pdb
     RDKit          3D

 20 19  0  0  1  0  0  0  0  0999 V2000
    7.8129  -11.6835   27.1949 C   0  0  0  0  0  0  0  0  0  0  0  0
    6.1688  -12.1719   26.6676 S   0  0  0  0  0  0  0  0  0  0  0  0
    6.2373  -13.1878   25.1759 C   0  0  0  0  0  0  0  0  0  0  0  0
    7.6770  -13.5756   24.8601 C   0  0  0  0  0  0  0  0  0  0  0  0
    7.6655  -14.3915   23.5894 C   0  0  2  0  0  0  0  0  0  0  0  0
    6.3131  -14.6389   23.1918 N   0  0  0  0  0  0  0  0  0  0  0  0
    8.4004  -15.6664   23.8800 C   0  0  0  0  0  0  0  0  0  0  0  0
    7.8002  -16.6177   24.4452 O   0  0  0  0  0  0  0  0  0  0  0  0
   10.5713  -17.3027   21.3131 C   0  0  0  0  0  0  0  0  0  0  0  0
   11.2967  -17.3703   22.6211 C   0  0  1  0  0  0  0  0  0  0  0  0
   12.2732  -16.3519   22.6006 O   0  0  0  0  0  0  0  0  0  0  0  0
   10.4309  -17.1392   23.8356 C   0  0  2  0  0  0  0  0  0  0  0  0
    9.7546  -15.8528   23.5447 N   0  0  0  0  0  0  0  0  0  0  0  0
   11.1588  -17.0520   25.1015 C   0  0  0  0  0  0  0  0  0  0  0  0
   11.7951  -15.9975   25.3675 O   0  0  0  0  0  0  0  0  0  0  0  0
   11.1921  -18.0893   26.0586 N   0  0  0  0  0  0  0  0  0  0  0  0
   11.9465  -17.9727   27.2977 C   0  0  0  0  0  0  0  0  0  0  0  0
   11.7788  -19.1776   28.1384 C   0  0  0  0  0  0  0  0  0  0  0  0
   11.0714  -20.1368   27.7453 O   0  0  0  0  0  0  0  0  0  0  0  0
   12.3843  -19.2863   29.3627 O   0  0  0  0  0  0  0  0  0  0  0  0
  1  2  1  0
  3  2  1  0
  3  4  1  0
  5  4  1  0
  5  6  1  1
  7  5  1  0
  8  7  2  0
 10  9  1  6
 10 11  1  0
 10 12  1  0
 12 13  1  6
 13  7  1  0
 14 12  1  0
 14 16  1  0
 15 14  2  0
 17 16  1  0
 18 17  1  0
 19 18  2  0
 20 18  1  0
M  END
$$$$
