MTG.pdb
     RDKit          3D

 20 19  0  0  1  0  0  0  0  0999 V2000
    6.5274  -11.7400   26.7370 C   0  0  0  0  0  0  0  0  0  0  0  0
    7.8746  -12.7177   27.4070 S   0  0  0  0  0  0  0  0  0  0  0  0
    7.5994  -14.4815   27.1329 C   0  0  0  0  0  0  0  0  0  0  0  0
    7.1501  -14.7349   25.6987 C   0  0  0  0  0  0  0  0  0  0  0  0
    6.8650  -16.2114   25.5599 C   0  0  2  0  0  0  0  0  0  0  0  0
    7.4477  -16.9167   26.6605 N   0  0  0  0  0  0  0  0  0  0  0  0
    7.4479  -16.6494   24.2491 C   0  0  0  0  0  0  0  0  0  0  0  0
    7.8143  -17.8442   24.0972 O   0  0  0  0  0  0  0  0  0  0  0  0
    6.1941  -14.7180   20.9307 C   0  0  0  0  0  0  0  0  0  0  0  0
    7.6261  -15.1532   20.8910 C   0  0  1  0  0  0  0  0  0  0  0  0
    8.4023  -14.0432   21.2864 O   0  0  0  0  0  0  0  0  0  0  0  0
    7.9651  -16.2932   21.8201 C   0  0  2  0  0  0  0  0  0  0  0  0
    7.6078  -15.7715   23.1607 N   0  0  0  0  0  0  0  0  0  0  0  0
    9.3677  -16.7082   21.7973 C   0  0  0  0  0  0  0  0  0  0  0  0
    9.8071  -17.3170   20.7854 O   0  0  0  0  0  0  0  0  0  0  0  0
   10.2736  -16.4644   22.8523 N   0  0  0  0  0  0  0  0  0  0  0  0
   11.6440  -16.9534   22.8220 C   0  0  0  0  0  0  0  0  0  0  0  0
   12.5402  -15.9850   22.1545 C   0  0  0  0  0  0  0  0  0  0  0  0
   13.7747  -15.9973   22.3801 O   0  0  0  0  0  0  0  0  0  0  0  0
   12.0578  -15.0509   21.2758 O   0  0  0  0  0  0  0  0  0  0  0  0
  1  2  1  0
  3  2  1  0
  3  4  1  0
  5  4  1  0
  5  6  1  1
  7  5  1  0
  8  7  2  0
 10  9  1  1
 10 11  1  0
 10 12  1  0
 12 13  1  1
 13  7  1  0
 14 12  1  0
 14 16  1  0
 15 14  2  0
 17 16  1  0
 18 17  1  0
 19 18  2  0
 20 18  1  0
M  END
$$$$
