MTG.pdb
     RDKit          3D

 20 19  0  0  1  0  0  0  0  0999 V2000
    7.6707  -11.5905   26.0795 C   0  0  0  0  0  0  0  0  0  0  0  0
    7.0243  -12.4748   27.5008 S   0  0  0  0  0  0  0  0  0  0  0  0
    6.7407  -14.2156   27.1120 C   0  0  0  0  0  0  0  0  0  0  0  0
    6.6787  -14.4221   25.6032 C   0  0  0  0  0  0  0  0  0  0  0  0
    6.5107  -15.9010   25.3478 C   0  0  2  0  0  0  0  0  0  0  0  0
    6.5249  -16.6063   26.5931 N   0  0  0  0  0  0  0  0  0  0  0  0
    7.6417  -16.3237   24.4579 C   0  0  0  0  0  0  0  0  0  0  0  0
    8.4105  -17.2511   24.8236 O   0  0  0  0  0  0  0  0  0  0  0  0
    7.1020  -16.5498   20.6952 C   0  0  0  0  0  0  0  0  0  0  0  0
    8.4685  -15.9918   20.9462 C   0  0  1  0  0  0  0  0  0  0  0  0
    8.3865  -14.5986   20.7375 O   0  0  0  0  0  0  0  0  0  0  0  0
    8.9907  -16.2071   22.3458 C   0  0  2  0  0  0  0  0  0  0  0  0
    7.8888  -15.7214   23.2100 N   0  0  0  0  0  0  0  0  0  0  0  0
   10.2286  -15.4922   22.6566 C   0  0  0  0  0  0  0  0  0  0  0  0
   10.1607  -14.2946   23.0425 O   0  0  0  0  0  0  0  0  0  0  0  0
   11.5131  -16.0685   22.5516 N   0  0  0  0  0  0  0  0  0  0  0  0
   12.7259  -15.3004   22.7903 C   0  0  0  0  0  0  0  0  0  0  0  0
   13.9311  -16.1371   22.6052 C   0  0  0  0  0  0  0  0  0  0  0  0
   13.8253  -17.3647   22.3668 O   0  0  0  0  0  0  0  0  0  0  0  0
   15.1912  -15.6055   22.6867 O   0  0  0  0  0  0  0  0  0  0  0  0
  1  2  1  0
  3  2  1  0
  3  4  1  0
  5  4  1  0
  5  6  1  1
  7  5  1  0
  8  7  2  0
 10  9  1  1
 10 11  1  0
 10 12  1  0
 12 13  1  1
 13  7  1  0
 14 12  1  0
 14 16  1  0
 15 14  2  0
 17 16  1  0
 18 17  1  0
 19 18  2  0
 20 18  1  0
M  END
$$$$
