MTG.pdb
     RDKit          3D

 20 19  0  0  1  0  0  0  0  0999 V2000
    7.5940  -10.9939   26.4794 C   0  0  0  0  0  0  0  0  0  0  0  0
    6.7490  -12.0528   27.6561 S   0  0  0  0  0  0  0  0  0  0  0  0
    6.0789  -13.5220   26.8472 C   0  0  0  0  0  0  0  0  0  0  0  0
    7.1723  -14.2522   26.0763 C   0  0  0  0  0  0  0  0  0  0  0  0
    6.5332  -15.4242   25.3704 C   0  0  2  0  0  0  0  0  0  0  0  0
    6.0726  -16.3726   26.3384 N   0  0  0  0  0  0  0  0  0  0  0  0
    7.5757  -16.0144   24.4679 C   0  0  0  0  0  0  0  0  0  0  0  0
    8.2773  -16.9785   24.8717 O   0  0  0  0  0  0  0  0  0  0  0  0
    6.9807  -16.0761   20.6545 C   0  0  0  0  0  0  0  0  0  0  0  0
    8.4333  -15.8262   20.9171 C   0  0  1  0  0  0  0  0  0  0  0  0
    8.6608  -14.4530   20.6851 O   0  0  0  0  0  0  0  0  0  0  0  0
    8.8801  -16.1243   22.3276 C   0  0  2  0  0  0  0  0  0  0  0  0
    7.8112  -15.5323   23.1667 N   0  0  0  0  0  0  0  0  0  0  0  0
   10.1793  -15.5600   22.6929 C   0  0  0  0  0  0  0  0  0  0  0  0
   10.2466  -14.3445   23.0180 O   0  0  0  0  0  0  0  0  0  0  0  0
   11.3798  -16.3028   22.7060 N   0  0  0  0  0  0  0  0  0  0  0  0
   12.6343  -15.7347   23.1765 C   0  0  0  0  0  0  0  0  0  0  0  0
   13.7856  -16.3105   22.4488 C   0  0  0  0  0  0  0  0  0  0  0  0
   13.6050  -17.1142   21.5020 O   0  0  0  0  0  0  0  0  0  0  0  0
   15.0756  -15.9890   22.7803 O   0  0  0  0  0  0  0  0  0  0  0  0
  1  2  1  0
  3  2  1  0
  3  4  1  0
  5  4  1  0
  5  6  1  1
  7  5  1  0
  8  7  2  0
 10  9  1  1
 10 11  1  0
 10 12  1  0
 12 13  1  1
 13  7  1  0
 14 12  1  0
 14 16  1  0
 15 14  2  0
 17 16  1  0
 18 17  1  0
 19 18  2  0
 20 18  1  0
M  END
$$$$
