MTG.pdb
     RDKit          3D

 20 19  0  0  1  0  0  0  0  0999 V2000
    8.1672  -12.0134   20.3308 C   0  0  0  0  0  0  0  0  0  0  0  0
    7.2652  -12.2542   18.7984 S   0  0  0  0  0  0  0  0  0  0  0  0
    7.9822  -13.5947   17.8234 C   0  0  0  0  0  0  0  0  0  0  0  0
    8.8892  -14.4594   18.6909 C   0  0  0  0  0  0  0  0  0  0  0  0
    9.4194  -15.5797   17.8282 C   0  0  2  0  0  0  0  0  0  0  0  0
    8.3245  -16.3163   17.2740 N   0  0  0  0  0  0  0  0  0  0  0  0
   10.2792  -16.4401   18.7059 C   0  0  0  0  0  0  0  0  0  0  0  0
   10.0218  -17.6668   18.8220 O   0  0  0  0  0  0  0  0  0  0  0  0
   11.7405  -18.4900   18.3578 C   0  0  0  0  0  0  0  0  0  0  0  0
   12.7875  -17.8010   19.1768 C   0  0  1  0  0  0  0  0  0  0  0  0
   13.5846  -17.0577   18.2806 O   0  0  0  0  0  0  0  0  0  0  0  0
   12.2501  -16.8374   20.2066 C   0  0  2  0  0  0  0  0  0  0  0  0
   11.3807  -15.9312   19.4192 N   0  0  0  0  0  0  0  0  0  0  0  0
   13.2698  -16.0666   20.9181 C   0  0  0  0  0  0  0  0  0  0  0  0
   13.6028  -14.9368   20.4706 O   0  0  0  0  0  0  0  0  0  0  0  0
   13.9122  -16.5147   22.0926 N   0  0  0  0  0  0  0  0  0  0  0  0
   14.3117  -15.5997   23.1514 C   0  0  0  0  0  0  0  0  0  0  0  0
   14.8193  -16.3366   24.3286 C   0  0  0  0  0  0  0  0  0  0  0  0
   14.7609  -17.5895   24.3712 O   0  0  0  0  0  0  0  0  0  0  0  0
   15.3651  -15.6829   25.4019 O   0  0  0  0  0  0  0  0  0  0  0  0
  1  2  1  0
  3  2  1  0
  3  4  1  0
  5  4  1  0
  5  6  1  1
  7  5  1  0
  8  7  2  0
 10  9  1  6
 10 11  1  0
 10 12  1  0
 12 13  1  6
 13  7  1  0
 14 12  1  0
 14 16  1  0
 15 14  2  0
 17 16  1  0
 18 17  1  0
 19 18  2  0
 20 18  1  0
M  END
$$$$
