MTG.pdb
     RDKit          3D

 20 19  0  0  1  0  0  0  0  0999 V2000
    7.8720  -11.7253   28.0986 C   0  0  0  0  0  0  0  0  0  0  0  0
    6.2664  -11.7397   27.2975 S   0  0  0  0  0  0  0  0  0  0  0  0
    5.8272  -13.4026   26.7468 C   0  0  0  0  0  0  0  0  0  0  0  0
    6.9287  -13.9816   25.8668 C   0  0  0  0  0  0  0  0  0  0  0  0
    6.5005  -15.3670   25.4453 C   0  0  2  0  0  0  0  0  0  0  0  0
    6.4563  -16.2235   26.5911 N   0  0  0  0  0  0  0  0  0  0  0  0
    7.4983  -15.8457   24.4329 C   0  0  0  0  0  0  0  0  0  0  0  0
    8.3812  -16.6767   24.7715 O   0  0  0  0  0  0  0  0  0  0  0  0
    7.8528  -13.9796   20.6280 C   0  0  0  0  0  0  0  0  0  0  0  0
    7.9643  -15.4635   20.7932 C   0  0  1  0  0  0  0  0  0  0  0  0
    8.8665  -15.9183   19.8081 O   0  0  0  0  0  0  0  0  0  0  0  0
    8.4973  -15.9110   22.1325 C   0  0  2  0  0  0  0  0  0  0  0  0
    7.4942  -15.4013   23.0974 N   0  0  0  0  0  0  0  0  0  0  0  0
    9.8259  -15.3985   22.4674 C   0  0  0  0  0  0  0  0  0  0  0  0
    9.9207  -14.2893   23.0576 O   0  0  0  0  0  0  0  0  0  0  0  0
   11.0260  -16.0793   22.1684 N   0  0  0  0  0  0  0  0  0  0  0  0
   12.3303  -15.5311   22.5091 C   0  0  0  0  0  0  0  0  0  0  0  0
   13.4156  -16.4551   22.1154 C   0  0  0  0  0  0  0  0  0  0  0  0
   13.1526  -17.5455   21.5525 O   0  0  0  0  0  0  0  0  0  0  0  0
   14.7317  -16.1548   22.3495 O   0  0  0  0  0  0  0  0  0  0  0  0
  1  2  1  0
  3  2  1  0
  3  4  1  0
  5  4  1  0
  5  6  1  1
  7  5  1  0
  8  7  2  0
 10  9  1  1
 10 11  1  0
 10 12  1  0
 12 13  1  1
 13  7  1  0
 14 12  1  0
 14 16  1  0
 15 14  2  0
 17 16  1  0
 18 17  1  0
 19 18  2  0
 20 18  1  0
M  END
$$$$
