MTG.pdb
     RDKit          3D

 20 19  0  0  1  0  0  0  0  0999 V2000
    6.0236  -10.9871   26.0729 C   0  0  0  0  0  0  0  0  0  0  0  0
    5.1301  -12.5146   26.3698 S   0  0  0  0  0  0  0  0  0  0  0  0
    5.9963  -13.9270   25.6512 C   0  0  0  0  0  0  0  0  0  0  0  0
    7.4264  -13.5466   25.2865 C   0  0  0  0  0  0  0  0  0  0  0  0
    8.0866  -14.7635   24.6832 C   0  0  2  0  0  0  0  0  0  0  0  0
    7.3028  -15.9257   24.9720 N   0  0  0  0  0  0  0  0  0  0  0  0
    9.4599  -14.8583   25.2790 C   0  0  0  0  0  0  0  0  0  0  0  0
   10.1740  -13.8255   25.3684 O   0  0  0  0  0  0  0  0  0  0  0  0
   10.3935  -14.0257   27.6141 C   0  0  0  0  0  0  0  0  0  0  0  0
   11.0081  -15.3829   27.7620 C   0  0  1  0  0  0  0  0  0  0  0  0
   10.0823  -16.1762   28.4726 O   0  0  0  0  0  0  0  0  0  0  0  0
   11.2996  -16.0889   26.4603 C   0  0  2  0  0  0  0  0  0  0  0  0
    9.9979  -16.0700   25.7516 N   0  0  0  0  0  0  0  0  0  0  0  0
   11.7780  -17.4642   26.6008 C   0  0  0  0  0  0  0  0  0  0  0  0
   11.0469  -18.3073   27.1858 O   0  0  0  0  0  0  0  0  0  0  0  0
   13.0246  -17.9131   26.1135 N   0  0  0  0  0  0  0  0  0  0  0  0
   13.2991  -19.3227   25.8772 C   0  0  0  0  0  0  0  0  0  0  0  0
   14.6965  -19.5267   25.4387 C   0  0  0  0  0  0  0  0  0  0  0  0
   15.4451  -18.5446   25.2150 O   0  0  0  0  0  0  0  0  0  0  0  0
   15.2159  -20.7825   25.2638 O   0  0  0  0  0  0  0  0  0  0  0  0
  1  2  1  0
  3  2  1  0
  3  4  1  0
  5  4  1  0
  5  6  1  1
  7  5  1  0
  8  7  2  0
 10  9  1  6
 10 11  1  0
 10 12  1  0
 12 13  1  6
 13  7  1  0
 14 12  1  0
 14 16  1  0
 15 14  2  0
 17 16  1  0
 18 17  1  0
 19 18  2  0
 20 18  1  0
M  END
$$$$
