VQV.pdb
     RDKit          3D

 24 23  0  0  1  0  0  0  0  0999 V2000
   17.6058  -12.3323  -17.8402 C   0  0  0  0  0  0  0  0  0  0  0  0
   18.9699  -12.3074  -18.4233 C   0  0  2  0  0  0  0  0  0  0  0  0
   19.4500  -13.7505  -18.6228 C   0  0  0  0  0  0  0  0  0  0  0  0
   19.9990  -11.5149  -17.7013 C   0  0  2  0  0  0  0  0  0  0  0  0
   20.1848  -12.1775  -16.3907 N   0  0  0  0  0  0  0  0  0  0  0  0
   19.6490  -10.1139  -17.4099 C   0  0  0  0  0  0  0  0  0  0  0  0
   19.5512   -9.2694  -18.3660 O   0  0  0  0  0  0  0  0  0  0  0  0
   15.3910   -8.3257  -13.8381 N   0  0  0  0  0  0  0  0  0  0  0  0
   16.1654   -9.4789  -14.0282 C   0  0  0  0  0  0  0  0  0  0  0  0
   15.7802  -10.5630  -13.5355 O   0  0  0  0  0  0  0  0  0  0  0  0
   17.4435   -9.4697  -14.8014 C   0  0  0  0  0  0  0  0  0  0  0  0
   17.7824   -8.0633  -15.2634 C   0  0  0  0  0  0  0  0  0  0  0  0
   19.1881   -8.1590  -15.8868 C   0  0  2  0  0  0  0  0  0  0  0  0
   19.3923   -9.5669  -16.1219 N   0  0  0  0  0  0  0  0  0  0  0  0
   20.1888   -7.5232  -15.0194 C   0  0  0  0  0  0  0  0  0  0  0  0
   20.6669   -8.1578  -14.0167 O   0  0  0  0  0  0  0  0  0  0  0  0
   23.5045   -6.6158  -16.1345 C   0  0  0  0  0  0  0  0  0  0  0  0
   22.9937   -5.4133  -15.3894 C   0  0  1  0  0  0  0  0  0  0  0  0
   22.5938   -4.3226  -16.3600 C   0  0  0  0  0  0  0  0  0  0  0  0
   21.8378   -5.7648  -14.4741 C   0  0  2  0  0  0  0  0  0  0  0  0
   20.6852   -6.2123  -15.2140 N   0  0  0  0  0  0  0  0  0  0  0  0
   21.4518   -4.6501  -13.6048 C   0  0  0  0  0  0  0  0  0  0  0  0
   22.3129   -4.2117  -12.6277 O   0  0  0  0  0  0  0  0  0  0  0  0
   20.3458   -4.0943  -13.7441 O   0  0  0  0  0  0  0  0  0  0  0  0
  2  1  1  1
  2  3  1  0
  4  2  1  0
  4  5  1  1
  6  4  1  0
  6  7  2  0
  8  9  1  0
  9 11  1  0
  9 10  2  0
 11 12  1  0
 13 12  1  1
 13 14  1  0
 14  6  1  0
 15 13  1  0
 16 15  2  0
 18 17  1  6
 18 20  1  0
 19 18  1  0
 20 22  1  0
 20 21  1  6
 21 15  1  0
 22 23  1  0
 24 22  2  0
M  END
$$$$
