VQV.pdb
     RDKit          3D

 24 23  0  0  1  0  0  0  0  0999 V2000
   17.0871  -13.0772  -17.8314 C   0  0  0  0  0  0  0  0  0  0  0  0
   16.4413  -12.1245  -16.8951 C   0  0  2  0  0  0  0  0  0  0  0  0
   15.7759  -11.0059  -17.7068 C   0  0  0  0  0  0  0  0  0  0  0  0
   17.2935  -11.5486  -15.8225 C   0  0  2  0  0  0  0  0  0  0  0  0
   16.3709  -10.8814  -14.8766 N   0  0  0  0  0  0  0  0  0  0  0  0
   18.2622  -10.5233  -16.2473 C   0  0  0  0  0  0  0  0  0  0  0  0
   19.3432  -10.8728  -16.8356 O   0  0  0  0  0  0  0  0  0  0  0  0
   18.5191   -6.7856  -20.5117 N   0  0  0  0  0  0  0  0  0  0  0  0
   19.7088   -6.5088  -19.8236 C   0  0  0  0  0  0  0  0  0  0  0  0
   20.5997   -5.8346  -20.3878 O   0  0  0  0  0  0  0  0  0  0  0  0
   19.9620   -6.9888  -18.4318 C   0  0  0  0  0  0  0  0  0  0  0  0
   18.7935   -7.8175  -17.9278 C   0  0  0  0  0  0  0  0  0  0  0  0
   19.1336   -8.1682  -16.4666 C   0  0  2  0  0  0  0  0  0  0  0  0
   18.1239   -9.1183  -16.0707 N   0  0  0  0  0  0  0  0  0  0  0  0
   19.2024   -6.9555  -15.6405 C   0  0  0  0  0  0  0  0  0  0  0  0
   18.1448   -6.2734  -15.4102 O   0  0  0  0  0  0  0  0  0  0  0  0
   21.0248   -7.1148  -12.2910 C   0  0  0  0  0  0  0  0  0  0  0  0
   21.2719   -5.7543  -12.8825 C   0  0  1  0  0  0  0  0  0  0  0  0
   22.7116   -5.6290  -13.3329 C   0  0  0  0  0  0  0  0  0  0  0  0
   20.3252   -5.4560  -14.0282 C   0  0  2  0  0  0  0  0  0  0  0  0
   20.3937   -6.4634  -15.0561 N   0  0  0  0  0  0  0  0  0  0  0  0
   20.5642   -4.1391  -14.6248 C   0  0  0  0  0  0  0  0  0  0  0  0
   21.0833   -4.0444  -15.8936 O   0  0  0  0  0  0  0  0  0  0  0  0
   20.3000   -3.1007  -13.9895 O   0  0  0  0  0  0  0  0  0  0  0  0
  2  1  1  6
  2  3  1  0
  4  2  1  0
  4  5  1  1
  6  4  1  0
  6  7  2  0
  8  9  1  0
  9 11  1  0
  9 10  2  0
 11 12  1  0
 13 12  1  6
 13 14  1  0
 14  6  1  0
 15 13  1  0
 16 15  2  0
 18 17  1  6
 18 20  1  0
 19 18  1  0
 20 22  1  0
 20 21  1  6
 21 15  1  0
 22 23  1  0
 24 22  2  0
M  END
$$$$
