VQV.pdb
     RDKit          3D

 24 23  0  0  1  0  0  0  0  0999 V2000
   14.3941  -12.7549  -15.2706 C   0  0  0  0  0  0  0  0  0  0  0  0
   15.3081  -13.0863  -16.3914 C   0  0  2  0  0  0  0  0  0  0  0  0
   15.2879  -14.6037  -16.6151 C   0  0  0  0  0  0  0  0  0  0  0  0
   16.7076  -12.5970  -16.2893 C   0  0  2  0  0  0  0  0  0  0  0  0
   17.3660  -13.4416  -15.2675 N   0  0  0  0  0  0  0  0  0  0  0  0
   16.8738  -11.2031  -15.8426 C   0  0  0  0  0  0  0  0  0  0  0  0
   16.5197  -10.2418  -16.6090 O   0  0  0  0  0  0  0  0  0  0  0  0
   16.7225   -8.7815  -10.0232 N   0  0  0  0  0  0  0  0  0  0  0  0
   16.7855   -7.7009  -10.9141 C   0  0  0  0  0  0  0  0  0  0  0  0
   16.5977   -6.5408  -10.4836 O   0  0  0  0  0  0  0  0  0  0  0  0
   17.0701   -7.8758  -12.3702 C   0  0  0  0  0  0  0  0  0  0  0  0
   17.0877   -9.3481  -12.7416 C   0  0  0  0  0  0  0  0  0  0  0  0
   17.5409   -9.3992  -14.2133 C   0  0  2  0  0  0  0  0  0  0  0  0
   17.4080  -10.7840  -14.5923 N   0  0  0  0  0  0  0  0  0  0  0  0
   18.8916   -8.8415  -14.3637 C   0  0  0  0  0  0  0  0  0  0  0  0
   19.8935   -9.4296  -13.8279 O   0  0  0  0  0  0  0  0  0  0  0  0
   20.8217   -8.4248  -17.4822 C   0  0  0  0  0  0  0  0  0  0  0  0
   20.8865   -7.1097  -16.7554 C   0  0  1  0  0  0  0  0  0  0  0  0
   19.9688   -6.0997  -17.4105 C   0  0  0  0  0  0  0  0  0  0  0  0
   20.5530   -7.2601  -15.2844 C   0  0  2  0  0  0  0  0  0  0  0  0
   19.1828   -7.6584  -15.0836 N   0  0  0  0  0  0  0  0  0  0  0  0
   20.8183   -6.0376  -14.5213 C   0  0  0  0  0  0  0  0  0  0  0  0
   19.7832   -5.3721  -13.9097 O   0  0  0  0  0  0  0  0  0  0  0  0
   21.9781   -5.5945  -14.4217 O   0  0  0  0  0  0  0  0  0  0  0  0
  2  1  1  1
  2  3  1  0
  4  2  1  0
  4  5  1  1
  6  4  1  0
  6  7  2  0
  8  9  1  0
  9 11  1  0
  9 10  2  0
 11 12  1  0
 13 12  1  1
 13 14  1  0
 14  6  1  0
 15 13  1  0
 16 15  2  0
 18 17  1  6
 18 20  1  0
 19 18  1  0
 20 22  1  0
 20 21  1  6
 21 15  1  0
 22 23  1  0
 24 22  2  0
M  END
$$$$
