VQV.pdb
     RDKit          3D

 24 23  0  0  1  0  0  0  0  0999 V2000
   28.7894  -22.7194  -15.1563 C   0  0  0  0  0  0  0  0  0  0  0  0
   28.2757  -22.1027  -16.4041 C   0  0  2  0  0  0  0  0  0  0  0  0
   29.4528  -21.4958  -17.1781 C   0  0  0  0  0  0  0  0  0  0  0  0
   27.1802  -21.1082  -16.2651 C   0  0  2  0  0  0  0  0  0  0  0  0
   27.8244  -19.8399  -15.8557 N   0  0  0  0  0  0  0  0  0  0  0  0
   26.1642  -21.4049  -15.2404 C   0  0  0  0  0  0  0  0  0  0  0  0
   25.2956  -22.3204  -15.4507 O   0  0  0  0  0  0  0  0  0  0  0  0
   26.2222  -20.0823   -8.9933 N   0  0  0  0  0  0  0  0  0  0  0  0
   25.0715  -20.8433   -9.2430 C   0  0  0  0  0  0  0  0  0  0  0  0
   24.4275  -21.3137   -8.2784 O   0  0  0  0  0  0  0  0  0  0  0  0
   24.5754  -21.1199  -10.6247 C   0  0  0  0  0  0  0  0  0  0  0  0
   25.5852  -20.6585  -11.6609 C   0  0  0  0  0  0  0  0  0  0  0  0
   25.0080  -21.0895  -13.0229 C   0  0  2  0  0  0  0  0  0  0  0  0
   26.0344  -20.7581  -13.9799 N   0  0  0  0  0  0  0  0  0  0  0  0
   23.7062  -20.4529  -13.2638 C   0  0  0  0  0  0  0  0  0  0  0  0
   23.5881  -19.1814  -13.1868 O   0  0  0  0  0  0  0  0  0  0  0  0
   21.8397  -20.2757  -16.3153 C   0  0  0  0  0  0  0  0  0  0  0  0
   20.8263  -20.7009  -15.2886 C   0  0  1  0  0  0  0  0  0  0  0  0
   20.4687  -22.1601  -15.4738 C   0  0  0  0  0  0  0  0  0  0  0  0
   21.3116  -20.4444  -13.8757 C   0  0  2  0  0  0  0  0  0  0  0  0
   22.5261  -21.1640  -13.5874 N   0  0  0  0  0  0  0  0  0  0  0  0
   20.3017  -20.7760  -12.8670 C   0  0  0  0  0  0  0  0  0  0  0  0
   20.5139  -21.8221  -12.0015 O   0  0  0  0  0  0  0  0  0  0  0  0
   19.2487  -20.1156  -12.7867 O   0  0  0  0  0  0  0  0  0  0  0  0
  2  1  1  1
  2  3  1  0
  4  2  1  0
  4  5  1  1
  6  4  1  0
  6  7  2  0
  8  9  1  0
  9 11  1  0
  9 10  2  0
 11 12  1  0
 13 12  1  1
 13 14  1  0
 14  6  1  0
 15 13  1  0
 16 15  2  0
 18 17  1  6
 18 20  1  0
 19 18  1  0
 20 22  1  0
 20 21  1  1
 21 15  1  0
 22 23  1  0
 24 22  2  0
M  END
$$$$
