VQV.pdb
     RDKit          3D

 24 23  0  0  1  0  0  0  0  0999 V2000
   21.4578  -29.5304  -11.5410 C   0  0  0  0  0  0  0  0  0  0  0  0
   20.4397  -28.4740  -11.3197 C   0  0  2  0  0  0  0  0  0  0  0  0
   20.9897  -27.1393  -11.8382 C   0  0  0  0  0  0  0  0  0  0  0  0
   19.9187  -28.3167   -9.9368 C   0  0  2  0  0  0  0  0  0  0  0  0
   19.2311  -29.5857   -9.6086 N   0  0  0  0  0  0  0  0  0  0  0  0
   18.9267  -27.2459   -9.7378 C   0  0  0  0  0  0  0  0  0  0  0  0
   17.7188  -27.4167  -10.1231 O   0  0  0  0  0  0  0  0  0  0  0  0
   15.9148  -24.0120   -6.8390 N   0  0  0  0  0  0  0  0  0  0  0  0
   16.7613  -24.8933   -6.1517 C   0  0  0  0  0  0  0  0  0  0  0  0
   16.3116  -25.5409   -5.1796 O   0  0  0  0  0  0  0  0  0  0  0  0
   18.1914  -25.0951   -6.5332 C   0  0  0  0  0  0  0  0  0  0  0  0
   18.5679  -24.2002   -7.7009 C   0  0  0  0  0  0  0  0  0  0  0  0
   18.1532  -24.9741   -8.9670 C   0  0  2  0  0  0  0  0  0  0  0  0
   19.1714  -25.9814   -9.1336 N   0  0  0  0  0  0  0  0  0  0  0  0
   17.9903  -24.0620  -10.1070 C   0  0  0  0  0  0  0  0  0  0  0  0
   18.9882  -23.3881  -10.5392 O   0  0  0  0  0  0  0  0  0  0  0  0
   17.3349  -24.7766  -13.5685 C   0  0  0  0  0  0  0  0  0  0  0  0
   16.3262  -23.7249  -13.1968 C   0  0  1  0  0  0  0  0  0  0  0  0
   14.9519  -24.3420  -13.0477 C   0  0  0  0  0  0  0  0  0  0  0  0
   16.7203  -22.9854  -11.9336 C   0  0  2  0  0  0  0  0  0  0  0  0
   16.7678  -23.8630  -10.7918 N   0  0  0  0  0  0  0  0  0  0  0  0
   15.8291  -21.8595  -11.6417 C   0  0  0  0  0  0  0  0  0  0  0  0
   15.7267  -20.8168  -12.5310 O   0  0  0  0  0  0  0  0  0  0  0  0
   15.1609  -21.8389  -10.5907 O   0  0  0  0  0  0  0  0  0  0  0  0
  2  1  1  1
  2  3  1  0
  4  2  1  0
  4  5  1  6
  6  4  1  0
  6  7  2  0
  8  9  1  0
  9 11  1  0
  9 10  2  0
 11 12  1  0
 13 12  1  1
 13 14  1  0
 14  6  1  0
 15 13  1  0
 16 15  2  0
 18 17  1  1
 18 20  1  0
 19 18  1  0
 20 22  1  0
 20 21  1  1
 21 15  1  0
 22 23  1  0
 24 22  2  0
M  END
$$$$
