VQV.pdb
     RDKit          3D

 24 23  0  0  1  0  0  0  0  0999 V2000
   21.4509  -17.7578  -15.3543 C   0  0  0  0  0  0  0  0  0  0  0  0
   21.4695  -16.3289  -15.7534 C   0  0  2  0  0  0  0  0  0  0  0  0
   22.1993  -15.5219  -14.6722 C   0  0  0  0  0  0  0  0  0  0  0  0
   20.1619  -15.6999  -16.0742 C   0  0  2  0  0  0  0  0  0  0  0  0
   19.6218  -16.4415  -17.2359 N   0  0  0  0  0  0  0  0  0  0  0  0
   20.2072  -14.2827  -16.4737 C   0  0  0  0  0  0  0  0  0  0  0  0
   20.8008  -13.9442  -17.5553 O   0  0  0  0  0  0  0  0  0  0  0  0
   15.9277   -9.9296  -16.6968 N   0  0  0  0  0  0  0  0  0  0  0  0
   17.1180   -9.2419  -16.9719 C   0  0  0  0  0  0  0  0  0  0  0  0
   17.0617   -8.0635  -17.3898 O   0  0  0  0  0  0  0  0  0  0  0  0
   18.4648   -9.8610  -16.7860 C   0  0  0  0  0  0  0  0  0  0  0  0
   18.3351  -11.3009  -16.3212 C   0  0  0  0  0  0  0  0  0  0  0  0
   19.7782  -11.8180  -16.1657 C   0  0  2  0  0  0  0  0  0  0  0  0
   19.6352  -13.1938  -15.7587 N   0  0  0  0  0  0  0  0  0  0  0  0
   20.5391  -10.9720  -15.2365 C   0  0  0  0  0  0  0  0  0  0  0  0
   20.2550  -10.9697  -13.9892 O   0  0  0  0  0  0  0  0  0  0  0  0
   24.2754  -10.9176  -14.4258 C   0  0  0  0  0  0  0  0  0  0  0  0
   23.8220   -9.5280  -14.7798 C   0  0  1  0  0  0  0  0  0  0  0  0
   24.2637   -9.1709  -16.1830 C   0  0  0  0  0  0  0  0  0  0  0  0
   22.3216   -9.3691  -14.6347 C   0  0  2  0  0  0  0  0  0  0  0  0
   21.6040  -10.1262  -15.6286 N   0  0  0  0  0  0  0  0  0  0  0  0
   21.8976   -7.9677  -14.6947 C   0  0  0  0  0  0  0  0  0  0  0  0
   21.0819   -7.5406  -15.7147 O   0  0  0  0  0  0  0  0  0  0  0  0
   22.2714   -7.1571  -13.8260 O   0  0  0  0  0  0  0  0  0  0  0  0
  2  1  1  1
  2  3  1  0
  4  2  1  0
  4  5  1  6
  6  4  1  0
  6  7  2  0
  8  9  1  0
  9 11  1  0
  9 10  2  0
 11 12  1  0
 13 12  1  1
 13 14  1  0
 14  6  1  0
 15 13  1  0
 16 15  2  0
 18 17  1  6
 18 20  1  0
 19 18  1  0
 20 22  1  0
 20 21  1  6
 21 15  1  0
 22 23  1  0
 24 22  2  0
M  END
$$$$
