VQV.pdb
     RDKit          3D

 24 23  0  0  1  0  0  0  0  0999 V2000
   13.3203  -13.3738  -13.8605 C   0  0  0  0  0  0  0  0  0  0  0  0
   12.4507  -13.3811  -12.6584 C   0  0  2  0  0  0  0  0  0  0  0  0
   11.1069  -14.0249  -13.0228 C   0  0  0  0  0  0  0  0  0  0  0  0
   12.2324  -12.0799  -11.9745 C   0  0  2  0  0  0  0  0  0  0  0  0
   11.2705  -11.3298  -12.8130 N   0  0  0  0  0  0  0  0  0  0  0  0
   13.4180  -11.2170  -11.8334 C   0  0  0  0  0  0  0  0  0  0  0  0
   14.3708  -11.5657  -11.0541 O   0  0  0  0  0  0  0  0  0  0  0  0
   17.8592  -11.3503  -12.8644 N   0  0  0  0  0  0  0  0  0  0  0  0
   17.4022  -10.3171  -13.6947 C   0  0  0  0  0  0  0  0  0  0  0  0
   18.2041   -9.4312  -14.0672 O   0  0  0  0  0  0  0  0  0  0  0  0
   15.9852  -10.2267  -14.1587 C   0  0  0  0  0  0  0  0  0  0  0  0
   15.3584   -8.9149  -13.7202 C   0  0  0  0  0  0  0  0  0  0  0  0
   14.8120   -9.1700  -12.3023 C   0  0  2  0  0  0  0  0  0  0  0  0
   13.6353   -9.9794  -12.5006 N   0  0  0  0  0  0  0  0  0  0  0  0
   14.5817   -7.9031  -11.5953 C   0  0  0  0  0  0  0  0  0  0  0  0
   13.5836   -7.1654  -11.9060 O   0  0  0  0  0  0  0  0  0  0  0  0
   13.7052   -7.5334   -8.0794 C   0  0  0  0  0  0  0  0  0  0  0  0
   14.8425   -6.5804   -8.3249 C   0  0  1  0  0  0  0  0  0  0  0  0
   16.1297   -7.1383   -7.7562 C   0  0  0  0  0  0  0  0  0  0  0  0
   15.0032   -6.2600   -9.7977 C   0  0  2  0  0  0  0  0  0  0  0  0
   15.4098   -7.4156  -10.5563 N   0  0  0  0  0  0  0  0  0  0  0  0
   15.9515   -5.1681  -10.0339 C   0  0  0  0  0  0  0  0  0  0  0  0
   15.6593   -3.8986   -9.5964 O   0  0  0  0  0  0  0  0  0  0  0  0
   17.0243   -5.3812  -10.6299 O   0  0  0  0  0  0  0  0  0  0  0  0
  2  1  1  6
  2  3  1  0
  4  2  1  0
  4  5  1  6
  6  4  1  0
  6  7  2  0
  8  9  1  0
  9 11  1  0
  9 10  2  0
 11 12  1  0
 13 12  1  6
 13 14  1  0
 14  6  1  0
 15 13  1  0
 16 15  2  0
 18 17  1  6
 18 20  1  0
 19 18  1  0
 20 22  1  0
 20 21  1  6
 21 15  1  0
 22 23  1  0
 24 22  2  0
M  END
$$$$
