MHK.pdb
     RDKit          3D

 28 28  0  0  1  0  0  0  0  0999 V2000
    7.6467  -11.1408   26.8606 C   0  0  0  0  0  0  0  0  0  0  0  0
    6.2035  -12.0061   27.4890 S   0  0  0  0  0  0  0  0  0  0  0  0
    5.3347  -12.8868   26.1339 C   0  0  0  0  0  0  0  0  0  0  0  0
    6.1498  -14.0802   25.7600 C   0  0  0  0  0  0  0  0  0  0  0  0
    7.4400  -13.7386   25.1052 C   0  0  2  0  0  0  0  0  0  0  0  0
    7.2154  -12.5610   24.2628 N   0  0  0  0  0  0  0  0  0  0  0  0
    8.1056  -14.8145   24.3759 C   0  0  0  0  0  0  0  0  0  0  0  0
    8.0254  -16.0243   24.7042 O   0  0  0  0  0  0  0  0  0  0  0  0
    8.9064  -14.5423   23.2178 N   0  0  0  0  0  0  0  0  0  0  0  0
    9.5553  -15.5582   22.4233 C   0  0  1  0  0  0  0  0  0  0  0  0
    9.9835  -15.1100   21.0609 C   0  0  0  0  0  0  0  0  0  0  0  0
    8.9455  -14.6188   20.1751 C   0  0  0  0  0  0  0  0  0  0  0  0
    7.5871  -14.6100   20.3375 C   0  0  0  0  0  0  0  0  0  0  0  0
    7.0894  -14.0461   19.2062 N   0  0  0  0  0  0  0  0  0  0  0  0
    8.0974  -13.7198   18.3784 C   0  0  0  0  0  0  0  0  0  0  0  0
    9.2316  -14.0665   18.9633 N   0  0  0  0  0  0  0  0  0  0  0  0
   10.8011  -16.0039   23.1168 C   0  0  0  0  0  0  0  0  0  0  0  0
   11.5354  -15.1710   23.6701 O   0  0  0  0  0  0  0  0  0  0  0  0
   11.1391  -17.3661   23.1417 N   0  0  0  0  0  0  0  0  0  0  0  0
   12.1226  -17.9039   24.1657 C   0  0  1  0  0  0  0  0  0  0  0  0
   11.5393  -19.2026   24.5620 C   0  0  0  0  0  0  0  0  0  0  0  0
   11.9336  -19.9327   25.7588 C   0  0  0  0  0  0  0  0  0  0  0  0
   11.2608  -21.1642   26.1999 C   0  0  0  0  0  0  0  0  0  0  0  0
   11.9221  -21.8240   27.3873 C   0  0  0  0  0  0  0  0  0  0  0  0
   11.1374  -23.0024   27.7114 N   0  0  0  0  0  0  0  0  0  0  0  0
   13.3547  -18.0398   23.3515 C   0  0  0  0  0  0  0  0  0  0  0  0
   13.4082  -18.1332   22.1096 O   0  0  0  0  0  0  0  0  0  0  0  0
   14.6408  -18.0751   23.9625 O   0  0  0  0  0  0  0  0  0  0  0  0
  1  2  1  0
  3  4  1  0
  3  2  1  0
  4  5  1  0
  5  6  1  6
  7  9  1  0
  7  5  1  0
  8  7  2  0
 10  9  1  0
 11 12  1  0
 10 11  1  6
 12 16  1  0
 12 13  2  0
 13 14  1  0
 14 15  1  0
 16 15  2  0
 17 19  1  0
 17 10  1  0
 18 17  2  0
 20 19  1  0
 20 26  1  0
 20 21  1  6
 22 23  1  0
 22 21  1  0
 23 24  1  0
 24 25  1  0
 26 28  1  0
 27 26  2  0
M  END
$$$$
