MHK.pdb
     RDKit          3D

 28 28  0  0  1  0  0  0  0  0999 V2000
    7.9337  -11.5963   27.0020 C   0  0  0  0  0  0  0  0  0  0  0  0
    6.1762  -11.8403   26.7228 S   0  0  0  0  0  0  0  0  0  0  0  0
    5.8957  -12.9498   25.2885 C   0  0  0  0  0  0  0  0  0  0  0  0
    7.1350  -12.9530   24.4564 C   0  0  0  0  0  0  0  0  0  0  0  0
    7.0270  -13.7870   23.2305 C   0  0  2  0  0  0  0  0  0  0  0  0
    5.6032  -14.0119   22.9673 N   0  0  0  0  0  0  0  0  0  0  0  0
    7.7890  -15.0326   23.2204 C   0  0  0  0  0  0  0  0  0  0  0  0
    7.4296  -16.0672   23.8356 O   0  0  0  0  0  0  0  0  0  0  0  0
    9.0184  -15.1456   22.4908 N   0  0  0  0  0  0  0  0  0  0  0  0
    9.7584  -16.3751   22.3339 C   0  0  1  0  0  0  0  0  0  0  0  0
   10.4587  -16.5218   21.0192 C   0  0  0  0  0  0  0  0  0  0  0  0
    9.6260  -16.5574   19.8323 C   0  0  0  0  0  0  0  0  0  0  0  0
    9.2712  -15.5472   18.9805 C   0  0  0  0  0  0  0  0  0  0  0  0
    8.4739  -16.1245   18.0442 N   0  0  0  0  0  0  0  0  0  0  0  0
    8.3407  -17.4367   18.3056 C   0  0  0  0  0  0  0  0  0  0  0  0
    9.0407  -17.7069   19.3945 N   0  0  0  0  0  0  0  0  0  0  0  0
   10.8271  -16.4425   23.3755 C   0  0  0  0  0  0  0  0  0  0  0  0
   11.4610  -15.4208   23.6813 O   0  0  0  0  0  0  0  0  0  0  0  0
   11.1126  -17.6630   24.0075 N   0  0  0  0  0  0  0  0  0  0  0  0
   11.9713  -17.7077   25.2587 C   0  0  1  0  0  0  0  0  0  0  0  0
   11.3499  -18.7744   26.0712 C   0  0  0  0  0  0  0  0  0  0  0  0
   11.9283  -19.2902   27.3041 C   0  0  0  0  0  0  0  0  0  0  0  0
   11.2486  -20.2839   28.1493 C   0  0  0  0  0  0  0  0  0  0  0  0
   12.0259  -20.6573   29.3900 C   0  0  0  0  0  0  0  0  0  0  0  0
   11.2536  -21.6703   30.0876 N   0  0  0  0  0  0  0  0  0  0  0  0
   13.2906  -18.0910   24.7001 C   0  0  0  0  0  0  0  0  0  0  0  0
   14.4028  -17.8392   25.2035 O   0  0  0  0  0  0  0  0  0  0  0  0
   13.3903  -18.8164   23.4784 O   0  0  0  0  0  0  0  0  0  0  0  0
  1  2  1  0
  3  4  1  0
  3  2  1  0
  4  5  1  0
  5  6  1  1
  7  9  1  0
  7  5  1  0
  8  7  2  0
 10  9  1  0
 11 12  1  0
 10 11  1  6
 12 16  1  0
 12 13  2  0
 13 14  1  0
 14 15  1  0
 16 15  2  0
 17 19  1  0
 17 10  1  0
 18 17  2  0
 20 19  1  0
 20 26  1  0
 20 21  1  1
 22 23  1  0
 22 21  1  0
 23 24  1  0
 24 25  1  0
 26 28  1  0
 27 26  2  0
M  END
$$$$
