MHK.pdb
     RDKit          3D

 28 28  0  0  1  0  0  0  0  0999 V2000
    8.9244  -11.3138   19.5725 C   0  0  0  0  0  0  0  0  0  0  0  0
    7.2647  -12.0006   19.5836 S   0  0  0  0  0  0  0  0  0  0  0  0
    7.3120  -13.8048   19.9142 C   0  0  0  0  0  0  0  0  0  0  0  0
    8.4702  -14.3816   19.1698 C   0  0  0  0  0  0  0  0  0  0  0  0
    8.7390  -15.8065   19.4980 C   0  0  2  0  0  0  0  0  0  0  0  0
    7.9634  -16.1431   20.6947 N   0  0  0  0  0  0  0  0  0  0  0  0
   10.1414  -16.1920   19.6281 C   0  0  0  0  0  0  0  0  0  0  0  0
   10.7677  -16.8284   18.7445 O   0  0  0  0  0  0  0  0  0  0  0  0
   10.8982  -15.8576   20.7994 N   0  0  0  0  0  0  0  0  0  0  0  0
   12.3027  -16.1460   20.9674 C   0  0  1  0  0  0  0  0  0  0  0  0
   13.2205  -15.0150   20.6229 C   0  0  0  0  0  0  0  0  0  0  0  0
   13.8685  -15.0670   19.3264 C   0  0  0  0  0  0  0  0  0  0  0  0
   13.6477  -15.9078   18.2698 C   0  0  0  0  0  0  0  0  0  0  0  0
   14.5329  -15.5278   17.3119 N   0  0  0  0  0  0  0  0  0  0  0  0
   15.2706  -14.4955   17.7569 C   0  0  0  0  0  0  0  0  0  0  0  0
   14.8704  -14.2098   18.9844 N   0  0  0  0  0  0  0  0  0  0  0  0
   12.5709  -16.4672   22.4014 C   0  0  0  0  0  0  0  0  0  0  0  0
   12.2906  -15.6428   23.2850 O   0  0  0  0  0  0  0  0  0  0  0  0
   13.1402  -17.7029   22.7473 N   0  0  0  0  0  0  0  0  0  0  0  0
   13.3094  -18.1000   24.2029 C   0  0  1  0  0  0  0  0  0  0  0  0
   12.6682  -19.4293   24.2793 C   0  0  0  0  0  0  0  0  0  0  0  0
   12.6791  -20.2630   25.4733 C   0  0  0  0  0  0  0  0  0  0  0  0
   12.1053  -21.6170   25.5060 C   0  0  0  0  0  0  0  0  0  0  0  0
   12.3393  -22.3430   26.8102 C   0  0  0  0  0  0  0  0  0  0  0  0
   11.8844  -23.7097   26.6244 N   0  0  0  0  0  0  0  0  0  0  0  0
   14.7863  -18.1547   24.3261 C   0  0  0  0  0  0  0  0  0  0  0  0
   15.4345  -18.1760   25.3907 O   0  0  0  0  0  0  0  0  0  0  0  0
   15.6208  -18.1892   23.1723 O   0  0  0  0  0  0  0  0  0  0  0  0
  1  2  1  0
  3  4  1  0
  3  2  1  0
  4  5  1  0
  5  6  1  1
  7  9  1  0
  7  5  1  0
  8  7  2  0
 10  9  1  0
 11 12  1  0
 10 11  1  1
 12 16  1  0
 12 13  2  0
 13 14  1  0
 14 15  1  0
 16 15  2  0
 17 19  1  0
 17 10  1  0
 18 17  2  0
 20 19  1  0
 20 26  1  0
 20 21  1  6
 22 23  1  0
 22 21  1  0
 23 24  1  0
 24 25  1  0
 26 28  1  0
 27 26  2  0
M  END
$$$$
