MHK.pdb
     RDKit          3D

 28 28  0  0  1  0  0  0  0  0999 V2000
    7.4654  -11.6954   19.5697 C   0  0  0  0  0  0  0  0  0  0  0  0
    7.1669  -12.9008   18.2718 S   0  0  0  0  0  0  0  0  0  0  0  0
    7.8078  -14.5497   18.7587 C   0  0  0  0  0  0  0  0  0  0  0  0
    7.8695  -14.6007   20.2493 C   0  0  0  0  0  0  0  0  0  0  0  0
    8.5150  -15.8316   20.7768 C   0  0  2  0  0  0  0  0  0  0  0  0
    8.2418  -16.9187   19.8331 N   0  0  0  0  0  0  0  0  0  0  0  0
    8.1856  -16.2030   22.1501 C   0  0  0  0  0  0  0  0  0  0  0  0
    7.9382  -15.3644   23.0521 O   0  0  0  0  0  0  0  0  0  0  0  0
    8.1254  -17.5777   22.5538 N   0  0  0  0  0  0  0  0  0  0  0  0
    7.7674  -18.0184   23.8812 C   0  0  1  0  0  0  0  0  0  0  0  0
    7.9441  -19.4848   24.1238 C   0  0  0  0  0  0  0  0  0  0  0  0
    7.4225  -20.0114   25.3704 C   0  0  0  0  0  0  0  0  0  0  0  0
    6.7244  -19.3808   26.3638 C   0  0  0  0  0  0  0  0  0  0  0  0
    6.4909  -20.3328   27.3045 N   0  0  0  0  0  0  0  0  0  0  0  0
    7.0222  -21.5031   26.9100 C   0  0  0  0  0  0  0  0  0  0  0  0
    7.5917  -21.3138   25.7315 N   0  0  0  0  0  0  0  0  0  0  0  0
    8.6404  -17.3312   24.8798 C   0  0  0  0  0  0  0  0  0  0  0  0
    9.8736  -17.3552   24.7467 O   0  0  0  0  0  0  0  0  0  0  0  0
    8.0633  -16.6584   25.9683 N   0  0  0  0  0  0  0  0  0  0  0  0
    8.8856  -15.7051   26.8169 C   0  0  1  0  0  0  0  0  0  0  0  0
    7.9483  -14.6007   27.1097 C   0  0  0  0  0  0  0  0  0  0  0  0
    7.8442  -13.3947   26.3002 C   0  0  0  0  0  0  0  0  0  0  0  0
    6.8584  -12.3364   26.5687 C   0  0  0  0  0  0  0  0  0  0  0  0
    6.9271  -11.1831   25.5951 C   0  0  0  0  0  0  0  0  0  0  0  0
    5.9111  -10.2259   25.9963 N   0  0  0  0  0  0  0  0  0  0  0  0
    9.1874  -16.5460   28.0006 C   0  0  0  0  0  0  0  0  0  0  0  0
    9.9356  -16.2383   28.9490 O   0  0  0  0  0  0  0  0  0  0  0  0
    8.6121  -17.8403   28.1504 O   0  0  0  0  0  0  0  0  0  0  0  0
  1  2  1  0
  3  4  1  0
  3  2  1  0
  4  5  1  0
  5  6  1  6
  7  9  1  0
  7  5  1  0
  8  7  2  0
 10  9  1  0
 11 12  1  0
 10 11  1  6
 12 16  1  0
 12 13  2  0
 13 14  1  0
 14 15  1  0
 16 15  2  0
 17 19  1  0
 17 10  1  0
 18 17  2  0
 20 19  1  0
 20 26  1  0
 20 21  1  1
 22 23  1  0
 22 21  1  0
 23 24  1  0
 24 25  1  0
 26 28  1  0
 27 26  2  0
M  END
$$$$
