MHK.pdb
     RDKit          3D

 28 28  0  0  1  0  0  0  0  0999 V2000
    5.7270  -10.2861   27.3563 C   0  0  0  0  0  0  0  0  0  0  0  0
    6.2369  -11.9949   27.1411 S   0  0  0  0  0  0  0  0  0  0  0  0
    5.8265  -12.5861   25.4532 C   0  0  0  0  0  0  0  0  0  0  0  0
    6.2636  -14.0091   25.3420 C   0  0  0  0  0  0  0  0  0  0  0  0
    7.7112  -14.1657   25.0423 C   0  0  2  0  0  0  0  0  0  0  0  0
    8.0546  -13.2101   23.9860 N   0  0  0  0  0  0  0  0  0  0  0  0
    8.1695  -15.5163   24.7289 C   0  0  0  0  0  0  0  0  0  0  0  0
    7.7883  -16.5374   25.3533 O   0  0  0  0  0  0  0  0  0  0  0  0
    9.1020  -15.7565   23.6662 N   0  0  0  0  0  0  0  0  0  0  0  0
    9.6390  -17.0553   23.3364 C   0  0  1  0  0  0  0  0  0  0  0  0
   10.1387  -17.1888   21.9318 C   0  0  0  0  0  0  0  0  0  0  0  0
    9.1971  -16.8927   20.8692 C   0  0  0  0  0  0  0  0  0  0  0  0
    7.8333  -17.0008   20.8520 C   0  0  0  0  0  0  0  0  0  0  0  0
    7.4530  -16.6043   19.6095 N   0  0  0  0  0  0  0  0  0  0  0  0
    8.5358  -16.2654   18.8881 C   0  0  0  0  0  0  0  0  0  0  0  0
    9.6023  -16.4390   19.6505 N   0  0  0  0  0  0  0  0  0  0  0  0
   10.8123  -17.3403   24.2160 C   0  0  0  0  0  0  0  0  0  0  0  0
   11.7075  -16.4920   24.3509 O   0  0  0  0  0  0  0  0  0  0  0  0
   10.9002  -18.5688   24.8895 N   0  0  0  0  0  0  0  0  0  0  0  0
   11.9600  -18.7981   25.9521 C   0  0  1  0  0  0  0  0  0  0  0  0
   11.3266  -19.7632   26.8749 C   0  0  0  0  0  0  0  0  0  0  0  0
   11.8617  -20.0944   28.1882 C   0  0  0  0  0  0  0  0  0  0  0  0
   11.2574  -21.1113   29.0625 C   0  0  0  0  0  0  0  0  0  0  0  0
   11.9361  -21.2356   30.4066 C   0  0  0  0  0  0  0  0  0  0  0  0
   11.1509  -22.1685   31.1956 N   0  0  0  0  0  0  0  0  0  0  0  0
   13.0601  -19.3890   25.1521 C   0  0  0  0  0  0  0  0  0  0  0  0
   12.9312  -20.0734   24.1183 O   0  0  0  0  0  0  0  0  0  0  0  0
   14.4223  -19.2077   25.5264 O   0  0  0  0  0  0  0  0  0  0  0  0
  1  2  1  0
  3  4  1  0
  3  2  1  0
  4  5  1  0
  5  6  1  6
  7  9  1  0
  7  5  1  0
  8  7  2  0
 10  9  1  0
 11 12  1  0
 10 11  1  6
 12 16  1  0
 12 13  2  0
 13 14  1  0
 14 15  1  0
 16 15  2  0
 17 19  1  0
 17 10  1  0
 18 17  2  0
 20 19  1  0
 20 26  1  0
 20 21  1  1
 22 23  1  0
 22 21  1  0
 23 24  1  0
 24 25  1  0
 26 28  1  0
 27 26  2  0
M  END
$$$$
