MHK.pdb
     RDKit          3D

 28 28  0  0  1  0  0  0  0  0999 V2000
    7.8891  -11.6144   20.9029 C   0  0  0  0  0  0  0  0  0  0  0  0
    7.8599  -11.6531   19.1073 S   0  0  0  0  0  0  0  0  0  0  0  0
    8.5336  -13.2413   18.4822 C   0  0  0  0  0  0  0  0  0  0  0  0
    8.4448  -14.2467   19.5821 C   0  0  0  0  0  0  0  0  0  0  0  0
    9.1159  -15.5351   19.2666 C   0  0  2  0  0  0  0  0  0  0  0  0
    8.4878  -16.0826   18.0613 N   0  0  0  0  0  0  0  0  0  0  0  0
    9.1801  -16.5177   20.3450 C   0  0  0  0  0  0  0  0  0  0  0  0
    8.1860  -17.1771   20.7387 O   0  0  0  0  0  0  0  0  0  0  0  0
   10.4103  -16.7898   21.0299 N   0  0  0  0  0  0  0  0  0  0  0  0
   10.5386  -17.7162   22.1296 C   0  0  1  0  0  0  0  0  0  0  0  0
   11.6721  -18.6856   22.0036 C   0  0  0  0  0  0  0  0  0  0  0  0
   11.5875  -19.6586   20.9314 C   0  0  0  0  0  0  0  0  0  0  0  0
   12.3112  -19.7519   19.7740 C   0  0  0  0  0  0  0  0  0  0  0  0
   11.8206  -20.8401   19.1254 N   0  0  0  0  0  0  0  0  0  0  0  0
   10.8347  -21.3967   19.8507 C   0  0  0  0  0  0  0  0  0  0  0  0
   10.6878  -20.6811   20.9529 N   0  0  0  0  0  0  0  0  0  0  0  0
   10.7921  -16.9532   23.3886 C   0  0  0  0  0  0  0  0  0  0  0  0
   11.7946  -16.2288   23.4842 O   0  0  0  0  0  0  0  0  0  0  0  0
    9.8942  -17.0569   24.4627 N   0  0  0  0  0  0  0  0  0  0  0  0
   10.1802  -16.3657   25.7838 C   0  0  1  0  0  0  0  0  0  0  0  0
    8.9119  -15.6758   26.0990 C   0  0  0  0  0  0  0  0  0  0  0  0
    8.6366  -14.2907   25.7430 C   0  0  0  0  0  0  0  0  0  0  0  0
    7.3562  -13.6303   26.0396 C   0  0  0  0  0  0  0  0  0  0  0  0
    7.2995  -12.1888   25.5906 C   0  0  0  0  0  0  0  0  0  0  0  0
    5.9711  -11.6954   25.9091 N   0  0  0  0  0  0  0  0  0  0  0  0
   10.4535  -17.5221   26.6712 C   0  0  0  0  0  0  0  0  0  0  0  0
   10.0789  -18.6962   26.4845 O   0  0  0  0  0  0  0  0  0  0  0  0
   11.2072  -17.3684   27.8700 O   0  0  0  0  0  0  0  0  0  0  0  0
  1  2  1  0
  3  4  1  0
  3  2  1  0
  4  5  1  0
  5  6  1  6
  7  9  1  0
  7  5  1  0
  8  7  2  0
 10  9  1  0
 11 12  1  0
 10 11  1  6
 12 16  1  0
 12 13  2  0
 13 14  1  0
 14 15  1  0
 16 15  2  0
 17 19  1  0
 17 10  1  0
 18 17  2  0
 20 19  1  0
 20 26  1  0
 20 21  1  1
 22 23  1  0
 22 21  1  0
 23 24  1  0
 24 25  1  0
 26 28  1  0
 27 26  2  0
M  END
$$$$
