MHK.pdb
     RDKit          3D

 28 28  0  0  1  0  0  0  0  0999 V2000
    8.5793  -11.7856   19.7398 C   0  0  0  0  0  0  0  0  0  0  0  0
    7.9174  -12.7390   18.3689 S   0  0  0  0  0  0  0  0  0  0  0  0
    8.1670  -14.5353   18.6484 C   0  0  0  0  0  0  0  0  0  0  0  0
    7.7056  -14.8571   20.0311 C   0  0  0  0  0  0  0  0  0  0  0  0
    8.7457  -15.5099   20.8690 C   0  0  2  0  0  0  0  0  0  0  0  0
    9.2737  -16.6512   20.1169 N   0  0  0  0  0  0  0  0  0  0  0  0
    8.3510  -15.8829   22.2245 C   0  0  0  0  0  0  0  0  0  0  0  0
    7.7492  -15.1063   23.0072 O   0  0  0  0  0  0  0  0  0  0  0  0
    8.6359  -17.1869   22.7489 N   0  0  0  0  0  0  0  0  0  0  0  0
    8.3493  -17.5970   24.1031 C   0  0  1  0  0  0  0  0  0  0  0  0
    8.6376  -19.0361   24.3966 C   0  0  0  0  0  0  0  0  0  0  0  0
    8.1991  -19.5445   25.6822 C   0  0  0  0  0  0  0  0  0  0  0  0
    7.4205  -18.9526   26.6389 C   0  0  0  0  0  0  0  0  0  0  0  0
    7.3271  -19.8612   27.6447 N   0  0  0  0  0  0  0  0  0  0  0  0
    8.0188  -20.9686   27.3239 C   0  0  0  0  0  0  0  0  0  0  0  0
    8.5528  -20.7818   26.1286 N   0  0  0  0  0  0  0  0  0  0  0  0
    9.1996  -16.8098   25.0459 C   0  0  0  0  0  0  0  0  0  0  0  0
   10.3929  -16.6009   24.7786 O   0  0  0  0  0  0  0  0  0  0  0  0
    8.6463  -16.3068   26.2339 N   0  0  0  0  0  0  0  0  0  0  0  0
    9.4811  -15.4692   27.1860 C   0  0  1  0  0  0  0  0  0  0  0  0
    8.5681  -14.3773   27.5834 C   0  0  0  0  0  0  0  0  0  0  0  0
    8.0844  -13.3555   26.6654 C   0  0  0  0  0  0  0  0  0  0  0  0
    7.1645  -12.2840   27.0772 C   0  0  0  0  0  0  0  0  0  0  0  0
    6.7239  -11.3931   25.9394 C   0  0  0  0  0  0  0  0  0  0  0  0
    5.7187  -10.4894   26.4708 N   0  0  0  0  0  0  0  0  0  0  0  0
    9.7467  -16.4367   28.2782 C   0  0  0  0  0  0  0  0  0  0  0  0
    9.1273  -17.4984   28.4860 O   0  0  0  0  0  0  0  0  0  0  0  0
   10.7879  -16.2123   29.2237 O   0  0  0  0  0  0  0  0  0  0  0  0
  1  2  1  0
  3  4  1  0
  3  2  1  0
  4  5  1  0
  5  6  1  6
  7  9  1  0
  7  5  1  0
  8  7  2  0
 10  9  1  0
 11 12  1  0
 10 11  1  6
 12 16  1  0
 12 13  2  0
 13 14  1  0
 14 15  1  0
 16 15  2  0
 17 19  1  0
 17 10  1  0
 18 17  2  0
 20 19  1  0
 20 26  1  0
 20 21  1  1
 22 23  1  0
 22 21  1  0
 23 24  1  0
 24 25  1  0
 26 28  1  0
 27 26  2  0
M  END
$$$$
