MHK.pdb
     RDKit          3D

 28 28  0  0  1  0  0  0  0  0999 V2000
    7.7639  -11.1240   26.0696 C   0  0  0  0  0  0  0  0  0  0  0  0
    6.4201  -12.1813   26.6199 S   0  0  0  0  0  0  0  0  0  0  0  0
    5.7665  -13.1779   25.2246 C   0  0  0  0  0  0  0  0  0  0  0  0
    6.2612  -14.5773   25.3836 C   0  0  0  0  0  0  0  0  0  0  0  0
    7.6641  -14.7681   24.9303 C   0  0  2  0  0  0  0  0  0  0  0  0
    7.7840  -14.1849   23.5914 N   0  0  0  0  0  0  0  0  0  0  0  0
    8.1863  -16.1307   24.9827 C   0  0  0  0  0  0  0  0  0  0  0  0
    8.0130  -16.8998   25.9606 O   0  0  0  0  0  0  0  0  0  0  0  0
    8.9438  -16.6784   23.8951 N   0  0  0  0  0  0  0  0  0  0  0  0
    9.4896  -18.0148   23.8786 C   0  0  1  0  0  0  0  0  0  0  0  0
    9.7375  -18.5739   22.5125 C   0  0  0  0  0  0  0  0  0  0  0  0
   10.0531  -19.9870   22.4289 C   0  0  0  0  0  0  0  0  0  0  0  0
    9.6558  -21.0222   23.2304 C   0  0  0  0  0  0  0  0  0  0  0  0
   10.2454  -22.1306   22.7114 N   0  0  0  0  0  0  0  0  0  0  0  0
   10.9768  -21.7955   21.6341 C   0  0  0  0  0  0  0  0  0  0  0  0
   10.8637  -20.4900   21.4566 N   0  0  0  0  0  0  0  0  0  0  0  0
   10.8159  -18.0129   24.5659 C   0  0  0  0  0  0  0  0  0  0  0  0
   11.6319  -17.1066   24.3379 O   0  0  0  0  0  0  0  0  0  0  0  0
   11.1373  -19.0377   25.4699 N   0  0  0  0  0  0  0  0  0  0  0  0
   12.4387  -19.0048   26.2509 C   0  0  1  0  0  0  0  0  0  0  0  0
   12.2823  -20.0944   27.2369 C   0  0  0  0  0  0  0  0  0  0  0  0
   11.5719  -19.9444   28.4994 C   0  0  0  0  0  0  0  0  0  0  0  0
   11.3450  -21.0649   29.4249 C   0  0  0  0  0  0  0  0  0  0  0  0
   10.4686  -20.7096   30.6032 C   0  0  0  0  0  0  0  0  0  0  0  0
   10.4007  -21.8853   31.4533 N   0  0  0  0  0  0  0  0  0  0  0  0
   13.4293  -19.3126   25.1909 C   0  0  0  0  0  0  0  0  0  0  0  0
   14.5611  -18.8039   25.0728 O   0  0  0  0  0  0  0  0  0  0  0  0
   13.1449  -20.2663   24.1719 O   0  0  0  0  0  0  0  0  0  0  0  0
  1  2  1  0
  3  4  1  0
  3  2  1  0
  4  5  1  0
  5  6  1  6
  7  9  1  0
  7  5  1  0
  8  7  2  0
 10  9  1  0
 11 12  1  0
 10 11  1  6
 12 16  1  0
 12 13  2  0
 13 14  1  0
 14 15  1  0
 16 15  2  0
 17 19  1  0
 17 10  1  0
 18 17  2  0
 20 19  1  0
 20 26  1  0
 20 21  1  1
 22 23  1  0
 22 21  1  0
 23 24  1  0
 24 25  1  0
 26 28  1  0
 27 26  2  0
M  END
$$$$
