MHK.pdb
     RDKit          3D

 28 28  0  0  1  0  0  0  0  0999 V2000
    8.6237  -11.6095   19.0748 C   0  0  0  0  0  0  0  0  0  0  0  0
    7.8504  -12.9174   18.1168 S   0  0  0  0  0  0  0  0  0  0  0  0
    8.1761  -14.5560   18.8757 C   0  0  0  0  0  0  0  0  0  0  0  0
    9.4224  -14.4494   19.6903 C   0  0  0  0  0  0  0  0  0  0  0  0
    9.6651  -15.6273   20.5643 C   0  0  2  0  0  0  0  0  0  0  0  0
    8.6331  -16.6241   20.2672 N   0  0  0  0  0  0  0  0  0  0  0  0
    9.7761  -15.3643   21.9964 C   0  0  0  0  0  0  0  0  0  0  0  0
   10.6704  -14.6390   22.4982 O   0  0  0  0  0  0  0  0  0  0  0  0
    8.8484  -15.9334   22.9303 N   0  0  0  0  0  0  0  0  0  0  0  0
    8.7404  -15.5324   24.3129 C   0  0  1  0  0  0  0  0  0  0  0  0
    7.4656  -14.8312   24.6644 C   0  0  0  0  0  0  0  0  0  0  0  0
    7.4019  -14.1995   25.9684 C   0  0  0  0  0  0  0  0  0  0  0  0
    8.1580  -13.1845   26.4879 C   0  0  0  0  0  0  0  0  0  0  0  0
    7.6872  -12.9884   27.7471 N   0  0  0  0  0  0  0  0  0  0  0  0
    6.6821  -13.8460   27.9963 C   0  0  0  0  0  0  0  0  0  0  0  0
    6.5033  -14.5871   26.9158 N   0  0  0  0  0  0  0  0  0  0  0  0
    8.7921  -16.7458   25.1826 C   0  0  0  0  0  0  0  0  0  0  0  0
    7.9407  -17.6389   25.0533 O   0  0  0  0  0  0  0  0  0  0  0  0
    9.8053  -16.8740   26.1457 N   0  0  0  0  0  0  0  0  0  0  0  0
    9.8766  -18.0987   27.0400 C   0  0  1  0  0  0  0  0  0  0  0  0
   11.2396  -18.0380   27.6079 C   0  0  0  0  0  0  0  0  0  0  0  0
   11.7319  -18.9572   28.6245 C   0  0  0  0  0  0  0  0  0  0  0  0
   13.0741  -18.8477   29.2163 C   0  0  0  0  0  0  0  0  0  0  0  0
   13.4007  -19.9582   30.1872 C   0  0  0  0  0  0  0  0  0  0  0  0
   14.6833  -19.6354   30.7876 N   0  0  0  0  0  0  0  0  0  0  0  0
    8.8152  -17.8037   28.0330 C   0  0  0  0  0  0  0  0  0  0  0  0
    8.4449  -16.6708   28.3979 O   0  0  0  0  0  0  0  0  0  0  0  0
    8.0997  -18.8520   28.6794 O   0  0  0  0  0  0  0  0  0  0  0  0
  1  2  1  0
  3  4  1  0
  3  2  1  0
  4  5  1  0
  5  6  1  1
  7  9  1  0
  7  5  1  0
  8  7  2  0
 10  9  1  0
 11 12  1  0
 10 11  1  6
 12 16  1  0
 12 13  2  0
 13 14  1  0
 14 15  1  0
 16 15  2  0
 17 19  1  0
 17 10  1  0
 18 17  2  0
 20 19  1  0
 20 26  1  0
 20 21  1  1
 22 23  1  0
 22 21  1  0
 23 24  1  0
 24 25  1  0
 26 28  1  0
 27 26  2  0
M  END
$$$$
