MHK.pdb
     RDKit          3D

 28 28  0  0  1  0  0  0  0  0999 V2000
    7.5473  -11.1359   27.4824 C   0  0  0  0  0  0  0  0  0  0  0  0
    7.0107  -12.7785   27.9728 S   0  0  0  0  0  0  0  0  0  0  0  0
    6.1823  -13.6335   26.5765 C   0  0  0  0  0  0  0  0  0  0  0  0
    7.2190  -14.3951   25.8194 C   0  0  0  0  0  0  0  0  0  0  0  0
    6.6698  -15.1786   24.6816 C   0  0  2  0  0  0  0  0  0  0  0  0
    5.7381  -16.1681   25.2291 N   0  0  0  0  0  0  0  0  0  0  0  0
    7.6433  -15.7849   23.7777 C   0  0  0  0  0  0  0  0  0  0  0  0
    7.8564  -17.0215   23.7205 O   0  0  0  0  0  0  0  0  0  0  0  0
    8.4282  -14.9827   22.8848 N   0  0  0  0  0  0  0  0  0  0  0  0
    9.4562  -15.5052   22.0163 C   0  0  1  0  0  0  0  0  0  0  0  0
    9.8127  -14.6195   20.8636 C   0  0  0  0  0  0  0  0  0  0  0  0
    8.7732  -14.3662   19.8844 C   0  0  0  0  0  0  0  0  0  0  0  0
    8.0344  -13.2361   19.6635 C   0  0  0  0  0  0  0  0  0  0  0  0
    7.1995  -13.5426   18.6366 N   0  0  0  0  0  0  0  0  0  0  0  0
    7.4125  -14.8091   18.2388 C   0  0  0  0  0  0  0  0  0  0  0  0
    8.3708  -15.3167   18.9956 N   0  0  0  0  0  0  0  0  0  0  0  0
   10.7164  -15.6848   22.7981 C   0  0  0  0  0  0  0  0  0  0  0  0
   11.2457  -14.7105   23.3547 O   0  0  0  0  0  0  0  0  0  0  0  0
   11.3002  -16.9571   22.9022 N   0  0  0  0  0  0  0  0  0  0  0  0
   12.3926  -17.2297   23.9207 C   0  0  1  0  0  0  0  0  0  0  0  0
   12.1165  -18.6108   24.3682 C   0  0  0  0  0  0  0  0  0  0  0  0
   12.5528  -19.1460   25.6504 C   0  0  0  0  0  0  0  0  0  0  0  0
   12.1861  -20.4909   26.1198 C   0  0  0  0  0  0  0  0  0  0  0  0
   12.5544  -20.7508   27.5619 C   0  0  0  0  0  0  0  0  0  0  0  0
   12.1321  -22.1054   27.8718 N   0  0  0  0  0  0  0  0  0  0  0  0
   13.6126  -17.1182   23.0849 C   0  0  0  0  0  0  0  0  0  0  0  0
   14.7730  -16.9313   23.5000 O   0  0  0  0  0  0  0  0  0  0  0  0
   13.5452  -17.2227   21.6660 O   0  0  0  0  0  0  0  0  0  0  0  0
  1  2  1  0
  3  4  1  0
  3  2  1  0
  4  5  1  0
  5  6  1  1
  7  9  1  0
  7  5  1  0
  8  7  2  0
 10  9  1  0
 11 12  1  0
 10 11  1  6
 12 16  1  0
 12 13  2  0
 13 14  1  0
 14 15  1  0
 16 15  2  0
 17 19  1  0
 17 10  1  0
 18 17  2  0
 20 19  1  0
 20 26  1  0
 20 21  1  6
 22 23  1  0
 22 21  1  0
 23 24  1  0
 24 25  1  0
 26 28  1  0
 27 26  2  0
M  END
$$$$
