RIW.pdb
     RDKit          3D

 34 35  0  0  1  0  0  0  0  0999 V2000
   17.6489  -18.8127  -14.8483 N   0  0  0  0  0  0  0  0  0  0  0  0
   18.7954  -18.1647  -14.2774 C   0  0  0  0  0  0  0  0  0  0  0  0
   18.9631  -16.9323  -14.5380 N   0  0  0  0  0  0  0  0  0  0  0  0
   19.6365  -18.9522  -13.4760 N   0  0  0  0  0  0  0  0  0  0  0  0
   19.7544  -20.3807  -13.8010 C   0  0  0  0  0  0  0  0  0  0  0  0
   21.1721  -20.7708  -13.5163 C   0  0  0  0  0  0  0  0  0  0  0  0
   22.1430  -19.7616  -14.0132 C   0  0  0  0  0  0  0  0  0  0  0  0
   23.0443  -20.1420  -15.1248 C   0  0  2  0  0  0  0  0  0  0  0  0
   22.4721  -21.1344  -15.9662 N   0  0  0  0  0  0  0  0  0  0  0  0
   24.3798  -20.5612  -14.5853 C   0  0  0  0  0  0  0  0  0  0  0  0
   24.5463  -21.7698  -14.3078 O   0  0  0  0  0  0  0  0  0  0  0  0
   19.7190  -16.3121  -14.1933 C   0  0  0  0  0  0  0  0  0  0  0  0
   29.0375  -17.7687  -15.7853 C   0  0  0  0  0  0  0  0  0  0  0  0
   28.0571  -18.9389  -15.5858 C   0  0  2  0  0  0  0  0  0  0  0  0
   27.7394  -19.0003  -14.1385 C   0  0  0  0  0  0  0  0  0  0  0  0
   29.0422  -19.3063  -13.3932 C   0  0  2  0  0  0  0  0  0  0  0  0
   26.7000  -20.0257  -13.7375 N   0  0  0  0  0  0  0  0  0  0  0  0
   25.4240  -19.6357  -14.3912 C   0  0  0  0  0  0  0  0  0  0  0  0
   26.4450  -20.0881  -12.2859 O   0  0  0  0  0  0  0  0  0  0  0  0
   25.8775  -19.1006  -11.7346 N   0  0  0  0  0  0  0  0  0  0  0  0
   26.8045  -21.2075  -11.4824 C   0  0  2  0  0  0  0  0  0  0  0  0
   26.5991  -21.2059  -10.0351 C   0  0  0  0  0  0  0  0  0  0  0  0
   27.6200  -20.3444   -9.3608 C   0  0  0  0  0  0  0  0  0  0  0  0
   27.4052  -20.2331   -7.9114 C   0  0  0  0  0  0  0  0  0  0  0  0
   26.1758  -20.2270   -7.2390 N   0  0  0  0  0  0  0  0  0  0  0  0
   26.3840  -20.0757   -5.9225 C   0  0  0  0  0  0  0  0  0  0  0  0
   27.7191  -19.9776   -5.6615 C   0  0  0  0  0  0  0  0  0  0  0  0
   28.4179  -19.8310   -4.4837 C   0  0  0  0  0  0  0  0  0  0  0  0
   29.7904  -19.7767   -4.4877 C   0  0  0  0  0  0  0  0  0  0  0  0
   30.4137  -19.8756   -5.7118 C   0  0  0  0  0  0  0  0  0  0  0  0
   29.7188  -20.0214   -6.8879 C   0  0  0  0  0  0  0  0  0  0  0  0
   28.3412  -20.0755   -6.8894 C   0  0  0  0  0  0  0  0  0  0  0  0
   25.2074  -21.0211   -9.6765 O   0  0  0  0  0  0  0  0  0  0  0  0
   24.6890  -21.7249   -8.7709 O   0  0  0  0  0  0  0  0  0  0  0  0
  1  2  1  0
  2  3  2  0
  4  5  1  0
  4  2  1  0
  6  5  1  0
  7  6  1  0
  8  7  1  0
  8  9  1  1
 10  8  1  0
 11 10  2  0
 12 13  1  0
 13 14  1  0
 14 16  1  0
 14 15  1  1
 16 18  1  0
 16 17  1  6
 17 10  1  0
 18 20  1  0
 19 18  2  0
 21 20  1  0
 21 32  1  0
 21 22  1  6
 23 22  1  0
 23 24  2  0
 25 24  1  0
 26 25  1  0
 27 26  2  0
 28 29  2  0
 28 27  1  0
 29 30  1  0
 30 31  2  0
 31 26  1  0
 31 23  1  0
 32 33  2  0
 32 34  1  0
M  END
$$$$
