RIW.pdb
     RDKit          3D

 34 35  0  0  1  0  0  0  0  0999 V2000
   23.3794  -20.4453  -17.5257 N   0  0  0  0  0  0  0  0  0  0  0  0
   22.8409  -20.7801  -18.8134 C   0  0  0  0  0  0  0  0  0  0  0  0
   22.2931  -19.8477  -19.4807 N   0  0  0  0  0  0  0  0  0  0  0  0
   22.9670  -22.1155  -19.2269 N   0  0  0  0  0  0  0  0  0  0  0  0
   23.8910  -22.9810  -18.4806 C   0  0  0  0  0  0  0  0  0  0  0  0
   23.0922  -23.6214  -17.3875 C   0  0  0  0  0  0  0  0  0  0  0  0
   23.9434  -24.4042  -16.4544 C   0  0  0  0  0  0  0  0  0  0  0  0
   25.4069  -24.4147  -16.6799 C   0  0  2  0  0  0  0  0  0  0  0  0
   25.9136  -25.7297  -16.8648 N   0  0  0  0  0  0  0  0  0  0  0  0
   26.1053  -23.6922  -15.5662 C   0  0  0  0  0  0  0  0  0  0  0  0
   26.5525  -24.3726  -14.6162 O   0  0  0  0  0  0  0  0  0  0  0  0
   21.8333  -19.9213  -20.4070 C   0  0  0  0  0  0  0  0  0  0  0  0
   28.4756  -18.0720  -14.7786 C   0  0  0  0  0  0  0  0  0  0  0  0
   27.9915  -19.3131  -14.0070 C   0  0  2  0  0  0  0  0  0  0  0  0
   27.3704  -20.2272  -14.9961 C   0  0  0  0  0  0  0  0  0  0  0  0
   26.1451  -19.5143  -15.5765 C   0  0  2  0  0  0  0  0  0  0  0  0
   26.9375  -21.5763  -14.4619 N   0  0  0  0  0  0  0  0  0  0  0  0
   26.2611  -22.2921  -15.5745 C   0  0  0  0  0  0  0  0  0  0  0  0
   25.9777  -21.5012  -13.3443 O   0  0  0  0  0  0  0  0  0  0  0  0
   24.7463  -21.4021  -13.6180 N   0  0  0  0  0  0  0  0  0  0  0  0
   26.3743  -21.5391  -11.9771 C   0  0  2  0  0  0  0  0  0  0  0  0
   25.3903  -21.5291  -10.8961 C   0  0  0  0  0  0  0  0  0  0  0  0
   26.0264  -21.9332   -9.6033 C   0  0  0  0  0  0  0  0  0  0  0  0
   26.4175  -20.7835   -8.7759 C   0  0  0  0  0  0  0  0  0  0  0  0
   25.5958  -19.7301   -8.3532 N   0  0  0  0  0  0  0  0  0  0  0  0
   26.3193  -18.8527   -7.6419 C   0  0  0  0  0  0  0  0  0  0  0  0
   27.6166  -19.2656   -7.5577 C   0  0  0  0  0  0  0  0  0  0  0  0
   28.7163  -18.7218   -6.9316 C   0  0  0  0  0  0  0  0  0  0  0  0
   29.9333  -19.3569   -6.9804 C   0  0  0  0  0  0  0  0  0  0  0  0
   29.9885  -20.5438   -7.6767 C   0  0  0  0  0  0  0  0  0  0  0  0
   28.8931  -21.0879   -8.3024 C   0  0  0  0  0  0  0  0  0  0  0  0
   27.6696  -20.4539   -8.2571 C   0  0  0  0  0  0  0  0  0  0  0  0
   24.5708  -20.3343  -10.9083 O   0  0  0  0  0  0  0  0  0  0  0  0
   25.0656  -19.2317  -11.2601 O   0  0  0  0  0  0  0  0  0  0  0  0
  1  2  1  0
  2  3  2  0
  4  5  1  0
  4  2  1  0
  6  5  1  0
  7  6  1  0
  8  7  1  0
  8  9  1  1
 10  8  1  0
 11 10  2  0
 12 13  1  0
 13 14  1  0
 14 16  1  0
 14 15  1  6
 16 18  1  0
 16 17  1  1
 17 10  1  0
 18 20  1  0
 19 18  2  0
 21 20  1  0
 21 32  1  0
 21 22  1  6
 23 22  1  0
 23 24  2  0
 25 24  1  0
 26 25  1  0
 27 26  2  0
 28 29  2  0
 28 27  1  0
 29 30  1  0
 30 31  2  0
 31 26  1  0
 31 23  1  0
 32 33  2  0
 32 34  1  0
M  END
$$$$
