RIW.pdb
     RDKit          3D

 34 35  0  0  1  0  0  0  0  0999 V2000
   32.4118  -24.5564  -17.4715 N   0  0  0  0  0  0  0  0  0  0  0  0
   32.1062  -24.8134  -16.0928 C   0  0  0  0  0  0  0  0  0  0  0  0
   33.0749  -25.0934  -15.3195 N   0  0  0  0  0  0  0  0  0  0  0  0
   30.7567  -24.7324  -15.7156 N   0  0  0  0  0  0  0  0  0  0  0  0
   29.9662  -23.6055  -16.2306 C   0  0  0  0  0  0  0  0  0  0  0  0
   30.3343  -22.4102  -15.4069 C   0  0  0  0  0  0  0  0  0  0  0  0
   29.4896  -21.2290  -15.7224 C   0  0  0  0  0  0  0  0  0  0  0  0
   28.0410  -21.4407  -15.9444 C   0  0  2  0  0  0  0  0  0  0  0  0
   27.6357  -21.0607  -17.2527 N   0  0  0  0  0  0  0  0  0  0  0  0
   27.2485  -20.7383  -14.8819 C   0  0  0  0  0  0  0  0  0  0  0  0
   27.2816  -19.4878  -14.8568 O   0  0  0  0  0  0  0  0  0  0  0  0
   33.0303  -25.3158  -14.3078 C   0  0  0  0  0  0  0  0  0  0  0  0
   22.2893  -20.7934  -14.7534 C   0  0  0  0  0  0  0  0  0  0  0  0
   23.7611  -20.3874  -14.5551 C   0  0  2  0  0  0  0  0  0  0  0  0
   24.2104  -20.9861  -13.2748 C   0  0  0  0  0  0  0  0  0  0  0  0
   23.3299  -20.4089  -12.1621 C   0  0  2  0  0  0  0  0  0  0  0  0
   25.6621  -20.7514  -12.9141 N   0  0  0  0  0  0  0  0  0  0  0  0
   26.4861  -21.4496  -13.9346 C   0  0  0  0  0  0  0  0  0  0  0  0
   26.0497  -21.2910  -11.5971 O   0  0  0  0  0  0  0  0  0  0  0  0
   26.9460  -22.1832  -11.5556 N   0  0  0  0  0  0  0  0  0  0  0  0
   25.4646  -20.8510  -10.3756 C   0  0  1  0  0  0  0  0  0  0  0  0
   25.9421  -21.3362   -9.0820 C   0  0  0  0  0  0  0  0  0  0  0  0
   27.4286  -21.1952   -8.9844 C   0  0  0  0  0  0  0  0  0  0  0  0
   27.8450  -20.2575   -7.9324 C   0  0  0  0  0  0  0  0  0  0  0  0
   27.4223  -18.9316   -7.7688 N   0  0  0  0  0  0  0  0  0  0  0  0
   28.0477  -18.3869   -6.7145 C   0  0  0  0  0  0  0  0  0  0  0  0
   28.8898  -19.2941   -6.1418 C   0  0  0  0  0  0  0  0  0  0  0  0
   29.7213  -19.2142   -5.0466 C   0  0  0  0  0  0  0  0  0  0  0  0
   30.4674  -20.2989   -4.6551 C   0  0  0  0  0  0  0  0  0  0  0  0
   30.3384  -21.4466   -5.4052 C   0  0  0  0  0  0  0  0  0  0  0  0
   29.5102  -21.5286   -6.4983 C   0  0  0  0  0  0  0  0  0  0  0  0
   28.7598  -20.4425   -6.8959 C   0  0  0  0  0  0  0  0  0  0  0  0
   25.1374  -20.8491   -7.9799 O   0  0  0  0  0  0  0  0  0  0  0  0
   24.4778  -19.7840   -8.1009 O   0  0  0  0  0  0  0  0  0  0  0  0
  1  2  1  0
  2  3  2  0
  4  5  1  0
  4  2  1  0
  6  5  1  0
  7  6  1  0
  8  7  1  0
  8  9  1  6
 10  8  1  0
 11 10  2  0
 12 13  1  0
 13 14  1  0
 14 16  1  0
 14 15  1  1
 16 18  1  0
 16 17  1  1
 17 10  1  0
 18 20  1  0
 19 18  2  0
 21 20  1  0
 21 32  1  0
 21 22  1  1
 23 22  1  0
 23 24  2  0
 25 24  1  0
 26 25  1  0
 27 26  2  0
 28 29  2  0
 28 27  1  0
 29 30  1  0
 30 31  2  0
 31 26  1  0
 31 23  1  0
 32 33  2  0
 32 34  1  0
M  END
$$$$
