RIW.pdb
     RDKit          3D

 34 35  0  0  1  0  0  0  0  0999 V2000
   32.5397  -25.4606  -15.3610 N   0  0  0  0  0  0  0  0  0  0  0  0
   32.0742  -25.4071  -16.7177 C   0  0  0  0  0  0  0  0  0  0  0  0
   32.0893  -26.4878  -17.3861 N   0  0  0  0  0  0  0  0  0  0  0  0
   31.6400  -24.1593  -17.1914 N   0  0  0  0  0  0  0  0  0  0  0  0
   31.6125  -23.0366  -16.2434 C   0  0  0  0  0  0  0  0  0  0  0  0
   30.3562  -22.2702  -16.5209 C   0  0  0  0  0  0  0  0  0  0  0  0
   29.1702  -22.8790  -15.8644 C   0  0  0  0  0  0  0  0  0  0  0  0
   27.8320  -22.3320  -16.1851 C   0  0  2  0  0  0  0  0  0  0  0  0
   27.7901  -21.7324  -17.4731 N   0  0  0  0  0  0  0  0  0  0  0  0
   27.3898  -21.3865  -15.1077 C   0  0  0  0  0  0  0  0  0  0  0  0
   27.9227  -20.2552  -15.0662 O   0  0  0  0  0  0  0  0  0  0  0  0
   31.7799  -26.6277  -18.3657 C   0  0  0  0  0  0  0  0  0  0  0  0
   22.1478  -19.5594  -13.5176 C   0  0  0  0  0  0  0  0  0  0  0  0
   23.5541  -19.6060  -12.8927 C   0  0  2  0  0  0  0  0  0  0  0  0
   24.3482  -20.5824  -13.6773 C   0  0  0  0  0  0  0  0  0  0  0  0
   23.6517  -21.9418  -13.5613 C   0  0  2  0  0  0  0  0  0  0  0  0
   25.7940  -20.7418  -13.2565 N   0  0  0  0  0  0  0  0  0  0  0  0
   26.4069  -21.7456  -14.1645 C   0  0  0  0  0  0  0  0  0  0  0  0
   25.9685  -21.2368  -11.8780 O   0  0  0  0  0  0  0  0  0  0  0  0
   26.2200  -22.4655  -11.7102 N   0  0  0  0  0  0  0  0  0  0  0  0
   25.8706  -20.3954  -10.7333 C   0  0  1  0  0  0  0  0  0  0  0  0
   26.0035  -20.9299   -9.3792 C   0  0  0  0  0  0  0  0  0  0  0  0
   27.2844  -20.4705   -8.7568 C   0  0  0  0  0  0  0  0  0  0  0  0
   27.1968  -20.3479   -7.2951 C   0  0  0  0  0  0  0  0  0  0  0  0
   26.0682  -20.5738   -6.4959 N   0  0  0  0  0  0  0  0  0  0  0  0
   26.3697  -20.3283   -5.2121 C   0  0  0  0  0  0  0  0  0  0  0  0
   27.6721  -19.9402   -5.0965 C   0  0  0  0  0  0  0  0  0  0  0  0
   28.4375  -19.6015   -4.0027 C   0  0  0  0  0  0  0  0  0  0  0  0
   29.7592  -19.2592   -4.1536 C   0  0  0  0  0  0  0  0  0  0  0  0
   30.2636  -19.2743   -5.4351 C   0  0  0  0  0  0  0  0  0  0  0  0
   29.5020  -19.6113   -6.5276 C   0  0  0  0  0  0  0  0  0  0  0  0
   28.1748  -19.9548   -6.3815 C   0  0  0  0  0  0  0  0  0  0  0  0
   24.7836  -20.7907   -8.6099 O   0  0  0  0  0  0  0  0  0  0  0  0
   24.6446  -21.4160   -7.5264 O   0  0  0  0  0  0  0  0  0  0  0  0
  1  2  1  0
  2  3  2  0
  4  5  1  0
  4  2  1  0
  6  5  1  0
  7  6  1  0
  8  7  1  0
  8  9  1  6
 10  8  1  0
 11 10  2  0
 12 13  1  0
 13 14  1  0
 14 16  1  0
 14 15  1  6
 16 18  1  0
 16 17  1  1
 17 10  1  0
 18 20  1  0
 19 18  2  0
 21 20  1  0
 21 32  1  0
 21 22  1  1
 23 22  1  0
 23 24  2  0
 25 24  1  0
 26 25  1  0
 27 26  2  0
 28 29  2  0
 28 27  1  0
 29 30  1  0
 30 31  2  0
 31 26  1  0
 31 23  1  0
 32 33  2  0
 32 34  1  0
M  END
$$$$
