RIW.pdb
     RDKit          3D

 34 35  0  0  1  0  0  0  0  0999 V2000
   26.7388  -22.3787  -20.2825 N   0  0  0  0  0  0  0  0  0  0  0  0
   27.9521  -21.7909  -20.7749 C   0  0  0  0  0  0  0  0  0  0  0  0
   28.1387  -21.7965  -22.0319 N   0  0  0  0  0  0  0  0  0  0  0  0
   28.8322  -21.2574  -19.8206 N   0  0  0  0  0  0  0  0  0  0  0  0
   28.4866  -21.4194  -18.4014 C   0  0  0  0  0  0  0  0  0  0  0  0
   27.8625  -20.1313  -17.9610 C   0  0  0  0  0  0  0  0  0  0  0  0
   27.1794  -20.2583  -16.6474 C   0  0  0  0  0  0  0  0  0  0  0  0
   27.8815  -20.9729  -15.5569 C   0  0  2  0  0  0  0  0  0  0  0  0
   28.7879  -21.9504  -16.0502 N   0  0  0  0  0  0  0  0  0  0  0  0
   26.8860  -21.5585  -14.5997 C   0  0  0  0  0  0  0  0  0  0  0  0
   26.5011  -22.7320  -14.7998 O   0  0  0  0  0  0  0  0  0  0  0  0
   28.9823  -21.4812  -22.5456 C   0  0  0  0  0  0  0  0  0  0  0  0
   27.4036  -20.8628   -9.2991 C   0  0  0  0  0  0  0  0  0  0  0  0
   27.1400  -21.4948  -10.6780 C   0  0  2  0  0  0  0  0  0  0  0  0
   25.8399  -20.9673  -11.1586 C   0  0  0  0  0  0  0  0  0  0  0  0
   24.7661  -21.4067  -10.1584 C   0  0  2  0  0  0  0  0  0  0  0  0
   25.4222  -21.4131  -12.5441 N   0  0  0  0  0  0  0  0  0  0  0  0
   26.3901  -20.8234  -13.5050 C   0  0  0  0  0  0  0  0  0  0  0  0
   24.0778  -20.9562  -12.9435 O   0  0  0  0  0  0  0  0  0  0  0  0
   23.8317  -19.7155  -12.9075 N   0  0  0  0  0  0  0  0  0  0  0  0
   23.0507  -21.8458  -13.3696 C   0  0  2  0  0  0  0  0  0  0  0  0
   21.7161  -21.3609  -13.7167 C   0  0  0  0  0  0  0  0  0  0  0  0
   21.0037  -22.3555  -14.5783 C   0  0  0  0  0  0  0  0  0  0  0  0
   19.6762  -21.8928  -15.0059 C   0  0  0  0  0  0  0  0  0  0  0  0
   19.3622  -21.2061  -16.1863 N   0  0  0  0  0  0  0  0  0  0  0  0
   18.0508  -20.9246  -16.2077 C   0  0  0  0  0  0  0  0  0  0  0  0
   17.4461  -21.3955  -15.0795 C   0  0  0  0  0  0  0  0  0  0  0  0
   16.1353  -21.3660  -14.6575 C   0  0  0  0  0  0  0  0  0  0  0  0
   15.7723  -21.9412  -13.4641 C   0  0  0  0  0  0  0  0  0  0  0  0
   16.7739  -22.5364  -12.7299 C   0  0  0  0  0  0  0  0  0  0  0  0
   18.0821  -22.5666  -13.1484 C   0  0  0  0  0  0  0  0  0  0  0  0
   18.4517  -21.9901  -14.3450 C   0  0  0  0  0  0  0  0  0  0  0  0
   21.0106  -20.8224  -12.5714 O   0  0  0  0  0  0  0  0  0  0  0  0
   21.1282  -21.3672  -11.4428 O   0  0  0  0  0  0  0  0  0  0  0  0
  1  2  1  0
  2  3  2  0
  4  5  1  0
  4  2  1  0
  6  5  1  0
  7  6  1  0
  8  7  1  0
  8  9  1  6
 10  8  1  0
 11 10  2  0
 12 13  1  0
 13 14  1  0
 14 16  1  0
 14 15  1  6
 16 18  1  0
 16 17  1  6
 17 10  1  0
 18 20  1  0
 19 18  2  0
 21 20  1  0
 21 32  1  0
 21 22  1  1
 23 22  1  0
 23 24  2  0
 25 24  1  0
 26 25  1  0
 27 26  2  0
 28 29  2  0
 28 27  1  0
 29 30  1  0
 30 31  2  0
 31 26  1  0
 31 23  1  0
 32 33  2  0
 32 34  1  0
M  END
$$$$
