RIW.pdb
     RDKit          3D

 34 35  0  0  1  0  0  0  0  0999 V2000
   29.8127  -17.8816  -18.6828 N   0  0  0  0  0  0  0  0  0  0  0  0
   28.7011  -18.7832  -18.7900 C   0  0  0  0  0  0  0  0  0  0  0  0
   28.1106  -18.8556  -19.9128 N   0  0  0  0  0  0  0  0  0  0  0  0
   28.3607  -19.5114  -17.6393 N   0  0  0  0  0  0  0  0  0  0  0  0
   29.0831  -19.2078  -16.3960 C   0  0  0  0  0  0  0  0  0  0  0  0
   28.1629  -18.3769  -15.5559 C   0  0  0  0  0  0  0  0  0  0  0  0
   27.2372  -19.2096  -14.7448 C   0  0  0  0  0  0  0  0  0  0  0  0
   27.7820  -20.4080  -14.0668 C   0  0  2  0  0  0  0  0  0  0  0  0
   28.2136  -21.3991  -14.9897 N   0  0  0  0  0  0  0  0  0  0  0  0
   26.7809  -20.9462  -13.0878 C   0  0  0  0  0  0  0  0  0  0  0  0
   25.9582  -21.7949  -13.4981 O   0  0  0  0  0  0  0  0  0  0  0  0
   27.3266  -19.4819  -20.1738 C   0  0  0  0  0  0  0  0  0  0  0  0
   27.7339  -20.2983   -7.6786 C   0  0  0  0  0  0  0  0  0  0  0  0
   27.3399  -21.0651   -8.9541 C   0  0  2  0  0  0  0  0  0  0  0  0
   26.0607  -20.4874   -9.4331 C   0  0  0  0  0  0  0  0  0  0  0  0
   24.9653  -20.9166   -8.4522 C   0  0  2  0  0  0  0  0  0  0  0  0
   25.6422  -20.8886  -10.8319 N   0  0  0  0  0  0  0  0  0  0  0  0
   26.7546  -20.5198  -11.7453 C   0  0  0  0  0  0  0  0  0  0  0  0
   24.4318  -20.2001  -11.3186 O   0  0  0  0  0  0  0  0  0  0  0  0
   24.4797  -18.9458  -11.4784 N   0  0  0  0  0  0  0  0  0  0  0  0
   23.2186  -20.8828  -11.6188 C   0  0  1  0  0  0  0  0  0  0  0  0
   22.4059  -20.5211  -12.7787 C   0  0  0  0  0  0  0  0  0  0  0  0
   23.2554  -20.4303  -14.0073 C   0  0  0  0  0  0  0  0  0  0  0  0
   22.5015  -19.9961  -15.1915 C   0  0  0  0  0  0  0  0  0  0  0  0
   21.9221  -18.7387  -15.4081 N   0  0  0  0  0  0  0  0  0  0  0  0
   21.2895  -18.7327  -16.5910 C   0  0  0  0  0  0  0  0  0  0  0  0
   21.4132  -19.9462  -17.2013 C   0  0  0  0  0  0  0  0  0  0  0  0
   20.9597  -20.4167  -18.4137 C   0  0  0  0  0  0  0  0  0  0  0  0
   21.2413  -21.6999  -18.8149 C   0  0  0  0  0  0  0  0  0  0  0  0
   21.9877  -22.4720  -17.9526 C   0  0  0  0  0  0  0  0  0  0  0  0
   22.4407  -22.0050  -16.7426 C   0  0  0  0  0  0  0  0  0  0  0  0
   22.1600  -20.7182  -16.3349 C   0  0  0  0  0  0  0  0  0  0  0  0
   21.1797  -21.2893  -12.8532 O   0  0  0  0  0  0  0  0  0  0  0  0
   21.1981  -22.5312  -12.6494 O   0  0  0  0  0  0  0  0  0  0  0  0
  1  2  1  0
  2  3  2  0
  4  5  1  0
  4  2  1  0
  6  5  1  0
  7  6  1  0
  8  7  1  0
  8  9  1  6
 10  8  1  0
 11 10  2  0
 12 13  1  0
 13 14  1  0
 14 16  1  0
 14 15  1  6
 16 18  1  0
 16 17  1  6
 17 10  1  0
 18 20  1  0
 19 18  2  0
 21 20  1  0
 21 32  1  0
 21 22  1  1
 23 22  1  0
 23 24  2  0
 25 24  1  0
 26 25  1  0
 27 26  2  0
 28 29  2  0
 28 27  1  0
 29 30  1  0
 30 31  2  0
 31 26  1  0
 31 23  1  0
 32 33  2  0
 32 34  1  0
M  END
$$$$
