RIW.pdb
     RDKit          3D

 34 35  0  0  1  0  0  0  0  0999 V2000
   30.9932  -22.3270  -18.9175 N   0  0  0  0  0  0  0  0  0  0  0  0
   29.7377  -22.3401  -19.6130 C   0  0  0  0  0  0  0  0  0  0  0  0
   29.7309  -22.7854  -20.8032 N   0  0  0  0  0  0  0  0  0  0  0  0
   28.6199  -21.8576  -18.9147 N   0  0  0  0  0  0  0  0  0  0  0  0
   28.7994  -21.4855  -17.5043 C   0  0  0  0  0  0  0  0  0  0  0  0
   28.4860  -22.7056  -16.6944 C   0  0  0  0  0  0  0  0  0  0  0  0
   27.1231  -22.6537  -16.1047 C   0  0  0  0  0  0  0  0  0  0  0  0
   26.6928  -21.4025  -15.4398 C   0  0  2  0  0  0  0  0  0  0  0  0
   27.7950  -20.6024  -15.0333 N   0  0  0  0  0  0  0  0  0  0  0  0
   25.7715  -21.7159  -14.2982 C   0  0  0  0  0  0  0  0  0  0  0  0
   24.8735  -22.5666  -14.4867 O   0  0  0  0  0  0  0  0  0  0  0  0
   28.9187  -22.8627  -21.4429 C   0  0  0  0  0  0  0  0  0  0  0  0
   27.3067  -20.7848   -9.0361 C   0  0  0  0  0  0  0  0  0  0  0  0
   26.7571  -21.5003  -10.2835 C   0  0  2  0  0  0  0  0  0  0  0  0
   25.5157  -20.7929  -10.6810 C   0  0  0  0  0  0  0  0  0  0  0  0
   24.4997  -20.9736   -9.5490 C   0  0  2  0  0  0  0  0  0  0  0  0
   24.8834  -21.2544  -11.9772 N   0  0  0  0  0  0  0  0  0  0  0  0
   25.8997  -21.0812  -13.0471 C   0  0  0  0  0  0  0  0  0  0  0  0
   23.6938  -20.4787  -12.3760 O   0  0  0  0  0  0  0  0  0  0  0  0
   23.8423  -19.2518  -12.6474 N   0  0  0  0  0  0  0  0  0  0  0  0
   22.3923  -21.0487  -12.4723 C   0  0  1  0  0  0  0  0  0  0  0  0
   21.3862  -20.5051  -13.3828 C   0  0  0  0  0  0  0  0  0  0  0  0
   21.9837  -20.2426  -14.7294 C   0  0  0  0  0  0  0  0  0  0  0  0
   21.0202  -19.6697  -15.6794 C   0  0  0  0  0  0  0  0  0  0  0  0
   20.4486  -18.3912  -15.6331 N   0  0  0  0  0  0  0  0  0  0  0  0
   19.5906  -18.2448  -16.6539 C   0  0  0  0  0  0  0  0  0  0  0  0
   19.5505  -19.3815  -17.4066 C   0  0  0  0  0  0  0  0  0  0  0  0
   18.8470  -19.7066  -18.5452 C   0  0  0  0  0  0  0  0  0  0  0  0
   19.0015  -20.9378  -19.1344 C   0  0  0  0  0  0  0  0  0  0  0  0
   19.8822  -21.8094  -18.5333 C   0  0  0  0  0  0  0  0  0  0  0  0
   20.5846  -21.4876  -17.3973 C   0  0  0  0  0  0  0  0  0  0  0  0
   20.4324  -20.2535  -16.8015 C   0  0  0  0  0  0  0  0  0  0  0  0
   20.1365  -21.2357  -13.3224 O   0  0  0  0  0  0  0  0  0  0  0  0
   19.0450  -20.6153  -13.2332 O   0  0  0  0  0  0  0  0  0  0  0  0
  1  2  1  0
  2  3  2  0
  4  5  1  0
  4  2  1  0
  6  5  1  0
  7  6  1  0
  8  7  1  0
  8  9  1  1
 10  8  1  0
 11 10  2  0
 12 13  1  0
 13 14  1  0
 14 16  1  0
 14 15  1  6
 16 18  1  0
 16 17  1  6
 17 10  1  0
 18 20  1  0
 19 18  2  0
 21 20  1  0
 21 32  1  0
 21 22  1  1
 23 22  1  0
 23 24  2  0
 25 24  1  0
 26 25  1  0
 27 26  2  0
 28 29  2  0
 28 27  1  0
 29 30  1  0
 30 31  2  0
 31 26  1  0
 31 23  1  0
 32 33  2  0
 32 34  1  0
M  END
$$$$
