RIW.pdb
     RDKit          3D

 34 35  0  0  1  0  0  0  0  0999 V2000
   26.3654  -16.0163  -14.8734 N   0  0  0  0  0  0  0  0  0  0  0  0
   26.9290  -15.8380  -16.1813 C   0  0  0  0  0  0  0  0  0  0  0  0
   26.6068  -14.7883  -16.8209 N   0  0  0  0  0  0  0  0  0  0  0  0
   27.7922  -16.8437  -16.6433 N   0  0  0  0  0  0  0  0  0  0  0  0
   27.6261  -18.1968  -16.0943 C   0  0  0  0  0  0  0  0  0  0  0  0
   26.8505  -18.9800  -17.1082 C   0  0  0  0  0  0  0  0  0  0  0  0
   26.5576  -20.3618  -16.6465 C   0  0  0  0  0  0  0  0  0  0  0  0
   27.2862  -20.8766  -15.4646 C   0  0  2  0  0  0  0  0  0  0  0  0
   28.2499  -21.8615  -15.8133 N   0  0  0  0  0  0  0  0  0  0  0  0
   26.3142  -21.3769  -14.4374 C   0  0  0  0  0  0  0  0  0  0  0  0
   25.7186  -22.4525  -14.6694 O   0  0  0  0  0  0  0  0  0  0  0  0
   26.9090  -14.5127  -17.7736 C   0  0  0  0  0  0  0  0  0  0  0  0
   27.3677  -21.1210   -9.1676 C   0  0  0  0  0  0  0  0  0  0  0  0
   26.8896  -21.6246  -10.5416 C   0  0  2  0  0  0  0  0  0  0  0  0
   25.6531  -20.8765  -10.8746 C   0  0  0  0  0  0  0  0  0  0  0  0
   24.6005  -21.2334   -9.8205 C   0  0  2  0  0  0  0  0  0  0  0  0
   25.0734  -21.1443  -12.2476 N   0  0  0  0  0  0  0  0  0  0  0  0
   26.0683  -20.6698  -13.2440 C   0  0  0  0  0  0  0  0  0  0  0  0
   23.8113  -20.4302  -12.5176 O   0  0  0  0  0  0  0  0  0  0  0  0
   23.8410  -19.1671  -12.5882 N   0  0  0  0  0  0  0  0  0  0  0  0
   22.5671  -21.0973  -12.7053 C   0  0  1  0  0  0  0  0  0  0  0  0
   21.3386  -20.3568  -12.9867 C   0  0  0  0  0  0  0  0  0  0  0  0
   21.5857  -19.3029  -14.0198 C   0  0  0  0  0  0  0  0  0  0  0  0
   21.7835  -19.8584  -15.3657 C   0  0  0  0  0  0  0  0  0  0  0  0
   22.9940  -19.9695  -16.0627 N   0  0  0  0  0  0  0  0  0  0  0  0
   22.7682  -20.4970  -17.2752 C   0  0  0  0  0  0  0  0  0  0  0  0
   21.4392  -20.7557  -17.4399 C   0  0  0  0  0  0  0  0  0  0  0  0
   20.7312  -21.3022  -18.4873 C   0  0  0  0  0  0  0  0  0  0  0  0
   19.3722  -21.4794  -18.3952 C   0  0  0  0  0  0  0  0  0  0  0  0
   18.7716  -21.0871  -17.2195 C   0  0  0  0  0  0  0  0  0  0  0  0
   19.4757  -20.5413  -16.1736 C   0  0  0  0  0  0  0  0  0  0  0  0
   20.8397  -20.3607  -16.2614 C   0  0  0  0  0  0  0  0  0  0  0  0
   20.1970  -21.2311  -13.1645 O   0  0  0  0  0  0  0  0  0  0  0  0
   19.0302  -20.7595  -13.1449 O   0  0  0  0  0  0  0  0  0  0  0  0
  1  2  1  0
  2  3  2  0
  4  5  1  0
  4  2  1  0
  6  5  1  0
  7  6  1  0
  8  7  1  0
  8  9  1  6
 10  8  1  0
 11 10  2  0
 12 13  1  0
 13 14  1  0
 14 16  1  0
 14 15  1  6
 16 18  1  0
 16 17  1  6
 17 10  1  0
 18 20  1  0
 19 18  2  0
 21 20  1  0
 21 32  1  0
 21 22  1  1
 23 22  1  0
 23 24  2  0
 25 24  1  0
 26 25  1  0
 27 26  2  0
 28 29  2  0
 28 27  1  0
 29 30  1  0
 30 31  2  0
 31 26  1  0
 31 23  1  0
 32 33  2  0
 32 34  1  0
M  END
$$$$
