RIW.pdb
     RDKit          3D

 34 35  0  0  1  0  0  0  0  0999 V2000
   25.5670  -16.3733  -20.2301 N   0  0  0  0  0  0  0  0  0  0  0  0
   24.6781  -16.0050  -19.1650 C   0  0  0  0  0  0  0  0  0  0  0  0
   23.5845  -15.4409  -19.4822 N   0  0  0  0  0  0  0  0  0  0  0  0
   25.0956  -16.3014  -17.8582 N   0  0  0  0  0  0  0  0  0  0  0  0
   26.3523  -17.0447  -17.6909 C   0  0  0  0  0  0  0  0  0  0  0  0
   26.0358  -18.4868  -17.9423 C   0  0  0  0  0  0  0  0  0  0  0  0
   26.2614  -19.3294  -16.7393 C   0  0  0  0  0  0  0  0  0  0  0  0
   27.5703  -20.0058  -16.5911 C   0  0  2  0  0  0  0  0  0  0  0  0
   27.9353  -20.7333  -17.7563 N   0  0  0  0  0  0  0  0  0  0  0  0
   27.5685  -20.8691  -15.3643 C   0  0  0  0  0  0  0  0  0  0  0  0
   26.9883  -21.9758  -15.4276 O   0  0  0  0  0  0  0  0  0  0  0  0
   22.8352  -15.1143  -18.8443 C   0  0  0  0  0  0  0  0  0  0  0  0
   31.1272  -21.6881  -10.5315 C   0  0  0  0  0  0  0  0  0  0  0  0
   29.6867  -21.9324  -11.0169 C   0  0  2  0  0  0  0  0  0  0  0  0
   29.5191  -21.1789  -12.2832 C   0  0  0  0  0  0  0  0  0  0  0  0
   29.7825  -19.7010  -11.9784 C   0  0  2  0  0  0  0  0  0  0  0  0
   28.1633  -21.3023  -12.9461 N   0  0  0  0  0  0  0  0  0  0  0  0
   28.1955  -20.4611  -14.1705 C   0  0  0  0  0  0  0  0  0  0  0  0
   27.0420  -20.8222  -12.1166 O   0  0  0  0  0  0  0  0  0  0  0  0
   26.7702  -19.5865  -12.1343 N   0  0  0  0  0  0  0  0  0  0  0  0
   26.2533  -21.6852  -11.3035 C   0  0  1  0  0  0  0  0  0  0  0  0
   25.2283  -21.1601  -10.4033 C   0  0  0  0  0  0  0  0  0  0  0  0
   23.8785  -21.6831  -10.7826 C   0  0  0  0  0  0  0  0  0  0  0  0
   23.2107  -20.8564  -11.7975 C   0  0  0  0  0  0  0  0  0  0  0  0
   23.5455  -20.7523  -13.1541 N   0  0  0  0  0  0  0  0  0  0  0  0
   22.7275  -19.8741  -13.7533 C   0  0  0  0  0  0  0  0  0  0  0  0
   21.8358  -19.3670  -12.8545 C   0  0  0  0  0  0  0  0  0  0  0  0
   20.8063  -18.4621  -12.9903 C   0  0  0  0  0  0  0  0  0  0  0  0
   20.0249  -18.1257  -11.9119 C   0  0  0  0  0  0  0  0  0  0  0  0
   20.3243  -18.7329  -10.7126 C   0  0  0  0  0  0  0  0  0  0  0  0
   21.3509  -19.6354  -10.5746 C   0  0  0  0  0  0  0  0  0  0  0  0
   22.1386  -19.9758  -11.6537 C   0  0  0  0  0  0  0  0  0  0  0  0
   25.6238  -21.2402   -9.0118 O   0  0  0  0  0  0  0  0  0  0  0  0
   26.6482  -21.8931   -8.6821 O   0  0  0  0  0  0  0  0  0  0  0  0
  1  2  1  0
  2  3  2  0
  4  5  1  0
  4  2  1  0
  6  5  1  0
  7  6  1  0
  8  7  1  0
  8  9  1  6
 10  8  1  0
 11 10  2  0
 12 13  1  0
 13 14  1  0
 14 16  1  0
 14 15  1  6
 16 18  1  0
 16 17  1  1
 17 10  1  0
 18 20  1  0
 19 18  2  0
 21 20  1  0
 21 32  1  0
 21 22  1  1
 23 22  1  0
 23 24  2  0
 25 24  1  0
 26 25  1  0
 27 26  2  0
 28 29  2  0
 28 27  1  0
 29 30  1  0
 30 31  2  0
 31 26  1  0
 31 23  1  0
 32 33  2  0
 32 34  1  0
M  END
$$$$
