APL.pdb
     RDKit          3D

 21 21  0  0  1  0  0  0  0  0999 V2000
   10.0886  -13.3574   19.4280 C   0  0  0  0  0  0  0  0  0  0  0  0
    8.5717  -13.5687   19.3541 C   0  0  2  0  0  0  0  0  0  0  0  0
    7.9699  -12.3723   18.8793 N   0  0  0  0  0  0  0  0  0  0  0  0
    8.0532  -14.1313   20.5937 C   0  0  0  0  0  0  0  0  0  0  0  0
    7.6556  -13.3027   21.4869 O   0  0  0  0  0  0  0  0  0  0  0  0
    7.9508  -15.5007   20.8982 N   0  0  0  0  0  0  0  0  0  0  0  0
    8.3794  -16.5750   20.0283 C   0  0  0  0  0  0  0  0  0  0  0  0
    7.5578  -17.7715   20.4831 C   0  0  0  0  0  0  0  0  0  0  0  0
    7.4917  -17.5293   21.9615 C   0  0  0  0  0  0  0  0  0  0  0  0
    7.4266  -16.0577   22.0946 C   0  0  1  0  0  0  0  0  0  0  0  0
    8.0965  -15.5588   23.3250 C   0  0  0  0  0  0  0  0  0  0  0  0
    9.3618  -15.4290   23.2613 O   0  0  0  0  0  0  0  0  0  0  0  0
    7.7245  -11.7152   25.6872 C   0  0  0  0  0  0  0  0  0  0  0  0
    6.6594  -12.8028   25.9375 C   0  0  2  0  0  0  0  0  0  0  0  0
    5.5807  -12.1746   26.7904 C   0  0  0  0  0  0  0  0  0  0  0  0
    7.3224  -13.9700   26.5901 C   0  0  0  0  0  0  0  0  0  0  0  0
    8.2035  -14.8058   25.7307 C   0  0  2  0  0  0  0  0  0  0  0  0
    7.4738  -15.2226   24.5271 N   0  0  0  0  0  0  0  0  0  0  0  0
    8.7289  -15.9502   26.4631 C   0  0  0  0  0  0  0  0  0  0  0  0
    8.2390  -17.0881   26.3227 O   0  0  0  0  0  0  0  0  0  0  0  0
    9.8076  -15.8219   27.3572 O   0  0  0  0  0  0  0  0  0  0  0  0
  2  1  1  1
  3  2  1  0
  4  5  2  0
  4  2  1  0
  6  4  1  0
  7  6  1  0
  8  7  1  0
  9  8  1  0
  9 10  1  0
 10 11  1  1
 10  6  1  0
 11 18  1  0
 12 11  2  0
 14 13  1  1
 14 15  1  0
 16 14  1  0
 17 16  1  1
 18 17  1  0
 19 21  1  0
 19 17  1  0
 20 19  2  0
M  END
$$$$
