APL.pdb
     RDKit          3D

 21 21  0  0  1  0  0  0  0  0999 V2000
    5.7749  -18.5323   22.9403 C   0  0  0  0  0  0  0  0  0  0  0  0
    6.6855  -18.3430   21.7213 C   0  0  2  0  0  0  0  0  0  0  0  0
    7.1132  -19.6215   21.2720 N   0  0  0  0  0  0  0  0  0  0  0  0
    7.7158  -17.3458   21.9781 C   0  0  0  0  0  0  0  0  0  0  0  0
    8.7855  -17.7504   22.5564 O   0  0  0  0  0  0  0  0  0  0  0  0
    7.6415  -15.9802   21.6495 N   0  0  0  0  0  0  0  0  0  0  0  0
    6.5107  -15.3450   21.0074 C   0  0  0  0  0  0  0  0  0  0  0  0
    7.1034  -14.1082   20.3497 C   0  0  0  0  0  0  0  0  0  0  0  0
    8.1431  -13.7176   21.3572 C   0  0  0  0  0  0  0  0  0  0  0  0
    8.6416  -15.0023   21.8942 C   0  0  1  0  0  0  0  0  0  0  0  0
    9.0477  -14.9128   23.3221 C   0  0  0  0  0  0  0  0  0  0  0  0
   10.1715  -14.3597   23.5520 O   0  0  0  0  0  0  0  0  0  0  0  0
    8.2415  -12.0312   26.6644 C   0  0  0  0  0  0  0  0  0  0  0  0
    7.1992  -12.9699   26.0226 C   0  0  2  0  0  0  0  0  0  0  0  0
    5.8374  -12.4810   26.4609 C   0  0  0  0  0  0  0  0  0  0  0  0
    7.4925  -14.3672   26.4577 C   0  0  0  0  0  0  0  0  0  0  0  0
    8.6504  -15.0407   25.8103 C   0  0  2  0  0  0  0  0  0  0  0  0
    8.3189  -15.3719   24.4193 N   0  0  0  0  0  0  0  0  0  0  0  0
    9.0653  -16.2196   26.5587 C   0  0  0  0  0  0  0  0  0  0  0  0
    9.4619  -16.1308   27.7374 O   0  0  0  0  0  0  0  0  0  0  0  0
    9.0366  -17.5046   25.9865 O   0  0  0  0  0  0  0  0  0  0  0  0
  2  1  1  1
  3  2  1  0
  4  5  2  0
  4  2  1  0
  6  4  1  0
  7  6  1  0
  8  7  1  0
  9  8  1  0
  9 10  1  0
 10 11  1  1
 10  6  1  0
 11 18  1  0
 12 11  2  0
 14 13  1  1
 14 15  1  0
 16 14  1  0
 17 16  1  1
 18 17  1  0
 19 21  1  0
 19 17  1  0
 20 19  2  0
M  END
$$$$
