APL.pdb
     RDKit          3D

 21 21  0  0  1  0  0  0  0  0999 V2000
   10.0853  -18.9763   20.5545 C   0  0  0  0  0  0  0  0  0  0  0  0
   10.3143  -17.5528   20.0328 C   0  0  2  0  0  0  0  0  0  0  0  0
   11.6787  -17.4213   19.6580 N   0  0  0  0  0  0  0  0  0  0  0  0
    9.7745  -16.5581   20.9499 C   0  0  0  0  0  0  0  0  0  0  0  0
   10.5661  -16.1081   21.8516 O   0  0  0  0  0  0  0  0  0  0  0  0
    8.4634  -16.0487   20.9349 N   0  0  0  0  0  0  0  0  0  0  0  0
    7.4234  -16.4700   20.0210 C   0  0  0  0  0  0  0  0  0  0  0  0
    6.4620  -15.2919   19.9836 C   0  0  0  0  0  0  0  0  0  0  0  0
    6.5352  -14.8164   21.4038 C   0  0  0  0  0  0  0  0  0  0  0  0
    7.9386  -15.0561   21.8043 C   0  0  1  0  0  0  0  0  0  0  0  0
    8.0780  -15.3955   23.2456 C   0  0  0  0  0  0  0  0  0  0  0  0
    8.3157  -16.6177   23.5135 O   0  0  0  0  0  0  0  0  0  0  0  0
    6.4536  -12.4019   25.3500 C   0  0  0  0  0  0  0  0  0  0  0  0
    6.8249  -13.0116   26.7175 C   0  0  2  0  0  0  0  0  0  0  0  0
    6.8320  -11.8779   27.7176 C   0  0  0  0  0  0  0  0  0  0  0  0
    8.1473  -13.6913   26.5868 C   0  0  0  0  0  0  0  0  0  0  0  0
    8.1970  -14.8965   25.7158 C   0  0  2  0  0  0  0  0  0  0  0  0
    7.9753  -14.5089   24.3175 N   0  0  0  0  0  0  0  0  0  0  0  0
    7.2412  -15.9060   26.1512 C   0  0  0  0  0  0  0  0  0  0  0  0
    6.1394  -16.0408   25.5833 O   0  0  0  0  0  0  0  0  0  0  0  0
    7.5185  -16.7693   27.2269 O   0  0  0  0  0  0  0  0  0  0  0  0
  2  1  1  1
  3  2  1  0
  4  5  2  0
  4  2  1  0
  6  4  1  0
  7  6  1  0
  8  7  1  0
  9  8  1  0
  9 10  1  0
 10 11  1  1
 10  6  1  0
 11 18  1  0
 12 11  2  0
 14 13  1  6
 14 15  1  0
 16 14  1  0
 17 16  1  1
 18 17  1  0
 19 21  1  0
 19 17  1  0
 20 19  2  0
M  END
$$$$
