APL.pdb
     RDKit          3D

 21 21  0  0  1  0  0  0  0  0999 V2000
   11.8310  -16.3527   19.8233 C   0  0  0  0  0  0  0  0  0  0  0  0
   11.7204  -14.8279   19.7056 C   0  0  2  0  0  0  0  0  0  0  0  0
   13.0278  -14.2734   19.7548 N   0  0  0  0  0  0  0  0  0  0  0  0
   10.7327  -14.2942   20.6338 C   0  0  0  0  0  0  0  0  0  0  0  0
   11.1648  -13.8743   21.7649 O   0  0  0  0  0  0  0  0  0  0  0  0
    9.3489  -14.1993   20.4005 N   0  0  0  0  0  0  0  0  0  0  0  0
    8.6921  -14.5662   19.1642 C   0  0  0  0  0  0  0  0  0  0  0  0
    7.4000  -13.7638   19.1776 C   0  0  0  0  0  0  0  0  0  0  0  0
    7.0616  -13.7887   20.6382 C   0  0  0  0  0  0  0  0  0  0  0  0
    8.3712  -13.7435   21.3240 C   0  0  1  0  0  0  0  0  0  0  0  0
    8.3758  -14.4902   22.6102 C   0  0  0  0  0  0  0  0  0  0  0  0
    9.0224  -15.5873   22.6194 O   0  0  0  0  0  0  0  0  0  0  0  0
    8.2607  -12.1518   26.7888 C   0  0  0  0  0  0  0  0  0  0  0  0
    7.0150  -12.6890   26.0545 C   0  0  2  0  0  0  0  0  0  0  0  0
    5.8077  -12.0910   26.7403 C   0  0  0  0  0  0  0  0  0  0  0  0
    7.0443  -14.1804   26.1060 C   0  0  0  0  0  0  0  0  0  0  0  0
    7.8205  -14.8717   25.0416 C   0  0  2  0  0  0  0  0  0  0  0  0
    7.7461  -14.1031   23.7932 N   0  0  0  0  0  0  0  0  0  0  0  0
    7.3632  -16.2424   24.8562 C   0  0  0  0  0  0  0  0  0  0  0  0
    7.5280  -17.1044   25.7418 O   0  0  0  0  0  0  0  0  0  0  0  0
    6.7183  -16.6515   23.6747 O   0  0  0  0  0  0  0  0  0  0  0  0
  2  1  1  1
  3  2  1  0
  4  5  2  0
  4  2  1  0
  6  4  1  0
  7  6  1  0
  8  7  1  0
  9  8  1  0
  9 10  1  0
 10 11  1  1
 10  6  1  0
 11 18  1  0
 12 11  2  0
 14 13  1  1
 14 15  1  0
 16 14  1  0
 17 16  1  1
 18 17  1  0
 19 21  1  0
 19 17  1  0
 20 19  2  0
M  END
$$$$
