APL.pdb
     RDKit          3D

 21 21  0  0  1  0  0  0  0  0999 V2000
   10.4118  -13.2493   19.5252 C   0  0  0  0  0  0  0  0  0  0  0  0
    8.9288  -13.5299   19.2548 C   0  0  2  0  0  0  0  0  0  0  0  0
    8.3619  -12.3947   18.6151 N   0  0  0  0  0  0  0  0  0  0  0  0
    8.2572  -14.0300   20.4468 C   0  0  0  0  0  0  0  0  0  0  0  0
    7.8617  -13.1594   21.3000 O   0  0  0  0  0  0  0  0  0  0  0  0
    8.0053  -15.3813   20.7453 N   0  0  0  0  0  0  0  0  0  0  0  0
    8.3304  -16.4937   19.8786 C   0  0  0  0  0  0  0  0  0  0  0  0
    7.3794  -17.5967   20.3172 C   0  0  0  0  0  0  0  0  0  0  0  0
    7.3171  -17.3512   21.7952 C   0  0  0  0  0  0  0  0  0  0  0  0
    7.4067  -15.8813   21.9320 C   0  0  1  0  0  0  0  0  0  0  0  0
    8.1071  -15.4583   23.1739 C   0  0  0  0  0  0  0  0  0  0  0  0
    9.3785  -15.4166   23.1142 O   0  0  0  0  0  0  0  0  0  0  0  0
    8.1351  -11.6774   25.8827 C   0  0  0  0  0  0  0  0  0  0  0  0
    6.9791  -12.6985   25.9090 C   0  0  2  0  0  0  0  0  0  0  0  0
    5.8522  -12.0675   26.6949 C   0  0  0  0  0  0  0  0  0  0  0  0
    7.4837  -13.9657   26.5151 C   0  0  0  0  0  0  0  0  0  0  0  0
    8.2554  -14.8730   25.6236 C   0  0  2  0  0  0  0  0  0  0  0  0
    7.5067  -15.1058   24.3826 N   0  0  0  0  0  0  0  0  0  0  0  0
    8.5842  -16.1234   26.2948 C   0  0  0  0  0  0  0  0  0  0  0  0
    9.3681  -16.1503   27.2640 O   0  0  0  0  0  0  0  0  0  0  0  0
    8.0340  -17.3501   25.8804 O   0  0  0  0  0  0  0  0  0  0  0  0
  2  1  1  1
  3  2  1  0
  4  5  2  0
  4  2  1  0
  6  4  1  0
  7  6  1  0
  8  7  1  0
  9  8  1  0
  9 10  1  0
 10 11  1  1
 10  6  1  0
 11 18  1  0
 12 11  2  0
 14 13  1  1
 14 15  1  0
 16 14  1  0
 17 16  1  1
 18 17  1  0
 19 21  1  0
 19 17  1  0
 20 19  2  0
M  END
$$$$
