APL.pdb
     RDKit          3D

 21 21  0  0  1  0  0  0  0  0999 V2000
    9.9692  -12.9977   19.1105 C   0  0  0  0  0  0  0  0  0  0  0  0
    8.6801  -13.7801   18.8331 C   0  0  2  0  0  0  0  0  0  0  0  0
    7.7829  -12.9383   18.1220 N   0  0  0  0  0  0  0  0  0  0  0  0
    8.1788  -14.4224   20.0407 C   0  0  0  0  0  0  0  0  0  0  0  0
    7.3561  -13.7508   20.7579 O   0  0  0  0  0  0  0  0  0  0  0  0
    8.5172  -15.7117   20.4899 N   0  0  0  0  0  0  0  0  0  0  0  0
    9.3414  -16.6512   19.7602 C   0  0  0  0  0  0  0  0  0  0  0  0
    8.9351  -18.0089   20.3127 C   0  0  0  0  0  0  0  0  0  0  0  0
    8.6851  -17.6702   21.7519 C   0  0  0  0  0  0  0  0  0  0  0  0
    8.1234  -16.3023   21.7197 C   0  0  1  0  0  0  0  0  0  0  0  0
    8.4976  -15.4961   22.9121 C   0  0  0  0  0  0  0  0  0  0  0  0
    9.6372  -14.9293   22.8708 O   0  0  0  0  0  0  0  0  0  0  0  0
    7.3127  -13.0832   27.7738 C   0  0  0  0  0  0  0  0  0  0  0  0
    7.2723  -12.3598   26.4119 C   0  0  2  0  0  0  0  0  0  0  0  0
    6.1781  -11.3201   26.4980 C   0  0  0  0  0  0  0  0  0  0  0  0
    7.0371  -13.3769   25.3451 C   0  0  0  0  0  0  0  0  0  0  0  0
    8.0999  -14.3993   25.1492 C   0  0  2  0  0  0  0  0  0  0  0  0
    7.7236  -15.3047   24.0568 N   0  0  0  0  0  0  0  0  0  0  0  0
    8.3693  -15.1279   26.3816 C   0  0  0  0  0  0  0  0  0  0  0  0
    7.6384  -16.0686   26.7496 O   0  0  0  0  0  0  0  0  0  0  0  0
    9.4616  -14.8033   27.2069 O   0  0  0  0  0  0  0  0  0  0  0  0
  2  1  1  1
  3  2  1  0
  4  5  2  0
  4  2  1  0
  6  4  1  0
  7  6  1  0
  8  7  1  0
  9  8  1  0
  9 10  1  0
 10 11  1  1
 10  6  1  0
 11 18  1  0
 12 11  2  0
 14 13  1  1
 14 15  1  0
 16 14  1  0
 17 16  1  1
 18 17  1  0
 19 21  1  0
 19 17  1  0
 20 19  2  0
M  END
$$$$
