APL.pdb
     RDKit          3D

 21 21  0  0  1  0  0  0  0  0999 V2000
    7.3036  -17.3051   17.3277 C   0  0  0  0  0  0  0  0  0  0  0  0
    8.2967  -16.2042   16.9366 C   0  0  2  0  0  0  0  0  0  0  0  0
    9.1293  -16.6940   15.8945 N   0  0  0  0  0  0  0  0  0  0  0  0
    8.9540  -15.6416   18.1085 C   0  0  0  0  0  0  0  0  0  0  0  0
   10.0567  -16.1833   18.4731 O   0  0  0  0  0  0  0  0  0  0  0  0
    8.4868  -14.5589   18.8755 N   0  0  0  0  0  0  0  0  0  0  0  0
    7.2917  -13.7959   18.5861 C   0  0  0  0  0  0  0  0  0  0  0  0
    7.5302  -12.4584   19.2699 C   0  0  0  0  0  0  0  0  0  0  0  0
    8.2732  -12.8921   20.4980 C   0  0  0  0  0  0  0  0  0  0  0  0
    9.0909  -14.0408   20.0515 C   0  0  1  0  0  0  0  0  0  0  0  0
    9.2861  -15.0598   21.1170 C   0  0  0  0  0  0  0  0  0  0  0  0
    8.2969  -15.8286   21.3457 O   0  0  0  0  0  0  0  0  0  0  0  0
   11.4550  -18.8785   21.7062 C   0  0  0  0  0  0  0  0  0  0  0  0
   12.2868  -17.5815   21.7810 C   0  0  2  0  0  0  0  0  0  0  0  0
   13.7420  -17.9916   21.7870 C   0  0  0  0  0  0  0  0  0  0  0  0
   11.8803  -16.8311   23.0054 C   0  0  0  0  0  0  0  0  0  0  0  0
   10.5309  -16.2046   22.9892 C   0  0  2  0  0  0  0  0  0  0  0  0
   10.4394  -15.2495   21.8784 N   0  0  0  0  0  0  0  0  0  0  0  0
   10.2229  -15.5743   24.2659 C   0  0  0  0  0  0  0  0  0  0  0  0
   10.1125  -16.2475   25.3096 O   0  0  0  0  0  0  0  0  0  0  0  0
   10.0373  -14.1841   24.3766 O   0  0  0  0  0  0  0  0  0  0  0  0
  2  1  1  1
  3  2  1  0
  4  5  2  0
  4  2  1  0
  6  4  1  0
  7  6  1  0
  8  7  1  0
  9  8  1  0
  9 10  1  0
 10 11  1  1
 10  6  1  0
 11 18  1  0
 12 11  2  0
 14 13  1  1
 14 15  1  0
 16 14  1  0
 17 16  1  1
 18 17  1  0
 19 21  1  0
 19 17  1  0
 20 19  2  0
M  END
$$$$
