LWR.pdb
     RDKit          3D

 34 35  0  0  1  0  0  0  0  0999 V2000
   28.4427  -22.1915  -18.4933 C   0  0  0  0  0  0  0  0  0  0  0  0
   29.3060  -22.0005  -17.2840 C   0  0  2  0  0  0  0  0  0  0  0  0
   30.5744  -22.8077  -17.4783 C   0  0  0  0  0  0  0  0  0  0  0  0
   28.6648  -22.1928  -15.9754 C   0  0  0  0  0  0  0  0  0  0  0  0
   27.4081  -21.4802  -15.6732 C   0  0  2  0  0  0  0  0  0  0  0  0
   27.4766  -20.0493  -15.9063 N   0  0  0  0  0  0  0  0  0  0  0  0
   26.7137  -21.8511  -14.4249 C   0  0  0  0  0  0  0  0  0  0  0  0
   26.5438  -23.0521  -14.1557 O   0  0  0  0  0  0  0  0  0  0  0  0
   26.2157  -20.9086  -13.4944 N   0  0  0  0  0  0  0  0  0  0  0  0
   25.5790  -21.2301  -12.2568 C   0  0  1  0  0  0  0  0  0  0  0  0
   25.8827  -20.3527  -11.1127 C   0  0  0  0  0  0  0  0  0  0  0  0
   27.1120  -20.6816  -10.3585 C   0  0  0  0  0  0  0  0  0  0  0  0
   28.2066  -21.3220  -10.8785 C   0  0  0  0  0  0  0  0  0  0  0  0
   29.1343  -21.4427   -9.8925 N   0  0  0  0  0  0  0  0  0  0  0  0
   28.6558  -20.8910   -8.7469 C   0  0  0  0  0  0  0  0  0  0  0  0
   29.2134  -20.7644   -7.4817 C   0  0  0  0  0  0  0  0  0  0  0  0
   28.5082  -20.1519   -6.4714 C   0  0  0  0  0  0  0  0  0  0  0  0
   27.2277  -19.6655   -6.7517 C   0  0  0  0  0  0  0  0  0  0  0  0
   26.6824  -19.7954   -8.0099 C   0  0  0  0  0  0  0  0  0  0  0  0
   27.3929  -20.4179   -9.0456 C   0  0  0  0  0  0  0  0  0  0  0  0
   24.0863  -21.1222  -12.5002 C   0  0  0  0  0  0  0  0  0  0  0  0
   23.6639  -20.5410  -13.5310 O   0  0  0  0  0  0  0  0  0  0  0  0
   16.2442  -22.1105  -11.0662 N   0  0  0  0  0  0  0  0  0  0  0  0
   16.4968  -23.4839  -11.3279 C   0  0  0  0  0  0  0  0  0  0  0  0
   15.6332  -24.2050  -11.9801 N   0  0  0  0  0  0  0  0  0  0  0  0
   17.6757  -24.1449  -10.9071 N   0  0  0  0  0  0  0  0  0  0  0  0
   18.7175  -23.4297  -10.1957 C   0  0  0  0  0  0  0  0  0  0  0  0
   19.5213  -22.5615  -11.1287 C   0  0  0  0  0  0  0  0  0  0  0  0
   20.9981  -22.5704  -10.8000 C   0  0  0  0  0  0  0  0  0  0  0  0
   21.7249  -21.6619  -11.7247 C   0  0  2  0  0  0  0  0  0  0  0  0
   23.1569  -21.6612  -11.5945 N   0  0  0  0  0  0  0  0  0  0  0  0
   21.1119  -20.2947  -11.6948 C   0  0  0  0  0  0  0  0  0  0  0  0
   20.0415  -19.9878  -12.5188 O   0  0  0  0  0  0  0  0  0  0  0  0
   21.5615  -19.4364  -10.9327 O   0  0  0  0  0  0  0  0  0  0  0  0
  2  1  1  6
  2  3  1  0
  4  2  1  0
  5  4  1  0
  5  6  1  1
  7  5  1  0
  8  7  2  0
  9  7  1  0
 10 21  1  0
 10  9  1  0
 11 12  1  0
 10 11  1  1
 12 13  2  0
 13 14  1  0
 15 14  1  0
 16 15  2  0
 17 16  1  0
 18 19  1  0
 18 17  2  0
 19 20  2  0
 20 15  1  0
 20 12  1  0
 21 31  1  0
 22 21  2  0
 23 24  1  0
 24 26  1  0
 24 25  2  0
 26 27  1  0
 28 29  1  0
 28 27  1  0
 30 32  1  0
 30 29  1  1
 31 30  1  0
 32 34  2  0
 32 33  1  0
M  END
$$$$
