LWR.pdb
     RDKit          3D

 34 35  0  0  1  0  0  0  0  0999 V2000
   29.1185  -18.6961  -16.5436 C   0  0  0  0  0  0  0  0  0  0  0  0
   27.7157  -19.1741  -16.7628 C   0  0  2  0  0  0  0  0  0  0  0  0
   26.9435  -18.0677  -17.4540 C   0  0  0  0  0  0  0  0  0  0  0  0
   27.0254  -19.7559  -15.6029 C   0  0  0  0  0  0  0  0  0  0  0  0
   27.7081  -20.7858  -14.7956 C   0  0  2  0  0  0  0  0  0  0  0  0
   28.1141  -21.9523  -15.5578 N   0  0  0  0  0  0  0  0  0  0  0  0
   27.1168  -21.1049  -13.4816 C   0  0  0  0  0  0  0  0  0  0  0  0
   26.1227  -21.8481  -13.4250 O   0  0  0  0  0  0  0  0  0  0  0  0
   27.6170  -20.6082  -12.2547 N   0  0  0  0  0  0  0  0  0  0  0  0
   26.9927  -20.7784  -10.9813 C   0  0  1  0  0  0  0  0  0  0  0  0
   27.6581  -20.1413   -9.8314 C   0  0  0  0  0  0  0  0  0  0  0  0
   27.0138  -20.3534   -8.5168 C   0  0  0  0  0  0  0  0  0  0  0  0
   25.7705  -20.8989   -8.3287 C   0  0  0  0  0  0  0  0  0  0  0  0
   25.5232  -20.9379   -6.9928 N   0  0  0  0  0  0  0  0  0  0  0  0
   26.5857  -20.4270   -6.3177 C   0  0  0  0  0  0  0  0  0  0  0  0
   26.8173  -20.2509   -4.9602 C   0  0  0  0  0  0  0  0  0  0  0  0
   28.0001  -19.6992   -4.5245 C   0  0  0  0  0  0  0  0  0  0  0  0
   28.9523  -19.3248   -5.4773 C   0  0  0  0  0  0  0  0  0  0  0  0
   28.7141  -19.5032   -6.8221 C   0  0  0  0  0  0  0  0  0  0  0  0
   27.5123  -20.0643   -7.2759 C   0  0  0  0  0  0  0  0  0  0  0  0
   25.6177  -20.1485  -11.0886 C   0  0  0  0  0  0  0  0  0  0  0  0
   25.5044  -18.8971  -11.0886 O   0  0  0  0  0  0  0  0  0  0  0  0
   21.2905  -23.8686  -16.8922 N   0  0  0  0  0  0  0  0  0  0  0  0
   22.3815  -22.9702  -17.0366 C   0  0  0  0  0  0  0  0  0  0  0  0
   22.9722  -22.8226  -18.1859 N   0  0  0  0  0  0  0  0  0  0  0  0
   22.8880  -22.1939  -15.9668 N   0  0  0  0  0  0  0  0  0  0  0  0
   22.2548  -22.2197  -14.6624 C   0  0  0  0  0  0  0  0  0  0  0  0
   22.9939  -21.3517  -13.6772 C   0  0  0  0  0  0  0  0  0  0  0  0
   22.2934  -21.2692  -12.3387 C   0  0  0  0  0  0  0  0  0  0  0  0
   23.1128  -20.4705  -11.3904 C   0  0  2  0  0  0  0  0  0  0  0  0
   24.4583  -20.9362  -11.1896 N   0  0  0  0  0  0  0  0  0  0  0  0
   22.3543  -20.2395  -10.1187 C   0  0  0  0  0  0  0  0  0  0  0  0
   22.8429  -20.7175   -8.9139 O   0  0  0  0  0  0  0  0  0  0  0  0
   21.2886  -19.6202  -10.1428 O   0  0  0  0  0  0  0  0  0  0  0  0
  2  1  1  1
  2  3  1  0
  4  2  1  0
  5  4  1  0
  5  6  1  6
  7  5  1  0
  8  7  2  0
  9  7  1  0
 10 21  1  0
 10  9  1  0
 11 12  1  0
 10 11  1  1
 12 13  2  0
 13 14  1  0
 15 14  1  0
 16 15  2  0
 17 16  1  0
 18 19  1  0
 18 17  2  0
 19 20  2  0
 20 15  1  0
 20 12  1  0
 21 31  1  0
 22 21  2  0
 23 24  1  0
 24 26  1  0
 24 25  2  0
 26 27  1  0
 28 29  1  0
 28 27  1  0
 30 32  1  0
 30 29  1  6
 31 30  1  0
 32 34  2  0
 32 33  1  0
M  END
$$$$
