LWR.pdb
     RDKit          3D

 34 35  0  0  1  0  0  0  0  0999 V2000
   28.5691  -17.5643  -16.9978 C   0  0  0  0  0  0  0  0  0  0  0  0
   29.3887  -18.3004  -15.9826 C   0  0  2  0  0  0  0  0  0  0  0  0
   30.6193  -18.8483  -16.6780 C   0  0  0  0  0  0  0  0  0  0  0  0
   28.6827  -19.2818  -15.1467 C   0  0  0  0  0  0  0  0  0  0  0  0
   27.4079  -18.9036  -14.5062 C   0  0  2  0  0  0  0  0  0  0  0  0
   27.4822  -17.6760  -13.7355 N   0  0  0  0  0  0  0  0  0  0  0  0
   26.6476  -19.9813  -13.8440 C   0  0  0  0  0  0  0  0  0  0  0  0
   26.6079  -21.1084  -14.3654 O   0  0  0  0  0  0  0  0  0  0  0  0
   25.9437  -19.8120  -12.6283 N   0  0  0  0  0  0  0  0  0  0  0  0
   25.2520  -20.8458  -11.9259 C   0  0  1  0  0  0  0  0  0  0  0  0
   25.3555  -20.8265  -10.4563 C   0  0  0  0  0  0  0  0  0  0  0  0
   26.7224  -20.9561   -9.9060 C   0  0  0  0  0  0  0  0  0  0  0  0
   27.8145  -21.3969  -10.6072 C   0  0  0  0  0  0  0  0  0  0  0  0
   28.8888  -21.3750   -9.7750 N   0  0  0  0  0  0  0  0  0  0  0  0
   28.5073  -20.9278   -8.5503 C   0  0  0  0  0  0  0  0  0  0  0  0
   29.2231  -20.7281   -7.3775 C   0  0  0  0  0  0  0  0  0  0  0  0
   28.5899  -20.2568   -6.2505 C   0  0  0  0  0  0  0  0  0  0  0  0
   27.2197  -19.9874   -6.3187 C   0  0  0  0  0  0  0  0  0  0  0  0
   26.5175  -20.1884   -7.4864 C   0  0  0  0  0  0  0  0  0  0  0  0
   27.1535  -20.6682   -8.6398 C   0  0  0  0  0  0  0  0  0  0  0  0
   23.7817  -20.6822  -12.2581 C   0  0  0  0  0  0  0  0  0  0  0  0
   23.1561  -19.6776  -11.8359 O   0  0  0  0  0  0  0  0  0  0  0  0
   23.0915  -26.9656  -14.6084 N   0  0  0  0  0  0  0  0  0  0  0  0
   21.7330  -27.1728  -14.2480 C   0  0  0  0  0  0  0  0  0  0  0  0
   21.3622  -28.2728  -13.6616 N   0  0  0  0  0  0  0  0  0  0  0  0
   20.7154  -26.2206  -14.4964 N   0  0  0  0  0  0  0  0  0  0  0  0
   21.0279  -24.9323  -15.0842 C   0  0  0  0  0  0  0  0  0  0  0  0
   21.2251  -23.8797  -14.0242 C   0  0  0  0  0  0  0  0  0  0  0  0
   21.3951  -22.4944  -14.6083 C   0  0  0  0  0  0  0  0  0  0  0  0
   21.7514  -21.5345  -13.5312 C   0  0  2  0  0  0  0  0  0  0  0  0
   23.0967  -21.6334  -13.0331 N   0  0  0  0  0  0  0  0  0  0  0  0
   20.7046  -21.5482  -12.4588 C   0  0  0  0  0  0  0  0  0  0  0  0
   21.0098  -22.0033  -11.1866 O   0  0  0  0  0  0  0  0  0  0  0  0
   19.5642  -21.1522  -12.7084 O   0  0  0  0  0  0  0  0  0  0  0  0
  2  1  1  6
  2  3  1  0
  4  2  1  0
  5  4  1  0
  5  6  1  1
  7  5  1  0
  8  7  2  0
  9  7  1  0
 10 21  1  0
 10  9  1  0
 11 12  1  0
 10 11  1  1
 12 13  2  0
 13 14  1  0
 15 14  1  0
 16 15  2  0
 17 16  1  0
 18 19  1  0
 18 17  2  0
 19 20  2  0
 20 15  1  0
 20 12  1  0
 21 31  1  0
 22 21  2  0
 23 24  1  0
 24 26  1  0
 24 25  2  0
 26 27  1  0
 28 29  1  0
 28 27  1  0
 30 32  1  0
 30 29  1  6
 31 30  1  0
 32 34  2  0
 32 33  1  0
M  END
$$$$
