LWR.pdb
     RDKit          3D

 34 35  0  0  1  0  0  0  0  0999 V2000
   29.8072  -23.2992  -20.2684 C   0  0  0  0  0  0  0  0  0  0  0  0
   30.7259  -22.7509  -19.2198 C   0  0  2  0  0  0  0  0  0  0  0  0
   32.0536  -23.4741  -19.3317 C   0  0  0  0  0  0  0  0  0  0  0  0
   30.1968  -22.6725  -17.8508 C   0  0  0  0  0  0  0  0  0  0  0  0
   28.8824  -22.0429  -17.6175 C   0  0  2  0  0  0  0  0  0  0  0  0
   28.7429  -20.7353  -18.2317 N   0  0  0  0  0  0  0  0  0  0  0  0
   28.3373  -22.1227  -16.2484 C   0  0  0  0  0  0  0  0  0  0  0  0
   28.2079  -23.2338  -15.7076 O   0  0  0  0  0  0  0  0  0  0  0  0
   27.9416  -20.9926  -15.4945 N   0  0  0  0  0  0  0  0  0  0  0  0
   27.3893  -21.0329  -14.1777 C   0  0  1  0  0  0  0  0  0  0  0  0
   27.7472  -19.9212  -13.2793 C   0  0  0  0  0  0  0  0  0  0  0  0
   27.2243  -20.0161  -11.8988 C   0  0  0  0  0  0  0  0  0  0  0  0
   25.9604  -19.6559  -11.5095 C   0  0  0  0  0  0  0  0  0  0  0  0
   25.8460  -19.8887  -10.1754 N   0  0  0  0  0  0  0  0  0  0  0  0
   27.0143  -20.3925   -9.6991 C   0  0  0  0  0  0  0  0  0  0  0  0
   27.3967  -20.7863   -8.4238 C   0  0  0  0  0  0  0  0  0  0  0  0
   28.6639  -21.2731   -8.1992 C   0  0  0  0  0  0  0  0  0  0  0  0
   29.5465  -21.3594   -9.2801 C   0  0  0  0  0  0  0  0  0  0  0  0
   29.1586  -20.9666  -10.5420 C   0  0  0  0  0  0  0  0  0  0  0  0
   27.8699  -20.4692  -10.7809 C   0  0  0  0  0  0  0  0  0  0  0  0
   25.8826  -20.9885  -14.3416 C   0  0  0  0  0  0  0  0  0  0  0  0
   25.3596  -20.0932  -15.0511 O   0  0  0  0  0  0  0  0  0  0  0  0
   18.0915  -21.7244  -12.3761 N   0  0  0  0  0  0  0  0  0  0  0  0
   18.6681  -22.2041  -11.1695 C   0  0  0  0  0  0  0  0  0  0  0  0
   18.0128  -23.0228  -10.4003 N   0  0  0  0  0  0  0  0  0  0  0  0
   19.9625  -21.8332  -10.7327 N   0  0  0  0  0  0  0  0  0  0  0  0
   20.7428  -20.8528  -11.4626 C   0  0  0  0  0  0  0  0  0  0  0  0
   21.4634  -21.4824  -12.6265 C   0  0  0  0  0  0  0  0  0  0  0  0
   22.9668  -21.3543  -12.5147 C   0  0  0  0  0  0  0  0  0  0  0  0
   23.6130  -21.9494  -13.7134 C   0  0  2  0  0  0  0  0  0  0  0  0
   25.0508  -21.9321  -13.7152 N   0  0  0  0  0  0  0  0  0  0  0  0
   22.9977  -21.3943  -14.9621 C   0  0  0  0  0  0  0  0  0  0  0  0
   23.7007  -21.4064  -16.1556 O   0  0  0  0  0  0  0  0  0  0  0  0
   21.8588  -20.9237  -14.9291 O   0  0  0  0  0  0  0  0  0  0  0  0
  2  1  1  6
  2  3  1  0
  4  2  1  0
  5  4  1  0
  5  6  1  1
  7  5  1  0
  8  7  2  0
  9  7  1  0
 10 21  1  0
 10  9  1  0
 11 12  1  0
 10 11  1  1
 12 13  2  0
 13 14  1  0
 15 14  1  0
 16 15  2  0
 17 16  1  0
 18 19  1  0
 18 17  2  0
 19 20  2  0
 20 15  1  0
 20 12  1  0
 21 31  1  0
 22 21  2  0
 23 24  1  0
 24 26  1  0
 24 25  2  0
 26 27  1  0
 28 29  1  0
 28 27  1  0
 30 32  1  0
 30 29  1  1
 31 30  1  0
 32 34  2  0
 32 33  1  0
M  END
$$$$
