LWR.pdb
     RDKit          3D

 34 35  0  0  1  0  0  0  0  0999 V2000
   28.9760  -19.9467  -17.4888 C   0  0  0  0  0  0  0  0  0  0  0  0
   27.7658  -20.8092  -17.6774 C   0  0  2  0  0  0  0  0  0  0  0  0
   26.9023  -20.1806  -18.7532 C   0  0  0  0  0  0  0  0  0  0  0  0
   27.0308  -21.1937  -16.4640 C   0  0  0  0  0  0  0  0  0  0  0  0
   27.7522  -21.8561  -15.3599 C   0  0  2  0  0  0  0  0  0  0  0  0
   28.4038  -23.0940  -15.7466 N   0  0  0  0  0  0  0  0  0  0  0  0
   27.0621  -21.9242  -14.0571 C   0  0  0  0  0  0  0  0  0  0  0  0
   25.9851  -22.5373  -13.9692 O   0  0  0  0  0  0  0  0  0  0  0  0
   27.5559  -21.3225  -12.8755 N   0  0  0  0  0  0  0  0  0  0  0  0
   26.8747  -21.2912  -11.6203 C   0  0  1  0  0  0  0  0  0  0  0  0
   27.6438  -20.7940  -10.4660 C   0  0  0  0  0  0  0  0  0  0  0  0
   26.8603  -20.5174   -9.2421 C   0  0  0  0  0  0  0  0  0  0  0  0
   25.4918  -20.4787   -9.1758 C   0  0  0  0  0  0  0  0  0  0  0  0
   25.1379  -20.2025   -7.8930 N   0  0  0  0  0  0  0  0  0  0  0  0
   26.2549  -20.0627   -7.1323 C   0  0  0  0  0  0  0  0  0  0  0  0
   26.4222  -19.7820   -5.7829 C   0  0  0  0  0  0  0  0  0  0  0  0
   27.6854  -19.6918   -5.2450 C   0  0  0  0  0  0  0  0  0  0  0  0
   28.7843  -19.8887   -6.0866 C   0  0  0  0  0  0  0  0  0  0  0  0
   28.6090  -20.1669   -7.4242 C   0  0  0  0  0  0  0  0  0  0  0  0
   27.3262  -20.2607   -7.9816 C   0  0  0  0  0  0  0  0  0  0  0  0
   25.6977  -20.3511  -11.7929 C   0  0  0  0  0  0  0  0  0  0  0  0
   25.8656  -19.2399  -12.3550 O   0  0  0  0  0  0  0  0  0  0  0  0
   22.2236  -21.9094  -17.4876 N   0  0  0  0  0  0  0  0  0  0  0  0
   23.2858  -22.6109  -16.8568 C   0  0  0  0  0  0  0  0  0  0  0  0
   24.2707  -23.0927  -17.5562 N   0  0  0  0  0  0  0  0  0  0  0  0
   23.3434  -22.8283  -15.4592 N   0  0  0  0  0  0  0  0  0  0  0  0
   22.1604  -22.6836  -14.6331 C   0  0  0  0  0  0  0  0  0  0  0  0
   22.5102  -22.1715  -13.2599 C   0  0  0  0  0  0  0  0  0  0  0  0
   22.8614  -20.6999  -13.2627 C   0  0  0  0  0  0  0  0  0  0  0  0
   23.1577  -20.2507  -11.8774 C   0  0  2  0  0  0  0  0  0  0  0  0
   24.4139  -20.6953  -11.3370 N   0  0  0  0  0  0  0  0  0  0  0  0
   21.9841  -20.5184  -10.9846 C   0  0  0  0  0  0  0  0  0  0  0  0
   20.7722  -19.8868  -11.2110 O   0  0  0  0  0  0  0  0  0  0  0  0
   22.0958  -21.3054  -10.0423 O   0  0  0  0  0  0  0  0  0  0  0  0
  2  1  1  1
  2  3  1  0
  4  2  1  0
  5  4  1  0
  5  6  1  6
  7  5  1  0
  8  7  2  0
  9  7  1  0
 10 21  1  0
 10  9  1  0
 11 12  1  0
 10 11  1  1
 12 13  2  0
 13 14  1  0
 15 14  1  0
 16 15  2  0
 17 16  1  0
 18 19  1  0
 18 17  2  0
 19 20  2  0
 20 15  1  0
 20 12  1  0
 21 31  1  0
 22 21  2  0
 23 24  1  0
 24 26  1  0
 24 25  2  0
 26 27  1  0
 28 29  1  0
 28 27  1  0
 30 32  1  0
 30 29  1  6
 31 30  1  0
 32 34  2  0
 32 33  1  0
M  END
$$$$
