LWR.pdb
     RDKit          3D

 34 35  0  0  1  0  0  0  0  0999 V2000
   20.3685  -20.9010  -15.2055 C   0  0  0  0  0  0  0  0  0  0  0  0
   20.2093  -20.5323  -13.7623 C   0  0  2  0  0  0  0  0  0  0  0  0
   19.1374  -19.4647  -13.6642 C   0  0  0  0  0  0  0  0  0  0  0  0
   21.4384  -20.2212  -13.0187 C   0  0  0  0  0  0  0  0  0  0  0  0
   22.6244  -21.0833  -13.1872 C   0  0  2  0  0  0  0  0  0  0  0  0
   22.3644  -22.4901  -12.9426 N   0  0  0  0  0  0  0  0  0  0  0  0
   23.8908  -20.5983  -12.6050 C   0  0  0  0  0  0  0  0  0  0  0  0
   24.1938  -19.3987  -12.7184 O   0  0  0  0  0  0  0  0  0  0  0  0
   24.8041  -21.4277  -11.9121 N   0  0  0  0  0  0  0  0  0  0  0  0
   26.0524  -21.0009  -11.3642 C   0  0  1  0  0  0  0  0  0  0  0  0
   26.4675  -21.6339  -10.1001 C   0  0  0  0  0  0  0  0  0  0  0  0
   26.8238  -20.7073   -9.0035 C   0  0  0  0  0  0  0  0  0  0  0  0
   26.0249  -19.6960   -8.5369 C   0  0  0  0  0  0  0  0  0  0  0  0
   26.6839  -19.0672   -7.5282 N   0  0  0  0  0  0  0  0  0  0  0  0
   27.8932  -19.6561   -7.3373 C   0  0  0  0  0  0  0  0  0  0  0  0
   28.9193  -19.3859   -6.4419 C   0  0  0  0  0  0  0  0  0  0  0  0
   30.0664  -20.1456   -6.4521 C   0  0  0  0  0  0  0  0  0  0  0  0
   30.1688  -21.1865   -7.3799 C   0  0  0  0  0  0  0  0  0  0  0  0
   29.1458  -21.4475   -8.2645 C   0  0  0  0  0  0  0  0  0  0  0  0
   27.9733  -20.6792   -8.2620 C   0  0  0  0  0  0  0  0  0  0  0  0
   27.1136  -21.3475  -12.3903 C   0  0  0  0  0  0  0  0  0  0  0  0
   27.4528  -22.5461  -12.5545 O   0  0  0  0  0  0  0  0  0  0  0  0
   32.4482  -24.7757  -14.6580 N   0  0  0  0  0  0  0  0  0  0  0  0
   32.1239  -24.6061  -16.0307 C   0  0  0  0  0  0  0  0  0  0  0  0
   32.1558  -25.6157  -16.8499 N   0  0  0  0  0  0  0  0  0  0  0  0
   31.7535  -23.3583  -16.5871 N   0  0  0  0  0  0  0  0  0  0  0  0
   31.3537  -22.2530  -15.7378 C   0  0  0  0  0  0  0  0  0  0  0  0
   29.9086  -22.3718  -15.3278 C   0  0  0  0  0  0  0  0  0  0  0  0
   29.6274  -21.7073  -13.9980 C   0  0  0  0  0  0  0  0  0  0  0  0
   28.7168  -20.5498  -14.1965 C   0  0  2  0  0  0  0  0  0  0  0  0
   27.7308  -20.3534  -13.1684 N   0  0  0  0  0  0  0  0  0  0  0  0
   28.1512  -20.5684  -15.5843 C   0  0  0  0  0  0  0  0  0  0  0  0
   26.7840  -20.4746  -15.7857 O   0  0  0  0  0  0  0  0  0  0  0  0
   28.9059  -20.6676  -16.5539 O   0  0  0  0  0  0  0  0  0  0  0  0
  2  1  1  6
  2  3  1  0
  4  2  1  0
  5  4  1  0
  5  6  1  1
  7  5  1  0
  8  7  2  0
  9  7  1  0
 10 21  1  0
 10  9  1  0
 11 12  1  0
 10 11  1  1
 12 13  2  0
 13 14  1  0
 15 14  1  0
 16 15  2  0
 17 16  1  0
 18 19  1  0
 18 17  2  0
 19 20  2  0
 20 15  1  0
 20 12  1  0
 21 31  1  0
 22 21  2  0
 23 24  1  0
 24 26  1  0
 24 25  2  0
 26 27  1  0
 28 29  1  0
 28 27  1  0
 30 32  1  0
 30 29  1  1
 31 30  1  0
 32 34  2  0
 32 33  1  0
M  END
$$$$
