LWR.pdb
     RDKit          3D

 34 35  0  0  1  0  0  0  0  0999 V2000
   28.8702  -22.5950  -18.9941 C   0  0  0  0  0  0  0  0  0  0  0  0
   29.6843  -22.4347  -17.7468 C   0  0  2  0  0  0  0  0  0  0  0  0
   30.9180  -23.3064  -17.8740 C   0  0  0  0  0  0  0  0  0  0  0  0
   28.9735  -22.5807  -16.4686 C   0  0  0  0  0  0  0  0  0  0  0  0
   27.7425  -21.8017  -16.2315 C   0  0  2  0  0  0  0  0  0  0  0  0
   27.8652  -20.3962  -16.5720 N   0  0  0  0  0  0  0  0  0  0  0  0
   27.0281  -22.0508  -14.9644 C   0  0  0  0  0  0  0  0  0  0  0  0
   26.9717  -23.2072  -14.5136 O   0  0  0  0  0  0  0  0  0  0  0  0
   26.3871  -21.0376  -14.2129 N   0  0  0  0  0  0  0  0  0  0  0  0
   25.7177  -21.2350  -12.9666 C   0  0  1  0  0  0  0  0  0  0  0  0
   26.0345  -20.2798  -11.8904 C   0  0  0  0  0  0  0  0  0  0  0  0
   27.1956  -20.6280  -11.0426 C   0  0  0  0  0  0  0  0  0  0  0  0
   28.3767  -21.1503  -11.5017 C   0  0  0  0  0  0  0  0  0  0  0  0
   29.2011  -21.3329  -10.4367 N   0  0  0  0  0  0  0  0  0  0  0  0
   28.5711  -20.9371   -9.2999 C   0  0  0  0  0  0  0  0  0  0  0  0
   28.9833  -20.9240   -7.9742 C   0  0  0  0  0  0  0  0  0  0  0  0
   28.1387  -20.4643   -6.9901 C   0  0  0  0  0  0  0  0  0  0  0  0
   26.8671  -20.0152   -7.3587 C   0  0  0  0  0  0  0  0  0  0  0  0
   26.4666  -20.0317   -8.6765 C   0  0  0  0  0  0  0  0  0  0  0  0
   27.3196  -20.4982   -9.6862 C   0  0  0  0  0  0  0  0  0  0  0  0
   24.2345  -21.0933  -13.2477 C   0  0  0  0  0  0  0  0  0  0  0  0
   23.7544  -19.9603  -13.5018 O   0  0  0  0  0  0  0  0  0  0  0  0
   17.9954  -25.3777  -10.4996 N   0  0  0  0  0  0  0  0  0  0  0  0
   17.5998  -25.5180  -11.8569 C   0  0  0  0  0  0  0  0  0  0  0  0
   16.3651  -25.7871  -12.1640 N   0  0  0  0  0  0  0  0  0  0  0  0
   18.4996  -25.3783  -12.9407 N   0  0  0  0  0  0  0  0  0  0  0  0
   19.9116  -25.1404  -12.7110 C   0  0  0  0  0  0  0  0  0  0  0  0
   20.1571  -23.7409  -12.2095 C   0  0  0  0  0  0  0  0  0  0  0  0
   21.6272  -23.4494  -12.0027 C   0  0  0  0  0  0  0  0  0  0  0  0
   22.0141  -22.2407  -12.7759 C   0  0  2  0  0  0  0  0  0  0  0  0
   23.3775  -22.2068  -13.2318 N   0  0  0  0  0  0  0  0  0  0  0  0
   21.5863  -21.0022  -12.0485 C   0  0  0  0  0  0  0  0  0  0  0  0
   20.6349  -20.1591  -12.5986 O   0  0  0  0  0  0  0  0  0  0  0  0
   22.0829  -20.7305  -10.9534 O   0  0  0  0  0  0  0  0  0  0  0  0
  2  1  1  6
  2  3  1  0
  4  2  1  0
  5  4  1  0
  5  6  1  1
  7  5  1  0
  8  7  2  0
  9  7  1  0
 10 21  1  0
 10  9  1  0
 11 12  1  0
 10 11  1  1
 12 13  2  0
 13 14  1  0
 15 14  1  0
 16 15  2  0
 17 16  1  0
 18 19  1  0
 18 17  2  0
 19 20  2  0
 20 15  1  0
 20 12  1  0
 21 31  1  0
 22 21  2  0
 23 24  1  0
 24 26  1  0
 24 25  2  0
 26 27  1  0
 28 29  1  0
 28 27  1  0
 30 32  1  0
 30 29  1  1
 31 30  1  0
 32 34  2  0
 32 33  1  0
M  END
$$$$
