LWR.pdb
     RDKit          3D

 34 35  0  0  1  0  0  0  0  0999 V2000
   28.1163  -23.1724  -19.7444 C   0  0  0  0  0  0  0  0  0  0  0  0
   29.0683  -23.3062  -18.5955 C   0  0  2  0  0  0  0  0  0  0  0  0
   29.9299  -24.5299  -18.8374 C   0  0  0  0  0  0  0  0  0  0  0  0
   28.4915  -23.2336  -17.2455 C   0  0  0  0  0  0  0  0  0  0  0  0
   27.6161  -22.0991  -16.8922 C   0  0  2  0  0  0  0  0  0  0  0  0
   28.1376  -20.8082  -17.3023 N   0  0  0  0  0  0  0  0  0  0  0  0
   27.0288  -22.1050  -15.5383 C   0  0  0  0  0  0  0  0  0  0  0  0
   26.5234  -23.1511  -15.0977 O   0  0  0  0  0  0  0  0  0  0  0  0
   27.0007  -20.9726  -14.6904 N   0  0  0  0  0  0  0  0  0  0  0  0
   26.5029  -20.9581  -13.3516 C   0  0  1  0  0  0  0  0  0  0  0  0
   27.1710  -20.0421  -12.4105 C   0  0  0  0  0  0  0  0  0  0  0  0
   26.6380  -20.0362  -11.0307 C   0  0  0  0  0  0  0  0  0  0  0  0
   25.3549  -19.7010  -10.6842 C   0  0  0  0  0  0  0  0  0  0  0  0
   25.2367  -19.8178   -9.3352 N   0  0  0  0  0  0  0  0  0  0  0  0
   26.4213  -20.2224   -8.8074 C   0  0  0  0  0  0  0  0  0  0  0  0
   26.8072  -20.4817   -7.4992 C   0  0  0  0  0  0  0  0  0  0  0  0
   28.0925  -20.8875   -7.2229 C   0  0  0  0  0  0  0  0  0  0  0  0
   28.9899  -21.0300   -8.2856 C   0  0  0  0  0  0  0  0  0  0  0  0
   28.5984  -20.7707   -9.5804 C   0  0  0  0  0  0  0  0  0  0  0  0
   27.2912  -20.3567   -9.8720 C   0  0  0  0  0  0  0  0  0  0  0  0
   25.0561  -20.5122  -13.4354 C   0  0  0  0  0  0  0  0  0  0  0  0
   24.7764  -19.3987  -13.9458 O   0  0  0  0  0  0  0  0  0  0  0  0
   20.4580  -22.8808   -7.0628 N   0  0  0  0  0  0  0  0  0  0  0  0
   20.0768  -23.2078   -8.3918 C   0  0  0  0  0  0  0  0  0  0  0  0
   19.0070  -23.9107   -8.6215 N   0  0  0  0  0  0  0  0  0  0  0  0
   20.8165  -22.8014   -9.5282 N   0  0  0  0  0  0  0  0  0  0  0  0
   22.0211  -22.0065   -9.3879 C   0  0  0  0  0  0  0  0  0  0  0  0
   22.7255  -21.8410  -10.7097 C   0  0  0  0  0  0  0  0  0  0  0  0
   21.8605  -21.1567  -11.7452 C   0  0  0  0  0  0  0  0  0  0  0  0
   22.6031  -21.0465  -13.0278 C   0  0  2  0  0  0  0  0  0  0  0  0
   24.0127  -21.3205  -12.9532 N   0  0  0  0  0  0  0  0  0  0  0  0
   22.2713  -19.7532  -13.7084 C   0  0  0  0  0  0  0  0  0  0  0  0
   23.0371  -18.6224  -13.4771 O   0  0  0  0  0  0  0  0  0  0  0  0
   21.3113  -19.6934  -14.4795 O   0  0  0  0  0  0  0  0  0  0  0  0
  2  1  1  6
  2  3  1  0
  4  2  1  0
  5  4  1  0
  5  6  1  1
  7  5  1  0
  8  7  2  0
  9  7  1  0
 10 21  1  0
 10  9  1  0
 11 12  1  0
 10 11  1  1
 12 13  2  0
 13 14  1  0
 15 14  1  0
 16 15  2  0
 17 16  1  0
 18 19  1  0
 18 17  2  0
 19 20  2  0
 20 15  1  0
 20 12  1  0
 21 31  1  0
 22 21  2  0
 23 24  1  0
 24 26  1  0
 24 25  2  0
 26 27  1  0
 28 29  1  0
 28 27  1  0
 30 32  1  0
 30 29  1  1
 31 30  1  0
 32 34  2  0
 32 33  1  0
M  END
$$$$
