LWR.pdb
     RDKit          3D

 34 35  0  0  1  0  0  0  0  0999 V2000
   27.4696  -18.3230  -16.5987 C   0  0  0  0  0  0  0  0  0  0  0  0
   27.0437  -19.7570  -16.5171 C   0  0  2  0  0  0  0  0  0  0  0  0
   26.1612  -20.0552  -17.7131 C   0  0  0  0  0  0  0  0  0  0  0  0
   26.4912  -20.2118  -15.2332 C   0  0  0  0  0  0  0  0  0  0  0  0
   27.3523  -20.9652  -14.3007 C   0  0  2  0  0  0  0  0  0  0  0  0
   28.1648  -21.9804  -14.9454 N   0  0  0  0  0  0  0  0  0  0  0  0
   26.7387  -21.4052  -13.0327 C   0  0  0  0  0  0  0  0  0  0  0  0
   26.4666  -22.6069  -12.8720 O   0  0  0  0  0  0  0  0  0  0  0  0
   26.4313  -20.5296  -11.9645 N   0  0  0  0  0  0  0  0  0  0  0  0
   25.8236  -20.9165  -10.7310 C   0  0  1  0  0  0  0  0  0  0  0  0
   26.1585  -20.1037   -9.5486 C   0  0  0  0  0  0  0  0  0  0  0  0
   27.4250  -20.4504   -8.8675 C   0  0  0  0  0  0  0  0  0  0  0  0
   28.4502  -21.1661   -9.4291 C   0  0  0  0  0  0  0  0  0  0  0  0
   29.4421  -21.2795   -8.5069 N   0  0  0  0  0  0  0  0  0  0  0  0
   29.0732  -20.6492   -7.3613 C   0  0  0  0  0  0  0  0  0  0  0  0
   29.7273  -20.4848   -6.1477 C   0  0  0  0  0  0  0  0  0  0  0  0
   29.1250  -19.7902   -5.1240 C   0  0  0  0  0  0  0  0  0  0  0  0
   27.8491  -19.2600   -5.3379 C   0  0  0  0  0  0  0  0  0  0  0  0
   27.2076  -19.4280   -6.5452 C   0  0  0  0  0  0  0  0  0  0  0  0
   27.8128  -20.1341   -7.5941 C   0  0  0  0  0  0  0  0  0  0  0  0
   24.3259  -20.7915  -10.9315 C   0  0  0  0  0  0  0  0  0  0  0  0
   23.8799  -20.2763  -11.9872 O   0  0  0  0  0  0  0  0  0  0  0  0
   18.1000  -25.8638   -8.5789 N   0  0  0  0  0  0  0  0  0  0  0  0
   17.2916  -24.7104   -8.7644 C   0  0  0  0  0  0  0  0  0  0  0  0
   16.0467  -24.8231   -9.1234 N   0  0  0  0  0  0  0  0  0  0  0  0
   17.7734  -23.3927   -8.5765 N   0  0  0  0  0  0  0  0  0  0  0  0
   19.1581  -23.1492   -8.2214 C   0  0  0  0  0  0  0  0  0  0  0  0
   19.9006  -22.4712   -9.3437 C   0  0  0  0  0  0  0  0  0  0  0  0
   21.3496  -22.2031   -9.0006 C   0  0  0  0  0  0  0  0  0  0  0  0
   22.0282  -21.5563  -10.1538 C   0  0  2  0  0  0  0  0  0  0  0  0
   23.4177  -21.2421   -9.9584 N   0  0  0  0  0  0  0  0  0  0  0  0
   21.2104  -20.4055  -10.6564 C   0  0  0  0  0  0  0  0  0  0  0  0
   20.0678  -20.6315  -11.4062 O   0  0  0  0  0  0  0  0  0  0  0  0
   21.5549  -19.2495  -10.4019 O   0  0  0  0  0  0  0  0  0  0  0  0
  2  1  1  1
  2  3  1  0
  4  2  1  0
  5  4  1  0
  5  6  1  6
  7  5  1  0
  8  7  2  0
  9  7  1  0
 10 21  1  0
 10  9  1  0
 11 12  1  0
 10 11  1  1
 12 13  2  0
 13 14  1  0
 15 14  1  0
 16 15  2  0
 17 16  1  0
 18 19  1  0
 18 17  2  0
 19 20  2  0
 20 15  1  0
 20 12  1  0
 21 31  1  0
 22 21  2  0
 23 24  1  0
 24 26  1  0
 24 25  2  0
 26 27  1  0
 28 29  1  0
 28 27  1  0
 30 32  1  0
 30 29  1  1
 31 30  1  0
 32 34  2  0
 32 33  1  0
M  END
$$$$
