VDE.pdb
     RDKit          3D

 25 24  0  0  1  0  0  0  0  0999 V2000
    7.5860  -13.9295   21.7643 C   0  0  0  0  0  0  0  0  0  0  0  0
    8.2969  -13.6532   20.4432 C   0  0  2  0  0  0  0  0  0  0  0  0
    7.4873  -12.6716   19.6244 C   0  0  0  0  0  0  0  0  0  0  0  0
    8.4876  -14.9731   19.7499 C   0  0  2  0  0  0  0  0  0  0  0  0
    7.2347  -15.6061   19.4076 N   0  0  0  0  0  0  0  0  0  0  0  0
    9.2545  -15.9436   20.5733 C   0  0  0  0  0  0  0  0  0  0  0  0
    8.5857  -16.8308   21.1878 O   0  0  0  0  0  0  0  0  0  0  0  0
   10.6567  -15.9117   20.6903 N   0  0  0  0  0  0  0  0  0  0  0  0
   11.3344  -16.9323   21.5101 C   0  0  1  0  0  0  0  0  0  0  0  0
   12.7588  -16.9165   21.0845 C   0  0  0  0  0  0  0  0  0  0  0  0
   13.6554  -17.8996   21.6583 C   0  0  0  0  0  0  0  0  0  0  0  0
   13.2625  -18.9004   22.2784 O   0  0  0  0  0  0  0  0  0  0  0  0
   11.1184  -16.5919   22.9522 C   0  0  0  0  0  0  0  0  0  0  0  0
   11.5797  -15.5087   23.3692 O   0  0  0  0  0  0  0  0  0  0  0  0
   15.0227  -17.7217   21.5124 O   0  0  0  0  0  0  0  0  0  0  0  0
   10.4163  -17.4642   23.8178 N   0  0  0  0  0  0  0  0  0  0  0  0
   10.2505  -17.1828   25.2184 C   0  0  1  0  0  0  0  0  0  0  0  0
    8.8252  -17.3842   25.5936 C   0  0  0  0  0  0  0  0  0  0  0  0
    7.8416  -16.4415   24.9984 C   0  0  0  0  0  0  0  0  0  0  0  0
    6.4329  -16.7312   25.2670 C   0  0  0  0  0  0  0  0  0  0  0  0
    6.0835  -17.6980   25.9572 O   0  0  0  0  0  0  0  0  0  0  0  0
   11.1830  -18.0693   25.9839 C   0  0  0  0  0  0  0  0  0  0  0  0
   11.3954  -17.8558   27.3489 O   0  0  0  0  0  0  0  0  0  0  0  0
    5.4395  -15.8932   24.7300 O   0  0  0  0  0  0  0  0  0  0  0  0
   11.7783  -19.0011   25.4207 O   0  0  0  0  0  0  0  0  0  0  0  0
  2  1  1  1
  3  2  1  0
  4  2  1  0
  4  5  1  1
  6  7  2  0
  6  4  1  0
  8  6  1  0
  9 13  1  0
  9  8  1  0
  9 10  1  6
 11 12  2  0
 11 10  1  0
 13 16  1  0
 14 13  2  0
 15 11  1  0
 16 17  1  0
 17 22  1  0
 18 19  1  0
 17 18  1  1
 19 20  1  0
 20 21  2  0
 20 24  1  0
 22 25  2  0
 22 23  1  0
M  END
$$$$
