VDE.pdb
     RDKit          3D

 25 24  0  0  1  0  0  0  0  0999 V2000
    8.0236  -13.4263   21.0879 C   0  0  0  0  0  0  0  0  0  0  0  0
    8.1784  -13.3244   19.5737 C   0  0  2  0  0  0  0  0  0  0  0  0
    7.1551  -12.3565   19.0210 C   0  0  0  0  0  0  0  0  0  0  0  0
    8.0326  -14.7109   19.0119 C   0  0  2  0  0  0  0  0  0  0  0  0
    6.7293  -15.2794   19.2688 N   0  0  0  0  0  0  0  0  0  0  0  0
    9.0364  -15.6575   19.5635 C   0  0  0  0  0  0  0  0  0  0  0  0
    8.6502  -16.4244   20.4988 O   0  0  0  0  0  0  0  0  0  0  0  0
   10.3621  -15.7291   19.0962 N   0  0  0  0  0  0  0  0  0  0  0  0
   11.2507  -16.7871   19.6100 C   0  0  1  0  0  0  0  0  0  0  0  0
   12.2354  -17.0526   18.5283 C   0  0  0  0  0  0  0  0  0  0  0  0
   11.8158  -17.8673   17.4058 C   0  0  0  0  0  0  0  0  0  0  0  0
   11.0918  -18.8685   17.5233 O   0  0  0  0  0  0  0  0  0  0  0  0
   11.8577  -16.3057   20.8914 C   0  0  0  0  0  0  0  0  0  0  0  0
   12.1609  -15.0968   20.9729 O   0  0  0  0  0  0  0  0  0  0  0  0
   12.2396  -17.5185   16.1325 O   0  0  0  0  0  0  0  0  0  0  0  0
   12.0826  -17.1862   21.9764 N   0  0  0  0  0  0  0  0  0  0  0  0
   12.5908  -16.7280   23.2414 C   0  0  1  0  0  0  0  0  0  0  0  0
   12.0200  -17.5643   24.3311 C   0  0  0  0  0  0  0  0  0  0  0  0
   12.4768  -17.2584   25.7125 C   0  0  0  0  0  0  0  0  0  0  0  0
   11.9485  -18.1227   26.7682 C   0  0  0  0  0  0  0  0  0  0  0  0
   12.0836  -19.3532   26.7356 O   0  0  0  0  0  0  0  0  0  0  0  0
   14.0859  -16.7840   23.1892 C   0  0  0  0  0  0  0  0  0  0  0  0
   14.8507  -15.9480   24.0077 O   0  0  0  0  0  0  0  0  0  0  0  0
   11.2662  -17.5489   27.8556 O   0  0  0  0  0  0  0  0  0  0  0  0
   14.6651  -17.5689   22.4220 O   0  0  0  0  0  0  0  0  0  0  0  0
  2  1  1  1
  3  2  1  0
  4  2  1  0
  4  5  1  1
  6  7  2  0
  6  4  1  0
  8  6  1  0
  9 13  1  0
  9  8  1  0
  9 10  1  6
 11 12  2  0
 11 10  1  0
 13 16  1  0
 14 13  2  0
 15 11  1  0
 16 17  1  0
 17 22  1  0
 18 19  1  0
 17 18  1  1
 19 20  1  0
 20 21  2  0
 20 24  1  0
 22 25  2  0
 22 23  1  0
M  END
$$$$
