VDE.pdb
     RDKit          3D

 25 24  0  0  1  0  0  0  0  0999 V2000
    8.0469  -12.5134   18.4335 C   0  0  0  0  0  0  0  0  0  0  0  0
    7.6849  -13.4477   19.5836 C   0  0  2  0  0  0  0  0  0  0  0  0
    7.1138  -12.6447   20.7319 C   0  0  0  0  0  0  0  0  0  0  0  0
    8.9298  -14.2006   19.9610 C   0  0  2  0  0  0  0  0  0  0  0  0
    9.5302  -14.8794   18.8357 N   0  0  0  0  0  0  0  0  0  0  0  0
    8.6799  -15.2274   21.0055 C   0  0  0  0  0  0  0  0  0  0  0  0
    8.2582  -14.8136   22.1293 O   0  0  0  0  0  0  0  0  0  0  0  0
    8.8894  -16.6033   20.7953 N   0  0  0  0  0  0  0  0  0  0  0  0
    8.5636  -17.5544   21.8733 C   0  0  1  0  0  0  0  0  0  0  0  0
    7.9155  -18.7160   21.2093 C   0  0  0  0  0  0  0  0  0  0  0  0
    8.5148  -19.2323   19.9953 C   0  0  0  0  0  0  0  0  0  0  0  0
    9.7190  -19.1054   19.7224 O   0  0  0  0  0  0  0  0  0  0  0  0
    9.8295  -17.8877   22.6005 C   0  0  0  0  0  0  0  0  0  0  0  0
   10.0058  -19.0748   22.9464 O   0  0  0  0  0  0  0  0  0  0  0  0
    7.7105  -19.9032   19.0867 O   0  0  0  0  0  0  0  0  0  0  0  0
   10.7965  -16.8953   22.8887 N   0  0  0  0  0  0  0  0  0  0  0  0
   12.0015  -17.1893   23.6168 C   0  0  1  0  0  0  0  0  0  0  0  0
   13.0788  -16.2630   23.1763 C   0  0  0  0  0  0  0  0  0  0  0  0
   14.3763  -16.3627   23.8953 C   0  0  0  0  0  0  0  0  0  0  0  0
   15.5743  -16.1141   23.0930 C   0  0  0  0  0  0  0  0  0  0  0  0
   15.9514  -14.9671   22.8179 O   0  0  0  0  0  0  0  0  0  0  0  0
   11.7003  -17.0759   25.0788 C   0  0  0  0  0  0  0  0  0  0  0  0
   12.5188  -17.7105   26.0175 O   0  0  0  0  0  0  0  0  0  0  0  0
   16.3259  -17.2026   22.6159 O   0  0  0  0  0  0  0  0  0  0  0  0
   10.7243  -16.4207   25.4767 O   0  0  0  0  0  0  0  0  0  0  0  0
  2  1  1  6
  3  2  1  0
  4  2  1  0
  4  5  1  6
  6  7  2  0
  6  4  1  0
  8  6  1  0
  9 13  1  0
  9  8  1  0
  9 10  1  6
 11 12  2  0
 11 10  1  0
 13 16  1  0
 14 13  2  0
 15 11  1  0
 16 17  1  0
 17 22  1  0
 18 19  1  0
 17 18  1  6
 19 20  1  0
 20 21  2  0
 20 24  1  0
 22 25  2  0
 22 23  1  0
M  END
$$$$
