VDE.pdb
     RDKit          3D

 25 24  0  0  1  0  0  0  0  0999 V2000
    7.7729  -14.3696   19.0461 C   0  0  0  0  0  0  0  0  0  0  0  0
    8.2646  -13.2395   19.9450 C   0  0  2  0  0  0  0  0  0  0  0  0
    8.1419  -11.9189   19.2167 C   0  0  0  0  0  0  0  0  0  0  0  0
    9.6799  -13.5597   20.3373 C   0  0  2  0  0  0  0  0  0  0  0  0
   10.5565  -13.6882   19.1959 N   0  0  0  0  0  0  0  0  0  0  0  0
    9.7845  -14.8243   21.1105 C   0  0  0  0  0  0  0  0  0  0  0  0
    8.9788  -14.9734   22.0804 O   0  0  0  0  0  0  0  0  0  0  0  0
   10.7203  -15.8321   20.8111 N   0  0  0  0  0  0  0  0  0  0  0  0
   10.8186  -17.0088   21.6934 C   0  0  1  0  0  0  0  0  0  0  0  0
   11.5664  -18.0356   20.9210 C   0  0  0  0  0  0  0  0  0  0  0  0
   10.8938  -18.6821   19.8122 C   0  0  0  0  0  0  0  0  0  0  0  0
   11.3934  -18.7892   18.6811 O   0  0  0  0  0  0  0  0  0  0  0  0
   11.4879  -16.5851   22.9642 C   0  0  0  0  0  0  0  0  0  0  0  0
   12.5928  -16.0097   22.8753 O   0  0  0  0  0  0  0  0  0  0  0  0
    9.6282  -19.2107   20.0155 O   0  0  0  0  0  0  0  0  0  0  0  0
   10.8932  -16.8260   24.2257 N   0  0  0  0  0  0  0  0  0  0  0  0
   11.5217  -16.4281   25.4566 C   0  0  1  0  0  0  0  0  0  0  0  0
   10.5084  -15.7938   26.3418 C   0  0  0  0  0  0  0  0  0  0  0  0
   11.0279  -15.0359   27.5105 C   0  0  0  0  0  0  0  0  0  0  0  0
   10.0215  -14.3982   28.3596 C   0  0  0  0  0  0  0  0  0  0  0  0
    9.4648  -15.0058   29.2839 O   0  0  0  0  0  0  0  0  0  0  0  0
   12.1508  -17.6403   26.0700 C   0  0  0  0  0  0  0  0  0  0  0  0
   13.2111  -17.5036   26.9705 O   0  0  0  0  0  0  0  0  0  0  0  0
    9.6692  -13.0568   28.1271 O   0  0  0  0  0  0  0  0  0  0  0  0
   11.7428  -18.7780   25.7889 O   0  0  0  0  0  0  0  0  0  0  0  0
  2  1  1  6
  3  2  1  0
  4  2  1  0
  4  5  1  6
  6  7  2  0
  6  4  1  0
  8  6  1  0
  9 13  1  0
  9  8  1  0
  9 10  1  6
 11 12  2  0
 11 10  1  0
 13 16  1  0
 14 13  2  0
 15 11  1  0
 16 17  1  0
 17 22  1  0
 18 19  1  0
 17 18  1  1
 19 20  1  0
 20 21  2  0
 20 24  1  0
 22 25  2  0
 22 23  1  0
M  END
$$$$
