VDE.pdb
     RDKit          3D

 25 24  0  0  1  0  0  0  0  0999 V2000
    8.0993  -13.0099   27.1485 C   0  0  0  0  0  0  0  0  0  0  0  0
    7.3382  -12.4981   25.9296 C   0  0  2  0  0  0  0  0  0  0  0  0
    6.4407  -11.3493   26.3347 C   0  0  0  0  0  0  0  0  0  0  0  0
    6.5758  -13.6590   25.3548 C   0  0  2  0  0  0  0  0  0  0  0  0
    5.6578  -14.2447   26.3045 N   0  0  0  0  0  0  0  0  0  0  0  0
    7.4684  -14.7493   24.8834 C   0  0  0  0  0  0  0  0  0  0  0  0
    7.5112  -15.8033   25.5901 O   0  0  0  0  0  0  0  0  0  0  0  0
    8.2448  -14.6541   23.7133 N   0  0  0  0  0  0  0  0  0  0  0  0
    9.0239  -15.8238   23.2688 C   0  0  1  0  0  0  0  0  0  0  0  0
    9.1814  -15.6732   21.7982 C   0  0  0  0  0  0  0  0  0  0  0  0
    8.0471  -15.9867   20.9528 C   0  0  0  0  0  0  0  0  0  0  0  0
    7.2902  -16.9490   21.1571 O   0  0  0  0  0  0  0  0  0  0  0  0
   10.3145  -15.8413   24.0281 C   0  0  0  0  0  0  0  0  0  0  0  0
   11.0196  -14.8108   23.9998 O   0  0  0  0  0  0  0  0  0  0  0  0
    7.7861  -15.1766   19.8582 O   0  0  0  0  0  0  0  0  0  0  0  0
   10.7261  -16.9840   24.7547 N   0  0  0  0  0  0  0  0  0  0  0  0
   12.0281  -17.0793   25.3582 C   0  0  1  0  0  0  0  0  0  0  0  0
   11.8781  -17.4401   26.7934 C   0  0  0  0  0  0  0  0  0  0  0  0
   11.2713  -16.4106   27.6778 C   0  0  0  0  0  0  0  0  0  0  0  0
   11.1304  -16.7786   29.0868 C   0  0  0  0  0  0  0  0  0  0  0  0
   11.6277  -17.8158   29.5453 O   0  0  0  0  0  0  0  0  0  0  0  0
   12.8250  -18.0851   24.5870 C   0  0  0  0  0  0  0  0  0  0  0  0
   14.1983  -18.2172   24.8119 O   0  0  0  0  0  0  0  0  0  0  0  0
   10.4112  -15.9364   29.9534 O   0  0  0  0  0  0  0  0  0  0  0  0
   12.2810  -18.8119   23.7410 O   0  0  0  0  0  0  0  0  0  0  0  0
  2  1  1  1
  3  2  1  0
  4  2  1  0
  4  5  1  1
  6  7  2  0
  6  4  1  0
  8  6  1  0
  9 13  1  0
  9  8  1  0
  9 10  1  6
 11 12  2  0
 11 10  1  0
 13 16  1  0
 14 13  2  0
 15 11  1  0
 16 17  1  0
 17 22  1  0
 18 19  1  0
 17 18  1  1
 19 20  1  0
 20 21  2  0
 20 24  1  0
 22 25  2  0
 22 23  1  0
M  END
$$$$
