VDE.pdb
     RDKit          3D

 25 24  0  0  1  0  0  0  0  0999 V2000
   10.1316  -18.3347   18.7433 C   0  0  0  0  0  0  0  0  0  0  0  0
    9.4774  -19.4537   17.9390 C   0  0  2  0  0  0  0  0  0  0  0  0
    9.4039  -19.0571   16.4806 C   0  0  0  0  0  0  0  0  0  0  0  0
    8.1248  -19.7103   18.5423 C   0  0  2  0  0  0  0  0  0  0  0  0
    7.2498  -18.5643   18.4504 N   0  0  0  0  0  0  0  0  0  0  0  0
    8.2032  -20.0837   19.9784 C   0  0  0  0  0  0  0  0  0  0  0  0
    8.1102  -19.1407   20.8235 O   0  0  0  0  0  0  0  0  0  0  0  0
    8.3721  -21.4098   20.4188 N   0  0  0  0  0  0  0  0  0  0  0  0
    8.4619  -21.6826   21.8646 C   0  0  1  0  0  0  0  0  0  0  0  0
    7.9315  -23.0586   22.0531 C   0  0  0  0  0  0  0  0  0  0  0  0
    7.6738  -23.5136   23.4045 C   0  0  0  0  0  0  0  0  0  0  0  0
    7.8500  -22.8041   24.4076 O   0  0  0  0  0  0  0  0  0  0  0  0
    9.8886  -21.5092   22.2849 C   0  0  0  0  0  0  0  0  0  0  0  0
   10.7727  -22.0196   21.5653 O   0  0  0  0  0  0  0  0  0  0  0  0
    7.2069  -24.8049   23.5966 O   0  0  0  0  0  0  0  0  0  0  0  0
   10.2293  -20.7924   23.4568 N   0  0  0  0  0  0  0  0  0  0  0  0
   11.5922  -20.6340   23.8880 C   0  0  1  0  0  0  0  0  0  0  0  0
   11.8662  -19.1917   24.1276 C   0  0  0  0  0  0  0  0  0  0  0  0
   12.1111  -18.3528   22.9248 C   0  0  0  0  0  0  0  0  0  0  0  0
   12.4153  -16.9442   23.1771 C   0  0  0  0  0  0  0  0  0  0  0  0
   11.6703  -16.2251   23.8563 O   0  0  0  0  0  0  0  0  0  0  0  0
   11.7931  -21.4739   25.1109 C   0  0  0  0  0  0  0  0  0  0  0  0
   13.0822  -21.8363   25.5119 O   0  0  0  0  0  0  0  0  0  0  0  0
   13.5852  -16.3813   22.6369 O   0  0  0  0  0  0  0  0  0  0  0  0
   10.8233  -21.8591   25.7824 O   0  0  0  0  0  0  0  0  0  0  0  0
  2  1  1  1
  3  2  1  0
  4  2  1  0
  4  5  1  1
  6  7  2  0
  6  4  1  0
  8  6  1  0
  9 13  1  0
  9  8  1  0
  9 10  1  6
 11 12  2  0
 11 10  1  0
 13 16  1  0
 14 13  2  0
 15 11  1  0
 16 17  1  0
 17 22  1  0
 18 19  1  0
 17 18  1  1
 19 20  1  0
 20 21  2  0
 20 24  1  0
 22 25  2  0
 22 23  1  0
M  END
$$$$
