VDE.pdb
     RDKit          3D

 25 24  0  0  1  0  0  0  0  0999 V2000
    8.0066  -13.1017   26.8132 C   0  0  0  0  0  0  0  0  0  0  0  0
    7.0961  -12.7801   25.6324 C   0  0  2  0  0  0  0  0  0  0  0  0
    6.0531  -11.7682   26.0539 C   0  0  0  0  0  0  0  0  0  0  0  0
    6.4953  -14.0749   25.1614 C   0  0  2  0  0  0  0  0  0  0  0  0
    5.7432  -14.7465   26.1963 N   0  0  0  0  0  0  0  0  0  0  0  0
    7.5201  -15.0351   24.6760 C   0  0  0  0  0  0  0  0  0  0  0  0
    7.8167  -15.9985   25.4480 O   0  0  0  0  0  0  0  0  0  0  0  0
    8.1537  -14.9145   23.4249 N   0  0  0  0  0  0  0  0  0  0  0  0
    9.1093  -15.9527   22.9985 C   0  0  1  0  0  0  0  0  0  0  0  0
    9.2320  -15.8122   21.5236 C   0  0  0  0  0  0  0  0  0  0  0  0
    8.1183  -16.2389   20.7006 C   0  0  0  0  0  0  0  0  0  0  0  0
    7.8484  -15.7290   19.6016 O   0  0  0  0  0  0  0  0  0  0  0  0
   10.3900  -15.7441   23.7460 C   0  0  0  0  0  0  0  0  0  0  0  0
   10.6711  -14.5811   24.1042 O   0  0  0  0  0  0  0  0  0  0  0  0
    7.3079  -17.2679   21.1553 O   0  0  0  0  0  0  0  0  0  0  0  0
   11.2560  -16.8244   24.0393 N   0  0  0  0  0  0  0  0  0  0  0  0
   12.0634  -16.8568   25.2291 C   0  0  1  0  0  0  0  0  0  0  0  0
   11.1821  -16.7520   26.4228 C   0  0  0  0  0  0  0  0  0  0  0  0
   11.8500  -16.8120   27.7497 C   0  0  0  0  0  0  0  0  0  0  0  0
   10.9766  -16.6645   28.9141 C   0  0  0  0  0  0  0  0  0  0  0  0
   10.0560  -17.4594   29.1466 O   0  0  0  0  0  0  0  0  0  0  0  0
   12.8676  -18.1194   25.2104 C   0  0  0  0  0  0  0  0  0  0  0  0
   14.1570  -18.1408   25.7498 O   0  0  0  0  0  0  0  0  0  0  0  0
   11.1805  -15.5923   29.8008 O   0  0  0  0  0  0  0  0  0  0  0  0
   12.4040  -19.1598   24.7179 O   0  0  0  0  0  0  0  0  0  0  0  0
  2  1  1  1
  3  2  1  0
  4  2  1  0
  4  5  1  1
  6  7  2  0
  6  4  1  0
  8  6  1  0
  9 13  1  0
  9  8  1  0
  9 10  1  6
 11 12  2  0
 11 10  1  0
 13 16  1  0
 14 13  2  0
 15 11  1  0
 16 17  1  0
 17 22  1  0
 18 19  1  0
 17 18  1  1
 19 20  1  0
 20 21  2  0
 20 24  1  0
 22 25  2  0
 22 23  1  0
M  END
$$$$
