PMP.pdb
     RDKit          3D

 23 24  0  0  1  0  0  0  0  0999 V2000
   28.4028  -17.7305  -16.7295 N   0  0  0  0  0  0  0  0  0  0  0  0
   28.3520  -16.4629  -17.3884 C   0  0  0  0  0  0  0  0  0  0  0  0
   27.3173  -15.6070  -16.6944 C   0  0  0  0  0  0  0  0  0  0  0  0
   26.5575  -16.6551  -15.8737 C   0  0  0  0  0  0  0  0  0  0  0  0
   27.6662  -17.5824  -15.5030 C   0  0  1  0  0  0  0  0  0  0  0  0
   27.2298  -18.8683  -14.9344 C   0  0  0  0  0  0  0  0  0  0  0  0
   26.9716  -19.8140  -15.7352 O   0  0  0  0  0  0  0  0  0  0  0  0
   25.3303  -19.9523   -8.5047 C   0  0  0  0  0  0  0  0  0  0  0  0
   26.0905  -21.4736   -9.1255 S   0  0  0  0  0  0  0  0  0  0  0  0
   25.8201  -21.5447  -10.9350 C   0  0  0  0  0  0  0  0  0  0  0  0
   26.4858  -20.3178  -11.5107 C   0  0  0  0  0  0  0  0  0  0  0  0
   26.3786  -20.2829  -13.0318 C   0  0  2  0  0  0  0  0  0  0  0  0
   27.0689  -19.1561  -13.5535 N   0  0  0  0  0  0  0  0  0  0  0  0
   24.9551  -20.4135  -13.3992 C   0  0  0  0  0  0  0  0  0  0  0  0
   24.2960  -19.3193  -13.2366 O   0  0  0  0  0  0  0  0  0  0  0  0
   24.3169  -21.5752  -13.8810 N   0  0  0  0  0  0  0  0  0  0  0  0
   24.8705  -22.9036  -14.0479 C   0  0  0  0  0  0  0  0  0  0  0  0
   23.6627  -23.8069  -14.2442 C   0  0  0  0  0  0  0  0  0  0  0  0
   22.7061  -22.8800  -15.0118 C   0  0  0  0  0  0  0  0  0  0  0  0
   22.9167  -21.5790  -14.2935 C   0  0  1  0  0  0  0  0  0  0  0  0
   22.0336  -21.5373  -13.0876 C   0  0  0  0  0  0  0  0  0  0  0  0
   22.4747  -21.8066  -11.9447 O   0  0  0  0  0  0  0  0  0  0  0  0
   20.6927  -21.1975  -13.1979 O   0  0  0  0  0  0  0  0  0  0  0  0
  2  3  1  0
  2  1  1  0
  4  3  1  0
  5  6  1  6
  5  4  1  0
  5  1  1  0
  6  7  2  0
  9  8  1  0
  9 10  1  0
 10 11  1  0
 12 11  1  1
 12 14  1  0
 13 12  1  0
 13  6  1  0
 14 15  2  0
 14 16  1  0
 16 17  1  0
 16 20  1  0
 18 17  1  0
 18 19  1  0
 19 20  1  0
 20 21  1  1
 21 22  2  0
 21 23  1  0
M  END
$$$$
