PMP.pdb
     RDKit          3D

 23 24  0  0  1  0  0  0  0  0999 V2000
   27.2785  -17.4434  -15.0895 N   0  0  0  0  0  0  0  0  0  0  0  0
   28.0834  -16.5364  -15.8465 C   0  0  0  0  0  0  0  0  0  0  0  0
   29.1075  -17.3380  -16.6168 C   0  0  0  0  0  0  0  0  0  0  0  0
   29.0297  -18.6933  -15.9052 C   0  0  0  0  0  0  0  0  0  0  0  0
   27.5741  -18.7612  -15.5843 C   0  0  1  0  0  0  0  0  0  0  0  0
   27.2002  -19.8279  -14.6409 C   0  0  0  0  0  0  0  0  0  0  0  0
   27.2679  -21.0261  -15.0432 O   0  0  0  0  0  0  0  0  0  0  0  0
   26.2981  -19.3369   -8.2623 C   0  0  0  0  0  0  0  0  0  0  0  0
   25.9732  -21.1032   -8.4919 S   0  0  0  0  0  0  0  0  0  0  0  0
   25.4564  -21.3630  -10.2291 C   0  0  0  0  0  0  0  0  0  0  0  0
   26.2276  -20.3610  -11.0543 C   0  0  0  0  0  0  0  0  0  0  0  0
   26.0211  -20.5871  -12.5485 C   0  0  2  0  0  0  0  0  0  0  0  0
   26.7654  -19.6407  -13.3026 N   0  0  0  0  0  0  0  0  0  0  0  0
   24.5700  -20.6470  -12.8118 C   0  0  0  0  0  0  0  0  0  0  0  0
   23.9638  -19.5507  -12.5142 O   0  0  0  0  0  0  0  0  0  0  0  0
   23.8568  -21.7478  -13.3300 N   0  0  0  0  0  0  0  0  0  0  0  0
   24.3228  -23.1028  -13.5444 C   0  0  0  0  0  0  0  0  0  0  0  0
   23.0586  -23.9188  -13.7660 C   0  0  0  0  0  0  0  0  0  0  0  0
   22.1624  -22.9062  -14.4975 C   0  0  0  0  0  0  0  0  0  0  0  0
   22.4585  -21.6469  -13.7363 C   0  0  1  0  0  0  0  0  0  0  0  0
   21.5825  -21.5893  -12.5259 C   0  0  0  0  0  0  0  0  0  0  0  0
   22.0221  -21.8763  -11.3867 O   0  0  0  0  0  0  0  0  0  0  0  0
   20.2503  -21.2147  -12.6277 O   0  0  0  0  0  0  0  0  0  0  0  0
  2  3  1  0
  2  1  1  0
  4  3  1  0
  5  6  1  1
  5  4  1  0
  5  1  1  0
  6  7  2  0
  9  8  1  0
  9 10  1  0
 10 11  1  0
 12 11  1  1
 12 14  1  0
 13 12  1  0
 13  6  1  0
 14 15  2  0
 14 16  1  0
 16 17  1  0
 16 20  1  0
 18 17  1  0
 18 19  1  0
 19 20  1  0
 20 21  1  1
 21 22  2  0
 21 23  1  0
M  END
$$$$
