PMP.pdb
     RDKit          3D

 23 24  0  0  1  0  0  0  0  0999 V2000
   32.1378  -31.3200  -21.4274 N   0  0  0  0  0  0  0  0  0  0  0  0
   32.4685  -31.8399  -22.7174 C   0  0  0  0  0  0  0  0  0  0  0  0
   31.2318  -31.7833  -23.5846 C   0  0  0  0  0  0  0  0  0  0  0  0
   30.1361  -31.5600  -22.5364 C   0  0  0  0  0  0  0  0  0  0  0  0
   30.8523  -30.6885  -21.5597 C   0  0  1  0  0  0  0  0  0  0  0  0
   30.1626  -30.5108  -20.2712 C   0  0  0  0  0  0  0  0  0  0  0  0
   30.2084  -31.4623  -19.4376 O   0  0  0  0  0  0  0  0  0  0  0  0
   27.5019  -24.9077  -17.6094 C   0  0  0  0  0  0  0  0  0  0  0  0
   28.3595  -25.8580  -16.3290 S   0  0  0  0  0  0  0  0  0  0  0  0
   28.2296  -27.6332  -16.7583 C   0  0  0  0  0  0  0  0  0  0  0  0
   28.7966  -27.7743  -18.1506 C   0  0  0  0  0  0  0  0  0  0  0  0
   28.7514  -29.2213  -18.6308 C   0  0  2  0  0  0  0  0  0  0  0  0
   29.4408  -29.3576  -19.8655 N   0  0  0  0  0  0  0  0  0  0  0  0
   27.3469  -29.6744  -18.6052 C   0  0  0  0  0  0  0  0  0  0  0  0
   26.6437  -29.1721  -19.5598 O   0  0  0  0  0  0  0  0  0  0  0  0
   26.7677  -30.5570  -17.6701 N   0  0  0  0  0  0  0  0  0  0  0  0
   27.3727  -31.1457  -16.4925 C   0  0  0  0  0  0  0  0  0  0  0  0
   26.2050  -31.6985  -15.6900 C   0  0  0  0  0  0  0  0  0  0  0  0
   25.2466  -32.1434  -16.8067 C   0  0  0  0  0  0  0  0  0  0  0  0
   25.3851  -31.0112  -17.7823 C   0  0  1  0  0  0  0  0  0  0  0  0
   24.4562  -29.9083  -17.3869 C   0  0  0  0  0  0  0  0  0  0  0  0
   24.8775  -28.8683  -16.8263 O   0  0  0  0  0  0  0  0  0  0  0  0
   23.0933  -30.0030  -17.6299 O   0  0  0  0  0  0  0  0  0  0  0  0
  2  3  1  0
  2  1  1  0
  4  3  1  0
  5  6  1  1
  5  4  1  0
  5  1  1  0
  6  7  2  0
  9  8  1  0
  9 10  1  0
 10 11  1  0
 12 11  1  6
 12 14  1  0
 13 12  1  0
 13  6  1  0
 14 15  2  0
 14 16  1  0
 16 17  1  0
 16 20  1  0
 18 17  1  0
 18 19  1  0
 19 20  1  0
 20 21  1  1
 21 22  2  0
 21 23  1  0
M  END
$$$$
