PMP.pdb
     RDKit          3D

 23 24  0  0  1  0  0  0  0  0999 V2000
   21.6451  -10.4837  -17.7670 N   0  0  0  0  0  0  0  0  0  0  0  0
   21.8217  -11.7918  -18.3160 C   0  0  0  0  0  0  0  0  0  0  0  0
   20.6085  -12.6225  -17.9660 C   0  0  0  0  0  0  0  0  0  0  0  0
   19.9657  -11.7720  -16.8648 C   0  0  0  0  0  0  0  0  0  0  0  0
   20.2694  -10.3963  -17.3563 C   0  0  1  0  0  0  0  0  0  0  0  0
   20.0280   -9.3245  -16.3762 C   0  0  0  0  0  0  0  0  0  0  0  0
   18.8581   -9.2005  -15.9089 O   0  0  0  0  0  0  0  0  0  0  0  0
   21.6037  -10.1138  -10.2761 C   0  0  0  0  0  0  0  0  0  0  0  0
   22.1708   -8.7629  -11.3397 S   0  0  0  0  0  0  0  0  0  0  0  0
   21.0666   -8.6884  -12.7983 C   0  0  0  0  0  0  0  0  0  0  0  0
   21.6236   -7.6096  -13.6960 C   0  0  0  0  0  0  0  0  0  0  0  0
   20.7470   -7.3948  -14.9256 C   0  0  2  0  0  0  0  0  0  0  0  0
   20.9948   -8.4028  -15.8956 N   0  0  0  0  0  0  0  0  0  0  0  0
   20.9072   -5.9966  -15.3704 C   0  0  0  0  0  0  0  0  0  0  0  0
   22.0156   -5.7961  -15.9943 O   0  0  0  0  0  0  0  0  0  0  0  0
   19.9916   -4.9429  -15.1699 N   0  0  0  0  0  0  0  0  0  0  0  0
   18.6857   -4.9913  -14.5440 C   0  0  0  0  0  0  0  0  0  0  0  0
   18.3254   -3.5370  -14.2822 C   0  0  0  0  0  0  0  0  0  0  0  0
   18.9716   -2.8373  -15.4890 C   0  0  0  0  0  0  0  0  0  0  0  0
   20.2742   -3.5755  -15.5950 C   0  0  1  0  0  0  0  0  0  0  0  0
   21.2670   -2.9518  -14.6669 C   0  0  0  0  0  0  0  0  0  0  0  0
   21.5171   -3.4530  -13.5446 O   0  0  0  0  0  0  0  0  0  0  0  0
   21.9445   -1.7940  -15.0217 O   0  0  0  0  0  0  0  0  0  0  0  0
  2  3  1  0
  2  1  1  0
  4  3  1  0
  5  6  1  1
  5  4  1  0
  5  1  1  0
  6  7  2  0
  9  8  1  0
  9 10  1  0
 10 11  1  0
 12 11  1  1
 12 14  1  0
 13 12  1  0
 13  6  1  0
 14 15  2  0
 14 16  1  0
 16 17  1  0
 16 20  1  0
 18 17  1  0
 18 19  1  0
 19 20  1  0
 20 21  1  1
 21 22  2  0
 21 23  1  0
M  END
$$$$
