PMP.pdb
     RDKit          3D

 23 24  0  0  1  0  0  0  0  0999 V2000
   20.6509  -20.2533  -15.0514 N   0  0  0  0  0  0  0  0  0  0  0  0
   19.3027  -19.8826  -15.3492 C   0  0  0  0  0  0  0  0  0  0  0  0
   19.2510  -18.3832  -15.5329 C   0  0  0  0  0  0  0  0  0  0  0  0
   20.5920  -17.9566  -14.9255 C   0  0  0  0  0  0  0  0  0  0  0  0
   21.4623  -19.0989  -15.3306 C   0  0  1  0  0  0  0  0  0  0  0  0
   22.7737  -19.1416  -14.6627 C   0  0  0  0  0  0  0  0  0  0  0  0
   23.7241  -18.4842  -15.1793 O   0  0  0  0  0  0  0  0  0  0  0  0
   25.5104  -18.9493   -9.1695 C   0  0  0  0  0  0  0  0  0  0  0  0
   25.7015  -20.7408   -9.3491 S   0  0  0  0  0  0  0  0  0  0  0  0
   25.7331  -21.1307  -11.1377 C   0  0  0  0  0  0  0  0  0  0  0  0
   24.3470  -20.8369  -11.6594 C   0  0  0  0  0  0  0  0  0  0  0  0
   24.3930  -20.1707  -13.0307 C   0  0  2  0  0  0  0  0  0  0  0  0
   23.0808  -19.8584  -13.4765 N   0  0  0  0  0  0  0  0  0  0  0  0
   25.2124  -21.0103  -13.9264 C   0  0  0  0  0  0  0  0  0  0  0  0
   24.6587  -22.1417  -14.1935 O   0  0  0  0  0  0  0  0  0  0  0  0
   26.4711  -20.6774  -14.4683 N   0  0  0  0  0  0  0  0  0  0  0  0
   27.3634  -19.6039  -14.0803 C   0  0  0  0  0  0  0  0  0  0  0  0
   28.6919  -19.9452  -14.7374 C   0  0  0  0  0  0  0  0  0  0  0  0
   28.2279  -20.6082  -16.0446 C   0  0  0  0  0  0  0  0  0  0  0  0
   27.0722  -21.4351  -15.5615 C   0  0  1  0  0  0  0  0  0  0  0  0
   27.5863  -22.7423  -15.0488 C   0  0  0  0  0  0  0  0  0  0  0  0
   27.6438  -22.9852  -13.8196 O   0  0  0  0  0  0  0  0  0  0  0  0
   28.0172  -23.7305  -15.9224 O   0  0  0  0  0  0  0  0  0  0  0  0
  2  3  1  0
  2  1  1  0
  4  3  1  0
  5  6  1  1
  5  4  1  0
  5  1  1  0
  6  7  2  0
  9  8  1  0
  9 10  1  0
 10 11  1  0
 12 11  1  1
 12 14  1  0
 13 12  1  0
 13  6  1  0
 14 15  2  0
 14 16  1  0
 16 17  1  0
 16 20  1  0
 18 17  1  0
 18 19  1  0
 19 20  1  0
 20 21  1  1
 21 22  2  0
 21 23  1  0
M  END
$$$$
