PMP.pdb
     RDKit          3D

 23 24  0  0  1  0  0  0  0  0999 V2000
   24.8522  -20.1520  -11.8399 N   0  0  0  0  0  0  0  0  0  0  0  0
   24.4156  -20.6034  -13.1241 C   0  0  0  0  0  0  0  0  0  0  0  0
   25.3649  -21.6798  -13.5982 C   0  0  0  0  0  0  0  0  0  0  0  0
   26.5485  -21.4821  -12.6447 C   0  0  0  0  0  0  0  0  0  0  0  0
   25.8394  -21.0962  -11.3898 C   0  0  1  0  0  0  0  0  0  0  0  0
   26.7095  -20.5590  -10.3306 C   0  0  0  0  0  0  0  0  0  0  0  0
   27.7331  -19.9016  -10.6804 O   0  0  0  0  0  0  0  0  0  0  0  0
   28.8731  -15.7658   -6.3171 C   0  0  0  0  0  0  0  0  0  0  0  0
   27.1912  -16.4340   -6.3694 S   0  0  0  0  0  0  0  0  0  0  0  0
   27.2993  -18.2543   -6.2045 C   0  0  0  0  0  0  0  0  0  0  0  0
   26.5885  -18.8308   -7.4054 C   0  0  0  0  0  0  0  0  0  0  0  0
   27.2910  -20.0801   -7.9270 C   0  0  2  0  0  0  0  0  0  0  0  0
   26.5086  -20.7075   -8.9331 N   0  0  0  0  0  0  0  0  0  0  0  0
   27.6720  -20.9144   -6.7705 C   0  0  0  0  0  0  0  0  0  0  0  0
   26.7057  -21.6543   -6.3500 O   0  0  0  0  0  0  0  0  0  0  0  0
   28.9340  -20.9500   -6.1421 N   0  0  0  0  0  0  0  0  0  0  0  0
   30.1123  -20.1621   -6.4421 C   0  0  0  0  0  0  0  0  0  0  0  0
   31.0265  -20.3562   -5.2422 C   0  0  0  0  0  0  0  0  0  0  0  0
   30.7123  -21.8084   -4.8472 C   0  0  0  0  0  0  0  0  0  0  0  0
   29.2227  -21.8472   -5.0275 C   0  0  1  0  0  0  0  0  0  0  0  0
   28.5659  -21.3380   -3.7845 C   0  0  0  0  0  0  0  0  0  0  0  0
   28.5639  -22.0087   -2.7245 O   0  0  0  0  0  0  0  0  0  0  0  0
   27.9359  -20.1017   -3.7667 O   0  0  0  0  0  0  0  0  0  0  0  0
  2  3  1  0
  2  1  1  0
  4  3  1  0
  5  6  1  1
  5  4  1  0
  5  1  1  0
  6  7  2  0
  9  8  1  0
  9 10  1  0
 10 11  1  0
 12 11  1  1
 12 14  1  0
 13 12  1  0
 13  6  1  0
 14 15  2  0
 14 16  1  0
 16 17  1  0
 16 20  1  0
 18 17  1  0
 18 19  1  0
 19 20  1  0
 20 21  1  1
 21 22  2  0
 21 23  1  0
M  END
$$$$
