PMP.pdb
     RDKit          3D

 23 24  0  0  1  0  0  0  0  0999 V2000
   22.1597  -13.0594  -20.0605 N   0  0  0  0  0  0  0  0  0  0  0  0
   22.4162  -14.2140  -20.8633 C   0  0  0  0  0  0  0  0  0  0  0  0
   21.3135  -15.2184  -20.6184 C   0  0  0  0  0  0  0  0  0  0  0  0
   20.6764  -14.6638  -19.3394 C   0  0  0  0  0  0  0  0  0  0  0  0
   20.8153  -13.1958  -19.5678 C   0  0  1  0  0  0  0  0  0  0  0  0
   20.5475  -12.3602  -18.3856 C   0  0  0  0  0  0  0  0  0  0  0  0
   19.3755  -12.3668  -17.9076 O   0  0  0  0  0  0  0  0  0  0  0  0
   22.8958  -10.1087  -11.3966 C   0  0  0  0  0  0  0  0  0  0  0  0
   23.2725  -10.8607  -12.9999 S   0  0  0  0  0  0  0  0  0  0  0  0
   21.9495  -10.3860  -14.1732 C   0  0  0  0  0  0  0  0  0  0  0  0
   22.2965  -11.0400  -15.4892 C   0  0  0  0  0  0  0  0  0  0  0  0
   21.2257  -10.7810  -16.5441 C   0  0  2  0  0  0  0  0  0  0  0  0
   21.4909  -11.5356  -17.7181 N   0  0  0  0  0  0  0  0  0  0  0  0
   21.0866   -9.3215  -16.7145 C   0  0  0  0  0  0  0  0  0  0  0  0
   22.1611   -8.7669  -17.1572 O   0  0  0  0  0  0  0  0  0  0  0  0
   19.9367   -8.5515  -16.4428 N   0  0  0  0  0  0  0  0  0  0  0  0
   18.6652   -8.9906  -15.9047 C   0  0  0  0  0  0  0  0  0  0  0  0
   17.9545   -7.7110  -15.4916 C   0  0  0  0  0  0  0  0  0  0  0  0
   18.4441   -6.7260  -16.5657 C   0  0  0  0  0  0  0  0  0  0  0  0
   19.8896   -7.1126  -16.6832 C   0  0  1  0  0  0  0  0  0  0  0  0
   20.6745   -6.3974  -15.6305 C   0  0  0  0  0  0  0  0  0  0  0  0
   21.1213   -7.0006  -14.6255 O   0  0  0  0  0  0  0  0  0  0  0  0
   20.9333   -5.0382  -15.7348 O   0  0  0  0  0  0  0  0  0  0  0  0
  2  3  1  0
  2  1  1  0
  4  3  1  0
  5  6  1  1
  5  4  1  0
  5  1  1  0
  6  7  2  0
  9  8  1  0
  9 10  1  0
 10 11  1  0
 12 11  1  1
 12 14  1  0
 13 12  1  0
 13  6  1  0
 14 15  2  0
 14 16  1  0
 16 17  1  0
 16 20  1  0
 18 17  1  0
 18 19  1  0
 19 20  1  0
 20 21  1  1
 21 22  2  0
 21 23  1  0
M  END
$$$$
