PMP.pdb
     RDKit          3D

 23 24  0  0  1  0  0  0  0  0999 V2000
   27.7350  -20.0434  -17.1985 N   0  0  0  0  0  0  0  0  0  0  0  0
   28.9093  -19.6880  -17.9322 C   0  0  0  0  0  0  0  0  0  0  0  0
   29.9463  -20.7675  -17.7225 C   0  0  0  0  0  0  0  0  0  0  0  0
   29.3675  -21.5140  -16.5155 C   0  0  0  0  0  0  0  0  0  0  0  0
   27.9052  -21.4135  -16.7953 C   0  0  1  0  0  0  0  0  0  0  0  0
   27.0351  -21.7953  -15.6707 C   0  0  0  0  0  0  0  0  0  0  0  0
   26.6072  -22.9859  -15.6294 O   0  0  0  0  0  0  0  0  0  0  0  0
   24.9093  -20.9134   -8.2003 C   0  0  0  0  0  0  0  0  0  0  0  0
   25.9567  -20.4150   -9.5904 S   0  0  0  0  0  0  0  0  0  0  0  0
   25.2392  -21.1184  -11.1211 C   0  0  0  0  0  0  0  0  0  0  0  0
   26.1582  -20.7077  -12.2466 C   0  0  0  0  0  0  0  0  0  0  0  0
   25.7207  -21.3119  -13.5770 C   0  0  2  0  0  0  0  0  0  0  0  0
   26.6235  -20.9453  -14.6108 N   0  0  0  0  0  0  0  0  0  0  0  0
   24.2992  -20.9781  -13.7924 C   0  0  0  0  0  0  0  0  0  0  0  0
   24.0809  -19.7091  -13.7998 O   0  0  0  0  0  0  0  0  0  0  0  0
   23.2418  -21.8929  -13.9764 N   0  0  0  0  0  0  0  0  0  0  0  0
   23.2632  -23.3347  -13.8345 C   0  0  0  0  0  0  0  0  0  0  0  0
   21.7988  -23.7435  -13.7927 C   0  0  0  0  0  0  0  0  0  0  0  0
   21.1641  -22.7136  -14.7415 C   0  0  0  0  0  0  0  0  0  0  0  0
   21.8988  -21.4635  -14.3536 C   0  0  1  0  0  0  0  0  0  0  0  0
   21.2173  -20.8407  -13.1773 C   0  0  0  0  0  0  0  0  0  0  0  0
   20.1814  -20.1467  -13.3140 O   0  0  0  0  0  0  0  0  0  0  0  0
   21.7134  -21.0129  -11.8929 O   0  0  0  0  0  0  0  0  0  0  0  0
  2  3  1  0
  2  1  1  0
  4  3  1  0
  5  6  1  1
  5  4  1  0
  5  1  1  0
  6  7  2  0
  9  8  1  0
  9 10  1  0
 10 11  1  0
 12 11  1  1
 12 14  1  0
 13 12  1  0
 13  6  1  0
 14 15  2  0
 14 16  1  0
 16 17  1  0
 16 20  1  0
 18 17  1  0
 18 19  1  0
 19 20  1  0
 20 21  1  1
 21 22  2  0
 21 23  1  0
M  END
$$$$
