QAF.pdb
     RDKit          3D

 26 26  0  0  1  0  0  0  0  0999 V2000
    8.5783  -16.1518   16.5021 N   0  0  0  0  0  0  0  0  0  0  0  0
    8.1827  -14.7866   16.4489 C   0  0  0  0  0  0  0  0  0  0  0  0
    7.3514  -14.4620   15.5651 O   0  0  0  0  0  0  0  0  0  0  0  0
    8.7466  -13.8196   17.4163 C   0  0  0  0  0  0  0  0  0  0  0  0
    7.8015  -13.3565   18.4312 C   0  0  0  0  0  0  0  0  0  0  0  0
    8.1082  -13.3552   19.8522 C   0  0  2  0  0  0  0  0  0  0  0  0
    9.4164  -12.6655   19.9959 N   0  0  0  0  0  0  0  0  0  0  0  0
    8.1449  -14.5322   20.6643 C   0  0  0  0  0  0  0  0  0  0  0  0
    7.2058  -15.3389   20.8952 O   0  0  0  0  0  0  0  0  0  0  0  0
   10.7338  -16.9112   21.6702 C   0  0  0  0  0  0  0  0  0  0  0  0
    9.5110  -16.1226   22.0851 C   0  0  2  0  0  0  0  0  0  0  0  0
    9.3748  -14.8984   21.3278 N   0  0  0  0  0  0  0  0  0  0  0  0
    9.6291  -15.8309   23.5225 C   0  0  0  0  0  0  0  0  0  0  0  0
   10.4772  -14.9847   23.9158 O   0  0  0  0  0  0  0  0  0  0  0  0
    8.8337  -16.4551   24.5012 N   0  0  0  0  0  0  0  0  0  0  0  0
    8.9083  -16.1614   25.9192 C   0  0  1  0  0  0  0  0  0  0  0  0
    7.5119  -15.8035   26.3559 C   0  0  0  0  0  0  0  0  0  0  0  0
    7.1728  -14.3861   26.2264 C   0  0  0  0  0  0  0  0  0  0  0  0
    6.0990  -13.9375   25.5080 C   0  0  0  0  0  0  0  0  0  0  0  0
    5.8177  -12.5938   25.4168 C   0  0  0  0  0  0  0  0  0  0  0  0
    6.5996  -11.6332   26.0416 C   0  0  0  0  0  0  0  0  0  0  0  0
    7.6814  -12.0841   26.7656 C   0  0  0  0  0  0  0  0  0  0  0  0
    7.9646  -13.4498   26.8565 C   0  0  0  0  0  0  0  0  0  0  0  0
    9.4535  -17.3546   26.6010 C   0  0  0  0  0  0  0  0  0  0  0  0
    9.7263  -17.3032   27.8167 O   0  0  0  0  0  0  0  0  0  0  0  0
    9.6672  -18.5343   25.9086 O   0  0  0  0  0  0  0  0  0  0  0  0
  2  3  2  0
  2  1  1  0
  4  2  1  0
  5  4  1  0
  6  5  1  0
  6  7  1  6
  8  6  1  0
  9  8  2  0
 11 10  1  6
 11 12  1  0
 12  8  1  0
 13 11  1  0
 14 13  2  0
 15 13  1  0
 16 17  1  1
 16 15  1  0
 17 18  1  0
 18 19  2  0
 19 20  1  0
 21 20  2  0
 22 21  1  0
 23 18  1  0
 23 22  2  0
 24 26  1  0
 24 16  1  0
 25 24  2  0
M  END
$$$$
