QAF.pdb
     RDKit          3D

 26 26  0  0  1  0  0  0  0  0999 V2000
    8.4700  -22.0945   19.3277 N   0  0  0  0  0  0  0  0  0  0  0  0
    8.5485  -20.9862   18.4397 C   0  0  0  0  0  0  0  0  0  0  0  0
    9.5743  -20.8963   17.7204 O   0  0  0  0  0  0  0  0  0  0  0  0
    7.4437  -20.0034   18.3910 C   0  0  0  0  0  0  0  0  0  0  0  0
    7.8533  -18.6192   18.6230 C   0  0  0  0  0  0  0  0  0  0  0  0
    7.9699  -18.0436   19.9529 C   0  0  2  0  0  0  0  0  0  0  0  0
    6.6221  -18.1432   20.5702 N   0  0  0  0  0  0  0  0  0  0  0  0
    8.4733  -16.7307   20.2155 C   0  0  0  0  0  0  0  0  0  0  0  0
    9.6174  -16.2764   19.9496 O   0  0  0  0  0  0  0  0  0  0  0  0
    6.9545  -13.4186   21.1653 C   0  0  0  0  0  0  0  0  0  0  0  0
    8.0785  -14.4309   21.2001 C   0  0  2  0  0  0  0  0  0  0  0  0
    7.6200  -15.7594   20.8602 N   0  0  0  0  0  0  0  0  0  0  0  0
    8.6582  -14.4143   22.5525 C   0  0  0  0  0  0  0  0  0  0  0  0
    9.3002  -13.4004   22.9394 O   0  0  0  0  0  0  0  0  0  0  0  0
    8.5339  -15.4867   23.4550 N   0  0  0  0  0  0  0  0  0  0  0  0
    9.1958  -15.5464   24.7438 C   0  0  1  0  0  0  0  0  0  0  0  0
    8.1305  -15.3126   25.7828 C   0  0  0  0  0  0  0  0  0  0  0  0
    7.8458  -13.9052   26.0638 C   0  0  0  0  0  0  0  0  0  0  0  0
    6.6386  -13.3198   25.7984 C   0  0  0  0  0  0  0  0  0  0  0  0
    6.4162  -11.9921   26.0826 C   0  0  0  0  0  0  0  0  0  0  0  0
    7.3936  -11.1856   26.6472 C   0  0  0  0  0  0  0  0  0  0  0  0
    8.6100  -11.7744   26.9149 C   0  0  0  0  0  0  0  0  0  0  0  0
    8.8330  -13.1234   26.6251 C   0  0  0  0  0  0  0  0  0  0  0  0
    9.8512  -16.8669   24.8559 C   0  0  0  0  0  0  0  0  0  0  0  0
    9.6739  -17.7243   23.9678 O   0  0  0  0  0  0  0  0  0  0  0  0
   10.6628  -17.1690   25.9361 O   0  0  0  0  0  0  0  0  0  0  0  0
  2  3  2  0
  2  1  1  0
  4  2  1  0
  5  4  1  0
  6  5  1  0
  6  7  1  6
  8  6  1  0
  9  8  2  0
 11 10  1  1
 11 12  1  0
 12  8  1  0
 13 11  1  0
 14 13  2  0
 15 13  1  0
 16 17  1  1
 16 15  1  0
 17 18  1  0
 18 19  2  0
 19 20  1  0
 21 20  2  0
 22 21  1  0
 23 18  1  0
 23 22  2  0
 24 26  1  0
 24 16  1  0
 25 24  2  0
M  END
$$$$
