QAF.pdb
     RDKit          3D

 26 26  0  0  1  0  0  0  0  0999 V2000
    8.3932  -17.3251   16.1411 N   0  0  0  0  0  0  0  0  0  0  0  0
    7.2517  -18.0952   16.4974 C   0  0  0  0  0  0  0  0  0  0  0  0
    6.3217  -18.1693   15.6564 O   0  0  0  0  0  0  0  0  0  0  0  0
    7.2018  -18.7706   17.8128 C   0  0  0  0  0  0  0  0  0  0  0  0
    8.3473  -18.4961   18.6789 C   0  0  0  0  0  0  0  0  0  0  0  0
    8.2070  -18.0015   20.0387 C   0  0  2  0  0  0  0  0  0  0  0  0
    6.7503  -17.9910   20.3306 N   0  0  0  0  0  0  0  0  0  0  0  0
    8.7525  -16.7621   20.4999 C   0  0  0  0  0  0  0  0  0  0  0  0
    9.9653  -16.4275   20.5570 O   0  0  0  0  0  0  0  0  0  0  0  0
    7.2692  -13.3603   21.2286 C   0  0  0  0  0  0  0  0  0  0  0  0
    8.3373  -14.4220   21.3748 C   0  0  2  0  0  0  0  0  0  0  0  0
    7.8621  -15.7261   20.9699 N   0  0  0  0  0  0  0  0  0  0  0  0
    8.7636  -14.4414   22.7831 C   0  0  0  0  0  0  0  0  0  0  0  0
    9.2931  -13.4130   23.2848 O   0  0  0  0  0  0  0  0  0  0  0  0
    8.6104  -15.5646   23.6169 N   0  0  0  0  0  0  0  0  0  0  0  0
    8.9622  -15.5879   25.0234 C   0  0  1  0  0  0  0  0  0  0  0  0
    7.6772  -15.4089   25.7887 C   0  0  0  0  0  0  0  0  0  0  0  0
    7.3896  -14.0319   26.1914 C   0  0  0  0  0  0  0  0  0  0  0  0
    8.3535  -13.1632   26.6235 C   0  0  0  0  0  0  0  0  0  0  0  0
    8.0354  -11.8756   26.9896 C   0  0  0  0  0  0  0  0  0  0  0  0
    6.7348  -11.3954   26.9405 C   0  0  0  0  0  0  0  0  0  0  0  0
    5.7632  -12.2698   26.5053 C   0  0  0  0  0  0  0  0  0  0  0  0
    6.0893  -13.5773   26.1340 C   0  0  0  0  0  0  0  0  0  0  0  0
    9.6408  -16.8721   25.2996 C   0  0  0  0  0  0  0  0  0  0  0  0
    9.6427  -17.7706   24.4349 O   0  0  0  0  0  0  0  0  0  0  0  0
   10.2774  -17.0948   26.5087 O   0  0  0  0  0  0  0  0  0  0  0  0
  2  3  2  0
  2  1  1  0
  4  2  1  0
  5  4  1  0
  6  5  1  0
  6  7  1  6
  8  6  1  0
  9  8  2  0
 11 10  1  1
 11 12  1  0
 12  8  1  0
 13 11  1  0
 14 13  2  0
 15 13  1  0
 16 17  1  1
 16 15  1  0
 17 18  1  0
 18 19  2  0
 19 20  1  0
 21 20  2  0
 22 21  1  0
 23 18  1  0
 23 22  2  0
 24 26  1  0
 24 16  1  0
 25 24  2  0
M  END
$$$$
