QAF.pdb
     RDKit          3D

 26 26  0  0  1  0  0  0  0  0999 V2000
    8.7628  -12.9463   16.6161 N   0  0  0  0  0  0  0  0  0  0  0  0
    7.7835  -13.6465   17.3735 C   0  0  0  0  0  0  0  0  0  0  0  0
    7.4821  -14.8053   16.9939 O   0  0  0  0  0  0  0  0  0  0  0  0
    7.1713  -13.0036   18.5571 C   0  0  0  0  0  0  0  0  0  0  0  0
    7.0750  -13.8663   19.7335 C   0  0  0  0  0  0  0  0  0  0  0  0
    8.1664  -14.0356   20.6788 C   0  0  2  0  0  0  0  0  0  0  0  0
    9.3800  -14.3158   19.8688 N   0  0  0  0  0  0  0  0  0  0  0  0
    8.1458  -14.9632   21.7675 C   0  0  0  0  0  0  0  0  0  0  0  0
    7.2526  -15.1028   22.6443 O   0  0  0  0  0  0  0  0  0  0  0  0
   10.2498  -17.9845   22.7030 C   0  0  0  0  0  0  0  0  0  0  0  0
    9.2822  -16.8603   23.0018 C   0  0  2  0  0  0  0  0  0  0  0  0
    9.2498  -15.8787   21.9407 N   0  0  0  0  0  0  0  0  0  0  0  0
    9.6930  -16.2373   24.2701 C   0  0  0  0  0  0  0  0  0  0  0  0
   10.6668  -15.4363   24.2806 O   0  0  0  0  0  0  0  0  0  0  0  0
    9.0478  -16.4901   25.4948 N   0  0  0  0  0  0  0  0  0  0  0  0
    9.4933  -15.9681   26.7721 C   0  0  1  0  0  0  0  0  0  0  0  0
    8.2841  -15.3556   27.4291 C   0  0  0  0  0  0  0  0  0  0  0  0
    7.8558  -14.0787   26.8572 C   0  0  0  0  0  0  0  0  0  0  0  0
    8.5988  -12.9340   26.9456 C   0  0  0  0  0  0  0  0  0  0  0  0
    8.1559  -11.7560   26.3894 C   0  0  0  0  0  0  0  0  0  0  0  0
    6.9457  -11.6678   25.7170 C   0  0  0  0  0  0  0  0  0  0  0  0
    6.1966  -12.8205   25.6274 C   0  0  0  0  0  0  0  0  0  0  0  0
    6.6491  -14.0157   26.1933 C   0  0  0  0  0  0  0  0  0  0  0  0
   10.0797  -17.0876   27.5396 C   0  0  0  0  0  0  0  0  0  0  0  0
   10.6131  -16.8687   28.6453 O   0  0  0  0  0  0  0  0  0  0  0  0
   10.0461  -18.3815   27.0485 O   0  0  0  0  0  0  0  0  0  0  0  0
  2  3  2  0
  2  1  1  0
  4  2  1  0
  5  4  1  0
  6  5  1  0
  6  7  1  6
  8  6  1  0
  9  8  2  0
 11 10  1  6
 11 12  1  0
 12  8  1  0
 13 11  1  0
 14 13  2  0
 15 13  1  0
 16 17  1  1
 16 15  1  0
 17 18  1  0
 18 19  2  0
 19 20  1  0
 21 20  2  0
 22 21  1  0
 23 18  1  0
 23 22  2  0
 24 26  1  0
 24 16  1  0
 25 24  2  0
M  END
$$$$
