QAF.pdb
     RDKit          3D

 26 26  0  0  1  0  0  0  0  0999 V2000
    8.7687  -21.0020   18.6650 N   0  0  0  0  0  0  0  0  0  0  0  0
    8.2268  -20.4159   17.4877 C   0  0  0  0  0  0  0  0  0  0  0  0
    7.2687  -21.0121   16.9361 O   0  0  0  0  0  0  0  0  0  0  0  0
    8.7932  -19.1518   16.9681 C   0  0  0  0  0  0  0  0  0  0  0  0
    9.4364  -18.3148   17.9798 C   0  0  0  0  0  0  0  0  0  0  0  0
    8.7202  -17.7631   19.1183 C   0  0  2  0  0  0  0  0  0  0  0  0
    7.2967  -17.6597   18.7053 N   0  0  0  0  0  0  0  0  0  0  0  0
    9.0743  -16.5401   19.7705 C   0  0  0  0  0  0  0  0  0  0  0  0
   10.2272  -16.1341   20.0735 O   0  0  0  0  0  0  0  0  0  0  0  0
    7.3185  -13.3351   20.7114 C   0  0  0  0  0  0  0  0  0  0  0  0
    8.2945  -14.4586   20.9842 C   0  0  2  0  0  0  0  0  0  0  0  0
    8.0344  -15.6139   20.1546 N   0  0  0  0  0  0  0  0  0  0  0  0
    8.1891  -14.8110   22.4090 C   0  0  0  0  0  0  0  0  0  0  0  0
    7.0839  -15.2060   22.8699 O   0  0  0  0  0  0  0  0  0  0  0  0
    9.2730  -14.7305   23.3027 N   0  0  0  0  0  0  0  0  0  0  0  0
    9.1769  -14.9980   24.7246 C   0  0  1  0  0  0  0  0  0  0  0  0
    7.7121  -14.9450   25.0716 C   0  0  0  0  0  0  0  0  0  0  0  0
    7.2694  -13.6874   25.6745 C   0  0  0  0  0  0  0  0  0  0  0  0
    6.0282  -13.1536   25.4626 C   0  0  0  0  0  0  0  0  0  0  0  0
    5.6553  -11.9685   26.0538 C   0  0  0  0  0  0  0  0  0  0  0  0
    6.5087  -11.2600   26.8869 C   0  0  0  0  0  0  0  0  0  0  0  0
    7.7593  -11.7969   27.1009 C   0  0  0  0  0  0  0  0  0  0  0  0
    8.1353  -13.0010   26.4990 C   0  0  0  0  0  0  0  0  0  0  0  0
    9.7979  -16.3150   24.9809 C   0  0  0  0  0  0  0  0  0  0  0  0
    9.8452  -17.1657   24.0703 O   0  0  0  0  0  0  0  0  0  0  0  0
   10.3306  -16.6211   26.2216 O   0  0  0  0  0  0  0  0  0  0  0  0
  2  3  2  0
  2  1  1  0
  4  2  1  0
  5  4  1  0
  6  5  1  0
  6  7  1  6
  8  6  1  0
  9  8  2  0
 11 10  1  6
 11 12  1  0
 12  8  1  0
 13 11  1  0
 14 13  2  0
 15 13  1  0
 16 17  1  6
 16 15  1  0
 17 18  1  0
 18 19  2  0
 19 20  1  0
 21 20  2  0
 22 21  1  0
 23 18  1  0
 23 22  2  0
 24 26  1  0
 24 16  1  0
 25 24  2  0
M  END
$$$$
