QAF.pdb
     RDKit          3D

 26 26  0  0  1  0  0  0  0  0999 V2000
    8.9091  -12.1842   18.4169 N   0  0  0  0  0  0  0  0  0  0  0  0
    8.3353  -13.1729   17.5706 C   0  0  0  0  0  0  0  0  0  0  0  0
    8.8737  -13.3550   16.4505 O   0  0  0  0  0  0  0  0  0  0  0  0
    7.1551  -13.9381   18.0293 C   0  0  0  0  0  0  0  0  0  0  0  0
    7.0255  -14.0392   19.4821 C   0  0  0  0  0  0  0  0  0  0  0  0
    8.0171  -14.6954   20.3185 C   0  0  2  0  0  0  0  0  0  0  0  0
    8.7782  -15.6072   19.4257 N   0  0  0  0  0  0  0  0  0  0  0  0
    7.7052  -15.4166   21.5138 C   0  0  0  0  0  0  0  0  0  0  0  0
    6.8895  -15.0944   22.4176 O   0  0  0  0  0  0  0  0  0  0  0  0
    8.6903  -18.8355   22.8886 C   0  0  0  0  0  0  0  0  0  0  0  0
    8.1352  -17.4314   22.9867 C   0  0  2  0  0  0  0  0  0  0  0  0
    8.3683  -16.6724   21.7783 N   0  0  0  0  0  0  0  0  0  0  0  0
    8.7708  -16.7751   24.1401 C   0  0  0  0  0  0  0  0  0  0  0  0
    9.8657  -16.1696   23.9832 O   0  0  0  0  0  0  0  0  0  0  0  0
    8.2148  -16.7854   25.4327 N   0  0  0  0  0  0  0  0  0  0  0  0
    8.8471  -16.1928   26.5953 C   0  0  1  0  0  0  0  0  0  0  0  0
    7.7704  -15.4367   27.3288 C   0  0  0  0  0  0  0  0  0  0  0  0
    7.4438  -14.1284   26.7608 C   0  0  0  0  0  0  0  0  0  0  0  0
    6.2194  -13.8290   26.2303 C   0  0  0  0  0  0  0  0  0  0  0  0
    5.9574  -12.5827   25.7094 C   0  0  0  0  0  0  0  0  0  0  0  0
    6.9106  -11.5749   25.6948 C   0  0  0  0  0  0  0  0  0  0  0  0
    8.1443  -11.8755   26.2291 C   0  0  0  0  0  0  0  0  0  0  0  0
    8.4075  -13.1425   26.7575 C   0  0  0  0  0  0  0  0  0  0  0  0
    9.4487  -17.2848   27.3900 C   0  0  0  0  0  0  0  0  0  0  0  0
    9.0489  -18.4560   27.2363 O   0  0  0  0  0  0  0  0  0  0  0  0
   10.4537  -17.0273   28.3067 O   0  0  0  0  0  0  0  0  0  0  0  0
  2  3  2  0
  2  1  1  0
  4  2  1  0
  5  4  1  0
  6  5  1  0
  6  7  1  6
  8  6  1  0
  9  8  2  0
 11 10  1  6
 11 12  1  0
 12  8  1  0
 13 11  1  0
 14 13  2  0
 15 13  1  0
 16 17  1  1
 16 15  1  0
 17 18  1  0
 18 19  2  0
 19 20  1  0
 21 20  2  0
 22 21  1  0
 23 18  1  0
 23 22  2  0
 24 26  1  0
 24 16  1  0
 25 24  2  0
M  END
$$$$
