QAF.pdb
     RDKit          3D

 26 26  0  0  1  0  0  0  0  0999 V2000
    4.4640  -20.0447   23.5330 N   0  0  0  0  0  0  0  0  0  0  0  0
    5.7690  -19.7196   23.9959 C   0  0  0  0  0  0  0  0  0  0  0  0
    6.0513  -20.0219   25.1819 O   0  0  0  0  0  0  0  0  0  0  0  0
    6.7283  -19.0568   23.0851 C   0  0  0  0  0  0  0  0  0  0  0  0
    6.1869  -18.7328   21.7662 C   0  0  0  0  0  0  0  0  0  0  0  0
    6.9639  -18.0593   20.7385 C   0  0  2  0  0  0  0  0  0  0  0  0
    7.6911  -19.1241   20.0004 N   0  0  0  0  0  0  0  0  0  0  0  0
    7.8899  -17.0007   21.0001 C   0  0  0  0  0  0  0  0  0  0  0  0
    9.1377  -17.0869   21.1468 O   0  0  0  0  0  0  0  0  0  0  0  0
    7.5644  -13.2004   21.2102 C   0  0  0  0  0  0  0  0  0  0  0  0
    8.2860  -14.5233   21.3458 C   0  0  2  0  0  0  0  0  0  0  0  0
    7.4029  -15.6461   21.1222 N   0  0  0  0  0  0  0  0  0  0  0  0
    8.8669  -14.5834   22.6965 C   0  0  0  0  0  0  0  0  0  0  0  0
    9.7476  -13.7451   23.0305 O   0  0  0  0  0  0  0  0  0  0  0  0
    8.4873  -15.5420   23.6543 N   0  0  0  0  0  0  0  0  0  0  0  0
    8.9189  -15.5244   25.0384 C   0  0  1  0  0  0  0  0  0  0  0  0
    7.6675  -15.5267   25.8767 C   0  0  0  0  0  0  0  0  0  0  0  0
    7.1262  -14.2004   26.1748 C   0  0  0  0  0  0  0  0  0  0  0  0
    5.8011  -13.8878   26.0448 C   0  0  0  0  0  0  0  0  0  0  0  0
    5.3375  -12.6264   26.3397 C   0  0  0  0  0  0  0  0  0  0  0  0
    6.1798  -11.6159   26.7797 C   0  0  0  0  0  0  0  0  0  0  0  0
    7.5148  -11.9297   26.9110 C   0  0  0  0  0  0  0  0  0  0  0  0
    7.9829  -13.2121   26.6107 C   0  0  0  0  0  0  0  0  0  0  0  0
    9.7807  -16.7053   25.2594 C   0  0  0  0  0  0  0  0  0  0  0  0
    9.9408  -17.5359   24.3432 O   0  0  0  0  0  0  0  0  0  0  0  0
   10.4161  -16.9053   26.4731 O   0  0  0  0  0  0  0  0  0  0  0  0
  2  3  2  0
  2  1  1  0
  4  2  1  0
  5  4  1  0
  6  5  1  0
  6  7  1  1
  8  6  1  0
  9  8  2  0
 11 10  1  1
 11 12  1  0
 12  8  1  0
 13 11  1  0
 14 13  2  0
 15 13  1  0
 16 17  1  1
 16 15  1  0
 17 18  1  0
 18 19  2  0
 19 20  1  0
 21 20  2  0
 22 21  1  0
 23 18  1  0
 23 22  2  0
 24 26  1  0
 24 16  1  0
 25 24  2  0
M  END
$$$$
