QAF.pdb
     RDKit          3D

 26 26  0  0  1  0  0  0  0  0999 V2000
    6.9901  -21.8131   24.5706 N   0  0  0  0  0  0  0  0  0  0  0  0
    6.3921  -20.5665   24.9042 C   0  0  0  0  0  0  0  0  0  0  0  0
    6.8764  -19.9377   25.8777 O   0  0  0  0  0  0  0  0  0  0  0  0
    5.2505  -20.0626   24.1093 C   0  0  0  0  0  0  0  0  0  0  0  0
    5.4477  -18.7291   23.5432 C   0  0  0  0  0  0  0  0  0  0  0  0
    5.9587  -18.5103   22.1999 C   0  0  2  0  0  0  0  0  0  0  0  0
    6.3765  -19.8420   21.6906 N   0  0  0  0  0  0  0  0  0  0  0  0
    6.9945  -17.5771   21.8797 C   0  0  0  0  0  0  0  0  0  0  0  0
    8.1902  -17.8276   21.5739 O   0  0  0  0  0  0  0  0  0  0  0  0
    7.0582  -13.8006   21.3306 C   0  0  0  0  0  0  0  0  0  0  0  0
    7.6815  -15.1674   21.5116 C   0  0  2  0  0  0  0  0  0  0  0  0
    6.7026  -16.1623   21.8889 N   0  0  0  0  0  0  0  0  0  0  0  0
    8.7263  -15.0535   22.5415 C   0  0  0  0  0  0  0  0  0  0  0  0
    9.7715  -14.3931   22.2940 O   0  0  0  0  0  0  0  0  0  0  0  0
    8.6222  -15.6514   23.8111 N   0  0  0  0  0  0  0  0  0  0  0  0
    9.6365  -15.5528   24.8426 C   0  0  1  0  0  0  0  0  0  0  0  0
    9.6505  -14.1153   25.2925 C   0  0  0  0  0  0  0  0  0  0  0  0
    8.3727  -13.6204   25.8053 C   0  0  0  0  0  0  0  0  0  0  0  0
    8.2695  -12.5381   26.6351 C   0  0  0  0  0  0  0  0  0  0  0  0
    7.0446  -12.1074   27.0903 C   0  0  0  0  0  0  0  0  0  0  0  0
    5.8624  -12.7406   26.7358 C   0  0  0  0  0  0  0  0  0  0  0  0
    5.9653  -13.8309   25.8999 C   0  0  0  0  0  0  0  0  0  0  0  0
    7.2110  -14.2662   25.4391 C   0  0  0  0  0  0  0  0  0  0  0  0
    9.2842  -16.5052   25.9172 C   0  0  0  0  0  0  0  0  0  0  0  0
    9.9681  -16.5446   26.9592 O   0  0  0  0  0  0  0  0  0  0  0  0
    8.2019  -17.3583   25.7851 O   0  0  0  0  0  0  0  0  0  0  0  0
  2  3  2  0
  2  1  1  0
  4  2  1  0
  5  4  1  0
  6  5  1  0
  6  7  1  1
  8  6  1  0
  9  8  2  0
 11 10  1  1
 11 12  1  0
 12  8  1  0
 13 11  1  0
 14 13  2  0
 15 13  1  0
 16 17  1  1
 16 15  1  0
 17 18  1  0
 18 19  2  0
 19 20  1  0
 21 20  2  0
 22 21  1  0
 23 18  1  0
 23 22  2  0
 24 26  1  0
 24 16  1  0
 25 24  2  0
M  END
$$$$
