QAF.pdb
     RDKit          3D

 26 26  0  0  1  0  0  0  0  0999 V2000
    5.7874  -19.2222   24.7043 N   0  0  0  0  0  0  0  0  0  0  0  0
    5.7421  -20.4939   24.0689 C   0  0  0  0  0  0  0  0  0  0  0  0
    4.8997  -21.3216   24.4965 O   0  0  0  0  0  0  0  0  0  0  0  0
    6.6632  -20.7897   22.9495 C   0  0  0  0  0  0  0  0  0  0  0  0
    7.5434  -19.6822   22.5801 C   0  0  0  0  0  0  0  0  0  0  0  0
    7.2437  -18.7659   21.4920 C   0  0  2  0  0  0  0  0  0  0  0  0
    7.3830  -19.5489   20.2370 N   0  0  0  0  0  0  0  0  0  0  0  0
    7.9025  -17.5111   21.2978 C   0  0  0  0  0  0  0  0  0  0  0  0
    9.0308  -17.3054   20.7775 O   0  0  0  0  0  0  0  0  0  0  0  0
    6.9213  -13.8710   21.5439 C   0  0  0  0  0  0  0  0  0  0  0  0
    7.9103  -15.0078   21.6816 C   0  0  2  0  0  0  0  0  0  0  0  0
    7.2521  -16.2944   21.7262 N   0  0  0  0  0  0  0  0  0  0  0  0
    8.6881  -14.7821   22.9102 C   0  0  0  0  0  0  0  0  0  0  0  0
    9.4277  -13.7647   22.9977 O   0  0  0  0  0  0  0  0  0  0  0  0
    8.6519  -15.6546   24.0137 N   0  0  0  0  0  0  0  0  0  0  0  0
    9.4006  -15.4490   25.2383 C   0  0  1  0  0  0  0  0  0  0  0  0
    8.3855  -15.3203   26.3437 C   0  0  0  0  0  0  0  0  0  0  0  0
    7.6492  -14.0559   26.3564 C   0  0  0  0  0  0  0  0  0  0  0  0
    6.3029  -13.9731   26.1299 C   0  0  0  0  0  0  0  0  0  0  0  0
    5.6526  -12.7609   26.1546 C   0  0  0  0  0  0  0  0  0  0  0  0
    6.3202  -11.5715   26.4076 C   0  0  0  0  0  0  0  0  0  0  0  0
    7.6763  -11.6539   26.6359 C   0  0  0  0  0  0  0  0  0  0  0  0
    8.3343  -12.8868   26.6102 C   0  0  0  0  0  0  0  0  0  0  0  0
   10.3165  -16.5972   25.4077 C   0  0  0  0  0  0  0  0  0  0  0  0
   11.0748  -16.6445   26.3965 O   0  0  0  0  0  0  0  0  0  0  0  0
   10.3465  -17.6261   24.4818 O   0  0  0  0  0  0  0  0  0  0  0  0
  2  3  2  0
  2  1  1  0
  4  2  1  0
  5  4  1  0
  6  5  1  0
  6  7  1  6
  8  6  1  0
  9  8  2  0
 11 10  1  1
 11 12  1  0
 12  8  1  0
 13 11  1  0
 14 13  2  0
 15 13  1  0
 16 17  1  1
 16 15  1  0
 17 18  1  0
 18 19  2  0
 19 20  1  0
 21 20  2  0
 22 21  1  0
 23 18  1  0
 23 22  2  0
 24 26  1  0
 24 16  1  0
 25 24  2  0
M  END
$$$$
