ESG.pdb
     RDKit          3D

 20 19  0  0  1  0  0  0  0  0999 V2000
   18.4713  -10.6084  -17.1454 N   0  0  0  0  0  0  0  0  0  0  0  0
   17.7360  -10.0571  -15.9822 C   0  0  1  0  0  0  0  0  0  0  0  0
   17.2341  -11.1909  -15.1340 C   0  0  0  0  0  0  0  0  0  0  0  0
   17.1933  -12.4639  -15.9174 C   0  0  0  0  0  0  0  0  0  0  0  0
   16.7140  -13.5619  -15.0437 C   0  0  0  0  0  0  0  0  0  0  0  0
   16.7421  -14.7387  -15.4303 O   0  0  0  0  0  0  0  0  0  0  0  0
   18.6889   -9.2164  -15.2009 C   0  0  0  0  0  0  0  0  0  0  0  0
   18.4427   -8.7559  -14.0748 O   0  0  0  0  0  0  0  0  0  0  0  0
   16.2316  -13.2036  -13.7709 O   0  0  0  0  0  0  0  0  0  0  0  0
   22.4791   -9.9153  -14.2534 O   0  0  0  0  0  0  0  0  0  0  0  0
   22.3083   -8.8257  -15.0959 C   0  0  0  0  0  0  0  0  0  0  0  0
   20.9454   -8.1785  -14.9471 C   0  0  2  0  0  0  0  0  0  0  0  0
   19.9865   -8.8907  -15.7420 N   0  0  0  0  0  0  0  0  0  0  0  0
   21.0569   -6.7503  -15.2801 C   0  0  0  0  0  0  0  0  0  0  0  0
   20.8982   -6.4208  -16.4825 O   0  0  0  0  0  0  0  0  0  0  0  0
   21.3332   -5.7236  -14.3249 N   0  0  0  0  0  0  0  0  0  0  0  0
   21.5322   -4.3462  -14.7623 C   0  0  0  0  0  0  0  0  0  0  0  0
   21.9972   -3.5329  -13.6269 C   0  0  0  0  0  0  0  0  0  0  0  0
   22.4823   -2.2437  -13.8143 O   0  0  0  0  0  0  0  0  0  0  0  0
   21.9729   -3.9780  -12.4333 O   0  0  0  0  0  0  0  0  0  0  0  0
  2  3  1  0
  2  1  1  6
  4  3  1  0
  5  6  2  0
  5  4  1  0
  7  2  1  0
  7  8  2  0
  9  5  1  0
 10 11  1  0
 12 11  1  6
 12 13  1  0
 13  7  1  0
 14 12  1  0
 14 16  1  0
 15 14  2  0
 17 16  1  0
 18 17  1  0
 19 18  1  0
 20 18  2  0
M  END
$$$$
