ESG.pdb
     RDKit          3D

 20 19  0  0  1  0  0  0  0  0999 V2000
   18.2387   -9.7970  -14.5036 N   0  0  0  0  0  0  0  0  0  0  0  0
   19.2784   -9.1542  -15.3425 C   0  0  1  0  0  0  0  0  0  0  0  0
   18.7796   -9.0558  -16.7561 C   0  0  0  0  0  0  0  0  0  0  0  0
   17.3581   -8.5928  -16.7878 C   0  0  0  0  0  0  0  0  0  0  0  0
   16.9417   -8.3848  -18.1956 C   0  0  0  0  0  0  0  0  0  0  0  0
   16.8087   -9.3455  -18.9665 O   0  0  0  0  0  0  0  0  0  0  0  0
   19.5261   -7.7905  -14.7912 C   0  0  0  0  0  0  0  0  0  0  0  0
   18.6670   -7.1155  -14.2021 O   0  0  0  0  0  0  0  0  0  0  0  0
   16.7092   -7.0585  -18.6056 O   0  0  0  0  0  0  0  0  0  0  0  0
   22.5140   -4.7747  -12.7520 O   0  0  0  0  0  0  0  0  0  0  0  0
   22.2511   -5.9763  -13.3947 C   0  0  0  0  0  0  0  0  0  0  0  0
   21.0778   -5.8847  -14.3504 C   0  0  2  0  0  0  0  0  0  0  0  0
   20.8246   -7.1750  -14.9246 N   0  0  0  0  0  0  0  0  0  0  0  0
   21.3500   -4.8316  -15.3401 C   0  0  0  0  0  0  0  0  0  0  0  0
   22.0558   -5.1379  -16.3340 O   0  0  0  0  0  0  0  0  0  0  0  0
   20.8638   -3.4914  -15.2391 N   0  0  0  0  0  0  0  0  0  0  0  0
   21.2184   -2.5019  -16.2507 C   0  0  0  0  0  0  0  0  0  0  0  0
   20.4963   -1.2471  -15.9845 C   0  0  0  0  0  0  0  0  0  0  0  0
   20.7169   -0.1110  -16.7545 O   0  0  0  0  0  0  0  0  0  0  0  0
   19.6446   -1.1549  -15.0414 O   0  0  0  0  0  0  0  0  0  0  0  0
  2  3  1  0
  2  1  1  1
  4  3  1  0
  5  6  2  0
  5  4  1  0
  7  2  1  0
  7  8  2  0
  9  5  1  0
 10 11  1  0
 12 11  1  1
 12 13  1  0
 13  7  1  0
 14 12  1  0
 14 16  1  0
 15 14  2  0
 17 16  1  0
 18 17  1  0
 19 18  1  0
 20 18  2  0
M  END
$$$$
