ESG.pdb
     RDKit          3D

 20 19  0  0  1  0  0  0  0  0999 V2000
   18.7565  -11.2603  -16.6540 N   0  0  0  0  0  0  0  0  0  0  0  0
   19.9499  -10.4814  -16.2451 C   0  0  1  0  0  0  0  0  0  0  0  0
   20.8171  -10.2406  -17.4478 C   0  0  0  0  0  0  0  0  0  0  0  0
   21.1453  -11.5282  -18.1336 C   0  0  0  0  0  0  0  0  0  0  0  0
   22.0499  -11.2577  -19.2770 C   0  0  0  0  0  0  0  0  0  0  0  0
   21.7395  -11.6003  -20.4264 O   0  0  0  0  0  0  0  0  0  0  0  0
   19.4738   -9.1817  -15.6889 C   0  0  0  0  0  0  0  0  0  0  0  0
   18.5607   -8.5070  -16.1909 O   0  0  0  0  0  0  0  0  0  0  0  0
   23.2625  -10.6019  -18.9933 O   0  0  0  0  0  0  0  0  0  0  0  0
   19.5651   -8.2710  -11.7829 O   0  0  0  0  0  0  0  0  0  0  0  0
   18.8961   -7.5038  -12.7263 C   0  0  0  0  0  0  0  0  0  0  0  0
   19.6810   -7.3424  -14.0133 C   0  0  2  0  0  0  0  0  0  0  0  0
   20.0777   -8.6331  -14.4986 N   0  0  0  0  0  0  0  0  0  0  0  0
   20.8026   -6.4213  -13.7755 C   0  0  0  0  0  0  0  0  0  0  0  0
   21.9196   -6.9265  -13.4985 O   0  0  0  0  0  0  0  0  0  0  0  0
   20.6980   -4.9973  -13.8398 N   0  0  0  0  0  0  0  0  0  0  0  0
   21.8267   -4.1585  -13.4518 C   0  0  0  0  0  0  0  0  0  0  0  0
   21.5328   -2.7551  -13.7848 C   0  0  0  0  0  0  0  0  0  0  0  0
   22.3813   -1.7274  -13.3895 O   0  0  0  0  0  0  0  0  0  0  0  0
   20.4930   -2.4301  -14.4456 O   0  0  0  0  0  0  0  0  0  0  0  0
  2  3  1  0
  2  1  1  6
  4  3  1  0
  5  6  2  0
  5  4  1  0
  7  2  1  0
  7  8  2  0
  9  5  1  0
 10 11  1  0
 12 11  1  1
 12 13  1  0
 13  7  1  0
 14 12  1  0
 14 16  1  0
 15 14  2  0
 17 16  1  0
 18 17  1  0
 19 18  1  0
 20 18  2  0
M  END
$$$$
