ESG.pdb
     RDKit          3D

 20 19  0  0  1  0  0  0  0  0999 V2000
   12.7283   -7.7838   -8.8075 N   0  0  0  0  0  0  0  0  0  0  0  0
   14.1611   -8.1097   -8.6106 C   0  0  1  0  0  0  0  0  0  0  0  0
   14.4009   -9.5383   -9.0086 C   0  0  0  0  0  0  0  0  0  0  0  0
   13.8579   -9.8081  -10.3755 C   0  0  0  0  0  0  0  0  0  0  0  0
   14.1074  -11.2259  -10.7308 C   0  0  0  0  0  0  0  0  0  0  0  0
   13.2385  -12.0892  -10.5439 O   0  0  0  0  0  0  0  0  0  0  0  0
   14.9572   -7.1957   -9.4801 C   0  0  0  0  0  0  0  0  0  0  0  0
   14.5746   -6.7867  -10.5879 O   0  0  0  0  0  0  0  0  0  0  0  0
   15.3643  -11.5364  -11.2827 O   0  0  0  0  0  0  0  0  0  0  0  0
   17.6632   -3.5141  -10.0468 O   0  0  0  0  0  0  0  0  0  0  0  0
   17.0742   -4.4702   -9.2314 C   0  0  0  0  0  0  0  0  0  0  0  0
   17.0136   -5.8381   -9.8824 C   0  0  2  0  0  0  0  0  0  0  0  0
   16.2552   -6.7308   -9.0538 N   0  0  0  0  0  0  0  0  0  0  0  0
   18.3836   -6.2958  -10.1587 C   0  0  0  0  0  0  0  0  0  0  0  0
   19.0774   -6.6735   -9.1811 O   0  0  0  0  0  0  0  0  0  0  0  0
   18.9680   -6.3355  -11.4625 N   0  0  0  0  0  0  0  0  0  0  0  0
   20.3797   -6.6648  -11.6261 C   0  0  0  0  0  0  0  0  0  0  0  0
   20.7440   -6.5708  -13.0493 C   0  0  0  0  0  0  0  0  0  0  0  0
   22.0671   -6.6740  -13.4631 O   0  0  0  0  0  0  0  0  0  0  0  0
   19.8636   -6.3918  -13.9527 O   0  0  0  0  0  0  0  0  0  0  0  0
  2  3  1  0
  2  1  1  6
  4  3  1  0
  5  6  2  0
  5  4  1  0
  7  2  1  0
  7  8  2  0
  9  5  1  0
 10 11  1  0
 12 11  1  1
 12 13  1  0
 13  7  1  0
 14 12  1  0
 14 16  1  0
 15 14  2  0
 17 16  1  0
 18 17  1  0
 19 18  1  0
 20 18  2  0
M  END
$$$$
