ESG.pdb
     RDKit          3D

 20 19  0  0  1  0  0  0  0  0999 V2000
   17.3070  -10.3509  -17.3905 N   0  0  0  0  0  0  0  0  0  0  0  0
   17.4230  -10.3095  -15.9131 C   0  0  1  0  0  0  0  0  0  0  0  0
   17.1539  -11.6796  -15.3590 C   0  0  0  0  0  0  0  0  0  0  0  0
   17.9674  -12.7115  -16.0728 C   0  0  0  0  0  0  0  0  0  0  0  0
   17.8415  -14.0093  -15.3668 C   0  0  0  0  0  0  0  0  0  0  0  0
   18.1305  -15.0715  -15.9354 O   0  0  0  0  0  0  0  0  0  0  0  0
   18.8142   -9.8868  -15.5796 C   0  0  0  0  0  0  0  0  0  0  0  0
   19.2506   -9.7947  -14.4212 O   0  0  0  0  0  0  0  0  0  0  0  0
   17.3827  -13.9731  -14.0366 O   0  0  0  0  0  0  0  0  0  0  0  0
   23.3394   -9.2191  -17.1899 O   0  0  0  0  0  0  0  0  0  0  0  0
   22.0090   -9.5055  -17.4618 C   0  0  0  0  0  0  0  0  0  0  0  0
   21.0876   -9.1569  -16.3094 C   0  0  2  0  0  0  0  0  0  0  0  0
   19.7467   -9.5546  -16.6297 N   0  0  0  0  0  0  0  0  0  0  0  0
   21.2304   -7.7261  -16.0007 C   0  0  0  0  0  0  0  0  0  0  0  0
   20.5424   -6.9163  -16.6719 O   0  0  0  0  0  0  0  0  0  0  0  0
   22.0986   -7.2065  -14.9912 N   0  0  0  0  0  0  0  0  0  0  0  0
   22.2003   -5.7669  -14.7780 C   0  0  0  0  0  0  0  0  0  0  0  0
   22.3100   -5.4906  -13.3363 C   0  0  0  0  0  0  0  0  0  0  0  0
   22.5577   -4.2065  -12.8651 O   0  0  0  0  0  0  0  0  0  0  0  0
   22.1827   -6.4147  -12.4685 O   0  0  0  0  0  0  0  0  0  0  0  0
  2  3  1  0
  2  1  1  6
  4  3  1  0
  5  6  2  0
  5  4  1  0
  7  2  1  0
  7  8  2  0
  9  5  1  0
 10 11  1  0
 12 11  1  6
 12 13  1  0
 13  7  1  0
 14 12  1  0
 14 16  1  0
 15 14  2  0
 17 16  1  0
 18 17  1  0
 19 18  1  0
 20 18  2  0
M  END
$$$$
