ESG.pdb
     RDKit          3D

 20 19  0  0  1  0  0  0  0  0999 V2000
   22.3805  -20.5812  -17.4615 N   0  0  0  0  0  0  0  0  0  0  0  0
   23.3258  -19.7477  -16.6807 C   0  0  1  0  0  0  0  0  0  0  0  0
   22.5613  -18.6616  -15.9789 C   0  0  0  0  0  0  0  0  0  0  0  0
   21.4168  -18.1894  -16.8173 C   0  0  0  0  0  0  0  0  0  0  0  0
   20.7256  -17.0773  -16.1215 C   0  0  0  0  0  0  0  0  0  0  0  0
   21.0557  -15.9002  -16.3228 O   0  0  0  0  0  0  0  0  0  0  0  0
   23.9912  -20.6329  -15.6813 C   0  0  0  0  0  0  0  0  0  0  0  0
   23.3896  -21.4678  -14.9871 O   0  0  0  0  0  0  0  0  0  0  0  0
   19.6903  -17.4227  -15.2327 O   0  0  0  0  0  0  0  0  0  0  0  0
   28.2094  -20.3016  -14.7144 O   0  0  0  0  0  0  0  0  0  0  0  0
   27.5221  -21.5053  -14.7838 C   0  0  0  0  0  0  0  0  0  0  0  0
   26.0476  -21.3570  -14.4643 C   0  0  2  0  0  0  0  0  0  0  0  0
   25.4168  -20.5529  -15.4714 N   0  0  0  0  0  0  0  0  0  0  0  0
   25.9062  -20.8273  -13.0996 C   0  0  0  0  0  0  0  0  0  0  0  0
   25.8161  -19.5807  -12.9676 O   0  0  0  0  0  0  0  0  0  0  0  0
   25.8662  -21.6398  -11.9244 N   0  0  0  0  0  0  0  0  0  0  0  0
   25.8052  -21.0217  -10.6045 C   0  0  0  0  0  0  0  0  0  0  0  0
   24.3981  -20.8421  -10.2111 C   0  0  0  0  0  0  0  0  0  0  0  0
   24.0571  -20.3650   -8.9507 O   0  0  0  0  0  0  0  0  0  0  0  0
   23.4425  -21.1162  -11.0080 O   0  0  0  0  0  0  0  0  0  0  0  0
  2  3  1  0
  2  1  1  1
  4  3  1  0
  5  6  2  0
  5  4  1  0
  7  2  1  0
  7  8  2  0
  9  5  1  0
 10 11  1  0
 12 11  1  6
 12 13  1  0
 13  7  1  0
 14 12  1  0
 14 16  1  0
 15 14  2  0
 17 16  1  0
 18 17  1  0
 19 18  1  0
 20 18  2  0
M  END
$$$$
