ESG.pdb
     RDKit          3D

 20 19  0  0  1  0  0  0  0  0999 V2000
   17.7190   -8.5731  -12.2436 N   0  0  0  0  0  0  0  0  0  0  0  0
   18.5439   -8.3728  -13.4590 C   0  0  1  0  0  0  0  0  0  0  0  0
   17.7212   -8.7003  -14.6726 C   0  0  0  0  0  0  0  0  0  0  0  0
   17.5024  -10.1752  -14.7849 C   0  0  0  0  0  0  0  0  0  0  0  0
   18.7017  -10.8040  -15.3889 C   0  0  0  0  0  0  0  0  0  0  0  0
   19.2467  -11.7778  -14.8506 O   0  0  0  0  0  0  0  0  0  0  0  0
   18.9592   -6.9405  -13.4937 C   0  0  0  0  0  0  0  0  0  0  0  0
   18.2851   -6.0127  -13.0187 O   0  0  0  0  0  0  0  0  0  0  0  0
   19.1829  -10.2453  -16.5878 O   0  0  0  0  0  0  0  0  0  0  0  0
   22.6184   -5.5964  -12.6962 O   0  0  0  0  0  0  0  0  0  0  0  0
   22.1669   -5.1609  -13.9343 C   0  0  0  0  0  0  0  0  0  0  0  0
   20.6558   -5.1959  -14.0519 C   0  0  2  0  0  0  0  0  0  0  0  0
   20.2099   -6.5586  -14.1042 N   0  0  0  0  0  0  0  0  0  0  0  0
   20.2490   -4.3876  -15.2112 C   0  0  0  0  0  0  0  0  0  0  0  0
   20.3962   -4.8942  -16.3520 O   0  0  0  0  0  0  0  0  0  0  0  0
   19.7012   -3.0708  -15.1180 N   0  0  0  0  0  0  0  0  0  0  0  0
   19.3965   -2.3135  -16.3270 C   0  0  0  0  0  0  0  0  0  0  0  0
   18.8369   -1.0030  -15.9575 C   0  0  0  0  0  0  0  0  0  0  0  0
   18.5818   -0.0312  -16.9182 O   0  0  0  0  0  0  0  0  0  0  0  0
   18.5661   -0.7106  -14.7474 O   0  0  0  0  0  0  0  0  0  0  0  0
  2  3  1  0
  2  1  1  1
  4  3  1  0
  5  6  2  0
  5  4  1  0
  7  2  1  0
  7  8  2  0
  9  5  1  0
 10 11  1  0
 12 11  1  6
 12 13  1  0
 13  7  1  0
 14 12  1  0
 14 16  1  0
 15 14  2  0
 17 16  1  0
 18 17  1  0
 19 18  1  0
 20 18  2  0
M  END
$$$$
