ESG.pdb
     RDKit          3D

 20 19  0  0  1  0  0  0  0  0999 V2000
   14.2945  -10.6919  -12.7936 N   0  0  0  0  0  0  0  0  0  0  0  0
   15.4473  -10.0967  -12.0761 C   0  0  1  0  0  0  0  0  0  0  0  0
   16.5242   -9.7593  -13.0678 C   0  0  0  0  0  0  0  0  0  0  0  0
   17.1428  -11.0015  -13.6247 C   0  0  0  0  0  0  0  0  0  0  0  0
   18.2709  -10.6314  -14.5129 C   0  0  0  0  0  0  0  0  0  0  0  0
   19.3525  -10.2540  -14.0410 O   0  0  0  0  0  0  0  0  0  0  0  0
   14.9683   -8.8568  -11.3992 C   0  0  0  0  0  0  0  0  0  0  0  0
   14.1048   -8.1002  -11.8709 O   0  0  0  0  0  0  0  0  0  0  0  0
   18.0528  -10.7287  -15.9000 O   0  0  0  0  0  0  0  0  0  0  0  0
   13.8452   -8.3424   -7.7244 O   0  0  0  0  0  0  0  0  0  0  0  0
   14.8996   -7.4844   -8.0043 C   0  0  0  0  0  0  0  0  0  0  0  0
   15.0859   -7.2512   -9.4908 C   0  0  2  0  0  0  0  0  0  0  0  0
   15.5094   -8.4699  -10.1185 N   0  0  0  0  0  0  0  0  0  0  0  0
   16.0112   -6.1247   -9.6844 C   0  0  0  0  0  0  0  0  0  0  0  0
   17.2427   -6.3744   -9.6585 O   0  0  0  0  0  0  0  0  0  0  0  0
   15.5962   -4.7737   -9.8979 N   0  0  0  0  0  0  0  0  0  0  0  0
   16.5875   -3.7115  -10.0287 C   0  0  0  0  0  0  0  0  0  0  0  0
   17.0747   -3.6628  -11.4169 C   0  0  0  0  0  0  0  0  0  0  0  0
   16.6635   -4.5990  -12.3586 O   0  0  0  0  0  0  0  0  0  0  0  0
   17.8890   -2.7638  -11.8068 O   0  0  0  0  0  0  0  0  0  0  0  0
  2  3  1  0
  2  1  1  6
  4  3  1  0
  5  6  2  0
  5  4  1  0
  7  2  1  0
  7  8  2  0
  9  5  1  0
 10 11  1  0
 12 11  1  1
 12 13  1  0
 13  7  1  0
 14 12  1  0
 14 16  1  0
 15 14  2  0
 17 16  1  0
 18 17  1  0
 19 18  1  0
 20 18  2  0
M  END
$$$$
