ESG.pdb
     RDKit          3D

 20 19  0  0  1  0  0  0  0  0999 V2000
   17.9377  -11.3252  -17.2902 N   0  0  0  0  0  0  0  0  0  0  0  0
   18.2019  -11.2728  -15.8323 C   0  0  1  0  0  0  0  0  0  0  0  0
   18.5327  -12.6536  -15.3414 C   0  0  0  0  0  0  0  0  0  0  0  0
   17.6852  -13.6785  -16.0250 C   0  0  0  0  0  0  0  0  0  0  0  0
   18.1133  -15.0323  -15.5979 C   0  0  0  0  0  0  0  0  0  0  0  0
   18.2437  -15.3071  -14.3968 O   0  0  0  0  0  0  0  0  0  0  0  0
   19.3621  -10.3608  -15.6147 C   0  0  0  0  0  0  0  0  0  0  0  0
   19.9432  -10.2278  -14.5259 O   0  0  0  0  0  0  0  0  0  0  0  0
   18.3613  -15.9757  -16.6126 O   0  0  0  0  0  0  0  0  0  0  0  0
   22.2583   -9.7263  -18.3551 O   0  0  0  0  0  0  0  0  0  0  0  0
   21.7422   -8.5451  -17.8408 C   0  0  0  0  0  0  0  0  0  0  0  0
   21.0385   -8.7430  -16.5126 C   0  0  2  0  0  0  0  0  0  0  0  0
   19.8774   -9.5643  -16.7022 N   0  0  0  0  0  0  0  0  0  0  0  0
   20.7510   -7.4261  -15.9244 C   0  0  0  0  0  0  0  0  0  0  0  0
   19.7329   -6.8158  -16.3377 O   0  0  0  0  0  0  0  0  0  0  0  0
   21.5547   -6.8042  -14.9193 N   0  0  0  0  0  0  0  0  0  0  0  0
   21.2281   -5.4655  -14.4403 C   0  0  0  0  0  0  0  0  0  0  0  0
   22.1143   -5.1158  -13.3182 C   0  0  0  0  0  0  0  0  0  0  0  0
   22.0714   -3.8565  -12.7310 O   0  0  0  0  0  0  0  0  0  0  0  0
   22.9515   -5.9510  -12.8441 O   0  0  0  0  0  0  0  0  0  0  0  0
  2  3  1  0
  2  1  1  6
  4  3  1  0
  5  6  2  0
  5  4  1  0
  7  2  1  0
  7  8  2  0
  9  5  1  0
 10 11  1  0
 12 11  1  6
 12 13  1  0
 13  7  1  0
 14 12  1  0
 14 16  1  0
 15 14  2  0
 17 16  1  0
 18 17  1  0
 19 18  1  0
 20 18  2  0
M  END
$$$$
