AQG.pdb
     RDKit          3D

 19 18  0  0  1  0  0  0  0  0999 V2000
    6.9071  -15.3136   19.7002 C   0  0  0  0  0  0  0  0  0  0  0  0
    7.1399  -13.9341   20.2772 C   0  0  2  0  0  0  0  0  0  0  0  0
    7.6416  -13.0200   19.2847 N   0  0  0  0  0  0  0  0  0  0  0  0
    8.0236  -13.9828   21.4810 C   0  0  0  0  0  0  0  0  0  0  0  0
    9.2663  -13.8134   21.3912 O   0  0  0  0  0  0  0  0  0  0  0  0
    5.9658  -11.0639   27.0744 N   0  0  0  0  0  0  0  0  0  0  0  0
    6.0820  -12.3082   26.4172 C   0  0  0  0  0  0  0  0  0  0  0  0
    5.4793  -13.2969   26.8942 O   0  0  0  0  0  0  0  0  0  0  0  0
    6.8864  -12.4866   25.1903 C   0  0  0  0  0  0  0  0  0  0  0  0
    7.5323  -13.8325   25.2044 C   0  0  0  0  0  0  0  0  0  0  0  0
    8.3501  -14.0967   23.9543 C   0  0  2  0  0  0  0  0  0  0  0  0
    7.5062  -14.2223   22.7853 N   0  0  0  0  0  0  0  0  0  0  0  0
    9.0460  -15.3839   24.1568 C   0  0  0  0  0  0  0  0  0  0  0  0
    8.3732  -16.4040   24.4293 O   0  0  0  0  0  0  0  0  0  0  0  0
   10.4699  -15.4758   24.0455 N   0  0  0  0  0  0  0  0  0  0  0  0
   11.0952  -16.7501   24.3403 C   0  0  0  0  0  0  0  0  0  0  0  0
   12.5678  -16.6711   24.2649 C   0  0  0  0  0  0  0  0  0  0  0  0
   13.1070  -15.5756   23.9825 O   0  0  0  0  0  0  0  0  0  0  0  0
   13.3062  -17.8126   24.5093 O   0  0  0  0  0  0  0  0  0  0  0  0
  2  3  1  0
  2  1  1  6
  4  2  1  0
  5  4  2  0
  6  7  1  0
  7  8  2  0
  7  9  1  0
  9 10  1  0
 11 10  1  1
 11 13  1  0
 11 12  1  0
 12  4  1  0
 13 15  1  0
 14 13  2  0
 15 16  1  0
 17 19  1  0
 17 16  1  0
 18 17  2  0
M  END
$$$$
