AQG.pdb
     RDKit          3D

 19 18  0  0  1  0  0  0  0  0999 V2000
    7.1191  -14.5756   19.2516 C   0  0  0  0  0  0  0  0  0  0  0  0
    7.6077  -13.3420   19.9794 C   0  0  2  0  0  0  0  0  0  0  0  0
    8.5292  -12.5809   19.1768 N   0  0  0  0  0  0  0  0  0  0  0  0
    8.1876  -13.6833   21.3134 C   0  0  0  0  0  0  0  0  0  0  0  0
    9.4297  -13.7756   21.4858 O   0  0  0  0  0  0  0  0  0  0  0  0
    5.1489  -12.8819   26.7743 N   0  0  0  0  0  0  0  0  0  0  0  0
    6.2580  -12.0447   26.5235 C   0  0  0  0  0  0  0  0  0  0  0  0
    6.3803  -10.9943   27.1942 O   0  0  0  0  0  0  0  0  0  0  0  0
    7.2773  -12.3615   25.5013 C   0  0  0  0  0  0  0  0  0  0  0  0
    6.9509  -13.6664   24.8538 C   0  0  0  0  0  0  0  0  0  0  0  0
    7.9465  -14.0429   23.7729 C   0  0  2  0  0  0  0  0  0  0  0  0
    7.3673  -13.9203   22.4524 N   0  0  0  0  0  0  0  0  0  0  0  0
    8.3016  -15.4607   23.9870 C   0  0  0  0  0  0  0  0  0  0  0  0
    7.4248  -16.3396   23.8253 O   0  0  0  0  0  0  0  0  0  0  0  0
    9.6272  -15.8367   24.3743 N   0  0  0  0  0  0  0  0  0  0  0  0
    9.9224  -17.2497   24.5089 C   0  0  0  0  0  0  0  0  0  0  0  0
   11.3468  -17.4874   24.8171 C   0  0  0  0  0  0  0  0  0  0  0  0
   12.1394  -16.5167   24.8288 O   0  0  0  0  0  0  0  0  0  0  0  0
   11.7609  -18.7779   25.0837 O   0  0  0  0  0  0  0  0  0  0  0  0
  2  3  1  0
  2  1  1  6
  4  2  1  0
  5  4  2  0
  6  7  1  0
  7  8  2  0
  7  9  1  0
  9 10  1  0
 11 10  1  1
 11 13  1  0
 11 12  1  0
 12  4  1  0
 13 15  1  0
 14 13  2  0
 15 16  1  0
 17 19  1  0
 17 16  1  0
 18 17  2  0
M  END
$$$$
