AQG.pdb
     RDKit          3D

 19 18  0  0  1  0  0  0  0  0999 V2000
    5.2278  -22.4043   20.6130 C   0  0  0  0  0  0  0  0  0  0  0  0
    3.9844  -22.8087   21.3748 C   0  0  2  0  0  0  0  0  0  0  0  0
    2.8092  -22.1556   20.8603 N   0  0  0  0  0  0  0  0  0  0  0  0
    4.1421  -22.5865   22.8439 C   0  0  0  0  0  0  0  0  0  0  0  0
    4.5176  -21.4783   23.3042 O   0  0  0  0  0  0  0  0  0  0  0  0
    2.3299  -25.5335   29.1370 N   0  0  0  0  0  0  0  0  0  0  0  0
    1.9515  -24.5752   28.1714 C   0  0  0  0  0  0  0  0  0  0  0  0
    0.7338  -24.4257   27.9200 O   0  0  0  0  0  0  0  0  0  0  0  0
    2.9368  -23.7443   27.4482 C   0  0  0  0  0  0  0  0  0  0  0  0
    2.9414  -24.1149   26.0021 C   0  0  0  0  0  0  0  0  0  0  0  0
    3.9958  -23.3615   25.2134 C   0  0  2  0  0  0  0  0  0  0  0  0
    3.8765  -23.6133   23.7933 N   0  0  0  0  0  0  0  0  0  0  0  0
    5.3110  -23.8655   25.6586 C   0  0  0  0  0  0  0  0  0  0  0  0
    5.7509  -24.9324   25.1731 O   0  0  0  0  0  0  0  0  0  0  0  0
    6.0813  -23.1522   26.6315 N   0  0  0  0  0  0  0  0  0  0  0  0
    7.3381  -23.7317   27.0633 C   0  0  0  0  0  0  0  0  0  0  0  0
    8.4948  -22.9217   26.6315 C   0  0  0  0  0  0  0  0  0  0  0  0
    8.9434  -23.0677   25.4706 O   0  0  0  0  0  0  0  0  0  0  0  0
    9.0469  -22.0254   27.5259 O   0  0  0  0  0  0  0  0  0  0  0  0
  2  3  1  0
  2  1  1  6
  4  2  1  0
  5  4  2  0
  6  7  1  0
  7  8  2  0
  7  9  1  0
  9 10  1  0
 11 10  1  1
 11 13  1  0
 11 12  1  0
 12  4  1  0
 13 15  1  0
 14 13  2  0
 15 16  1  0
 17 19  1  0
 17 16  1  0
 18 17  2  0
M  END
$$$$
