AQG.pdb
     RDKit          3D

 19 18  0  0  1  0  0  0  0  0999 V2000
    7.7991  -12.5451   19.5646 C   0  0  0  0  0  0  0  0  0  0  0  0
    7.8655  -13.9532   20.1148 C   0  0  2  0  0  0  0  0  0  0  0  0
    6.5679  -14.5761   20.1409 N   0  0  0  0  0  0  0  0  0  0  0  0
    8.5234  -13.9899   21.4558 C   0  0  0  0  0  0  0  0  0  0  0  0
    9.6919  -13.5581   21.6264 O   0  0  0  0  0  0  0  0  0  0  0  0
    6.1325  -11.4088   26.8400 N   0  0  0  0  0  0  0  0  0  0  0  0
    6.2235  -12.6396   26.1540 C   0  0  0  0  0  0  0  0  0  0  0  0
    5.4720  -13.5782   26.5040 O   0  0  0  0  0  0  0  0  0  0  0  0
    7.1704  -12.8606   25.0410 C   0  0  0  0  0  0  0  0  0  0  0  0
    7.6088  -14.2876   25.0303 C   0  0  0  0  0  0  0  0  0  0  0  0
    8.5451  -14.5983   23.8778 C   0  0  2  0  0  0  0  0  0  0  0  0
    7.8640  -14.5133   22.6037 N   0  0  0  0  0  0  0  0  0  0  0  0
    9.0060  -15.9900   24.0583 C   0  0  0  0  0  0  0  0  0  0  0  0
    8.2184  -16.9302   23.8072 O   0  0  0  0  0  0  0  0  0  0  0  0
   10.3333  -16.2722   24.5136 N   0  0  0  0  0  0  0  0  0  0  0  0
   10.7286  -17.6611   24.6415 C   0  0  0  0  0  0  0  0  0  0  0  0
   12.1549  -17.7967   24.9990 C   0  0  0  0  0  0  0  0  0  0  0  0
   12.8561  -16.7647   25.1156 O   0  0  0  0  0  0  0  0  0  0  0  0
   12.6718  -19.0627   25.1942 O   0  0  0  0  0  0  0  0  0  0  0  0
  2  3  1  0
  2  1  1  1
  4  2  1  0
  5  4  2  0
  6  7  1  0
  7  8  2  0
  7  9  1  0
  9 10  1  0
 11 10  1  1
 11 13  1  0
 11 12  1  0
 12  4  1  0
 13 15  1  0
 14 13  2  0
 15 16  1  0
 17 19  1  0
 17 16  1  0
 18 17  2  0
M  END
$$$$
