AQG.pdb
     RDKit          3D

 19 18  0  0  1  0  0  0  0  0999 V2000
    7.0230  -14.6902   19.2508 C   0  0  0  0  0  0  0  0  0  0  0  0
    7.5439  -13.4093   19.8655 C   0  0  2  0  0  0  0  0  0  0  0  0
    8.5065  -12.7627   19.0125 N   0  0  0  0  0  0  0  0  0  0  0  0
    8.0874  -13.6386   21.2382 C   0  0  0  0  0  0  0  0  0  0  0  0
    9.3047  -13.8887   21.4297 O   0  0  0  0  0  0  0  0  0  0  0  0
    5.2609  -12.0490   26.7156 N   0  0  0  0  0  0  0  0  0  0  0  0
    6.5819  -12.3974   27.0724 C   0  0  0  0  0  0  0  0  0  0  0  0
    6.9632  -12.1808   28.2454 O   0  0  0  0  0  0  0  0  0  0  0  0
    7.5289  -13.0067   26.1152 C   0  0  0  0  0  0  0  0  0  0  0  0
    6.8933  -13.0958   24.7674 C   0  0  0  0  0  0  0  0  0  0  0  0
    7.8285  -13.6734   23.7219 C   0  0  2  0  0  0  0  0  0  0  0  0
    7.2587  -13.5860   22.3945 N   0  0  0  0  0  0  0  0  0  0  0  0
    8.0118  -15.1025   24.0479 C   0  0  0  0  0  0  0  0  0  0  0  0
    7.0655  -15.8984   23.8518 O   0  0  0  0  0  0  0  0  0  0  0  0
    9.2502  -15.5824   24.5814 N   0  0  0  0  0  0  0  0  0  0  0  0
    9.3725  -17.0023   24.8473 C   0  0  0  0  0  0  0  0  0  0  0  0
   10.7242  -17.3586   25.3230 C   0  0  0  0  0  0  0  0  0  0  0  0
   11.5910  -16.4599   25.4291 O   0  0  0  0  0  0  0  0  0  0  0  0
   10.9901  -18.6773   25.6371 O   0  0  0  0  0  0  0  0  0  0  0  0
  2  3  1  0
  2  1  1  6
  4  2  1  0
  5  4  2  0
  6  7  1  0
  7  8  2  0
  7  9  1  0
  9 10  1  0
 11 10  1  1
 11 13  1  0
 11 12  1  0
 12  4  1  0
 13 15  1  0
 14 13  2  0
 15 16  1  0
 17 19  1  0
 17 16  1  0
 18 17  2  0
M  END
$$$$
