AQG.pdb
     RDKit          3D

 19 18  0  0  1  0  0  0  0  0999 V2000
   -2.3352  -25.9665   26.8493 C   0  0  0  0  0  0  0  0  0  0  0  0
   -1.6721  -25.7799   28.1967 C   0  0  2  0  0  0  0  0  0  0  0  0
   -0.7935  -26.8753   28.5137 N   0  0  0  0  0  0  0  0  0  0  0  0
   -2.6771  -25.5466   29.2774 C   0  0  0  0  0  0  0  0  0  0  0  0
   -3.4873  -26.4429   29.6258 O   0  0  0  0  0  0  0  0  0  0  0  0
   -1.9192  -22.8960   34.6347 N   0  0  0  0  0  0  0  0  0  0  0  0
   -1.9906  -24.2729   34.3301 C   0  0  0  0  0  0  0  0  0  0  0  0
   -1.4650  -25.0899   35.1203 O   0  0  0  0  0  0  0  0  0  0  0  0
   -2.6608  -24.7843   33.1162 C   0  0  0  0  0  0  0  0  0  0  0  0
   -3.1501  -23.6395   32.2925 C   0  0  0  0  0  0  0  0  0  0  0  0
   -3.7729  -24.0902   30.9846 C   0  0  2  0  0  0  0  0  0  0  0  0
   -2.7686  -24.3034   29.9648 N   0  0  0  0  0  0  0  0  0  0  0  0
   -4.6617  -23.0009   30.5309 C   0  0  0  0  0  0  0  0  0  0  0  0
   -4.1547  -21.9500   30.0771 O   0  0  0  0  0  0  0  0  0  0  0  0
   -6.0848  -23.1339   30.6043 N   0  0  0  0  0  0  0  0  0  0  0  0
   -6.8978  -22.0683   30.0518 C   0  0  0  0  0  0  0  0  0  0  0  0
   -8.3405  -22.3286   30.2286 C   0  0  0  0  0  0  0  0  0  0  0  0
   -8.7099  -23.4350   30.6865 O   0  0  0  0  0  0  0  0  0  0  0  0
   -9.2399  -21.3391   29.8817 O   0  0  0  0  0  0  0  0  0  0  0  0
  2  3  1  0
  2  1  1  6
  4  2  1  0
  5  4  2  0
  6  7  1  0
  7  8  2  0
  7  9  1  0
  9 10  1  0
 11 10  1  1
 11 13  1  0
 11 12  1  0
 12  4  1  0
 13 15  1  0
 14 13  2  0
 15 16  1  0
 17 19  1  0
 17 16  1  0
 18 17  2  0
M  END
$$$$
