QDS.pdb
     RDKit          3D

 24 23  0  0  1  0  0  0  0  0999 V2000
   19.3590  -13.4037  -15.2700 N   0  0  0  0  0  0  0  0  0  0  0  0
   18.6540  -12.9988  -16.4482 C   0  0  0  0  0  0  0  0  0  0  0  0
   18.6252  -13.8031  -17.4240 O   0  0  0  0  0  0  0  0  0  0  0  0
   18.0058  -11.6857  -16.4672 C   0  0  0  0  0  0  0  0  0  0  0  0
   18.1969  -10.8423  -15.2606 C   0  0  0  0  0  0  0  0  0  0  0  0
   16.9544  -10.2089  -14.7028 C   0  0  2  0  0  0  0  0  0  0  0  0
   15.9653  -10.1193  -15.7298 N   0  0  0  0  0  0  0  0  0  0  0  0
   17.3222   -8.8756  -14.1515 C   0  0  0  0  0  0  0  0  0  0  0  0
   17.3970   -7.8346  -14.8468 O   0  0  0  0  0  0  0  0  0  0  0  0
   17.6098   -8.7467  -12.7701 N   0  0  0  0  0  0  0  0  0  0  0  0
   17.9446   -7.5114  -12.1154 C   0  0  1  0  0  0  0  0  0  0  0  0
   17.5149   -7.5458  -10.7017 C   0  0  0  0  0  0  0  0  0  0  0  0
   17.7681   -6.2535  -10.0353 C   0  0  0  0  0  0  0  0  0  0  0  0
   18.1288   -5.2716  -10.7070 O   0  0  0  0  0  0  0  0  0  0  0  0
   19.3248   -7.0733  -12.3700 C   0  0  0  0  0  0  0  0  0  0  0  0
   20.2595   -7.8160  -11.9322 O   0  0  0  0  0  0  0  0  0  0  0  0
   17.6075   -6.1279   -8.6747 O   0  0  0  0  0  0  0  0  0  0  0  0
   20.5298   -5.5235  -15.7594 O   0  0  0  0  0  0  0  0  0  0  0  0
   21.3141   -6.1653  -14.7848 C   0  0  0  0  0  0  0  0  0  0  0  0
   21.0642   -5.5716  -13.4145 C   0  0  2  0  0  0  0  0  0  0  0  0
   19.6908   -5.8920  -13.0632 N   0  0  0  0  0  0  0  0  0  0  0  0
   21.3713   -4.1430  -13.3280 C   0  0  0  0  0  0  0  0  0  0  0  0
   20.4854   -3.2738  -13.1067 O   0  0  0  0  0  0  0  0  0  0  0  0
   22.6719   -3.7020  -13.4908 O   0  0  0  0  0  0  0  0  0  0  0  0
  2  1  1  0
  2  3  2  0
  4  2  1  0
  5  6  1  0
  5  4  1  0
  6  7  1  6
  8 10  1  0
  8  6  1  0
  9  8  2  0
 11 10  1  0
 11 12  1  1
 12 13  1  0
 13 17  1  0
 14 13  2  0
 15 11  1  0
 16 15  2  0
 19 18  1  0
 20 21  1  0
 20 19  1  6
 21 15  1  0
 22 20  1  0
 23 22  2  0
 24 22  1  0
M  END
$$$$
