QDS.pdb
     RDKit          3D

 24 23  0  0  1  0  0  0  0  0999 V2000
   11.6393  -13.3117  -13.5942 N   0  0  0  0  0  0  0  0  0  0  0  0
   12.1778  -13.1110  -12.2831 C   0  0  0  0  0  0  0  0  0  0  0  0
   11.6469  -13.7425  -11.3244 O   0  0  0  0  0  0  0  0  0  0  0  0
   13.3068  -12.1933  -12.1161 C   0  0  0  0  0  0  0  0  0  0  0  0
   13.7622  -11.4843  -13.3383 C   0  0  0  0  0  0  0  0  0  0  0  0
   15.1975  -11.7024  -13.7237 C   0  0  2  0  0  0  0  0  0  0  0  0
   15.6136  -12.9986  -13.2900 N   0  0  0  0  0  0  0  0  0  0  0  0
   16.0104  -10.6128  -13.1164 C   0  0  0  0  0  0  0  0  0  0  0  0
   16.6944  -10.7563  -12.0751 O   0  0  0  0  0  0  0  0  0  0  0  0
   16.0298   -9.3338  -13.7258 N   0  0  0  0  0  0  0  0  0  0  0  0
   16.7823   -8.2082  -13.2427 C   0  0  1  0  0  0  0  0  0  0  0  0
   17.1248   -7.3017  -14.3586 C   0  0  0  0  0  0  0  0  0  0  0  0
   18.1232   -7.9143  -15.2566 C   0  0  0  0  0  0  0  0  0  0  0  0
   19.1446   -8.4384  -14.7798 O   0  0  0  0  0  0  0  0  0  0  0  0
   16.1938   -7.5840  -12.0488 C   0  0  0  0  0  0  0  0  0  0  0  0
   14.9582   -7.7937  -11.8335 O   0  0  0  0  0  0  0  0  0  0  0  0
   17.9309   -7.9095  -16.6189 O   0  0  0  0  0  0  0  0  0  0  0  0
   15.7544   -6.5721   -7.6738 O   0  0  0  0  0  0  0  0  0  0  0  0
   16.3496   -7.1071   -8.8299 C   0  0  0  0  0  0  0  0  0  0  0  0
   16.2573   -6.1322   -9.9847 C   0  0  2  0  0  0  0  0  0  0  0  0
   16.8956   -6.7704  -11.1238 N   0  0  0  0  0  0  0  0  0  0  0  0
   16.7975   -4.8065   -9.6794 C   0  0  0  0  0  0  0  0  0  0  0  0
   17.8528   -4.3680  -10.2117 O   0  0  0  0  0  0  0  0  0  0  0  0
   16.1475   -3.9834   -8.7779 O   0  0  0  0  0  0  0  0  0  0  0  0
  2  1  1  0
  2  3  2  0
  4  2  1  0
  5  6  1  0
  5  4  1  0
  6  7  1  1
  8 10  1  0
  8  6  1  0
  9  8  2  0
 11 10  1  0
 11 12  1  6
 12 13  1  0
 13 17  1  0
 14 13  2  0
 15 11  1  0
 16 15  2  0
 19 18  1  0
 20 21  1  0
 20 19  1  1
 21 15  1  0
 22 20  1  0
 23 22  2  0
 24 22  1  0
M  END
$$$$
