QDS.pdb
     RDKit          3D

 24 23  0  0  1  0  0  0  0  0999 V2000
   27.7787  -11.0088  -16.0382 N   0  0  0  0  0  0  0  0  0  0  0  0
   27.2557  -12.3356  -16.1621 C   0  0  0  0  0  0  0  0  0  0  0  0
   28.0167  -13.3000  -15.8610 O   0  0  0  0  0  0  0  0  0  0  0  0
   25.8780  -12.5112  -16.6265 C   0  0  0  0  0  0  0  0  0  0  0  0
   25.0960  -11.2685  -16.8452 C   0  0  0  0  0  0  0  0  0  0  0  0
   23.7183  -11.4550  -17.4139 C   0  0  2  0  0  0  0  0  0  0  0  0
   23.8172  -12.0297  -18.7182 N   0  0  0  0  0  0  0  0  0  0  0  0
   23.0401  -10.1296  -17.4278 C   0  0  0  0  0  0  0  0  0  0  0  0
   23.3247   -9.2137  -18.2358 O   0  0  0  0  0  0  0  0  0  0  0  0
   22.0148   -9.8603  -16.4876 N   0  0  0  0  0  0  0  0  0  0  0  0
   21.2492   -8.6446  -16.4370 C   0  0  1  0  0  0  0  0  0  0  0  0
   19.8340   -8.9407  -16.1306 C   0  0  0  0  0  0  0  0  0  0  0  0
   18.9920   -7.7383  -16.2835 C   0  0  0  0  0  0  0  0  0  0  0  0
   18.0177   -7.5658  -15.5309 O   0  0  0  0  0  0  0  0  0  0  0  0
   21.8858   -7.5889  -15.6360 C   0  0  0  0  0  0  0  0  0  0  0  0
   22.5029   -7.9505  -14.5846 O   0  0  0  0  0  0  0  0  0  0  0  0
   19.2782   -6.8060  -17.2541 O   0  0  0  0  0  0  0  0  0  0  0  0
   24.6872   -5.5198  -16.4586 O   0  0  0  0  0  0  0  0  0  0  0  0
   23.6291   -4.6279  -16.2102 C   0  0  0  0  0  0  0  0  0  0  0  0
   22.6469   -5.2182  -15.2206 C   0  0  2  0  0  0  0  0  0  0  0  0
   21.8643   -6.2054  -15.9453 N   0  0  0  0  0  0  0  0  0  0  0  0
   21.8311   -4.2160  -14.5331 C   0  0  0  0  0  0  0  0  0  0  0  0
   20.7621   -3.7627  -15.0242 O   0  0  0  0  0  0  0  0  0  0  0  0
   22.2228   -3.7307  -13.2988 O   0  0  0  0  0  0  0  0  0  0  0  0
  2  1  1  0
  2  3  2  0
  4  2  1  0
  5  6  1  0
  5  4  1  0
  6  7  1  6
  8 10  1  0
  8  6  1  0
  9  8  2  0
 11 10  1  0
 11 12  1  1
 12 13  1  0
 13 17  1  0
 14 13  2  0
 15 11  1  0
 16 15  2  0
 19 18  1  0
 20 21  1  0
 20 19  1  6
 21 15  1  0
 22 20  1  0
 23 22  2  0
 24 22  1  0
M  END
$$$$
