QDS.pdb
     RDKit          3D

 24 23  0  0  1  0  0  0  0  0999 V2000
   10.9009  -14.6367  -10.2969 N   0  0  0  0  0  0  0  0  0  0  0  0
   11.3687  -13.3035  -10.5275 C   0  0  0  0  0  0  0  0  0  0  0  0
   11.0428  -12.4114   -9.6922 O   0  0  0  0  0  0  0  0  0  0  0  0
   12.1943  -13.0390  -11.7078 C   0  0  0  0  0  0  0  0  0  0  0  0
   13.4920  -12.3612  -11.4621 C   0  0  0  0  0  0  0  0  0  0  0  0
   14.3066  -12.0467  -12.6842 C   0  0  2  0  0  0  0  0  0  0  0  0
   14.6670  -13.2637  -13.3404 N   0  0  0  0  0  0  0  0  0  0  0  0
   15.4955  -11.2585  -12.2577 C   0  0  0  0  0  0  0  0  0  0  0  0
   16.6730  -11.6826  -12.3362 O   0  0  0  0  0  0  0  0  0  0  0  0
   15.3164   -9.9560  -11.7293 N   0  0  0  0  0  0  0  0  0  0  0  0
   16.3850   -9.0555  -11.3917 C   0  0  1  0  0  0  0  0  0  0  0  0
   17.3806   -9.0071  -12.4830 C   0  0  0  0  0  0  0  0  0  0  0  0
   18.4977   -8.1032  -12.1465 C   0  0  0  0  0  0  0  0  0  0  0  0
   19.0539   -8.1934  -11.0384 O   0  0  0  0  0  0  0  0  0  0  0  0
   15.9146   -7.7615  -10.8764 C   0  0  0  0  0  0  0  0  0  0  0  0
   15.2807   -7.0110  -11.6838 O   0  0  0  0  0  0  0  0  0  0  0  0
   18.9282   -7.1606  -13.0516 O   0  0  0  0  0  0  0  0  0  0  0  0
   14.7708   -5.0461   -7.0237 O   0  0  0  0  0  0  0  0  0  0  0  0
   15.3798   -6.1879   -7.5736 C   0  0  0  0  0  0  0  0  0  0  0  0
   15.5618   -6.0350   -9.0689 C   0  0  2  0  0  0  0  0  0  0  0  0
   16.1127   -7.2893   -9.5543 N   0  0  0  0  0  0  0  0  0  0  0  0
   16.3534   -4.8636   -9.4480 C   0  0  0  0  0  0  0  0  0  0  0  0
   17.5818   -4.9382   -9.7215 O   0  0  0  0  0  0  0  0  0  0  0  0
   15.7585   -3.6171   -9.5168 O   0  0  0  0  0  0  0  0  0  0  0  0
  2  1  1  0
  2  3  2  0
  4  2  1  0
  5  6  1  0
  5  4  1  0
  6  7  1  1
  8 10  1  0
  8  6  1  0
  9  8  2  0
 11 10  1  0
 11 12  1  6
 12 13  1  0
 13 17  1  0
 14 13  2  0
 15 11  1  0
 16 15  2  0
 19 18  1  0
 20 21  1  0
 20 19  1  1
 21 15  1  0
 22 20  1  0
 23 22  2  0
 24 22  1  0
M  END
$$$$
