QDS.pdb
     RDKit          3D

 24 23  0  0  1  0  0  0  0  0999 V2000
   22.1587  -14.0055  -20.0450 N   0  0  0  0  0  0  0  0  0  0  0  0
   20.7465  -13.9326  -19.8224 C   0  0  0  0  0  0  0  0  0  0  0  0
   20.0856  -15.0100  -19.8703 O   0  0  0  0  0  0  0  0  0  0  0  0
   20.1404  -12.6271  -19.5523 C   0  0  0  0  0  0  0  0  0  0  0  0
   21.0124  -11.4436  -19.7592 C   0  0  0  0  0  0  0  0  0  0  0  0
   21.8437  -11.0301  -18.5785 C   0  0  2  0  0  0  0  0  0  0  0  0
   21.9650  -12.1302  -17.6750 N   0  0  0  0  0  0  0  0  0  0  0  0
   21.1959   -9.8469  -17.9482 C   0  0  0  0  0  0  0  0  0  0  0  0
   20.9365   -8.7872  -18.5665 O   0  0  0  0  0  0  0  0  0  0  0  0
   20.8439   -9.8922  -16.5764 N   0  0  0  0  0  0  0  0  0  0  0  0
   20.1544   -8.8449  -15.8733 C   0  0  1  0  0  0  0  0  0  0  0  0
   19.2702   -9.4174  -14.8366 C   0  0  0  0  0  0  0  0  0  0  0  0
   18.0856  -10.0583  -15.4401 C   0  0  0  0  0  0  0  0  0  0  0  0
   17.7716  -11.2144  -15.1081 O   0  0  0  0  0  0  0  0  0  0  0  0
   21.0383   -7.7496  -15.4483 C   0  0  0  0  0  0  0  0  0  0  0  0
   22.1574   -8.0717  -14.9376 O   0  0  0  0  0  0  0  0  0  0  0  0
   17.3257   -9.3845  -16.3683 O   0  0  0  0  0  0  0  0  0  0  0  0
   22.0755   -2.9840  -15.5059 O   0  0  0  0  0  0  0  0  0  0  0  0
   21.2514   -4.0628  -15.8720 C   0  0  0  0  0  0  0  0  0  0  0  0
   21.6474   -5.3209  -15.1284 C   0  0  2  0  0  0  0  0  0  0  0  0
   20.7393   -6.3685  -15.5644 N   0  0  0  0  0  0  0  0  0  0  0  0
   21.6931   -5.1548  -13.6748 C   0  0  0  0  0  0  0  0  0  0  0  0
   22.6156   -4.5196  -13.0962 O   0  0  0  0  0  0  0  0  0  0  0  0
   20.7016   -5.7039  -12.8825 O   0  0  0  0  0  0  0  0  0  0  0  0
  2  1  1  0
  2  3  2  0
  4  2  1  0
  5  6  1  0
  5  4  1  0
  6  7  1  1
  8 10  1  0
  8  6  1  0
  9  8  2  0
 11 10  1  0
 11 12  1  1
 12 13  1  0
 13 17  1  0
 14 13  2  0
 15 11  1  0
 16 15  2  0
 19 18  1  0
 20 21  1  0
 20 19  1  6
 21 15  1  0
 22 20  1  0
 23 22  2  0
 24 22  1  0
M  END
$$$$
