QDS.pdb
     RDKit          3D

 24 23  0  0  1  0  0  0  0  0999 V2000
   17.0114  -10.3377  -19.9481 N   0  0  0  0  0  0  0  0  0  0  0  0
   16.4504  -10.4061  -18.6329 C   0  0  0  0  0  0  0  0  0  0  0  0
   15.2050  -10.2207  -18.5126 O   0  0  0  0  0  0  0  0  0  0  0  0
   17.3364  -10.6850  -17.5008 C   0  0  0  0  0  0  0  0  0  0  0  0
   18.7581  -10.9552  -17.8314 C   0  0  0  0  0  0  0  0  0  0  0  0
   19.6666  -11.1983  -16.6601 C   0  0  2  0  0  0  0  0  0  0  0  0
   19.2701  -12.3979  -15.9931 N   0  0  0  0  0  0  0  0  0  0  0  0
   19.6028  -10.0065  -15.7699 C   0  0  0  0  0  0  0  0  0  0  0  0
   18.8207   -9.9110  -14.7943 O   0  0  0  0  0  0  0  0  0  0  0  0
   20.4598   -8.9052  -16.0156 N   0  0  0  0  0  0  0  0  0  0  0  0
   20.4780   -7.6936  -15.2421 C   0  0  1  0  0  0  0  0  0  0  0  0
   21.8558   -7.3818  -14.8075 C   0  0  0  0  0  0  0  0  0  0  0  0
   21.8837   -6.1918  -13.9349 C   0  0  0  0  0  0  0  0  0  0  0  0
   22.3725   -5.1287  -14.3545 O   0  0  0  0  0  0  0  0  0  0  0  0
   19.7226   -6.5956  -15.8627 C   0  0  0  0  0  0  0  0  0  0  0  0
   20.0217   -6.2896  -17.0602 O   0  0  0  0  0  0  0  0  0  0  0  0
   21.3719   -6.2511  -12.6591 O   0  0  0  0  0  0  0  0  0  0  0  0
   15.7990   -3.7655  -15.9438 O   0  0  0  0  0  0  0  0  0  0  0  0
   16.5698   -4.7793  -15.3479 C   0  0  0  0  0  0  0  0  0  0  0  0
   17.9873   -4.7625  -15.8799 C   0  0  2  0  0  0  0  0  0  0  0  0
   18.6912   -5.8560  -15.2310 N   0  0  0  0  0  0  0  0  0  0  0  0
   18.6552   -3.4684  -15.7324 C   0  0  0  0  0  0  0  0  0  0  0  0
   19.2358   -3.1254  -14.6673 O   0  0  0  0  0  0  0  0  0  0  0  0
   18.6656   -2.5695  -16.7833 O   0  0  0  0  0  0  0  0  0  0  0  0
  2  1  1  0
  2  3  2  0
  4  2  1  0
  5  6  1  0
  5  4  1  0
  6  7  1  1
  8 10  1  0
  8  6  1  0
  9  8  2  0
 11 10  1  0
 11 12  1  6
 12 13  1  0
 13 17  1  0
 14 13  2  0
 15 11  1  0
 16 15  2  0
 19 18  1  0
 20 21  1  0
 20 19  1  1
 21 15  1  0
 22 20  1  0
 23 22  2  0
 24 22  1  0
M  END
$$$$
