HMH.pdb
     RDKit          3D

 29 30  0  0  1  0  0  0  0  0999 V2000
   27.8456  -21.5001  -15.2838 N   0  0  0  0  0  0  0  0  0  0  0  0
   27.4397  -20.5387  -14.3092 C   0  0  1  0  0  0  0  0  0  0  0  0
   26.7777  -19.3481  -14.9213 C   0  0  0  0  0  0  0  0  0  0  0  0
   27.6368  -18.5479  -15.7910 C   0  0  0  0  0  0  0  0  0  0  0  0
   28.9898  -18.7125  -15.9611 C   0  0  0  0  0  0  0  0  0  0  0  0
   29.4019  -17.7793  -16.8411 N   0  0  0  0  0  0  0  0  0  0  0  0
   28.3447  -17.0471  -17.2166 C   0  0  0  0  0  0  0  0  0  0  0  0
   27.2684  -17.5277  -16.5661 N   0  0  0  0  0  0  0  0  0  0  0  0
   26.5243  -21.0995  -13.2870 C   0  0  0  0  0  0  0  0  0  0  0  0
   25.8613  -22.1378  -13.5401 O   0  0  0  0  0  0  0  0  0  0  0  0
   28.7428  -20.3133   -6.7694 C   0  0  0  0  0  0  0  0  0  0  0  0
   27.1149  -20.0572   -7.4763 S   0  0  0  0  0  0  0  0  0  0  0  0
   26.8852  -20.9510   -9.0370 C   0  0  0  0  0  0  0  0  0  0  0  0
   25.6003  -20.4525   -9.6623 C   0  0  0  0  0  0  0  0  0  0  0  0
   25.4034  -21.0752  -11.0512 C   0  0  2  0  0  0  0  0  0  0  0  0
   26.3397  -20.5235  -11.9976 N   0  0  0  0  0  0  0  0  0  0  0  0
   23.9955  -20.7870  -11.4237 C   0  0  0  0  0  0  0  0  0  0  0  0
   23.0505  -21.1496  -10.6783 O   0  0  0  0  0  0  0  0  0  0  0  0
   23.6366  -20.0994  -12.6181 N   0  0  0  0  0  0  0  0  0  0  0  0
   22.2577  -19.7135  -12.8859 C   0  0  1  0  0  0  0  0  0  0  0  0
   22.1638  -18.6591  -13.9463 C   0  0  0  0  0  0  0  0  0  0  0  0
   20.7822  -18.2361  -14.2384 C   0  0  0  0  0  0  0  0  0  0  0  0
   19.6901  -18.7256  -13.5514 C   0  0  0  0  0  0  0  0  0  0  0  0
   18.5744  -18.1470  -14.0504 N   0  0  0  0  0  0  0  0  0  0  0  0
   18.9482  -17.3041  -15.0374 C   0  0  0  0  0  0  0  0  0  0  0  0
   20.2800  -17.3750  -15.1318 N   0  0  0  0  0  0  0  0  0  0  0  0
   21.5276  -20.9588  -13.2356 C   0  0  0  0  0  0  0  0  0  0  0  0
   20.1968  -21.1814  -12.9138 O   0  0  0  0  0  0  0  0  0  0  0  0
   22.1291  -21.8721  -13.8561 O   0  0  0  0  0  0  0  0  0  0  0  0
  2  9  1  0
  2  1  1  6
  3  2  1  0
  4  3  1  0
  4  8  1  0
  5  6  1  0
  5  4  2  0
  6  7  1  0
  7  8  2  0
  9 10  2  0
 12 13  1  0
 12 11  1  0
 13 14  1  0
 15 14  1  1
 16 15  1  0
 16  9  1  0
 17 18  2  0
 17 15  1  0
 19 17  1  0
 20 27  1  0
 20 19  1  0
 20 21  1  6
 22 26  1  0
 22 21  1  0
 23 22  2  0
 24 23  1  0
 24 25  1  0
 25 26  2  0
 27 28  1  0
 29 27  2  0
M  END
$$$$
