HMH.pdb
     RDKit          3D

 29 30  0  0  1  0  0  0  0  0999 V2000
   19.9425  -34.9696  -15.4121 N   0  0  0  0  0  0  0  0  0  0  0  0
   20.3072  -35.2829  -14.0676 C   0  0  1  0  0  0  0  0  0  0  0  0
   20.6722  -36.7208  -13.8942 C   0  0  0  0  0  0  0  0  0  0  0  0
   19.6049  -37.6671  -14.2107 C   0  0  0  0  0  0  0  0  0  0  0  0
   19.6839  -38.7003  -15.1123 C   0  0  0  0  0  0  0  0  0  0  0  0
   18.4933  -39.3307  -15.1084 N   0  0  0  0  0  0  0  0  0  0  0  0
   17.6858  -38.7172  -14.2330 C   0  0  0  0  0  0  0  0  0  0  0  0
   18.3785  -37.6988  -13.6890 N   0  0  0  0  0  0  0  0  0  0  0  0
   21.4318  -34.4588  -13.5642 C   0  0  0  0  0  0  0  0  0  0  0  0
   22.0001  -33.6380  -14.3292 O   0  0  0  0  0  0  0  0  0  0  0  0
   22.3535  -28.3368  -11.1404 C   0  0  0  0  0  0  0  0  0  0  0  0
   21.8510  -29.9104  -11.8379 S   0  0  0  0  0  0  0  0  0  0  0  0
   21.5374  -31.1663  -10.5684 C   0  0  0  0  0  0  0  0  0  0  0  0
   21.1086  -32.4329  -11.2770 C   0  0  0  0  0  0  0  0  0  0  0  0
   22.3138  -33.3567  -11.4995 C   0  0  2  0  0  0  0  0  0  0  0  0
   21.9271  -34.5364  -12.2312 N   0  0  0  0  0  0  0  0  0  0  0  0
   22.8256  -33.6813  -10.1442 C   0  0  0  0  0  0  0  0  0  0  0  0
   22.0522  -34.1272   -9.2592 O   0  0  0  0  0  0  0  0  0  0  0  0
   24.1896  -33.5122   -9.7715 N   0  0  0  0  0  0  0  0  0  0  0  0
   24.6487  -33.8055   -8.4205 C   0  0  1  0  0  0  0  0  0  0  0  0
   24.1742  -32.7858   -7.4306 C   0  0  0  0  0  0  0  0  0  0  0  0
   24.6154  -33.0529   -6.0495 C   0  0  0  0  0  0  0  0  0  0  0  0
   25.9461  -33.1283   -5.6919 C   0  0  0  0  0  0  0  0  0  0  0  0
   26.0205  -33.3823   -4.3658 N   0  0  0  0  0  0  0  0  0  0  0  0
   24.7605  -33.4672   -3.8867 C   0  0  0  0  0  0  0  0  0  0  0  0
   23.9333  -33.2657   -4.9176 N   0  0  0  0  0  0  0  0  0  0  0  0
   24.1897  -35.1825   -8.1047 C   0  0  0  0  0  0  0  0  0  0  0  0
   24.3043  -35.7576   -6.8476 O   0  0  0  0  0  0  0  0  0  0  0  0
   23.6668  -35.8805   -9.0104 O   0  0  0  0  0  0  0  0  0  0  0  0
  2  9  1  0
  2  1  1  6
  3  2  1  0
  4  3  1  0
  4  8  1  0
  5  6  1  0
  5  4  2  0
  6  7  1  0
  7  8  2  0
  9 10  2  0
 12 13  1  0
 12 11  1  0
 13 14  1  0
 15 14  1  1
 16 15  1  0
 16  9  1  0
 17 18  2  0
 17 15  1  0
 19 17  1  0
 20 27  1  0
 20 19  1  0
 20 21  1  1
 22 26  1  0
 22 21  1  0
 23 22  2  0
 24 23  1  0
 24 25  1  0
 25 26  2  0
 27 28  1  0
 29 27  2  0
M  END
$$$$
