HMH.pdb
     RDKit          3D

 29 30  0  0  1  0  0  0  0  0999 V2000
   25.5304  -19.5585  -18.1988 N   0  0  0  0  0  0  0  0  0  0  0  0
   24.3714  -18.7903  -18.5238 C   0  0  1  0  0  0  0  0  0  0  0  0
   23.5001  -19.4674  -19.5303 C   0  0  0  0  0  0  0  0  0  0  0  0
   24.1619  -19.8002  -20.7897 C   0  0  0  0  0  0  0  0  0  0  0  0
   24.0822  -19.0815  -21.9575 C   0  0  0  0  0  0  0  0  0  0  0  0
   24.8326  -19.7204  -22.8760 N   0  0  0  0  0  0  0  0  0  0  0  0
   25.3705  -20.8085  -22.3091 C   0  0  0  0  0  0  0  0  0  0  0  0
   24.9520  -20.8468  -21.0299 N   0  0  0  0  0  0  0  0  0  0  0  0
   23.5402  -18.4649  -17.3403 C   0  0  0  0  0  0  0  0  0  0  0  0
   23.3223  -19.3422  -16.4658 O   0  0  0  0  0  0  0  0  0  0  0  0
   26.5990  -14.9785  -15.1783 C   0  0  0  0  0  0  0  0  0  0  0  0
   24.9930  -15.2070  -15.9424 S   0  0  0  0  0  0  0  0  0  0  0  0
   23.6515  -15.3071  -14.7268 C   0  0  0  0  0  0  0  0  0  0  0  0
   22.3541  -15.4558  -15.4916 C   0  0  0  0  0  0  0  0  0  0  0  0
   22.1641  -16.9090  -15.9471 C   0  0  2  0  0  0  0  0  0  0  0  0
   22.9538  -17.1858  -17.1202 N   0  0  0  0  0  0  0  0  0  0  0  0
   20.7096  -17.0620  -16.2025 C   0  0  0  0  0  0  0  0  0  0  0  0
   20.2723  -17.1407  -17.3784 O   0  0  0  0  0  0  0  0  0  0  0  0
   19.7436  -17.1275  -15.1582 N   0  0  0  0  0  0  0  0  0  0  0  0
   18.4961  -17.8612  -15.3238 C   0  0  1  0  0  0  0  0  0  0  0  0
   18.7306  -19.3095  -15.6276 C   0  0  0  0  0  0  0  0  0  0  0  0
   18.4584  -19.6706  -17.0308 C   0  0  0  0  0  0  0  0  0  0  0  0
   17.7291  -18.8652  -17.8814 C   0  0  0  0  0  0  0  0  0  0  0  0
   17.6576  -19.4697  -19.0888 N   0  0  0  0  0  0  0  0  0  0  0  0
   18.3289  -20.6390  -19.0096 C   0  0  0  0  0  0  0  0  0  0  0  0
   18.8013  -20.7376  -17.7627 N   0  0  0  0  0  0  0  0  0  0  0  0
   17.7078  -17.6458  -14.0834 C   0  0  0  0  0  0  0  0  0  0  0  0
   16.3260  -17.5260  -14.0663 O   0  0  0  0  0  0  0  0  0  0  0  0
   18.3053  -17.5649  -12.9801 O   0  0  0  0  0  0  0  0  0  0  0  0
  2  9  1  0
  2  1  1  1
  3  2  1  0
  4  3  1  0
  4  8  1  0
  5  6  1  0
  5  4  2  0
  6  7  1  0
  7  8  2  0
  9 10  2  0
 12 13  1  0
 12 11  1  0
 13 14  1  0
 15 14  1  6
 16 15  1  0
 16  9  1  0
 17 18  2  0
 17 15  1  0
 19 17  1  0
 20 27  1  0
 20 19  1  0
 20 21  1  1
 22 26  1  0
 22 21  1  0
 23 22  2  0
 24 23  1  0
 24 25  1  0
 25 26  2  0
 27 28  1  0
 29 27  2  0
M  END
$$$$
