HMH.pdb
     RDKit          3D

 29 30  0  0  1  0  0  0  0  0999 V2000
   23.0613  -14.8870  -18.7755 N   0  0  0  0  0  0  0  0  0  0  0  0
   22.9853  -13.5143  -19.1612 C   0  0  1  0  0  0  0  0  0  0  0  0
   21.8133  -13.2319  -20.0428 C   0  0  0  0  0  0  0  0  0  0  0  0
   21.7939  -13.9818  -21.2966 C   0  0  0  0  0  0  0  0  0  0  0  0
   22.4936  -13.6670  -22.4358 C   0  0  0  0  0  0  0  0  0  0  0  0
   22.2029  -14.6039  -23.3593 N   0  0  0  0  0  0  0  0  0  0  0  0
   21.3467  -15.4838  -22.8230 C   0  0  0  0  0  0  0  0  0  0  0  0
   21.1034  -15.0919  -21.5581 N   0  0  0  0  0  0  0  0  0  0  0  0
   22.9248  -12.5890  -18.0047 C   0  0  0  0  0  0  0  0  0  0  0  0
   22.2413  -12.8921  -16.9933 O   0  0  0  0  0  0  0  0  0  0  0  0
   28.2916  -12.8392  -15.0640 C   0  0  0  0  0  0  0  0  0  0  0  0
   27.3869  -11.3348  -15.4298 S   0  0  0  0  0  0  0  0  0  0  0  0
   25.6942  -11.6596  -15.9924 C   0  0  0  0  0  0  0  0  0  0  0  0
   25.0343  -10.3217  -16.2467 C   0  0  0  0  0  0  0  0  0  0  0  0
   23.6075  -10.5199  -16.7765 C   0  0  2  0  0  0  0  0  0  0  0  0
   23.6100  -11.3413  -17.9605 N   0  0  0  0  0  0  0  0  0  0  0  0
   23.0857   -9.1558  -17.0426 C   0  0  0  0  0  0  0  0  0  0  0  0
   23.4561   -8.5173  -18.0600 O   0  0  0  0  0  0  0  0  0  0  0  0
   22.1566   -8.5019  -16.1839 N   0  0  0  0  0  0  0  0  0  0  0  0
   21.6742   -7.1578  -16.4713 C   0  0  1  0  0  0  0  0  0  0  0  0
   20.3198   -7.1705  -17.1118 C   0  0  0  0  0  0  0  0  0  0  0  0
   20.3049   -7.7878  -18.4505 C   0  0  0  0  0  0  0  0  0  0  0  0
   20.7207   -7.1214  -19.5850 C   0  0  0  0  0  0  0  0  0  0  0  0
   20.5865   -7.9515  -20.6439 N   0  0  0  0  0  0  0  0  0  0  0  0
   20.0942   -9.1257  -20.1930 C   0  0  0  0  0  0  0  0  0  0  0  0
   19.9332   -9.0029  -18.8713 N   0  0  0  0  0  0  0  0  0  0  0  0
   21.7052   -6.4110  -15.1877 C   0  0  0  0  0  0  0  0  0  0  0  0
   21.4210   -5.0573  -15.0832 O   0  0  0  0  0  0  0  0  0  0  0  0
   22.0024   -7.0192  -14.1281 O   0  0  0  0  0  0  0  0  0  0  0  0
  2  9  1  0
  2  1  1  1
  3  2  1  0
  4  3  1  0
  4  8  1  0
  5  6  1  0
  5  4  2  0
  6  7  1  0
  7  8  2  0
  9 10  2  0
 12 13  1  0
 12 11  1  0
 13 14  1  0
 15 14  1  6
 16 15  1  0
 16  9  1  0
 17 18  2  0
 17 15  1  0
 19 17  1  0
 20 27  1  0
 20 19  1  0
 20 21  1  1
 22 26  1  0
 22 21  1  0
 23 22  2  0
 24 23  1  0
 24 25  1  0
 25 26  2  0
 27 28  1  0
 29 27  2  0
M  END
$$$$
