HMH.pdb
     RDKit          3D

 29 30  0  0  1  0  0  0  0  0999 V2000
   16.4540  -16.3690    4.9394 N   0  0  0  0  0  0  0  0  0  0  0  0
   17.8595  -16.6118    4.8732 C   0  0  1  0  0  0  0  0  0  0  0  0
   18.6487  -15.3570    4.6901 C   0  0  0  0  0  0  0  0  0  0  0  0
   18.4259  -14.6721    3.4189 C   0  0  0  0  0  0  0  0  0  0  0  0
   18.8268  -15.1158    2.1823 C   0  0  0  0  0  0  0  0  0  0  0  0
   18.4298  -14.2002    1.2773 N   0  0  0  0  0  0  0  0  0  0  0  0
   17.7979  -13.2085    1.9191 C   0  0  0  0  0  0  0  0  0  0  0  0
   17.8019  -13.5090    3.2315 N   0  0  0  0  0  0  0  0  0  0  0  0
   18.3839  -17.3151    6.0680 C   0  0  0  0  0  0  0  0  0  0  0  0
   17.8062  -17.1841    7.1774 O   0  0  0  0  0  0  0  0  0  0  0  0
   21.3163  -23.3033    7.0191 C   0  0  0  0  0  0  0  0  0  0  0  0
   19.8452  -22.7875    6.1331 S   0  0  0  0  0  0  0  0  0  0  0  0
   19.2346  -21.1701    6.6796 C   0  0  0  0  0  0  0  0  0  0  0  0
   20.4371  -20.2736    6.8807 C   0  0  0  0  0  0  0  0  0  0  0  0
   19.9899  -18.8458    7.2227 C   0  0  2  0  0  0  0  0  0  0  0  0
   19.5337  -18.1552    6.0431 N   0  0  0  0  0  0  0  0  0  0  0  0
   21.1742  -18.1901    7.8323 C   0  0  0  0  0  0  0  0  0  0  0  0
   22.1601  -17.8652    7.1234 O   0  0  0  0  0  0  0  0  0  0  0  0
   21.2651  -17.8956    9.2227 N   0  0  0  0  0  0  0  0  0  0  0  0
   22.4424  -17.2482    9.7856 C   0  0  1  0  0  0  0  0  0  0  0  0
   22.0799  -16.1461   10.7336 C   0  0  0  0  0  0  0  0  0  0  0  0
   21.6781  -14.8970   10.0618 C   0  0  0  0  0  0  0  0  0  0  0  0
   21.6425  -14.7654    8.6885 C   0  0  0  0  0  0  0  0  0  0  0  0
   21.2364  -13.5112    8.3878 N   0  0  0  0  0  0  0  0  0  0  0  0
   21.0171  -12.8550    9.5479 C   0  0  0  0  0  0  0  0  0  0  0  0
   21.2894  -13.7087   10.5402 N   0  0  0  0  0  0  0  0  0  0  0  0
   23.2547  -18.3185   10.4188 C   0  0  0  0  0  0  0  0  0  0  0  0
   24.6029  -18.1816   10.7152 O   0  0  0  0  0  0  0  0  0  0  0  0
   22.7108  -19.4142   10.7097 O   0  0  0  0  0  0  0  0  0  0  0  0
  2  9  1  0
  2  1  1  1
  3  2  1  0
  4  3  1  0
  4  8  1  0
  5  6  1  0
  5  4  2  0
  6  7  1  0
  7  8  2  0
  9 10  2  0
 12 13  1  0
 12 11  1  0
 13 14  1  0
 15 14  1  6
 16 15  1  0
 16  9  1  0
 17 18  2  0
 17 15  1  0
 19 17  1  0
 20 27  1  0
 20 19  1  0
 20 21  1  1
 22 26  1  0
 22 21  1  0
 23 22  2  0
 24 23  1  0
 24 25  1  0
 25 26  2  0
 27 28  1  0
 29 27  2  0
M  END
$$$$
