HMH.pdb
     RDKit          3D

 29 30  0  0  1  0  0  0  0  0999 V2000
   20.9496  -17.5400  -16.6510 N   0  0  0  0  0  0  0  0  0  0  0  0
   20.5377  -16.1953  -16.8983 C   0  0  1  0  0  0  0  0  0  0  0  0
   19.0585  -16.0207  -16.7883 C   0  0  0  0  0  0  0  0  0  0  0  0
   18.2747  -16.8224  -17.7251 C   0  0  0  0  0  0  0  0  0  0  0  0
   17.7763  -18.0805  -17.4896 C   0  0  0  0  0  0  0  0  0  0  0  0
   17.1162  -18.4667  -18.5988 N   0  0  0  0  0  0  0  0  0  0  0  0
   17.1938  -17.4857  -19.5077 C   0  0  0  0  0  0  0  0  0  0  0  0
   17.9064  -16.4829  -18.9606 N   0  0  0  0  0  0  0  0  0  0  0  0
   21.1853  -15.2145  -15.9950 C   0  0  0  0  0  0  0  0  0  0  0  0
   21.6135  -15.5833  -14.8714 O   0  0  0  0  0  0  0  0  0  0  0  0
   27.6091  -12.5824  -14.2378 C   0  0  0  0  0  0  0  0  0  0  0  0
   26.3570  -13.4106  -15.2184 S   0  0  0  0  0  0  0  0  0  0  0  0
   24.6976  -12.7329  -14.9451 C   0  0  0  0  0  0  0  0  0  0  0  0
   23.7333  -13.5338  -15.7930 C   0  0  0  0  0  0  0  0  0  0  0  0
   22.3019  -13.0085  -15.6180 C   0  0  2  0  0  0  0  0  0  0  0  0
   21.3608  -13.8401  -16.3245 N   0  0  0  0  0  0  0  0  0  0  0  0
   22.3194  -11.6175  -16.1365 C   0  0  0  0  0  0  0  0  0  0  0  0
   22.6521  -11.3832  -17.3258 O   0  0  0  0  0  0  0  0  0  0  0  0
   21.9691  -10.4904  -15.3395 N   0  0  0  0  0  0  0  0  0  0  0  0
   21.7235   -9.1852  -15.9379 C   0  0  1  0  0  0  0  0  0  0  0  0
   20.3836   -9.1145  -16.6047 C   0  0  0  0  0  0  0  0  0  0  0  0
   20.0770   -7.7906  -17.1762 C   0  0  0  0  0  0  0  0  0  0  0  0
   21.0496   -6.9506  -17.6791 C   0  0  0  0  0  0  0  0  0  0  0  0
   20.4531   -5.8226  -18.1264 N   0  0  0  0  0  0  0  0  0  0  0  0
   19.1247   -5.9410  -17.9128 C   0  0  0  0  0  0  0  0  0  0  0  0
   18.9230   -7.1325  -17.3406 N   0  0  0  0  0  0  0  0  0  0  0  0
   21.8894   -8.1825  -14.8547 C   0  0  0  0  0  0  0  0  0  0  0  0
   22.1000   -6.8315  -15.0886 O   0  0  0  0  0  0  0  0  0  0  0  0
   21.8397   -8.5571  -13.6555 O   0  0  0  0  0  0  0  0  0  0  0  0
  2  9  1  0
  2  1  1  1
  3  2  1  0
  4  3  1  0
  4  8  1  0
  5  6  1  0
  5  4  2  0
  6  7  1  0
  7  8  2  0
  9 10  2  0
 12 13  1  0
 12 11  1  0
 13 14  1  0
 15 14  1  6
 16 15  1  0
 16  9  1  0
 17 18  2  0
 17 15  1  0
 19 17  1  0
 20 27  1  0
 20 19  1  0
 20 21  1  1
 22 26  1  0
 22 21  1  0
 23 22  2  0
 24 23  1  0
 24 25  1  0
 25 26  2  0
 27 28  1  0
 29 27  2  0
M  END
$$$$
