HMH.pdb
     RDKit          3D

 29 30  0  0  1  0  0  0  0  0999 V2000
   23.2593  -13.0075  -17.7867 N   0  0  0  0  0  0  0  0  0  0  0  0
   23.4687  -12.1063  -16.6990 C   0  0  1  0  0  0  0  0  0  0  0  0
   24.8967  -11.6886  -16.5691 C   0  0  0  0  0  0  0  0  0  0  0  0
   25.8383  -12.7833  -16.3460 C   0  0  0  0  0  0  0  0  0  0  0  0
   25.8762  -13.6029  -15.2444 C   0  0  0  0  0  0  0  0  0  0  0  0
   26.8850  -14.4770  -15.4269 N   0  0  0  0  0  0  0  0  0  0  0  0
   27.4676  -14.2200  -16.6055 C   0  0  0  0  0  0  0  0  0  0  0  0
   26.8172  -13.1795  -17.1597 N   0  0  0  0  0  0  0  0  0  0  0  0
   22.6377  -10.8823  -16.7913 C   0  0  0  0  0  0  0  0  0  0  0  0
   22.6215  -10.2134  -17.8563 O   0  0  0  0  0  0  0  0  0  0  0  0
   17.6194  -11.2263  -13.2628 C   0  0  0  0  0  0  0  0  0  0  0  0
   17.2925  -10.8853  -14.9926 S   0  0  0  0  0  0  0  0  0  0  0  0
   18.8073  -10.5746  -15.9393 C   0  0  0  0  0  0  0  0  0  0  0  0
   19.6032   -9.5254  -15.1935 C   0  0  0  0  0  0  0  0  0  0  0  0
   20.9461   -9.2740  -15.8928 C   0  0  2  0  0  0  0  0  0  0  0  0
   21.8313  -10.3981  -15.7219 N   0  0  0  0  0  0  0  0  0  0  0  0
   21.4902   -8.0350  -15.2820 C   0  0  0  0  0  0  0  0  0  0  0  0
   22.1604   -8.0875  -14.2199 O   0  0  0  0  0  0  0  0  0  0  0  0
   21.2920   -6.7427  -15.8467 N   0  0  0  0  0  0  0  0  0  0  0  0
   22.0120   -5.5786  -15.3483 C   0  0  1  0  0  0  0  0  0  0  0  0
   22.7440   -4.8593  -16.4398 C   0  0  0  0  0  0  0  0  0  0  0  0
   23.7023   -5.7099  -17.1689 C   0  0  0  0  0  0  0  0  0  0  0  0
   24.9693   -5.9831  -16.6953 C   0  0  0  0  0  0  0  0  0  0  0  0
   25.5965   -6.7851  -17.5852 N   0  0  0  0  0  0  0  0  0  0  0  0
   24.7452   -7.0189  -18.6074 C   0  0  0  0  0  0  0  0  0  0  0  0
   23.6131   -6.3620  -18.3345 N   0  0  0  0  0  0  0  0  0  0  0  0
   21.0131   -4.7251  -14.6553 C   0  0  0  0  0  0  0  0  0  0  0  0
   21.3494   -3.6010  -13.9155 O   0  0  0  0  0  0  0  0  0  0  0  0
   19.7931   -5.0196  -14.7306 O   0  0  0  0  0  0  0  0  0  0  0  0
  2  9  1  0
  2  1  1  6
  3  2  1  0
  4  3  1  0
  4  8  1  0
  5  6  1  0
  5  4  2  0
  6  7  1  0
  7  8  2  0
  9 10  2  0
 12 13  1  0
 12 11  1  0
 13 14  1  0
 15 14  1  1
 16 15  1  0
 16  9  1  0
 17 18  2  0
 17 15  1  0
 19 17  1  0
 20 27  1  0
 20 19  1  0
 20 21  1  6
 22 26  1  0
 22 21  1  0
 23 22  2  0
 24 23  1  0
 24 25  1  0
 25 26  2  0
 27 28  1  0
 29 27  2  0
M  END
$$$$
