CSK.pdb
     RDKit          3D

 22 21  0  0  1  0  0  0  0  0999 V2000
   24.2729  -10.3438  -15.7279 N   0  0  0  0  0  0  0  0  0  0  0  0
   23.7005   -9.6855  -16.8815 C   0  0  1  0  0  0  0  0  0  0  0  0
   22.5542  -10.5099  -17.3787 C   0  0  0  0  0  0  0  0  0  0  0  0
   23.1446  -12.0537  -18.1242 S   0  0  0  0  0  0  0  0  0  0  0  0
   23.3042   -8.3145  -16.4927 C   0  0  0  0  0  0  0  0  0  0  0  0
   22.7386   -8.0862  -15.3925 O   0  0  0  0  0  0  0  0  0  0  0  0
   25.1601   -4.6921  -16.9657 O   0  0  0  0  0  0  0  0  0  0  0  0
   23.9892   -4.8620  -17.7062 C   0  0  0  0  0  0  0  0  0  0  0  0
   23.1264   -5.8306  -16.9749 C   0  0  2  0  0  0  0  0  0  0  0  0
   23.5330   -7.1773  -17.3261 N   0  0  0  0  0  0  0  0  0  0  0  0
   21.6724   -5.6222  -17.1699 C   0  0  0  0  0  0  0  0  0  0  0  0
   21.1241   -6.2503  -18.1135 O   0  0  0  0  0  0  0  0  0  0  0  0
   20.8745   -4.7820  -16.3826 N   0  0  0  0  0  0  0  0  0  0  0  0
   19.4490   -4.5092  -16.6278 C   0  0  1  0  0  0  0  0  0  0  0  0
   18.5840   -5.5763  -16.0705 C   0  0  0  0  0  0  0  0  0  0  0  0
   17.1220   -5.4274  -16.2069 C   0  0  0  0  0  0  0  0  0  0  0  0
   16.2495   -6.5108  -15.7022 C   0  0  0  0  0  0  0  0  0  0  0  0
   14.7750   -6.2857  -15.8939 C   0  0  0  0  0  0  0  0  0  0  0  0
   13.9932   -7.4241  -15.4312 N   0  0  0  0  0  0  0  0  0  0  0  0
   19.1003   -3.1228  -16.3671 C   0  0  0  0  0  0  0  0  0  0  0  0
   17.9232   -2.6557  -16.5521 O   0  0  0  0  0  0  0  0  0  0  0  0
   20.0094   -2.1895  -15.8928 O   0  0  0  0  0  0  0  0  0  0  0  0
  2  1  1  1
  2  5  1  0
  2  3  1  0
  3  4  1  0
  5 10  1  0
  6  5  2  0
  9  8  1  6
  8  7  1  0
  9 11  1  0
 10  9  1  0
 11 12  2  0
 11 13  1  0
 13 14  1  0
 14 20  1  0
 14 15  1  1
 15 16  1  0
 16 17  1  0
 18 19  1  0
 18 17  1  0
 20 22  1  0
 21 20  2  0
M  END
$$$$
