CSK.pdb
     RDKit          3D

 22 21  0  0  1  0  0  0  0  0999 V2000
   25.9186  -22.4596  -15.5571 N   0  0  0  0  0  0  0  0  0  0  0  0
   24.7189  -23.2358  -15.3331 C   0  0  1  0  0  0  0  0  0  0  0  0
   25.1172  -24.6052  -14.8780 C   0  0  0  0  0  0  0  0  0  0  0  0
   25.9010  -25.5310  -16.2257 S   0  0  0  0  0  0  0  0  0  0  0  0
   23.8722  -22.5215  -14.3530 C   0  0  0  0  0  0  0  0  0  0  0  0
   24.3804  -21.8668  -13.4067 O   0  0  0  0  0  0  0  0  0  0  0  0
   21.3452  -19.5739  -13.2252 O   0  0  0  0  0  0  0  0  0  0  0  0
   21.0048  -20.6575  -14.0364 C   0  0  0  0  0  0  0  0  0  0  0  0
   21.5977  -21.8818  -13.4305 C   0  0  2  0  0  0  0  0  0  0  0  0
   22.4452  -22.5273  -14.4140 N   0  0  0  0  0  0  0  0  0  0  0  0
   20.6063  -22.8193  -12.8527 C   0  0  0  0  0  0  0  0  0  0  0  0
   20.1799  -23.7371  -13.6018 O   0  0  0  0  0  0  0  0  0  0  0  0
   20.1165  -22.7539  -11.5419 N   0  0  0  0  0  0  0  0  0  0  0  0
   19.0518  -23.6147  -11.0015 C   0  0  1  0  0  0  0  0  0  0  0  0
   19.2024  -23.8198   -9.5411 C   0  0  0  0  0  0  0  0  0  0  0  0
   18.2503  -24.7219   -8.8644 C   0  0  0  0  0  0  0  0  0  0  0  0
   18.3558  -24.8925   -7.3984 C   0  0  0  0  0  0  0  0  0  0  0  0
   17.2375  -25.6722   -6.7634 C   0  0  0  0  0  0  0  0  0  0  0  0
   17.4096  -25.7807   -5.3213 N   0  0  0  0  0  0  0  0  0  0  0  0
   17.7417  -23.2651  -11.5243 C   0  0  0  0  0  0  0  0  0  0  0  0
   17.3403  -22.0556  -11.6414 O   0  0  0  0  0  0  0  0  0  0  0  0
   16.8171  -24.2094  -11.9439 O   0  0  0  0  0  0  0  0  0  0  0  0
  2  1  1  1
  2  5  1  0
  2  3  1  0
  3  4  1  0
  5 10  1  0
  6  5  2  0
  9  8  1  6
  8  7  1  0
  9 11  1  0
 10  9  1  0
 11 12  2  0
 11 13  1  0
 13 14  1  0
 14 20  1  0
 14 15  1  1
 15 16  1  0
 16 17  1  0
 18 19  1  0
 18 17  1  0
 20 22  1  0
 21 20  2  0
M  END
$$$$
