CSK.pdb
     RDKit          3D

 22 21  0  0  1  0  0  0  0  0999 V2000
   27.5723  -14.3040  -18.2781 N   0  0  0  0  0  0  0  0  0  0  0  0
   26.4442  -14.1206  -17.3917 C   0  0  1  0  0  0  0  0  0  0  0  0
   26.9554  -14.0076  -15.9893 C   0  0  0  0  0  0  0  0  0  0  0  0
   27.7138  -15.5643  -15.4511 S   0  0  0  0  0  0  0  0  0  0  0  0
   25.6885  -12.9279  -17.8322 C   0  0  0  0  0  0  0  0  0  0  0  0
   26.2741  -11.8482  -18.1038 O   0  0  0  0  0  0  0  0  0  0  0  0
   21.4735  -12.8738  -18.1803 O   0  0  0  0  0  0  0  0  0  0  0  0
   22.2842  -12.2345  -19.1195 C   0  0  0  0  0  0  0  0  0  0  0  0
   23.5106  -11.7663  -18.4164 C   0  0  2  0  0  0  0  0  0  0  0  0
   24.2674  -12.9220  -17.9760 N   0  0  0  0  0  0  0  0  0  0  0  0
   23.2549  -10.8163  -17.3085 C   0  0  0  0  0  0  0  0  0  0  0  0
   23.2306  -11.2887  -16.1416 O   0  0  0  0  0  0  0  0  0  0  0  0
   23.0408   -9.4414  -17.4703 N   0  0  0  0  0  0  0  0  0  0  0  0
   22.6915   -8.5142  -16.3817 C   0  0  1  0  0  0  0  0  0  0  0  0
   22.7837   -7.1001  -16.8169 C   0  0  0  0  0  0  0  0  0  0  0  0
   22.4739   -6.0478  -15.8295 C   0  0  0  0  0  0  0  0  0  0  0  0
   22.5529   -4.6326  -16.2541 C   0  0  0  0  0  0  0  0  0  0  0  0
   22.1202   -3.6298  -15.2202 C   0  0  0  0  0  0  0  0  0  0  0  0
   22.2576   -2.2638  -15.7062 N   0  0  0  0  0  0  0  0  0  0  0  0
   21.5110   -8.9423  -15.6504 C   0  0  0  0  0  0  0  0  0  0  0  0
   20.4890   -9.4592  -16.2216 O   0  0  0  0  0  0  0  0  0  0  0  0
   21.3917   -8.8316  -14.2734 O   0  0  0  0  0  0  0  0  0  0  0  0
  2  1  1  6
  2  5  1  0
  2  3  1  0
  3  4  1  0
  5 10  1  0
  6  5  2  0
  9  8  1  1
  8  7  1  0
  9 11  1  0
 10  9  1  0
 11 12  2  0
 11 13  1  0
 13 14  1  0
 14 20  1  0
 14 15  1  6
 15 16  1  0
 16 17  1  0
 18 19  1  0
 18 17  1  0
 20 22  1  0
 21 20  2  0
M  END
$$$$
