CSK.pdb
     RDKit          3D

 22 21  0  0  1  0  0  0  0  0999 V2000
   16.5594  -12.4263  -14.9867 N   0  0  0  0  0  0  0  0  0  0  0  0
   16.8315  -11.3961  -15.9648 C   0  0  1  0  0  0  0  0  0  0  0  0
   15.5910  -11.1665  -16.7705 C   0  0  0  0  0  0  0  0  0  0  0  0
   15.4861  -12.3450  -18.1445 S   0  0  0  0  0  0  0  0  0  0  0  0
   17.2958  -10.1842  -15.2551 C   0  0  0  0  0  0  0  0  0  0  0  0
   16.7972   -9.8432  -14.1518 O   0  0  0  0  0  0  0  0  0  0  0  0
   20.8114   -8.3891  -16.2323 O   0  0  0  0  0  0  0  0  0  0  0  0
   20.2809   -8.2311  -14.9510 C   0  0  0  0  0  0  0  0  0  0  0  0
   18.7996   -8.1491  -15.0801 C   0  0  2  0  0  0  0  0  0  0  0  0
   18.3235   -9.3342  -15.7665 N   0  0  0  0  0  0  0  0  0  0  0  0
   18.3097   -6.9048  -15.7181 C   0  0  0  0  0  0  0  0  0  0  0  0
   18.2695   -6.8825  -16.9764 O   0  0  0  0  0  0  0  0  0  0  0  0
   17.8921   -5.7629  -15.0224 N   0  0  0  0  0  0  0  0  0  0  0  0
   17.5678   -4.4715  -15.6500 C   0  0  1  0  0  0  0  0  0  0  0  0
   16.1178   -4.1733  -15.5702 C   0  0  0  0  0  0  0  0  0  0  0  0
   15.1771   -5.1288  -16.1868 C   0  0  0  0  0  0  0  0  0  0  0  0
   13.7289   -4.9600  -15.9344 C   0  0  0  0  0  0  0  0  0  0  0  0
   12.8403   -5.9659  -16.6127 C   0  0  0  0  0  0  0  0  0  0  0  0
   11.4327   -5.6189  -16.4741 N   0  0  0  0  0  0  0  0  0  0  0  0
   18.5140   -3.4297  -15.2882 C   0  0  0  0  0  0  0  0  0  0  0  0
   19.4410   -3.6027  -14.4230 O   0  0  0  0  0  0  0  0  0  0  0  0
   18.4969   -2.1625  -15.8508 O   0  0  0  0  0  0  0  0  0  0  0  0
  2  1  1  1
  2  5  1  0
  2  3  1  0
  3  4  1  0
  5 10  1  0
  6  5  2  0
  9  8  1  6
  8  7  1  0
  9 11  1  0
 10  9  1  0
 11 12  2  0
 11 13  1  0
 13 14  1  0
 14 20  1  0
 14 15  1  1
 15 16  1  0
 16 17  1  0
 18 19  1  0
 18 17  1  0
 20 22  1  0
 21 20  2  0
M  END
$$$$
