CSK.pdb
     RDKit          3D

 22 21  0  0  1  0  0  0  0  0999 V2000
   19.4919  -12.9739  -15.8247 N   0  0  0  0  0  0  0  0  0  0  0  0
   19.4304  -11.8012  -16.6691 C   0  0  1  0  0  0  0  0  0  0  0  0
   18.2044  -11.8945  -17.5230 C   0  0  0  0  0  0  0  0  0  0  0  0
   18.5052  -12.9420  -18.9722 S   0  0  0  0  0  0  0  0  0  0  0  0
   19.4476  -10.5992  -15.8073 C   0  0  0  0  0  0  0  0  0  0  0  0
   18.8145  -10.5664  -14.7208 O   0  0  0  0  0  0  0  0  0  0  0  0
   21.5419   -6.5370  -14.4694 O   0  0  0  0  0  0  0  0  0  0  0  0
   21.5515   -7.6513  -15.3099 C   0  0  0  0  0  0  0  0  0  0  0  0
   20.1738   -8.2162  -15.3301 C   0  0  2  0  0  0  0  0  0  0  0  0
   20.1717   -9.4153  -16.1452 N   0  0  0  0  0  0  0  0  0  0  0  0
   19.1261   -7.2573  -15.7523 C   0  0  0  0  0  0  0  0  0  0  0  0
   18.9436   -7.1151  -16.9901 O   0  0  0  0  0  0  0  0  0  0  0  0
   18.3327   -6.5059  -14.8758 N   0  0  0  0  0  0  0  0  0  0  0  0
   17.3610   -5.4825  -15.2940 C   0  0  1  0  0  0  0  0  0  0  0  0
   16.0205   -5.7305  -14.7116 C   0  0  0  0  0  0  0  0  0  0  0  0
   14.9293   -4.7993  -15.0584 C   0  0  0  0  0  0  0  0  0  0  0  0
   13.5755   -5.0633  -14.5225 C   0  0  0  0  0  0  0  0  0  0  0  0
   12.5144   -4.0910  -14.9587 C   0  0  0  0  0  0  0  0  0  0  0  0
   11.1847   -4.5338  -14.5628 N   0  0  0  0  0  0  0  0  0  0  0  0
   17.9116   -4.1394  -15.2273 C   0  0  0  0  0  0  0  0  0  0  0  0
   18.9234   -3.8382  -14.5038 O   0  0  0  0  0  0  0  0  0  0  0  0
   17.3921   -3.0714  -15.9430 O   0  0  0  0  0  0  0  0  0  0  0  0
  2  1  1  1
  2  5  1  0
  2  3  1  0
  3  4  1  0
  5 10  1  0
  6  5  2  0
  9  8  1  6
  8  7  1  0
  9 11  1  0
 10  9  1  0
 11 12  2  0
 11 13  1  0
 13 14  1  0
 14 20  1  0
 14 15  1  1
 15 16  1  0
 16 17  1  0
 18 19  1  0
 18 17  1  0
 20 22  1  0
 21 20  2  0
M  END
$$$$
