CSK.pdb
     RDKit          3D

 22 21  0  0  1  0  0  0  0  0999 V2000
   20.5648  -10.9141  -15.9581 N   0  0  0  0  0  0  0  0  0  0  0  0
   19.8614   -9.6626  -15.7819 C   0  0  1  0  0  0  0  0  0  0  0  0
   18.4746   -9.8167  -16.3240 C   0  0  0  0  0  0  0  0  0  0  0  0
   18.5038  -10.0087  -18.1268 S   0  0  0  0  0  0  0  0  0  0  0  0
   19.8876   -9.3060  -14.3466 C   0  0  0  0  0  0  0  0  0  0  0  0
   19.7949  -10.1872  -13.4537 O   0  0  0  0  0  0  0  0  0  0  0  0
   20.9790   -6.2055  -10.8908 O   0  0  0  0  0  0  0  0  0  0  0  0
   21.0312   -6.5524  -12.2418 C   0  0  0  0  0  0  0  0  0  0  0  0
   19.9866   -7.5852  -12.4857 C   0  0  2  0  0  0  0  0  0  0  0  0
   20.0173   -7.9603  -13.8860 N   0  0  0  0  0  0  0  0  0  0  0  0
   18.6265   -7.1945  -12.0465 C   0  0  0  0  0  0  0  0  0  0  0  0
   17.9658   -6.4506  -12.8183 O   0  0  0  0  0  0  0  0  0  0  0  0
   18.0320   -7.5932  -10.8424 N   0  0  0  0  0  0  0  0  0  0  0  0
   16.7141   -7.1402  -10.3685 C   0  0  1  0  0  0  0  0  0  0  0  0
   15.9378   -8.2505   -9.7667 C   0  0  0  0  0  0  0  0  0  0  0  0
   14.5425   -7.9850   -9.3656 C   0  0  0  0  0  0  0  0  0  0  0  0
   13.7102   -9.1182   -8.9043 C   0  0  0  0  0  0  0  0  0  0  0  0
   12.2988   -8.7624   -8.5262 C   0  0  0  0  0  0  0  0  0  0  0  0
   11.5446   -9.9340   -8.1025 N   0  0  0  0  0  0  0  0  0  0  0  0
   16.7892   -5.8763   -9.6553 C   0  0  0  0  0  0  0  0  0  0  0  0
   15.8242   -5.0362   -9.6263 O   0  0  0  0  0  0  0  0  0  0  0  0
   17.9089   -5.4741   -8.9430 O   0  0  0  0  0  0  0  0  0  0  0  0
  2  1  1  1
  2  5  1  0
  2  3  1  0
  3  4  1  0
  5 10  1  0
  6  5  2  0
  9  8  1  6
  8  7  1  0
  9 11  1  0
 10  9  1  0
 11 12  2  0
 11 13  1  0
 13 14  1  0
 14 20  1  0
 14 15  1  1
 15 16  1  0
 16 17  1  0
 18 19  1  0
 18 17  1  0
 20 22  1  0
 21 20  2  0
M  END
$$$$
