CSK.pdb
     RDKit          3D

 22 21  0  0  1  0  0  0  0  0999 V2000
   18.4036  -13.0107  -15.5098 N   0  0  0  0  0  0  0  0  0  0  0  0
   19.1638  -12.1063  -16.3443 C   0  0  1  0  0  0  0  0  0  0  0  0
   18.4400  -11.9372  -17.6437 C   0  0  0  0  0  0  0  0  0  0  0  0
   18.7302  -13.3568  -18.7339 S   0  0  0  0  0  0  0  0  0  0  0  0
   19.3488  -10.8342  -15.6128 C   0  0  0  0  0  0  0  0  0  0  0  0
   18.3994  -10.2987  -14.9848 O   0  0  0  0  0  0  0  0  0  0  0  0
   23.0565   -8.9445  -15.4160 O   0  0  0  0  0  0  0  0  0  0  0  0
   22.1662   -8.8153  -14.3488 C   0  0  0  0  0  0  0  0  0  0  0  0
   20.7845   -8.8677  -14.9018 C   0  0  2  0  0  0  0  0  0  0  0  0
   20.5964  -10.1400  -15.5713 N   0  0  0  0  0  0  0  0  0  0  0  0
   20.4322   -7.7242  -15.7757 C   0  0  0  0  0  0  0  0  0  0  0  0
   20.3730   -7.9452  -17.0139 O   0  0  0  0  0  0  0  0  0  0  0  0
   20.1628   -6.4267  -15.3215 N   0  0  0  0  0  0  0  0  0  0  0  0
   19.7424   -5.3085  -16.1815 C   0  0  1  0  0  0  0  0  0  0  0  0
   18.6839   -5.7194  -17.1346 C   0  0  0  0  0  0  0  0  0  0  0  0
   18.0718   -4.6790  -17.9838 C   0  0  0  0  0  0  0  0  0  0  0  0
   16.9905   -5.0704  -18.9151 C   0  0  0  0  0  0  0  0  0  0  0  0
   16.4054   -3.9457  -19.7241 C   0  0  0  0  0  0  0  0  0  0  0  0
   15.2167   -4.3691  -20.4513 N   0  0  0  0  0  0  0  0  0  0  0  0
   19.5663   -4.0745  -15.4346 C   0  0  0  0  0  0  0  0  0  0  0  0
   18.7343   -3.9594  -14.4690 O   0  0  0  0  0  0  0  0  0  0  0  0
   20.2854   -2.9192  -15.7004 O   0  0  0  0  0  0  0  0  0  0  0  0
  2  1  1  1
  2  5  1  0
  2  3  1  0
  3  4  1  0
  5 10  1  0
  6  5  2  0
  9  8  1  6
  8  7  1  0
  9 11  1  0
 10  9  1  0
 11 12  2  0
 11 13  1  0
 13 14  1  0
 14 20  1  0
 14 15  1  1
 15 16  1  0
 16 17  1  0
 18 19  1  0
 18 17  1  0
 20 22  1  0
 21 20  2  0
M  END
$$$$
