CSK.pdb
     RDKit          3D

 22 21  0  0  1  0  0  0  0  0999 V2000
   26.3998  -12.7117  -17.2762 N   0  0  0  0  0  0  0  0  0  0  0  0
   26.4749  -11.5633  -16.4000 C   0  0  1  0  0  0  0  0  0  0  0  0
   27.4330  -10.5767  -16.9911 C   0  0  0  0  0  0  0  0  0  0  0  0
   29.1332  -11.2024  -16.9148 S   0  0  0  0  0  0  0  0  0  0  0  0
   25.1122  -11.0156  -16.2240 C   0  0  0  0  0  0  0  0  0  0  0  0
   24.2884  -10.9982  -17.1745 O   0  0  0  0  0  0  0  0  0  0  0  0
   21.5022   -9.8819  -13.3357 O   0  0  0  0  0  0  0  0  0  0  0  0
   22.7970  -10.3839  -13.4755 C   0  0  0  0  0  0  0  0  0  0  0  0
   23.3191   -9.9315  -14.7947 C   0  0  2  0  0  0  0  0  0  0  0  0
   24.6483  -10.4787  -14.9845 N   0  0  0  0  0  0  0  0  0  0  0  0
   23.2909   -8.4632  -14.9922 C   0  0  0  0  0  0  0  0  0  0  0  0
   24.3179   -7.8187  -14.6524 O   0  0  0  0  0  0  0  0  0  0  0  0
   22.2095   -7.7511  -15.5266 N   0  0  0  0  0  0  0  0  0  0  0  0
   22.1566   -6.2865  -15.6637 C   0  0  1  0  0  0  0  0  0  0  0  0
   21.2081   -5.8702  -16.7242 C   0  0  0  0  0  0  0  0  0  0  0  0
   21.1068   -4.4321  -17.0401 C   0  0  0  0  0  0  0  0  0  0  0  0
   20.2038   -4.0089  -18.1333 C   0  0  0  0  0  0  0  0  0  0  0  0
   20.1575   -2.5272  -18.3867 C   0  0  0  0  0  0  0  0  0  0  0  0
   19.2329   -2.1948  -19.4618 N   0  0  0  0  0  0  0  0  0  0  0  0
   22.1015   -5.6139  -14.3768 C   0  0  0  0  0  0  0  0  0  0  0  0
   21.3877   -6.0360  -13.4020 O   0  0  0  0  0  0  0  0  0  0  0  0
   22.8187   -4.4616  -14.0932 O   0  0  0  0  0  0  0  0  0  0  0  0
  2  1  1  6
  2  5  1  0
  2  3  1  0
  3  4  1  0
  5 10  1  0
  6  5  2  0
  9  8  1  1
  8  7  1  0
  9 11  1  0
 10  9  1  0
 11 12  2  0
 11 13  1  0
 13 14  1  0
 14 20  1  0
 14 15  1  6
 15 16  1  0
 16 17  1  0
 18 19  1  0
 18 17  1  0
 20 22  1  0
 21 20  2  0
M  END
$$$$
