CSK.pdb
     RDKit          3D

 22 21  0  0  1  0  0  0  0  0999 V2000
   16.6616  -11.7819  -16.7694 N   0  0  0  0  0  0  0  0  0  0  0  0
   17.4576  -11.6779  -15.5662 C   0  0  1  0  0  0  0  0  0  0  0  0
   18.6481  -12.5746  -15.7053 C   0  0  0  0  0  0  0  0  0  0  0  0
   18.1798  -14.3106  -15.4708 S   0  0  0  0  0  0  0  0  0  0  0  0
   17.8203  -10.2584  -15.3630 C   0  0  0  0  0  0  0  0  0  0  0  0
   18.3317   -9.5769  -16.2884 O   0  0  0  0  0  0  0  0  0  0  0  0
   17.8885   -8.4480  -11.6240 O   0  0  0  0  0  0  0  0  0  0  0  0
   17.2582   -7.7348  -12.6449 C   0  0  0  0  0  0  0  0  0  0  0  0
   17.8635   -8.1612  -13.9369 C   0  0  2  0  0  0  0  0  0  0  0  0
   17.6180   -9.5780  -14.1236 N   0  0  0  0  0  0  0  0  0  0  0  0
   19.2992   -7.8240  -14.0800 C   0  0  0  0  0  0  0  0  0  0  0  0
   20.1320   -8.6714  -13.6629 O   0  0  0  0  0  0  0  0  0  0  0  0
   19.7876   -6.6379  -14.6429 N   0  0  0  0  0  0  0  0  0  0  0  0
   21.2127   -6.3342  -14.8512 C   0  0  1  0  0  0  0  0  0  0  0  0
   21.5565   -6.2841  -16.2923 C   0  0  0  0  0  0  0  0  0  0  0  0
   22.9349   -5.9109  -16.6651 C   0  0  0  0  0  0  0  0  0  0  0  0
   23.2971   -5.8804  -18.0995 C   0  0  0  0  0  0  0  0  0  0  0  0
   24.7587   -5.6714  -18.3854 C   0  0  0  0  0  0  0  0  0  0  0  0
   25.0248   -5.6247  -19.8165 N   0  0  0  0  0  0  0  0  0  0  0  0
   21.6806   -5.2645  -13.9860 C   0  0  0  0  0  0  0  0  0  0  0  0
   22.8945   -5.1704  -13.5915 O   0  0  0  0  0  0  0  0  0  0  0  0
   20.8553   -4.2537  -13.5174 O   0  0  0  0  0  0  0  0  0  0  0  0
  2  1  1  6
  2  5  1  0
  2  3  1  0
  3  4  1  0
  5 10  1  0
  6  5  2  0
  9  8  1  1
  8  7  1  0
  9 11  1  0
 10  9  1  0
 11 12  2  0
 11 13  1  0
 13 14  1  0
 14 20  1  0
 14 15  1  6
 15 16  1  0
 16 17  1  0
 18 19  1  0
 18 17  1  0
 20 22  1  0
 21 20  2  0
M  END
$$$$
