CSK.pdb
     RDKit          3D

 22 21  0  0  1  0  0  0  0  0999 V2000
   18.9495  -11.3062  -15.7360 N   0  0  0  0  0  0  0  0  0  0  0  0
   18.6213   -9.8984  -15.6866 C   0  0  1  0  0  0  0  0  0  0  0  0
   17.2290   -9.7167  -16.2053 C   0  0  0  0  0  0  0  0  0  0  0  0
   17.2294   -9.5484  -18.0108 S   0  0  0  0  0  0  0  0  0  0  0  0
   18.7892   -9.4245  -14.2955 C   0  0  0  0  0  0  0  0  0  0  0  0
   18.4476  -10.1381  -13.3176 O   0  0  0  0  0  0  0  0  0  0  0  0
   21.8118   -7.2717  -12.6974 O   0  0  0  0  0  0  0  0  0  0  0  0
   20.5789   -6.6232  -12.6110 C   0  0  0  0  0  0  0  0  0  0  0  0
   19.5160   -7.6663  -12.6180 C   0  0  2  0  0  0  0  0  0  0  0  0
   19.3408   -8.1467  -13.9748 N   0  0  0  0  0  0  0  0  0  0  0  0
   18.2339   -7.2364  -12.0125 C   0  0  0  0  0  0  0  0  0  0  0  0
   17.4306   -6.6107  -12.7533 O   0  0  0  0  0  0  0  0  0  0  0  0
   17.8587   -7.4772  -10.6844 N   0  0  0  0  0  0  0  0  0  0  0  0
   16.6002   -7.0198  -10.0734 C   0  0  1  0  0  0  0  0  0  0  0  0
   15.7003   -8.1551   -9.7590 C   0  0  0  0  0  0  0  0  0  0  0  0
   14.3528   -7.8504   -9.2399 C   0  0  0  0  0  0  0  0  0  0  0  0
   13.4336   -8.9738   -8.9523 C   0  0  0  0  0  0  0  0  0  0  0  0
   12.0850   -8.5758   -8.4189 C   0  0  0  0  0  0  0  0  0  0  0  0
   11.2502   -9.7381   -8.1482 N   0  0  0  0  0  0  0  0  0  0  0  0
   16.8177   -6.0021   -9.0592 C   0  0  0  0  0  0  0  0  0  0  0  0
   17.8559   -5.9770   -8.3112 O   0  0  0  0  0  0  0  0  0  0  0  0
   15.9234   -4.9704   -8.8175 O   0  0  0  0  0  0  0  0  0  0  0  0
  2  1  1  1
  2  5  1  0
  2  3  1  0
  3  4  1  0
  5 10  1  0
  6  5  2  0
  9  8  1  6
  8  7  1  0
  9 11  1  0
 10  9  1  0
 11 12  2  0
 11 13  1  0
 13 14  1  0
 14 20  1  0
 14 15  1  1
 15 16  1  0
 16 17  1  0
 18 19  1  0
 18 17  1  0
 20 22  1  0
 21 20  2  0
M  END
$$$$
