CSK.pdb
     RDKit          3D

 22 21  0  0  1  0  0  0  0  0999 V2000
   15.0803  -11.4982  -10.2468 N   0  0  0  0  0  0  0  0  0  0  0  0
   13.9507  -10.8462  -10.8721 C   0  0  1  0  0  0  0  0  0  0  0  0
   12.6933  -11.4123  -10.2896 C   0  0  0  0  0  0  0  0  0  0  0  0
   12.7153  -13.2246  -10.3439 S   0  0  0  0  0  0  0  0  0  0  0  0
   14.0786   -9.3865  -10.6699 C   0  0  0  0  0  0  0  0  0  0  0  0
   13.3163   -8.5772  -11.2583 O   0  0  0  0  0  0  0  0  0  0  0  0
   15.4085   -5.5853   -8.2375 O   0  0  0  0  0  0  0  0  0  0  0  0
   15.1327   -6.9519   -8.3036 C   0  0  0  0  0  0  0  0  0  0  0  0
   15.3079   -7.3822   -9.7185 C   0  0  2  0  0  0  0  0  0  0  0  0
   15.0597   -8.8079   -9.8081 N   0  0  0  0  0  0  0  0  0  0  0  0
   16.6122   -7.0083  -10.3139 C   0  0  0  0  0  0  0  0  0  0  0  0
   17.5965   -7.7479  -10.0502 O   0  0  0  0  0  0  0  0  0  0  0  0
   16.8216   -5.8985  -11.1426 N   0  0  0  0  0  0  0  0  0  0  0  0
   18.0170   -5.6886  -11.9755 C   0  0  1  0  0  0  0  0  0  0  0  0
   18.3771   -6.9107  -12.7334 C   0  0  0  0  0  0  0  0  0  0  0  0
   19.4738   -6.8202  -13.7169 C   0  0  0  0  0  0  0  0  0  0  0  0
   20.4318   -7.9437  -13.8150 C   0  0  0  0  0  0  0  0  0  0  0  0
   21.4721   -7.8045  -14.8920 C   0  0  0  0  0  0  0  0  0  0  0  0
   22.4443   -8.8879  -14.8430 N   0  0  0  0  0  0  0  0  0  0  0  0
   17.9826   -4.4176  -12.6790 C   0  0  0  0  0  0  0  0  0  0  0  0
   16.9006   -3.8984  -13.1235 O   0  0  0  0  0  0  0  0  0  0  0  0
   19.1157   -3.6575  -12.9255 O   0  0  0  0  0  0  0  0  0  0  0  0
  2  1  1  1
  2  5  1  0
  2  3  1  0
  3  4  1  0
  5 10  1  0
  6  5  2  0
  9  8  1  1
  8  7  1  0
  9 11  1  0
 10  9  1  0
 11 12  2  0
 11 13  1  0
 13 14  1  0
 14 20  1  0
 14 15  1  6
 15 16  1  0
 16 17  1  0
 18 19  1  0
 18 17  1  0
 20 22  1  0
 21 20  2  0
M  END
$$$$
