CSK.pdb
     RDKit          3D

 22 21  0  0  1  0  0  0  0  0999 V2000
   17.3290  -12.0582  -15.5320 N   0  0  0  0  0  0  0  0  0  0  0  0
   17.8989  -10.9289  -16.2335 C   0  0  1  0  0  0  0  0  0  0  0  0
   16.7813  -10.0906  -16.7713 C   0  0  0  0  0  0  0  0  0  0  0  0
   16.0637  -10.8462  -18.2553 S   0  0  0  0  0  0  0  0  0  0  0  0
   18.7810  -10.1926  -15.3021 C   0  0  0  0  0  0  0  0  0  0  0  0
   18.4519  -10.0053  -14.1026 O   0  0  0  0  0  0  0  0  0  0  0  0
   22.7258   -9.5488  -16.1402 O   0  0  0  0  0  0  0  0  0  0  0  0
   22.2674   -9.5746  -14.8221 C   0  0  0  0  0  0  0  0  0  0  0  0
   20.9237   -8.9330  -14.7963 C   0  0  2  0  0  0  0  0  0  0  0  0
   20.0438   -9.6536  -15.6956 N   0  0  0  0  0  0  0  0  0  0  0  0
   20.9354   -7.4787  -15.0796 C   0  0  0  0  0  0  0  0  0  0  0  0
   20.9744   -7.1299  -16.2889 O   0  0  0  0  0  0  0  0  0  0  0  0
   20.9059   -6.4756  -14.1023 N   0  0  0  0  0  0  0  0  0  0  0  0
   21.0174   -5.0340  -14.3779 C   0  0  1  0  0  0  0  0  0  0  0  0
   19.7210   -4.3395  -14.1913 C   0  0  0  0  0  0  0  0  0  0  0  0
   18.6329   -4.6316  -15.1446 C   0  0  0  0  0  0  0  0  0  0  0  0
   17.3245   -3.9681  -14.9513 C   0  0  0  0  0  0  0  0  0  0  0  0
   16.2585   -4.3569  -15.9382 C   0  0  0  0  0  0  0  0  0  0  0  0
   15.0020   -3.6711  -15.6697 N   0  0  0  0  0  0  0  0  0  0  0  0
   22.2110   -4.4507  -13.7890 C   0  0  0  0  0  0  0  0  0  0  0  0
   22.8920   -5.0346  -12.8762 O   0  0  0  0  0  0  0  0  0  0  0  0
   22.7162   -3.2160  -14.1671 O   0  0  0  0  0  0  0  0  0  0  0  0
  2  1  1  1
  2  5  1  0
  2  3  1  0
  3  4  1  0
  5 10  1  0
  6  5  2  0
  9  8  1  6
  8  7  1  0
  9 11  1  0
 10  9  1  0
 11 12  2  0
 11 13  1  0
 13 14  1  0
 14 20  1  0
 14 15  1  1
 15 16  1  0
 16 17  1  0
 18 19  1  0
 18 17  1  0
 20 22  1  0
 21 20  2  0
M  END
$$$$
