CSK.pdb
     RDKit          3D

 22 21  0  0  1  0  0  0  0  0999 V2000
   17.5396  -11.6520  -14.4099 N   0  0  0  0  0  0  0  0  0  0  0  0
   16.9626  -10.3352  -14.5692 C   0  0  1  0  0  0  0  0  0  0  0  0
   15.4997  -10.4881  -14.8471 C   0  0  0  0  0  0  0  0  0  0  0  0
   15.2277  -11.3430  -16.4229 S   0  0  0  0  0  0  0  0  0  0  0  0
   17.2427   -9.5478  -13.3488 C   0  0  0  0  0  0  0  0  0  0  0  0
   17.1329  -10.0576  -12.2040 O   0  0  0  0  0  0  0  0  0  0  0  0
   17.9776   -5.4762  -13.5327 O   0  0  0  0  0  0  0  0  0  0  0  0
   18.7192   -6.1946  -12.5935 C   0  0  0  0  0  0  0  0  0  0  0  0
   17.9206   -7.3891  -12.2023 C   0  0  2  0  0  0  0  0  0  0  0  0
   17.6494   -8.1792  -13.3875 N   0  0  0  0  0  0  0  0  0  0  0  0
   16.6832   -7.0772  -11.4492 C   0  0  0  0  0  0  0  0  0  0  0  0
   15.5877   -7.2865  -12.0335 O   0  0  0  0  0  0  0  0  0  0  0  0
   16.6506   -6.5705  -10.1437 N   0  0  0  0  0  0  0  0  0  0  0  0
   15.4364   -6.0987   -9.4583 C   0  0  1  0  0  0  0  0  0  0  0  0
   14.6603   -7.2237   -8.8839 C   0  0  0  0  0  0  0  0  0  0  0  0
   13.3894   -6.9135   -8.2008 C   0  0  0  0  0  0  0  0  0  0  0  0
   12.6050   -8.0277   -7.6238 C   0  0  0  0  0  0  0  0  0  0  0  0
   11.3457   -7.6203   -6.9097 C   0  0  0  0  0  0  0  0  0  0  0  0
   10.5784   -8.7780   -6.4714 N   0  0  0  0  0  0  0  0  0  0  0  0
   15.6892   -4.9322   -8.6295 C   0  0  0  0  0  0  0  0  0  0  0  0
   16.8378   -4.6707   -8.1292 O   0  0  0  0  0  0  0  0  0  0  0  0
   14.7111   -4.0017   -8.3131 O   0  0  0  0  0  0  0  0  0  0  0  0
  2  1  1  1
  2  5  1  0
  2  3  1  0
  3  4  1  0
  5 10  1  0
  6  5  2  0
  9  8  1  6
  8  7  1  0
  9 11  1  0
 10  9  1  0
 11 12  2  0
 11 13  1  0
 13 14  1  0
 14 20  1  0
 14 15  1  1
 15 16  1  0
 16 17  1  0
 18 19  1  0
 18 17  1  0
 20 22  1  0
 21 20  2  0
M  END
$$$$
