KRY.pdb
     RDKit          3D

 33 33  0  0  1  0  0  0  0  0999 V2000
   27.6097  -22.2502  -17.4063 N   0  0  0  0  0  0  0  0  0  0  0  0
   27.3321  -21.1335  -16.5315 C   0  0  1  0  0  0  0  0  0  0  0  0
   26.6960  -19.9822  -17.2187 C   0  0  0  0  0  0  0  0  0  0  0  0
   27.4613  -19.3966  -18.3670 C   0  0  0  0  0  0  0  0  0  0  0  0
   26.6630  -19.1933  -19.6233 C   0  0  0  0  0  0  0  0  0  0  0  0
   27.5994  -18.5864  -20.6859 C   0  0  0  0  0  0  0  0  0  0  0  0
   26.8496  -18.5032  -21.9366 N   0  0  0  0  0  0  0  0  0  0  0  0
   26.5449  -21.5982  -15.3522 C   0  0  0  0  0  0  0  0  0  0  0  0
   25.7579  -22.5714  -15.4085 O   0  0  0  0  0  0  0  0  0  0  0  0
   29.3537  -20.4144   -7.5729 N   0  0  0  0  0  0  0  0  0  0  0  0
   29.5060  -21.2839   -8.6815 C   0  0  0  0  0  0  0  0  0  0  0  0
   30.6153  -21.8632   -9.0026 N   0  0  0  0  0  0  0  0  0  0  0  0
   28.3804  -21.5542   -9.5126 N   0  0  0  0  0  0  0  0  0  0  0  0
   27.1000  -20.9618   -9.3392 C   0  0  0  0  0  0  0  0  0  0  0  0
   26.0964  -21.4006  -10.3989 C   0  0  0  0  0  0  0  0  0  0  0  0
   26.7106  -21.0318  -11.7089 C   0  0  0  0  0  0  0  0  0  0  0  0
   25.9261  -21.4207  -12.9428 C   0  0  2  0  0  0  0  0  0  0  0  0
   26.6870  -20.9218  -14.1242 N   0  0  0  0  0  0  0  0  0  0  0  0
   24.6439  -20.7010  -12.9480 C   0  0  0  0  0  0  0  0  0  0  0  0
   24.6220  -19.4805  -13.2398 O   0  0  0  0  0  0  0  0  0  0  0  0
   30.5859  -22.4799   -9.8649 O   0  0  0  0  0  0  0  0  0  0  0  0
   17.2755  -18.0454  -16.2661 C   0  0  0  0  0  0  0  0  0  0  0  0
   18.4625  -18.6075  -15.8032 C   0  0  0  0  0  0  0  0  0  0  0  0
   18.6626  -19.9693  -15.7598 C   0  0  0  0  0  0  0  0  0  0  0  0
   19.8508  -20.5269  -15.2966 C   0  0  0  0  0  0  0  0  0  0  0  0
   20.8796  -19.7144  -14.8599 C   0  0  0  0  0  0  0  0  0  0  0  0
   22.1074  -20.3408  -14.3757 C   0  0  1  0  0  0  0  0  0  0  0  0
   22.1505  -20.5785  -12.8805 N   0  0  0  0  0  0  0  0  0  0  0  0
   23.3951  -21.3020  -12.6446 C   0  0  0  0  0  0  0  0  0  0  0  0
   20.9920  -21.4096  -12.4885 O   0  0  0  0  0  0  0  0  0  0  0  0
   21.0339  -22.7863  -12.4844 C   0  0  0  0  0  0  0  0  0  0  0  0
   20.6879  -18.3440  -14.8997 C   0  0  0  0  0  0  0  0  0  0  0  0
   19.4989  -17.8053  -15.3638 O   0  0  0  0  0  0  0  0  0  0  0  0
  2  3  1  0
  2  1  1  6
  4  3  1  0
  5  4  1  0
  6  5  1  0
  7  6  1  0
  8  2  1  0
  8  9  2  0
 10 11  1  0
 11 12  2  0
 13 11  1  0
 13 14  1  0
 14 15  1  0
 15 16  1  0
 17 16  1  1
 17 18  1  0
 18  8  1  0
 19 17  1  0
 20 19  2  0
 22 21  1  0
 23 22  2  0
 24 23  1  0
 25 31  1  0
 25 24  2  0
 26 25  1  0
 27 28  1  0
 27 26  1  1
 28 19  1  0
 29 27  1  0
 30 29  1  0
 31 32  2  0
 32 22  1  0
 33 29  2  0
M  END
$$$$
