KRY.pdb
     RDKit          3D

 33 33  0  0  1  0  0  0  0  0999 V2000
   26.4956  -33.2225  -16.3915 N   0  0  0  0  0  0  0  0  0  0  0  0
   25.1511  -32.8405  -16.0226 C   0  0  1  0  0  0  0  0  0  0  0  0
   24.6428  -33.5404  -14.8167 C   0  0  0  0  0  0  0  0  0  0  0  0
   25.3691  -34.7928  -14.4275 C   0  0  0  0  0  0  0  0  0  0  0  0
   24.7305  -35.5771  -13.3168 C   0  0  0  0  0  0  0  0  0  0  0  0
   25.6209  -36.8013  -13.0293 C   0  0  0  0  0  0  0  0  0  0  0  0
   25.0099  -37.5402  -11.9274 N   0  0  0  0  0  0  0  0  0  0  0  0
   25.0629  -31.3562  -15.8988 C   0  0  0  0  0  0  0  0  0  0  0  0
   25.6978  -30.7135  -15.0308 O   0  0  0  0  0  0  0  0  0  0  0  0
   29.0346  -25.9632  -16.3250 N   0  0  0  0  0  0  0  0  0  0  0  0
   29.1392  -27.3681  -16.4796 C   0  0  0  0  0  0  0  0  0  0  0  0
   29.9151  -28.1204  -15.7717 N   0  0  0  0  0  0  0  0  0  0  0  0
   28.3499  -28.0187  -17.4718 N   0  0  0  0  0  0  0  0  0  0  0  0
   27.3925  -27.3586  -18.2892 C   0  0  0  0  0  0  0  0  0  0  0  0
   25.9858  -27.4001  -17.7042 C   0  0  0  0  0  0  0  0  0  0  0  0
   25.7284  -28.8351  -17.3821 C   0  0  0  0  0  0  0  0  0  0  0  0
   24.3541  -29.1569  -16.8371 C   0  0  2  0  0  0  0  0  0  0  0  0
   24.2359  -30.6427  -16.7891 N   0  0  0  0  0  0  0  0  0  0  0  0
   23.3349  -28.6958  -17.7913 C   0  0  0  0  0  0  0  0  0  0  0  0
   23.1903  -29.3014  -18.8811 O   0  0  0  0  0  0  0  0  0  0  0  0
   29.8571  -29.1615  -15.9650 O   0  0  0  0  0  0  0  0  0  0  0  0
   16.3359  -27.3518  -22.4162 C   0  0  0  0  0  0  0  0  0  0  0  0
   17.3747  -27.5863  -21.5190 C   0  0  0  0  0  0  0  0  0  0  0  0
   17.1820  -27.5847  -20.1554 C   0  0  0  0  0  0  0  0  0  0  0  0
   18.2232  -27.8199  -19.2621 C   0  0  0  0  0  0  0  0  0  0  0  0
   19.5007  -28.0657  -19.7279 C   0  0  0  0  0  0  0  0  0  0  0  0
   20.5656  -28.3014  -18.7560 C   0  0  1  0  0  0  0  0  0  0  0  0
   21.5417  -27.1546  -18.5950 N   0  0  0  0  0  0  0  0  0  0  0  0
   22.4758  -27.5902  -17.5625 C   0  0  0  0  0  0  0  0  0  0  0  0
   20.8068  -25.9521  -18.1471 O   0  0  0  0  0  0  0  0  0  0  0  0
   20.6459  -25.6333  -16.8170 C   0  0  0  0  0  0  0  0  0  0  0  0
   19.7042  -28.0695  -21.0972 C   0  0  0  0  0  0  0  0  0  0  0  0
   18.6568  -27.8335  -21.9727 O   0  0  0  0  0  0  0  0  0  0  0  0
  2  3  1  0
  2  1  1  1
  4  3  1  0
  5  4  1  0
  6  5  1  0
  7  6  1  0
  8  2  1  0
  8  9  2  0
 10 11  1  0
 11 12  2  0
 13 11  1  0
 13 14  1  0
 14 15  1  0
 15 16  1  0
 17 16  1  6
 17 18  1  0
 18  8  1  0
 19 17  1  0
 20 19  2  0
 22 21  1  0
 23 22  2  0
 24 23  1  0
 25 31  1  0
 25 24  2  0
 26 25  1  0
 27 28  1  0
 27 26  1  6
 28 19  1  0
 29 27  1  0
 30 29  1  0
 31 32  2  0
 32 22  1  0
 33 29  2  0
M  END
$$$$
