KRY.pdb
     RDKit          3D

 33 33  0  0  1  0  0  0  0  0999 V2000
   22.2343  -18.3772  -18.9145 N   0  0  0  0  0  0  0  0  0  0  0  0
   23.0542  -17.7257  -17.9182 C   0  0  1  0  0  0  0  0  0  0  0  0
   22.3040  -16.7797  -17.0552 C   0  0  0  0  0  0  0  0  0  0  0  0
   20.9186  -16.4315  -17.5099 C   0  0  0  0  0  0  0  0  0  0  0  0
   20.1784  -15.4783  -16.6152 C   0  0  0  0  0  0  0  0  0  0  0  0
   18.8395  -15.1337  -17.2954 C   0  0  0  0  0  0  0  0  0  0  0  0
   18.1578  -14.1542  -16.4532 N   0  0  0  0  0  0  0  0  0  0  0  0
   23.7988  -18.7491  -17.1278 C   0  0  0  0  0  0  0  0  0  0  0  0
   23.3063  -19.8630  -16.8340 O   0  0  0  0  0  0  0  0  0  0  0  0
   30.4863  -22.5802  -17.6848 N   0  0  0  0  0  0  0  0  0  0  0  0
   29.2566  -22.9422  -17.0805 C   0  0  0  0  0  0  0  0  0  0  0  0
   28.6874  -24.0928  -17.2258 N   0  0  0  0  0  0  0  0  0  0  0  0
   28.5828  -21.9959  -16.2552 N   0  0  0  0  0  0  0  0  0  0  0  0
   29.0728  -20.6918  -15.9726 C   0  0  0  0  0  0  0  0  0  0  0  0
   28.1826  -19.9220  -15.0042 C   0  0  0  0  0  0  0  0  0  0  0  0
   27.2890  -19.0863  -15.8600 C   0  0  0  0  0  0  0  0  0  0  0  0
   25.8269  -19.4749  -15.8708 C   0  0  2  0  0  0  0  0  0  0  0  0
   25.1070  -18.4591  -16.6917 N   0  0  0  0  0  0  0  0  0  0  0  0
   25.2851  -19.3589  -14.5088 C   0  0  0  0  0  0  0  0  0  0  0  0
   24.7411  -18.2863  -14.1498 O   0  0  0  0  0  0  0  0  0  0  0  0
   27.7625  -24.2215  -16.7231 O   0  0  0  0  0  0  0  0  0  0  0  0
   19.9727  -19.7272   -7.8609 C   0  0  0  0  0  0  0  0  0  0  0  0
   20.7730  -19.8485   -8.9941 C   0  0  0  0  0  0  0  0  0  0  0  0
   20.8047  -18.8850   -9.9775 C   0  0  0  0  0  0  0  0  0  0  0  0
   21.6064  -19.0101  -11.1084 C   0  0  0  0  0  0  0  0  0  0  0  0
   22.4060  -20.1242  -11.2776 C   0  0  0  0  0  0  0  0  0  0  0  0
   23.2272  -20.2186  -12.4822 C   0  0  1  0  0  0  0  0  0  0  0  0
   24.7211  -20.2170  -12.2324 N   0  0  0  0  0  0  0  0  0  0  0  0
   25.3282  -20.4001  -13.5462 C   0  0  0  0  0  0  0  0  0  0  0  0
   25.0654  -21.3495  -11.3461 O   0  0  0  0  0  0  0  0  0  0  0  0
   25.3476  -22.6088  -11.8269 C   0  0  0  0  0  0  0  0  0  0  0  0
   22.3809  -21.0982  -10.2943 C   0  0  0  0  0  0  0  0  0  0  0  0
   21.5771  -20.9581   -9.1746 O   0  0  0  0  0  0  0  0  0  0  0  0
  2  3  1  0
  2  1  1  6
  4  3  1  0
  5  4  1  0
  6  5  1  0
  7  6  1  0
  8  2  1  0
  8  9  2  0
 10 11  1  0
 11 12  2  0
 13 11  1  0
 13 14  1  0
 14 15  1  0
 15 16  1  0
 17 16  1  1
 17 18  1  0
 18  8  1  0
 19 17  1  0
 20 19  2  0
 22 21  1  0
 23 22  2  0
 24 23  1  0
 25 31  1  0
 25 24  2  0
 26 25  1  0
 27 28  1  0
 27 26  1  6
 28 19  1  0
 29 27  1  0
 30 29  1  0
 31 32  2  0
 32 22  1  0
 33 29  2  0
M  END
$$$$
