KRY.pdb
     RDKit          3D

 33 33  0  0  1  0  0  0  0  0999 V2000
   22.2423  -19.8688  -17.3635 N   0  0  0  0  0  0  0  0  0  0  0  0
   23.3841  -19.2247  -16.7547 C   0  0  1  0  0  0  0  0  0  0  0  0
   23.0936  -17.8662  -16.2327 C   0  0  0  0  0  0  0  0  0  0  0  0
   22.4794  -16.9050  -17.2055 C   0  0  0  0  0  0  0  0  0  0  0  0
   22.2309  -15.5261  -16.6635 C   0  0  0  0  0  0  0  0  0  0  0  0
   21.6397  -14.6703  -17.8002 C   0  0  0  0  0  0  0  0  0  0  0  0
   21.3364  -13.3530  -17.2467 N   0  0  0  0  0  0  0  0  0  0  0  0
   23.9753  -20.1188  -15.7167 C   0  0  0  0  0  0  0  0  0  0  0  0
   23.2773  -20.8728  -14.9999 O   0  0  0  0  0  0  0  0  0  0  0  0
   29.1600  -21.4249  -19.2143 N   0  0  0  0  0  0  0  0  0  0  0  0
   29.2754  -22.8145  -18.9609 C   0  0  0  0  0  0  0  0  0  0  0  0
   29.4714  -23.7053  -19.8759 N   0  0  0  0  0  0  0  0  0  0  0  0
   29.1723  -23.2874  -17.6206 N   0  0  0  0  0  0  0  0  0  0  0  0
   28.9164  -22.4540  -16.4978 C   0  0  0  0  0  0  0  0  0  0  0  0
   27.4294  -22.3022  -16.2000 C   0  0  0  0  0  0  0  0  0  0  0  0
   27.3495  -21.4100  -15.0055 C   0  0  0  0  0  0  0  0  0  0  0  0
   25.9563  -21.0607  -14.5300 C   0  0  2  0  0  0  0  0  0  0  0  0
   25.3720  -20.1211  -15.5297 N   0  0  0  0  0  0  0  0  0  0  0  0
   26.0492  -20.3107  -13.2687 C   0  0  0  0  0  0  0  0  0  0  0  0
   26.5537  -19.1614  -13.2694 O   0  0  0  0  0  0  0  0  0  0  0  0
   29.5474  -24.7085  -19.5402 O   0  0  0  0  0  0  0  0  0  0  0  0
   19.8356  -22.2415  -10.4544 C   0  0  0  0  0  0  0  0  0  0  0  0
   21.0207  -21.5101  -10.4594 C   0  0  0  0  0  0  0  0  0  0  0  0
   21.5747  -21.0170  -11.6198 C   0  0  0  0  0  0  0  0  0  0  0  0
   22.7592  -20.2861  -11.6201 C   0  0  0  0  0  0  0  0  0  0  0  0
   23.4228  -20.0314  -10.4352 C   0  0  0  0  0  0  0  0  0  0  0  0
   24.6662  -19.2659  -10.4811 C   0  0  1  0  0  0  0  0  0  0  0  0
   25.9035  -20.0845  -10.7859 N   0  0  0  0  0  0  0  0  0  0  0  0
   25.5933  -20.8013  -12.0181 C   0  0  0  0  0  0  0  0  0  0  0  0
   26.1364  -21.0401   -9.6817 O   0  0  0  0  0  0  0  0  0  0  0  0
   26.4179  -20.6341   -8.3960 C   0  0  0  0  0  0  0  0  0  0  0  0
   22.8736  -20.5231   -9.2635 C   0  0  0  0  0  0  0  0  0  0  0  0
   21.6936  -21.2488   -9.2807 O   0  0  0  0  0  0  0  0  0  0  0  0
  2  3  1  0
  2  1  1  1
  4  3  1  0
  5  4  1  0
  6  5  1  0
  7  6  1  0
  8  2  1  0
  8  9  2  0
 10 11  1  0
 11 12  2  0
 13 11  1  0
 13 14  1  0
 14 15  1  0
 15 16  1  0
 17 16  1  6
 17 18  1  0
 18  8  1  0
 19 17  1  0
 20 19  2  0
 22 21  1  0
 23 22  2  0
 24 23  1  0
 25 31  1  0
 25 24  2  0
 26 25  1  0
 27 28  1  0
 27 26  1  6
 28 19  1  0
 29 27  1  0
 30 29  1  0
 31 32  2  0
 32 22  1  0
 33 29  2  0
M  END
$$$$
