KRY.pdb
     RDKit          3D

 33 33  0  0  1  0  0  0  0  0999 V2000
   26.4530  -19.7183  -16.8436 N   0  0  0  0  0  0  0  0  0  0  0  0
   27.0177  -18.7868  -15.8935 C   0  0  1  0  0  0  0  0  0  0  0  0
   27.2232  -17.4245  -16.4451 C   0  0  0  0  0  0  0  0  0  0  0  0
   26.5513  -17.1362  -17.7539 C   0  0  0  0  0  0  0  0  0  0  0  0
   27.4694  -16.6757  -18.8502 C   0  0  0  0  0  0  0  0  0  0  0  0
   26.9817  -15.2940  -19.3266 C   0  0  0  0  0  0  0  0  0  0  0  0
   27.8097  -14.9041  -20.4650 N   0  0  0  0  0  0  0  0  0  0  0  0
   26.1992  -18.7782  -14.6459 C   0  0  0  0  0  0  0  0  0  0  0  0
   26.0799  -17.7603  -13.9253 O   0  0  0  0  0  0  0  0  0  0  0  0
   18.7161  -21.8999  -11.9982 N   0  0  0  0  0  0  0  0  0  0  0  0
   19.1861  -21.3407  -13.2126 C   0  0  0  0  0  0  0  0  0  0  0  0
   18.4353  -20.7318  -14.0698 N   0  0  0  0  0  0  0  0  0  0  0  0
   20.5705  -21.4423  -13.5346 N   0  0  0  0  0  0  0  0  0  0  0  0
   21.5314  -22.1068  -12.7249 C   0  0  0  0  0  0  0  0  0  0  0  0
   22.6004  -21.1658  -12.1821 C   0  0  0  0  0  0  0  0  0  0  0  0
   23.4649  -20.8255  -13.3508 C   0  0  0  0  0  0  0  0  0  0  0  0
   24.6339  -19.9078  -13.0669 C   0  0  2  0  0  0  0  0  0  0  0  0
   25.5315  -19.9565  -14.2568 N   0  0  0  0  0  0  0  0  0  0  0  0
   25.4131  -20.4498  -11.9439 C   0  0  0  0  0  0  0  0  0  0  0  0
   25.9329  -21.5877  -12.0452 O   0  0  0  0  0  0  0  0  0  0  0  0
   18.9181  -20.3853  -14.9481 O   0  0  0  0  0  0  0  0  0  0  0  0
   29.7678  -20.5867   -4.1533 C   0  0  0  0  0  0  0  0  0  0  0  0
   29.1601  -20.2798   -5.3681 C   0  0  0  0  0  0  0  0  0  0  0  0
   29.6569  -20.7276   -6.5719 C   0  0  0  0  0  0  0  0  0  0  0  0
   29.0460  -20.4187   -7.7838 C   0  0  0  0  0  0  0  0  0  0  0  0
   27.9046  -19.6405   -7.8120 C   0  0  0  0  0  0  0  0  0  0  0  0
   27.2990  -19.3347   -9.1058 C   0  0  1  0  0  0  0  0  0  0  0  0
   26.3609  -20.4000   -9.6340 N   0  0  0  0  0  0  0  0  0  0  0  0
   25.6313  -19.7604  -10.7234 C   0  0  0  0  0  0  0  0  0  0  0  0
   25.4286  -20.8011   -8.5585 O   0  0  0  0  0  0  0  0  0  0  0  0
   24.1266  -20.3558   -8.5008 C   0  0  0  0  0  0  0  0  0  0  0  0
   27.3977  -19.1856   -6.6069 C   0  0  0  0  0  0  0  0  0  0  0  0
   28.0180  -19.5023   -5.4093 O   0  0  0  0  0  0  0  0  0  0  0  0
  2  3  1  0
  2  1  1  6
  4  3  1  0
  5  4  1  0
  6  5  1  0
  7  6  1  0
  8  2  1  0
  8  9  2  0
 10 11  1  0
 11 12  2  0
 13 11  1  0
 13 14  1  0
 14 15  1  0
 15 16  1  0
 17 16  1  6
 17 18  1  0
 18  8  1  0
 19 17  1  0
 20 19  2  0
 22 21  1  0
 23 22  2  0
 24 23  1  0
 25 31  1  0
 25 24  2  0
 26 25  1  0
 27 28  1  0
 27 26  1  6
 28 19  1  0
 29 27  1  0
 30 29  1  0
 31 32  2  0
 32 22  1  0
 33 29  2  0
M  END
$$$$
