KRY.pdb
     RDKit          3D

 33 33  0  0  1  0  0  0  0  0999 V2000
   24.4331  -30.0166  -18.1185 N   0  0  0  0  0  0  0  0  0  0  0  0
   25.0649  -28.7292  -17.9372 C   0  0  1  0  0  0  0  0  0  0  0  0
   25.5596  -28.1254  -19.1994 C   0  0  0  0  0  0  0  0  0  0  0  0
   27.0352  -28.2277  -19.4437 C   0  0  0  0  0  0  0  0  0  0  0  0
   27.5151  -27.5760  -20.7093 C   0  0  0  0  0  0  0  0  0  0  0  0
   29.0211  -27.8694  -20.8509 C   0  0  0  0  0  0  0  0  0  0  0  0
   29.4610  -27.3054  -22.1244 N   0  0  0  0  0  0  0  0  0  0  0  0
   24.1499  -27.8173  -17.1905 C   0  0  0  0  0  0  0  0  0  0  0  0
   24.0888  -26.5873  -17.4209 O   0  0  0  0  0  0  0  0  0  0  0  0
   22.7730  -22.1757  -17.2557 N   0  0  0  0  0  0  0  0  0  0  0  0
   21.4893  -22.4950  -17.7641 C   0  0  0  0  0  0  0  0  0  0  0  0
   20.8839  -21.8186  -18.6834 N   0  0  0  0  0  0  0  0  0  0  0  0
   20.7991  -23.6291  -17.2463 N   0  0  0  0  0  0  0  0  0  0  0  0
   21.4310  -24.7064  -16.5675 C   0  0  0  0  0  0  0  0  0  0  0  0
   21.5988  -25.9415  -17.4445 C   0  0  0  0  0  0  0  0  0  0  0  0
   21.2828  -27.1043  -16.5628 C   0  0  0  0  0  0  0  0  0  0  0  0
   22.3279  -27.4548  -15.5265 C   0  0  2  0  0  0  0  0  0  0  0  0
   23.3189  -28.3528  -16.1862 N   0  0  0  0  0  0  0  0  0  0  0  0
   21.7032  -28.2492  -14.4585 C   0  0  0  0  0  0  0  0  0  0  0  0
   21.1576  -29.3435  -14.7414 O   0  0  0  0  0  0  0  0  0  0  0  0
   19.9114  -22.1527  -18.9431 O   0  0  0  0  0  0  0  0  0  0  0  0
   19.2524  -30.8710   -6.2879 C   0  0  0  0  0  0  0  0  0  0  0  0
   19.8081  -30.2191   -7.3858 C   0  0  0  0  0  0  0  0  0  0  0  0
   19.2637  -29.0676   -7.9095 C   0  0  0  0  0  0  0  0  0  0  0  0
   19.8227  -28.4191   -9.0069 C   0  0  0  0  0  0  0  0  0  0  0  0
   20.9589  -28.9223   -9.6111 C   0  0  0  0  0  0  0  0  0  0  0  0
   21.5093  -28.2141  -10.7642 C   0  0  2  0  0  0  0  0  0  0  0  0
   20.9893  -28.6872  -12.1058 N   0  0  0  0  0  0  0  0  0  0  0  0
   21.6757  -27.8622  -13.0939 C   0  0  0  0  0  0  0  0  0  0  0  0
   19.5302  -28.4557  -12.1689 O   0  0  0  0  0  0  0  0  0  0  0  0
   18.6099  -29.4276  -11.8444 C   0  0  0  0  0  0  0  0  0  0  0  0
   21.5136  -30.0794   -9.0917 C   0  0  0  0  0  0  0  0  0  0  0  0
   20.9446  -30.7126   -7.9987 O   0  0  0  0  0  0  0  0  0  0  0  0
  2  3  1  0
  2  1  1  6
  4  3  1  0
  5  4  1  0
  6  5  1  0
  7  6  1  0
  8  2  1  0
  8  9  2  0
 10 11  1  0
 11 12  2  0
 13 11  1  0
 13 14  1  0
 14 15  1  0
 15 16  1  0
 17 16  1  6
 17 18  1  0
 18  8  1  0
 19 17  1  0
 20 19  2  0
 22 21  1  0
 23 22  2  0
 24 23  1  0
 25 31  1  0
 25 24  2  0
 26 25  1  0
 27 28  1  0
 27 26  1  6
 28 19  1  0
 29 27  1  0
 30 29  1  0
 31 32  2  0
 32 22  1  0
 33 29  2  0
M  END
$$$$
