KRY.pdb
     RDKit          3D

 33 33  0  0  1  0  0  0  0  0999 V2000
   20.2802  -19.4677  -14.6212 N   0  0  0  0  0  0  0  0  0  0  0  0
   21.0597  -20.6776  -14.7552 C   0  0  1  0  0  0  0  0  0  0  0  0
   20.5151  -21.6293  -15.7553 C   0  0  0  0  0  0  0  0  0  0  0  0
   19.0621  -21.4727  -16.0896 C   0  0  0  0  0  0  0  0  0  0  0  0
   18.1183  -22.1913  -15.1678 C   0  0  0  0  0  0  0  0  0  0  0  0
   17.1299  -22.9945  -16.0349 C   0  0  0  0  0  0  0  0  0  0  0  0
   16.1760  -23.6365  -15.1341 N   0  0  0  0  0  0  0  0  0  0  0  0
   22.4878  -20.3330  -15.0162 C   0  0  0  0  0  0  0  0  0  0  0  0
   23.3360  -21.1894  -15.3579 O   0  0  0  0  0  0  0  0  0  0  0  0
   24.4452  -12.3215  -16.3120 N   0  0  0  0  0  0  0  0  0  0  0  0
   24.2377  -13.3564  -17.2577 C   0  0  0  0  0  0  0  0  0  0  0  0
   23.7322  -13.1752  -18.4328 N   0  0  0  0  0  0  0  0  0  0  0  0
   24.6005  -14.6918  -16.9173 N   0  0  0  0  0  0  0  0  0  0  0  0
   25.4509  -15.0355  -15.8314 C   0  0  0  0  0  0  0  0  0  0  0  0
   25.6815  -16.5373  -15.7126 C   0  0  0  0  0  0  0  0  0  0  0  0
   24.3417  -17.1259  -15.4164 C   0  0  0  0  0  0  0  0  0  0  0  0
   24.2915  -18.6329  -15.2922 C   0  0  2  0  0  0  0  0  0  0  0  0
   22.9062  -18.9948  -14.8753 N   0  0  0  0  0  0  0  0  0  0  0  0
   25.1732  -19.0578  -14.1950 C   0  0  0  0  0  0  0  0  0  0  0  0
   24.9727  -18.6191  -13.0363 O   0  0  0  0  0  0  0  0  0  0  0  0
   23.6355  -14.0417  -19.0366 O   0  0  0  0  0  0  0  0  0  0  0  0
   22.2830  -21.2602   -9.1671 C   0  0  0  0  0  0  0  0  0  0  0  0
   23.3789  -21.3252  -10.0238 C   0  0  0  0  0  0  0  0  0  0  0  0
   23.2427  -21.5564  -11.3745 C   0  0  0  0  0  0  0  0  0  0  0  0
   24.3409  -21.6203  -12.2273 C   0  0  0  0  0  0  0  0  0  0  0  0
   25.6199  -21.4504  -11.7326 C   0  0  0  0  0  0  0  0  0  0  0  0
   26.7448  -21.5314  -12.6611 C   0  0  2  0  0  0  0  0  0  0  0  0
   27.1793  -20.2042  -13.2474 N   0  0  0  0  0  0  0  0  0  0  0  0
   26.2602  -19.9558  -14.3526 C   0  0  0  0  0  0  0  0  0  0  0  0
   28.5646  -20.3269  -13.7501 O   0  0  0  0  0  0  0  0  0  0  0  0
   28.8593  -20.4554  -15.0893 C   0  0  0  0  0  0  0  0  0  0  0  0
   25.7669  -21.2174  -10.3760 C   0  0  0  0  0  0  0  0  0  0  0  0
   24.6631  -21.1568   -9.5409 O   0  0  0  0  0  0  0  0  0  0  0  0
  2  3  1  0
  2  1  1  6
  4  3  1  0
  5  4  1  0
  6  5  1  0
  7  6  1  0
  8  2  1  0
  8  9  2  0
 10 11  1  0
 11 12  2  0
 13 11  1  0
 13 14  1  0
 14 15  1  0
 15 16  1  0
 17 16  1  1
 17 18  1  0
 18  8  1  0
 19 17  1  0
 20 19  2  0
 22 21  1  0
 23 22  2  0
 24 23  1  0
 25 31  1  0
 25 24  2  0
 26 25  1  0
 27 28  1  0
 27 26  1  1
 28 19  1  0
 29 27  1  0
 30 29  1  0
 31 32  2  0
 32 22  1  0
 33 29  2  0
M  END
$$$$
