KRY.pdb
     RDKit          3D

 33 33  0  0  1  0  0  0  0  0999 V2000
   27.7211  -32.5278  -14.4314 N   0  0  0  0  0  0  0  0  0  0  0  0
   27.6618  -32.0863  -15.8065 C   0  0  1  0  0  0  0  0  0  0  0  0
   26.3184  -32.2291  -16.4206 C   0  0  0  0  0  0  0  0  0  0  0  0
   25.7148  -33.6006  -16.3715 C   0  0  0  0  0  0  0  0  0  0  0  0
   25.9513  -34.4416  -17.5936 C   0  0  0  0  0  0  0  0  0  0  0  0
   25.1161  -35.7286  -17.4511 C   0  0  0  0  0  0  0  0  0  0  0  0
   25.3813  -36.5569  -18.6245 N   0  0  0  0  0  0  0  0  0  0  0  0
   28.1922  -30.6959  -15.9147 C   0  0  0  0  0  0  0  0  0  0  0  0
   28.3229  -29.9452  -14.9202 O   0  0  0  0  0  0  0  0  0  0  0  0
   34.9318  -27.5988  -19.7212 N   0  0  0  0  0  0  0  0  0  0  0  0
   34.1627  -26.4085  -19.7224 C   0  0  0  0  0  0  0  0  0  0  0  0
   34.6297  -25.2429  -20.0267 N   0  0  0  0  0  0  0  0  0  0  0  0
   32.7836  -26.4718  -19.3690 N   0  0  0  0  0  0  0  0  0  0  0  0
   32.0743  -27.6814  -19.1359 C   0  0  0  0  0  0  0  0  0  0  0  0
   30.5976  -27.4532  -18.8359 C   0  0  0  0  0  0  0  0  0  0  0  0
   30.0537  -28.7923  -18.4614 C   0  0  0  0  0  0  0  0  0  0  0  0
   29.1188  -28.8201  -17.2722 C   0  0  2  0  0  0  0  0  0  0  0  0
   28.5627  -30.2008  -17.1809 N   0  0  0  0  0  0  0  0  0  0  0  0
   27.9748  -27.9346  -17.5349 C   0  0  0  0  0  0  0  0  0  0  0  0
   26.9741  -28.3832  -18.1455 O   0  0  0  0  0  0  0  0  0  0  0  0
   33.9299  -24.4461  -20.0247 O   0  0  0  0  0  0  0  0  0  0  0  0
   20.7642  -24.0327  -15.3076 C   0  0  0  0  0  0  0  0  0  0  0  0
   22.0103  -24.6304  -15.4780 C   0  0  0  0  0  0  0  0  0  0  0  0
   22.8704  -24.2609  -16.4880 C   0  0  0  0  0  0  0  0  0  0  0  0
   24.1153  -24.8609  -16.6545 C   0  0  0  0  0  0  0  0  0  0  0  0
   24.5286  -25.8613  -15.7957 C   0  0  0  0  0  0  0  0  0  0  0  0
   25.8399  -26.4686  -16.0099 C   0  0  1  0  0  0  0  0  0  0  0  0
   26.6438  -25.8589  -17.1394 N   0  0  0  0  0  0  0  0  0  0  0  0
   27.9146  -26.5752  -17.1336 C   0  0  0  0  0  0  0  0  0  0  0  0
   26.8629  -24.4237  -16.8584 O   0  0  0  0  0  0  0  0  0  0  0  0
   27.7717  -23.9810  -15.9231 C   0  0  0  0  0  0  0  0  0  0  0  0
   23.6708  -26.2396  -14.7771 C   0  0  0  0  0  0  0  0  0  0  0  0
   22.4350  -25.6321  -14.6254 O   0  0  0  0  0  0  0  0  0  0  0  0
  2  3  1  0
  2  1  1  1
  4  3  1  0
  5  4  1  0
  6  5  1  0
  7  6  1  0
  8  2  1  0
  8  9  2  0
 10 11  1  0
 11 12  2  0
 13 11  1  0
 13 14  1  0
 14 15  1  0
 15 16  1  0
 17 16  1  6
 17 18  1  0
 18  8  1  0
 19 17  1  0
 20 19  2  0
 22 21  1  0
 23 22  2  0
 24 23  1  0
 25 31  1  0
 25 24  2  0
 26 25  1  0
 27 28  1  0
 27 26  1  6
 28 19  1  0
 29 27  1  0
 30 29  1  0
 31 32  2  0
 32 22  1  0
 33 29  2  0
M  END
$$$$
