KRY.pdb
     RDKit          3D

 33 33  0  0  1  0  0  0  0  0999 V2000
   22.6856  -16.4757  -16.9315 N   0  0  0  0  0  0  0  0  0  0  0  0
   21.7459  -17.5739  -16.9520 C   0  0  1  0  0  0  0  0  0  0  0  0
   20.9995  -17.6954  -18.2289 C   0  0  0  0  0  0  0  0  0  0  0  0
   21.6172  -17.0243  -19.4187 C   0  0  0  0  0  0  0  0  0  0  0  0
   20.8089  -17.1041  -20.6825 C   0  0  0  0  0  0  0  0  0  0  0  0
   21.6401  -16.4737  -21.8163 C   0  0  0  0  0  0  0  0  0  0  0  0
   20.8576  -16.5779  -23.0453 N   0  0  0  0  0  0  0  0  0  0  0  0
   22.4395  -18.8402  -16.5755 C   0  0  0  0  0  0  0  0  0  0  0  0
   21.9086  -19.9664  -16.7148 O   0  0  0  0  0  0  0  0  0  0  0  0
   27.6692  -24.3492  -16.9470 N   0  0  0  0  0  0  0  0  0  0  0  0
   26.9522  -24.2706  -18.1669 C   0  0  0  0  0  0  0  0  0  0  0  0
   26.6658  -25.2899  -18.9074 N   0  0  0  0  0  0  0  0  0  0  0  0
   26.5069  -22.9989  -18.6307 N   0  0  0  0  0  0  0  0  0  0  0  0
   26.8969  -21.7586  -18.0559 C   0  0  0  0  0  0  0  0  0  0  0  0
   26.2658  -21.5147  -16.6903 C   0  0  0  0  0  0  0  0  0  0  0  0
   25.2012  -20.4930  -16.9182 C   0  0  0  0  0  0  0  0  0  0  0  0
   24.4341  -20.0489  -15.6920 C   0  0  2  0  0  0  0  0  0  0  0  0
   23.7423  -18.7751  -16.0424 N   0  0  0  0  0  0  0  0  0  0  0  0
   25.3845  -19.7171  -14.6203 C   0  0  0  0  0  0  0  0  0  0  0  0
   26.1463  -18.7287  -14.7546 O   0  0  0  0  0  0  0  0  0  0  0  0
   26.1630  -25.0780  -19.8168 O   0  0  0  0  0  0  0  0  0  0  0  0
   29.3060  -19.8213   -6.5950 C   0  0  0  0  0  0  0  0  0  0  0  0
   28.5563  -20.1039   -7.7341 C   0  0  0  0  0  0  0  0  0  0  0  0
   27.2042  -19.8521   -7.8048 C   0  0  0  0  0  0  0  0  0  0  0  0
   26.4588  -20.1359   -8.9454 C   0  0  0  0  0  0  0  0  0  0  0  0
   27.0663  -20.6877  -10.0571 C   0  0  0  0  0  0  0  0  0  0  0  0
   26.2459  -20.9758  -11.2311 C   0  0  2  0  0  0  0  0  0  0  0  0
   26.5250  -20.0945  -12.4309 N   0  0  0  0  0  0  0  0  0  0  0  0
   25.5034  -20.4483  -13.4104 C   0  0  0  0  0  0  0  0  0  0  0  0
   27.8709  -20.4062  -12.9583 O   0  0  0  0  0  0  0  0  0  0  0  0
   28.1509  -21.5727  -13.6348 C   0  0  0  0  0  0  0  0  0  0  0  0
   28.4252  -20.9443   -9.9956 C   0  0  0  0  0  0  0  0  0  0  0  0
   29.1526  -20.6558   -8.8523 O   0  0  0  0  0  0  0  0  0  0  0  0
  2  3  1  0
  2  1  1  6
  4  3  1  0
  5  4  1  0
  6  5  1  0
  7  6  1  0
  8  2  1  0
  8  9  2  0
 10 11  1  0
 11 12  2  0
 13 11  1  0
 13 14  1  0
 14 15  1  0
 15 16  1  0
 17 16  1  6
 17 18  1  0
 18  8  1  0
 19 17  1  0
 20 19  2  0
 22 21  1  0
 23 22  2  0
 24 23  1  0
 25 31  1  0
 25 24  2  0
 26 25  1  0
 27 28  1  0
 27 26  1  1
 28 19  1  0
 29 27  1  0
 30 29  1  0
 31 32  2  0
 32 22  1  0
 33 29  2  0
M  END
$$$$
