KRY.pdb
     RDKit          3D

 33 33  0  0  1  0  0  0  0  0999 V2000
   27.4249  -23.7411  -16.3645 N   0  0  0  0  0  0  0  0  0  0  0  0
   26.8607  -22.4620  -15.9969 C   0  0  1  0  0  0  0  0  0  0  0  0
   27.3220  -21.3398  -16.8514 C   0  0  0  0  0  0  0  0  0  0  0  0
   28.7568  -21.3882  -17.2833 C   0  0  0  0  0  0  0  0  0  0  0  0
   29.0444  -20.7306  -18.6031 C   0  0  0  0  0  0  0  0  0  0  0  0
   30.5492  -20.8899  -18.8931 C   0  0  0  0  0  0  0  0  0  0  0  0
   30.7934  -20.3816  -20.2405 N   0  0  0  0  0  0  0  0  0  0  0  0
   25.3730  -22.5621  -15.9431 C   0  0  0  0  0  0  0  0  0  0  0  0
   24.6210  -21.7342  -16.5077 O   0  0  0  0  0  0  0  0  0  0  0  0
   21.3813  -29.8868  -14.4239 N   0  0  0  0  0  0  0  0  0  0  0  0
   21.7789  -29.1999  -15.5979 C   0  0  0  0  0  0  0  0  0  0  0  0
   22.0860  -29.7812  -16.7101 N   0  0  0  0  0  0  0  0  0  0  0  0
   21.8540  -27.7770  -15.5788 N   0  0  0  0  0  0  0  0  0  0  0  0
   21.4147  -26.9692  -14.4948 C   0  0  0  0  0  0  0  0  0  0  0  0
   21.4907  -25.4779  -14.7992 C   0  0  0  0  0  0  0  0  0  0  0  0
   22.9469  -25.1628  -14.8965 C   0  0  0  0  0  0  0  0  0  0  0  0
   23.2957  -23.7208  -15.1934 C   0  0  2  0  0  0  0  0  0  0  0  0
   24.7834  -23.6263  -15.2319 N   0  0  0  0  0  0  0  0  0  0  0  0
   22.8608  -22.8766  -14.0709 C   0  0  0  0  0  0  0  0  0  0  0  0
   23.1175  -23.2324  -12.8950 O   0  0  0  0  0  0  0  0  0  0  0  0
   22.3067  -29.1397  -17.5252 O   0  0  0  0  0  0  0  0  0  0  0  0
   27.6216  -21.2959  -10.4149 C   0  0  0  0  0  0  0  0  0  0  0  0
   26.4342  -20.9191  -11.0372 C   0  0  0  0  0  0  0  0  0  0  0  0
   25.2564  -20.7649  -10.3404 C   0  0  0  0  0  0  0  0  0  0  0  0
   24.0718  -20.3878  -10.9664 C   0  0  0  0  0  0  0  0  0  0  0  0
   24.0454  -20.1541  -12.3280 C   0  0  0  0  0  0  0  0  0  0  0  0
   22.7798  -19.7664  -12.9461 C   0  0  2  0  0  0  0  0  0  0  0  0
   21.7590  -20.8802  -13.0525 N   0  0  0  0  0  0  0  0  0  0  0  0
   22.1582  -21.6535  -14.2232 C   0  0  0  0  0  0  0  0  0  0  0  0
   20.4187  -20.2909  -13.2598 O   0  0  0  0  0  0  0  0  0  0  0  0
   19.7181  -19.6675  -12.2512 C   0  0  0  0  0  0  0  0  0  0  0  0
   25.2245  -20.3065  -13.0371 C   0  0  0  0  0  0  0  0  0  0  0  0
   26.3951  -20.6824  -12.3985 O   0  0  0  0  0  0  0  0  0  0  0  0
  2  3  1  0
  2  1  1  6
  4  3  1  0
  5  4  1  0
  6  5  1  0
  7  6  1  0
  8  2  1  0
  8  9  2  0
 10 11  1  0
 11 12  2  0
 13 11  1  0
 13 14  1  0
 14 15  1  0
 15 16  1  0
 17 16  1  1
 17 18  1  0
 18  8  1  0
 19 17  1  0
 20 19  2  0
 22 21  1  0
 23 22  2  0
 24 23  1  0
 25 31  1  0
 25 24  2  0
 26 25  1  0
 27 28  1  0
 27 26  1  1
 28 19  1  0
 29 27  1  0
 30 29  1  0
 31 32  2  0
 32 22  1  0
 33 29  2  0
M  END
$$$$
