MSA.pdb
     RDKit          3D

 20 19  0  0  1  0  0  0  0  0999 V2000
   17.7971  -15.5204   13.2845 C   0  0  0  0  0  0  0  0  0  0  0  0
   16.3087  -15.4084   12.2407 S   0  0  0  0  0  0  0  0  0  0  0  0
   16.8078  -15.4655   10.5098 C   0  0  0  0  0  0  0  0  0  0  0  0
   18.1082  -16.2421   10.3636 C   0  0  0  0  0  0  0  0  0  0  0  0
   18.7740  -15.9424    9.0375 C   0  0  2  0  0  0  0  0  0  0  0  0
   18.0694  -16.6104    7.9805 N   0  0  0  0  0  0  0  0  0  0  0  0
   20.1843  -16.4086    9.1519 C   0  0  0  0  0  0  0  0  0  0  0  0
   20.4896  -17.5025    8.6255 O   0  0  0  0  0  0  0  0  0  0  0  0
   23.7372  -14.9875    8.2497 O   0  0  0  0  0  0  0  0  0  0  0  0
   23.5243  -15.0266    9.6190 C   0  0  0  0  0  0  0  0  0  0  0  0
   22.5648  -16.1459    9.9301 C   0  0  2  0  0  0  0  0  0  0  0  0
   21.1968  -15.6822    9.8234 N   0  0  0  0  0  0  0  0  0  0  0  0
   22.8847  -16.6737   11.2670 C   0  0  0  0  0  0  0  0  0  0  0  0
   22.3505  -16.1463   12.2767 O   0  0  0  0  0  0  0  0  0  0  0  0
   24.7132  -19.5804   12.8650 C   0  0  0  0  0  0  0  0  0  0  0  0
   24.0369  -18.2151   12.8756 C   0  0  2  0  0  0  0  0  0  0  0  0
   23.7713  -17.7589   11.5132 N   0  0  0  0  0  0  0  0  0  0  0  0
   24.8626  -17.2180   13.5543 C   0  0  0  0  0  0  0  0  0  0  0  0
   25.5834  -16.4420   12.9026 O   0  0  0  0  0  0  0  0  0  0  0  0
   24.8774  -17.0959   14.9377 O   0  0  0  0  0  0  0  0  0  0  0  0
  2  1  1  0
  3  4  1  0
  3  2  1  0
  5  4  1  0
  5  7  1  0
  5  6  1  6
  7  8  2  0
  9 10  1  0
 11 10  1  1
 11 13  1  0
 12 11  1  0
 12  7  1  0
 13 17  1  0
 13 14  2  0
 16 15  1  6
 16 18  1  0
 17 16  1  0
 18 19  2  0
 18 20  1  0
M  END
$$$$
