MSA.pdb
     RDKit          3D

 20 19  0  0  1  0  0  0  0  0999 V2000
   28.8568  -13.4459  -15.4992 C   0  0  0  0  0  0  0  0  0  0  0  0
   27.7854  -12.0414  -15.9431 S   0  0  0  0  0  0  0  0  0  0  0  0
   26.1081  -12.6490  -16.1990 C   0  0  0  0  0  0  0  0  0  0  0  0
   25.1578  -11.4842  -16.4346 C   0  0  0  0  0  0  0  0  0  0  0  0
   23.7321  -11.9687  -16.5895 C   0  0  2  0  0  0  0  0  0  0  0  0
   23.6340  -12.8249  -17.7374 N   0  0  0  0  0  0  0  0  0  0  0  0
   22.8797  -10.7541  -16.7230 C   0  0  0  0  0  0  0  0  0  0  0  0
   22.8320  -10.1852  -17.8370 O   0  0  0  0  0  0  0  0  0  0  0  0
   20.2864   -9.7991  -13.8077 O   0  0  0  0  0  0  0  0  0  0  0  0
   19.9914   -9.2279  -15.0360 C   0  0  0  0  0  0  0  0  0  0  0  0
   21.2726   -9.0451  -15.8076 C   0  0  2  0  0  0  0  0  0  0  0  0
   22.1217  -10.2090  -15.6590 N   0  0  0  0  0  0  0  0  0  0  0  0
   21.9197   -7.8055  -15.3464 C   0  0  0  0  0  0  0  0  0  0  0  0
   22.7089   -7.8550  -14.3679 O   0  0  0  0  0  0  0  0  0  0  0  0
   22.1525   -4.1372  -16.3090 C   0  0  0  0  0  0  0  0  0  0  0  0
   22.4154   -5.3479  -15.4220 C   0  0  2  0  0  0  0  0  0  0  0  0
   21.7182   -6.5254  -15.9339 N   0  0  0  0  0  0  0  0  0  0  0  0
   21.9823   -5.1040  -14.0474 C   0  0  0  0  0  0  0  0  0  0  0  0
   20.9121   -5.5772  -13.6264 O   0  0  0  0  0  0  0  0  0  0  0  0
   22.7372   -4.3432  -13.1641 O   0  0  0  0  0  0  0  0  0  0  0  0
  2  1  1  0
  3  4  1  0
  3  2  1  0
  5  4  1  0
  5  7  1  0
  5  6  1  6
  7  8  2  0
  9 10  1  0
 11 10  1  1
 11 13  1  0
 12 11  1  0
 12  7  1  0
 13 17  1  0
 13 14  2  0
 16 15  1  6
 16 18  1  0
 17 16  1  0
 18 19  2  0
 18 20  1  0
M  END
$$$$
