MSA.pdb
     RDKit          3D

 20 19  0  0  1  0  0  0  0  0999 V2000
   27.0996  -19.2696   -4.4476 C   0  0  0  0  0  0  0  0  0  0  0  0
   28.6862  -19.2846   -5.3419 S   0  0  0  0  0  0  0  0  0  0  0  0
   28.5618  -20.4325   -6.7257 C   0  0  0  0  0  0  0  0  0  0  0  0
   27.4088  -20.0351   -7.6357 C   0  0  0  0  0  0  0  0  0  0  0  0
   27.3035  -20.9718   -8.8202 C   0  0  2  0  0  0  0  0  0  0  0  0
   28.6099  -21.2138   -9.3633 N   0  0  0  0  0  0  0  0  0  0  0  0
   26.4006  -20.3146   -9.8063 C   0  0  0  0  0  0  0  0  0  0  0  0
   26.5072  -19.0786   -9.9729 O   0  0  0  0  0  0  0  0  0  0  0  0
   25.3275  -22.6417  -12.6445 O   0  0  0  0  0  0  0  0  0  0  0  0
   25.3578  -21.2953  -12.9732 C   0  0  0  0  0  0  0  0  0  0  0  0
   24.8658  -20.4958  -11.7946 C   0  0  2  0  0  0  0  0  0  0  0  0
   25.4293  -21.0118  -10.5641 N   0  0  0  0  0  0  0  0  0  0  0  0
   23.3936  -20.5181  -11.8002 C   0  0  0  0  0  0  0  0  0  0  0  0
   22.7906  -21.2885  -11.0090 O   0  0  0  0  0  0  0  0  0  0  0  0
   20.4740  -18.8066  -13.5264 C   0  0  0  0  0  0  0  0  0  0  0  0
   21.1277  -19.8820  -12.6675 C   0  0  2  0  0  0  0  0  0  0  0  0
   22.5794  -19.7183  -12.6498 N   0  0  0  0  0  0  0  0  0  0  0  0
   20.8102  -21.2214  -13.1595 C   0  0  0  0  0  0  0  0  0  0  0  0
   21.5992  -21.8258  -13.9068 O   0  0  0  0  0  0  0  0  0  0  0  0
   19.6293  -21.8678  -12.8181 O   0  0  0  0  0  0  0  0  0  0  0  0
  2  1  1  0
  3  4  1  0
  3  2  1  0
  5  4  1  0
  5  7  1  0
  5  6  1  6
  7  8  2  0
  9 10  1  0
 11 10  1  6
 11 13  1  0
 12 11  1  0
 12  7  1  0
 13 17  1  0
 13 14  2  0
 16 15  1  6
 16 18  1  0
 17 16  1  0
 18 19  2  0
 18 20  1  0
M  END
$$$$
