MSA.pdb
     RDKit          3D

 20 19  0  0  1  0  0  0  0  0999 V2000
   29.2300  -10.8302  -16.5067 C   0  0  0  0  0  0  0  0  0  0  0  0
   27.7457   -9.8567  -16.9152 S   0  0  0  0  0  0  0  0  0  0  0  0
   26.2993  -10.6914  -16.2374 C   0  0  0  0  0  0  0  0  0  0  0  0
   25.0338   -9.9302  -16.6040 C   0  0  0  0  0  0  0  0  0  0  0  0
   23.8001  -10.6620  -16.1203 C   0  0  2  0  0  0  0  0  0  0  0  0
   23.6979  -11.9300  -16.7851 N   0  0  0  0  0  0  0  0  0  0  0  0
   22.6363   -9.7800  -16.4157 C   0  0  0  0  0  0  0  0  0  0  0  0
   22.0238   -9.9512  -17.4939 O   0  0  0  0  0  0  0  0  0  0  0  0
   19.6980   -9.0211  -14.2240 O   0  0  0  0  0  0  0  0  0  0  0  0
   20.1829   -7.7755  -14.5916 C   0  0  0  0  0  0  0  0  0  0  0  0
   21.0333   -7.9296  -15.8259 C   0  0  2  0  0  0  0  0  0  0  0  0
   22.1863   -8.7597  -15.5439 N   0  0  0  0  0  0  0  0  0  0  0  0
   21.4016   -6.5876  -16.3067 C   0  0  0  0  0  0  0  0  0  0  0  0
   22.3519   -5.9782  -15.7511 O   0  0  0  0  0  0  0  0  0  0  0  0
   20.4647   -4.1417  -19.0567 C   0  0  0  0  0  0  0  0  0  0  0  0
   21.1710   -4.5676  -17.7756 C   0  0  2  0  0  0  0  0  0  0  0  0
   20.7523   -5.9090  -17.3755 N   0  0  0  0  0  0  0  0  0  0  0  0
   20.8915   -3.6402  -16.6808 C   0  0  0  0  0  0  0  0  0  0  0  0
   21.4754   -2.5443  -16.6136 O   0  0  0  0  0  0  0  0  0  0  0  0
   19.9741   -3.9391  -15.6818 O   0  0  0  0  0  0  0  0  0  0  0  0
  2  1  1  0
  3  4  1  0
  3  2  1  0
  5  4  1  0
  5  7  1  0
  5  6  1  6
  7  8  2  0
  9 10  1  0
 11 10  1  1
 11 13  1  0
 12 11  1  0
 12  7  1  0
 13 17  1  0
 13 14  2  0
 16 15  1  6
 16 18  1  0
 17 16  1  0
 18 19  2  0
 18 20  1  0
M  END
$$$$
