MSA.pdb
     RDKit          3D

 20 19  0  0  1  0  0  0  0  0999 V2000
   27.0922  -14.8671  -15.0533 C   0  0  0  0  0  0  0  0  0  0  0  0
   25.2942  -15.0631  -15.2689 S   0  0  0  0  0  0  0  0  0  0  0  0
   24.9019  -14.9302  -17.0229 C   0  0  0  0  0  0  0  0  0  0  0  0
   24.6625  -13.4753  -17.3987 C   0  0  0  0  0  0  0  0  0  0  0  0
   23.4229  -12.9351  -16.7182 C   0  0  2  0  0  0  0  0  0  0  0  0
   22.2614  -13.6132  -17.2193 N   0  0  0  0  0  0  0  0  0  0  0  0
   23.3826  -11.4729  -17.0009 C   0  0  0  0  0  0  0  0  0  0  0  0
   24.4111  -10.7978  -16.7702 O   0  0  0  0  0  0  0  0  0  0  0  0
   21.2897   -7.6284  -18.9795 O   0  0  0  0  0  0  0  0  0  0  0  0
   21.2352   -8.9996  -18.7827 C   0  0  0  0  0  0  0  0  0  0  0  0
   22.1682   -9.3670  -17.6580 C   0  0  2  0  0  0  0  0  0  0  0  0
   22.2448  -10.8063  -17.5157 N   0  0  0  0  0  0  0  0  0  0  0  0
   21.7037   -8.6973  -16.4317 C   0  0  0  0  0  0  0  0  0  0  0  0
   20.8605   -9.2774  -15.6999 O   0  0  0  0  0  0  0  0  0  0  0  0
   22.3674   -5.5483  -14.4185 C   0  0  0  0  0  0  0  0  0  0  0  0
   21.5792   -6.7944  -14.8023 C   0  0  2  0  0  0  0  0  0  0  0  0
   22.1434   -7.4154  -15.9985 N   0  0  0  0  0  0  0  0  0  0  0  0
   20.1742   -6.4787  -15.0530 C   0  0  0  0  0  0  0  0  0  0  0  0
   19.7477   -6.3645  -16.2155 O   0  0  0  0  0  0  0  0  0  0  0  0
   19.2671   -6.2950  -14.0174 O   0  0  0  0  0  0  0  0  0  0  0  0
  2  1  1  0
  3  4  1  0
  3  2  1  0
  5  4  1  0
  5  7  1  0
  5  6  1  6
  7  8  2  0
  9 10  1  0
 11 10  1  6
 11 13  1  0
 12 11  1  0
 12  7  1  0
 13 17  1  0
 13 14  2  0
 16 15  1  6
 16 18  1  0
 17 16  1  0
 18 19  2  0
 18 20  1  0
M  END
$$$$
