MSA.pdb
     RDKit          3D

 20 19  0  0  1  0  0  0  0  0999 V2000
   26.5739  -17.4233  -14.3613 C   0  0  0  0  0  0  0  0  0  0  0  0
   25.3844  -16.1357  -14.8561 S   0  0  0  0  0  0  0  0  0  0  0  0
   26.1928  -15.0105  -16.0087 C   0  0  0  0  0  0  0  0  0  0  0  0
   25.2443  -13.8858  -16.3971 C   0  0  0  0  0  0  0  0  0  0  0  0
   23.8536  -14.4175  -16.6700 C   0  0  2  0  0  0  0  0  0  0  0  0
   23.8945  -15.3366  -17.7718 N   0  0  0  0  0  0  0  0  0  0  0  0
   22.9930  -13.2362  -16.9586 C   0  0  0  0  0  0  0  0  0  0  0  0
   23.3598  -12.4426  -17.8544 O   0  0  0  0  0  0  0  0  0  0  0  0
   19.5489  -12.6189  -14.8579 O   0  0  0  0  0  0  0  0  0  0  0  0
   19.5112  -12.1213  -16.1513 C   0  0  0  0  0  0  0  0  0  0  0  0
   20.9208  -11.8487  -16.6086 C   0  0  2  0  0  0  0  0  0  0  0  0
   21.7840  -12.9628  -16.2749 N   0  0  0  0  0  0  0  0  0  0  0  0
   21.3677  -10.5816  -16.0062 C   0  0  0  0  0  0  0  0  0  0  0  0
   21.8711  -10.5965  -14.8533 O   0  0  0  0  0  0  0  0  0  0  0  0
   21.8070   -6.9346  -16.9544 C   0  0  0  0  0  0  0  0  0  0  0  0
   21.7706   -8.1061  -15.9808 C   0  0  2  0  0  0  0  0  0  0  0  0
   21.2730   -9.3113  -16.6400 N   0  0  0  0  0  0  0  0  0  0  0  0
   20.9201   -7.8136  -14.8285 C   0  0  0  0  0  0  0  0  0  0  0  0
   19.7821   -8.3068  -14.7391 O   0  0  0  0  0  0  0  0  0  0  0  0
   21.3409   -6.9832  -13.7978 O   0  0  0  0  0  0  0  0  0  0  0  0
  2  1  1  0
  3  4  1  0
  3  2  1  0
  5  4  1  0
  5  7  1  0
  5  6  1  6
  7  8  2  0
  9 10  1  0
 11 10  1  1
 11 13  1  0
 12 11  1  0
 12  7  1  0
 13 17  1  0
 13 14  2  0
 16 15  1  6
 16 18  1  0
 17 16  1  0
 18 19  2  0
 18 20  1  0
M  END
$$$$
