MSA.pdb
     RDKit          3D

 20 19  0  0  1  0  0  0  0  0999 V2000
   14.1512   -7.9348  -17.4061 C   0  0  0  0  0  0  0  0  0  0  0  0
   15.2786   -8.3050  -18.7879 S   0  0  0  0  0  0  0  0  0  0  0  0
   16.7353   -9.1452  -18.1397 C   0  0  0  0  0  0  0  0  0  0  0  0
   17.0136   -8.6899  -16.7147 C   0  0  0  0  0  0  0  0  0  0  0  0
   18.2427   -9.3743  -16.1558 C   0  0  2  0  0  0  0  0  0  0  0  0
   17.8822  -10.6581  -15.6245 N   0  0  0  0  0  0  0  0  0  0  0  0
   18.7963   -8.4708  -15.1085 C   0  0  0  0  0  0  0  0  0  0  0  0
   18.2067   -8.4133  -14.0058 O   0  0  0  0  0  0  0  0  0  0  0  0
   21.8380   -8.2045  -13.0577 O   0  0  0  0  0  0  0  0  0  0  0  0
   21.8635   -7.1103  -13.9085 C   0  0  0  0  0  0  0  0  0  0  0  0
   20.4490   -6.7568  -14.2886 C   0  0  2  0  0  0  0  0  0  0  0  0
   19.9519   -7.6744  -15.2929 N   0  0  0  0  0  0  0  0  0  0  0  0
   20.4252   -5.3544  -14.7369 C   0  0  0  0  0  0  0  0  0  0  0  0
   20.8712   -5.0695  -15.8783 O   0  0  0  0  0  0  0  0  0  0  0  0
   18.9549   -2.0274  -13.7168 C   0  0  0  0  0  0  0  0  0  0  0  0
   19.9262   -2.9085  -14.4926 C   0  0  2  0  0  0  0  0  0  0  0  0
   19.9257   -4.2701  -13.9628 N   0  0  0  0  0  0  0  0  0  0  0  0
   21.2877   -2.3798  -14.4328 C   0  0  0  0  0  0  0  0  0  0  0  0
   22.1239   -2.8686  -13.6530 O   0  0  0  0  0  0  0  0  0  0  0  0
   21.7003   -1.3228  -15.2336 O   0  0  0  0  0  0  0  0  0  0  0  0
  2  1  1  0
  3  4  1  0
  3  2  1  0
  5  4  1  0
  5  7  1  0
  5  6  1  1
  7  8  2  0
  9 10  1  0
 11 10  1  6
 11 13  1  0
 12 11  1  0
 12  7  1  0
 13 17  1  0
 13 14  2  0
 16 15  1  1
 16 18  1  0
 17 16  1  0
 18 19  2  0
 18 20  1  0
M  END
$$$$
