CSK.pdb
     RDKit          3D

 22 21  0  0  1  0  0  0  0  0999 V2000
    7.7958  -18.8546   17.7423 N   0  0  0  0  0  0  0  0  0  0  0  0
    7.1345  -17.9844   18.6897 C   0  0  1  0  0  0  0  0  0  0  0  0
    6.3077  -18.8262   19.6110 C   0  0  0  0  0  0  0  0  0  0  0  0
    7.3637  -19.8257   20.6945 S   0  0  0  0  0  0  0  0  0  0  0  0
    8.1626  -17.1891   19.3955 C   0  0  0  0  0  0  0  0  0  0  0  0
    9.3851  -17.4685   19.2967 O   0  0  0  0  0  0  0  0  0  0  0  0
    7.2386  -14.3979   22.3823 O   0  0  0  0  0  0  0  0  0  0  0  0
    8.1952  -14.0382   21.4316 C   0  0  0  0  0  0  0  0  0  0  0  0
    8.8340  -15.2885   20.9352 C   0  0  2  0  0  0  0  0  0  0  0  0
    7.8419  -16.0698   20.2228 N   0  0  0  0  0  0  0  0  0  0  0  0
    9.5174  -16.0831   21.9826 C   0  0  0  0  0  0  0  0  0  0  0  0
    8.8216  -16.9238   22.6107 O   0  0  0  0  0  0  0  0  0  0  0  0
   10.8723  -15.9633   22.3175 N   0  0  0  0  0  0  0  0  0  0  0  0
   11.5499  -16.7492   23.3615 C   0  0  1  0  0  0  0  0  0  0  0  0
   11.8250  -18.1346   22.9113 C   0  0  0  0  0  0  0  0  0  0  0  0
   12.4113  -19.0774   23.8837 C   0  0  0  0  0  0  0  0  0  0  0  0
   12.7969  -20.4277   23.4171 C   0  0  0  0  0  0  0  0  0  0  0  0
   13.4429  -21.3027   24.4557 C   0  0  0  0  0  0  0  0  0  0  0  0
   13.8176  -22.5992   23.9082 N   0  0  0  0  0  0  0  0  0  0  0  0
   12.6152  -16.0029   24.0093 C   0  0  0  0  0  0  0  0  0  0  0  0
   13.3424  -15.1507   23.3906 O   0  0  0  0  0  0  0  0  0  0  0  0
   12.9327  -16.1465   25.3514 O   0  0  0  0  0  0  0  0  0  0  0  0
  2  1  1  6
  2  5  1  0
  2  3  1  0
  3  4  1  0
  5 10  1  0
  6  5  2  0
  9  8  1  1
  8  7  1  0
  9 11  1  0
 10  9  1  0
 11 12  2  0
 11 13  1  0
 13 14  1  0
 14 20  1  0
 14 15  1  6
 15 16  1  0
 16 17  1  0
 18 19  1  0
 18 17  1  0
 20 22  1  0
 21 20  2  0
M  END
$$$$
