CSK.pdb
     RDKit          3D

 22 21  0  0  1  0  0  0  0  0999 V2000
    8.4597  -14.8381   17.1901 N   0  0  0  0  0  0  0  0  0  0  0  0
    9.3127  -13.9850   17.9880 C   0  0  1  0  0  0  0  0  0  0  0  0
    8.5147  -13.4595   19.1404 C   0  0  0  0  0  0  0  0  0  0  0  0
    7.1613  -12.4017   18.5596 S   0  0  0  0  0  0  0  0  0  0  0  0
   10.4968  -14.7648   18.4092 C   0  0  0  0  0  0  0  0  0  0  0  0
   10.4793  -16.0226   18.4206 O   0  0  0  0  0  0  0  0  0  0  0  0
   15.1952  -15.0653   18.6571 O   0  0  0  0  0  0  0  0  0  0  0  0
   14.0809  -14.2455   18.4719 C   0  0  0  0  0  0  0  0  0  0  0  0
   12.9216  -14.8973   19.1418 C   0  0  2  0  0  0  0  0  0  0  0  0
   11.7186  -14.1526   18.8246 N   0  0  0  0  0  0  0  0  0  0  0  0
   13.0870  -15.0870   20.6020 C   0  0  0  0  0  0  0  0  0  0  0  0
   12.8724  -14.0884   21.3383 O   0  0  0  0  0  0  0  0  0  0  0  0
   13.4620  -16.2908   21.2123 N   0  0  0  0  0  0  0  0  0  0  0  0
   13.6452  -16.4739   22.6613 C   0  0  1  0  0  0  0  0  0  0  0  0
   13.0598  -17.7529   23.1294 C   0  0  0  0  0  0  0  0  0  0  0  0
   12.8558  -17.9338   24.5799 C   0  0  0  0  0  0  0  0  0  0  0  0
   12.3955  -19.2513   25.0716 C   0  0  0  0  0  0  0  0  0  0  0  0
   12.3918  -19.4098   26.5671 C   0  0  0  0  0  0  0  0  0  0  0  0
   11.8555  -20.7029   26.9689 N   0  0  0  0  0  0  0  0  0  0  0  0
   14.9860  -16.1211   23.0964 C   0  0  0  0  0  0  0  0  0  0  0  0
   15.2771  -15.8703   24.3172 O   0  0  0  0  0  0  0  0  0  0  0  0
   16.0642  -16.0297   22.2293 O   0  0  0  0  0  0  0  0  0  0  0  0
  2  1  1  6
  2  5  1  0
  2  3  1  0
  3  4  1  0
  5 10  1  0
  6  5  2  0
  9  8  1  1
  8  7  1  0
  9 11  1  0
 10  9  1  0
 11 12  2  0
 11 13  1  0
 13 14  1  0
 14 20  1  0
 14 15  1  6
 15 16  1  0
 16 17  1  0
 18 19  1  0
 18 17  1  0
 20 22  1  0
 21 20  2  0
M  END
$$$$
