CSK.pdb
     RDKit          3D

 22 21  0  0  1  0  0  0  0  0999 V2000
    9.2268  -16.6671   18.0722 N   0  0  0  0  0  0  0  0  0  0  0  0
    8.2257  -16.1541   18.9813 C   0  0  1  0  0  0  0  0  0  0  0  0
    7.1766  -17.2044   19.1744 C   0  0  0  0  0  0  0  0  0  0  0  0
    7.7322  -18.8004   18.5172 S   0  0  0  0  0  0  0  0  0  0  0  0
    8.8920  -15.7603   20.2418 C   0  0  0  0  0  0  0  0  0  0  0  0
   10.1278  -15.9279   20.4063 O   0  0  0  0  0  0  0  0  0  0  0  0
    6.7374  -14.6216   23.6506 O   0  0  0  0  0  0  0  0  0  0  0  0
    7.9136  -13.9288   23.3599 C   0  0  0  0  0  0  0  0  0  0  0  0
    8.8093  -14.8509   22.6082 C   0  0  2  0  0  0  0  0  0  0  0  0
    8.1890  -15.1737   21.3380 N   0  0  0  0  0  0  0  0  0  0  0  0
    9.2025  -16.0671   23.3578 C   0  0  0  0  0  0  0  0  0  0  0  0
    8.5399  -17.1152   23.1391 O   0  0  0  0  0  0  0  0  0  0  0  0
   10.2516  -16.1287   24.2840 N   0  0  0  0  0  0  0  0  0  0  0  0
   10.6070  -17.3220   25.0691 C   0  0  1  0  0  0  0  0  0  0  0  0
   11.8020  -18.0040   24.5173 C   0  0  0  0  0  0  0  0  0  0  0  0
   12.2956  -19.2098   25.2105 C   0  0  0  0  0  0  0  0  0  0  0  0
   13.5029  -19.8847   24.6848 C   0  0  0  0  0  0  0  0  0  0  0  0
   13.9244  -21.1174   25.4361 C   0  0  0  0  0  0  0  0  0  0  0  0
   15.1859  -21.6463   24.9359 N   0  0  0  0  0  0  0  0  0  0  0  0
   10.5422  -17.0796   26.5004 C   0  0  0  0  0  0  0  0  0  0  0  0
   10.4796  -15.9048   27.0043 O   0  0  0  0  0  0  0  0  0  0  0  0
   10.5388  -18.0979   27.4416 O   0  0  0  0  0  0  0  0  0  0  0  0
  2  1  1  6
  2  5  1  0
  2  3  1  0
  3  4  1  0
  5 10  1  0
  6  5  2  0
  9  8  1  1
  8  7  1  0
  9 11  1  0
 10  9  1  0
 11 12  2  0
 11 13  1  0
 13 14  1  0
 14 20  1  0
 14 15  1  6
 15 16  1  0
 16 17  1  0
 18 19  1  0
 18 17  1  0
 20 22  1  0
 21 20  2  0
M  END
$$$$
