CSK.pdb
     RDKit          3D

 22 21  0  0  1  0  0  0  0  0999 V2000
    7.8151  -14.4735   17.7694 N   0  0  0  0  0  0  0  0  0  0  0  0
    8.6285  -14.1348   18.9165 C   0  0  1  0  0  0  0  0  0  0  0  0
    8.1886  -12.8006   19.4334 C   0  0  0  0  0  0  0  0  0  0  0  0
    9.1201  -11.4619   18.6407 S   0  0  0  0  0  0  0  0  0  0  0  0
    8.5031  -15.2158   19.9182 C   0  0  0  0  0  0  0  0  0  0  0  0
    7.4069  -15.8016   20.1119 O   0  0  0  0  0  0  0  0  0  0  0  0
   10.2111  -18.8013   22.3710 O   0  0  0  0  0  0  0  0  0  0  0  0
   10.3562  -17.8278   21.3813 C   0  0  0  0  0  0  0  0  0  0  0  0
    9.4830  -16.6775   21.7449 C   0  0  2  0  0  0  0  0  0  0  0  0
    9.5993  -15.6593   20.7192 N   0  0  0  0  0  0  0  0  0  0  0  0
    9.7268  -16.1296   23.0998 C   0  0  0  0  0  0  0  0  0  0  0  0
   10.7868  -15.4718   23.2707 O   0  0  0  0  0  0  0  0  0  0  0  0
    8.8656  -16.2923   24.1927 N   0  0  0  0  0  0  0  0  0  0  0  0
    9.0897  -15.7167   25.5287 C   0  0  1  0  0  0  0  0  0  0  0  0
    7.8608  -15.0845   26.0652 C   0  0  0  0  0  0  0  0  0  0  0  0
    7.6310  -13.6558   25.7751 C   0  0  0  0  0  0  0  0  0  0  0  0
    6.3875  -13.0238   26.2687 C   0  0  0  0  0  0  0  0  0  0  0  0
    6.2393  -11.5633   25.9417 C   0  0  0  0  0  0  0  0  0  0  0  0
    5.0516  -10.9920   26.5614 N   0  0  0  0  0  0  0  0  0  0  0  0
    9.8493  -16.6055   26.3916 C   0  0  0  0  0  0  0  0  0  0  0  0
   10.2663  -16.2597   27.5511 O   0  0  0  0  0  0  0  0  0  0  0  0
   10.1838  -17.9032   26.0358 O   0  0  0  0  0  0  0  0  0  0  0  0
  2  1  1  6
  2  5  1  0
  2  3  1  0
  3  4  1  0
  5 10  1  0
  6  5  2  0
  9  8  1  6
  8  7  1  0
  9 11  1  0
 10  9  1  0
 11 12  2  0
 11 13  1  0
 13 14  1  0
 14 20  1  0
 14 15  1  1
 15 16  1  0
 16 17  1  0
 18 19  1  0
 18 17  1  0
 20 22  1  0
 21 20  2  0
M  END
$$$$
