CSK.pdb
     RDKit          3D

 22 21  0  0  1  0  0  0  0  0999 V2000
    7.4603  -14.3165   17.8175 N   0  0  0  0  0  0  0  0  0  0  0  0
    8.5302  -14.0448   18.7521 C   0  0  1  0  0  0  0  0  0  0  0  0
    8.0363  -13.0610   19.7666 C   0  0  0  0  0  0  0  0  0  0  0  0
    8.0895  -11.3725   19.1077 S   0  0  0  0  0  0  0  0  0  0  0  0
    8.9692  -15.3245   19.3500 C   0  0  0  0  0  0  0  0  0  0  0  0
    8.1364  -16.1610   19.7849 O   0  0  0  0  0  0  0  0  0  0  0  0
   12.7378  -16.9304   18.7273 O   0  0  0  0  0  0  0  0  0  0  0  0
   11.5807  -17.6728   18.9683 C   0  0  0  0  0  0  0  0  0  0  0  0
   10.7926  -16.9592   20.0110 C   0  0  2  0  0  0  0  0  0  0  0  0
   10.3446  -15.6899   19.4719 N   0  0  0  0  0  0  0  0  0  0  0  0
   11.4975  -16.7943   21.3038 C   0  0  0  0  0  0  0  0  0  0  0  0
   12.2252  -15.7750   21.4347 O   0  0  0  0  0  0  0  0  0  0  0  0
   11.4096  -17.6871   22.3796 N   0  0  0  0  0  0  0  0  0  0  0  0
   12.1869  -17.5775   23.6248 C   0  0  1  0  0  0  0  0  0  0  0  0
   11.7341  -18.5579   24.6404 C   0  0  0  0  0  0  0  0  0  0  0  0
   12.4358  -18.5878   25.9384 C   0  0  0  0  0  0  0  0  0  0  0  0
   11.9529  -19.5173   26.9836 C   0  0  0  0  0  0  0  0  0  0  0  0
   12.6449  -19.3990   28.3136 C   0  0  0  0  0  0  0  0  0  0  0  0
   12.0654  -20.2977   29.3023 N   0  0  0  0  0  0  0  0  0  0  0  0
   13.6119  -17.4414   23.3750 C   0  0  0  0  0  0  0  0  0  0  0  0
   14.2567  -18.2172   22.5874 O   0  0  0  0  0  0  0  0  0  0  0  0
   14.3935  -16.4591   23.9639 O   0  0  0  0  0  0  0  0  0  0  0  0
  2  1  1  6
  2  5  1  0
  2  3  1  0
  3  4  1  0
  5 10  1  0
  6  5  2  0
  9  8  1  6
  8  7  1  0
  9 11  1  0
 10  9  1  0
 11 12  2  0
 11 13  1  0
 13 14  1  0
 14 20  1  0
 14 15  1  1
 15 16  1  0
 16 17  1  0
 18 19  1  0
 18 17  1  0
 20 22  1  0
 21 20  2  0
M  END
$$$$
