CSK.pdb
     RDKit          3D

 22 21  0  0  1  0  0  0  0  0999 V2000
    7.7503  -15.2598   18.1411 N   0  0  0  0  0  0  0  0  0  0  0  0
    8.1250  -14.5638   19.3524 C   0  0  1  0  0  0  0  0  0  0  0  0
    7.5156  -13.1968   19.3226 C   0  0  0  0  0  0  0  0  0  0  0  0
    8.5028  -12.0719   18.2988 S   0  0  0  0  0  0  0  0  0  0  0  0
    7.6872  -15.3696   20.5129 C   0  0  0  0  0  0  0  0  0  0  0  0
    6.7128  -16.1606   20.4275 O   0  0  0  0  0  0  0  0  0  0  0  0
    8.1788  -18.4783   23.4809 O   0  0  0  0  0  0  0  0  0  0  0  0
    8.3546  -17.6151   22.3982 C   0  0  0  0  0  0  0  0  0  0  0  0
    8.0632  -16.2325   22.8683 C   0  0  2  0  0  0  0  0  0  0  0  0
    8.3302  -15.3045   21.7867 N   0  0  0  0  0  0  0  0  0  0  0  0
    8.7680  -15.8492   24.1139 C   0  0  0  0  0  0  0  0  0  0  0  0
    9.9869  -15.5491   24.0145 O   0  0  0  0  0  0  0  0  0  0  0  0
    8.1754  -15.7983   25.3822 N   0  0  0  0  0  0  0  0  0  0  0  0
    8.7810  -15.1651   26.5650 C   0  0  1  0  0  0  0  0  0  0  0  0
    7.8217  -14.2738   27.2599 C   0  0  0  0  0  0  0  0  0  0  0  0
    7.4101  -13.0307   26.5791 C   0  0  0  0  0  0  0  0  0  0  0  0
    6.4153  -12.1572   27.2400 C   0  0  0  0  0  0  0  0  0  0  0  0
    6.1467  -10.8523   26.5423 C   0  0  0  0  0  0  0  0  0  0  0  0
    5.1200  -10.0786   27.2267 N   0  0  0  0  0  0  0  0  0  0  0  0
    9.5577  -16.1044   27.3563 C   0  0  0  0  0  0  0  0  0  0  0  0
   10.2808  -15.7453   28.3492 O   0  0  0  0  0  0  0  0  0  0  0  0
    9.5792  -17.4683   27.1070 O   0  0  0  0  0  0  0  0  0  0  0  0
  2  1  1  6
  2  5  1  0
  2  3  1  0
  3  4  1  0
  5 10  1  0
  6  5  2  0
  9  8  1  6
  8  7  1  0
  9 11  1  0
 10  9  1  0
 11 12  2  0
 11 13  1  0
 13 14  1  0
 14 20  1  0
 14 15  1  1
 15 16  1  0
 16 17  1  0
 18 19  1  0
 18 17  1  0
 20 22  1  0
 21 20  2  0
M  END
$$$$
