CSK.pdb
     RDKit          3D

 22 21  0  0  1  0  0  0  0  0999 V2000
    8.7307  -17.2558   12.8709 N   0  0  0  0  0  0  0  0  0  0  0  0
    7.7177  -17.8010   13.7477 C   0  0  1  0  0  0  0  0  0  0  0  0
    7.3251  -19.1524   13.2374 C   0  0  0  0  0  0  0  0  0  0  0  0
    6.4315  -19.0146   11.6657 S   0  0  0  0  0  0  0  0  0  0  0  0
    8.2557  -17.8341   15.1251 C   0  0  0  0  0  0  0  0  0  0  0  0
    9.4837  -17.6798   15.3497 O   0  0  0  0  0  0  0  0  0  0  0  0
    5.8431  -18.6595   18.4435 O   0  0  0  0  0  0  0  0  0  0  0  0
    6.8027  -17.6512   18.5462 C   0  0  0  0  0  0  0  0  0  0  0  0
    7.9274  -18.0007   17.6348 C   0  0  2  0  0  0  0  0  0  0  0  0
    7.4310  -18.0402   16.2730 N   0  0  0  0  0  0  0  0  0  0  0  0
    8.6455  -19.2445   17.9991 C   0  0  0  0  0  0  0  0  0  0  0  0
    8.3579  -20.2843   17.3499 O   0  0  0  0  0  0  0  0  0  0  0  0
    9.6134  -19.3404   19.0072 N   0  0  0  0  0  0  0  0  0  0  0  0
   10.3500  -20.5685   19.3471 C   0  0  1  0  0  0  0  0  0  0  0  0
   11.6290  -20.2672   20.0336 C   0  0  0  0  0  0  0  0  0  0  0  0
   12.5052  -21.3976   20.3976 C   0  0  0  0  0  0  0  0  0  0  0  0
   13.7864  -21.1098   21.0795 C   0  0  0  0  0  0  0  0  0  0  0  0
   14.6872  -22.2979   21.2758 C   0  0  0  0  0  0  0  0  0  0  0  0
   15.9207  -21.9301   21.9572 N   0  0  0  0  0  0  0  0  0  0  0  0
    9.4847  -21.5937   19.9055 C   0  0  0  0  0  0  0  0  0  0  0  0
    8.4695  -21.3238   20.6365 O   0  0  0  0  0  0  0  0  0  0  0  0
    9.6813  -22.9496   19.6918 O   0  0  0  0  0  0  0  0  0  0  0  0
  2  1  1  6
  2  5  1  0
  2  3  1  0
  3  4  1  0
  5 10  1  0
  6  5  2  0
  9  8  1  1
  8  7  1  0
  9 11  1  0
 10  9  1  0
 11 12  2  0
 11 13  1  0
 13 14  1  0
 14 20  1  0
 14 15  1  1
 15 16  1  0
 16 17  1  0
 18 19  1  0
 18 17  1  0
 20 22  1  0
 21 20  2  0
M  END
$$$$
