CSK.pdb
     RDKit          3D

 22 21  0  0  1  0  0  0  0  0999 V2000
    8.3077  -14.1756   17.2512 N   0  0  0  0  0  0  0  0  0  0  0  0
    9.3206  -13.5388   18.0639 C   0  0  1  0  0  0  0  0  0  0  0  0
    8.6403  -12.7469   19.1367 C   0  0  0  0  0  0  0  0  0  0  0  0
    7.6615  -11.3984   18.4215 S   0  0  0  0  0  0  0  0  0  0  0  0
   10.2221  -14.5836   18.5965 C   0  0  0  0  0  0  0  0  0  0  0  0
    9.7945  -15.7325   18.8785 O   0  0  0  0  0  0  0  0  0  0  0  0
   14.3630  -14.2105   18.4052 O   0  0  0  0  0  0  0  0  0  0  0  0
   13.6857  -15.4244   18.2792 C   0  0  0  0  0  0  0  0  0  0  0  0
   12.5378  -15.4042   19.2276 C   0  0  2  0  0  0  0  0  0  0  0  0
   11.6148  -14.3617   18.8229 N   0  0  0  0  0  0  0  0  0  0  0  0
   12.9244  -15.2794   20.6525 C   0  0  0  0  0  0  0  0  0  0  0  0
   13.3304  -14.1524   21.0404 O   0  0  0  0  0  0  0  0  0  0  0  0
   12.8689  -16.3207   21.5880 N   0  0  0  0  0  0  0  0  0  0  0  0
   13.4389  -16.2600   22.9437 C   0  0  1  0  0  0  0  0  0  0  0  0
   12.8954  -17.3299   23.8141 C   0  0  0  0  0  0  0  0  0  0  0  0
   13.4115  -17.4330   25.1929 C   0  0  0  0  0  0  0  0  0  0  0  0
   12.9838  -18.5789   26.0256 C   0  0  0  0  0  0  0  0  0  0  0  0
   13.4671  -18.5501   27.4494 C   0  0  0  0  0  0  0  0  0  0  0  0
   12.9569  -19.6807   28.2128 N   0  0  0  0  0  0  0  0  0  0  0  0
   14.8747  -16.0368   22.9286 C   0  0  0  0  0  0  0  0  0  0  0  0
   15.6502  -16.5597   22.0550 O   0  0  0  0  0  0  0  0  0  0  0  0
   15.5266  -15.2368   23.8547 O   0  0  0  0  0  0  0  0  0  0  0  0
  2  1  1  1
  2  5  1  0
  2  3  1  0
  3  4  1  0
  5 10  1  0
  6  5  2  0
  9  8  1  6
  8  7  1  0
  9 11  1  0
 10  9  1  0
 11 12  2  0
 11 13  1  0
 13 14  1  0
 14 20  1  0
 14 15  1  6
 15 16  1  0
 16 17  1  0
 18 19  1  0
 18 17  1  0
 20 22  1  0
 21 20  2  0
M  END
$$$$
