IQK.pdb
     RDKit          3D

 27 26  0  0  1  0  0  0  0  0999 V2000
    8.9883  -11.9536   26.1236 C   0  0  0  0  0  0  0  0  0  0  0  0
    7.9137  -12.9903   26.3527 C   0  0  0  0  0  0  0  0  0  0  0  0
    7.1334  -13.3061   25.0957 C   0  0  2  0  0  0  0  0  0  0  0  0
    6.2978  -12.0762   24.7066 C   0  0  0  0  0  0  0  0  0  0  0  0
    6.1733  -14.4010   25.3629 C   0  0  2  0  0  0  0  0  0  0  0  0
    5.2444  -13.9997   26.4190 N   0  0  0  0  0  0  0  0  0  0  0  0
    6.7098  -15.7225   25.6410 C   0  0  0  0  0  0  0  0  0  0  0  0
    6.9617  -16.0294   26.8346 O   0  0  0  0  0  0  0  0  0  0  0  0
    5.1093  -21.1584   24.2216 N   0  0  0  0  0  0  0  0  0  0  0  0
    5.4606  -20.4388   23.0413 C   0  0  0  0  0  0  0  0  0  0  0  0
    5.0064  -20.8394   21.9473 O   0  0  0  0  0  0  0  0  0  0  0  0
    6.3593  -19.2320   23.1481 C   0  0  0  0  0  0  0  0  0  0  0  0
    6.6601  -19.0523   24.5921 C   0  0  0  0  0  0  0  0  0  0  0  0
    7.6161  -17.9713   24.9479 C   0  0  2  0  0  0  0  0  0  0  0  0
    6.9781  -16.7144   24.6701 N   0  0  0  0  0  0  0  0  0  0  0  0
    8.9656  -18.0984   24.3863 C   0  0  0  0  0  0  0  0  0  0  0  0
    9.5833  -19.2124   24.4995 O   0  0  0  0  0  0  0  0  0  0  0  0
    9.6312  -17.0506   23.7201 N   0  0  0  0  0  0  0  0  0  0  0  0
   10.9721  -17.2768   23.0582 C   0  0  1  0  0  0  0  0  0  0  0  0
   10.8876  -16.7191   21.7099 C   0  0  0  0  0  0  0  0  0  0  0  0
    9.7770  -16.9818   20.8313 C   0  0  0  0  0  0  0  0  0  0  0  0
    9.6934  -16.3787   19.4838 C   0  0  0  0  0  0  0  0  0  0  0  0
    8.4235  -16.6972   18.7199 C   0  0  0  0  0  0  0  0  0  0  0  0
    8.2459  -15.9607   17.5146 N   0  0  0  0  0  0  0  0  0  0  0  0
   11.9462  -16.8416   24.0374 C   0  0  0  0  0  0  0  0  0  0  0  0
   13.2127  -16.9377   23.7821 O   0  0  0  0  0  0  0  0  0  0  0  0
   11.6914  -16.3007   25.2707 O   0  0  0  0  0  0  0  0  0  0  0  0
  2  1  1  0
  3  5  1  0
  3  2  1  0
  3  4  1  1
  5  6  1  1
  7  8  2  0
  7  5  1  0
  9 10  1  0
 10 11  2  0
 10 12  1  0
 12 13  1  0
 14 13  1  6
 14 15  1  0
 15  7  1  0
 16 14  1  0
 17 16  2  0
 18 16  1  0
 19 18  1  0
 19 25  1  0
 20 21  1  0
 19 20  1  6
 22 21  1  0
 23 24  1  0
 23 22  1  0
 25 27  1  0
 26 25  2  0
M  END
$$$$
