IQK.pdb
     RDKit          3D

 27 26  0  0  1  0  0  0  0  0999 V2000
  -17.0191 -109.2868  -36.2036 C   0  0  0  0  0  0  0  0  0  0  0  0
  -18.1787 -109.0992  -37.1535 C   0  0  0  0  0  0  0  0  0  0  0  0
  -18.2442 -107.6986  -37.7212 C   0  0  2  0  0  0  0  0  0  0  0  0
  -19.5682 -107.5325  -38.4841 C   0  0  0  0  0  0  0  0  0  0  0  0
  -17.1602 -107.5072  -38.7111 C   0  0  2  0  0  0  0  0  0  0  0  0
  -16.0391 -108.3922  -38.3967 N   0  0  0  0  0  0  0  0  0  0  0  0
  -16.6829 -106.1544  -38.9431 C   0  0  0  0  0  0  0  0  0  0  0  0
  -17.5284 -105.2471  -39.1536 O   0  0  0  0  0  0  0  0  0  0  0  0
  -14.7390 -103.7780  -43.7496 N   0  0  0  0  0  0  0  0  0  0  0  0
  -15.6358 -103.1181  -42.8581 C   0  0  0  0  0  0  0  0  0  0  0  0
  -16.7088 -102.6731  -43.3207 O   0  0  0  0  0  0  0  0  0  0  0  0
  -15.2657 -102.9783  -41.4024 C   0  0  0  0  0  0  0  0  0  0  0  0
  -15.2025 -104.3545  -40.8456 C   0  0  0  0  0  0  0  0  0  0  0  0
  -14.8555 -104.4795  -39.4059 C   0  0  2  0  0  0  0  0  0  0  0  0
  -15.3257 -105.7590  -38.9522 N   0  0  0  0  0  0  0  0  0  0  0  0
  -15.2518 -103.3549  -38.5509 C   0  0  0  0  0  0  0  0  0  0  0  0
  -15.0093 -103.4124  -37.2966 O   0  0  0  0  0  0  0  0  0  0  0  0
  -15.8930 -102.1985  -39.0369 N   0  0  0  0  0  0  0  0  0  0  0  0
  -16.0632 -100.9770  -38.1615 C   0  0  1  0  0  0  0  0  0  0  0  0
  -15.3693  -99.8728  -38.8216 C   0  0  0  0  0  0  0  0  0  0  0  0
  -16.0393  -98.6580  -39.2088 C   0  0  0  0  0  0  0  0  0  0  0  0
  -15.5500  -97.8241  -40.3275 C   0  0  0  0  0  0  0  0  0  0  0  0
  -14.5311  -98.4963  -41.2261 C   0  0  0  0  0  0  0  0  0  0  0  0
  -13.1924  -98.0395  -41.0644 N   0  0  0  0  0  0  0  0  0  0  0  0
  -17.4745 -100.9472  -37.8382 C   0  0  0  0  0  0  0  0  0  0  0  0
  -18.3478 -101.3679  -38.6979 O   0  0  0  0  0  0  0  0  0  0  0  0
  -18.0442 -100.5145  -36.6691 O   0  0  0  0  0  0  0  0  0  0  0  0
  2  1  1  0
  3  5  1  0
  3  2  1  0
  3  4  1  6
  5  6  1  1
  7  8  2  0
  7  5  1  0
  9 10  1  0
 10 11  2  0
 10 12  1  0
 12 13  1  0
 14 13  1  6
 14 15  1  0
 15  7  1  0
 16 14  1  0
 17 16  2  0
 18 16  1  0
 19 18  1  0
 19 25  1  0
 20 21  1  0
 19 20  1  6
 22 21  1  0
 23 24  1  0
 23 22  1  0
 25 27  1  0
 26 25  2  0
M  END
$$$$
