IQK.pdb
     RDKit          3D

 27 26  0  0  1  0  0  0  0  0999 V2000
    5.6695  -12.8238   18.2851 C   0  0  0  0  0  0  0  0  0  0  0  0
    6.9301  -12.5781   19.0803 C   0  0  0  0  0  0  0  0  0  0  0  0
    7.8898  -13.7461   19.0239 C   0  0  2  0  0  0  0  0  0  0  0  0
    7.2211  -14.9710   19.6679 C   0  0  0  0  0  0  0  0  0  0  0  0
    9.0922  -13.4472   19.8343 C   0  0  2  0  0  0  0  0  0  0  0  0
    9.6389  -12.1462   19.4499 N   0  0  0  0  0  0  0  0  0  0  0  0
   10.1488  -14.4439   19.8757 C   0  0  0  0  0  0  0  0  0  0  0  0
    9.8396  -15.6366   20.1294 O   0  0  0  0  0  0  0  0  0  0  0  0
   15.6293  -13.5991   17.5051 N   0  0  0  0  0  0  0  0  0  0  0  0
   15.9881  -14.8011   18.1839 C   0  0  0  0  0  0  0  0  0  0  0  0
   17.1563  -15.2278   18.0535 O   0  0  0  0  0  0  0  0  0  0  0  0
   14.9593  -15.5122   19.0272 C   0  0  0  0  0  0  0  0  0  0  0  0
   13.7123  -14.7083   18.9445 C   0  0  0  0  0  0  0  0  0  0  0  0
   12.5596  -15.1740   19.7589 C   0  0  2  0  0  0  0  0  0  0  0  0
   11.5207  -14.1877   19.6504 N   0  0  0  0  0  0  0  0  0  0  0  0
   12.8679  -15.5745   21.1363 C   0  0  0  0  0  0  0  0  0  0  0  0
   13.1805  -14.6748   21.9897 O   0  0  0  0  0  0  0  0  0  0  0  0
   12.8398  -16.9109   21.5810 N   0  0  0  0  0  0  0  0  0  0  0  0
   13.1815  -17.2623   23.0117 C   0  0  1  0  0  0  0  0  0  0  0  0
   12.4064  -18.4512   23.3613 C   0  0  0  0  0  0  0  0  0  0  0  0
   12.5531  -19.1275   24.6244 C   0  0  0  0  0  0  0  0  0  0  0  0
   11.6999  -20.2776   24.9930 C   0  0  0  0  0  0  0  0  0  0  0  0
   12.0491  -20.9335   26.3142 C   0  0  0  0  0  0  0  0  0  0  0  0
   11.2367  -22.0487   26.6652 N   0  0  0  0  0  0  0  0  0  0  0  0
   14.6277  -17.2126   23.0696 C   0  0  0  0  0  0  0  0  0  0  0  0
   15.3288  -17.4152   21.9992 O   0  0  0  0  0  0  0  0  0  0  0  0
   15.4010  -16.9559   24.1717 O   0  0  0  0  0  0  0  0  0  0  0  0
  2  1  1  0
  3  5  1  0
  3  2  1  0
  3  4  1  1
  5  6  1  6
  7  8  2  0
  7  5  1  0
  9 10  1  0
 10 11  2  0
 10 12  1  0
 12 13  1  0
 14 13  1  1
 14 15  1  0
 15  7  1  0
 16 14  1  0
 17 16  2  0
 18 16  1  0
 19 18  1  0
 19 25  1  0
 20 21  1  0
 19 20  1  6
 22 21  1  0
 23 24  1  0
 23 22  1  0
 25 27  1  0
 26 25  2  0
M  END
$$$$
