IQK.pdb
     RDKit          3D

 27 26  0  0  1  0  0  0  0  0999 V2000
    6.6372  -11.1900   27.0371 C   0  0  0  0  0  0  0  0  0  0  0  0
    6.1428  -12.3206   26.1657 C   0  0  0  0  0  0  0  0  0  0  0  0
    7.1729  -13.4150   25.9936 C   0  0  2  0  0  0  0  0  0  0  0  0
    8.4061  -12.8307   25.2864 C   0  0  0  0  0  0  0  0  0  0  0  0
    6.6385  -14.4719   25.1053 C   0  0  2  0  0  0  0  0  0  0  0  0
    5.3839  -14.9902   25.6496 N   0  0  0  0  0  0  0  0  0  0  0  0
    7.5216  -15.5686   24.7463 C   0  0  0  0  0  0  0  0  0  0  0  0
    7.5903  -16.5611   25.5162 O   0  0  0  0  0  0  0  0  0  0  0  0
   11.3330  -17.5221   18.9455 N   0  0  0  0  0  0  0  0  0  0  0  0
   10.4128  -17.7828   20.0036 C   0  0  0  0  0  0  0  0  0  0  0  0
    9.3151  -18.3084   19.7165 O   0  0  0  0  0  0  0  0  0  0  0  0
   10.7874  -17.4198   21.4189 C   0  0  0  0  0  0  0  0  0  0  0  0
    9.7474  -16.4766   21.9055 C   0  0  0  0  0  0  0  0  0  0  0  0
    9.2838  -16.6549   23.3063 C   0  0  2  0  0  0  0  0  0  0  0  0
    8.3258  -15.6212   23.5848 N   0  0  0  0  0  0  0  0  0  0  0  0
   10.3376  -16.7876   24.3185 C   0  0  0  0  0  0  0  0  0  0  0  0
   10.9402  -15.7371   24.7294 O   0  0  0  0  0  0  0  0  0  0  0  0
   10.7309  -18.0216   24.8727 N   0  0  0  0  0  0  0  0  0  0  0  0
   11.8106  -18.0914   25.9294 C   0  0  1  0  0  0  0  0  0  0  0  0
   11.2717  -18.8641   27.0469 C   0  0  0  0  0  0  0  0  0  0  0  0
   12.0620  -19.2136   28.1992 C   0  0  0  0  0  0  0  0  0  0  0  0
   11.5073  -20.0249   29.3040 C   0  0  0  0  0  0  0  0  0  0  0  0
   12.4498  -20.2428   30.4710 C   0  0  0  0  0  0  0  0  0  0  0  0
   11.9668  -21.1266   31.4772 N   0  0  0  0  0  0  0  0  0  0  0  0
   13.0094  -18.4677   25.2093 C   0  0  0  0  0  0  0  0  0  0  0  0
   12.9294  -19.2385   24.1710 O   0  0  0  0  0  0  0  0  0  0  0  0
   14.2954  -18.0873   25.4920 O   0  0  0  0  0  0  0  0  0  0  0  0
  2  1  1  0
  3  5  1  0
  3  2  1  0
  3  4  1  6
  5  6  1  1
  7  8  2  0
  7  5  1  0
  9 10  1  0
 10 11  2  0
 10 12  1  0
 12 13  1  0
 14 13  1  6
 14 15  1  0
 15  7  1  0
 16 14  1  0
 17 16  2  0
 18 16  1  0
 19 18  1  0
 19 25  1  0
 20 21  1  0
 19 20  1  1
 22 21  1  0
 23 24  1  0
 23 22  1  0
 25 27  1  0
 26 25  2  0
M  END
$$$$
