IQK.pdb
     RDKit          3D

 27 26  0  0  1  0  0  0  0  0999 V2000
    7.7478  -12.1834   22.2138 C   0  0  0  0  0  0  0  0  0  0  0  0
    7.5747  -13.5676   21.6342 C   0  0  0  0  0  0  0  0  0  0  0  0
    8.1527  -13.6910   20.2416 C   0  0  2  0  0  0  0  0  0  0  0  0
    7.3190  -12.8304   19.2789 C   0  0  0  0  0  0  0  0  0  0  0  0
    8.0314  -15.0892   19.7701 C   0  0  2  0  0  0  0  0  0  0  0  0
    6.6318  -15.5106   19.8214 N   0  0  0  0  0  0  0  0  0  0  0  0
    8.8811  -16.0916   20.3903 C   0  0  0  0  0  0  0  0  0  0  0  0
    8.3713  -16.8713   21.2356 O   0  0  0  0  0  0  0  0  0  0  0  0
   13.8167  -18.5767   17.8232 N   0  0  0  0  0  0  0  0  0  0  0  0
   13.6783  -19.3382   19.0213 C   0  0  0  0  0  0  0  0  0  0  0  0
   14.0316  -20.5375   19.0038 O   0  0  0  0  0  0  0  0  0  0  0  0
   13.1158  -18.6811   20.2570 C   0  0  0  0  0  0  0  0  0  0  0  0
   12.1295  -17.6721   19.7907 C   0  0  0  0  0  0  0  0  0  0  0  0
   11.0874  -17.2539   20.7644 C   0  0  2  0  0  0  0  0  0  0  0  0
   10.2572  -16.2731   20.1221 N   0  0  0  0  0  0  0  0  0  0  0  0
   11.5721  -16.8566   22.0911 C   0  0  0  0  0  0  0  0  0  0  0  0
   11.9047  -15.6383   22.2918 O   0  0  0  0  0  0  0  0  0  0  0  0
   11.6945  -17.7508   23.1728 N   0  0  0  0  0  0  0  0  0  0  0  0
   12.1555  -17.2709   24.5308 C   0  0  1  0  0  0  0  0  0  0  0  0
   11.6168  -18.1996   25.5227 C   0  0  0  0  0  0  0  0  0  0  0  0
   11.9233  -18.0971   26.9263 C   0  0  0  0  0  0  0  0  0  0  0  0
   11.5233  -19.1476   27.8870 C   0  0  0  0  0  0  0  0  0  0  0  0
   11.9908  -18.9213   29.3110 C   0  0  0  0  0  0  0  0  0  0  0  0
   11.6629  -19.9630   30.2244 N   0  0  0  0  0  0  0  0  0  0  0  0
   13.5717  -17.0138   24.3714 C   0  0  0  0  0  0  0  0  0  0  0  0
   14.3176  -17.8570   23.7302 O   0  0  0  0  0  0  0  0  0  0  0  0
   14.2696  -15.9267   24.8291 O   0  0  0  0  0  0  0  0  0  0  0  0
  2  1  1  0
  3  5  1  0
  3  2  1  0
  3  4  1  6
  5  6  1  1
  7  8  2  0
  7  5  1  0
  9 10  1  0
 10 11  2  0
 10 12  1  0
 12 13  1  0
 14 13  1  6
 14 15  1  0
 15  7  1  0
 16 14  1  0
 17 16  2  0
 18 16  1  0
 19 18  1  0
 19 25  1  0
 20 21  1  0
 19 20  1  1
 22 21  1  0
 23 24  1  0
 23 22  1  0
 25 27  1  0
 26 25  2  0
M  END
$$$$
