IQK.pdb
     RDKit          3D

 27 26  0  0  1  0  0  0  0  0999 V2000
    5.3900  -10.9310   27.3358 C   0  0  0  0  0  0  0  0  0  0  0  0
    5.4619  -12.2804   26.6604 C   0  0  0  0  0  0  0  0  0  0  0  0
    6.8744  -12.6650   26.2792 C   0  0  2  0  0  0  0  0  0  0  0  0
    7.4326  -11.6111   25.3095 C   0  0  0  0  0  0  0  0  0  0  0  0
    6.8635  -13.9503   25.5445 C   0  0  2  0  0  0  0  0  0  0  0  0
    5.8884  -14.8584   26.1476 N   0  0  0  0  0  0  0  0  0  0  0  0
    8.1317  -14.6323   25.3494 C   0  0  0  0  0  0  0  0  0  0  0  0
    9.0506  -14.0283   24.7384 O   0  0  0  0  0  0  0  0  0  0  0  0
    9.7779  -19.7245   28.1938 N   0  0  0  0  0  0  0  0  0  0  0  0
   10.7868  -19.8179   27.1900 C   0  0  0  0  0  0  0  0  0  0  0  0
   11.6050  -20.7608   27.2598 O   0  0  0  0  0  0  0  0  0  0  0  0
   10.8353  -18.7880   26.0889 C   0  0  0  0  0  0  0  0  0  0  0  0
    9.7317  -17.8291   26.3546 C   0  0  0  0  0  0  0  0  0  0  0  0
    9.6120  -16.6722   25.4293 C   0  0  2  0  0  0  0  0  0  0  0  0
    8.4314  -15.9399   25.7953 N   0  0  0  0  0  0  0  0  0  0  0  0
    9.7083  -16.9828   23.9986 C   0  0  0  0  0  0  0  0  0  0  0  0
    8.6860  -17.4597   23.3962 O   0  0  0  0  0  0  0  0  0  0  0  0
   10.8773  -16.7841   23.2380 N   0  0  0  0  0  0  0  0  0  0  0  0
   10.8228  -16.7277   21.7277 C   0  0  1  0  0  0  0  0  0  0  0  0
    9.8430  -15.7043   21.3689 C   0  0  0  0  0  0  0  0  0  0  0  0
    9.5580  -15.3502   20.0022 C   0  0  0  0  0  0  0  0  0  0  0  0
    8.5702  -14.3041   19.6609 C   0  0  0  0  0  0  0  0  0  0  0  0
    8.3678  -14.0779   18.1759 C   0  0  0  0  0  0  0  0  0  0  0  0
    7.5411  -12.9675   17.8438 N   0  0  0  0  0  0  0  0  0  0  0  0
   12.2084  -16.6812   21.3089 C   0  0  0  0  0  0  0  0  0  0  0  0
   13.1382  -16.4032   22.1672 O   0  0  0  0  0  0  0  0  0  0  0  0
   12.6982  -16.9146   20.0504 O   0  0  0  0  0  0  0  0  0  0  0  0
  2  1  1  0
  3  5  1  0
  3  2  1  0
  3  4  1  6
  5  6  1  1
  7  8  2  0
  7  5  1  0
  9 10  1  0
 10 11  2  0
 10 12  1  0
 12 13  1  0
 14 13  1  1
 14 15  1  0
 15  7  1  0
 16 14  1  0
 17 16  2  0
 18 16  1  0
 19 18  1  0
 19 25  1  0
 20 21  1  0
 19 20  1  1
 22 21  1  0
 23 24  1  0
 23 22  1  0
 25 27  1  0
 26 25  2  0
M  END
$$$$
