IQK.pdb
     RDKit          3D

 27 26  0  0  1  0  0  0  0  0999 V2000
    7.6730  -11.7793   19.3925 C   0  0  0  0  0  0  0  0  0  0  0  0
    7.9964  -13.1900   18.9597 C   0  0  0  0  0  0  0  0  0  0  0  0
    8.0403  -14.1586   20.1210 C   0  0  2  0  0  0  0  0  0  0  0  0
    9.1558  -13.7275   21.0865 C   0  0  0  0  0  0  0  0  0  0  0  0
    8.4023  -15.5092   19.6345 C   0  0  2  0  0  0  0  0  0  0  0  0
    7.4287  -15.9553   18.6384 N   0  0  0  0  0  0  0  0  0  0  0  0
    8.6231  -16.5510   20.6231 C   0  0  0  0  0  0  0  0  0  0  0  0
    7.6625  -16.8933   21.3596 O   0  0  0  0  0  0  0  0  0  0  0  0
   12.0316  -21.6961   23.5976 N   0  0  0  0  0  0  0  0  0  0  0  0
   11.6869  -21.3611   22.2548 C   0  0  0  0  0  0  0  0  0  0  0  0
   12.4894  -21.6643   21.3450 O   0  0  0  0  0  0  0  0  0  0  0  0
   10.3811  -20.6589   21.9773 C   0  0  0  0  0  0  0  0  0  0  0  0
   10.7232  -19.3612   21.3393 C   0  0  0  0  0  0  0  0  0  0  0  0
   10.0904  -18.1450   21.9133 C   0  0  2  0  0  0  0  0  0  0  0  0
    9.8456  -17.2287   20.8343 N   0  0  0  0  0  0  0  0  0  0  0  0
   10.7757  -17.5488   23.0656 C   0  0  0  0  0  0  0  0  0  0  0  0
   11.6903  -16.6784   22.8625 O   0  0  0  0  0  0  0  0  0  0  0  0
   10.4817  -17.8834   24.4021 N   0  0  0  0  0  0  0  0  0  0  0  0
   11.2896  -17.3085   25.5440 C   0  0  1  0  0  0  0  0  0  0  0  0
   10.4297  -16.3570   26.2452 C   0  0  0  0  0  0  0  0  0  0  0  0
   10.8268  -15.7107   27.4696 C   0  0  0  0  0  0  0  0  0  0  0  0
    9.9494  -14.7366   28.1534 C   0  0  0  0  0  0  0  0  0  0  0  0
   10.4991  -14.1862   29.4543 C   0  0  0  0  0  0  0  0  0  0  0  0
    9.6263  -13.3024   30.1500 N   0  0  0  0  0  0  0  0  0  0  0  0
   11.8910  -18.4581   26.1874 C   0  0  0  0  0  0  0  0  0  0  0  0
   11.2819  -19.6015   26.1776 O   0  0  0  0  0  0  0  0  0  0  0  0
   13.0963  -18.5027   26.8382 O   0  0  0  0  0  0  0  0  0  0  0  0
  2  1  1  0
  3  5  1  0
  3  2  1  0
  3  4  1  1
  5  6  1  6
  7  8  2  0
  7  5  1  0
  9 10  1  0
 10 11  2  0
 10 12  1  0
 12 13  1  0
 14 13  1  6
 14 15  1  0
 15  7  1  0
 16 14  1  0
 17 16  2  0
 18 16  1  0
 19 18  1  0
 19 25  1  0
 20 21  1  0
 19 20  1  1
 22 21  1  0
 23 24  1  0
 23 22  1  0
 25 27  1  0
 26 25  2  0
M  END
$$$$
