IQK.pdb
     RDKit          3D

 27 26  0  0  1  0  0  0  0  0999 V2000
    6.6321  -11.4663   28.0307 C   0  0  0  0  0  0  0  0  0  0  0  0
    5.9486  -12.4598   27.1211 C   0  0  0  0  0  0  0  0  0  0  0  0
    6.9277  -13.2380   26.2700 C   0  0  2  0  0  0  0  0  0  0  0  0
    7.6772  -12.2586   25.3526 C   0  0  0  0  0  0  0  0  0  0  0  0
    6.1928  -14.1682   25.3832 C   0  0  2  0  0  0  0  0  0  0  0  0
    5.4094  -15.1057   26.1872 N   0  0  0  0  0  0  0  0  0  0  0  0
    6.9514  -14.8852   24.3722 C   0  0  0  0  0  0  0  0  0  0  0  0
    7.3643  -16.0429   24.6399 O   0  0  0  0  0  0  0  0  0  0  0  0
    7.8992  -12.7116   18.7582 N   0  0  0  0  0  0  0  0  0  0  0  0
    8.5672  -13.9536   18.5449 C   0  0  0  0  0  0  0  0  0  0  0  0
    8.9394  -14.2332   17.3843 O   0  0  0  0  0  0  0  0  0  0  0  0
    8.8002  -14.8806   19.7118 C   0  0  0  0  0  0  0  0  0  0  0  0
    8.0723  -14.2986   20.8692 C   0  0  0  0  0  0  0  0  0  0  0  0
    8.1111  -15.0675   22.1405 C   0  0  2  0  0  0  0  0  0  0  0  0
    7.2721  -14.3881   23.0883 N   0  0  0  0  0  0  0  0  0  0  0  0
    9.4470  -15.3994   22.6485 C   0  0  0  0  0  0  0  0  0  0  0  0
   10.0746  -14.5381   23.3553 O   0  0  0  0  0  0  0  0  0  0  0  0
   10.0887  -16.6287   22.4001 N   0  0  0  0  0  0  0  0  0  0  0  0
   11.3389  -17.0205   23.1556 C   0  0  1  0  0  0  0  0  0  0  0  0
   11.0612  -18.2925   23.8198 C   0  0  0  0  0  0  0  0  0  0  0  0
   12.0427  -18.9788   24.6199 C   0  0  0  0  0  0  0  0  0  0  0  0
   11.7145  -20.2176   25.3576 C   0  0  0  0  0  0  0  0  0  0  0  0
   12.8869  -20.8696   26.0633 C   0  0  0  0  0  0  0  0  0  0  0  0
   12.7014  -21.0927   27.4571 N   0  0  0  0  0  0  0  0  0  0  0  0
   12.4170  -16.8401   22.2057 C   0  0  0  0  0  0  0  0  0  0  0  0
   12.1761  -16.8788   20.9334 O   0  0  0  0  0  0  0  0  0  0  0  0
   13.7380  -16.6115   22.4906 O   0  0  0  0  0  0  0  0  0  0  0  0
  2  1  1  0
  3  5  1  0
  3  2  1  0
  3  4  1  6
  5  6  1  1
  7  8  2  0
  7  5  1  0
  9 10  1  0
 10 11  2  0
 10 12  1  0
 12 13  1  0
 14 13  1  6
 14 15  1  0
 15  7  1  0
 16 14  1  0
 17 16  2  0
 18 16  1  0
 19 18  1  0
 19 25  1  0
 20 21  1  0
 19 20  1  6
 22 21  1  0
 23 24  1  0
 23 22  1  0
 25 27  1  0
 26 25  2  0
M  END
$$$$
