IQK.pdb
     RDKit          3D

 27 26  0  0  1  0  0  0  0  0999 V2000
   -1.5989  -20.1852   23.2884 C   0  0  0  0  0  0  0  0  0  0  0  0
   -0.5897  -20.0955   22.1679 C   0  0  0  0  0  0  0  0  0  0  0  0
    0.8196  -20.3936   22.6297 C   0  0  2  0  0  0  0  0  0  0  0  0
    1.4557  -19.0970   23.1557 C   0  0  0  0  0  0  0  0  0  0  0  0
    1.6427  -20.8307   21.4793 C   0  0  2  0  0  0  0  0  0  0  0  0
    1.0775  -22.0483   20.8988 N   0  0  0  0  0  0  0  0  0  0  0  0
    3.0719  -20.9899   21.6878 C   0  0  0  0  0  0  0  0  0  0  0  0
    3.4947  -22.0856   22.1387 O   0  0  0  0  0  0  0  0  0  0  0  0
    9.4591  -19.9192   18.6962 N   0  0  0  0  0  0  0  0  0  0  0  0
    8.1651  -19.4907   19.1161 C   0  0  0  0  0  0  0  0  0  0  0  0
    7.4806  -18.8103   18.3210 O   0  0  0  0  0  0  0  0  0  0  0  0
    7.6688  -19.8665   20.4901 C   0  0  0  0  0  0  0  0  0  0  0  0
    6.1871  -19.7625   20.4502 C   0  0  0  0  0  0  0  0  0  0  0  0
    5.4540  -20.1626   21.6797 C   0  0  2  0  0  0  0  0  0  0  0  0
    4.0495  -20.0038   21.4225 N   0  0  0  0  0  0  0  0  0  0  0  0
    5.9111  -19.5434   22.9288 C   0  0  0  0  0  0  0  0  0  0  0  0
    5.6039  -18.3252   23.1671 O   0  0  0  0  0  0  0  0  0  0  0  0
    6.6798  -20.2213   23.8954 N   0  0  0  0  0  0  0  0  0  0  0  0
    7.1900  -19.5052   25.1260 C   0  0  1  0  0  0  0  0  0  0  0  0
    6.6348  -20.1956   26.2885 C   0  0  0  0  0  0  0  0  0  0  0  0
    7.3268  -21.2683   26.9556 C   0  0  0  0  0  0  0  0  0  0  0  0
    6.7290  -21.9820   28.1044 C   0  0  0  0  0  0  0  0  0  0  0  0
    7.6153  -23.0414   28.7287 C   0  0  0  0  0  0  0  0  0  0  0  0
    7.0470  -23.7205   29.8434 N   0  0  0  0  0  0  0  0  0  0  0  0
    8.6119  -19.3489   24.9002 C   0  0  0  0  0  0  0  0  0  0  0  0
    9.0577  -19.0975   23.7100 O   0  0  0  0  0  0  0  0  0  0  0  0
    9.6096  -19.4279   25.8365 O   0  0  0  0  0  0  0  0  0  0  0  0
  2  1  1  0
  3  5  1  0
  3  2  1  0
  3  4  1  6
  5  6  1  1
  7  8  2  0
  7  5  1  0
  9 10  1  0
 10 11  2  0
 10 12  1  0
 12 13  1  0
 14 13  1  6
 14 15  1  0
 15  7  1  0
 16 14  1  0
 17 16  2  0
 18 16  1  0
 19 18  1  0
 19 25  1  0
 20 21  1  0
 19 20  1  1
 22 21  1  0
 23 24  1  0
 23 22  1  0
 25 27  1  0
 26 25  2  0
M  END
$$$$
