IQK.pdb
     RDKit          3D

 27 26  0  0  1  0  0  0  0  0999 V2000
    6.1456  -12.3419   19.3869 C   0  0  0  0  0  0  0  0  0  0  0  0
    7.0035  -13.2423   18.5295 C   0  0  0  0  0  0  0  0  0  0  0  0
    8.1904  -13.8027   19.2816 C   0  0  2  0  0  0  0  0  0  0  0  0
    9.0833  -12.6387   19.7404 C   0  0  0  0  0  0  0  0  0  0  0  0
    9.0135  -14.6330   18.3734 C   0  0  2  0  0  0  0  0  0  0  0  0
    8.1665  -15.6099   17.6899 N   0  0  0  0  0  0  0  0  0  0  0  0
   10.1878  -15.2860   18.9268 C   0  0  0  0  0  0  0  0  0  0  0  0
   10.0622  -16.4426   19.4053 O   0  0  0  0  0  0  0  0  0  0  0  0
   15.8974  -13.8263   17.5267 N   0  0  0  0  0  0  0  0  0  0  0  0
   16.2181  -14.4191   18.7837 C   0  0  0  0  0  0  0  0  0  0  0  0
   17.3843  -14.2929   19.2168 O   0  0  0  0  0  0  0  0  0  0  0  0
   15.1533  -15.1718   19.5421 C   0  0  0  0  0  0  0  0  0  0  0  0
   13.8457  -14.7237   18.9967 C   0  0  0  0  0  0  0  0  0  0  0  0
   12.6304  -15.3794   19.5463 C   0  0  2  0  0  0  0  0  0  0  0  0
   11.4851  -14.7265   18.9752 N   0  0  0  0  0  0  0  0  0  0  0  0
   12.5799  -15.5154   21.0063 C   0  0  0  0  0  0  0  0  0  0  0  0
   12.6953  -14.4689   21.7322 O   0  0  0  0  0  0  0  0  0  0  0  0
   12.4094  -16.7487   21.6657 N   0  0  0  0  0  0  0  0  0  0  0  0
   12.2980  -16.8166   23.1724 C   0  0  1  0  0  0  0  0  0  0  0  0
   11.1641  -17.6851   23.4828 C   0  0  0  0  0  0  0  0  0  0  0  0
    9.8685  -17.5131   22.8776 C   0  0  0  0  0  0  0  0  0  0  0  0
    8.7441  -18.4254   23.1776 C   0  0  0  0  0  0  0  0  0  0  0  0
    7.4793  -18.1614   22.3850 C   0  0  0  0  0  0  0  0  0  0  0  0
    6.3663  -18.9749   22.7400 N   0  0  0  0  0  0  0  0  0  0  0  0
   13.6464  -17.0774   23.6318 C   0  0  0  0  0  0  0  0  0  0  0  0
   13.9485  -16.9242   24.8823 O   0  0  0  0  0  0  0  0  0  0  0  0
   14.7088  -17.4985   22.8753 O   0  0  0  0  0  0  0  0  0  0  0  0
  2  1  1  0
  3  5  1  0
  3  2  1  0
  3  4  1  6
  5  6  1  1
  7  8  2  0
  7  5  1  0
  9 10  1  0
 10 11  2  0
 10 12  1  0
 12 13  1  0
 14 13  1  1
 14 15  1  0
 15  7  1  0
 16 14  1  0
 17 16  2  0
 18 16  1  0
 19 18  1  0
 19 25  1  0
 20 21  1  0
 19 20  1  6
 22 21  1  0
 23 24  1  0
 23 22  1  0
 25 27  1  0
 26 25  2  0
M  END
$$$$
