IQK.pdb
     RDKit          3D

 27 26  0  0  1  0  0  0  0  0999 V2000
    7.1656  -10.8070   26.7751 C   0  0  0  0  0  0  0  0  0  0  0  0
    6.4356  -12.0931   26.4668 C   0  0  0  0  0  0  0  0  0  0  0  0
    7.3532  -13.1666   25.9245 C   0  0  2  0  0  0  0  0  0  0  0  0
    7.9500  -12.6846   24.5926 C   0  0  0  0  0  0  0  0  0  0  0  0
    6.5725  -14.3870   25.6197 C   0  0  2  0  0  0  0  0  0  0  0  0
    5.7799  -14.7734   26.7866 N   0  0  0  0  0  0  0  0  0  0  0  0
    7.2877  -15.5377   25.0946 C   0  0  0  0  0  0  0  0  0  0  0  0
    7.6838  -16.4180   25.9012 O   0  0  0  0  0  0  0  0  0  0  0  0
    8.7190  -20.7053   22.5584 N   0  0  0  0  0  0  0  0  0  0  0  0
    7.6670  -19.8275   22.1621 C   0  0  0  0  0  0  0  0  0  0  0  0
    6.5002  -20.1057   22.5152 O   0  0  0  0  0  0  0  0  0  0  0  0
    7.9908  -18.6061   21.3384 C   0  0  0  0  0  0  0  0  0  0  0  0
    7.4411  -17.4384   22.0750 C   0  0  0  0  0  0  0  0  0  0  0  0
    8.2392  -16.9342   23.2229 C   0  0  2  0  0  0  0  0  0  0  0  0
    7.5828  -15.7614   23.7302 N   0  0  0  0  0  0  0  0  0  0  0  0
    9.6757  -16.7619   22.9786 C   0  0  0  0  0  0  0  0  0  0  0  0
   10.2726  -17.5698   22.1871 O   0  0  0  0  0  0  0  0  0  0  0  0
   10.4477  -15.7444   23.5730 N   0  0  0  0  0  0  0  0  0  0  0  0
   11.8357  -16.0291   24.1017 C   0  0  1  0  0  0  0  0  0  0  0  0
   11.6964  -16.3799   25.5137 C   0  0  0  0  0  0  0  0  0  0  0  0
   11.0636  -15.5079   26.4696 C   0  0  0  0  0  0  0  0  0  0  0  0
   11.0092  -15.8426   27.9089 C   0  0  0  0  0  0  0  0  0  0  0  0
   10.3227  -14.8085   28.7788 C   0  0  0  0  0  0  0  0  0  0  0  0
   10.3242  -15.0985   30.1726 N   0  0  0  0  0  0  0  0  0  0  0  0
   12.4319  -16.9111   23.1200 C   0  0  0  0  0  0  0  0  0  0  0  0
   11.7880  -17.9580   22.7101 O   0  0  0  0  0  0  0  0  0  0  0  0
   13.6583  -16.7733   22.5238 O   0  0  0  0  0  0  0  0  0  0  0  0
  2  1  1  0
  3  5  1  0
  3  2  1  0
  3  4  1  6
  5  6  1  1
  7  8  2  0
  7  5  1  0
  9 10  1  0
 10 11  2  0
 10 12  1  0
 12 13  1  0
 14 13  1  6
 14 15  1  0
 15  7  1  0
 16 14  1  0
 17 16  2  0
 18 16  1  0
 19 18  1  0
 19 25  1  0
 20 21  1  0
 19 20  1  1
 22 21  1  0
 23 24  1  0
 23 22  1  0
 25 27  1  0
 26 25  2  0
M  END
$$$$
