PIW.pdb
     RDKit          3D

 30 32  0  0  1  0  0  0  0  0999 V2000
    7.2738  -19.2604   20.0938 N   0  0  0  0  0  0  0  0  0  0  0  0
    6.7962  -20.2409   19.1557 C   0  0  0  0  0  0  0  0  0  0  0  0
    7.7053  -20.2155   17.9596 C   0  0  0  0  0  0  0  0  0  0  0  0
    8.5481  -18.9611   18.2086 C   0  0  0  0  0  0  0  0  0  0  0  0
    8.6249  -18.9673   19.7169 C   0  0  1  0  0  0  0  0  0  0  0  0
    9.1337  -17.7052   20.2607 C   0  0  0  0  0  0  0  0  0  0  0  0
   10.3611  -17.5161   20.3813 O   0  0  0  0  0  0  0  0  0  0  0  0
    7.7651  -11.7820   20.1487 C   0  0  0  0  0  0  0  0  0  0  0  0
    8.5339  -12.9055   20.7765 C   0  0  0  0  0  0  0  0  0  0  0  0
    7.8932  -14.2528   20.5033 C   0  0  2  0  0  0  0  0  0  0  0  0
    6.4625  -14.2619   20.9665 C   0  0  0  0  0  0  0  0  0  0  0  0
    8.6970  -15.3777   21.1139 C   0  0  2  0  0  0  0  0  0  0  0  0
    8.2281  -16.6754   20.6597 N   0  0  0  0  0  0  0  0  0  0  0  0
    8.6788  -15.3081   22.6020 C   0  0  0  0  0  0  0  0  0  0  0  0
    7.6747  -14.9950   23.2638 O   0  0  0  0  0  0  0  0  0  0  0  0
    9.8448  -15.6048   23.3769 N   0  0  0  0  0  0  0  0  0  0  0  0
    9.9511  -15.5115   24.7787 C   0  0  1  0  0  0  0  0  0  0  0  0
    8.9820  -16.2893   25.5935 C   0  0  0  0  0  0  0  0  0  0  0  0
    7.6902  -15.5642   25.7414 C   0  0  0  0  0  0  0  0  0  0  0  0
    6.4023  -15.9883   25.5195 C   0  0  0  0  0  0  0  0  0  0  0  0
    5.5453  -14.9657   25.7927 N   0  0  0  0  0  0  0  0  0  0  0  0
    6.2375  -13.8834   26.1875 C   0  0  0  0  0  0  0  0  0  0  0  0
    5.8564  -12.6143   26.5717 C   0  0  0  0  0  0  0  0  0  0  0  0
    6.7749  -11.6491   26.9438 C   0  0  0  0  0  0  0  0  0  0  0  0
    8.1096  -11.9959   26.9202 C   0  0  0  0  0  0  0  0  0  0  0  0
    8.4866  -13.2648   26.5357 C   0  0  0  0  0  0  0  0  0  0  0  0
    7.5683  -14.2389   26.1608 C   0  0  0  0  0  0  0  0  0  0  0  0
   11.3314  -15.8723   25.1728 C   0  0  0  0  0  0  0  0  0  0  0  0
   12.2888  -16.2926   24.2742 O   0  0  0  0  0  0  0  0  0  0  0  0
   11.6397  -15.7904   26.3808 O   0  0  0  0  0  0  0  0  0  0  0  0
  1  2  1  0
  3  2  1  0
  4  3  1  0
  5  4  1  0
  5  1  1  0
  5  6  1  1
  6 13  1  0
  7  6  2  0
  9  8  1  0
 10  9  1  0
 10 11  1  1
 12 13  1  1
 12 10  1  0
 14 16  1  0
 14 12  1  0
 15 14  2  0
 17 16  1  0
 17 28  1  0
 17 18  1  1
 19 18  1  0
 20 19  2  0
 21 22  1  0
 21 20  1  0
 22 27  2  0
 23 22  1  0
 23 24  2  0
 24 25  1  0
 25 26  2  0
 27 19  1  0
 27 26  1  0
 28 30  2  0
 28 29  1  0
M  END
$$$$
