PIW.pdb
     RDKit          3D

 30 32  0  0  1  0  0  0  0  0999 V2000
    7.2463  -19.6526   21.2050 N   0  0  0  0  0  0  0  0  0  0  0  0
    5.9889  -20.3280   21.0246 C   0  0  0  0  0  0  0  0  0  0  0  0
    5.1324  -19.4764   20.1308 C   0  0  0  0  0  0  0  0  0  0  0  0
    5.9226  -18.1661   20.0624 C   0  0  0  0  0  0  0  0  0  0  0  0
    7.3380  -18.6849   20.1520 C   0  0  1  0  0  0  0  0  0  0  0  0
    8.3135  -17.6210   20.4053 C   0  0  0  0  0  0  0  0  0  0  0  0
    9.5113  -17.7710   20.0896 O   0  0  0  0  0  0  0  0  0  0  0  0
    6.8689  -12.2001   20.3799 C   0  0  0  0  0  0  0  0  0  0  0  0
    7.1899  -13.4958   21.0622 C   0  0  0  0  0  0  0  0  0  0  0  0
    8.5205  -14.0625   20.6053 C   0  0  2  0  0  0  0  0  0  0  0  0
    8.5353  -14.2396   19.1120 C   0  0  0  0  0  0  0  0  0  0  0  0
    8.8516  -15.3443   21.3344 C   0  0  2  0  0  0  0  0  0  0  0  0
    7.9029  -16.3978   21.0178 N   0  0  0  0  0  0  0  0  0  0  0  0
    8.9170  -15.1263   22.8067 C   0  0  0  0  0  0  0  0  0  0  0  0
    8.1775  -14.3371   23.4188 O   0  0  0  0  0  0  0  0  0  0  0  0
    9.8579  -15.8298   23.6239 N   0  0  0  0  0  0  0  0  0  0  0  0
    9.8851  -15.8380   25.0325 C   0  0  1  0  0  0  0  0  0  0  0  0
    8.7738  -16.5292   25.7361 C   0  0  0  0  0  0  0  0  0  0  0  0
    7.5715  -15.6576   25.8423 C   0  0  0  0  0  0  0  0  0  0  0  0
    6.2503  -15.9300   25.5815 C   0  0  0  0  0  0  0  0  0  0  0  0
    5.5106  -14.8129   25.8257 N   0  0  0  0  0  0  0  0  0  0  0  0
    6.3119  -13.8163   26.2393 C   0  0  0  0  0  0  0  0  0  0  0  0
    6.0700  -12.5093   26.6087 C   0  0  0  0  0  0  0  0  0  0  0  0
    7.0831  -11.6555   27.0069 C   0  0  0  0  0  0  0  0  0  0  0  0
    8.3683  -12.1557   27.0255 C   0  0  0  0  0  0  0  0  0  0  0  0
    8.6061  -13.4622   26.6557 C   0  0  0  0  0  0  0  0  0  0  0  0
    7.5924  -14.3247   26.2547 C   0  0  0  0  0  0  0  0  0  0  0  0
   11.1795  -16.4023   25.4767 C   0  0  0  0  0  0  0  0  0  0  0  0
   12.1320  -16.8862   24.6053 O   0  0  0  0  0  0  0  0  0  0  0  0
   11.4160  -16.4400   26.7029 O   0  0  0  0  0  0  0  0  0  0  0  0
  1  2  1  0
  3  2  1  0
  4  3  1  0
  5  4  1  0
  5  1  1  0
  5  6  1  1
  6 13  1  0
  7  6  2  0
  9  8  1  0
 10  9  1  0
 10 11  1  6
 12 13  1  1
 12 10  1  0
 14 16  1  0
 14 12  1  0
 15 14  2  0
 17 16  1  0
 17 28  1  0
 17 18  1  1
 19 18  1  0
 20 19  2  0
 21 22  1  0
 21 20  1  0
 22 27  2  0
 23 22  1  0
 23 24  2  0
 24 25  1  0
 25 26  2  0
 27 19  1  0
 27 26  1  0
 28 30  2  0
 28 29  1  0
M  END
$$$$
