PIW.pdb
     RDKit          3D

 30 32  0  0  1  0  0  0  0  0999 V2000
    6.5972  -18.8197   20.7373 N   0  0  0  0  0  0  0  0  0  0  0  0
    5.5921  -19.5883   20.0528 C   0  0  0  0  0  0  0  0  0  0  0  0
    5.6522  -19.2309   18.5946 C   0  0  0  0  0  0  0  0  0  0  0  0
    6.5835  -18.0148   18.5881 C   0  0  0  0  0  0  0  0  0  0  0  0
    7.5082  -18.3612   19.7307 C   0  0  1  0  0  0  0  0  0  0  0  0
    8.3360  -17.2269   20.1498 C   0  0  0  0  0  0  0  0  0  0  0  0
    9.5524  -17.1938   19.8738 O   0  0  0  0  0  0  0  0  0  0  0  0
    7.2594  -12.4060   18.8768 C   0  0  0  0  0  0  0  0  0  0  0  0
    7.8681  -13.6861   19.3650 C   0  0  0  0  0  0  0  0  0  0  0  0
    8.0097  -13.7067   20.8749 C   0  0  2  0  0  0  0  0  0  0  0  0
    8.8393  -12.5436   21.3444 C   0  0  0  0  0  0  0  0  0  0  0  0
    8.5583  -15.0297   21.3576 C   0  0  2  0  0  0  0  0  0  0  0  0
    7.7582  -16.1444   20.8806 N   0  0  0  0  0  0  0  0  0  0  0  0
    8.6629  -15.0608   22.8434 C   0  0  0  0  0  0  0  0  0  0  0  0
    7.9210  -14.4105   23.5990 O   0  0  0  0  0  0  0  0  0  0  0  0
    9.6478  -15.8608   23.5053 N   0  0  0  0  0  0  0  0  0  0  0  0
   10.0036  -15.7752   24.8658 C   0  0  1  0  0  0  0  0  0  0  0  0
    9.0559  -16.3425   25.8598 C   0  0  0  0  0  0  0  0  0  0  0  0
    7.7655  -15.6001   25.8664 C   0  0  0  0  0  0  0  0  0  0  0  0
    6.5157  -15.9862   25.4459 C   0  0  0  0  0  0  0  0  0  0  0  0
    5.6422  -14.9620   25.6525 N   0  0  0  0  0  0  0  0  0  0  0  0
    6.2864  -13.9156   26.1970 C   0  0  0  0  0  0  0  0  0  0  0  0
    5.8718  -12.6606   26.5925 C   0  0  0  0  0  0  0  0  0  0  0  0
    6.7418  -11.7345   27.1395 C   0  0  0  0  0  0  0  0  0  0  0  0
    8.0623  -12.1064   27.2822 C   0  0  0  0  0  0  0  0  0  0  0  0
    8.4728  -13.3612   26.8858 C   0  0  0  0  0  0  0  0  0  0  0  0
    7.6033  -14.2960   26.3356 C   0  0  0  0  0  0  0  0  0  0  0  0
   11.3372  -16.3921   25.0450 C   0  0  0  0  0  0  0  0  0  0  0  0
   11.9996  -16.4230   26.2537 O   0  0  0  0  0  0  0  0  0  0  0  0
   11.8859  -16.9091   24.0486 O   0  0  0  0  0  0  0  0  0  0  0  0
  1  2  1  0
  3  2  1  0
  4  3  1  0
  5  4  1  0
  5  1  1  0
  5  6  1  1
  6 13  1  0
  7  6  2  0
  9  8  1  0
 10  9  1  0
 10 11  1  6
 12 13  1  1
 12 10  1  0
 14 16  1  0
 14 12  1  0
 15 14  2  0
 17 16  1  0
 17 28  1  0
 17 18  1  1
 19 18  1  0
 20 19  2  0
 21 22  1  0
 21 20  1  0
 22 27  2  0
 23 22  1  0
 23 24  2  0
 24 25  1  0
 25 26  2  0
 27 19  1  0
 27 26  1  0
 28 30  2  0
 28 29  1  0
M  END
$$$$
