PIW.pdb
     RDKit          3D

 30 32  0  0  1  0  0  0  0  0999 V2000
    9.1505  -19.6066   19.1461 N   0  0  0  0  0  0  0  0  0  0  0  0
    8.8511  -20.2947   17.9186 C   0  0  0  0  0  0  0  0  0  0  0  0
    9.1710  -19.3671   16.7806 C   0  0  0  0  0  0  0  0  0  0  0  0
    9.4104  -18.0337   17.4952 C   0  0  0  0  0  0  0  0  0  0  0  0
   10.0088  -18.5139   18.7960 C   0  0  1  0  0  0  0  0  0  0  0  0
   10.0723  -17.4586   19.8108 C   0  0  0  0  0  0  0  0  0  0  0  0
   11.1709  -16.9834   20.1631 O   0  0  0  0  0  0  0  0  0  0  0  0
    7.5809  -12.2175   20.8431 C   0  0  0  0  0  0  0  0  0  0  0  0
    8.4192  -13.3450   21.3658 C   0  0  0  0  0  0  0  0  0  0  0  0
    8.0745  -14.6635   20.7000 C   0  0  2  0  0  0  0  0  0  0  0  0
    6.5947  -14.9215   20.7719 C   0  0  0  0  0  0  0  0  0  0  0  0
    8.8804  -15.8012   21.2834 C   0  0  2  0  0  0  0  0  0  0  0  0
    8.8746  -16.9615   20.4093 N   0  0  0  0  0  0  0  0  0  0  0  0
    8.3905  -16.1687   22.6415 C   0  0  0  0  0  0  0  0  0  0  0  0
    7.2671  -15.8608   23.0742 O   0  0  0  0  0  0  0  0  0  0  0  0
    9.2041  -16.9165   23.5509 N   0  0  0  0  0  0  0  0  0  0  0  0
    9.7668  -16.4304   24.7475 C   0  0  1  0  0  0  0  0  0  0  0  0
    9.5759  -14.9903   25.0600 C   0  0  0  0  0  0  0  0  0  0  0  0
    8.1786  -14.7072   25.4885 C   0  0  0  0  0  0  0  0  0  0  0  0
    7.0571  -15.4997   25.4436 C   0  0  0  0  0  0  0  0  0  0  0  0
    6.0020  -14.8044   25.9514 N   0  0  0  0  0  0  0  0  0  0  0  0
    6.4024  -13.5778   26.3276 C   0  0  0  0  0  0  0  0  0  0  0  0
    5.7404  -12.5055   26.8891 C   0  0  0  0  0  0  0  0  0  0  0  0
    6.3832  -11.3191   27.1943 C   0  0  0  0  0  0  0  0  0  0  0  0
    7.7316  -11.2346   26.9168 C   0  0  0  0  0  0  0  0  0  0  0  0
    8.3897  -12.3081   26.3557 C   0  0  0  0  0  0  0  0  0  0  0  0
    7.7491  -13.5026   26.0469 C   0  0  0  0  0  0  0  0  0  0  0  0
    9.2666  -17.2518   25.8727 C   0  0  0  0  0  0  0  0  0  0  0  0
    9.6600  -17.0625   27.1804 O   0  0  0  0  0  0  0  0  0  0  0  0
    8.4474  -18.1607   25.6199 O   0  0  0  0  0  0  0  0  0  0  0  0
  1  2  1  0
  3  2  1  0
  4  3  1  0
  5  4  1  0
  5  1  1  0
  5  6  1  1
  6 13  1  0
  7  6  2  0
  9  8  1  0
 10  9  1  0
 10 11  1  1
 12 13  1  6
 12 10  1  0
 14 16  1  0
 14 12  1  0
 15 14  2  0
 17 16  1  0
 17 28  1  0
 17 18  1  1
 19 18  1  0
 20 19  2  0
 21 22  1  0
 21 20  1  0
 22 27  2  0
 23 22  1  0
 23 24  2  0
 24 25  1  0
 25 26  2  0
 27 19  1  0
 27 26  1  0
 28 30  2  0
 28 29  1  0
M  END
$$$$
