PIW.pdb
     RDKit          3D

 30 32  0  0  1  0  0  0  0  0999 V2000
    9.0704  -14.8444   17.8613 N   0  0  0  0  0  0  0  0  0  0  0  0
    8.8670  -14.1071   16.6428 C   0  0  0  0  0  0  0  0  0  0  0  0
    8.1055  -12.8570   16.9823 C   0  0  0  0  0  0  0  0  0  0  0  0
    7.6811  -13.1091   18.4322 C   0  0  0  0  0  0  0  0  0  0  0  0
    8.8538  -13.9182   18.9331 C   0  0  1  0  0  0  0  0  0  0  0  0
    8.5879  -14.5558   20.2255 C   0  0  0  0  0  0  0  0  0  0  0  0
    8.2099  -13.8765   21.2015 O   0  0  0  0  0  0  0  0  0  0  0  0
    6.1397  -19.3826   19.9060 C   0  0  0  0  0  0  0  0  0  0  0  0
    6.6589  -18.0127   20.2238 C   0  0  0  0  0  0  0  0  0  0  0  0
    7.7982  -18.0564   21.2242 C   0  0  2  0  0  0  0  0  0  0  0  0
    7.3972  -18.8312   22.4491 C   0  0  0  0  0  0  0  0  0  0  0  0
    8.2857  -16.6665   21.5632 C   0  0  2  0  0  0  0  0  0  0  0  0
    8.7590  -15.9650   20.3826 N   0  0  0  0  0  0  0  0  0  0  0  0
    9.3479  -16.7068   22.6070 C   0  0  0  0  0  0  0  0  0  0  0  0
   10.4797  -17.1841   22.4187 O   0  0  0  0  0  0  0  0  0  0  0  0
    9.1230  -16.1856   23.9207 N   0  0  0  0  0  0  0  0  0  0  0  0
   10.0682  -16.1395   24.9644 C   0  0  1  0  0  0  0  0  0  0  0  0
    9.7491  -15.2915   26.1421 C   0  0  0  0  0  0  0  0  0  0  0  0
    8.2861  -15.0372   26.2490 C   0  0  0  0  0  0  0  0  0  0  0  0
    7.2289  -15.9148   26.2479 C   0  0  0  0  0  0  0  0  0  0  0  0
    6.0689  -15.2119   26.3703 N   0  0  0  0  0  0  0  0  0  0  0  0
    6.3381  -13.8975   26.4515 C   0  0  0  0  0  0  0  0  0  0  0  0
    5.5374  -12.7818   26.5828 C   0  0  0  0  0  0  0  0  0  0  0  0
    6.0594  -11.5022   26.6462 C   0  0  0  0  0  0  0  0  0  0  0  0
    7.4302  -11.3683   26.5731 C   0  0  0  0  0  0  0  0  0  0  0  0
    8.2271  -12.4854   26.4420 C   0  0  0  0  0  0  0  0  0  0  0  0
    7.7083  -13.7736   26.3777 C   0  0  0  0  0  0  0  0  0  0  0  0
   10.3464  -17.5230   25.4112 C   0  0  0  0  0  0  0  0  0  0  0  0
    9.5759  -18.6055   25.0434 O   0  0  0  0  0  0  0  0  0  0  0  0
   11.3291  -17.7144   26.1585 O   0  0  0  0  0  0  0  0  0  0  0  0
  1  2  1  0
  3  2  1  0
  4  3  1  0
  5  4  1  0
  5  1  1  0
  5  6  1  1
  6 13  1  0
  7  6  2  0
  9  8  1  0
 10  9  1  0
 10 11  1  1
 12 13  1  6
 12 10  1  0
 14 16  1  0
 14 12  1  0
 15 14  2  0
 17 16  1  0
 17 28  1  0
 17 18  1  1
 19 18  1  0
 20 19  2  0
 21 22  1  0
 21 20  1  0
 22 27  2  0
 23 22  1  0
 23 24  2  0
 24 25  1  0
 25 26  2  0
 27 19  1  0
 27 26  1  0
 28 30  2  0
 28 29  1  0
M  END
$$$$
