PIW.pdb
     RDKit          3D

 30 32  0  0  1  0  0  0  0  0999 V2000
    7.2510  -18.9852   20.8805 N   0  0  0  0  0  0  0  0  0  0  0  0
    6.2179  -19.7529   20.2380 C   0  0  0  0  0  0  0  0  0  0  0  0
    6.3245  -19.5206   18.7573 C   0  0  0  0  0  0  0  0  0  0  0  0
    7.3212  -18.3605   18.6732 C   0  0  0  0  0  0  0  0  0  0  0  0
    8.2043  -18.6604   19.8611 C   0  0  1  0  0  0  0  0  0  0  0  0
    9.0853  -17.5411   20.2054 C   0  0  0  0  0  0  0  0  0  0  0  0
   10.2547  -17.4985   19.7722 O   0  0  0  0  0  0  0  0  0  0  0  0
    6.9728  -12.3915   21.8880 C   0  0  0  0  0  0  0  0  0  0  0  0
    7.7620  -13.6334   22.1741 C   0  0  0  0  0  0  0  0  0  0  0  0
    8.6339  -14.0342   20.9995 C   0  0  2  0  0  0  0  0  0  0  0  0
    7.8106  -14.1566   19.7470 C   0  0  0  0  0  0  0  0  0  0  0  0
    9.4105  -15.2963   21.2967 C   0  0  2  0  0  0  0  0  0  0  0  0
    8.6141  -16.4843   21.0426 N   0  0  0  0  0  0  0  0  0  0  0  0
    9.9201  -15.2995   22.6966 C   0  0  0  0  0  0  0  0  0  0  0  0
   10.6517  -14.4106   23.1643 O   0  0  0  0  0  0  0  0  0  0  0  0
    9.5893  -16.3517   23.6084 N   0  0  0  0  0  0  0  0  0  0  0  0
    9.9699  -16.4212   24.9632 C   0  0  1  0  0  0  0  0  0  0  0  0
    8.9042  -16.6944   25.9620 C   0  0  0  0  0  0  0  0  0  0  0  0
    7.7392  -15.7861   25.7769 C   0  0  0  0  0  0  0  0  0  0  0  0
    6.4869  -16.0384   25.2713 C   0  0  0  0  0  0  0  0  0  0  0  0
    5.7568  -14.8892   25.3008 N   0  0  0  0  0  0  0  0  0  0  0  0
    6.4976  -13.8910   25.8121 C   0  0  0  0  0  0  0  0  0  0  0  0
    6.2375  -12.5578   26.0537 C   0  0  0  0  0  0  0  0  0  0  0  0
    7.1831  -11.7088   26.6002 C   0  0  0  0  0  0  0  0  0  0  0  0
    8.4187  -12.2411   26.9036 C   0  0  0  0  0  0  0  0  0  0  0  0
    8.6750  -13.5736   26.6609 C   0  0  0  0  0  0  0  0  0  0  0  0
    7.7289  -14.4316   26.1120 C   0  0  0  0  0  0  0  0  0  0  0  0
   11.0469  -17.4272   25.1003 C   0  0  0  0  0  0  0  0  0  0  0  0
   11.7934  -17.5837   26.2487 O   0  0  0  0  0  0  0  0  0  0  0  0
   11.2879  -18.1691   24.1243 O   0  0  0  0  0  0  0  0  0  0  0  0
  1  2  1  0
  3  2  1  0
  4  3  1  0
  5  4  1  0
  5  1  1  0
  5  6  1  1
  6 13  1  0
  7  6  2  0
  9  8  1  0
 10  9  1  0
 10 11  1  6
 12 13  1  1
 12 10  1  0
 14 16  1  0
 14 12  1  0
 15 14  2  0
 17 16  1  0
 17 28  1  0
 17 18  1  1
 19 18  1  0
 20 19  2  0
 21 22  1  0
 21 20  1  0
 22 27  2  0
 23 22  1  0
 23 24  2  0
 24 25  1  0
 25 26  2  0
 27 19  1  0
 27 26  1  0
 28 30  2  0
 28 29  1  0
M  END
$$$$
