PIW.pdb
     RDKit          3D

 30 32  0  0  1  0  0  0  0  0999 V2000
    7.4142  -19.4118   20.8254 N   0  0  0  0  0  0  0  0  0  0  0  0
    6.4411  -20.2364   20.1600 C   0  0  0  0  0  0  0  0  0  0  0  0
    6.3754  -19.8030   18.7227 C   0  0  0  0  0  0  0  0  0  0  0  0
    7.1903  -18.5061   18.7286 C   0  0  0  0  0  0  0  0  0  0  0  0
    8.2137  -18.8205   19.7937 C   0  0  1  0  0  0  0  0  0  0  0  0
    8.9604  -17.6357   20.2253 C   0  0  0  0  0  0  0  0  0  0  0  0
   10.1533  -17.4825   19.8930 O   0  0  0  0  0  0  0  0  0  0  0  0
    6.6303  -12.7542   19.8364 C   0  0  0  0  0  0  0  0  0  0  0  0
    7.6351  -13.8655   19.8866 C   0  0  0  0  0  0  0  0  0  0  0  0
    8.0094  -14.2274   21.3112 C   0  0  2  0  0  0  0  0  0  0  0  0
    8.5318  -13.0222   22.0434 C   0  0  0  0  0  0  0  0  0  0  0  0
    8.9834  -15.3825   21.3473 C   0  0  2  0  0  0  0  0  0  0  0  0
    8.3294  -16.6410   21.0330 N   0  0  0  0  0  0  0  0  0  0  0  0
    9.6715  -15.4673   22.6659 C   0  0  0  0  0  0  0  0  0  0  0  0
   10.5694  -14.6867   23.0247 O   0  0  0  0  0  0  0  0  0  0  0  0
    9.3314  -16.4770   23.6213 N   0  0  0  0  0  0  0  0  0  0  0  0
    9.8901  -16.6201   24.9067 C   0  0  1  0  0  0  0  0  0  0  0  0
    9.6943  -15.5041   25.8680 C   0  0  0  0  0  0  0  0  0  0  0  0
    8.2749  -15.0559   25.8995 C   0  0  0  0  0  0  0  0  0  0  0  0
    7.1186  -15.7460   25.6266 C   0  0  0  0  0  0  0  0  0  0  0  0
    6.0548  -14.9119   25.7918 N   0  0  0  0  0  0  0  0  0  0  0  0
    6.4835  -13.6941   26.1657 C   0  0  0  0  0  0  0  0  0  0  0  0
    5.8268  -12.5160   26.4557 C   0  0  0  0  0  0  0  0  0  0  0  0
    6.5020  -11.3669   26.8266 C   0  0  0  0  0  0  0  0  0  0  0  0
    7.8777  -11.4312   26.9004 C   0  0  0  0  0  0  0  0  0  0  0  0
    8.5304  -12.6100   26.6099 C   0  0  0  0  0  0  0  0  0  0  0  0
    7.8575  -13.7678   26.2367 C   0  0  0  0  0  0  0  0  0  0  0  0
    9.3898  -17.8798   25.5017 C   0  0  0  0  0  0  0  0  0  0  0  0
    8.5800  -18.7664   24.8243 O   0  0  0  0  0  0  0  0  0  0  0  0
    9.7204  -18.1486   26.6761 O   0  0  0  0  0  0  0  0  0  0  0  0
  1  2  1  0
  3  2  1  0
  4  3  1  0
  5  4  1  0
  5  1  1  0
  5  6  1  1
  6 13  1  0
  7  6  2  0
  9  8  1  0
 10  9  1  0
 10 11  1  6
 12 13  1  1
 12 10  1  0
 14 16  1  0
 14 12  1  0
 15 14  2  0
 17 16  1  0
 17 28  1  0
 17 18  1  1
 19 18  1  0
 20 19  2  0
 21 22  1  0
 21 20  1  0
 22 27  2  0
 23 22  1  0
 23 24  2  0
 24 25  1  0
 25 26  2  0
 27 19  1  0
 27 26  1  0
 28 30  2  0
 28 29  1  0
M  END
$$$$
