PIW.pdb
     RDKit          3D

 30 32  0  0  1  0  0  0  0  0999 V2000
   10.8106  -18.2116   17.8714 N   0  0  0  0  0  0  0  0  0  0  0  0
   10.7911  -19.5287   17.2930 C   0  0  0  0  0  0  0  0  0  0  0  0
   10.0132  -20.4252   18.2144 C   0  0  0  0  0  0  0  0  0  0  0  0
    9.8453  -19.5541   19.4630 C   0  0  0  0  0  0  0  0  0  0  0  0
    9.7547  -18.1815   18.8396 C   0  0  1  0  0  0  0  0  0  0  0  0
    9.8824  -17.1050   19.8257 C   0  0  0  0  0  0  0  0  0  0  0  0
   11.0076  -16.6823   20.1604 O   0  0  0  0  0  0  0  0  0  0  0  0
    6.8935  -12.6731   19.8157 C   0  0  0  0  0  0  0  0  0  0  0  0
    7.9778  -13.6835   20.0409 C   0  0  0  0  0  0  0  0  0  0  0  0
    7.7721  -14.4581   21.3286 C   0  0  2  0  0  0  0  0  0  0  0  0
    7.7467  -13.5259   22.5085 C   0  0  0  0  0  0  0  0  0  0  0  0
    8.8072  -15.5481   21.4858 C   0  0  2  0  0  0  0  0  0  0  0  0
    8.7175  -16.5264   20.4158 N   0  0  0  0  0  0  0  0  0  0  0  0
    8.6917  -16.2147   22.8131 C   0  0  0  0  0  0  0  0  0  0  0  0
    7.6077  -16.4446   23.3755 O   0  0  0  0  0  0  0  0  0  0  0  0
    9.8503  -16.6405   23.5373 N   0  0  0  0  0  0  0  0  0  0  0  0
   10.1039  -16.4048   24.9030 C   0  0  1  0  0  0  0  0  0  0  0  0
    9.9384  -15.0148   25.4016 C   0  0  0  0  0  0  0  0  0  0  0  0
    8.5153  -14.7176   25.7220 C   0  0  0  0  0  0  0  0  0  0  0  0
    7.4128  -15.5375   25.7160 C   0  0  0  0  0  0  0  0  0  0  0  0
    6.3194  -14.8133   26.0829 N   0  0  0  0  0  0  0  0  0  0  0  0
    6.6763  -13.5410   26.3290 C   0  0  0  0  0  0  0  0  0  0  0  0
    5.9656  -12.4264   26.7236 C   0  0  0  0  0  0  0  0  0  0  0  0
    6.5691  -11.1965   26.9163 C   0  0  0  0  0  0  0  0  0  0  0  0
    7.9285  -11.1121   26.6990 C   0  0  0  0  0  0  0  0  0  0  0  0
    8.6353  -12.2280   26.3047 C   0  0  0  0  0  0  0  0  0  0  0  0
    8.0344  -13.4663   26.1095 C   0  0  0  0  0  0  0  0  0  0  0  0
    9.2631  -17.3219   25.7048 C   0  0  0  0  0  0  0  0  0  0  0  0
    8.4139  -18.2527   25.1450 O   0  0  0  0  0  0  0  0  0  0  0  0
    9.3296  -17.2452   26.9500 O   0  0  0  0  0  0  0  0  0  0  0  0
  1  2  1  0
  3  2  1  0
  4  3  1  0
  5  4  1  0
  5  1  1  0
  5  6  1  1
  6 13  1  0
  7  6  2  0
  9  8  1  0
 10  9  1  0
 10 11  1  1
 12 13  1  6
 12 10  1  0
 14 16  1  0
 14 12  1  0
 15 14  2  0
 17 16  1  0
 17 28  1  0
 17 18  1  1
 19 18  1  0
 20 19  2  0
 21 22  1  0
 21 20  1  0
 22 27  2  0
 23 22  1  0
 23 24  2  0
 24 25  1  0
 25 26  2  0
 27 19  1  0
 27 26  1  0
 28 30  2  0
 28 29  1  0
M  END
$$$$
