PLL.pdb
     RDKit          3D

 24 24  0  0  1  0  0  0  0  0999 V2000
   28.2919  -18.6519  -12.3537 N   0  0  0  0  0  0  0  0  0  0  0  0
   28.6207  -17.9697  -13.5807 C   0  0  0  0  0  0  0  0  0  0  0  0
   28.5397  -18.9663  -14.6908 C   0  0  0  0  0  0  0  0  0  0  0  0
   27.8798  -20.1921  -14.1068 C   0  0  0  0  0  0  0  0  0  0  0  0
   27.5652  -19.8304  -12.6738 C   0  0  1  0  0  0  0  0  0  0  0  0
   27.9169  -20.9834  -11.7819 C   0  0  0  0  0  0  0  0  0  0  0  0
   27.2918  -22.0680  -11.9058 O   0  0  0  0  0  0  0  0  0  0  0  0
   31.2172  -23.0949  -11.9674 C   0  0  0  0  0  0  0  0  0  0  0  0
   31.5215  -21.9049  -11.0383 C   0  0  2  0  0  0  0  0  0  0  0  0
   33.0200  -21.9221  -10.8296 C   0  0  0  0  0  0  0  0  0  0  0  0
   30.7563  -22.1394   -9.7872 C   0  0  0  0  0  0  0  0  0  0  0  0
   29.2774  -21.9565   -9.8754 C   0  0  2  0  0  0  0  0  0  0  0  0
   28.9418  -20.8713  -10.8018 N   0  0  0  0  0  0  0  0  0  0  0  0
   28.5814  -21.7913   -8.5927 C   0  0  0  0  0  0  0  0  0  0  0  0
   28.5755  -22.7009   -7.7569 O   0  0  0  0  0  0  0  0  0  0  0  0
   28.7399  -18.0993   -4.8655 C   0  0  0  0  0  0  0  0  0  0  0  0
   28.5474  -19.3985   -5.6327 C   0  0  1  0  0  0  0  0  0  0  0  0
   28.6490  -20.5213   -4.6200 C   0  0  0  0  0  0  0  0  0  0  0  0
   27.1767  -19.3354   -6.2603 C   0  0  0  0  0  0  0  0  0  0  0  0
   26.9101  -20.5211   -7.1664 C   0  0  2  0  0  0  0  0  0  0  0  0
   27.8808  -20.5954   -8.2340 N   0  0  0  0  0  0  0  0  0  0  0  0
   25.5724  -20.3632   -7.7593 C   0  0  0  0  0  0  0  0  0  0  0  0
   24.4479  -20.5598   -6.9923 O   0  0  0  0  0  0  0  0  0  0  0  0
   25.4547  -20.0498   -8.9629 O   0  0  0  0  0  0  0  0  0  0  0  0
  1  2  1  0
  3  2  1  0
  4  3  1  0
  5  4  1  0
  5  1  1  0
  6  7  2  0
  5  6  1  1
  9  8  1  6
  9 11  1  0
  9 10  1  0
 12 11  1  1
 12 13  1  0
 13  6  1  0
 14 12  1  0
 14 15  2  0
 17 16  1  1
 17 18  1  0
 17 19  1  0
 20 21  1  0
 20 19  1  1
 21 14  1  0
 22 20  1  0
 23 22  1  0
 24 22  2  0
M  END
$$$$
