PLL.pdb
     RDKit          3D

 24 24  0  0  1  0  0  0  0  0999 V2000
   24.8241  -12.3601  -15.5474 N   0  0  0  0  0  0  0  0  0  0  0  0
   25.1479  -13.7638  -15.4857 C   0  0  0  0  0  0  0  0  0  0  0  0
   24.4097  -14.4497  -16.5887 C   0  0  0  0  0  0  0  0  0  0  0  0
   23.8609  -13.3543  -17.4707 C   0  0  0  0  0  0  0  0  0  0  0  0
   24.3484  -12.0642  -16.8534 C   0  0  1  0  0  0  0  0  0  0  0  0
   23.2312  -11.0640  -16.8458 C   0  0  0  0  0  0  0  0  0  0  0  0
   22.7822  -10.6372  -17.9406 O   0  0  0  0  0  0  0  0  0  0  0  0
   18.9699   -9.9879  -16.9735 C   0  0  0  0  0  0  0  0  0  0  0  0
   19.5338  -10.9493  -15.9107 C   0  0  2  0  0  0  0  0  0  0  0  0
   18.3278  -11.5575  -15.2288 C   0  0  0  0  0  0  0  0  0  0  0  0
   20.3668  -10.1270  -14.9966 C   0  0  0  0  0  0  0  0  0  0  0  0
   21.6246   -9.5685  -15.5750 C   0  0  2  0  0  0  0  0  0  0  0  0
   22.6730  -10.5916  -15.6256 N   0  0  0  0  0  0  0  0  0  0  0  0
   22.1182   -8.3358  -14.9475 C   0  0  0  0  0  0  0  0  0  0  0  0
   22.5790   -8.3525  -13.8015 O   0  0  0  0  0  0  0  0  0  0  0  0
   23.8739   -4.1651  -18.2239 C   0  0  0  0  0  0  0  0  0  0  0  0
   23.7950   -5.2801  -17.1925 C   0  0  1  0  0  0  0  0  0  0  0  0
   25.2044   -5.5008  -16.6812 C   0  0  0  0  0  0  0  0  0  0  0  0
   22.8737   -4.7983  -16.0989 C   0  0  0  0  0  0  0  0  0  0  0  0
   22.6496   -5.8557  -15.0361 C   0  0  2  0  0  0  0  0  0  0  0  0
   22.0988   -7.0642  -15.6051 N   0  0  0  0  0  0  0  0  0  0  0  0
   21.6973   -5.3272  -14.0463 C   0  0  0  0  0  0  0  0  0  0  0  0
   22.1189   -4.4361  -13.0875 O   0  0  0  0  0  0  0  0  0  0  0  0
   20.5013   -5.6873  -14.0746 O   0  0  0  0  0  0  0  0  0  0  0  0
  1  2  1  0
  3  2  1  0
  4  3  1  0
  5  4  1  0
  5  1  1  0
  6  7  2  0
  5  6  1  1
  9  8  1  6
  9 11  1  0
  9 10  1  0
 12 11  1  1
 12 13  1  0
 13  6  1  0
 14 12  1  0
 14 15  2  0
 17 16  1  6
 17 18  1  0
 17 19  1  0
 20 21  1  0
 20 19  1  6
 21 14  1  0
 22 20  1  0
 23 22  1  0
 24 22  2  0
M  END
$$$$
