PLL.pdb
     RDKit          3D

 24 24  0  0  1  0  0  0  0  0999 V2000
   28.2940  -21.1511  -15.3808 N   0  0  0  0  0  0  0  0  0  0  0  0
   28.6955  -20.3827  -16.5329 C   0  0  0  0  0  0  0  0  0  0  0  0
   28.0474  -19.0403  -16.4325 C   0  0  0  0  0  0  0  0  0  0  0  0
   27.4755  -18.9538  -15.0381 C   0  0  0  0  0  0  0  0  0  0  0  0
   27.8598  -20.2528  -14.3687 C   0  0  1  0  0  0  0  0  0  0  0  0
   26.6874  -20.7795  -13.5964 C   0  0  0  0  0  0  0  0  0  0  0  0
   26.0372  -21.7533  -14.0560 O   0  0  0  0  0  0  0  0  0  0  0  0
   26.2366  -22.0219   -9.1319 C   0  0  0  0  0  0  0  0  0  0  0  0
   26.3612  -20.5160   -9.4293 C   0  0  2  0  0  0  0  0  0  0  0  0
   26.4321  -19.8372   -8.0790 C   0  0  0  0  0  0  0  0  0  0  0  0
   25.1549  -20.1381  -10.2088 C   0  0  0  0  0  0  0  0  0  0  0  0
   25.1050  -20.6205  -11.6207 C   0  0  2  0  0  0  0  0  0  0  0  0
   26.2998  -20.1981  -12.3572 N   0  0  0  0  0  0  0  0  0  0  0  0
   23.8814  -20.2873  -12.3615 C   0  0  0  0  0  0  0  0  0  0  0  0
   23.7268  -19.1636  -12.8506 O   0  0  0  0  0  0  0  0  0  0  0  0
   20.5697  -20.4396  -16.1832 C   0  0  0  0  0  0  0  0  0  0  0  0
   20.3414  -21.7144  -15.3856 C   0  0  1  0  0  0  0  0  0  0  0  0
   20.1446  -22.8291  -16.3932 C   0  0  0  0  0  0  0  0  0  0  0  0
   21.5770  -21.9317  -14.5473 C   0  0  0  0  0  0  0  0  0  0  0  0
   21.6599  -20.9547  -13.3912 C   0  0  2  0  0  0  0  0  0  0  0  0
   22.8128  -21.2189  -12.5615 N   0  0  0  0  0  0  0  0  0  0  0  0
   20.4477  -21.1009  -12.5696 C   0  0  0  0  0  0  0  0  0  0  0  0
   20.5255  -21.6570  -11.3142 O   0  0  0  0  0  0  0  0  0  0  0  0
   19.3430  -20.7196  -13.0112 O   0  0  0  0  0  0  0  0  0  0  0  0
  1  2  1  0
  3  2  1  0
  4  3  1  0
  5  4  1  0
  5  1  1  0
  6  7  2  0
  5  6  1  6
  9  8  1  1
  9 11  1  0
  9 10  1  0
 12 11  1  1
 12 13  1  0
 13  6  1  0
 14 12  1  0
 14 15  2  0
 17 16  1  6
 17 18  1  0
 17 19  1  0
 20 21  1  0
 20 19  1  6
 21 14  1  0
 22 20  1  0
 23 22  1  0
 24 22  2  0
M  END
$$$$
