PLL.pdb
     RDKit          3D

 24 24  0  0  1  0  0  0  0  0999 V2000
   27.2642  -19.8048  -14.8442 N   0  0  0  0  0  0  0  0  0  0  0  0
   28.5203  -19.5398  -15.5007 C   0  0  0  0  0  0  0  0  0  0  0  0
   29.4148  -20.7122  -15.2608 C   0  0  0  0  0  0  0  0  0  0  0  0
   28.5402  -21.7944  -14.6754 C   0  0  0  0  0  0  0  0  0  0  0  0
   27.1487  -21.2065  -14.6406 C   0  0  1  0  0  0  0  0  0  0  0  0
   26.4985  -21.5462  -13.3328 C   0  0  0  0  0  0  0  0  0  0  0  0
   25.9550  -22.6718  -13.1918 O   0  0  0  0  0  0  0  0  0  0  0  0
   26.1580  -19.0615   -7.7009 C   0  0  0  0  0  0  0  0  0  0  0  0
   25.8251  -20.3192   -8.5252 C   0  0  2  0  0  0  0  0  0  0  0  0
   26.4550  -21.4751   -7.7794 C   0  0  0  0  0  0  0  0  0  0  0  0
   26.4104  -20.1076   -9.8736 C   0  0  0  0  0  0  0  0  0  0  0  0
   25.7908  -20.8817  -10.9896 C   0  0  2  0  0  0  0  0  0  0  0  0
   26.4864  -20.6201  -12.2530 N   0  0  0  0  0  0  0  0  0  0  0  0
   24.3389  -20.7222  -11.1422 C   0  0  0  0  0  0  0  0  0  0  0  0
   23.5879  -20.8201  -10.1663 O   0  0  0  0  0  0  0  0  0  0  0  0
   20.5275  -18.0002  -15.1644 C   0  0  0  0  0  0  0  0  0  0  0  0
   20.6156  -18.9839  -14.0077 C   0  0  1  0  0  0  0  0  0  0  0  0
   19.8771  -20.2339  -14.4420 C   0  0  0  0  0  0  0  0  0  0  0  0
   22.0818  -19.2542  -13.7756 C   0  0  0  0  0  0  0  0  0  0  0  0
   22.3154  -20.1102  -12.5466 C   0  0  2  0  0  0  0  0  0  0  0  0
   23.7122  -20.4494  -12.4002 N   0  0  0  0  0  0  0  0  0  0  0  0
   21.5436  -21.3548  -12.6917 C   0  0  0  0  0  0  0  0  0  0  0  0
   20.3499  -21.5103  -12.0267 O   0  0  0  0  0  0  0  0  0  0  0  0
   21.9714  -22.2748  -13.4206 O   0  0  0  0  0  0  0  0  0  0  0  0
  1  2  1  0
  3  2  1  0
  4  3  1  0
  5  4  1  0
  5  1  1  0
  6  7  2  0
  5  6  1  1
  9  8  1  1
  9 11  1  0
  9 10  1  0
 12 11  1  1
 12 13  1  0
 13  6  1  0
 14 12  1  0
 14 15  2  0
 17 16  1  6
 17 18  1  0
 17 19  1  0
 20 21  1  0
 20 19  1  6
 21 14  1  0
 22 20  1  0
 23 22  1  0
 24 22  2  0
M  END
$$$$
