PLL.pdb
     RDKit          3D

 24 24  0  0  1  0  0  0  0  0999 V2000
   21.9115  -22.0217  -14.3912 N   0  0  0  0  0  0  0  0  0  0  0  0
   20.4844  -22.1886  -14.2698 C   0  0  0  0  0  0  0  0  0  0  0  0
   20.0828  -21.6980  -12.9170 C   0  0  0  0  0  0  0  0  0  0  0  0
   21.2866  -20.9798  -12.3567 C   0  0  0  0  0  0  0  0  0  0  0  0
   22.3342  -21.0510  -13.4433 C   0  0  1  0  0  0  0  0  0  0  0  0
   23.6622  -21.3841  -12.8318 C   0  0  0  0  0  0  0  0  0  0  0  0
   23.9831  -22.5910  -12.6816 O   0  0  0  0  0  0  0  0  0  0  0  0
   29.2943  -19.3393  -12.6978 C   0  0  0  0  0  0  0  0  0  0  0  0
   28.3361  -20.3595  -12.0552 C   0  0  2  0  0  0  0  0  0  0  0  0
   28.7721  -21.7125  -12.5736 C   0  0  0  0  0  0  0  0  0  0  0  0
   26.9662  -19.9835  -12.4884 C   0  0  0  0  0  0  0  0  0  0  0  0
   25.8412  -20.6457  -11.7644 C   0  0  2  0  0  0  0  0  0  0  0  0
   24.5616  -20.3616  -12.4204 N   0  0  0  0  0  0  0  0  0  0  0  0
   25.7683  -20.3747  -10.3228 C   0  0  0  0  0  0  0  0  0  0  0  0
   25.0009  -19.5133   -9.8812 O   0  0  0  0  0  0  0  0  0  0  0  0
   27.1827  -20.7963   -4.9890 C   0  0  0  0  0  0  0  0  0  0  0  0
   28.2226  -20.5059   -6.0603 C   0  0  1  0  0  0  0  0  0  0  0  0
   29.5585  -20.9555   -5.5036 C   0  0  0  0  0  0  0  0  0  0  0  0
   27.8285  -21.3044   -7.2785 C   0  0  0  0  0  0  0  0  0  0  0  0
   26.5903  -20.7445   -7.9503 C   0  0  2  0  0  0  0  0  0  0  0  0
   26.5615  -21.0731   -9.3569 N   0  0  0  0  0  0  0  0  0  0  0  0
   26.6068  -19.2794   -7.8114 C   0  0  0  0  0  0  0  0  0  0  0  0
   25.6860  -18.6502   -7.0067 O   0  0  0  0  0  0  0  0  0  0  0  0
   27.4586  -18.6025   -8.4251 O   0  0  0  0  0  0  0  0  0  0  0  0
  1  2  1  0
  3  2  1  0
  4  3  1  0
  5  4  1  0
  5  1  1  0
  6  7  2  0
  5  6  1  1
  9  8  1  6
  9 11  1  0
  9 10  1  0
 12 11  1  6
 12 13  1  0
 13  6  1  0
 14 12  1  0
 14 15  2  0
 17 16  1  1
 17 18  1  0
 17 19  1  0
 20 21  1  0
 20 19  1  6
 21 14  1  0
 22 20  1  0
 23 22  1  0
 24 22  2  0
M  END
$$$$
