PLL.pdb
     RDKit          3D

 24 24  0  0  1  0  0  0  0  0999 V2000
   26.8958  -22.0636  -18.0340 N   0  0  0  0  0  0  0  0  0  0  0  0
   27.5821  -22.1680  -19.2978 C   0  0  0  0  0  0  0  0  0  0  0  0
   29.0474  -22.2382  -19.0151 C   0  0  0  0  0  0  0  0  0  0  0  0
   29.1777  -22.4521  -17.5264 C   0  0  0  0  0  0  0  0  0  0  0  0
   27.7599  -22.5396  -17.0112 C   0  0  1  0  0  0  0  0  0  0  0  0
   27.6423  -21.7471  -15.7437 C   0  0  0  0  0  0  0  0  0  0  0  0
   28.3729  -22.0447  -14.7638 O   0  0  0  0  0  0  0  0  0  0  0  0
   28.3774  -17.5870  -15.2963 C   0  0  0  0  0  0  0  0  0  0  0  0
   26.9506  -17.8017  -15.8348 C   0  0  2  0  0  0  0  0  0  0  0  0
   26.4297  -16.4221  -16.1733 C   0  0  0  0  0  0  0  0  0  0  0  0
   26.1842  -18.4635  -14.7484 C   0  0  0  0  0  0  0  0  0  0  0  0
   26.5874  -19.8617  -14.4151 C   0  0  2  0  0  0  0  0  0  0  0  0
   26.7218  -20.6683  -15.6315 N   0  0  0  0  0  0  0  0  0  0  0  0
   25.7503  -20.5424  -13.4186 C   0  0  0  0  0  0  0  0  0  0  0  0
   24.8216  -21.2766  -13.7712 O   0  0  0  0  0  0  0  0  0  0  0  0
   26.0742  -20.3859   -7.3833 C   0  0  0  0  0  0  0  0  0  0  0  0
   25.1997  -20.4068   -8.6276 C   0  0  1  0  0  0  0  0  0  0  0  0
   24.9766  -18.9621   -9.0272 C   0  0  0  0  0  0  0  0  0  0  0  0
   25.9628  -21.1666   -9.6844 C   0  0  0  0  0  0  0  0  0  0  0  0
   25.2369  -21.1756  -11.0152 C   0  0  2  0  0  0  0  0  0  0  0  0
   25.9494  -20.4042  -12.0076 N   0  0  0  0  0  0  0  0  0  0  0  0
   23.9057  -20.5780  -10.8240 C   0  0  0  0  0  0  0  0  0  0  0  0
   22.9141  -21.2865  -10.1866 O   0  0  0  0  0  0  0  0  0  0  0  0
   23.6724  -19.4237  -11.2410 O   0  0  0  0  0  0  0  0  0  0  0  0
  1  2  1  0
  3  2  1  0
  4  3  1  0
  5  4  1  0
  5  1  1  0
  6  7  2  0
  5  6  1  1
  9  8  1  1
  9 11  1  0
  9 10  1  0
 12 11  1  6
 12 13  1  0
 13  6  1  0
 14 12  1  0
 14 15  2  0
 17 16  1  1
 17 18  1  0
 17 19  1  0
 20 21  1  0
 20 19  1  1
 21 14  1  0
 22 20  1  0
 23 22  1  0
 24 22  2  0
M  END
$$$$
