PLL.pdb
     RDKit          3D

 24 24  0  0  1  0  0  0  0  0999 V2000
   27.2877  -19.7348  -15.9813 N   0  0  0  0  0  0  0  0  0  0  0  0
   28.6204  -19.4302  -16.4397 C   0  0  0  0  0  0  0  0  0  0  0  0
   29.4993  -20.5839  -16.0812 C   0  0  0  0  0  0  0  0  0  0  0  0
   28.5756  -21.6952  -15.6447 C   0  0  0  0  0  0  0  0  0  0  0  0
   27.1797  -21.1417  -15.8122 C   0  0  1  0  0  0  0  0  0  0  0  0
   26.3507  -21.5158  -14.6200 C   0  0  0  0  0  0  0  0  0  0  0  0
   26.0568  -22.7243  -14.4319 O   0  0  0  0  0  0  0  0  0  0  0  0
   25.7743  -19.5251   -8.9558 C   0  0  0  0  0  0  0  0  0  0  0  0
   25.3737  -20.6252   -9.9564 C   0  0  2  0  0  0  0  0  0  0  0  0
   26.1349  -21.8616   -9.5308 C   0  0  0  0  0  0  0  0  0  0  0  0
   25.7648  -20.1348  -11.3025 C   0  0  0  0  0  0  0  0  0  0  0  0
   25.1808  -20.8662  -12.4655 C   0  0  2  0  0  0  0  0  0  0  0  0
   25.8929  -20.5304  -13.7019 N   0  0  0  0  0  0  0  0  0  0  0  0
   23.7287  -20.7279  -12.6370 C   0  0  0  0  0  0  0  0  0  0  0  0
   22.9708  -20.7837  -11.6633 O   0  0  0  0  0  0  0  0  0  0  0  0
   21.6983  -17.9307  -17.0434 C   0  0  0  0  0  0  0  0  0  0  0  0
   21.9794  -18.3690  -15.6143 C   0  0  1  0  0  0  0  0  0  0  0  0
   21.3083  -17.3563  -14.7084 C   0  0  0  0  0  0  0  0  0  0  0  0
   21.3802  -19.7445  -15.4541 C   0  0  0  0  0  0  0  0  0  0  0  0
   21.6883  -20.3453  -14.0969 C   0  0  2  0  0  0  0  0  0  0  0  0
   23.1100  -20.5245  -13.9120 N   0  0  0  0  0  0  0  0  0  0  0  0
   21.0348  -21.6612  -14.0104 C   0  0  0  0  0  0  0  0  0  0  0  0
   19.7031  -21.7521  -13.6797 O   0  0  0  0  0  0  0  0  0  0  0  0
   21.6894  -22.7007  -14.2376 O   0  0  0  0  0  0  0  0  0  0  0  0
  1  2  1  0
  3  2  1  0
  4  3  1  0
  5  4  1  0
  5  1  1  0
  6  7  2  0
  5  6  1  1
  9  8  1  1
  9 11  1  0
  9 10  1  0
 12 11  1  1
 12 13  1  0
 13  6  1  0
 14 12  1  0
 14 15  2  0
 17 16  1  6
 17 18  1  0
 17 19  1  0
 20 21  1  0
 20 19  1  6
 21 14  1  0
 22 20  1  0
 23 22  1  0
 24 22  2  0
M  END
$$$$
