PLL.pdb
     RDKit          3D

 24 24  0  0  1  0  0  0  0  0999 V2000
   23.9190  -19.5052  -12.3785 N   0  0  0  0  0  0  0  0  0  0  0  0
   23.1088  -19.8706  -13.5138 C   0  0  0  0  0  0  0  0  0  0  0  0
   22.4743  -21.1895  -13.2139 C   0  0  0  0  0  0  0  0  0  0  0  0
   22.7216  -21.4503  -11.7477 C   0  0  0  0  0  0  0  0  0  0  0  0
   23.4630  -20.2330  -11.2462 C   0  0  1  0  0  0  0  0  0  0  0  0
   24.5853  -20.6685  -10.3521 C   0  0  0  0  0  0  0  0  0  0  0  0
   24.3393  -21.4414   -9.3907 O   0  0  0  0  0  0  0  0  0  0  0  0
   27.9404  -22.5272  -11.9423 C   0  0  0  0  0  0  0  0  0  0  0  0
   28.2336  -21.0153  -11.9316 C   0  0  2  0  0  0  0  0  0  0  0  0
   29.5391  -20.8469  -12.6775 C   0  0  0  0  0  0  0  0  0  0  0  0
   28.3214  -20.6121  -10.5050 C   0  0  0  0  0  0  0  0  0  0  0  0
   27.0445  -20.6412   -9.7322 C   0  0  2  0  0  0  0  0  0  0  0  0
   25.9184  -20.2236  -10.5724 N   0  0  0  0  0  0  0  0  0  0  0  0
   27.0563  -19.9071   -8.4602 C   0  0  0  0  0  0  0  0  0  0  0  0
   26.5440  -18.7864   -8.3744 O   0  0  0  0  0  0  0  0  0  0  0  0
   26.4202  -22.0480   -3.4377 C   0  0  0  0  0  0  0  0  0  0  0  0
   26.3423  -21.0801   -4.6085 C   0  0  1  0  0  0  0  0  0  0  0  0
   25.3758  -19.9850   -4.2045 C   0  0  0  0  0  0  0  0  0  0  0  0
   27.7358  -20.5431   -4.8240 C   0  0  0  0  0  0  0  0  0  0  0  0
   27.8221  -19.6603   -6.0532 C   0  0  2  0  0  0  0  0  0  0  0  0
   27.6475  -20.4278   -7.2648 N   0  0  0  0  0  0  0  0  0  0  0  0
   29.1529  -19.0325   -6.0838 C   0  0  0  0  0  0  0  0  0  0  0  0
   29.4737  -18.0464   -5.1805 O   0  0  0  0  0  0  0  0  0  0  0  0
   29.9959  -19.3944   -6.9318 O   0  0  0  0  0  0  0  0  0  0  0  0
  1  2  1  0
  3  2  1  0
  4  3  1  0
  5  4  1  0
  5  1  1  0
  6  7  2  0
  5  6  1  1
  9  8  1  1
  9 11  1  0
  9 10  1  0
 12 11  1  6
 12 13  1  0
 13  6  1  0
 14 12  1  0
 14 15  2  0
 17 16  1  1
 17 18  1  0
 17 19  1  0
 20 21  1  0
 20 19  1  1
 21 14  1  0
 22 20  1  0
 23 22  1  0
 24 22  2  0
M  END
$$$$
