HRD.pdb
     RDKit          3D

 30 30  0  0  1  0  0  0  0  0999 V2000
   24.2794  -17.4602  -17.3748 N   0  0  0  0  0  0  0  0  0  0  0  0
   24.1181  -16.1022  -16.8372 C   0  0  1  0  0  0  0  0  0  0  0  0
   25.2460  -15.3154  -17.4758 C   0  0  0  0  0  0  0  0  0  0  0  0
   26.5140  -15.8094  -16.8817 C   0  0  0  0  0  0  0  0  0  0  0  0
   27.5498  -16.5168  -17.4640 C   0  0  0  0  0  0  0  0  0  0  0  0
   28.5078  -16.7620  -16.5610 N   0  0  0  0  0  0  0  0  0  0  0  0
   28.1200  -16.2296  -15.4022 C   0  0  0  0  0  0  0  0  0  0  0  0
   26.9120  -15.6496  -15.5864 N   0  0  0  0  0  0  0  0  0  0  0  0
   22.7909  -15.6179  -17.2466 C   0  0  0  0  0  0  0  0  0  0  0  0
   22.3947  -15.8679  -18.4056 O   0  0  0  0  0  0  0  0  0  0  0  0
   16.8449  -18.9369  -13.4565 N   0  0  0  0  0  0  0  0  0  0  0  0
   17.9198  -18.3641  -12.7521 C   0  0  0  0  0  0  0  0  0  0  0  0
   18.1121  -18.6628  -11.5055 N   0  0  0  0  0  0  0  0  0  0  0  0
   18.8228  -17.4507  -13.3595 N   0  0  0  0  0  0  0  0  0  0  0  0
   18.6200  -16.9640  -14.7051 C   0  0  0  0  0  0  0  0  0  0  0  0
   19.6667  -15.9397  -15.1073 C   0  0  0  0  0  0  0  0  0  0  0  0
   19.5149  -15.4426  -16.5139 C   0  0  0  0  0  0  0  0  0  0  0  0
   20.5686  -14.4912  -16.8819 C   0  0  2  0  0  0  0  0  0  0  0  0
   21.9032  -14.8843  -16.4463 N   0  0  0  0  0  0  0  0  0  0  0  0
   20.3277  -13.1548  -16.3077 C   0  0  0  0  0  0  0  0  0  0  0  0
   20.7404  -12.8625  -15.1696 O   0  0  0  0  0  0  0  0  0  0  0  0
   18.9245  -18.3559  -10.9510 N   0  0  0  0  0  0  0  0  0  0  0  0
   19.6203  -12.1271  -17.0011 C   0  0  2  0  0  0  0  0  0  0  0  0
   19.2787  -10.8557  -16.3957 C   0  0  0  0  0  0  0  0  0  0  0  0
   18.5707  -10.0312  -17.4646 C   0  0  0  0  0  0  0  0  0  0  0  0
   18.3240   -8.6621  -16.9658 O   0  0  0  0  0  0  0  0  0  0  0  0
   17.6416   -8.4931  -15.9056 C   0  0  0  0  0  0  0  0  0  0  0  0
   18.3846  -11.0213  -15.2389 O   0  0  0  0  0  0  0  0  0  0  0  0
   18.4994  -10.1640  -14.1623 O   0  0  0  0  0  0  0  0  0  0  0  0
   18.8247   -7.5635  -17.6384 O   0  0  0  0  0  0  0  0  0  0  0  0
  2  1  1  6
  2  3  1  0
  2  9  1  0
  3  4  1  0
  4  5  2  0
  4  8  1  0
  5  6  1  0
  6  7  1  0
  8  7  2  0
  9 10  2  0
 12 11  1  0
 12 14  1  0
 13 12  2  0
 15 14  1  0
 15 16  1  0
 18 17  1  1
 17 16  1  0
 19  9  1  0
 19 18  1  0
 20 21  2  0
 20 18  1  0
 22 20  1  0
 23 27  1  0
 23 22  1  0
 23 24  1  6
 25 24  1  0
 25 26  2  0
 27 28  1  0
 29 25  1  0
 30 27  2  0
M  END
$$$$
