HRD.pdb
     RDKit          3D

 30 30  0  0  1  0  0  0  0  0999 V2000
   26.8899  -15.5311  -18.9980 N   0  0  0  0  0  0  0  0  0  0  0  0
   25.8774  -15.2653  -17.9668 C   0  0  1  0  0  0  0  0  0  0  0  0
   24.6666  -14.7963  -18.7498 C   0  0  0  0  0  0  0  0  0  0  0  0
   24.9648  -13.4250  -19.2350 C   0  0  0  0  0  0  0  0  0  0  0  0
   25.0432  -12.9390  -20.5273 C   0  0  0  0  0  0  0  0  0  0  0  0
   25.3399  -11.6331  -20.5133 N   0  0  0  0  0  0  0  0  0  0  0  0
   25.4561  -11.2563  -19.2401 C   0  0  0  0  0  0  0  0  0  0  0  0
   25.2306  -12.3359  -18.4571 N   0  0  0  0  0  0  0  0  0  0  0  0
   25.6316  -16.5267  -17.2511 C   0  0  0  0  0  0  0  0  0  0  0  0
   25.7633  -17.6027  -17.8737 O   0  0  0  0  0  0  0  0  0  0  0  0
   25.9858  -23.0237  -12.1446 N   0  0  0  0  0  0  0  0  0  0  0  0
   26.3020  -22.6735  -13.4703 C   0  0  0  0  0  0  0  0  0  0  0  0
   26.2864  -23.5750  -14.4014 N   0  0  0  0  0  0  0  0  0  0  0  0
   26.6475  -21.3462  -13.8413 N   0  0  0  0  0  0  0  0  0  0  0  0
   26.5793  -20.2523  -12.8993 C   0  0  0  0  0  0  0  0  0  0  0  0
   25.4522  -19.2874  -13.2231 C   0  0  0  0  0  0  0  0  0  0  0  0
   25.8854  -18.1051  -14.0373 C   0  0  0  0  0  0  0  0  0  0  0  0
   25.0614  -17.9269  -15.2373 C   0  0  2  0  0  0  0  0  0  0  0  0
   25.2538  -16.6457  -15.9058 N   0  0  0  0  0  0  0  0  0  0  0  0
   23.6215  -18.0182  -14.9340 C   0  0  0  0  0  0  0  0  0  0  0  0
   23.0890  -17.2456  -14.1153 O   0  0  0  0  0  0  0  0  0  0  0  0
   26.5033  -23.3936  -15.3922 N   0  0  0  0  0  0  0  0  0  0  0  0
   22.7582  -18.9773  -15.5441 C   0  0  2  0  0  0  0  0  0  0  0  0
   21.3520  -19.0972  -15.2155 C   0  0  0  0  0  0  0  0  0  0  0  0
   20.6498  -19.6319  -16.4583 C   0  0  0  0  0  0  0  0  0  0  0  0
   19.3069  -19.0268  -16.5796 O   0  0  0  0  0  0  0  0  0  0  0  0
   18.8836  -18.2487  -15.6667 C   0  0  0  0  0  0  0  0  0  0  0  0
   21.1274  -20.0235  -14.0946 O   0  0  0  0  0  0  0  0  0  0  0  0
   21.8315  -21.2103  -14.0413 O   0  0  0  0  0  0  0  0  0  0  0  0
   18.5054  -19.2978  -17.6724 O   0  0  0  0  0  0  0  0  0  0  0  0
  2  1  1  6
  2  3  1  0
  2  9  1  0
  3  4  1  0
  4  5  2  0
  4  8  1  0
  5  6  1  0
  6  7  1  0
  8  7  2  0
  9 10  2  0
 12 11  1  0
 12 14  1  0
 13 12  2  0
 15 14  1  0
 15 16  1  0
 18 17  1  1
 17 16  1  0
 19  9  1  0
 19 18  1  0
 20 21  2  0
 20 18  1  0
 22 20  1  0
 23 27  1  0
 23 22  1  0
 23 24  1  6
 25 24  1  0
 25 26  2  0
 27 28  1  0
 29 25  1  0
 30 27  2  0
M  END
$$$$
