HRD.pdb
     RDKit          3D

 30 30  0  0  1  0  0  0  0  0999 V2000
   28.1655  -21.1536  -11.7265 N   0  0  0  0  0  0  0  0  0  0  0  0
   26.8835  -20.7671  -11.1211 C   0  0  1  0  0  0  0  0  0  0  0  0
   27.2378  -19.6028  -10.2169 C   0  0  0  0  0  0  0  0  0  0  0  0
   28.1169  -20.1343   -9.1447 C   0  0  0  0  0  0  0  0  0  0  0  0
   29.4060  -20.6294   -9.2187 C   0  0  0  0  0  0  0  0  0  0  0  0
   29.8273  -21.0062   -8.0047 N   0  0  0  0  0  0  0  0  0  0  0  0
   28.8416  -20.7673   -7.1399 C   0  0  0  0  0  0  0  0  0  0  0  0
   27.7998  -20.2385   -7.8216 N   0  0  0  0  0  0  0  0  0  0  0  0
   25.9773  -20.3777  -12.2123 C   0  0  0  0  0  0  0  0  0  0  0  0
   26.3722  -19.5325  -13.0444 O   0  0  0  0  0  0  0  0  0  0  0  0
   25.4404  -26.0342  -15.7497 N   0  0  0  0  0  0  0  0  0  0  0  0
   24.8773  -25.1971  -16.7306 C   0  0  0  0  0  0  0  0  0  0  0  0
   24.0602  -25.6859  -17.6100 N   0  0  0  0  0  0  0  0  0  0  0  0
   25.1730  -23.8094  -16.8028 N   0  0  0  0  0  0  0  0  0  0  0  0
   25.9646  -23.1480  -15.7905 C   0  0  0  0  0  0  0  0  0  0  0  0
   25.1118  -22.6257  -14.6475 C   0  0  0  0  0  0  0  0  0  0  0  0
   24.6336  -21.2184  -14.8459 C   0  0  0  0  0  0  0  0  0  0  0  0
   23.9432  -20.6959  -13.6623 C   0  0  2  0  0  0  0  0  0  0  0  0
   24.6811  -20.8722  -12.4173 N   0  0  0  0  0  0  0  0  0  0  0  0
   22.6349  -21.3443  -13.4579 C   0  0  0  0  0  0  0  0  0  0  0  0
   22.5583  -22.5149  -13.0400 O   0  0  0  0  0  0  0  0  0  0  0  0
   23.6208  -25.1392  -18.3649 N   0  0  0  0  0  0  0  0  0  0  0  0
   21.3938  -20.6895  -13.7196 C   0  0  1  0  0  0  0  0  0  0  0  0
   20.1103  -21.3514  -13.6007 C   0  0  0  0  0  0  0  0  0  0  0  0
   19.0444  -20.3182  -13.9470 C   0  0  0  0  0  0  0  0  0  0  0  0
   17.9833  -20.3225  -12.9183 O   0  0  0  0  0  0  0  0  0  0  0  0
   18.0422  -21.1551  -11.9585 C   0  0  0  0  0  0  0  0  0  0  0  0
   19.9951  -22.4946  -14.5198 O   0  0  0  0  0  0  0  0  0  0  0  0
   19.3243  -23.6306  -14.1116 O   0  0  0  0  0  0  0  0  0  0  0  0
   16.9274  -19.4335  -12.9880 O   0  0  0  0  0  0  0  0  0  0  0  0
  2  1  1  6
  2  3  1  0
  2  9  1  0
  3  4  1  0
  4  5  2  0
  4  8  1  0
  5  6  1  0
  6  7  1  0
  8  7  2  0
  9 10  2  0
 12 11  1  0
 12 14  1  0
 13 12  2  0
 15 14  1  0
 15 16  1  0
 18 17  1  6
 17 16  1  0
 19  9  1  0
 19 18  1  0
 20 21  2  0
 20 18  1  0
 22 20  1  0
 23 27  1  0
 23 22  1  0
 23 24  1  6
 25 24  1  0
 25 26  2  0
 27 28  1  0
 29 25  1  0
 30 27  2  0
M  END
$$$$
