HRD.pdb
     RDKit          3D

 30 30  0  0  1  0  0  0  0  0999 V2000
   25.2283  -10.2035  -18.4269 N   0  0  0  0  0  0  0  0  0  0  0  0
   24.8109  -10.2582  -17.0191 C   0  0  1  0  0  0  0  0  0  0  0  0
   25.7256   -9.2690  -16.3235 C   0  0  0  0  0  0  0  0  0  0  0  0
   27.0640   -9.9048  -16.2277 C   0  0  0  0  0  0  0  0  0  0  0  0
   27.5100  -10.9110  -15.3906 C   0  0  0  0  0  0  0  0  0  0  0  0
   28.7972  -11.1838  -15.6399 N   0  0  0  0  0  0  0  0  0  0  0  0
   29.2008  -10.3780  -16.6219 C   0  0  0  0  0  0  0  0  0  0  0  0
   28.1569   -9.5983  -16.9851 N   0  0  0  0  0  0  0  0  0  0  0  0
   23.3972   -9.8564  -16.9598 C   0  0  0  0  0  0  0  0  0  0  0  0
   22.9799   -9.0146  -17.7845 O   0  0  0  0  0  0  0  0  0  0  0  0
   15.6788  -13.8288  -14.4590 N   0  0  0  0  0  0  0  0  0  0  0  0
   15.4170  -12.7466  -15.3193 C   0  0  0  0  0  0  0  0  0  0  0  0
   14.2059  -12.5113  -15.7168 N   0  0  0  0  0  0  0  0  0  0  0  0
   16.4446  -11.8823  -15.7838 N   0  0  0  0  0  0  0  0  0  0  0  0
   17.8266  -12.0750  -15.4075 C   0  0  0  0  0  0  0  0  0  0  0  0
   18.7217  -10.9635  -15.9268 C   0  0  0  0  0  0  0  0  0  0  0  0
   20.1786  -11.1816  -15.6467 C   0  0  0  0  0  0  0  0  0  0  0  0
   21.0138  -10.1031  -16.1851 C   0  0  2  0  0  0  0  0  0  0  0  0
   22.4465  -10.3350  -16.0467 N   0  0  0  0  0  0  0  0  0  0  0  0
   20.7419   -8.8143  -15.5229 C   0  0  0  0  0  0  0  0  0  0  0  0
   21.2012   -8.5653  -14.3924 O   0  0  0  0  0  0  0  0  0  0  0  0
   13.9324  -11.7179  -16.3147 N   0  0  0  0  0  0  0  0  0  0  0  0
   19.9508   -7.7862  -16.1185 C   0  0  2  0  0  0  0  0  0  0  0  0
   19.5651   -6.5787  -15.4166 C   0  0  0  0  0  0  0  0  0  0  0  0
   19.4839   -5.4674  -16.4569 C   0  0  0  0  0  0  0  0  0  0  0  0
   20.7816   -4.7664  -16.5497 O   0  0  0  0  0  0  0  0  0  0  0  0
   21.2746   -4.2173  -15.5136 C   0  0  0  0  0  0  0  0  0  0  0  0
   18.2582   -6.7216  -14.7558 O   0  0  0  0  0  0  0  0  0  0  0  0
   17.8440   -5.7624  -13.8529 O   0  0  0  0  0  0  0  0  0  0  0  0
   21.4648   -4.6993  -17.7492 O   0  0  0  0  0  0  0  0  0  0  0  0
  2  1  1  6
  2  3  1  0
  2  9  1  0
  3  4  1  0
  4  5  2  0
  4  8  1  0
  5  6  1  0
  6  7  1  0
  8  7  2  0
  9 10  2  0
 12 11  1  0
 12 14  1  0
 13 12  2  0
 15 14  1  0
 15 16  1  0
 18 17  1  1
 17 16  1  0
 19  9  1  0
 19 18  1  0
 20 21  2  0
 20 18  1  0
 22 20  1  0
 23 27  1  0
 23 22  1  0
 23 24  1  6
 25 24  1  0
 25 26  2  0
 27 28  1  0
 29 25  1  0
 30 27  2  0
M  END
$$$$
