HRD.pdb
     RDKit          3D

 30 30  0  0  1  0  0  0  0  0999 V2000
   19.5456  -21.0051  -13.0864 N   0  0  0  0  0  0  0  0  0  0  0  0
   19.3273  -22.3834  -12.6262 C   0  0  1  0  0  0  0  0  0  0  0  0
   20.6642  -23.0633  -12.8481 C   0  0  0  0  0  0  0  0  0  0  0  0
   20.8767  -23.1405  -14.3156 C   0  0  0  0  0  0  0  0  0  0  0  0
   21.8464  -22.5482  -15.1037 C   0  0  0  0  0  0  0  0  0  0  0  0
   21.6680  -22.8841  -16.3877 N   0  0  0  0  0  0  0  0  0  0  0  0
   20.6032  -23.6832  -16.4547 C   0  0  0  0  0  0  0  0  0  0  0  0
   20.1162  -23.8446  -15.2032 N   0  0  0  0  0  0  0  0  0  0  0  0
   18.9551  -22.3225  -11.2045 C   0  0  0  0  0  0  0  0  0  0  0  0
   19.4459  -21.4167  -10.4963 O   0  0  0  0  0  0  0  0  0  0  0  0
   11.6141  -19.9337   -8.8097 N   0  0  0  0  0  0  0  0  0  0  0  0
   12.7183  -19.9967   -9.6794 C   0  0  0  0  0  0  0  0  0  0  0  0
   12.6519  -19.4521  -10.8538 N   0  0  0  0  0  0  0  0  0  0  0  0
   13.9293  -20.6473   -9.3204 N   0  0  0  0  0  0  0  0  0  0  0  0
   13.9794  -21.6259   -8.2580 C   0  0  0  0  0  0  0  0  0  0  0  0
   15.3472  -22.2756   -8.1421 C   0  0  0  0  0  0  0  0  0  0  0  0
   16.1601  -22.1986   -9.3998 C   0  0  0  0  0  0  0  0  0  0  0  0
   17.4444  -22.8950   -9.2728 C   0  0  2  0  0  0  0  0  0  0  0  0
   18.0828  -23.2020  -10.5470 N   0  0  0  0  0  0  0  0  0  0  0  0
   17.3050  -24.1806   -8.5646 C   0  0  0  0  0  0  0  0  0  0  0  0
   16.8891  -25.1954   -9.1547 O   0  0  0  0  0  0  0  0  0  0  0  0
   13.4175  -19.4581  -11.5434 N   0  0  0  0  0  0  0  0  0  0  0  0
   17.6297  -24.3468   -7.1846 C   0  0  1  0  0  0  0  0  0  0  0  0
   17.5328  -25.6187   -6.4972 C   0  0  0  0  0  0  0  0  0  0  0  0
   18.2621  -25.4614   -5.1679 C   0  0  0  0  0  0  0  0  0  0  0  0
   18.2748  -26.7492   -4.4430 O   0  0  0  0  0  0  0  0  0  0  0  0
   18.5298  -27.8234   -5.0750 C   0  0  0  0  0  0  0  0  0  0  0  0
   16.1347  -25.9995   -6.2419 O   0  0  0  0  0  0  0  0  0  0  0  0
   15.7478  -27.3153   -6.4031 O   0  0  0  0  0  0  0  0  0  0  0  0
   18.0116  -26.8001   -3.0872 O   0  0  0  0  0  0  0  0  0  0  0  0
  2  1  1  1
  2  3  1  0
  2  9  1  0
  3  4  1  0
  4  5  2  0
  4  8  1  0
  5  6  1  0
  6  7  1  0
  8  7  2  0
  9 10  2  0
 12 11  1  0
 12 14  1  0
 13 12  2  0
 15 14  1  0
 15 16  1  0
 18 17  1  6
 17 16  1  0
 19  9  1  0
 19 18  1  0
 20 21  2  0
 20 18  1  0
 22 20  1  0
 23 27  1  0
 23 22  1  0
 23 24  1  1
 25 24  1  0
 25 26  2  0
 27 28  1  0
 29 25  1  0
 30 27  2  0
M  END
$$$$
