HRD.pdb
     RDKit          3D

 30 30  0  0  1  0  0  0  0  0999 V2000
   25.3556  -20.4747  -19.8382 N   0  0  0  0  0  0  0  0  0  0  0  0
   24.5522  -19.4297  -19.1888 C   0  0  1  0  0  0  0  0  0  0  0  0
   23.4885  -19.0902  -20.2147 C   0  0  0  0  0  0  0  0  0  0  0  0
   24.0096  -17.9617  -21.0270 C   0  0  0  0  0  0  0  0  0  0  0  0
   23.4056  -16.7683  -21.3778 C   0  0  0  0  0  0  0  0  0  0  0  0
   24.2368  -16.0312  -22.1256 N   0  0  0  0  0  0  0  0  0  0  0  0
   25.3703  -16.7174  -22.2701 C   0  0  0  0  0  0  0  0  0  0  0  0
   25.2424  -17.8897  -21.6075 N   0  0  0  0  0  0  0  0  0  0  0  0
   23.9859  -20.0054  -17.9594 C   0  0  0  0  0  0  0  0  0  0  0  0
   23.1920  -20.9659  -18.0596 O   0  0  0  0  0  0  0  0  0  0  0  0
   25.7822  -20.6575   -9.0952 N   0  0  0  0  0  0  0  0  0  0  0  0
   24.4309  -20.9787   -9.3203 C   0  0  0  0  0  0  0  0  0  0  0  0
   23.6577  -21.2703   -8.3218 N   0  0  0  0  0  0  0  0  0  0  0  0
   23.8643  -21.0002  -10.6230 N   0  0  0  0  0  0  0  0  0  0  0  0
   24.5945  -20.5261  -11.7766 C   0  0  0  0  0  0  0  0  0  0  0  0
   23.7748  -20.6205  -13.0516 C   0  0  0  0  0  0  0  0  0  0  0  0
   24.4668  -20.0571  -14.2567 C   0  0  0  0  0  0  0  0  0  0  0  0
   23.6503  -20.1737  -15.4693 C   0  0  2  0  0  0  0  0  0  0  0  0
   24.2540  -19.5729  -16.6526 N   0  0  0  0  0  0  0  0  0  0  0  0
   22.3338  -19.5297  -15.3098 C   0  0  0  0  0  0  0  0  0  0  0  0
   22.2377  -18.2978  -15.1543 O   0  0  0  0  0  0  0  0  0  0  0  0
   22.6469  -21.4539   -8.4013 N   0  0  0  0  0  0  0  0  0  0  0  0
   21.1060  -20.2576  -15.3219 C   0  0  1  0  0  0  0  0  0  0  0  0
   19.8223  -19.6476  -15.0394 C   0  0  0  0  0  0  0  0  0  0  0  0
   18.9167  -19.9487  -16.2281 C   0  0  0  0  0  0  0  0  0  0  0  0
   17.5888  -19.3343  -16.0200 O   0  0  0  0  0  0  0  0  0  0  0  0
   17.5096  -18.1247  -15.6345 C   0  0  0  0  0  0  0  0  0  0  0  0
   19.2137  -20.1916  -13.8153 O   0  0  0  0  0  0  0  0  0  0  0  0
   18.1946  -19.4959  -13.1952 O   0  0  0  0  0  0  0  0  0  0  0  0
   16.4324  -20.0592  -16.2379 O   0  0  0  0  0  0  0  0  0  0  0  0
  2  1  1  6
  2  3  1  0
  2  9  1  0
  3  4  1  0
  4  5  2  0
  4  8  1  0
  5  6  1  0
  6  7  1  0
  8  7  2  0
  9 10  2  0
 12 11  1  0
 12 14  1  0
 13 12  2  0
 15 14  1  0
 15 16  1  0
 18 17  1  1
 17 16  1  0
 19  9  1  0
 19 18  1  0
 20 21  2  0
 20 18  1  0
 22 20  1  0
 23 27  1  0
 23 22  1  0
 23 24  1  6
 25 24  1  0
 25 26  2  0
 27 28  1  0
 29 25  1  0
 30 27  2  0
M  END
$$$$
