HRD.pdb
     RDKit          3D

 30 30  0  0  1  0  0  0  0  0999 V2000
   26.7219  -16.8787  -20.1158 N   0  0  0  0  0  0  0  0  0  0  0  0
   26.1876  -16.2700  -18.8898 C   0  0  1  0  0  0  0  0  0  0  0  0
   24.9206  -15.5726  -19.3452 C   0  0  0  0  0  0  0  0  0  0  0  0
   25.3344  -14.3428  -20.0672 C   0  0  0  0  0  0  0  0  0  0  0  0
   25.0289  -13.9212  -21.3482 C   0  0  0  0  0  0  0  0  0  0  0  0
   25.6161  -12.7444  -21.6005 N   0  0  0  0  0  0  0  0  0  0  0  0
   26.2977  -12.3885  -20.5118 C   0  0  0  0  0  0  0  0  0  0  0  0
   26.1333  -13.3515  -19.5763 N   0  0  0  0  0  0  0  0  0  0  0  0
   25.9207  -17.3566  -17.9351 C   0  0  0  0  0  0  0  0  0  0  0  0
   25.1285  -18.2644  -18.2687 O   0  0  0  0  0  0  0  0  0  0  0  0
   25.6489  -19.9577  -10.3501 N   0  0  0  0  0  0  0  0  0  0  0  0
   26.1267  -21.1280  -10.9681 C   0  0  0  0  0  0  0  0  0  0  0  0
   25.4625  -22.2360  -10.8618 N   0  0  0  0  0  0  0  0  0  0  0  0
   27.3330  -21.1501  -11.7184 N   0  0  0  0  0  0  0  0  0  0  0  0
   27.7165  -20.0488  -12.5720 C   0  0  0  0  0  0  0  0  0  0  0  0
   26.7290  -19.8317  -13.7051 C   0  0  0  0  0  0  0  0  0  0  0  0
   27.1115  -18.7181  -14.6337 C   0  0  0  0  0  0  0  0  0  0  0  0
   26.1627  -18.5706  -15.7421 C   0  0  2  0  0  0  0  0  0  0  0  0
   26.4799  -17.4789  -16.6548 N   0  0  0  0  0  0  0  0  0  0  0  0
   24.7918  -18.3178  -15.2624 C   0  0  0  0  0  0  0  0  0  0  0  0
   24.4149  -17.1655  -14.9775 O   0  0  0  0  0  0  0  0  0  0  0  0
   25.7505  -23.1311  -11.2831 N   0  0  0  0  0  0  0  0  0  0  0  0
   23.8238  -19.3533  -15.0949 C   0  0  1  0  0  0  0  0  0  0  0  0
   22.4331  -19.0926  -14.7821 C   0  0  0  0  0  0  0  0  0  0  0  0
   21.8412  -18.3517  -15.9755 C   0  0  0  0  0  0  0  0  0  0  0  0
   20.3996  -18.1108  -15.7564 O   0  0  0  0  0  0  0  0  0  0  0  0
   20.0297  -17.2742  -14.8724 C   0  0  0  0  0  0  0  0  0  0  0  0
   21.6783  -20.3358  -14.5593 O   0  0  0  0  0  0  0  0  0  0  0  0
   22.2441  -21.5466  -14.9064 O   0  0  0  0  0  0  0  0  0  0  0  0
   19.4491  -18.7849  -16.4995 O   0  0  0  0  0  0  0  0  0  0  0  0
  2  1  1  6
  2  3  1  0
  2  9  1  0
  3  4  1  0
  4  5  2  0
  4  8  1  0
  5  6  1  0
  6  7  1  0
  8  7  2  0
  9 10  2  0
 12 11  1  0
 12 14  1  0
 13 12  2  0
 15 14  1  0
 15 16  1  0
 18 17  1  1
 17 16  1  0
 19  9  1  0
 19 18  1  0
 20 21  2  0
 20 18  1  0
 22 20  1  0
 23 27  1  0
 23 22  1  0
 23 24  1  6
 25 24  1  0
 25 26  2  0
 27 28  1  0
 29 25  1  0
 30 27  2  0
M  END
$$$$
