PPA.pdb
     RDKit          3D

 20 21  0  0  1  0  0  0  0  0999 V2000
    9.9644  -14.9250   15.7178 N   0  0  0  0  0  0  0  0  0  0  0  0
    9.5067  -15.9526   14.8215 C   0  0  0  0  0  0  0  0  0  0  0  0
    8.0033  -15.9706   15.0071 C   0  0  0  0  0  0  0  0  0  0  0  0
    7.9060  -15.7670   16.5254 C   0  0  0  0  0  0  0  0  0  0  0  0
    8.9890  -14.7340   16.7365 C   0  0  1  0  0  0  0  0  0  0  0  0
    9.4937  -14.7248   18.1150 C   0  0  0  0  0  0  0  0  0  0  0  0
   10.5801  -15.2874   18.3744 O   0  0  0  0  0  0  0  0  0  0  0  0
    8.7716  -14.0857   19.1811 N   0  0  0  0  0  0  0  0  0  0  0  0
    7.6466  -13.2111   18.9518 C   0  0  0  0  0  0  0  0  0  0  0  0
    7.2421  -12.6369   20.2969 C   0  0  0  0  0  0  0  0  0  0  0  0
    7.7731  -13.6448   21.2574 C   0  0  0  0  0  0  0  0  0  0  0  0
    9.0024  -14.1747   20.5835 C   0  0  1  0  0  0  0  0  0  0  0  0
    9.3125  -15.5510   21.0657 C   0  0  0  0  0  0  0  0  0  0  0  0
    8.5794  -16.4882   20.7001 O   0  0  0  0  0  0  0  0  0  0  0  0
   12.1150  -17.5771   22.0841 C   0  0  0  0  0  0  0  0  0  0  0  0
   10.7235  -17.1190   22.4560 C   0  0  2  0  0  0  0  0  0  0  0  0
   10.4091  -15.8224   21.9218 N   0  0  0  0  0  0  0  0  0  0  0  0
   10.4761  -17.2008   23.9161 C   0  0  0  0  0  0  0  0  0  0  0  0
   10.6471  -18.4263   24.5352 O   0  0  0  0  0  0  0  0  0  0  0  0
   10.1228  -16.2251   24.6130 O   0  0  0  0  0  0  0  0  0  0  0  0
  2  1  1  0
  3  2  1  0
  4  3  1  0
  4  5  1  0
  5  1  1  0
  5  6  1  1
  7  6  2  0
  8  6  1  0
  8  9  1  0
 10  9  1  0
 11 12  1  0
 11 10  1  0
 12  8  1  0
 12 13  1  1
 13 17  1  0
 14 13  2  0
 16 18  1  0
 16 15  1  1
 17 16  1  0
 18 19  1  0
 20 18  2  0
M  END
$$$$
