PPA.pdb
     RDKit          3D

 20 21  0  0  1  0  0  0  0  0999 V2000
    8.6668  -14.2105   21.3156 N   0  0  0  0  0  0  0  0  0  0  0  0
    8.0062  -15.0731   20.3731 C   0  0  0  0  0  0  0  0  0  0  0  0
    6.5352  -14.9424   20.7113 C   0  0  0  0  0  0  0  0  0  0  0  0
    6.6028  -14.9006   22.2441 C   0  0  0  0  0  0  0  0  0  0  0  0
    7.8194  -14.0262   22.4442 C   0  0  1  0  0  0  0  0  0  0  0  0
    8.4452  -14.2284   23.7567 C   0  0  0  0  0  0  0  0  0  0  0  0
    9.4550  -14.9605   23.8488 O   0  0  0  0  0  0  0  0  0  0  0  0
    7.9281  -13.6072   24.9455 N   0  0  0  0  0  0  0  0  0  0  0  0
    6.8657  -12.6305   24.9210 C   0  0  0  0  0  0  0  0  0  0  0  0
    6.6928  -12.1187   26.3389 C   0  0  0  0  0  0  0  0  0  0  0  0
    7.2519  -13.2297   27.1597 C   0  0  0  0  0  0  0  0  0  0  0  0
    8.3306  -13.8102   26.2963 C   0  0  1  0  0  0  0  0  0  0  0  0
    8.5763  -15.2369   26.6529 C   0  0  0  0  0  0  0  0  0  0  0  0
    7.6270  -16.0390   26.5834 O   0  0  0  0  0  0  0  0  0  0  0  0
   11.4445  -17.5561   26.8631 C   0  0  0  0  0  0  0  0  0  0  0  0
   10.1369  -17.0619   27.4381 C   0  0  2  0  0  0  0  0  0  0  0  0
    9.8494  -15.7040   27.0657 N   0  0  0  0  0  0  0  0  0  0  0  0
   10.0515  -17.2733   28.9036 C   0  0  0  0  0  0  0  0  0  0  0  0
    9.7933  -16.1741   29.7035 O   0  0  0  0  0  0  0  0  0  0  0  0
   10.1999  -18.3871   29.4512 O   0  0  0  0  0  0  0  0  0  0  0  0
  2  1  1  0
  3  2  1  0
  4  3  1  0
  4  5  1  0
  5  1  1  0
  5  6  1  1
  7  6  2  0
  8  6  1  0
  8  9  1  0
 10  9  1  0
 11 12  1  0
 11 10  1  0
 12  8  1  0
 12 13  1  1
 13 17  1  0
 14 13  2  0
 16 18  1  0
 16 15  1  1
 17 16  1  0
 18 19  1  0
 20 18  2  0
M  END
$$$$
