PPA.pdb
     RDKit          3D

 20 21  0  0  1  0  0  0  0  0999 V2000
    8.6712  -14.7053   21.3148 N   0  0  0  0  0  0  0  0  0  0  0  0
    8.3257  -15.9132   20.6145 C   0  0  0  0  0  0  0  0  0  0  0  0
    6.8725  -16.1510   20.9704 C   0  0  0  0  0  0  0  0  0  0  0  0
    6.8771  -15.7482   22.4514 C   0  0  0  0  0  0  0  0  0  0  0  0
    7.7728  -14.5315   22.4050 C   0  0  1  0  0  0  0  0  0  0  0  0
    8.3895  -14.2396   23.7048 C   0  0  0  0  0  0  0  0  0  0  0  0
    9.5702  -14.5931   23.9171 O   0  0  0  0  0  0  0  0  0  0  0  0
    7.6720  -13.5566   24.7465 N   0  0  0  0  0  0  0  0  0  0  0  0
    6.3613  -12.9849   24.5508 C   0  0  0  0  0  0  0  0  0  0  0  0
    5.9981  -12.2460   25.8253 C   0  0  0  0  0  0  0  0  0  0  0  0
    6.8488  -12.9175   26.8481 C   0  0  0  0  0  0  0  0  0  0  0  0
    8.0784  -13.3173   26.0903 C   0  0  1  0  0  0  0  0  0  0  0  0
    8.7419  -14.4813   26.7445 C   0  0  0  0  0  0  0  0  0  0  0  0
    8.0933  -15.5347   26.8828 O   0  0  0  0  0  0  0  0  0  0  0  0
   10.1648  -14.1981   29.6510 C   0  0  0  0  0  0  0  0  0  0  0  0
   10.5401  -15.0159   28.4365 C   0  0  2  0  0  0  0  0  0  0  0  0
   10.0795  -14.4248   27.2103 N   0  0  0  0  0  0  0  0  0  0  0  0
   10.1294  -16.4353   28.5657 C   0  0  0  0  0  0  0  0  0  0  0  0
   10.6730  -17.1762   29.6001 O   0  0  0  0  0  0  0  0  0  0  0  0
    9.3217  -16.9942   27.7925 O   0  0  0  0  0  0  0  0  0  0  0  0
  2  1  1  0
  3  2  1  0
  4  3  1  0
  4  5  1  0
  5  1  1  0
  5  6  1  1
  7  6  2  0
  8  6  1  0
  8  9  1  0
 10  9  1  0
 11 12  1  0
 11 10  1  0
 12  8  1  0
 12 13  1  1
 13 17  1  0
 14 13  2  0
 16 18  1  0
 16 15  1  1
 17 16  1  0
 18 19  1  0
 20 18  2  0
M  END
$$$$
