PPA.pdb
     RDKit          3D

 20 21  0  0  1  0  0  0  0  0999 V2000
    8.9418  -17.4754   18.1443 N   0  0  0  0  0  0  0  0  0  0  0  0
    8.3523  -18.7851   18.0687 C   0  0  0  0  0  0  0  0  0  0  0  0
    6.8659  -18.5376   18.2249 C   0  0  0  0  0  0  0  0  0  0  0  0
    6.8760  -17.4394   19.2972 C   0  0  0  0  0  0  0  0  0  0  0  0
    8.0471  -16.6061   18.8295 C   0  0  1  0  0  0  0  0  0  0  0  0
    8.6327  -15.8052   19.9115 C   0  0  0  0  0  0  0  0  0  0  0  0
    9.5736  -16.2789   20.5855 O   0  0  0  0  0  0  0  0  0  0  0  0
    8.1531  -14.4859   20.2213 N   0  0  0  0  0  0  0  0  0  0  0  0
    7.1408  -13.8162   19.4402 C   0  0  0  0  0  0  0  0  0  0  0  0
    7.0006  -12.4112   19.9958 C   0  0  0  0  0  0  0  0  0  0  0  0
    7.5073  -12.5570   21.3896 C   0  0  0  0  0  0  0  0  0  0  0  0
    8.5514  -13.6271   21.2851 C   0  0  1  0  0  0  0  0  0  0  0  0
    8.7270  -14.3176   22.5949 C   0  0  0  0  0  0  0  0  0  0  0  0
    9.5526  -13.8562   23.4041 O   0  0  0  0  0  0  0  0  0  0  0  0
    6.6827  -16.6280   24.6714 C   0  0  0  0  0  0  0  0  0  0  0  0
    8.0340  -16.1142   24.2301 C   0  0  2  0  0  0  0  0  0  0  0  0
    7.9873  -15.4753   22.9437 N   0  0  0  0  0  0  0  0  0  0  0  0
    9.0836  -17.1597   24.3010 C   0  0  0  0  0  0  0  0  0  0  0  0
    9.7579  -17.4819   23.1365 O   0  0  0  0  0  0  0  0  0  0  0  0
    9.3892  -17.7621   25.3528 O   0  0  0  0  0  0  0  0  0  0  0  0
  2  1  1  0
  3  2  1  0
  4  3  1  0
  4  5  1  0
  5  1  1  0
  5  6  1  1
  7  6  2  0
  8  6  1  0
  8  9  1  0
 10  9  1  0
 11 12  1  0
 11 10  1  0
 12  8  1  0
 12 13  1  1
 13 17  1  0
 14 13  2  0
 16 18  1  0
 16 15  1  6
 17 16  1  0
 18 19  1  0
 20 18  2  0
M  END
$$$$
