PPA.pdb
     RDKit          3D

 20 21  0  0  1  0  0  0  0  0999 V2000
    8.4153  -14.2813   21.2761 N   0  0  0  0  0  0  0  0  0  0  0  0
    7.7761  -15.1988   20.3714 C   0  0  0  0  0  0  0  0  0  0  0  0
    6.3178  -15.1758   20.7812 C   0  0  0  0  0  0  0  0  0  0  0  0
    6.4569  -15.1161   22.3086 C   0  0  0  0  0  0  0  0  0  0  0  0
    7.6126  -14.1515   22.4442 C   0  0  1  0  0  0  0  0  0  0  0  0
    8.3153  -14.2952   23.7251 C   0  0  0  0  0  0  0  0  0  0  0  0
    9.3574  -14.9844   23.7794 O   0  0  0  0  0  0  0  0  0  0  0  0
    7.8375  -13.6646   24.9254 N   0  0  0  0  0  0  0  0  0  0  0  0
    6.7425  -12.7243   24.9344 C   0  0  0  0  0  0  0  0  0  0  0  0
    6.6234  -12.1865   26.3482 C   0  0  0  0  0  0  0  0  0  0  0  0
    7.2604  -13.2595   27.1627 C   0  0  0  0  0  0  0  0  0  0  0  0
    8.3138  -13.8236   26.2580 C   0  0  1  0  0  0  0  0  0  0  0  0
    8.6255  -15.2330   26.6315 C   0  0  0  0  0  0  0  0  0  0  0  0
    7.7429  -16.0974   26.4790 O   0  0  0  0  0  0  0  0  0  0  0  0
   11.5906  -17.3697   26.9569 C   0  0  0  0  0  0  0  0  0  0  0  0
   10.2460  -16.9593   27.5122 C   0  0  2  0  0  0  0  0  0  0  0  0
    9.8876  -15.6154   27.1512 N   0  0  0  0  0  0  0  0  0  0  0  0
   10.1455  -17.1950   28.9731 C   0  0  0  0  0  0  0  0  0  0  0  0
   10.3971  -18.4719   29.4429 O   0  0  0  0  0  0  0  0  0  0  0  0
    9.8467  -16.3046   29.7980 O   0  0  0  0  0  0  0  0  0  0  0  0
  2  1  1  0
  3  2  1  0
  4  3  1  0
  4  5  1  0
  5  1  1  0
  5  6  1  1
  7  6  2  0
  8  6  1  0
  8  9  1  0
 10  9  1  0
 11 12  1  0
 11 10  1  0
 12  8  1  0
 12 13  1  1
 13 17  1  0
 14 13  2  0
 16 18  1  0
 16 15  1  1
 17 16  1  0
 18 19  1  0
 20 18  2  0
M  END
$$$$
