WMD.pdb
     RDKit          3D

 31 32  0  0  1  0  0  0  0  0999 V2000
    7.1452  -18.4099   26.4068 N   0  0  0  0  0  0  0  0  0  0  0  0
    7.9670  -17.2852   26.0497 C   0  0  1  0  0  0  0  0  0  0  0  0
    9.4057  -17.6236   26.1719 C   0  0  0  0  0  0  0  0  0  0  0  0
    9.8891  -17.3201   27.5389 C   0  0  0  0  0  0  0  0  0  0  0  0
   10.3676  -18.2466   28.4728 C   0  0  0  0  0  0  0  0  0  0  0  0
   10.7488  -17.6142   29.5951 N   0  0  0  0  0  0  0  0  0  0  0  0
   10.5521  -16.3082   29.4681 C   0  0  0  0  0  0  0  0  0  0  0  0
   10.7764  -15.2635   30.3336 C   0  0  0  0  0  0  0  0  0  0  0  0
   10.4726  -13.9672   29.9607 C   0  0  0  0  0  0  0  0  0  0  0  0
    9.9452  -13.7728   28.7084 C   0  0  0  0  0  0  0  0  0  0  0  0
    9.7160  -14.8271   27.8268 C   0  0  0  0  0  0  0  0  0  0  0  0
   10.0154  -16.1063   28.1903 C   0  0  0  0  0  0  0  0  0  0  0  0
    7.5938  -16.7199   24.7292 C   0  0  0  0  0  0  0  0  0  0  0  0
    6.9051  -17.4005   23.9261 O   0  0  0  0  0  0  0  0  0  0  0  0
    6.4642  -12.6768   26.9197 C   0  0  0  0  0  0  0  0  0  0  0  0
    6.1390  -13.3903   25.2657 S   0  0  0  0  0  0  0  0  0  0  0  0
    7.2559  -12.5964   24.1217 C   0  0  0  0  0  0  0  0  0  0  0  0
    7.6023  -13.3948   22.9016 C   0  0  0  0  0  0  0  0  0  0  0  0
    7.6584  -14.8494   23.0382 C   0  0  2  0  0  0  0  0  0  0  0  0
    7.9658  -15.4350   24.2929 N   0  0  0  0  0  0  0  0  0  0  0  0
    8.5917  -15.4143   22.0247 C   0  0  0  0  0  0  0  0  0  0  0  0
    8.3227  -15.3649   20.7741 O   0  0  0  0  0  0  0  0  0  0  0  0
    9.8139  -16.0320   22.3456 N   0  0  0  0  0  0  0  0  0  0  0  0
   10.7228  -16.6038   21.3330 C   0  0  1  0  0  0  0  0  0  0  0  0
   12.1037  -16.2000   21.7953 C   0  0  0  0  0  0  0  0  0  0  0  0
   13.1259  -16.1947   20.7556 C   0  0  0  0  0  0  0  0  0  0  0  0
   12.7914  -15.6894   19.6328 O   0  0  0  0  0  0  0  0  0  0  0  0
   10.5938  -18.0912   21.4510 C   0  0  0  0  0  0  0  0  0  0  0  0
    9.9990  -18.6082   22.4500 O   0  0  0  0  0  0  0  0  0  0  0  0
   14.4007  -16.6704   20.8488 O   0  0  0  0  0  0  0  0  0  0  0  0
   11.1087  -18.9438   20.4928 O   0  0  0  0  0  0  0  0  0  0  0  0
  2  1  1  6
  2 13  1  0
  2  3  1  0
  3  4  1  0
  4  5  2  0
  6  5  1  0
  7  6  1  0
  8  7  2  0
  9  8  1  0
 10 11  1  0
 10  9  2  0
 11 12  2  0
 12  4  1  0
 12  7  1  0
 13 14  2  0
 16 15  1  0
 17 16  1  0
 19 18  1  1
 18 17  1  0
 20 19  1  0
 20 13  1  0
 21 22  2  0
 21 19  1  0
 23 21  1  0
 24 28  1  0
 24 23  1  0
 24 25  1  1
 26 30  1  0
 26 25  1  0
 27 26  2  0
 28 31  1  0
 29 28  2  0
M  END
$$$$
