WMD.pdb
     RDKit          3D

 31 32  0  0  1  0  0  0  0  0999 V2000
    6.5395  -17.1446   25.6571 N   0  0  0  0  0  0  0  0  0  0  0  0
    7.0867  -16.2140   24.7071 C   0  0  1  0  0  0  0  0  0  0  0  0
    8.3861  -15.6792   25.1815 C   0  0  0  0  0  0  0  0  0  0  0  0
    8.1762  -14.7684   26.3308 C   0  0  0  0  0  0  0  0  0  0  0  0
    8.6789  -14.9401   27.6261 C   0  0  0  0  0  0  0  0  0  0  0  0
    8.3165  -13.9047   28.4016 N   0  0  0  0  0  0  0  0  0  0  0  0
    7.5946  -13.0424   27.6975 C   0  0  0  0  0  0  0  0  0  0  0  0
    7.0005  -11.8521   28.0456 C   0  0  0  0  0  0  0  0  0  0  0  0
    6.2789  -11.1302   27.1128 C   0  0  0  0  0  0  0  0  0  0  0  0
    6.1833  -11.6466   25.8446 C   0  0  0  0  0  0  0  0  0  0  0  0
    6.7833  -12.8518   25.4857 C   0  0  0  0  0  0  0  0  0  0  0  0
    7.4965  -13.5657   26.4022 C   0  0  0  0  0  0  0  0  0  0  0  0
    7.1360  -16.7815   23.3368 C   0  0  0  0  0  0  0  0  0  0  0  0
    6.9539  -18.0135   23.1598 O   0  0  0  0  0  0  0  0  0  0  0  0
    9.0370  -11.7555   19.8642 C   0  0  0  0  0  0  0  0  0  0  0  0
    7.6359  -12.9128   20.0841 S   0  0  0  0  0  0  0  0  0  0  0  0
    8.1636  -14.5012   19.4639 C   0  0  0  0  0  0  0  0  0  0  0  0
    7.2201  -15.6375   19.7187 C   0  0  0  0  0  0  0  0  0  0  0  0
    7.5043  -16.5109   20.8561 C   0  0  2  0  0  0  0  0  0  0  0  0
    7.3801  -16.0182   22.1803 N   0  0  0  0  0  0  0  0  0  0  0  0
    8.8634  -17.1016   20.7097 C   0  0  0  0  0  0  0  0  0  0  0  0
    9.2500  -17.6107   19.6005 O   0  0  0  0  0  0  0  0  0  0  0  0
    9.8115  -17.1486   21.7475 N   0  0  0  0  0  0  0  0  0  0  0  0
   11.1012  -17.8574   21.6347 C   0  0  1  0  0  0  0  0  0  0  0  0
   12.1396  -16.7990   21.9267 C   0  0  0  0  0  0  0  0  0  0  0  0
   12.6928  -16.1360   20.7518 C   0  0  0  0  0  0  0  0  0  0  0  0
   12.2286  -16.5028   19.6214 O   0  0  0  0  0  0  0  0  0  0  0  0
   11.1200  -18.8655   22.7420 C   0  0  0  0  0  0  0  0  0  0  0  0
   10.1948  -18.8789   23.6156 O   0  0  0  0  0  0  0  0  0  0  0  0
   13.6522  -15.1670   20.7258 O   0  0  0  0  0  0  0  0  0  0  0  0
   12.1282  -19.8042   22.8536 O   0  0  0  0  0  0  0  0  0  0  0  0
  2  1  1  1
  2 13  1  0
  2  3  1  0
  3  4  1  0
  4  5  2  0
  6  5  1  0
  7  6  1  0
  8  7  2  0
  9  8  1  0
 10 11  1  0
 10  9  2  0
 11 12  2  0
 12  4  1  0
 12  7  1  0
 13 14  2  0
 16 15  1  0
 17 16  1  0
 19 18  1  6
 18 17  1  0
 20 19  1  0
 20 13  1  0
 21 22  2  0
 21 19  1  0
 23 21  1  0
 24 28  1  0
 24 23  1  0
 24 25  1  1
 26 30  1  0
 26 25  1  0
 27 26  2  0
 28 31  1  0
 29 28  2  0
M  END
$$$$
