WMD.pdb
     RDKit          3D

 31 32  0  0  1  0  0  0  0  0999 V2000
    7.4419  -18.3816   22.6762 N   0  0  0  0  0  0  0  0  0  0  0  0
    7.9341  -17.3024   21.8632 C   0  0  1  0  0  0  0  0  0  0  0  0
    6.8366  -16.6960   21.0711 C   0  0  0  0  0  0  0  0  0  0  0  0
    7.3790  -15.6837   20.1355 C   0  0  0  0  0  0  0  0  0  0  0  0
    7.7410  -15.8996   18.8006 C   0  0  0  0  0  0  0  0  0  0  0  0
    8.1638  -14.7510   18.2466 N   0  0  0  0  0  0  0  0  0  0  0  0
    8.1068  -13.7702   19.1384 C   0  0  0  0  0  0  0  0  0  0  0  0
    8.4348  -12.4377   19.0509 C   0  0  0  0  0  0  0  0  0  0  0  0
    8.2910  -11.6074   20.1472 C   0  0  0  0  0  0  0  0  0  0  0  0
    7.8145  -12.1638   21.3080 C   0  0  0  0  0  0  0  0  0  0  0  0
    7.4801  -13.5131   21.4028 C   0  0  0  0  0  0  0  0  0  0  0  0
    7.6192  -14.3345   20.3239 C   0  0  0  0  0  0  0  0  0  0  0  0
    8.7156  -16.3204   22.6552 C   0  0  0  0  0  0  0  0  0  0  0  0
    9.7000  -15.7347   22.1353 O   0  0  0  0  0  0  0  0  0  0  0  0
    7.0381  -11.9743   27.4306 C   0  0  0  0  0  0  0  0  0  0  0  0
    6.0749  -13.1676   26.4312 S   0  0  0  0  0  0  0  0  0  0  0  0
    7.1185  -14.5904   26.1611 C   0  0  0  0  0  0  0  0  0  0  0  0
    8.5451  -14.2861   25.8168 C   0  0  0  0  0  0  0  0  0  0  0  0
    9.2022  -15.1462   24.8340 C   0  0  2  0  0  0  0  0  0  0  0  0
    8.4282  -15.9838   23.9909 N   0  0  0  0  0  0  0  0  0  0  0  0
   10.2257  -15.9911   25.5093 C   0  0  0  0  0  0  0  0  0  0  0  0
   11.0950  -15.4786   26.2970 O   0  0  0  0  0  0  0  0  0  0  0  0
   10.3216  -17.3847   25.3447 N   0  0  0  0  0  0  0  0  0  0  0  0
   11.3925  -18.2000   25.9504 C   0  0  1  0  0  0  0  0  0  0  0  0
   10.6851  -19.4363   26.4550 C   0  0  0  0  0  0  0  0  0  0  0  0
   10.3595  -19.4246   27.8762 C   0  0  0  0  0  0  0  0  0  0  0  0
    9.7263  -20.4385   28.3223 O   0  0  0  0  0  0  0  0  0  0  0  0
   12.3018  -18.5929   24.8272 C   0  0  0  0  0  0  0  0  0  0  0  0
   12.0192  -18.2725   23.6285 O   0  0  0  0  0  0  0  0  0  0  0  0
   10.6558  -18.4499   28.7831 O   0  0  0  0  0  0  0  0  0  0  0  0
   13.4639  -19.3075   25.0486 O   0  0  0  0  0  0  0  0  0  0  0  0
  2  1  1  1
  2 13  1  0
  2  3  1  0
  3  4  1  0
  4  5  2  0
  6  5  1  0
  7  6  1  0
  8  7  2  0
  9  8  1  0
 10 11  1  0
 10  9  2  0
 11 12  2  0
 12  4  1  0
 12  7  1  0
 13 14  2  0
 16 15  1  0
 17 16  1  0
 19 18  1  1
 18 17  1  0
 20 19  1  0
 20 13  1  0
 21 22  2  0
 21 19  1  0
 23 21  1  0
 24 28  1  0
 24 23  1  0
 24 25  1  6
 26 30  1  0
 26 25  1  0
 27 26  2  0
 28 31  1  0
 29 28  2  0
M  END
$$$$
