WMD.pdb
     RDKit          3D

 31 32  0  0  1  0  0  0  0  0999 V2000
    6.7969  -18.2402   24.6009 N   0  0  0  0  0  0  0  0  0  0  0  0
    7.2574  -16.9713   24.1053 C   0  0  1  0  0  0  0  0  0  0  0  0
    8.2869  -16.3961   25.0045 C   0  0  0  0  0  0  0  0  0  0  0  0
    7.6451  -15.5878   26.0671 C   0  0  0  0  0  0  0  0  0  0  0  0
    7.1433  -16.0669   27.2830 C   0  0  0  0  0  0  0  0  0  0  0  0
    6.6606  -15.0490   28.0150 N   0  0  0  0  0  0  0  0  0  0  0  0
    6.8099  -13.9069   27.3564 C   0  0  0  0  0  0  0  0  0  0  0  0
    6.4709  -12.6148   27.6827 C   0  0  0  0  0  0  0  0  0  0  0  0
    6.7287  -11.5795   26.8032 C   0  0  0  0  0  0  0  0  0  0  0  0
    7.3279  -11.8941   25.6090 C   0  0  0  0  0  0  0  0  0  0  0  0
    7.6741  -13.2012   25.2728 C   0  0  0  0  0  0  0  0  0  0  0  0
    7.4228  -14.2243   26.1377 C   0  0  0  0  0  0  0  0  0  0  0  0
    7.6776  -17.0480   22.6840 C   0  0  0  0  0  0  0  0  0  0  0  0
    7.8636  -18.1684   22.1432 O   0  0  0  0  0  0  0  0  0  0  0  0
    8.5717  -11.4105   19.9017 C   0  0  0  0  0  0  0  0  0  0  0  0
    6.9979  -12.1495   19.3296 S   0  0  0  0  0  0  0  0  0  0  0  0
    6.8989  -13.7866   20.0342 C   0  0  0  0  0  0  0  0  0  0  0  0
    8.0346  -14.7035   19.6941 C   0  0  0  0  0  0  0  0  0  0  0  0
    8.1717  -15.9304   20.4773 C   0  0  2  0  0  0  0  0  0  0  0  0
    7.8913  -15.9221   21.8677 N   0  0  0  0  0  0  0  0  0  0  0  0
    9.5338  -16.5005   20.2851 C   0  0  0  0  0  0  0  0  0  0  0  0
    9.9074  -16.9590   19.1497 O   0  0  0  0  0  0  0  0  0  0  0  0
   10.4988  -16.5811   21.3051 N   0  0  0  0  0  0  0  0  0  0  0  0
   11.9358  -16.7958   21.0454 C   0  0  1  0  0  0  0  0  0  0  0  0
   12.3873  -15.5295   20.3552 C   0  0  0  0  0  0  0  0  0  0  0  0
   13.7791  -15.5257   19.9208 C   0  0  0  0  0  0  0  0  0  0  0  0
   14.4078  -16.6317   20.0189 O   0  0  0  0  0  0  0  0  0  0  0  0
   12.5945  -16.8708   22.3882 C   0  0  0  0  0  0  0  0  0  0  0  0
   11.9232  -16.6535   23.4471 O   0  0  0  0  0  0  0  0  0  0  0  0
   14.4851  -14.4712   19.4211 O   0  0  0  0  0  0  0  0  0  0  0  0
   13.9361  -17.1741   22.5240 O   0  0  0  0  0  0  0  0  0  0  0  0
  2  1  1  1
  2 13  1  0
  2  3  1  0
  3  4  1  0
  4  5  2  0
  6  5  1  0
  7  6  1  0
  8  7  2  0
  9  8  1  0
 10 11  1  0
 10  9  2  0
 11 12  2  0
 12  4  1  0
 12  7  1  0
 13 14  2  0
 16 15  1  0
 17 16  1  0
 19 18  1  1
 18 17  1  0
 20 19  1  0
 20 13  1  0
 21 22  2  0
 21 19  1  0
 23 21  1  0
 24 28  1  0
 24 23  1  0
 24 25  1  6
 26 30  1  0
 26 25  1  0
 27 26  2  0
 28 31  1  0
 29 28  2  0
M  END
$$$$
