WMD.pdb
     RDKit          3D

 31 32  0  0  1  0  0  0  0  0999 V2000
    7.2003  -17.1659   25.6026 N   0  0  0  0  0  0  0  0  0  0  0  0
    7.5898  -16.1418   24.6713 C   0  0  1  0  0  0  0  0  0  0  0  0
    8.6511  -15.2811   25.2475 C   0  0  0  0  0  0  0  0  0  0  0  0
    8.1215  -14.5180   26.4015 C   0  0  0  0  0  0  0  0  0  0  0  0
    8.3995  -14.7598   27.7521 C   0  0  0  0  0  0  0  0  0  0  0  0
    7.7728  -13.8536   28.5206 N   0  0  0  0  0  0  0  0  0  0  0  0
    7.0852  -13.0121   27.7593 C   0  0  0  0  0  0  0  0  0  0  0  0
    6.2898  -11.9363   28.0770 C   0  0  0  0  0  0  0  0  0  0  0  0
    5.6621  -11.2109   27.0812 C   0  0  0  0  0  0  0  0  0  0  0  0
    5.8646  -11.6065   25.7825 C   0  0  0  0  0  0  0  0  0  0  0  0
    6.6696  -12.6953   25.4542 C   0  0  0  0  0  0  0  0  0  0  0  0
    7.2911  -13.4121   26.4330 C   0  0  0  0  0  0  0  0  0  0  0  0
    7.9282  -16.7005   23.3387 C   0  0  0  0  0  0  0  0  0  0  0  0
    8.1125  -17.9376   23.2043 O   0  0  0  0  0  0  0  0  0  0  0  0
    8.1434  -11.7853   20.8599 C   0  0  0  0  0  0  0  0  0  0  0  0
    7.8341  -12.7934   19.3638 S   0  0  0  0  0  0  0  0  0  0  0  0
    7.1595  -14.3529   19.9107 C   0  0  0  0  0  0  0  0  0  0  0  0
    8.0454  -15.5444   19.7068 C   0  0  0  0  0  0  0  0  0  0  0  0
    8.2970  -16.4060   20.8608 C   0  0  2  0  0  0  0  0  0  0  0  0
    8.0635  -15.9230   22.1738 N   0  0  0  0  0  0  0  0  0  0  0  0
    9.6895  -16.9303   20.8033 C   0  0  0  0  0  0  0  0  0  0  0  0
   10.1365  -17.5137   19.7551 O   0  0  0  0  0  0  0  0  0  0  0  0
   10.6068  -16.8313   21.8650 N   0  0  0  0  0  0  0  0  0  0  0  0
   12.0173  -17.2526   21.7585 C   0  0  1  0  0  0  0  0  0  0  0  0
   12.8039  -16.0689   22.2721 C   0  0  0  0  0  0  0  0  0  0  0  0
   14.2490  -16.2587   22.3131 C   0  0  0  0  0  0  0  0  0  0  0  0
   14.7688  -16.8776   21.3258 O   0  0  0  0  0  0  0  0  0  0  0  0
   12.1846  -18.3914   22.7167 C   0  0  0  0  0  0  0  0  0  0  0  0
   13.2533  -19.0819   22.7149 O   0  0  0  0  0  0  0  0  0  0  0  0
   15.1081  -15.8488   23.2899 O   0  0  0  0  0  0  0  0  0  0  0  0
   11.1984  -18.7286   23.6244 O   0  0  0  0  0  0  0  0  0  0  0  0
  2  1  1  1
  2 13  1  0
  2  3  1  0
  3  4  1  0
  4  5  2  0
  6  5  1  0
  7  6  1  0
  8  7  2  0
  9  8  1  0
 10 11  1  0
 10  9  2  0
 11 12  2  0
 12  4  1  0
 12  7  1  0
 13 14  2  0
 16 15  1  0
 17 16  1  0
 19 18  1  6
 18 17  1  0
 20 19  1  0
 20 13  1  0
 21 22  2  0
 21 19  1  0
 23 21  1  0
 24 28  1  0
 24 23  1  0
 24 25  1  1
 26 30  1  0
 26 25  1  0
 27 26  2  0
 28 31  1  0
 29 28  2  0
M  END
$$$$
