WMD.pdb
     RDKit          3D

 31 32  0  0  1  0  0  0  0  0999 V2000
    6.5595  -18.1749   24.9087 N   0  0  0  0  0  0  0  0  0  0  0  0
    7.1651  -17.0187   24.3052 C   0  0  1  0  0  0  0  0  0  0  0  0
    8.0216  -16.3022   25.2811 C   0  0  0  0  0  0  0  0  0  0  0  0
    7.2222  -15.3036   26.0282 C   0  0  0  0  0  0  0  0  0  0  0  0
    6.2543  -15.5781   27.0016 C   0  0  0  0  0  0  0  0  0  0  0  0
    5.7540  -14.4310   27.4899 N   0  0  0  0  0  0  0  0  0  0  0  0
    6.3333  -13.3953   26.8964 C   0  0  0  0  0  0  0  0  0  0  0  0
    6.1559  -12.0402   27.0485 C   0  0  0  0  0  0  0  0  0  0  0  0
    6.8901  -11.1479   26.2892 C   0  0  0  0  0  0  0  0  0  0  0  0
    7.7892  -11.6668   25.3911 C   0  0  0  0  0  0  0  0  0  0  0  0
    7.9739  -13.0387   25.2327 C   0  0  0  0  0  0  0  0  0  0  0  0
    7.2528  -13.9214   25.9803 C   0  0  0  0  0  0  0  0  0  0  0  0
    7.8536  -17.3507   23.0332 C   0  0  0  0  0  0  0  0  0  0  0  0
    8.2414  -18.5277   22.8171 O   0  0  0  0  0  0  0  0  0  0  0  0
    8.1336  -11.5267   20.0868 C   0  0  0  0  0  0  0  0  0  0  0  0
    7.4876  -13.1771   19.6293 S   0  0  0  0  0  0  0  0  0  0  0  0
    8.8315  -14.3374   19.8132 C   0  0  0  0  0  0  0  0  0  0  0  0
    8.4670  -15.7793   19.6275 C   0  0  0  0  0  0  0  0  0  0  0  0
    8.6978  -16.6857   20.7511 C   0  0  2  0  0  0  0  0  0  0  0  0
    8.1145  -16.4150   22.0153 N   0  0  0  0  0  0  0  0  0  0  0  0
   10.1609  -16.8780   20.9502 C   0  0  0  0  0  0  0  0  0  0  0  0
   10.9474  -17.0628   19.9571 O   0  0  0  0  0  0  0  0  0  0  0  0
   10.7860  -16.8724   22.2101 N   0  0  0  0  0  0  0  0  0  0  0  0
   12.2418  -17.0332   22.3927 C   0  0  1  0  0  0  0  0  0  0  0  0
   12.8224  -15.6994   21.9835 C   0  0  0  0  0  0  0  0  0  0  0  0
   13.5760  -15.7108   20.7354 C   0  0  0  0  0  0  0  0  0  0  0  0
   14.4715  -14.8114   20.6043 O   0  0  0  0  0  0  0  0  0  0  0  0
   12.4585  -17.2196   23.8628 C   0  0  0  0  0  0  0  0  0  0  0  0
   11.4840  -17.1181   24.6747 O   0  0  0  0  0  0  0  0  0  0  0  0
   13.4304  -16.5758   19.6910 O   0  0  0  0  0  0  0  0  0  0  0  0
   13.7068  -17.5044   24.3832 O   0  0  0  0  0  0  0  0  0  0  0  0
  2  1  1  1
  2 13  1  0
  2  3  1  0
  3  4  1  0
  4  5  2  0
  6  5  1  0
  7  6  1  0
  8  7  2  0
  9  8  1  0
 10 11  1  0
 10  9  2  0
 11 12  2  0
 12  4  1  0
 12  7  1  0
 13 14  2  0
 16 15  1  0
 17 16  1  0
 19 18  1  6
 18 17  1  0
 20 19  1  0
 20 13  1  0
 21 22  2  0
 21 19  1  0
 23 21  1  0
 24 28  1  0
 24 23  1  0
 24 25  1  1
 26 30  1  0
 26 25  1  0
 27 26  2  0
 28 31  1  0
 29 28  2  0
M  END
$$$$
