WMD.pdb
     RDKit          3D

 31 32  0  0  1  0  0  0  0  0999 V2000
    9.4572  -18.6136   21.9250 N   0  0  0  0  0  0  0  0  0  0  0  0
    9.4008  -17.2186   21.5805 C   0  0  1  0  0  0  0  0  0  0  0  0
    8.2079  -16.9288   20.7485 C   0  0  0  0  0  0  0  0  0  0  0  0
    8.3137  -15.5757   20.1550 C   0  0  0  0  0  0  0  0  0  0  0  0
    8.7220  -15.2731   18.8506 C   0  0  0  0  0  0  0  0  0  0  0  0
    8.6677  -13.9463   18.6472 N   0  0  0  0  0  0  0  0  0  0  0  0
    8.2445  -13.3365   19.7469 C   0  0  0  0  0  0  0  0  0  0  0  0
    8.0351  -12.0072   20.0298 C   0  0  0  0  0  0  0  0  0  0  0  0
    7.5909  -11.6184   21.2801 C   0  0  0  0  0  0  0  0  0  0  0  0
    7.3723  -12.6027   22.2115 C   0  0  0  0  0  0  0  0  0  0  0  0
    7.5822  -13.9512   21.9310 C   0  0  0  0  0  0  0  0  0  0  0  0
    8.0188  -14.3385   20.6991 C   0  0  0  0  0  0  0  0  0  0  0  0
    9.5267  -16.3451   22.7736 C   0  0  0  0  0  0  0  0  0  0  0  0
    9.5454  -15.0947   22.6379 O   0  0  0  0  0  0  0  0  0  0  0  0
    6.4362  -11.8908   26.1927 C   0  0  0  0  0  0  0  0  0  0  0  0
    8.0901  -12.6683   26.2958 S   0  0  0  0  0  0  0  0  0  0  0  0
    8.1701  -13.9063   25.0124 C   0  0  0  0  0  0  0  0  0  0  0  0
    8.2088  -15.3265   25.4896 C   0  0  0  0  0  0  0  0  0  0  0  0
    9.4459  -16.0771   25.2805 C   0  0  2  0  0  0  0  0  0  0  0  0
    9.6306  -16.8276   24.0913 N   0  0  0  0  0  0  0  0  0  0  0  0
    9.6876  -16.9814   26.4385 C   0  0  0  0  0  0  0  0  0  0  0  0
    9.5581  -16.5670   27.6429 O   0  0  0  0  0  0  0  0  0  0  0  0
   10.0672  -18.3298   26.3118 N   0  0  0  0  0  0  0  0  0  0  0  0
   10.4576  -19.1725   27.4589 C   0  0  1  0  0  0  0  0  0  0  0  0
   11.0348  -20.4199   26.8308 C   0  0  0  0  0  0  0  0  0  0  0  0
   10.1974  -21.0429   25.8127 C   0  0  0  0  0  0  0  0  0  0  0  0
    8.9365  -20.9779   25.9968 O   0  0  0  0  0  0  0  0  0  0  0  0
   11.5570  -18.4365   28.1606 C   0  0  0  0  0  0  0  0  0  0  0  0
   12.3925  -17.7430   27.4972 O   0  0  0  0  0  0  0  0  0  0  0  0
   10.6113  -21.6882   24.6847 O   0  0  0  0  0  0  0  0  0  0  0  0
   11.7017  -18.4832   29.5343 O   0  0  0  0  0  0  0  0  0  0  0  0
  2  1  1  1
  2 13  1  0
  2  3  1  0
  3  4  1  0
  4  5  2  0
  6  5  1  0
  7  6  1  0
  8  7  2  0
  9  8  1  0
 10 11  1  0
 10  9  2  0
 11 12  2  0
 12  4  1  0
 12  7  1  0
 13 14  2  0
 16 15  1  0
 17 16  1  0
 19 18  1  1
 18 17  1  0
 20 19  1  0
 20 13  1  0
 21 22  2  0
 21 19  1  0
 23 21  1  0
 24 28  1  0
 24 23  1  0
 24 25  1  6
 26 30  1  0
 26 25  1  0
 27 26  2  0
 28 31  1  0
 29 28  2  0
M  END
$$$$
