DLQ.pdb
     RDKit          3D

 26 25  0  0  1  0  0  0  0  0999 V2000
   21.4331  -12.3065  -18.2654 N   0  0  0  0  0  0  0  0  0  0  0  0
   21.6950  -10.9527  -18.6452 C   0  0  1  0  0  0  0  0  0  0  0  0
   20.5611  -10.2691  -19.3717 C   0  0  0  0  0  0  0  0  0  0  0  0
   20.3460  -11.0084  -20.6379 C   0  0  0  0  0  0  0  0  0  0  0  0
   21.2878  -11.7295  -21.0976 O   0  0  0  0  0  0  0  0  0  0  0  0
   22.1574  -10.1893  -17.4790 C   0  0  0  0  0  0  0  0  0  0  0  0
   21.5846  -10.2093  -16.3564 O   0  0  0  0  0  0  0  0  0  0  0  0
   19.1371  -10.9064  -21.3067 O   0  0  0  0  0  0  0  0  0  0  0  0
   27.2957  -10.4503  -16.4548 C   0  0  0  0  0  0  0  0  0  0  0  0
   25.7623  -10.3791  -16.1893 C   0  0  1  0  0  0  0  0  0  0  0  0
   25.6653  -10.7405  -14.7022 C   0  0  0  0  0  0  0  0  0  0  0  0
   25.3152   -8.9936  -16.4510 C   0  0  0  0  0  0  0  0  0  0  0  0
   23.8774   -8.6530  -16.4107 C   0  0  2  0  0  0  0  0  0  0  0  0
   23.3011   -9.3801  -17.5929 N   0  0  0  0  0  0  0  0  0  0  0  0
   23.5003   -7.2412  -16.5826 C   0  0  0  0  0  0  0  0  0  0  0  0
   23.9045   -6.6336  -17.6145 O   0  0  0  0  0  0  0  0  0  0  0  0
   18.4523   -2.4021  -17.3757 N   0  0  0  0  0  0  0  0  0  0  0  0
   19.0329   -3.5656  -16.8395 C   0  0  0  0  0  0  0  0  0  0  0  0
   18.3260   -4.5805  -16.6606 O   0  0  0  0  0  0  0  0  0  0  0  0
   20.4682   -3.5785  -16.4923 C   0  0  0  0  0  0  0  0  0  0  0  0
   20.9181   -5.0085  -16.3589 C   0  0  0  0  0  0  0  0  0  0  0  0
   22.3665   -5.0871  -15.8899 C   0  0  2  0  0  0  0  0  0  0  0  0
   22.7206   -6.4991  -15.6881 N   0  0  0  0  0  0  0  0  0  0  0  0
   22.4898   -4.4211  -14.5883 C   0  0  0  0  0  0  0  0  0  0  0  0
   22.4329   -5.0711  -13.3550 O   0  0  0  0  0  0  0  0  0  0  0  0
   22.6603   -3.1510  -14.5594 O   0  0  0  0  0  0  0  0  0  0  0  0
  2  1  1  1
  2  3  1  0
  3  4  1  0
  4  8  1  0
  5  4  2  0
  6 14  1  0
  6  2  1  0
  7  6  2  0
 10  9  1  1
 10 12  1  0
 10 11  1  0
 13 12  1  6
 13 14  1  0
 15 13  1  0
 16 15  2  0
 17 18  1  0
 18 20  1  0
 19 18  2  0
 20 21  1  0
 22 21  1  1
 22 23  1  0
 23 15  1  0
 24 22  1  0
 24 25  1  0
 26 24  2  0
M  END
$$$$
