DLQ.pdb
     RDKit          3D

 26 25  0  0  1  0  0  0  0  0999 V2000
   21.2425  -23.7347  -14.6328 N   0  0  0  0  0  0  0  0  0  0  0  0
   19.9130  -23.2074  -14.6289 C   0  0  1  0  0  0  0  0  0  0  0  0
   18.8754  -24.1131  -14.0094 C   0  0  0  0  0  0  0  0  0  0  0  0
   18.7116  -25.2731  -14.9169 C   0  0  0  0  0  0  0  0  0  0  0  0
   19.2340  -25.2270  -16.0758 O   0  0  0  0  0  0  0  0  0  0  0  0
   19.9125  -21.8635  -14.0368 C   0  0  0  0  0  0  0  0  0  0  0  0
   18.8723  -21.1711  -13.8716 O   0  0  0  0  0  0  0  0  0  0  0  0
   17.9949  -26.3844  -14.5036 O   0  0  0  0  0  0  0  0  0  0  0  0
   23.3734  -20.8463   -9.9317 C   0  0  0  0  0  0  0  0  0  0  0  0
   22.0459  -20.8490  -10.7470 C   0  0  1  0  0  0  0  0  0  0  0  0
   21.0663  -20.1600   -9.7893 C   0  0  0  0  0  0  0  0  0  0  0  0
   22.2622  -20.0586  -11.9785 C   0  0  0  0  0  0  0  0  0  0  0  0
   21.1854  -19.9324  -12.9832 C   0  0  2  0  0  0  0  0  0  0  0  0
   21.1277  -21.2911  -13.6227 N   0  0  0  0  0  0  0  0  0  0  0  0
   21.3813  -18.9764  -14.0844 C   0  0  0  0  0  0  0  0  0  0  0  0
   22.4824  -18.9931  -14.7046 O   0  0  0  0  0  0  0  0  0  0  0  0
   18.6902  -17.8696  -19.0792 N   0  0  0  0  0  0  0  0  0  0  0  0
   19.5488  -16.7561  -19.1108 C   0  0  0  0  0  0  0  0  0  0  0  0
   19.6840  -16.1124  -20.1734 O   0  0  0  0  0  0  0  0  0  0  0  0
   20.2824  -16.3581  -17.8924 C   0  0  0  0  0  0  0  0  0  0  0  0
   20.0043  -17.3682  -16.8120 C   0  0  0  0  0  0  0  0  0  0  0  0
   20.7187  -16.9980  -15.5171 C   0  0  2  0  0  0  0  0  0  0  0  0
   20.4396  -18.0336  -14.5123 N   0  0  0  0  0  0  0  0  0  0  0  0
   20.1670  -15.7389  -15.0038 C   0  0  0  0  0  0  0  0  0  0  0  0
   19.1502  -15.6466  -14.0530 O   0  0  0  0  0  0  0  0  0  0  0  0
   20.6373  -14.6329  -15.4493 O   0  0  0  0  0  0  0  0  0  0  0  0
  2  1  1  1
  2  3  1  0
  3  4  1  0
  4  8  1  0
  5  4  2  0
  6 14  1  0
  6  2  1  0
  7  6  2  0
 10  9  1  1
 10 12  1  0
 10 11  1  0
 13 12  1  1
 13 14  1  0
 15 13  1  0
 16 15  2  0
 17 18  1  0
 18 20  1  0
 19 18  2  0
 20 21  1  0
 22 21  1  6
 22 23  1  0
 23 15  1  0
 24 22  1  0
 24 25  1  0
 26 24  2  0
M  END
$$$$
