DLQ.pdb
     RDKit          3D

 26 25  0  0  1  0  0  0  0  0999 V2000
   16.9590  -11.4994  -17.4903 N   0  0  0  0  0  0  0  0  0  0  0  0
   17.7484  -10.3508  -17.8114 C   0  0  1  0  0  0  0  0  0  0  0  0
   16.9792   -9.2076  -18.4296 C   0  0  0  0  0  0  0  0  0  0  0  0
   16.4457   -9.6911  -19.7248 C   0  0  0  0  0  0  0  0  0  0  0  0
   17.2623  -10.0403  -20.6355 O   0  0  0  0  0  0  0  0  0  0  0  0
   18.5248   -9.9360  -16.6358 C   0  0  0  0  0  0  0  0  0  0  0  0
   18.0662   -9.9243  -15.4618 O   0  0  0  0  0  0  0  0  0  0  0  0
   15.0776   -9.7538  -19.9341 O   0  0  0  0  0  0  0  0  0  0  0  0
   22.4798  -10.0792  -13.2615 C   0  0  0  0  0  0  0  0  0  0  0  0
   22.9740   -9.8131  -14.7147 C   0  0  1  0  0  0  0  0  0  0  0  0
   24.0574  -10.8826  -14.8985 C   0  0  0  0  0  0  0  0  0  0  0  0
   21.8326  -10.0198  -15.6326 C   0  0  0  0  0  0  0  0  0  0  0  0
   20.6967   -9.0740  -15.6363 C   0  0  2  0  0  0  0  0  0  0  0  0
   19.8580   -9.5220  -16.8000 N   0  0  0  0  0  0  0  0  0  0  0  0
   20.9876   -7.6512  -15.8730 C   0  0  0  0  0  0  0  0  0  0  0  0
   21.4192   -7.3083  -17.0103 O   0  0  0  0  0  0  0  0  0  0  0  0
   17.6049   -2.9975  -14.5923 N   0  0  0  0  0  0  0  0  0  0  0  0
   17.7195   -3.6634  -15.8258 C   0  0  0  0  0  0  0  0  0  0  0  0
   16.7563   -3.6552  -16.6221 O   0  0  0  0  0  0  0  0  0  0  0  0
   18.9725   -4.3655  -16.1690 C   0  0  0  0  0  0  0  0  0  0  0  0
   19.8563   -4.3954  -14.9513 C   0  0  0  0  0  0  0  0  0  0  0  0
   21.1174   -5.2128  -15.2077 C   0  0  2  0  0  0  0  0  0  0  0  0
   20.8263   -6.6269  -14.9330 N   0  0  0  0  0  0  0  0  0  0  0  0
   22.1628   -4.7966  -14.2659 C   0  0  0  0  0  0  0  0  0  0  0  0
   22.9805   -3.6781  -14.4306 O   0  0  0  0  0  0  0  0  0  0  0  0
   22.3568   -5.4980  -13.2108 O   0  0  0  0  0  0  0  0  0  0  0  0
  2  1  1  1
  2  3  1  0
  3  4  1  0
  4  8  1  0
  5  4  2  0
  6 14  1  0
  6  2  1  0
  7  6  2  0
 10  9  1  1
 10 12  1  0
 10 11  1  0
 13 12  1  6
 13 14  1  0
 15 13  1  0
 16 15  2  0
 17 18  1  0
 18 20  1  0
 19 18  2  0
 20 21  1  0
 22 21  1  1
 22 23  1  0
 23 15  1  0
 24 22  1  0
 24 25  1  0
 26 24  2  0
M  END
$$$$
