DLQ.pdb
     RDKit          3D

 26 25  0  0  1  0  0  0  0  0999 V2000
   30.1846  -24.0707  -17.5333 N   0  0  0  0  0  0  0  0  0  0  0  0
   28.9209  -23.4015  -17.5606 C   0  0  1  0  0  0  0  0  0  0  0  0
   27.7375  -24.2961  -17.8436 C   0  0  0  0  0  0  0  0  0  0  0  0
   27.9531  -24.8937  -19.1823 C   0  0  0  0  0  0  0  0  0  0  0  0
   27.8552  -24.1518  -20.2110 O   0  0  0  0  0  0  0  0  0  0  0  0
   28.7490  -22.6124  -16.3339 C   0  0  0  0  0  0  0  0  0  0  0  0
   29.3089  -22.8886  -15.2390 O   0  0  0  0  0  0  0  0  0  0  0  0
   28.2512  -26.2413  -19.3032 O   0  0  0  0  0  0  0  0  0  0  0  0
   26.0295  -18.3184  -16.5111 C   0  0  0  0  0  0  0  0  0  0  0  0
   27.4938  -18.7037  -16.8775 C   0  0  1  0  0  0  0  0  0  0  0  0
   28.0972  -17.3571  -17.2950 C   0  0  0  0  0  0  0  0  0  0  0  0
   28.1426  -19.2470  -15.6643 C   0  0  0  0  0  0  0  0  0  0  0  0
   27.7719  -20.5841  -15.1547 C   0  0  2  0  0  0  0  0  0  0  0  0
   27.9169  -21.4797  -16.3527 N   0  0  0  0  0  0  0  0  0  0  0  0
   26.3961  -20.7781  -14.6703 C   0  0  0  0  0  0  0  0  0  0  0  0
   25.5823  -21.4015  -15.4094 O   0  0  0  0  0  0  0  0  0  0  0  0
   24.6355  -20.9514   -8.9043 N   0  0  0  0  0  0  0  0  0  0  0  0
   23.3540  -21.0190   -9.4800 C   0  0  0  0  0  0  0  0  0  0  0  0
   22.3994  -21.4646   -8.8077 O   0  0  0  0  0  0  0  0  0  0  0  0
   23.1473  -20.5653  -10.8700 C   0  0  0  0  0  0  0  0  0  0  0  0
   24.4846  -20.2182  -11.4667 C   0  0  0  0  0  0  0  0  0  0  0  0
   24.5708  -20.6683  -12.9207 C   0  0  2  0  0  0  0  0  0  0  0  0
   25.9009  -20.3244  -13.4425 N   0  0  0  0  0  0  0  0  0  0  0  0
   23.5891  -19.9224  -13.7164 C   0  0  0  0  0  0  0  0  0  0  0  0
   22.2771  -20.3358  -13.9498 O   0  0  0  0  0  0  0  0  0  0  0  0
   23.9421  -18.8097  -14.2458 O   0  0  0  0  0  0  0  0  0  0  0  0
  2  1  1  1
  2  3  1  0
  3  4  1  0
  4  8  1  0
  5  4  2  0
  6 14  1  0
  6  2  1  0
  7  6  2  0
 10  9  1  1
 10 12  1  0
 10 11  1  0
 13 12  1  6
 13 14  1  0
 15 13  1  0
 16 15  2  0
 17 18  1  0
 18 20  1  0
 19 18  2  0
 20 21  1  0
 22 21  1  1
 22 23  1  0
 23 15  1  0
 24 22  1  0
 24 25  1  0
 26 24  2  0
M  END
$$$$
