DLQ.pdb
     RDKit          3D

 26 25  0  0  1  0  0  0  0  0999 V2000
   26.9818  -23.7240  -16.2328 N   0  0  0  0  0  0  0  0  0  0  0  0
   26.1130  -23.0281  -17.1307 C   0  0  1  0  0  0  0  0  0  0  0  0
   25.1139  -23.9032  -17.8495 C   0  0  0  0  0  0  0  0  0  0  0  0
   25.8860  -24.9279  -18.5911 C   0  0  0  0  0  0  0  0  0  0  0  0
   25.7202  -26.1548  -18.2990 O   0  0  0  0  0  0  0  0  0  0  0  0
   25.4766  -21.9021  -16.4350 C   0  0  0  0  0  0  0  0  0  0  0  0
   24.9128  -22.0008  -15.3120 O   0  0  0  0  0  0  0  0  0  0  0  0
   26.7760  -24.5467  -19.5820 O   0  0  0  0  0  0  0  0  0  0  0  0
   28.1599  -17.1670  -16.6748 C   0  0  0  0  0  0  0  0  0  0  0  0
   27.3114  -18.2677  -15.9709 C   0  0  1  0  0  0  0  0  0  0  0  0
   27.1445  -17.7038  -14.5547 C   0  0  0  0  0  0  0  0  0  0  0  0
   26.0172  -18.3725  -16.6795 C   0  0  0  0  0  0  0  0  0  0  0  0
   25.0332  -19.4038  -16.2882 C   0  0  2  0  0  0  0  0  0  0  0  0
   25.4803  -20.6301  -17.0331 N   0  0  0  0  0  0  0  0  0  0  0  0
   23.6274  -19.1918  -16.6674 C   0  0  0  0  0  0  0  0  0  0  0  0
   23.3084  -19.3191  -17.8837 O   0  0  0  0  0  0  0  0  0  0  0  0
   18.7178  -20.8371  -13.6525 N   0  0  0  0  0  0  0  0  0  0  0  0
   18.0612  -20.0423  -14.6093 C   0  0  0  0  0  0  0  0  0  0  0  0
   16.8187  -20.1152  -14.7227 O   0  0  0  0  0  0  0  0  0  0  0  0
   18.8424  -19.1316  -15.4701 C   0  0  0  0  0  0  0  0  0  0  0  0
   20.2947  -19.2376  -15.0896 C   0  0  0  0  0  0  0  0  0  0  0  0
   21.1929  -18.6890  -16.1925 C   0  0  2  0  0  0  0  0  0  0  0  0
   22.5950  -18.8551  -15.7846 N   0  0  0  0  0  0  0  0  0  0  0  0
   20.9537  -17.2487  -16.3386 C   0  0  0  0  0  0  0  0  0  0  0  0
   19.9314  -16.6871  -17.1043 O   0  0  0  0  0  0  0  0  0  0  0  0
   21.7293  -16.4301  -15.7294 O   0  0  0  0  0  0  0  0  0  0  0  0
  2  1  1  1
  2  3  1  0
  3  4  1  0
  4  8  1  0
  5  4  2  0
  6 14  1  0
  6  2  1  0
  7  6  2  0
 10  9  1  6
 10 12  1  0
 10 11  1  0
 13 12  1  6
 13 14  1  0
 15 13  1  0
 16 15  2  0
 17 18  1  0
 18 20  1  0
 19 18  2  0
 20 21  1  0
 22 21  1  1
 22 23  1  0
 23 15  1  0
 24 22  1  0
 24 25  1  0
 26 24  2  0
M  END
$$$$
