DLQ.pdb
     RDKit          3D

 26 25  0  0  1  0  0  0  0  0999 V2000
   27.8388  -21.6487  -16.0345 N   0  0  0  0  0  0  0  0  0  0  0  0
   27.3786  -20.6398  -15.1312 C   0  0  1  0  0  0  0  0  0  0  0  0
   26.7937  -19.4159  -15.7950 C   0  0  0  0  0  0  0  0  0  0  0  0
   27.7900  -18.9372  -16.7821 C   0  0  0  0  0  0  0  0  0  0  0  0
   29.0126  -18.8661  -16.4382 O   0  0  0  0  0  0  0  0  0  0  0  0
   26.4679  -21.2337  -14.1439 C   0  0  0  0  0  0  0  0  0  0  0  0
   25.7238  -22.2226  -14.3829 O   0  0  0  0  0  0  0  0  0  0  0  0
   27.3870  -18.5702  -18.0558 O   0  0  0  0  0  0  0  0  0  0  0  0
   24.8733  -21.6080   -8.5009 C   0  0  0  0  0  0  0  0  0  0  0  0
   25.1852  -20.3803   -9.4077 C   0  0  1  0  0  0  0  0  0  0  0  0
   25.9694  -19.4606   -8.4638 C   0  0  0  0  0  0  0  0  0  0  0  0
   26.0148  -20.8455  -10.5406 C   0  0  0  0  0  0  0  0  0  0  0  0
   25.3908  -21.1602  -11.8430 C   0  0  2  0  0  0  0  0  0  0  0  0
   26.4006  -20.6873  -12.8505 N   0  0  0  0  0  0  0  0  0  0  0  0
   24.1316  -20.4798  -12.1843 C   0  0  0  0  0  0  0  0  0  0  0  0
   24.1915  -19.3118  -12.6634 O   0  0  0  0  0  0  0  0  0  0  0  0
   20.7092  -21.0977  -16.4325 N   0  0  0  0  0  0  0  0  0  0  0  0
   21.0414  -22.2176  -15.6490 C   0  0  0  0  0  0  0  0  0  0  0  0
   21.0445  -23.3540  -16.1688 O   0  0  0  0  0  0  0  0  0  0  0  0
   21.3820  -22.0425  -14.2227 C   0  0  0  0  0  0  0  0  0  0  0  0
   21.3762  -20.5718  -13.9038 C   0  0  0  0  0  0  0  0  0  0  0  0
   21.6159  -20.3311  -12.4176 C   0  0  2  0  0  0  0  0  0  0  0  0
   22.8514  -21.0214  -12.0216 N   0  0  0  0  0  0  0  0  0  0  0  0
   20.5203  -20.9317  -11.6481 C   0  0  0  0  0  0  0  0  0  0  0  0
   20.6460  -22.0575  -10.8335 O   0  0  0  0  0  0  0  0  0  0  0  0
   19.3556  -20.4011  -11.7166 O   0  0  0  0  0  0  0  0  0  0  0  0
  2  1  1  6
  2  3  1  0
  3  4  1  0
  4  8  1  0
  5  4  2  0
  6 14  1  0
  6  2  1  0
  7  6  2  0
 10  9  1  1
 10 12  1  0
 10 11  1  0
 13 12  1  1
 13 14  1  0
 15 13  1  0
 16 15  2  0
 17 18  1  0
 18 20  1  0
 19 18  2  0
 20 21  1  0
 22 21  1  6
 22 23  1  0
 23 15  1  0
 24 22  1  0
 24 25  1  0
 26 24  2  0
M  END
$$$$
