DLQ.pdb
     RDKit          3D

 26 25  0  0  1  0  0  0  0  0999 V2000
   18.5082  -10.5099  -17.1635 N   0  0  0  0  0  0  0  0  0  0  0  0
   17.8241   -9.8324  -16.1059 C   0  0  1  0  0  0  0  0  0  0  0  0
   17.1604  -10.7405  -15.0982 C   0  0  0  0  0  0  0  0  0  0  0  0
   16.0071  -11.3764  -15.7775 C   0  0  0  0  0  0  0  0  0  0  0  0
   15.4528  -10.7691  -16.7482 O   0  0  0  0  0  0  0  0  0  0  0  0
   18.7230   -8.8560  -15.4771 C   0  0  0  0  0  0  0  0  0  0  0  0
   18.4023   -8.1441  -14.4876 O   0  0  0  0  0  0  0  0  0  0  0  0
   15.5429  -12.6106  -15.3526 O   0  0  0  0  0  0  0  0  0  0  0  0
   23.9100  -10.1981  -14.8300 C   0  0  0  0  0  0  0  0  0  0  0  0
   22.5103   -9.5990  -14.5005 C   0  0  1  0  0  0  0  0  0  0  0  0
   22.6714   -9.1616  -13.0397 C   0  0  0  0  0  0  0  0  0  0  0  0
   22.2810   -8.4471  -15.3997 C   0  0  0  0  0  0  0  0  0  0  0  0
   20.9942   -7.7204  -15.3687 C   0  0  2  0  0  0  0  0  0  0  0  0
   20.0210   -8.6834  -15.9882 N   0  0  0  0  0  0  0  0  0  0  0  0
   20.8867   -6.4790  -16.1513 C   0  0  0  0  0  0  0  0  0  0  0  0
   20.6731   -6.5697  -17.3937 O   0  0  0  0  0  0  0  0  0  0  0  0
   16.6246   -4.1262  -17.5420 N   0  0  0  0  0  0  0  0  0  0  0  0
   17.3041   -2.9269  -17.8216 C   0  0  0  0  0  0  0  0  0  0  0  0
   16.7024   -1.9995  -18.4045 O   0  0  0  0  0  0  0  0  0  0  0  0
   18.7187   -2.7736  -17.4265 C   0  0  0  0  0  0  0  0  0  0  0  0
   19.1657   -4.0357  -16.7392 C   0  0  0  0  0  0  0  0  0  0  0  0
   20.6454   -3.9700  -16.3781 C   0  0  2  0  0  0  0  0  0  0  0  0
   21.0028   -5.1846  -15.6320 N   0  0  0  0  0  0  0  0  0  0  0  0
   20.8740   -2.8304  -15.4825 C   0  0  0  0  0  0  0  0  0  0  0  0
   21.3375   -1.5795  -15.8912 O   0  0  0  0  0  0  0  0  0  0  0  0
   20.6393   -2.9736  -14.2305 O   0  0  0  0  0  0  0  0  0  0  0  0
  2  1  1  6
  2  3  1  0
  3  4  1  0
  4  8  1  0
  5  4  2  0
  6 14  1  0
  6  2  1  0
  7  6  2  0
 10  9  1  6
 10 12  1  0
 10 11  1  0
 13 12  1  6
 13 14  1  0
 15 13  1  0
 16 15  2  0
 17 18  1  0
 18 20  1  0
 19 18  2  0
 20 21  1  0
 22 21  1  1
 22 23  1  0
 23 15  1  0
 24 22  1  0
 24 25  1  0
 26 24  2  0
M  END
$$$$
