DLQ.pdb
     RDKit          3D

 26 25  0  0  1  0  0  0  0  0999 V2000
   17.8716  -11.6239  -17.1725 N   0  0  0  0  0  0  0  0  0  0  0  0
   17.5027  -11.6258  -15.7907 C   0  0  1  0  0  0  0  0  0  0  0  0
   17.1269  -12.9803  -15.2384 C   0  0  0  0  0  0  0  0  0  0  0  0
   15.8138  -13.3404  -15.8230 C   0  0  0  0  0  0  0  0  0  0  0  0
   15.5770  -13.0413  -17.0366 O   0  0  0  0  0  0  0  0  0  0  0  0
   18.5456  -10.9638  -14.9963 C   0  0  0  0  0  0  0  0  0  0  0  0
   18.5144  -10.8680  -13.7399 O   0  0  0  0  0  0  0  0  0  0  0  0
   14.8625  -13.9881  -15.0516 O   0  0  0  0  0  0  0  0  0  0  0  0
   23.8252  -10.1861  -14.0693 C   0  0  0  0  0  0  0  0  0  0  0  0
   23.2925   -9.4979  -15.3614 C   0  0  1  0  0  0  0  0  0  0  0  0
   24.3641   -9.8599  -16.3968 C   0  0  0  0  0  0  0  0  0  0  0  0
   21.9807  -10.0960  -15.6923 C   0  0  0  0  0  0  0  0  0  0  0  0
   20.7865   -9.7701  -14.8845 C   0  0  2  0  0  0  0  0  0  0  0  0
   19.6528  -10.3942  -15.6484 N   0  0  0  0  0  0  0  0  0  0  0  0
   20.4316   -8.3512  -14.7237 C   0  0  0  0  0  0  0  0  0  0  0  0
   19.7588   -7.7939  -15.6370 O   0  0  0  0  0  0  0  0  0  0  0  0
   17.7451   -7.4852   -9.7625 N   0  0  0  0  0  0  0  0  0  0  0  0
   18.3386   -6.3325  -10.3079 C   0  0  0  0  0  0  0  0  0  0  0  0
   17.8422   -5.2112  -10.0668 O   0  0  0  0  0  0  0  0  0  0  0  0
   19.5392   -6.4558  -11.1590 C   0  0  0  0  0  0  0  0  0  0  0  0
   19.1738   -6.0649  -12.5657 C   0  0  0  0  0  0  0  0  0  0  0  0
   20.3842   -6.1424  -13.4892 C   0  0  2  0  0  0  0  0  0  0  0  0
   20.7803   -7.5506  -13.6300 N   0  0  0  0  0  0  0  0  0  0  0  0
   21.5114   -5.4371  -12.8686 C   0  0  0  0  0  0  0  0  0  0  0  0
   21.5637   -4.0599  -12.6511 O   0  0  0  0  0  0  0  0  0  0  0  0
   22.5322   -6.1157  -12.4940 O   0  0  0  0  0  0  0  0  0  0  0  0
  2  1  1  6
  2  3  1  0
  3  4  1  0
  4  8  1  0
  5  4  2  0
  6 14  1  0
  6  2  1  0
  7  6  2  0
 10  9  1  1
 10 12  1  0
 10 11  1  0
 13 12  1  6
 13 14  1  0
 15 13  1  0
 16 15  2  0
 17 18  1  0
 18 20  1  0
 19 18  2  0
 20 21  1  0
 22 21  1  1
 22 23  1  0
 23 15  1  0
 24 22  1  0
 24 25  1  0
 26 24  2  0
M  END
$$$$
