DLQ.pdb
     RDKit          3D

 26 25  0  0  1  0  0  0  0  0999 V2000
   29.0760  -21.0509  -16.9643 N   0  0  0  0  0  0  0  0  0  0  0  0
   27.7623  -21.5524  -16.7027 C   0  0  1  0  0  0  0  0  0  0  0  0
   27.7185  -22.9688  -16.1804 C   0  0  0  0  0  0  0  0  0  0  0  0
   28.3066  -23.8377  -17.2269 C   0  0  0  0  0  0  0  0  0  0  0  0
   28.9280  -24.8906  -16.8754 O   0  0  0  0  0  0  0  0  0  0  0  0
   27.0330  -20.6124  -15.8417 C   0  0  0  0  0  0  0  0  0  0  0  0
   27.2599  -20.4700  -14.6101 O   0  0  0  0  0  0  0  0  0  0  0  0
   28.1815  -23.4988  -18.5643 O   0  0  0  0  0  0  0  0  0  0  0  0
   26.3392  -15.4352  -17.1561 C   0  0  0  0  0  0  0  0  0  0  0  0
   26.5690  -16.6923  -16.2651 C   0  0  1  0  0  0  0  0  0  0  0  0
   26.7100  -16.0854  -14.8640 C   0  0  0  0  0  0  0  0  0  0  0  0
   25.3738  -17.5569  -16.3745 C   0  0  0  0  0  0  0  0  0  0  0  0
   25.2740  -18.7972  -15.5765 C   0  0  2  0  0  0  0  0  0  0  0  0
   26.0175  -19.8141  -16.3960 N   0  0  0  0  0  0  0  0  0  0  0  0
   23.9348  -19.3630  -15.3499 C   0  0  0  0  0  0  0  0  0  0  0  0
   23.3037  -19.8266  -16.3419 O   0  0  0  0  0  0  0  0  0  0  0  0
   21.3586  -20.9366   -9.8744 N   0  0  0  0  0  0  0  0  0  0  0  0
   20.2644  -21.1632  -10.7286 C   0  0  0  0  0  0  0  0  0  0  0  0
   19.1957  -21.6067  -10.2563 O   0  0  0  0  0  0  0  0  0  0  0  0
   20.3867  -20.8770  -12.1722 C   0  0  0  0  0  0  0  0  0  0  0  0
   21.7578  -20.3159  -12.4370 C   0  0  0  0  0  0  0  0  0  0  0  0
   21.9524  -20.0179  -13.9194 C   0  0  2  0  0  0  0  0  0  0  0  0
   23.2872  -19.4334  -14.1113 N   0  0  0  0  0  0  0  0  0  0  0  0
   20.9746  -19.0086  -14.3417 C   0  0  0  0  0  0  0  0  0  0  0  0
   21.2476  -17.6473  -14.4796 O   0  0  0  0  0  0  0  0  0  0  0  0
   19.7774  -19.3827  -14.6057 O   0  0  0  0  0  0  0  0  0  0  0  0
  2  1  1  1
  2  3  1  0
  3  4  1  0
  4  8  1  0
  5  4  2  0
  6 14  1  0
  6  2  1  0
  7  6  2  0
 10  9  1  6
 10 12  1  0
 10 11  1  0
 13 12  1  6
 13 14  1  0
 15 13  1  0
 16 15  2  0
 17 18  1  0
 18 20  1  0
 19 18  2  0
 20 21  1  0
 22 21  1  1
 22 23  1  0
 23 15  1  0
 24 22  1  0
 24 25  1  0
 26 24  2  0
M  END
$$$$
