DLQ.pdb
     RDKit          3D

 26 25  0  0  1  0  0  0  0  0999 V2000
   12.8665  -12.2971    6.0064 N   0  0  0  0  0  0  0  0  0  0  0  0
   13.4964  -13.4483    6.5752 C   0  0  1  0  0  0  0  0  0  0  0  0
   12.5450  -14.4704    7.1502 C   0  0  0  0  0  0  0  0  0  0  0  0
   13.3440  -15.3741    8.0110 C   0  0  0  0  0  0  0  0  0  0  0  0
   14.2087  -14.8710    8.7968 O   0  0  0  0  0  0  0  0  0  0  0  0
   14.4323  -14.0333    5.6062 C   0  0  0  0  0  0  0  0  0  0  0  0
   14.1905  -14.1372    4.3735 O   0  0  0  0  0  0  0  0  0  0  0  0
   13.1496  -16.7445    7.9510 O   0  0  0  0  0  0  0  0  0  0  0  0
   19.5828  -12.3422    5.5675 C   0  0  0  0  0  0  0  0  0  0  0  0
   18.2327  -12.8378    4.9688 C   0  0  1  0  0  0  0  0  0  0  0  0
   18.5413  -12.9110    3.4685 C   0  0  0  0  0  0  0  0  0  0  0  0
   17.9404  -14.1715    5.5380 C   0  0  0  0  0  0  0  0  0  0  0  0
   16.7536  -14.9304    5.0903 C   0  0  2  0  0  0  0  0  0  0  0  0
   15.6757  -14.5144    6.0513 N   0  0  0  0  0  0  0  0  0  0  0  0
   16.8105  -16.3991    5.1594 C   0  0  0  0  0  0  0  0  0  0  0  0
   17.7154  -16.9956    4.5092 O   0  0  0  0  0  0  0  0  0  0  0  0
   16.2586  -20.1602    2.0343 N   0  0  0  0  0  0  0  0  0  0  0  0
   16.2684  -21.1219    3.0607 C   0  0  0  0  0  0  0  0  0  0  0  0
   16.3618  -22.3334    2.7687 O   0  0  0  0  0  0  0  0  0  0  0  0
   16.1677  -20.6940    4.4705 C   0  0  0  0  0  0  0  0  0  0  0  0
   15.9407  -19.2067    4.5068 C   0  0  0  0  0  0  0  0  0  0  0  0
   16.0166  -18.6742    5.9333 C   0  0  2  0  0  0  0  0  0  0  0  0
   15.9352  -17.2073    5.8937 N   0  0  0  0  0  0  0  0  0  0  0  0
   17.3218  -19.0185    6.5087 C   0  0  0  0  0  0  0  0  0  0  0  0
   18.3137  -18.0940    6.8374 O   0  0  0  0  0  0  0  0  0  0  0  0
   17.5913  -20.2517    6.7314 O   0  0  0  0  0  0  0  0  0  0  0  0
  2  1  1  6
  2  3  1  0
  3  4  1  0
  4  8  1  0
  5  4  2  0
  6 14  1  0
  6  2  1  0
  7  6  2  0
 10  9  1  1
 10 12  1  0
 10 11  1  0
 13 12  1  1
 13 14  1  0
 15 13  1  0
 16 15  2  0
 17 18  1  0
 18 20  1  0
 19 18  2  0
 20 21  1  0
 22 21  1  6
 22 23  1  0
 23 15  1  0
 24 22  1  0
 24 25  1  0
 26 24  2  0
M  END
$$$$
