DLQ.pdb
     RDKit          3D

 26 25  0  0  1  0  0  0  0  0999 V2000
   21.5399  -13.2363  -18.0302 N   0  0  0  0  0  0  0  0  0  0  0  0
   21.8367  -11.9846  -18.6552 C   0  0  1  0  0  0  0  0  0  0  0  0
   20.8376  -11.5466  -19.6996 C   0  0  0  0  0  0  0  0  0  0  0  0
   20.7454  -12.6369  -20.6990 C   0  0  0  0  0  0  0  0  0  0  0  0
   21.8171  -13.1110  -21.1938 O   0  0  0  0  0  0  0  0  0  0  0  0
   22.0654  -10.9582  -17.6300 C   0  0  0  0  0  0  0  0  0  0  0  0
   21.2094  -10.6286  -16.7655 O   0  0  0  0  0  0  0  0  0  0  0  0
   19.5073  -13.1230  -21.0865 O   0  0  0  0  0  0  0  0  0  0  0  0
   27.0861  -10.2020  -15.4687 C   0  0  0  0  0  0  0  0  0  0  0  0
   25.5384  -10.3620  -15.5466 C   0  0  1  0  0  0  0  0  0  0  0  0
   25.1192  -10.2596  -14.0751 C   0  0  0  0  0  0  0  0  0  0  0  0
   25.0016   -9.2440  -16.3527 C   0  0  0  0  0  0  0  0  0  0  0  0
   23.5532   -9.1544  -16.6338 C   0  0  2  0  0  0  0  0  0  0  0  0
   23.3001  -10.2878  -17.5877 N   0  0  0  0  0  0  0  0  0  0  0  0
   23.0569   -7.9433  -17.3059 C   0  0  0  0  0  0  0  0  0  0  0  0
   23.6288   -7.5702  -18.3693 O   0  0  0  0  0  0  0  0  0  0  0  0
   17.7629   -6.5877  -19.2560 N   0  0  0  0  0  0  0  0  0  0  0  0
   18.2658   -5.2771  -19.3445 C   0  0  0  0  0  0  0  0  0  0  0  0
   17.5948   -4.3979  -19.9264 O   0  0  0  0  0  0  0  0  0  0  0  0
   19.5787   -4.9514  -18.7519 C   0  0  0  0  0  0  0  0  0  0  0  0
   20.1719   -6.2091  -18.1762 C   0  0  0  0  0  0  0  0  0  0  0  0
   21.5340   -5.9364  -17.5483 C   0  0  2  0  0  0  0  0  0  0  0  0
   21.9893   -7.1541  -16.8629 N   0  0  0  0  0  0  0  0  0  0  0  0
   21.3948   -4.8925  -16.5266 C   0  0  0  0  0  0  0  0  0  0  0  0
   21.4586   -5.1145  -15.1506 O   0  0  0  0  0  0  0  0  0  0  0  0
   21.1976   -3.6834  -16.9035 O   0  0  0  0  0  0  0  0  0  0  0  0
  2  1  1  1
  2  3  1  0
  3  4  1  0
  4  8  1  0
  5  4  2  0
  6 14  1  0
  6  2  1  0
  7  6  2  0
 10  9  1  1
 10 12  1  0
 10 11  1  0
 13 12  1  6
 13 14  1  0
 15 13  1  0
 16 15  2  0
 17 18  1  0
 18 20  1  0
 19 18  2  0
 20 21  1  0
 22 21  1  1
 22 23  1  0
 23 15  1  0
 24 22  1  0
 24 25  1  0
 26 24  2  0
M  END
$$$$
