PIM.pdb
     RDKit          3D

 24 24  0  0  1  0  0  0  0  0999 V2000
    7.1993  -16.5321   20.8161 N   0  0  0  0  0  0  0  0  0  0  0  0
    6.4373  -16.5216   19.5915 C   0  0  0  0  0  0  0  0  0  0  0  0
    6.7165  -15.2194   18.9043 C   0  0  0  0  0  0  0  0  0  0  0  0
    7.8352  -14.5810   19.7135 C   0  0  0  0  0  0  0  0  0  0  0  0
    8.3475  -15.7037   20.5830 C   0  0  1  0  0  0  0  0  0  0  0  0
    8.9517  -15.2081   21.8503 C   0  0  0  0  0  0  0  0  0  0  0  0
   10.0453  -14.5871   21.8711 O   0  0  0  0  0  0  0  0  0  0  0  0
    5.9580  -12.7241   25.4310 C   0  0  0  0  0  0  0  0  0  0  0  0
    7.0965  -13.2367   24.5907 C   0  0  0  0  0  0  0  0  0  0  0  0
    7.7993  -14.4110   25.1419 C   0  0  2  0  0  0  0  0  0  0  0  0
    8.2994  -14.0073   26.5386 C   0  0  0  0  0  0  0  0  0  0  0  0
    8.9282  -14.9908   24.3597 C   0  0  2  0  0  0  0  0  0  0  0  0
    8.3096  -15.4214   23.0844 N   0  0  0  0  0  0  0  0  0  0  0  0
    9.5610  -16.1437   25.0160 C   0  0  0  0  0  0  0  0  0  0  0  0
    8.8148  -17.1285   25.3338 O   0  0  0  0  0  0  0  0  0  0  0  0
   10.3503  -13.2215   29.1846 C   0  0  0  0  0  0  0  0  0  0  0  0
   10.7444  -14.6935   30.1938 S   0  0  0  0  0  0  0  0  0  0  0  0
   11.2338  -16.0731   29.0936 C   0  0  0  0  0  0  0  0  0  0  0  0
   10.9635  -15.6193   27.6877 C   0  0  0  0  0  0  0  0  0  0  0  0
   11.3440  -16.6548   26.6538 C   0  0  2  0  0  0  0  0  0  0  0  0
   10.9225  -16.2603   25.3237 N   0  0  0  0  0  0  0  0  0  0  0  0
   10.7560  -17.9518   26.9920 C   0  0  0  0  0  0  0  0  0  0  0  0
   11.4717  -18.9983   26.8159 O   0  0  0  0  0  0  0  0  0  0  0  0
    9.4816  -18.0435   27.4810 O   0  0  0  0  0  0  0  0  0  0  0  0
  1  2  1  0
  3  2  1  0
  4  3  1  0
  5  4  1  0
  5  1  1  0
  5  6  1  1
  7  6  2  0
  9  8  1  0
  9 10  1  0
 10 12  1  0
 10 11  1  1
 12 13  1  6
 13  6  1  0
 14 15  2  0
 14 12  1  0
 17 16  1  0
 18 19  1  0
 18 17  1  0
 20 19  1  1
 20 21  1  0
 21 14  1  0
 22 20  1  0
 23 22  2  0
 24 22  1  0
M  END
$$$$
