PIM.pdb
     RDKit          3D

 24 24  0  0  1  0  0  0  0  0999 V2000
    8.1535  -15.6896   19.4012 N   0  0  0  0  0  0  0  0  0  0  0  0
    7.6147  -16.6344   18.4537 C   0  0  0  0  0  0  0  0  0  0  0  0
    7.2679  -17.8786   19.2135 C   0  0  0  0  0  0  0  0  0  0  0  0
    7.4555  -17.5095   20.6772 C   0  0  0  0  0  0  0  0  0  0  0  0
    7.5549  -16.0032   20.6670 C   0  0  1  0  0  0  0  0  0  0  0  0
    8.3505  -15.4803   21.8117 C   0  0  0  0  0  0  0  0  0  0  0  0
    9.5816  -15.2411   21.7159 O   0  0  0  0  0  0  0  0  0  0  0  0
    5.9073  -12.3521   25.6391 C   0  0  0  0  0  0  0  0  0  0  0  0
    6.9498  -12.9113   24.7088 C   0  0  0  0  0  0  0  0  0  0  0  0
    7.5616  -14.1801   25.1478 C   0  0  2  0  0  0  0  0  0  0  0  0
    8.2287  -13.8992   26.5042 C   0  0  0  0  0  0  0  0  0  0  0  0
    8.5418  -14.8433   24.2413 C   0  0  2  0  0  0  0  0  0  0  0  0
    7.7423  -15.2331   23.0566 N   0  0  0  0  0  0  0  0  0  0  0  0
    9.1663  -16.0363   24.8303 C   0  0  0  0  0  0  0  0  0  0  0  0
    8.3963  -16.9624   25.2510 O   0  0  0  0  0  0  0  0  0  0  0  0
   10.4773  -13.0970   29.0668 C   0  0  0  0  0  0  0  0  0  0  0  0
   10.4758  -14.7426   29.8623 S   0  0  0  0  0  0  0  0  0  0  0  0
   11.1598  -15.9815   28.7002 C   0  0  0  0  0  0  0  0  0  0  0  0
   10.6193  -15.6414   27.3409 C   0  0  0  0  0  0  0  0  0  0  0  0
   11.1084  -16.5821   26.2631 C   0  0  2  0  0  0  0  0  0  0  0  0
   10.5435  -16.2507   24.9695 N   0  0  0  0  0  0  0  0  0  0  0  0
   10.7757  -17.9657   26.6056 C   0  0  0  0  0  0  0  0  0  0  0  0
    9.6189  -18.1984   27.1019 O   0  0  0  0  0  0  0  0  0  0  0  0
   11.6722  -18.9789   26.4020 O   0  0  0  0  0  0  0  0  0  0  0  0
  1  2  1  0
  3  2  1  0
  4  3  1  0
  5  4  1  0
  5  1  1  0
  5  6  1  1
  7  6  2  0
  9  8  1  0
  9 10  1  0
 10 12  1  0
 10 11  1  1
 12 13  1  6
 13  6  1  0
 14 15  2  0
 14 12  1  0
 17 16  1  0
 18 19  1  0
 18 17  1  0
 20 19  1  1
 20 21  1  0
 21 14  1  0
 22 20  1  0
 23 22  2  0
 24 22  1  0
M  END
$$$$
