PIM.pdb
     RDKit          3D

 24 24  0  0  1  0  0  0  0  0999 V2000
    6.9857  -14.9534   21.1045 N   0  0  0  0  0  0  0  0  0  0  0  0
    6.4660  -14.5683   19.8152 C   0  0  0  0  0  0  0  0  0  0  0  0
    7.1874  -13.3226   19.3983 C   0  0  0  0  0  0  0  0  0  0  0  0
    8.2853  -13.1397   20.4350 C   0  0  0  0  0  0  0  0  0  0  0  0
    8.3335  -14.4641   21.1577 C   0  0  1  0  0  0  0  0  0  0  0  0
    8.8293  -14.3291   22.5551 C   0  0  0  0  0  0  0  0  0  0  0  0
   10.0150  -13.9989   22.8145 O   0  0  0  0  0  0  0  0  0  0  0  0
    5.4594  -11.8378   25.8279 C   0  0  0  0  0  0  0  0  0  0  0  0
    6.7310  -12.3378   25.1968 C   0  0  0  0  0  0  0  0  0  0  0  0
    7.1789  -13.6642   25.6623 C   0  0  2  0  0  0  0  0  0  0  0  0
    7.3934  -13.5470   27.1803 C   0  0  0  0  0  0  0  0  0  0  0  0
    8.3923  -14.2611   25.0349 C   0  0  2  0  0  0  0  0  0  0  0  0
    7.9752  -14.5701   23.6474 N   0  0  0  0  0  0  0  0  0  0  0  0
    8.8477  -15.4904   25.6994 C   0  0  0  0  0  0  0  0  0  0  0  0
    8.1938  -16.5627   25.4756 O   0  0  0  0  0  0  0  0  0  0  0  0
   13.8706  -19.2548   30.5766 C   0  0  0  0  0  0  0  0  0  0  0  0
   13.2857  -17.6950   29.8247 S   0  0  0  0  0  0  0  0  0  0  0  0
   11.8657  -18.0448   28.7228 C   0  0  0  0  0  0  0  0  0  0  0  0
   11.4805  -16.7389   28.0890 C   0  0  0  0  0  0  0  0  0  0  0  0
   10.3219  -16.8731   27.1270 C   0  0  2  0  0  0  0  0  0  0  0  0
    9.9470  -15.5915   26.5616 N   0  0  0  0  0  0  0  0  0  0  0  0
    9.1677  -17.4705   27.8003 C   0  0  0  0  0  0  0  0  0  0  0  0
    8.3535  -16.6872   28.4019 O   0  0  0  0  0  0  0  0  0  0  0  0
    8.9648  -18.8234   27.7873 O   0  0  0  0  0  0  0  0  0  0  0  0
  1  2  1  0
  3  2  1  0
  4  3  1  0
  5  4  1  0
  5  1  1  0
  5  6  1  1
  7  6  2  0
  9  8  1  0
  9 10  1  0
 10 12  1  0
 10 11  1  1
 12 13  1  6
 13  6  1  0
 14 15  2  0
 14 12  1  0
 17 16  1  0
 18 19  1  0
 18 17  1  0
 20 19  1  1
 20 21  1  0
 21 14  1  0
 22 20  1  0
 23 22  2  0
 24 22  1  0
M  END
$$$$
