PIM.pdb
     RDKit          3D

 24 24  0  0  1  0  0  0  0  0999 V2000
    7.4494  -15.2695   20.5941 N   0  0  0  0  0  0  0  0  0  0  0  0
    6.9024  -14.9296   19.3035 C   0  0  0  0  0  0  0  0  0  0  0  0
    7.4337  -13.5772   18.9367 C   0  0  0  0  0  0  0  0  0  0  0  0
    8.4707  -13.2607   20.0036 C   0  0  0  0  0  0  0  0  0  0  0  0
    8.7058  -14.5834   20.6922 C   0  0  1  0  0  0  0  0  0  0  0  0
    9.1480  -14.4161   22.1040 C   0  0  0  0  0  0  0  0  0  0  0  0
   10.3057  -14.0232   22.3996 O   0  0  0  0  0  0  0  0  0  0  0  0
    5.6259  -12.1562   25.4631 C   0  0  0  0  0  0  0  0  0  0  0  0
    6.9364  -12.5627   24.8448 C   0  0  0  0  0  0  0  0  0  0  0  0
    7.4044  -13.9143   25.2067 C   0  0  2  0  0  0  0  0  0  0  0  0
    7.5624  -13.9290   26.7360 C   0  0  0  0  0  0  0  0  0  0  0  0
    8.6551  -14.4224   24.5743 C   0  0  2  0  0  0  0  0  0  0  0  0
    8.2724  -14.6964   23.1696 N   0  0  0  0  0  0  0  0  0  0  0  0
    9.1651  -15.6526   25.1964 C   0  0  0  0  0  0  0  0  0  0  0  0
    8.7023  -16.7650   24.7773 O   0  0  0  0  0  0  0  0  0  0  0  0
   10.0282  -14.3720   29.1598 C   0  0  0  0  0  0  0  0  0  0  0  0
   11.8381  -14.6250   29.1859 S   0  0  0  0  0  0  0  0  0  0  0  0
   12.3631  -15.4314   27.6280 C   0  0  0  0  0  0  0  0  0  0  0  0
   11.7818  -16.8161   27.6427 C   0  0  0  0  0  0  0  0  0  0  0  0
   10.6574  -16.9908   26.6473 C   0  0  2  0  0  0  0  0  0  0  0  0
   10.1245  -15.7133   26.2151 N   0  0  0  0  0  0  0  0  0  0  0  0
    9.5849  -17.8004   27.2276 C   0  0  0  0  0  0  0  0  0  0  0  0
    9.8530  -19.0112   27.5448 O   0  0  0  0  0  0  0  0  0  0  0  0
    8.3351  -17.2802   27.4251 O   0  0  0  0  0  0  0  0  0  0  0  0
  1  2  1  0
  3  2  1  0
  4  3  1  0
  5  4  1  0
  5  1  1  0
  5  6  1  1
  7  6  2  0
  9  8  1  0
  9 10  1  0
 10 12  1  0
 10 11  1  1
 12 13  1  6
 13  6  1  0
 14 15  2  0
 14 12  1  0
 17 16  1  0
 18 19  1  0
 18 17  1  0
 20 19  1  1
 20 21  1  0
 21 14  1  0
 22 20  1  0
 23 22  2  0
 24 22  1  0
M  END
$$$$
