PIM.pdb
     RDKit          3D

 24 24  0  0  1  0  0  0  0  0999 V2000
    7.1048  -14.7435   21.0229 N   0  0  0  0  0  0  0  0  0  0  0  0
    6.6831  -14.2224   19.7458 C   0  0  0  0  0  0  0  0  0  0  0  0
    7.4957  -12.9923   19.4764 C   0  0  0  0  0  0  0  0  0  0  0  0
    8.5401  -12.9623   20.5819 C   0  0  0  0  0  0  0  0  0  0  0  0
    8.4724  -14.3425   21.1896 C   0  0  1  0  0  0  0  0  0  0  0  0
    8.8929  -14.3537   22.6178 C   0  0  0  0  0  0  0  0  0  0  0  0
   10.0900  -14.1806   22.9634 O   0  0  0  0  0  0  0  0  0  0  0  0
    6.1310  -11.4944   25.9317 C   0  0  0  0  0  0  0  0  0  0  0  0
    7.2621  -12.2738   25.3168 C   0  0  0  0  0  0  0  0  0  0  0  0
    7.3476  -13.6856   25.7365 C   0  0  2  0  0  0  0  0  0  0  0  0
    7.6030  -13.6778   27.2526 C   0  0  0  0  0  0  0  0  0  0  0  0
    8.3519  -14.5621   25.0692 C   0  0  2  0  0  0  0  0  0  0  0  0
    7.9513  -14.5615   23.6430 N   0  0  0  0  0  0  0  0  0  0  0  0
    8.3552  -15.9400   25.5809 C   0  0  0  0  0  0  0  0  0  0  0  0
    7.6179  -16.7950   24.9870 O   0  0  0  0  0  0  0  0  0  0  0  0
   11.5127  -18.1904   22.5135 C   0  0  0  0  0  0  0  0  0  0  0  0
   12.4478  -19.0432   23.8322 S   0  0  0  0  0  0  0  0  0  0  0  0
   11.4425  -19.0854   25.3621 C   0  0  0  0  0  0  0  0  0  0  0  0
   10.7366  -17.7627   25.4502 C   0  0  0  0  0  0  0  0  0  0  0  0
    9.7697  -17.6900   26.6102 C   0  0  2  0  0  0  0  0  0  0  0  0
    9.1045  -16.4030   26.6701 N   0  0  0  0  0  0  0  0  0  0  0  0
   10.4680  -17.9423   27.8716 C   0  0  0  0  0  0  0  0  0  0  0  0
   10.7580  -16.9359   28.6074 O   0  0  0  0  0  0  0  0  0  0  0  0
   10.8003  -19.2135   28.2528 O   0  0  0  0  0  0  0  0  0  0  0  0
  1  2  1  0
  3  2  1  0
  4  3  1  0
  5  4  1  0
  5  1  1  0
  5  6  1  1
  7  6  2  0
  9  8  1  0
  9 10  1  0
 10 12  1  0
 10 11  1  1
 12 13  1  6
 13  6  1  0
 14 15  2  0
 14 12  1  0
 17 16  1  0
 18 19  1  0
 18 17  1  0
 20 19  1  6
 20 21  1  0
 21 14  1  0
 22 20  1  0
 23 22  2  0
 24 22  1  0
M  END
$$$$
