PIM.pdb
     RDKit          3D

 24 24  0  0  1  0  0  0  0  0999 V2000
    7.7283  -19.2415   20.8896 N   0  0  0  0  0  0  0  0  0  0  0  0
    6.7970  -20.0539   20.1458 C   0  0  0  0  0  0  0  0  0  0  0  0
    6.3626  -19.2555   18.9542 C   0  0  0  0  0  0  0  0  0  0  0  0
    7.2552  -18.0239   18.9607 C   0  0  0  0  0  0  0  0  0  0  0  0
    8.3540  -18.3708   19.9360 C   0  0  1  0  0  0  0  0  0  0  0  0
    8.9441  -17.1637   20.5772 C   0  0  0  0  0  0  0  0  0  0  0  0
   10.1859  -16.9669   20.6157 O   0  0  0  0  0  0  0  0  0  0  0  0
    7.0005  -12.4337   19.2315 C   0  0  0  0  0  0  0  0  0  0  0  0
    7.9642  -13.4776   19.7282 C   0  0  0  0  0  0  0  0  0  0  0  0
    7.7917  -13.8639   21.1416 C   0  0  2  0  0  0  0  0  0  0  0  0
    7.9482  -12.5781   21.9700 C   0  0  0  0  0  0  0  0  0  0  0  0
    8.6802  -14.9235   21.6985 C   0  0  2  0  0  0  0  0  0  0  0  0
    8.1199  -16.1890   21.1701 N   0  0  0  0  0  0  0  0  0  0  0  0
    8.6905  -14.9632   23.1678 C   0  0  0  0  0  0  0  0  0  0  0  0
    8.9577  -13.8811   23.7884 O   0  0  0  0  0  0  0  0  0  0  0  0
    7.0881  -11.8707   27.6593 C   0  0  0  0  0  0  0  0  0  0  0  0
    5.9884  -12.8153   26.5462 S   0  0  0  0  0  0  0  0  0  0  0  0
    6.9965  -13.6921   25.2941 C   0  0  0  0  0  0  0  0  0  0  0  0
    6.8199  -15.1613   25.5509 C   0  0  0  0  0  0  0  0  0  0  0  0
    8.0966  -15.9479   25.3587 C   0  0  2  0  0  0  0  0  0  0  0  0
    8.4279  -16.0920   23.9544 N   0  0  0  0  0  0  0  0  0  0  0  0
    7.9773  -17.2705   25.9744 C   0  0  0  0  0  0  0  0  0  0  0  0
    7.8731  -17.3308   27.2488 O   0  0  0  0  0  0  0  0  0  0  0  0
    7.9769  -18.4067   25.2125 O   0  0  0  0  0  0  0  0  0  0  0  0
  1  2  1  0
  3  2  1  0
  4  3  1  0
  5  4  1  0
  5  1  1  0
  5  6  1  1
  7  6  2  0
  9  8  1  0
  9 10  1  0
 10 12  1  0
 10 11  1  1
 12 13  1  6
 13  6  1  0
 14 15  2  0
 14 12  1  0
 17 16  1  0
 18 19  1  0
 18 17  1  0
 20 19  1  6
 20 21  1  0
 21 14  1  0
 22 20  1  0
 23 22  2  0
 24 22  1  0
M  END
$$$$
