WPE.pdb
     RDKit          3D

 31 33  0  0  1  0  0  0  0  0999 V2000
    6.8380  -17.8031   24.7304 N   0  0  0  0  0  0  0  0  0  0  0  0
    7.1914  -16.6227   24.0317 C   0  0  1  0  0  0  0  0  0  0  0  0
    7.9785  -15.6817   24.9394 C   0  0  0  0  0  0  0  0  0  0  0  0
    7.1427  -14.7650   25.7081 C   0  0  0  0  0  0  0  0  0  0  0  0
    5.9176  -15.1044   26.3103 C   0  0  0  0  0  0  0  0  0  0  0  0
    5.4211  -14.0356   26.9526 N   0  0  0  0  0  0  0  0  0  0  0  0
    6.2872  -12.9941   26.7914 C   0  0  0  0  0  0  0  0  0  0  0  0
    6.2667  -11.6853   27.2231 C   0  0  0  0  0  0  0  0  0  0  0  0
    7.2736  -10.7908   26.9212 C   0  0  0  0  0  0  0  0  0  0  0  0
    8.3239  -11.2570   26.1545 C   0  0  0  0  0  0  0  0  0  0  0  0
    8.3686  -12.5642   25.7094 C   0  0  0  0  0  0  0  0  0  0  0  0
    7.3530  -13.4541   26.0194 C   0  0  0  0  0  0  0  0  0  0  0  0
    7.9468  -16.7983   22.7858 C   0  0  0  0  0  0  0  0  0  0  0  0
    8.7121  -17.7816   22.6873 O   0  0  0  0  0  0  0  0  0  0  0  0
    7.8564  -15.9058   21.6648 N   0  0  0  0  0  0  0  0  0  0  0  0
    6.7030  -15.0852   21.4411 C   0  0  0  0  0  0  0  0  0  0  0  0
    7.1650  -13.9863   20.5379 C   0  0  0  0  0  0  0  0  0  0  0  0
    8.5031  -14.3603   20.0235 C   0  0  0  0  0  0  0  0  0  0  0  0
    8.7956  -15.7350   20.6175 C   0  0  1  0  0  0  0  0  0  0  0  0
   10.2277  -15.7789   20.9917 C   0  0  0  0  0  0  0  0  0  0  0  0
   10.7327  -14.9388   21.7983 O   0  0  0  0  0  0  0  0  0  0  0  0
   11.0953  -16.7590   20.4790 N   0  0  0  0  0  0  0  0  0  0  0  0
   12.5411  -16.7304   20.8479 C   0  0  1  0  0  0  0  0  0  0  0  0
   12.6163  -17.3196   22.2303 C   0  0  0  0  0  0  0  0  0  0  0  0
   11.9628  -18.6278   22.4377 C   0  0  0  0  0  0  0  0  0  0  0  0
   12.2267  -19.2254   23.7666 C   0  0  0  0  0  0  0  0  0  0  0  0
   13.2025  -18.7873   24.4475 O   0  0  0  0  0  0  0  0  0  0  0  0
   13.3306  -17.6189   19.9653 C   0  0  0  0  0  0  0  0  0  0  0  0
   12.7330  -18.3397   19.1339 O   0  0  0  0  0  0  0  0  0  0  0  0
   11.4665  -20.2350   24.3169 O   0  0  0  0  0  0  0  0  0  0  0  0
   14.7087  -17.6710   20.0355 O   0  0  0  0  0  0  0  0  0  0  0  0
  2  3  1  0
  2  1  1  1
  4  3  1  0
  5  4  2  0
  6  5  1  0
  7  6  1  0
  7 12  2  0
  8  7  1  0
  9  8  2  0
  9 10  1  0
 10 11  2  0
 11 12  1  0
 12  4  1  0
 13 15  1  0
 13  2  1  0
 14 13  2  0
 15 16  1  0
 17 16  1  0
 18 17  1  0
 19 18  1  0
 19 15  1  0
 20 21  2  0
 19 20  1  1
 22 20  1  0
 23 28  1  0
 23 22  1  0
 23 24  1  1
 25 24  1  0
 26 25  1  0
 26 27  2  0
 28 31  1  0
 29 28  2  0
 30 26  1  0
M  END
$$$$
