WPE.pdb
     RDKit          3D

 31 33  0  0  1  0  0  0  0  0999 V2000
    6.2703  -17.3623   23.6961 N   0  0  0  0  0  0  0  0  0  0  0  0
    6.9037  -16.1752   23.2531 C   0  0  1  0  0  0  0  0  0  0  0  0
    7.9043  -15.6843   24.2955 C   0  0  0  0  0  0  0  0  0  0  0  0
    7.2878  -15.0279   25.4440 C   0  0  0  0  0  0  0  0  0  0  0  0
    6.4517  -15.6617   26.3811 C   0  0  0  0  0  0  0  0  0  0  0  0
    6.0729  -14.7767   27.3162 N   0  0  0  0  0  0  0  0  0  0  0  0
    6.6373  -13.5700   27.0228 C   0  0  0  0  0  0  0  0  0  0  0  0
    6.5751  -12.3353   27.6323 C   0  0  0  0  0  0  0  0  0  0  0  0
    7.2379  -11.2310   27.1362 C   0  0  0  0  0  0  0  0  0  0  0  0
    7.9797  -11.4043   25.9837 C   0  0  0  0  0  0  0  0  0  0  0  0
    8.0587  -12.6313   25.3535 C   0  0  0  0  0  0  0  0  0  0  0  0
    7.3902  -13.7336   25.8609 C   0  0  0  0  0  0  0  0  0  0  0  0
    7.5861  -16.2400   21.9555 C   0  0  0  0  0  0  0  0  0  0  0  0
    8.0671  -17.3341   21.5899 O   0  0  0  0  0  0  0  0  0  0  0  0
    7.7321  -15.1167   21.0733 N   0  0  0  0  0  0  0  0  0  0  0  0
    7.0571  -13.8749   21.3101 C   0  0  0  0  0  0  0  0  0  0  0  0
    7.8159  -12.8529   20.5248 C   0  0  0  0  0  0  0  0  0  0  0  0
    8.7372  -13.5765   19.6178 C   0  0  0  0  0  0  0  0  0  0  0  0
    8.4654  -15.0580   19.8620 C   0  0  1  0  0  0  0  0  0  0  0  0
    9.7610  -15.7744   19.8309 C   0  0  0  0  0  0  0  0  0  0  0  0
   10.2101  -16.2953   18.7639 O   0  0  0  0  0  0  0  0  0  0  0  0
   10.5609  -15.9041   20.9795 N   0  0  0  0  0  0  0  0  0  0  0  0
   11.9278  -16.4921   20.8643 C   0  0  1  0  0  0  0  0  0  0  0  0
   12.6781  -16.0091   22.0757 C   0  0  0  0  0  0  0  0  0  0  0  0
   14.0581  -16.5052   22.2512 C   0  0  0  0  0  0  0  0  0  0  0  0
   14.7277  -15.9953   23.4695 C   0  0  0  0  0  0  0  0  0  0  0  0
   15.6513  -16.6896   23.9916 O   0  0  0  0  0  0  0  0  0  0  0  0
   11.8787  -17.9688   20.9574 C   0  0  0  0  0  0  0  0  0  0  0  0
   10.9445  -18.5089   21.5926 O   0  0  0  0  0  0  0  0  0  0  0  0
   14.4096  -14.7982   24.0742 O   0  0  0  0  0  0  0  0  0  0  0  0
   12.8363  -18.7645   20.3602 O   0  0  0  0  0  0  0  0  0  0  0  0
  2  3  1  0
  2  1  1  1
  4  3  1  0
  5  4  2  0
  6  5  1  0
  7  6  1  0
  7 12  2  0
  8  7  1  0
  9  8  2  0
  9 10  1  0
 10 11  2  0
 11 12  1  0
 12  4  1  0
 13 15  1  0
 13  2  1  0
 14 13  2  0
 15 16  1  0
 17 16  1  0
 18 17  1  0
 19 18  1  0
 19 15  1  0
 20 21  2  0
 19 20  1  1
 22 20  1  0
 23 28  1  0
 23 22  1  0
 23 24  1  1
 25 24  1  0
 26 25  1  0
 26 27  2  0
 28 31  1  0
 29 28  2  0
 30 26  1  0
M  END
$$$$
