WPE.pdb
     RDKit          3D

 31 33  0  0  1  0  0  0  0  0999 V2000
    5.9570  -18.1657   24.7007 N   0  0  0  0  0  0  0  0  0  0  0  0
    6.6442  -16.9971   24.2899 C   0  0  1  0  0  0  0  0  0  0  0  0
    7.4532  -16.4199   25.4480 C   0  0  0  0  0  0  0  0  0  0  0  0
    6.9900  -15.1115   25.8988 C   0  0  0  0  0  0  0  0  0  0  0  0
    5.6581  -14.6631   25.8368 C   0  0  0  0  0  0  0  0  0  0  0  0
    5.5762  -13.4255   26.3494 N   0  0  0  0  0  0  0  0  0  0  0  0
    6.8220  -13.0408   26.7506 C   0  0  0  0  0  0  0  0  0  0  0  0
    7.3041  -11.8843   27.3247 C   0  0  0  0  0  0  0  0  0  0  0  0
    8.6369  -11.7153   27.6412 C   0  0  0  0  0  0  0  0  0  0  0  0
    9.4916  -12.7625   27.3565 C   0  0  0  0  0  0  0  0  0  0  0  0
    9.0338  -13.9324   26.7814 C   0  0  0  0  0  0  0  0  0  0  0  0
    7.6935  -14.0919   26.4689 C   0  0  0  0  0  0  0  0  0  0  0  0
    7.5332  -17.1315   23.1300 C   0  0  0  0  0  0  0  0  0  0  0  0
    8.2614  -18.1444   23.0525 O   0  0  0  0  0  0  0  0  0  0  0  0
    7.6147  -16.1661   22.0705 N   0  0  0  0  0  0  0  0  0  0  0  0
    6.5866  -15.1916   21.8530 C   0  0  0  0  0  0  0  0  0  0  0  0
    7.2298  -14.1066   21.0492 C   0  0  0  0  0  0  0  0  0  0  0  0
    8.5358  -14.6164   20.5702 C   0  0  0  0  0  0  0  0  0  0  0  0
    8.6220  -16.0519   21.0802 C   0  0  1  0  0  0  0  0  0  0  0  0
   10.0154  -16.3029   21.5137 C   0  0  0  0  0  0  0  0  0  0  0  0
   10.5153  -15.7194   22.5242 O   0  0  0  0  0  0  0  0  0  0  0  0
   10.8493  -17.2068   20.8327 N   0  0  0  0  0  0  0  0  0  0  0  0
   12.2559  -17.4026   21.2916 C   0  0  1  0  0  0  0  0  0  0  0  0
   12.4576  -18.8925   21.3496 C   0  0  0  0  0  0  0  0  0  0  0  0
   11.5511  -19.6577   22.2294 C   0  0  0  0  0  0  0  0  0  0  0  0
   11.8200  -21.1138   22.2458 C   0  0  0  0  0  0  0  0  0  0  0  0
   11.1340  -21.8503   23.0169 O   0  0  0  0  0  0  0  0  0  0  0  0
   13.2163  -16.8837   20.2916 C   0  0  0  0  0  0  0  0  0  0  0  0
   12.7915  -16.5125   19.1737 O   0  0  0  0  0  0  0  0  0  0  0  0
   12.7760  -21.7249   21.4631 O   0  0  0  0  0  0  0  0  0  0  0  0
   14.5678  -16.7979   20.5617 O   0  0  0  0  0  0  0  0  0  0  0  0
  2  3  1  0
  2  1  1  1
  4  3  1  0
  5  4  2  0
  6  5  1  0
  7  6  1  0
  7 12  2  0
  8  7  1  0
  9  8  2  0
  9 10  1  0
 10 11  2  0
 11 12  1  0
 12  4  1  0
 13 15  1  0
 13  2  1  0
 14 13  2  0
 15 16  1  0
 17 16  1  0
 18 17  1  0
 19 18  1  0
 19 15  1  0
 20 21  2  0
 19 20  1  1
 22 20  1  0
 23 28  1  0
 23 22  1  0
 23 24  1  6
 25 24  1  0
 26 25  1  0
 26 27  2  0
 28 31  1  0
 29 28  2  0
 30 26  1  0
M  END
$$$$
