WPE.pdb
     RDKit          3D

 31 33  0  0  1  0  0  0  0  0999 V2000
    6.6680  -17.4523   23.9407 N   0  0  0  0  0  0  0  0  0  0  0  0
    7.1239  -16.2391   23.3688 C   0  0  1  0  0  0  0  0  0  0  0  0
    8.0682  -15.5198   24.3278 C   0  0  0  0  0  0  0  0  0  0  0  0
    7.3863  -14.7655   25.3747 C   0  0  0  0  0  0  0  0  0  0  0  0
    6.3523  -15.2673   26.1858 C   0  0  0  0  0  0  0  0  0  0  0  0
    5.9631  -14.3211   27.0544 N   0  0  0  0  0  0  0  0  0  0  0  0
    6.7138  -13.2026   26.8398 C   0  0  0  0  0  0  0  0  0  0  0  0
    6.7262  -11.9570   27.4298 C   0  0  0  0  0  0  0  0  0  0  0  0
    7.5888  -10.9569   27.0289 C   0  0  0  0  0  0  0  0  0  0  0  0
    8.4564  -11.2482   25.9942 C   0  0  0  0  0  0  0  0  0  0  0  0
    8.4645  -12.4888   25.3859 C   0  0  0  0  0  0  0  0  0  0  0  0
    7.5950  -13.4858   25.7972 C   0  0  0  0  0  0  0  0  0  0  0  0
    7.7829  -16.3363   22.0611 C   0  0  0  0  0  0  0  0  0  0  0  0
    8.4378  -17.3683   21.8000 O   0  0  0  0  0  0  0  0  0  0  0  0
    7.7171  -15.3133   21.0560 N   0  0  0  0  0  0  0  0  0  0  0  0
    6.6732  -14.3314   21.0418 C   0  0  0  0  0  0  0  0  0  0  0  0
    7.2004  -13.2014   20.2159 C   0  0  0  0  0  0  0  0  0  0  0  0
    8.4223  -13.6796   19.5280 C   0  0  0  0  0  0  0  0  0  0  0  0
    8.5734  -15.1410   19.9400 C   0  0  1  0  0  0  0  0  0  0  0  0
   10.0132  -15.4113   20.1558 C   0  0  0  0  0  0  0  0  0  0  0  0
   10.6989  -14.7471   20.9926 O   0  0  0  0  0  0  0  0  0  0  0  0
   10.6884  -16.4231   19.4511 N   0  0  0  0  0  0  0  0  0  0  0  0
   12.1145  -16.7218   19.7743 C   0  0  1  0  0  0  0  0  0  0  0  0
   12.0730  -17.8013   20.8216 C   0  0  0  0  0  0  0  0  0  0  0  0
   13.3700  -18.2947   21.3272 C   0  0  0  0  0  0  0  0  0  0  0  0
   13.2486  -19.3512   22.3577 C   0  0  0  0  0  0  0  0  0  0  0  0
   12.0948  -19.6478   22.7917 O   0  0  0  0  0  0  0  0  0  0  0  0
   12.8142  -17.2952   18.6025 C   0  0  0  0  0  0  0  0  0  0  0  0
   12.1397  -17.7120   17.6334 O   0  0  0  0  0  0  0  0  0  0  0  0
   14.3226  -20.0429   22.8756 O   0  0  0  0  0  0  0  0  0  0  0  0
   14.1916  -17.3803   18.5516 O   0  0  0  0  0  0  0  0  0  0  0  0
  2  3  1  0
  2  1  1  1
  4  3  1  0
  5  4  2  0
  6  5  1  0
  7  6  1  0
  7 12  2  0
  8  7  1  0
  9  8  2  0
  9 10  1  0
 10 11  2  0
 11 12  1  0
 12  4  1  0
 13 15  1  0
 13  2  1  0
 14 13  2  0
 15 16  1  0
 17 16  1  0
 18 17  1  0
 19 18  1  0
 19 15  1  0
 20 21  2  0
 19 20  1  1
 22 20  1  0
 23 28  1  0
 23 22  1  0
 23 24  1  1
 25 24  1  0
 26 25  1  0
 26 27  2  0
 28 31  1  0
 29 28  2  0
 30 26  1  0
M  END
$$$$
