WPE.pdb
     RDKit          3D

 31 33  0  0  1  0  0  0  0  0999 V2000
    5.6360  -17.5540   24.1093 N   0  0  0  0  0  0  0  0  0  0  0  0
    6.4601  -16.4915   23.6637 C   0  0  1  0  0  0  0  0  0  0  0  0
    7.3076  -15.9560   24.8142 C   0  0  0  0  0  0  0  0  0  0  0  0
    6.6520  -14.9126   25.5960 C   0  0  0  0  0  0  0  0  0  0  0  0
    5.3078  -14.9406   26.0100 C   0  0  0  0  0  0  0  0  0  0  0  0
    5.0346  -13.8377   26.7243 N   0  0  0  0  0  0  0  0  0  0  0  0
    6.1650  -13.0776   26.7949 C   0  0  0  0  0  0  0  0  0  0  0  0
    6.4400  -11.8629   27.3852 C   0  0  0  0  0  0  0  0  0  0  0  0
    7.6846  -11.2704   27.3140 C   0  0  0  0  0  0  0  0  0  0  0  0
    8.6667  -11.9457   26.6156 C   0  0  0  0  0  0  0  0  0  0  0  0
    8.4171  -13.1647   26.0148 C   0  0  0  0  0  0  0  0  0  0  0  0
    7.1643  -13.7509   26.0937 C   0  0  0  0  0  0  0  0  0  0  0  0
    7.3497  -16.7802   22.5328 C   0  0  0  0  0  0  0  0  0  0  0  0
    7.5998  -17.9746   22.2622 O   0  0  0  0  0  0  0  0  0  0  0  0
    7.9507  -15.7680   21.7111 N   0  0  0  0  0  0  0  0  0  0  0  0
    7.4359  -14.4316   21.6576 C   0  0  0  0  0  0  0  0  0  0  0  0
    8.5598  -13.5921   21.1389 C   0  0  0  0  0  0  0  0  0  0  0  0
    9.6055  -14.5082   20.6267 C   0  0  0  0  0  0  0  0  0  0  0  0
    9.0427  -15.9134   20.8197 C   0  0  1  0  0  0  0  0  0  0  0  0
   10.1487  -16.7954   21.2576 C   0  0  0  0  0  0  0  0  0  0  0  0
    9.9475  -17.7881   22.0228 O   0  0  0  0  0  0  0  0  0  0  0  0
   11.4736  -16.5817   20.8394 N   0  0  0  0  0  0  0  0  0  0  0  0
   12.5390  -17.5466   21.2411 C   0  0  1  0  0  0  0  0  0  0  0  0
   13.7109  -17.2492   20.3455 C   0  0  0  0  0  0  0  0  0  0  0  0
   14.1675  -18.3364   19.4562 C   0  0  0  0  0  0  0  0  0  0  0  0
   15.2660  -17.9432   18.5444 C   0  0  0  0  0  0  0  0  0  0  0  0
   15.7022  -16.7537   18.5952 O   0  0  0  0  0  0  0  0  0  0  0  0
   12.9899  -17.2905   22.6277 C   0  0  0  0  0  0  0  0  0  0  0  0
   13.6023  -18.1910   23.2457 O   0  0  0  0  0  0  0  0  0  0  0  0
   15.8532  -18.8002   17.6385 O   0  0  0  0  0  0  0  0  0  0  0  0
   12.7533  -16.0834   23.2551 O   0  0  0  0  0  0  0  0  0  0  0  0
  2  3  1  0
  2  1  1  1
  4  3  1  0
  5  4  2  0
  6  5  1  0
  7  6  1  0
  7 12  2  0
  8  7  1  0
  9  8  2  0
  9 10  1  0
 10 11  2  0
 11 12  1  0
 12  4  1  0
 13 15  1  0
 13  2  1  0
 14 13  2  0
 15 16  1  0
 17 16  1  0
 18 17  1  0
 19 18  1  0
 19 15  1  0
 20 21  2  0
 19 20  1  1
 22 20  1  0
 23 28  1  0
 23 22  1  0
 23 24  1  6
 25 24  1  0
 26 25  1  0
 26 27  2  0
 28 31  1  0
 29 28  2  0
 30 26  1  0
M  END
$$$$
