WPE.pdb
     RDKit          3D

 31 33  0  0  1  0  0  0  0  0999 V2000
    6.6248  -17.5186   24.5826 N   0  0  0  0  0  0  0  0  0  0  0  0
    6.9967  -16.3524   23.8696 C   0  0  1  0  0  0  0  0  0  0  0  0
    7.8185  -15.4237   24.7589 C   0  0  0  0  0  0  0  0  0  0  0  0
    7.0129  -14.5417   25.5973 C   0  0  0  0  0  0  0  0  0  0  0  0
    5.7368  -14.8530   26.1009 C   0  0  0  0  0  0  0  0  0  0  0  0
    5.2868  -13.8322   26.8470 N   0  0  0  0  0  0  0  0  0  0  0  0
    6.2334  -12.8500   26.8510 C   0  0  0  0  0  0  0  0  0  0  0  0
    6.2857  -11.6039   27.4378 C   0  0  0  0  0  0  0  0  0  0  0  0
    7.3692  -10.7616   27.2905 C   0  0  0  0  0  0  0  0  0  0  0  0
    8.4211  -11.2146   26.5181 C   0  0  0  0  0  0  0  0  0  0  0  0
    8.3937  -12.4594   25.9192 C   0  0  0  0  0  0  0  0  0  0  0  0
    7.3015  -13.2974   26.0748 C   0  0  0  0  0  0  0  0  0  0  0  0
    7.7302  -16.5557   22.6149 C   0  0  0  0  0  0  0  0  0  0  0  0
    8.3212  -17.6431   22.4405 O   0  0  0  0  0  0  0  0  0  0  0  0
    7.8073  -15.5767   21.5676 N   0  0  0  0  0  0  0  0  0  0  0  0
    6.8304  -14.5373   21.4290 C   0  0  0  0  0  0  0  0  0  0  0  0
    7.4899  -13.4782   20.6042 C   0  0  0  0  0  0  0  0  0  0  0  0
    8.7304  -14.0573   20.0378 C   0  0  0  0  0  0  0  0  0  0  0  0
    8.7580  -15.5051   20.5191 C   0  0  1  0  0  0  0  0  0  0  0  0
   10.1568  -15.8489   20.8621 C   0  0  0  0  0  0  0  0  0  0  0  0
   10.8691  -15.0952   21.5943 O   0  0  0  0  0  0  0  0  0  0  0  0
   10.7609  -17.0316   20.4011 N   0  0  0  0  0  0  0  0  0  0  0  0
   12.1423  -17.3774   20.8481 C   0  0  1  0  0  0  0  0  0  0  0  0
   12.0871  -18.8282   21.2428 C   0  0  0  0  0  0  0  0  0  0  0  0
   13.3631  -19.4688   21.6207 C   0  0  0  0  0  0  0  0  0  0  0  0
   13.2181  -20.8706   22.0755 C   0  0  0  0  0  0  0  0  0  0  0  0
   12.2953  -21.1506   22.8987 O   0  0  0  0  0  0  0  0  0  0  0  0
   13.1021  -17.2801   19.7252 C   0  0  0  0  0  0  0  0  0  0  0  0
   14.3297  -17.3312   19.9663 O   0  0  0  0  0  0  0  0  0  0  0  0
   14.0291  -21.9012   21.6509 O   0  0  0  0  0  0  0  0  0  0  0  0
   12.6769  -17.1362   18.4193 O   0  0  0  0  0  0  0  0  0  0  0  0
  2  3  1  0
  2  1  1  1
  4  3  1  0
  5  4  2  0
  6  5  1  0
  7  6  1  0
  7 12  2  0
  8  7  1  0
  9  8  2  0
  9 10  1  0
 10 11  2  0
 11 12  1  0
 12  4  1  0
 13 15  1  0
 13  2  1  0
 14 13  2  0
 15 16  1  0
 17 16  1  0
 18 17  1  0
 19 18  1  0
 19 15  1  0
 20 21  2  0
 19 20  1  1
 22 20  1  0
 23 28  1  0
 23 22  1  0
 23 24  1  6
 25 24  1  0
 26 25  1  0
 26 27  2  0
 28 31  1  0
 29 28  2  0
 30 26  1  0
M  END
$$$$
