WPE.pdb
     RDKit          3D

 31 33  0  0  1  0  0  0  0  0999 V2000
    6.5845  -17.4135   23.9638 N   0  0  0  0  0  0  0  0  0  0  0  0
    7.0574  -16.2177   23.3697 C   0  0  1  0  0  0  0  0  0  0  0  0
    7.9053  -15.4284   24.3631 C   0  0  0  0  0  0  0  0  0  0  0  0
    7.1249  -14.6839   25.3462 C   0  0  0  0  0  0  0  0  0  0  0  0
    6.0157  -15.1921   26.0464 C   0  0  0  0  0  0  0  0  0  0  0  0
    5.5444  -14.2545   26.8831 N   0  0  0  0  0  0  0  0  0  0  0  0
    6.3139  -13.1354   26.7555 C   0  0  0  0  0  0  0  0  0  0  0  0
    6.2699  -11.8964   27.3575 C   0  0  0  0  0  0  0  0  0  0  0  0
    7.1690  -10.8940   27.0543 C   0  0  0  0  0  0  0  0  0  0  0  0
    8.1336  -11.1761   26.1065 C   0  0  0  0  0  0  0  0  0  0  0  0
    8.1997  -12.4100   25.4884 C   0  0  0  0  0  0  0  0  0  0  0  0
    7.2928  -13.4094   25.8013 C   0  0  0  0  0  0  0  0  0  0  0  0
    7.8212  -16.3603   22.1247 C   0  0  0  0  0  0  0  0  0  0  0  0
    8.4812  -17.4069   21.9480 O   0  0  0  0  0  0  0  0  0  0  0  0
    7.8532  -15.3662   21.0894 N   0  0  0  0  0  0  0  0  0  0  0  0
    6.8933  -14.3038   21.0295 C   0  0  0  0  0  0  0  0  0  0  0  0
    7.5224  -13.2457   20.1800 C   0  0  0  0  0  0  0  0  0  0  0  0
    8.7107  -13.8422   19.5264 C   0  0  0  0  0  0  0  0  0  0  0  0
    8.7362  -15.2979   19.9831 C   0  0  1  0  0  0  0  0  0  0  0  0
   10.1461  -15.6775   20.2302 C   0  0  0  0  0  0  0  0  0  0  0  0
   10.8715  -15.0469   21.0594 O   0  0  0  0  0  0  0  0  0  0  0  0
   10.7466  -16.7607   19.5652 N   0  0  0  0  0  0  0  0  0  0  0  0
   12.1966  -17.0441   19.7765 C   0  0  1  0  0  0  0  0  0  0  0  0
   12.2513  -18.3938   20.4394 C   0  0  0  0  0  0  0  0  0  0  0  0
   11.6810  -18.4967   21.7979 C   0  0  0  0  0  0  0  0  0  0  0  0
   11.8090  -19.8430   22.4010 C   0  0  0  0  0  0  0  0  0  0  0  0
   12.2876  -20.7822   21.6962 O   0  0  0  0  0  0  0  0  0  0  0  0
   12.9039  -17.1786   18.4830 C   0  0  0  0  0  0  0  0  0  0  0  0
   12.2350  -17.2484   17.4268 O   0  0  0  0  0  0  0  0  0  0  0  0
   11.4414  -20.1403   23.6958 O   0  0  0  0  0  0  0  0  0  0  0  0
   14.2821  -17.2275   18.4127 O   0  0  0  0  0  0  0  0  0  0  0  0
  2  3  1  0
  2  1  1  1
  4  3  1  0
  5  4  2  0
  6  5  1  0
  7  6  1  0
  7 12  2  0
  8  7  1  0
  9  8  2  0
  9 10  1  0
 10 11  2  0
 11 12  1  0
 12  4  1  0
 13 15  1  0
 13  2  1  0
 14 13  2  0
 15 16  1  0
 17 16  1  0
 18 17  1  0
 19 18  1  0
 19 15  1  0
 20 21  2  0
 19 20  1  1
 22 20  1  0
 23 28  1  0
 23 22  1  0
 23 24  1  6
 25 24  1  0
 26 25  1  0
 26 27  2  0
 28 31  1  0
 29 28  2  0
 30 26  1  0
M  END
$$$$
