WPE.pdb
     RDKit          3D

 31 33  0  0  1  0  0  0  0  0999 V2000
    6.6117  -16.8104   25.1137 N   0  0  0  0  0  0  0  0  0  0  0  0
    7.2116  -15.8199   24.2977 C   0  0  1  0  0  0  0  0  0  0  0  0
    8.4670  -15.2674   24.9665 C   0  0  0  0  0  0  0  0  0  0  0  0
    8.2031  -14.5101   26.1859 C   0  0  0  0  0  0  0  0  0  0  0  0
    8.6468  -14.8719   27.4708 C   0  0  0  0  0  0  0  0  0  0  0  0
    8.2466  -13.9502   28.3605 N   0  0  0  0  0  0  0  0  0  0  0  0
    7.5475  -12.9846   27.6974 C   0  0  0  0  0  0  0  0  0  0  0  0
    6.9146  -11.8340   28.1159 C   0  0  0  0  0  0  0  0  0  0  0  0
    6.2471  -10.9977   27.2441 C   0  0  0  0  0  0  0  0  0  0  0  0
    6.2304  -11.3584   25.9107 C   0  0  0  0  0  0  0  0  0  0  0  0
    6.8572  -12.5062   25.4652 C   0  0  0  0  0  0  0  0  0  0  0  0
    7.5255  -13.3380   26.3489 C   0  0  0  0  0  0  0  0  0  0  0  0
    7.5575  -16.2183   22.9283 C   0  0  0  0  0  0  0  0  0  0  0  0
    7.7788  -17.4267   22.6980 O   0  0  0  0  0  0  0  0  0  0  0  0
    7.6538  -15.2991   21.8297 N   0  0  0  0  0  0  0  0  0  0  0  0
    6.9188  -14.0691   21.8046 C   0  0  0  0  0  0  0  0  0  0  0  0
    7.6316  -13.1991   20.8187 C   0  0  0  0  0  0  0  0  0  0  0  0
    8.5911  -14.0516   20.0787 C   0  0  0  0  0  0  0  0  0  0  0  0
    8.3895  -15.4603   20.6292 C   0  0  1  0  0  0  0  0  0  0  0  0
    9.7181  -16.1043   20.7421 C   0  0  0  0  0  0  0  0  0  0  0  0
   10.5646  -15.7394   21.6150 O   0  0  0  0  0  0  0  0  0  0  0  0
   10.1028  -17.1575   19.8942 N   0  0  0  0  0  0  0  0  0  0  0  0
   11.4315  -17.8102   20.0844 C   0  0  1  0  0  0  0  0  0  0  0  0
   11.1400  -19.2767   20.2523 C   0  0  0  0  0  0  0  0  0  0  0  0
   12.2979  -20.1714   20.4527 C   0  0  0  0  0  0  0  0  0  0  0  0
   11.9305  -21.5932   20.6432 C   0  0  0  0  0  0  0  0  0  0  0  0
   10.7439  -21.8734   20.9914 O   0  0  0  0  0  0  0  0  0  0  0  0
   12.2643  -17.6804   18.8674 C   0  0  0  0  0  0  0  0  0  0  0  0
   13.5113  -17.6739   18.9798 O   0  0  0  0  0  0  0  0  0  0  0  0
   12.8060  -22.6418   20.4586 O   0  0  0  0  0  0  0  0  0  0  0  0
   11.6999  -17.5681   17.6121 O   0  0  0  0  0  0  0  0  0  0  0  0
  2  3  1  0
  2  1  1  1
  4  3  1  0
  5  4  2  0
  6  5  1  0
  7  6  1  0
  7 12  2  0
  8  7  1  0
  9  8  2  0
  9 10  1  0
 10 11  2  0
 11 12  1  0
 12  4  1  0
 13 15  1  0
 13  2  1  0
 14 13  2  0
 15 16  1  0
 17 16  1  0
 18 17  1  0
 19 18  1  0
 19 15  1  0
 20 21  2  0
 19 20  1  1
 22 20  1  0
 23 28  1  0
 23 22  1  0
 23 24  1  6
 25 24  1  0
 26 25  1  0
 26 27  2  0
 28 31  1  0
 29 28  2  0
 30 26  1  0
M  END
$$$$
