WPE.pdb
     RDKit          3D

 31 33  0  0  1  0  0  0  0  0999 V2000
    6.5035  -18.3556   25.4197 N   0  0  0  0  0  0  0  0  0  0  0  0
    6.3850  -17.4316   24.3526 C   0  0  1  0  0  0  0  0  0  0  0  0
    5.8913  -16.0828   24.8681 C   0  0  0  0  0  0  0  0  0  0  0  0
    6.7942  -15.4482   25.8231 C   0  0  0  0  0  0  0  0  0  0  0  0
    7.8307  -16.1052   26.5108 C   0  0  0  0  0  0  0  0  0  0  0  0
    8.4770  -15.2278   27.2942 N   0  0  0  0  0  0  0  0  0  0  0  0
    7.8946  -14.0035   27.1435 C   0  0  0  0  0  0  0  0  0  0  0  0
    8.1471  -12.7718   27.7081 C   0  0  0  0  0  0  0  0  0  0  0  0
    7.4013  -11.6511   27.4030 C   0  0  0  0  0  0  0  0  0  0  0  0
    6.3702  -11.8058   26.4968 C   0  0  0  0  0  0  0  0  0  0  0  0
    6.0964  -13.0294   25.9164 C   0  0  0  0  0  0  0  0  0  0  0  0
    6.8523  -14.1476   26.2289 C   0  0  0  0  0  0  0  0  0  0  0  0
    7.5890  -17.2026   23.5454 C   0  0  0  0  0  0  0  0  0  0  0  0
    8.5000  -18.0577   23.5798 O   0  0  0  0  0  0  0  0  0  0  0  0
    7.7833  -16.0510   22.7105 N   0  0  0  0  0  0  0  0  0  0  0  0
    6.7728  -15.0462   22.5589 C   0  0  0  0  0  0  0  0  0  0  0  0
    7.4908  -13.8303   22.0658 C   0  0  0  0  0  0  0  0  0  0  0  0
    8.8547  -14.2463   21.6635 C   0  0  0  0  0  0  0  0  0  0  0  0
    8.9027  -15.7539   21.8938 C   0  0  1  0  0  0  0  0  0  0  0  0
   10.2364  -16.0932   22.4405 C   0  0  0  0  0  0  0  0  0  0  0  0
   10.5336  -15.8792   23.6560 O   0  0  0  0  0  0  0  0  0  0  0  0
   11.2351  -16.6776   21.6422 N   0  0  0  0  0  0  0  0  0  0  0  0
   12.5654  -16.9953   22.2394 C   0  0  1  0  0  0  0  0  0  0  0  0
   13.2548  -17.8831   21.2393 C   0  0  0  0  0  0  0  0  0  0  0  0
   12.4548  -18.9755   20.6494 C   0  0  0  0  0  0  0  0  0  0  0  0
   13.1880  -19.7806   19.6459 C   0  0  0  0  0  0  0  0  0  0  0  0
   14.3870  -19.4695   19.3748 O   0  0  0  0  0  0  0  0  0  0  0  0
   13.3944  -15.7753   22.3651 C   0  0  0  0  0  0  0  0  0  0  0  0
   14.4946  -15.8443   22.9590 O   0  0  0  0  0  0  0  0  0  0  0  0
   12.6441  -20.8613   18.9854 O   0  0  0  0  0  0  0  0  0  0  0  0
   12.9851  -14.5644   21.8426 O   0  0  0  0  0  0  0  0  0  0  0  0
  2  3  1  0
  2  1  1  1
  4  3  1  0
  5  4  2  0
  6  5  1  0
  7  6  1  0
  7 12  2  0
  8  7  1  0
  9  8  2  0
  9 10  1  0
 10 11  2  0
 11 12  1  0
 12  4  1  0
 13 15  1  0
 13  2  1  0
 14 13  2  0
 15 16  1  0
 17 16  1  0
 18 17  1  0
 19 18  1  0
 19 15  1  0
 20 21  2  0
 19 20  1  1
 22 20  1  0
 23 28  1  0
 23 22  1  0
 23 24  1  6
 25 24  1  0
 26 25  1  0
 26 27  2  0
 28 31  1  0
 29 28  2  0
 30 26  1  0
M  END
$$$$
