WPE.pdb
     RDKit          3D

 31 33  0  0  1  0  0  0  0  0999 V2000
    6.3658  -17.5948   24.5231 N   0  0  0  0  0  0  0  0  0  0  0  0
    6.9082  -16.4398   23.9078 C   0  0  1  0  0  0  0  0  0  0  0  0
    7.7505  -15.6503   24.9058 C   0  0  0  0  0  0  0  0  0  0  0  0
    7.0007  -14.6376   25.6420 C   0  0  0  0  0  0  0  0  0  0  0  0
    5.6887  -14.7981   26.1234 C   0  0  0  0  0  0  0  0  0  0  0  0
    5.3076  -13.6850   26.7691 N   0  0  0  0  0  0  0  0  0  0  0  0
    6.3350  -12.7886   26.7281 C   0  0  0  0  0  0  0  0  0  0  0  0
    6.4782  -11.5071   27.2148 C   0  0  0  0  0  0  0  0  0  0  0  0
    7.6342  -10.7737   27.0390 C   0  0  0  0  0  0  0  0  0  0  0  0
    8.6646  -11.3756   26.3430 C   0  0  0  0  0  0  0  0  0  0  0  0
    8.5467  -12.6590   25.8450 C   0  0  0  0  0  0  0  0  0  0  0  0
    7.3821  -13.3867   26.0283 C   0  0  0  0  0  0  0  0  0  0  0  0
    7.7105  -16.6555   22.6981 C   0  0  0  0  0  0  0  0  0  0  0  0
    8.3172  -17.7409   22.5721 O   0  0  0  0  0  0  0  0  0  0  0  0
    7.8382  -15.6910   21.6424 N   0  0  0  0  0  0  0  0  0  0  0  0
    6.8672  -14.6567   21.4398 C   0  0  0  0  0  0  0  0  0  0  0  0
    7.5651  -13.6071   20.6346 C   0  0  0  0  0  0  0  0  0  0  0  0
    8.8341  -14.1903   20.1401 C   0  0  0  0  0  0  0  0  0  0  0  0
    8.8407  -15.6311   20.6424 C   0  0  1  0  0  0  0  0  0  0  0  0
   10.2212  -15.9659   21.0607 C   0  0  0  0  0  0  0  0  0  0  0  0
   10.7836  -15.3798   22.0362 O   0  0  0  0  0  0  0  0  0  0  0  0
   10.9725  -16.9557   20.4034 N   0  0  0  0  0  0  0  0  0  0  0  0
   12.3210  -17.3263   20.9247 C   0  0  1  0  0  0  0  0  0  0  0  0
   12.2016  -18.7586   21.3698 C   0  0  0  0  0  0  0  0  0  0  0  0
   13.4399  -19.4257   21.8202 C   0  0  0  0  0  0  0  0  0  0  0  0
   13.2474  -20.8377   22.2226 C   0  0  0  0  0  0  0  0  0  0  0  0
   12.0713  -21.3114   22.2360 O   0  0  0  0  0  0  0  0  0  0  0  0
   13.3318  -17.3016   19.8434 C   0  0  0  0  0  0  0  0  0  0  0  0
   12.9592  -17.4474   18.6569 O   0  0  0  0  0  0  0  0  0  0  0  0
   14.2784  -21.6790   22.5821 O   0  0  0  0  0  0  0  0  0  0  0  0
   14.6744  -17.1203   20.1110 O   0  0  0  0  0  0  0  0  0  0  0  0
  2  3  1  0
  2  1  1  1
  4  3  1  0
  5  4  2  0
  6  5  1  0
  7  6  1  0
  7 12  2  0
  8  7  1  0
  9  8  2  0
  9 10  1  0
 10 11  2  0
 11 12  1  0
 12  4  1  0
 13 15  1  0
 13  2  1  0
 14 13  2  0
 15 16  1  0
 17 16  1  0
 18 17  1  0
 19 18  1  0
 19 15  1  0
 20 21  2  0
 19 20  1  1
 22 20  1  0
 23 28  1  0
 23 22  1  0
 23 24  1  6
 25 24  1  0
 26 25  1  0
 26 27  2  0
 28 31  1  0
 29 28  2  0
 30 26  1  0
M  END
$$$$
