GEN.pdb
     RDKit          3D

 22 21  0  0  1  0  0  0  0  0999 V2000
   15.2226  -11.0105  -13.9190 N   0  0  0  0  0  0  0  0  0  0  0  0
   16.5686  -10.7547  -14.3849 C   0  0  0  0  0  0  0  0  0  0  0  0
   16.9369   -9.3382  -14.0733 C   0  0  0  0  0  0  0  0  0  0  0  0
   17.0484   -8.5140  -14.9963 O   0  0  0  0  0  0  0  0  0  0  0  0
   17.1622   -8.9077  -12.7374 N   0  0  0  0  0  0  0  0  0  0  0  0
   17.5219   -7.5646  -12.3715 C   0  0  1  0  0  0  0  0  0  0  0  0
   17.2191   -7.3752  -10.9266 C   0  0  0  0  0  0  0  0  0  0  0  0
   17.6071   -6.0082  -10.4749 C   0  0  0  0  0  0  0  0  0  0  0  0
   17.2924   -5.6962   -9.0696 C   0  0  0  0  0  0  0  0  0  0  0  0
   17.5936   -4.5854   -8.6027 O   0  0  0  0  0  0  0  0  0  0  0  0
   18.9719   -7.3085  -12.6416 C   0  0  0  0  0  0  0  0  0  0  0  0
   19.8902   -8.0366  -12.1904 O   0  0  0  0  0  0  0  0  0  0  0  0
   16.6630   -6.5904   -8.2130 O   0  0  0  0  0  0  0  0  0  0  0  0
   23.2346   -6.8973  -16.5368 N   0  0  0  0  0  0  0  0  0  0  0  0
   22.6860   -6.3758  -15.3339 C   0  0  0  0  0  0  0  0  0  0  0  0
   23.4776   -5.7775  -14.5639 O   0  0  0  0  0  0  0  0  0  0  0  0
   21.2474   -6.5605  -15.0563 C   0  0  0  0  0  0  0  0  0  0  0  0
   20.7876   -5.9851  -13.7487 C   0  0  2  0  0  0  0  0  0  0  0  0
   19.4131   -6.2116  -13.4380 N   0  0  0  0  0  0  0  0  0  0  0  0
   21.1733   -4.5828  -13.6372 C   0  0  0  0  0  0  0  0  0  0  0  0
   20.3972   -3.6412  -13.9359 O   0  0  0  0  0  0  0  0  0  0  0  0
   22.4791   -4.3228  -13.1717 O   0  0  0  0  0  0  0  0  0  0  0  0
  1  2  1  0
  2  3  1  0
  3  5  1  0
  3  4  2  0
  5  6  1  0
  6 11  1  0
  6  7  1  1
  8  7  1  0
  9  8  1  0
 10  9  2  0
 11 19  1  0
 11 12  2  0
 13  9  1  0
 14 15  1  0
 15 17  1  0
 16 15  2  0
 18 17  1  6
 18 20  1  0
 19 18  1  0
 20 22  1  0
 21 20  2  0
M  END
$$$$
