GEN.pdb
     RDKit          3D

 22 21  0  0  1  0  0  0  0  0999 V2000
   17.1363  -13.1904  -15.1035 N   0  0  0  0  0  0  0  0  0  0  0  0
   16.6211  -11.8986  -15.5038 C   0  0  0  0  0  0  0  0  0  0  0  0
   17.7480  -11.0543  -16.0104 C   0  0  0  0  0  0  0  0  0  0  0  0
   18.9151  -11.4730  -15.9299 O   0  0  0  0  0  0  0  0  0  0  0  0
   17.5153   -9.7764  -16.5876 N   0  0  0  0  0  0  0  0  0  0  0  0
   18.5524   -8.9141  -17.0856 C   0  0  1  0  0  0  0  0  0  0  0  0
   18.0720   -8.2814  -18.3443 C   0  0  0  0  0  0  0  0  0  0  0  0
   18.1671   -9.2319  -19.4892 C   0  0  0  0  0  0  0  0  0  0  0  0
   19.4662   -9.2530  -20.1842 C   0  0  0  0  0  0  0  0  0  0  0  0
   19.9169  -10.3269  -20.6155 O   0  0  0  0  0  0  0  0  0  0  0  0
   18.9072   -7.8681  -16.0750 C   0  0  0  0  0  0  0  0  0  0  0  0
   18.1055   -7.4680  -15.1951 O   0  0  0  0  0  0  0  0  0  0  0  0
   20.2374   -8.1167  -20.3927 O   0  0  0  0  0  0  0  0  0  0  0  0
   22.1599   -5.1174  -12.4886 N   0  0  0  0  0  0  0  0  0  0  0  0
   22.3136   -4.9666  -13.8934 C   0  0  0  0  0  0  0  0  0  0  0  0
   22.7346   -3.8553  -14.3002 O   0  0  0  0  0  0  0  0  0  0  0  0
   21.9774   -6.0966  -14.7826 C   0  0  0  0  0  0  0  0  0  0  0  0
   20.5215   -6.2015  -15.1314 C   0  0  2  0  0  0  0  0  0  0  0  0
   20.1915   -7.2505  -16.0412 N   0  0  0  0  0  0  0  0  0  0  0  0
   19.9936   -4.9050  -15.5410 C   0  0  0  0  0  0  0  0  0  0  0  0
   19.9978   -4.5191  -16.7365 O   0  0  0  0  0  0  0  0  0  0  0  0
   19.4685   -4.0864  -14.5195 O   0  0  0  0  0  0  0  0  0  0  0  0
  1  2  1  0
  2  3  1  0
  3  5  1  0
  3  4  2  0
  5  6  1  0
  6 11  1  0
  6  7  1  6
  8  7  1  0
  9  8  1  0
 10  9  2  0
 11 19  1  0
 11 12  2  0
 13  9  1  0
 14 15  1  0
 15 17  1  0
 16 15  2  0
 18 17  1  6
 18 20  1  0
 19 18  1  0
 20 22  1  0
 21 20  2  0
M  END
$$$$
