GEN.pdb
     RDKit          3D

 22 21  0  0  1  0  0  0  0  0999 V2000
   13.2950   -7.2457  -14.0526 N   0  0  0  0  0  0  0  0  0  0  0  0
   13.8446   -8.2224  -14.9682 C   0  0  0  0  0  0  0  0  0  0  0  0
   15.2531   -8.5333  -14.5697 C   0  0  0  0  0  0  0  0  0  0  0  0
   15.5850   -8.4597  -13.3746 O   0  0  0  0  0  0  0  0  0  0  0  0
   16.2281   -8.9157  -15.5307 N   0  0  0  0  0  0  0  0  0  0  0  0
   17.5753   -9.2990  -15.2061 C   0  0  1  0  0  0  0  0  0  0  0  0
   17.9232  -10.5083  -16.0009 C   0  0  0  0  0  0  0  0  0  0  0  0
   19.3098  -10.9651  -15.6980 C   0  0  0  0  0  0  0  0  0  0  0  0
   19.7088  -12.2324  -16.3351 C   0  0  0  0  0  0  0  0  0  0  0  0
   19.9949  -12.2513  -17.5436 O   0  0  0  0  0  0  0  0  0  0  0  0
   18.5319   -8.1854  -15.4995 C   0  0  0  0  0  0  0  0  0  0  0  0
   18.4780   -7.4964  -16.5480 O   0  0  0  0  0  0  0  0  0  0  0  0
   19.7874  -13.4381  -15.6498 O   0  0  0  0  0  0  0  0  0  0  0  0
   22.4150   -4.7672  -15.2457 N   0  0  0  0  0  0  0  0  0  0  0  0
   21.5525   -4.6332  -14.1240 C   0  0  0  0  0  0  0  0  0  0  0  0
   21.7380   -3.6355  -13.3839 O   0  0  0  0  0  0  0  0  0  0  0  0
   20.5076   -5.6502  -13.8905 C   0  0  0  0  0  0  0  0  0  0  0  0
   20.5109   -6.7827  -14.8753 C   0  0  2  0  0  0  0  0  0  0  0  0
   19.5777   -7.8268  -14.5996 N   0  0  0  0  0  0  0  0  0  0  0  0
   21.8670   -7.2736  -15.0935 C   0  0  0  0  0  0  0  0  0  0  0  0
   22.4048   -8.1311  -14.3494 O   0  0  0  0  0  0  0  0  0  0  0  0
   22.5632   -6.7349  -16.1955 O   0  0  0  0  0  0  0  0  0  0  0  0
  1  2  1  0
  2  3  1  0
  3  5  1  0
  3  4  2  0
  5  6  1  0
  6 11  1  0
  6  7  1  6
  8  7  1  0
  9  8  1  0
 10  9  2  0
 11 19  1  0
 11 12  2  0
 13  9  1  0
 14 15  1  0
 15 17  1  0
 16 15  2  0
 18 17  1  1
 18 20  1  0
 19 18  1  0
 20 22  1  0
 21 20  2  0
M  END
$$$$
