YQW.pdb
     RDKit          3D

 36 38  0  0  1  0  0  0  0  0999 V2000
   21.6467  -21.6846  -22.9913 O   0  0  0  0  0  0  0  0  0  0  0  0
   22.3269  -21.6937  -21.7762 C   0  0  0  0  0  0  0  0  0  0  0  0
   22.4829  -20.5520  -21.0170 C   0  0  0  0  0  0  0  0  0  0  0  0
   23.1644  -20.6126  -19.8212 C   0  0  0  0  0  0  0  0  0  0  0  0
   23.7137  -21.7751  -19.3254 C   0  0  0  0  0  0  0  0  0  0  0  0
   24.4456  -21.8396  -18.0540 C   0  0  0  0  0  0  0  0  0  0  0  0
   25.8090  -21.2196  -18.0786 C   0  0  2  0  0  0  0  0  0  0  0  0
   26.6780  -22.1663  -18.7871 N   0  0  0  0  0  0  0  0  0  0  0  0
   26.3561  -21.0343  -16.7202 C   0  0  0  0  0  0  0  0  0  0  0  0
   27.2200  -21.8271  -16.2624 O   0  0  0  0  0  0  0  0  0  0  0  0
   23.5461  -22.9199  -20.1063 C   0  0  0  0  0  0  0  0  0  0  0  0
   22.8673  -22.8723  -21.3026 C   0  0  0  0  0  0  0  0  0  0  0  0
   29.4212  -19.2368  -14.7642 N   0  0  0  0  0  0  0  0  0  0  0  0
   28.9559  -18.0547  -15.3901 C   0  0  0  0  0  0  0  0  0  0  0  0
   29.6881  -17.4610  -16.2096 O   0  0  0  0  0  0  0  0  0  0  0  0
   27.6152  -17.5087  -15.0972 C   0  0  0  0  0  0  0  0  0  0  0  0
   26.7833  -18.3365  -14.1935 C   0  0  0  0  0  0  0  0  0  0  0  0
   26.4912  -19.7301  -14.6054 C   0  0  2  0  0  0  0  0  0  0  0  0
   25.9271  -19.9569  -15.8836 N   0  0  0  0  0  0  0  0  0  0  0  0
   25.6260  -20.4101  -13.5923 C   0  0  0  0  0  0  0  0  0  0  0  0
   24.3908  -20.5475  -13.7669 O   0  0  0  0  0  0  0  0  0  0  0  0
   26.1985  -20.9151  -12.4074 N   0  0  0  0  0  0  0  0  0  0  0  0
   25.3302  -21.4879  -11.3862 C   0  0  1  0  0  0  0  0  0  0  0  0
   26.2649  -22.0179  -10.3321 C   0  0  0  0  0  0  0  0  0  0  0  0
   26.6459  -20.9866   -9.3591 C   0  0  0  0  0  0  0  0  0  0  0  0
   25.7972  -19.9749   -8.8793 C   0  0  0  0  0  0  0  0  0  0  0  0
   26.4717  -19.1914   -8.0367 N   0  0  0  0  0  0  0  0  0  0  0  0
   27.7448  -19.6129   -7.9104 C   0  0  0  0  0  0  0  0  0  0  0  0
   28.7999  -19.1465   -7.1558 C   0  0  0  0  0  0  0  0  0  0  0  0
   30.0201  -19.7949   -7.1988 C   0  0  0  0  0  0  0  0  0  0  0  0
   30.1231  -20.9038   -8.0148 C   0  0  0  0  0  0  0  0  0  0  0  0
   29.0690  -21.3695   -8.7694 C   0  0  0  0  0  0  0  0  0  0  0  0
   27.8480  -20.7277   -8.7330 C   0  0  0  0  0  0  0  0  0  0  0  0
   24.3133  -20.5454  -10.9308 C   0  0  0  0  0  0  0  0  0  0  0  0
   23.1226  -20.8951  -10.3319 O   0  0  0  0  0  0  0  0  0  0  0  0
   24.5059  -19.3034  -11.0876 O   0  0  0  0  0  0  0  0  0  0  0  0
  2  1  1  0
  3  2  2  0
  4  3  1  0
  5 11  1  0
  5  4  2  0
  6  5  1  0
  7  8  1  6
  7  6  1  0
  9  7  1  0
  9 10  2  0
 11 12  2  0
 12  2  1  0
 14 13  1  0
 15 14  2  0
 16 14  1  0
 16 17  1  0
 18 17  1  1
 18 19  1  0
 18 20  1  0
 19  9  1  0
 20 21  2  0
 20 22  1  0
 22 23  1  0
 23 34  1  0
 24 25  1  0
 23 24  1  1
 25 33  1  0
 25 26  2  0
 26 27  1  0
 28 27  1  0
 28 29  2  0
 30 29  1  0
 31 30  2  0
 32 31  1  0
 32 33  2  0
 33 28  1  0
 34 36  2  0
 34 35  1  0
M  END
$$$$
