YQW.pdb
     RDKit          3D

 36 38  0  0  1  0  0  0  0  0999 V2000
   30.6570  -15.3158  -18.6771 O   0  0  0  0  0  0  0  0  0  0  0  0
   29.7342  -15.7491  -17.7285 C   0  0  0  0  0  0  0  0  0  0  0  0
   28.5944  -15.0288  -17.4348 C   0  0  0  0  0  0  0  0  0  0  0  0
   27.7116  -15.5000  -16.4879 C   0  0  0  0  0  0  0  0  0  0  0  0
   27.9040  -16.6776  -15.7987 C   0  0  0  0  0  0  0  0  0  0  0  0
   26.9668  -17.1776  -14.7846 C   0  0  0  0  0  0  0  0  0  0  0  0
   26.1963  -18.3982  -15.1847 C   0  0  2  0  0  0  0  0  0  0  0  0
   25.3366  -17.9931  -16.3028 N   0  0  0  0  0  0  0  0  0  0  0  0
   25.3239  -18.8818  -14.0967 C   0  0  0  0  0  0  0  0  0  0  0  0
   24.1321  -18.4871  -14.0058 O   0  0  0  0  0  0  0  0  0  0  0  0
   29.0619  -17.3930  -16.1086 C   0  0  0  0  0  0  0  0  0  0  0  0
   29.9514  -16.9329  -17.0527 C   0  0  0  0  0  0  0  0  0  0  0  0
   25.3101  -24.1637  -14.7015 N   0  0  0  0  0  0  0  0  0  0  0  0
   24.2936  -23.5429  -13.9354 C   0  0  0  0  0  0  0  0  0  0  0  0
   23.1084  -23.5928  -14.3267 O   0  0  0  0  0  0  0  0  0  0  0  0
   24.6052  -22.8384  -12.6752 C   0  0  0  0  0  0  0  0  0  0  0  0
   24.0326  -21.4774  -12.5581 C   0  0  0  0  0  0  0  0  0  0  0  0
   24.9389  -20.3789  -12.1467 C   0  0  2  0  0  0  0  0  0  0  0  0
   25.7982  -19.8079  -13.1157 N   0  0  0  0  0  0  0  0  0  0  0  0
   25.7739  -20.7931  -10.9768 C   0  0  0  0  0  0  0  0  0  0  0  0
   26.9973  -21.0460  -11.0972 O   0  0  0  0  0  0  0  0  0  0  0  0
   25.1858  -20.9055   -9.7007 N   0  0  0  0  0  0  0  0  0  0  0  0
   26.0084  -21.3270   -8.5734 C   0  0  1  0  0  0  0  0  0  0  0  0
   27.1621  -20.3605   -8.5498 C   0  0  0  0  0  0  0  0  0  0  0  0
   28.0787  -20.6179   -7.4322 C   0  0  0  0  0  0  0  0  0  0  0  0
   28.9017  -21.7496   -7.3059 C   0  0  0  0  0  0  0  0  0  0  0  0
   29.5784  -21.6813   -6.1586 N   0  0  0  0  0  0  0  0  0  0  0  0
   29.2636  -20.5571   -5.4865 C   0  0  0  0  0  0  0  0  0  0  0  0
   29.7065  -20.0467   -4.2851 C   0  0  0  0  0  0  0  0  0  0  0  0
   29.2230  -18.8344   -3.8292 C   0  0  0  0  0  0  0  0  0  0  0  0
   28.2988  -18.1801   -4.6190 C   0  0  0  0  0  0  0  0  0  0  0  0
   27.8558  -18.6906   -5.8193 C   0  0  0  0  0  0  0  0  0  0  0  0
   28.3326  -19.9003   -6.2812 C   0  0  0  0  0  0  0  0  0  0  0  0
   25.2393  -21.4429   -7.3387 C   0  0  0  0  0  0  0  0  0  0  0  0
   23.9325  -21.0356   -7.1799 O   0  0  0  0  0  0  0  0  0  0  0  0
   25.7864  -21.9471   -6.3136 O   0  0  0  0  0  0  0  0  0  0  0  0
  2  1  1  0
  3  2  2  0
  4  3  1  0
  5 11  1  0
  5  4  2  0
  6  5  1  0
  7  8  1  6
  7  6  1  0
  9  7  1  0
  9 10  2  0
 11 12  2  0
 12  2  1  0
 14 13  1  0
 15 14  2  0
 16 14  1  0
 16 17  1  0
 18 17  1  6
 18 19  1  0
 18 20  1  0
 19  9  1  0
 20 21  2  0
 20 22  1  0
 22 23  1  0
 23 34  1  0
 24 25  1  0
 23 24  1  1
 25 33  1  0
 25 26  2  0
 26 27  1  0
 28 27  1  0
 28 29  2  0
 30 29  1  0
 31 30  2  0
 32 31  1  0
 32 33  2  0
 33 28  1  0
 34 36  2  0
 34 35  1  0
M  END
$$$$
