YQW.pdb
     RDKit          3D

 36 38  0  0  1  0  0  0  0  0999 V2000
   30.4139  -22.1630  -21.3489 O   0  0  0  0  0  0  0  0  0  0  0  0
   29.4300  -22.0631  -20.3686 C   0  0  0  0  0  0  0  0  0  0  0  0
   28.0969  -22.2885  -20.6450 C   0  0  0  0  0  0  0  0  0  0  0  0
   27.1610  -22.1774  -19.6401 C   0  0  0  0  0  0  0  0  0  0  0  0
   27.4849  -21.8459  -18.3424 C   0  0  0  0  0  0  0  0  0  0  0  0
   26.4873  -21.7209  -17.2720 C   0  0  0  0  0  0  0  0  0  0  0  0
   26.5937  -22.7484  -16.1873 C   0  0  2  0  0  0  0  0  0  0  0  0
   26.0091  -23.9803  -16.7295 N   0  0  0  0  0  0  0  0  0  0  0  0
   25.8181  -22.3696  -14.9898 C   0  0  0  0  0  0  0  0  0  0  0  0
   24.6954  -22.8908  -14.7608 O   0  0  0  0  0  0  0  0  0  0  0  0
   28.8376  -21.6215  -18.0811 C   0  0  0  0  0  0  0  0  0  0  0  0
   29.7821  -21.7297  -19.0763 C   0  0  0  0  0  0  0  0  0  0  0  0
   25.8594  -22.3278   -9.7438 N   0  0  0  0  0  0  0  0  0  0  0  0
   25.2101  -21.0748   -9.6245 C   0  0  0  0  0  0  0  0  0  0  0  0
   24.4301  -20.8724   -8.6702 O   0  0  0  0  0  0  0  0  0  0  0  0
   25.4401  -19.9954  -10.6061 C   0  0  0  0  0  0  0  0  0  0  0  0
   26.2511  -20.3799  -11.7843 C   0  0  0  0  0  0  0  0  0  0  0  0
   25.5477  -20.9842  -12.9407 C   0  0  2  0  0  0  0  0  0  0  0  0
   26.3107  -21.4052  -14.0560 N   0  0  0  0  0  0  0  0  0  0  0  0
   24.4689  -20.0746  -13.4369 C   0  0  0  0  0  0  0  0  0  0  0  0
   23.7104  -19.4605  -12.6478 O   0  0  0  0  0  0  0  0  0  0  0  0
   24.2886  -19.8919  -14.8229 N   0  0  0  0  0  0  0  0  0  0  0  0
   23.4184  -18.8204  -15.2915 C   0  0  1  0  0  0  0  0  0  0  0  0
   24.0692  -17.5511  -14.8106 C   0  0  0  0  0  0  0  0  0  0  0  0
   25.1102  -17.0781  -15.7314 C   0  0  0  0  0  0  0  0  0  0  0  0
   24.8842  -16.2826  -16.8671 C   0  0  0  0  0  0  0  0  0  0  0  0
   26.0407  -16.0648  -17.4946 N   0  0  0  0  0  0  0  0  0  0  0  0
   27.0549  -16.6705  -16.8473 C   0  0  0  0  0  0  0  0  0  0  0  0
   28.4098  -16.7186  -17.0965 C   0  0  0  0  0  0  0  0  0  0  0  0
   29.2458  -17.4103  -16.2398 C   0  0  0  0  0  0  0  0  0  0  0  0
   28.6679  -18.0329  -15.1515 C   0  0  0  0  0  0  0  0  0  0  0  0
   27.3139  -17.9853  -14.9028 C   0  0  0  0  0  0  0  0  0  0  0  0
   26.4723  -17.2979  -15.7533 C   0  0  0  0  0  0  0  0  0  0  0  0
   23.1549  -18.9067  -16.7242 C   0  0  0  0  0  0  0  0  0  0  0  0
   22.1686  -18.2120  -17.3901 O   0  0  0  0  0  0  0  0  0  0  0  0
   23.8654  -19.6736  -17.4392 O   0  0  0  0  0  0  0  0  0  0  0  0
  2  1  1  0
  3  2  2  0
  4  3  1  0
  5 11  1  0
  5  4  2  0
  6  5  1  0
  7  8  1  6
  7  6  1  0
  9  7  1  0
  9 10  2  0
 11 12  2  0
 12  2  1  0
 14 13  1  0
 15 14  2  0
 16 14  1  0
 16 17  1  0
 18 17  1  1
 18 19  1  0
 18 20  1  0
 19  9  1  0
 20 21  2  0
 20 22  1  0
 22 23  1  0
 23 34  1  0
 24 25  1  0
 23 24  1  6
 25 33  1  0
 25 26  2  0
 26 27  1  0
 28 27  1  0
 28 29  2  0
 30 29  1  0
 31 30  2  0
 32 31  1  0
 32 33  2  0
 33 28  1  0
 34 36  2  0
 34 35  1  0
M  END
$$$$
