YQW.pdb
     RDKit          3D

 36 38  0  0  1  0  0  0  0  0999 V2000
   11.8668   -8.3890  -16.4437 O   0  0  0  0  0  0  0  0  0  0  0  0
   13.2423   -8.5021  -16.2583 C   0  0  0  0  0  0  0  0  0  0  0  0
   14.1457   -8.0866  -17.2151 C   0  0  0  0  0  0  0  0  0  0  0  0
   15.4973   -8.2197  -16.9843 C   0  0  0  0  0  0  0  0  0  0  0  0
   16.0142   -8.7568  -15.8253 C   0  0  0  0  0  0  0  0  0  0  0  0
   17.4546   -8.9049  -15.5809 C   0  0  0  0  0  0  0  0  0  0  0  0
   18.0952  -10.0701  -16.2707 C   0  0  2  0  0  0  0  0  0  0  0  0
   17.8996  -11.2272  -15.3897 N   0  0  0  0  0  0  0  0  0  0  0  0
   19.5481   -9.8772  -16.4466 C   0  0  0  0  0  0  0  0  0  0  0  0
   20.3708  -10.6382  -15.8735 O   0  0  0  0  0  0  0  0  0  0  0  0
   15.0861   -9.1715  -14.8688 C   0  0  0  0  0  0  0  0  0  0  0  0
   13.7333   -9.0438  -15.0875 C   0  0  0  0  0  0  0  0  0  0  0  0
   23.0799  -10.1507  -21.2405 N   0  0  0  0  0  0  0  0  0  0  0  0
   23.9731   -9.6573  -20.2584 C   0  0  0  0  0  0  0  0  0  0  0  0
   25.2025   -9.6724  -20.4791 O   0  0  0  0  0  0  0  0  0  0  0  0
   23.4799   -9.1184  -18.9748 C   0  0  0  0  0  0  0  0  0  0  0  0
   22.0159   -9.2170  -18.7729 C   0  0  0  0  0  0  0  0  0  0  0  0
   21.4544   -8.6823  -17.5097 C   0  0  2  0  0  0  0  0  0  0  0  0
   20.0674   -8.8276  -17.2672 N   0  0  0  0  0  0  0  0  0  0  0  0
   21.8019   -7.2365  -17.3473 C   0  0  0  0  0  0  0  0  0  0  0  0
   21.2437   -6.3441  -18.0307 O   0  0  0  0  0  0  0  0  0  0  0  0
   22.7783   -6.8517  -16.4063 N   0  0  0  0  0  0  0  0  0  0  0  0
   23.0656   -5.4349  -16.2188 C   0  0  1  0  0  0  0  0  0  0  0  0
   22.7150   -5.1528  -14.7824 C   0  0  0  0  0  0  0  0  0  0  0  0
   21.2639   -5.1260  -14.5605 C   0  0  0  0  0  0  0  0  0  0  0  0
   20.5220   -6.1456  -13.9409 C   0  0  0  0  0  0  0  0  0  0  0  0
   19.2303   -5.8135  -13.9332 N   0  0  0  0  0  0  0  0  0  0  0  0
   19.0438   -4.6137  -14.5165 C   0  0  0  0  0  0  0  0  0  0  0  0
   17.9110   -3.8571  -14.7272 C   0  0  0  0  0  0  0  0  0  0  0  0
   18.0085   -2.6243  -15.3452 C   0  0  0  0  0  0  0  0  0  0  0  0
   19.2658   -2.2026  -15.7292 C   0  0  0  0  0  0  0  0  0  0  0  0
   20.3978   -2.9589  -15.5192 C   0  0  0  0  0  0  0  0  0  0  0  0
   20.3091   -4.1909  -14.9040 C   0  0  0  0  0  0  0  0  0  0  0  0
   24.4205   -5.0845  -16.6323 C   0  0  0  0  0  0  0  0  0  0  0  0
   24.9893   -3.8362  -16.5014 O   0  0  0  0  0  0  0  0  0  0  0  0
   25.1553   -5.9708  -17.1603 O   0  0  0  0  0  0  0  0  0  0  0  0
  2  1  1  0
  3  2  2  0
  4  3  1  0
  5 11  1  0
  5  4  2  0
  6  5  1  0
  7  8  1  1
  7  6  1  0
  9  7  1  0
  9 10  2  0
 11 12  2  0
 12  2  1  0
 14 13  1  0
 15 14  2  0
 16 14  1  0
 16 17  1  0
 18 17  1  6
 18 19  1  0
 18 20  1  0
 19  9  1  0
 20 21  2  0
 20 22  1  0
 22 23  1  0
 23 34  1  0
 24 25  1  0
 23 24  1  1
 25 33  1  0
 25 26  2  0
 26 27  1  0
 28 27  1  0
 28 29  2  0
 30 29  1  0
 31 30  2  0
 32 31  1  0
 32 33  2  0
 33 28  1  0
 34 36  2  0
 34 35  1  0
M  END
$$$$
