YQW.pdb
     RDKit          3D

 36 38  0  0  1  0  0  0  0  0999 V2000
   28.4785  -17.9604   -3.4665 O   0  0  0  0  0  0  0  0  0  0  0  0
   28.3249  -18.5203   -4.7322 C   0  0  0  0  0  0  0  0  0  0  0  0
   28.0476  -17.7506   -5.8435 C   0  0  0  0  0  0  0  0  0  0  0  0
   27.9046  -18.3520   -7.0747 C   0  0  0  0  0  0  0  0  0  0  0  0
   28.0249  -19.7112   -7.2676 C   0  0  0  0  0  0  0  0  0  0  0  0
   27.8665  -20.3540   -8.5783 C   0  0  0  0  0  0  0  0  0  0  0  0
   26.5026  -20.2246   -9.1839 C   0  0  2  0  0  0  0  0  0  0  0  0
   25.5996  -21.0091   -8.3339 N   0  0  0  0  0  0  0  0  0  0  0  0
   26.4469  -20.7915  -10.5457 C   0  0  0  0  0  0  0  0  0  0  0  0
   27.1206  -21.8119  -10.8444 O   0  0  0  0  0  0  0  0  0  0  0  0
   28.3056  -20.4739   -6.1327 C   0  0  0  0  0  0  0  0  0  0  0  0
   28.4508  -19.8849   -4.8973 C   0  0  0  0  0  0  0  0  0  0  0  0
   24.3912  -24.8663  -13.4444 N   0  0  0  0  0  0  0  0  0  0  0  0
   23.4386  -23.9516  -12.9330 C   0  0  0  0  0  0  0  0  0  0  0  0
   22.3006  -24.3581  -12.6167 O   0  0  0  0  0  0  0  0  0  0  0  0
   23.7646  -22.5215  -12.7600 C   0  0  0  0  0  0  0  0  0  0  0  0
   25.1724  -22.1592  -13.0443 C   0  0  0  0  0  0  0  0  0  0  0  0
   25.5695  -20.7413  -12.8736 C   0  0  2  0  0  0  0  0  0  0  0  0
   25.6325  -20.2060  -11.5649 N   0  0  0  0  0  0  0  0  0  0  0  0
   24.6985  -19.8461  -13.6967 C   0  0  0  0  0  0  0  0  0  0  0  0
   23.7214  -19.2370  -13.1973 O   0  0  0  0  0  0  0  0  0  0  0  0
   24.9705  -19.6716  -15.0687 N   0  0  0  0  0  0  0  0  0  0  0  0
   24.0896  -18.8275  -15.8664 C   0  0  1  0  0  0  0  0  0  0  0  0
   24.9397  -18.3510  -17.0136 C   0  0  0  0  0  0  0  0  0  0  0  0
   24.2104  -17.4386  -17.9031 C   0  0  0  0  0  0  0  0  0  0  0  0
   24.0044  -16.0696  -17.6640 C   0  0  0  0  0  0  0  0  0  0  0  0
   23.2761  -15.5503  -18.6534 N   0  0  0  0  0  0  0  0  0  0  0  0
   22.9697  -16.4938  -19.5647 C   0  0  0  0  0  0  0  0  0  0  0  0
   22.2637  -16.4385  -20.7474 C   0  0  0  0  0  0  0  0  0  0  0  0
   22.1147  -17.5772  -21.5170 C   0  0  0  0  0  0  0  0  0  0  0  0
   22.6945  -18.7404  -21.0514 C   0  0  0  0  0  0  0  0  0  0  0  0
   23.3995  -18.7958  -19.8693 C   0  0  0  0  0  0  0  0  0  0  0  0
   23.5521  -17.6642  -19.0947 C   0  0  0  0  0  0  0  0  0  0  0  0
   22.8467  -19.5040  -16.2228 C   0  0  0  0  0  0  0  0  0  0  0  0
   21.6161  -18.8931  -16.3289 O   0  0  0  0  0  0  0  0  0  0  0  0
   22.8639  -20.7492  -16.4538 O   0  0  0  0  0  0  0  0  0  0  0  0
  2  1  1  0
  3  2  2  0
  4  3  1  0
  5 11  1  0
  5  4  2  0
  6  5  1  0
  7  8  1  1
  7  6  1  0
  9  7  1  0
  9 10  2  0
 11 12  2  0
 12  2  1  0
 14 13  1  0
 15 14  2  0
 16 14  1  0
 16 17  1  0
 18 17  1  1
 18 19  1  0
 18 20  1  0
 19  9  1  0
 20 21  2  0
 20 22  1  0
 22 23  1  0
 23 34  1  0
 24 25  1  0
 23 24  1  6
 25 33  1  0
 25 26  2  0
 26 27  1  0
 28 27  1  0
 28 29  2  0
 30 29  1  0
 31 30  2  0
 32 31  1  0
 32 33  2  0
 33 28  1  0
 34 36  2  0
 34 35  1  0
M  END
$$$$
