YQW.pdb
     RDKit          3D

 36 38  0  0  1  0  0  0  0  0999 V2000
   30.8595  -16.3085  -19.1989 O   0  0  0  0  0  0  0  0  0  0  0  0
   29.9901  -16.5551  -18.1394 C   0  0  0  0  0  0  0  0  0  0  0  0
   29.1017  -15.6017  -17.6854 C   0  0  0  0  0  0  0  0  0  0  0  0
   28.2616  -15.8944  -16.6334 C   0  0  0  0  0  0  0  0  0  0  0  0
   28.2556  -17.1134  -15.9909 C   0  0  0  0  0  0  0  0  0  0  0  0
   27.3650  -17.4243  -14.8655 C   0  0  0  0  0  0  0  0  0  0  0  0
   26.3736  -18.5160  -15.1282 C   0  0  2  0  0  0  0  0  0  0  0  0
   25.4666  -18.0068  -16.1633 N   0  0  0  0  0  0  0  0  0  0  0  0
   25.5651  -18.8272  -13.9330 C   0  0  0  0  0  0  0  0  0  0  0  0
   24.6793  -18.0282  -13.5312 O   0  0  0  0  0  0  0  0  0  0  0  0
   29.1605  -18.0655  -16.4634 C   0  0  0  0  0  0  0  0  0  0  0  0
   30.0048  -17.7853  -17.5136 C   0  0  0  0  0  0  0  0  0  0  0  0
   21.5485  -22.9627  -12.6675 N   0  0  0  0  0  0  0  0  0  0  0  0
   21.7477  -21.8883  -13.5684 C   0  0  0  0  0  0  0  0  0  0  0  0
   20.9391  -21.7088  -14.5034 O   0  0  0  0  0  0  0  0  0  0  0  0
   22.8938  -20.9680  -13.4229 C   0  0  0  0  0  0  0  0  0  0  0  0
   23.7858  -21.2520  -12.2750 C   0  0  0  0  0  0  0  0  0  0  0  0
   24.9589  -20.3681  -12.0757 C   0  0  2  0  0  0  0  0  0  0  0  0
   25.7586  -20.0370  -13.1957 N   0  0  0  0  0  0  0  0  0  0  0  0
   25.8581  -20.9154  -11.0128 C   0  0  0  0  0  0  0  0  0  0  0  0
   26.8853  -21.5784  -11.2961 O   0  0  0  0  0  0  0  0  0  0  0  0
   25.5572  -20.6878   -9.6547 N   0  0  0  0  0  0  0  0  0  0  0  0
   26.4027  -21.2867   -8.6292 C   0  0  1  0  0  0  0  0  0  0  0  0
   27.5080  -20.2899   -8.4042 C   0  0  0  0  0  0  0  0  0  0  0  0
   28.1863  -20.4946   -7.1183 C   0  0  0  0  0  0  0  0  0  0  0  0
   28.8893  -21.6542   -6.7507 C   0  0  0  0  0  0  0  0  0  0  0  0
   29.3504  -21.5188   -5.5066 N   0  0  0  0  0  0  0  0  0  0  0  0
   29.0009  -20.3218   -4.9971 C   0  0  0  0  0  0  0  0  0  0  0  0
   29.2547  -19.7288   -3.7788 C   0  0  0  0  0  0  0  0  0  0  0  0
   28.7851  -18.4547   -3.5195 C   0  0  0  0  0  0  0  0  0  0  0  0
   28.0686  -17.8250   -4.5175 C   0  0  0  0  0  0  0  0  0  0  0  0
   27.8144  -18.4179   -5.7347 C   0  0  0  0  0  0  0  0  0  0  0  0
   28.2787  -19.6896   -6.0014 C   0  0  0  0  0  0  0  0  0  0  0  0
   25.6438  -21.6850   -7.4481 C   0  0  0  0  0  0  0  0  0  0  0  0
   24.4616  -21.1089   -7.0364 O   0  0  0  0  0  0  0  0  0  0  0  0
   26.0796  -22.6256   -6.7204 O   0  0  0  0  0  0  0  0  0  0  0  0
  2  1  1  0
  3  2  2  0
  4  3  1  0
  5 11  1  0
  5  4  2  0
  6  5  1  0
  7  8  1  6
  7  6  1  0
  9  7  1  0
  9 10  2  0
 11 12  2  0
 12  2  1  0
 14 13  1  0
 15 14  2  0
 16 14  1  0
 16 17  1  0
 18 17  1  6
 18 19  1  0
 18 20  1  0
 19  9  1  0
 20 21  2  0
 20 22  1  0
 22 23  1  0
 23 34  1  0
 24 25  1  0
 23 24  1  1
 25 33  1  0
 25 26  2  0
 26 27  1  0
 28 27  1  0
 28 29  2  0
 30 29  1  0
 31 30  2  0
 32 31  1  0
 32 33  2  0
 33 28  1  0
 34 36  2  0
 34 35  1  0
M  END
$$$$
