YQW.pdb
     RDKit          3D

 36 38  0  0  1  0  0  0  0  0999 V2000
   24.0013  -14.6860  -21.0123 O   0  0  0  0  0  0  0  0  0  0  0  0
   23.6399  -15.7913  -20.2461 C   0  0  0  0  0  0  0  0  0  0  0  0
   23.3754  -15.6898  -18.8955 C   0  0  0  0  0  0  0  0  0  0  0  0
   23.0215  -16.8132  -18.1808 C   0  0  0  0  0  0  0  0  0  0  0  0
   22.9133  -18.0641  -18.7487 C   0  0  0  0  0  0  0  0  0  0  0  0
   22.5423  -19.2632  -17.9865 C   0  0  0  0  0  0  0  0  0  0  0  0
   23.6023  -19.7753  -17.0603 C   0  0  2  0  0  0  0  0  0  0  0  0
   24.7018  -20.2424  -17.9125 N   0  0  0  0  0  0  0  0  0  0  0  0
   23.1305  -20.9239  -16.2622 C   0  0  0  0  0  0  0  0  0  0  0  0
   23.1777  -22.0922  -16.7283 O   0  0  0  0  0  0  0  0  0  0  0  0
   23.1843  -18.1479  -20.1154 C   0  0  0  0  0  0  0  0  0  0  0  0
   23.5386  -17.0330  -20.8404 C   0  0  0  0  0  0  0  0  0  0  0  0
   25.1591  -22.6097  -11.2973 N   0  0  0  0  0  0  0  0  0  0  0  0
   24.3135  -21.4961  -11.0725 C   0  0  0  0  0  0  0  0  0  0  0  0
   24.5674  -20.7072  -10.1379 O   0  0  0  0  0  0  0  0  0  0  0  0
   23.1351  -21.2433  -11.9262 C   0  0  0  0  0  0  0  0  0  0  0  0
   22.8913  -22.2582  -12.9772 C   0  0  0  0  0  0  0  0  0  0  0  0
   22.1282  -21.8412  -14.1776 C   0  0  2  0  0  0  0  0  0  0  0  0
   22.6074  -20.7510  -14.9426 N   0  0  0  0  0  0  0  0  0  0  0  0
   20.7004  -21.5661  -13.8267 C   0  0  0  0  0  0  0  0  0  0  0  0
   20.3007  -20.4083  -13.5529 O   0  0  0  0  0  0  0  0  0  0  0  0
   19.7689  -22.6236  -13.7998 N   0  0  0  0  0  0  0  0  0  0  0  0
   18.3960  -22.3516  -13.3921 C   0  0  1  0  0  0  0  0  0  0  0  0
   17.8903  -21.3344  -14.3797 C   0  0  0  0  0  0  0  0  0  0  0  0
   17.5366  -21.9411  -15.6690 C   0  0  0  0  0  0  0  0  0  0  0  0
   17.2013  -23.2917  -15.8620 C   0  0  0  0  0  0  0  0  0  0  0  0
   16.9692  -23.5114  -17.1568 N   0  0  0  0  0  0  0  0  0  0  0  0
   17.1269  -22.3782  -17.8677 C   0  0  0  0  0  0  0  0  0  0  0  0
   16.9830  -22.1049  -19.2111 C   0  0  0  0  0  0  0  0  0  0  0  0
   17.1897  -20.8214  -19.6812 C   0  0  0  0  0  0  0  0  0  0  0  0
   17.5380  -19.8544  -18.7594 C   0  0  0  0  0  0  0  0  0  0  0  0
   17.6824  -20.1276  -17.4170 C   0  0  0  0  0  0  0  0  0  0  0  0
   17.4789  -21.4061  -16.9397 C   0  0  0  0  0  0  0  0  0  0  0  0
   17.6049  -23.5708  -13.2605 C   0  0  0  0  0  0  0  0  0  0  0  0
   18.0236  -24.8293  -13.6344 O   0  0  0  0  0  0  0  0  0  0  0  0
   16.4376  -23.5018  -12.7739 O   0  0  0  0  0  0  0  0  0  0  0  0
  2  1  1  0
  3  2  2  0
  4  3  1  0
  5 11  1  0
  5  4  2  0
  6  5  1  0
  7  8  1  6
  7  6  1  0
  9  7  1  0
  9 10  2  0
 11 12  2  0
 12  2  1  0
 14 13  1  0
 15 14  2  0
 16 14  1  0
 16 17  1  0
 18 17  1  1
 18 19  1  0
 18 20  1  0
 19  9  1  0
 20 21  2  0
 20 22  1  0
 22 23  1  0
 23 34  1  0
 24 25  1  0
 23 24  1  6
 25 33  1  0
 25 26  2  0
 26 27  1  0
 28 27  1  0
 28 29  2  0
 30 29  1  0
 31 30  2  0
 32 31  1  0
 32 33  2  0
 33 28  1  0
 34 36  2  0
 34 35  1  0
M  END
$$$$
