KYK.pdb
     RDKit          3D

 31 31  0  0  1  0  0  0  0  0999 V2000
    8.1897  -17.7676   17.1325 N   0  0  0  0  0  0  0  0  0  0  0  0
    8.0280  -18.2989   18.4446 C   0  0  1  0  0  0  0  0  0  0  0  0
    8.1091  -19.7830   18.4984 C   0  0  0  0  0  0  0  0  0  0  0  0
    7.8994  -20.4854   17.2012 C   0  0  0  0  0  0  0  0  0  0  0  0
    7.9638  -21.9733   17.2371 C   0  0  0  0  0  0  0  0  0  0  0  0
    7.8575  -22.4773   15.7875 C   0  0  0  0  0  0  0  0  0  0  0  0
    7.9556  -23.9240   15.8045 N   0  0  0  0  0  0  0  0  0  0  0  0
    8.9457  -17.6344   19.4055 C   0  0  0  0  0  0  0  0  0  0  0  0
   10.1039  -17.3600   19.0166 O   0  0  0  0  0  0  0  0  0  0  0  0
    7.3452  -11.3779   18.5127 O   0  0  0  0  0  0  0  0  0  0  0  0
    7.7012  -12.3549   19.4423 C   0  0  0  0  0  0  0  0  0  0  0  0
    6.7569  -13.1795   20.0157 C   0  0  0  0  0  0  0  0  0  0  0  0
    7.1247  -14.1397   20.9325 C   0  0  0  0  0  0  0  0  0  0  0  0
    8.4558  -14.3331   21.3304 C   0  0  0  0  0  0  0  0  0  0  0  0
    8.7345  -15.3980   22.3151 C   0  0  0  0  0  0  0  0  0  0  0  0
    9.3577  -16.6399   21.7109 C   0  0  2  0  0  0  0  0  0  0  0  0
    8.5656  -17.3039   20.7274 N   0  0  0  0  0  0  0  0  0  0  0  0
    9.9090  -17.5121   22.7652 C   0  0  0  0  0  0  0  0  0  0  0  0
    9.0657  -18.2249   23.3940 O   0  0  0  0  0  0  0  0  0  0  0  0
    9.3846  -13.5057   20.7515 C   0  0  0  0  0  0  0  0  0  0  0  0
    9.0140  -12.5277   19.8186 C   0  0  0  0  0  0  0  0  0  0  0  0
   11.2821  -17.5796   23.0863 N   0  0  0  0  0  0  0  0  0  0  0  0
   11.7425  -18.5354   24.0736 C   0  0  1  0  0  0  0  0  0  0  0  0
   13.1336  -18.9363   23.7248 C   0  0  0  0  0  0  0  0  0  0  0  0
   13.7701  -19.8983   24.6684 C   0  0  0  0  0  0  0  0  0  0  0  0
   15.1409  -20.2991   24.1619 C   0  0  0  0  0  0  0  0  0  0  0  0
   15.8070  -21.2762   25.1302 C   0  0  0  0  0  0  0  0  0  0  0  0
   17.1287  -21.5475   24.5642 N   0  0  0  0  0  0  0  0  0  0  0  0
   11.6108  -17.9192   25.4191 C   0  0  0  0  0  0  0  0  0  0  0  0
   11.8616  -18.6317   26.4203 O   0  0  0  0  0  0  0  0  0  0  0  0
   11.2284  -16.6123   25.6383 O   0  0  0  0  0  0  0  0  0  0  0  0
  2  1  1  6
  3  2  1  0
  4  3  1  0
  5  4  1  0
  6  5  1  0
  7  6  1  0
  8  2  1  0
  8  9  2  0
 10 11  1  0
 11 12  2  0
 12 13  1  0
 14 13  2  0
 14 15  1  0
 16 15  1  1
 16 17  1  0
 17  8  1  0
 18 16  1  0
 19 18  2  0
 20 14  1  0
 21 11  1  0
 21 20  2  0
 22 18  1  0
 23 24  1  6
 23 22  1  0
 24 25  1  0
 25 26  1  0
 26 27  1  0
 27 28  1  0
 29 23  1  0
 30 29  2  0
 31 29  1  0
M  END
$$$$
