KYK.pdb
     RDKit          3D

 31 31  0  0  1  0  0  0  0  0999 V2000
    7.7889  -16.2008   18.9737 N   0  0  0  0  0  0  0  0  0  0  0  0
    9.0881  -15.6791   19.2379 C   0  0  1  0  0  0  0  0  0  0  0  0
    9.5082  -14.6199   18.2820 C   0  0  0  0  0  0  0  0  0  0  0  0
    8.9410  -14.7320   16.9088 C   0  0  0  0  0  0  0  0  0  0  0  0
    8.1082  -13.5883   16.4421 C   0  0  0  0  0  0  0  0  0  0  0  0
    7.6702  -13.8919   14.9990 C   0  0  0  0  0  0  0  0  0  0  0  0
    8.7595  -14.5785   14.3320 N   0  0  0  0  0  0  0  0  0  0  0  0
    9.2157  -15.2604   20.6576 C   0  0  0  0  0  0  0  0  0  0  0  0
   10.3681  -15.1385   21.1320 O   0  0  0  0  0  0  0  0  0  0  0  0
    7.0823  -12.8044   28.9720 O   0  0  0  0  0  0  0  0  0  0  0  0
    7.0260  -13.0970   27.6093 C   0  0  0  0  0  0  0  0  0  0  0  0
    7.5335  -12.2290   26.6663 C   0  0  0  0  0  0  0  0  0  0  0  0
    7.4701  -12.5326   25.3240 C   0  0  0  0  0  0  0  0  0  0  0  0
    6.8968  -13.7196   24.8447 C   0  0  0  0  0  0  0  0  0  0  0  0
    6.8906  -13.9433   23.3849 C   0  0  0  0  0  0  0  0  0  0  0  0
    8.1112  -14.6828   22.8757 C   0  0  2  0  0  0  0  0  0  0  0  0
    8.0982  -14.9972   21.4841 N   0  0  0  0  0  0  0  0  0  0  0  0
    8.4501  -15.8066   23.7692 C   0  0  0  0  0  0  0  0  0  0  0  0
    7.6347  -16.7813   23.7701 O   0  0  0  0  0  0  0  0  0  0  0  0
    6.3961  -14.5740   25.7945 C   0  0  0  0  0  0  0  0  0  0  0  0
    6.4588  -14.2682   27.1607 C   0  0  0  0  0  0  0  0  0  0  0  0
    9.5995  -15.8360   24.5884 N   0  0  0  0  0  0  0  0  0  0  0  0
    9.9309  -17.0437   25.3176 C   0  0  1  0  0  0  0  0  0  0  0  0
   11.1283  -17.6608   24.6828 C   0  0  0  0  0  0  0  0  0  0  0  0
   11.2224  -19.1421   24.8165 C   0  0  0  0  0  0  0  0  0  0  0  0
   12.4748  -19.6510   24.1317 C   0  0  0  0  0  0  0  0  0  0  0  0
   12.5473  -21.1758   24.2084 C   0  0  0  0  0  0  0  0  0  0  0  0
   13.6587  -21.5585   23.3372 N   0  0  0  0  0  0  0  0  0  0  0  0
   10.1203  -16.6901   26.7482 C   0  0  0  0  0  0  0  0  0  0  0  0
   10.5045  -15.5280   27.0218 O   0  0  0  0  0  0  0  0  0  0  0  0
    9.9017  -17.5596   27.7962 O   0  0  0  0  0  0  0  0  0  0  0  0
  2  1  1  6
  3  2  1  0
  4  3  1  0
  5  4  1  0
  6  5  1  0
  7  6  1  0
  8  2  1  0
  8  9  2  0
 10 11  1  0
 11 12  2  0
 12 13  1  0
 14 13  2  0
 14 15  1  0
 16 15  1  1
 16 17  1  0
 17  8  1  0
 18 16  1  0
 19 18  2  0
 20 14  1  0
 21 11  1  0
 21 20  2  0
 22 18  1  0
 23 24  1  6
 23 22  1  0
 24 25  1  0
 25 26  1  0
 26 27  1  0
 27 28  1  0
 29 23  1  0
 30 29  2  0
 31 29  1  0
M  END
$$$$
