KYK.pdb
     RDKit          3D

 31 31  0  0  1  0  0  0  0  0999 V2000
   11.1299  -17.0852   19.9503 N   0  0  0  0  0  0  0  0  0  0  0  0
    9.8066  -17.0710   20.4780 C   0  0  1  0  0  0  0  0  0  0  0  0
    9.2137  -18.4264   20.6310 C   0  0  0  0  0  0  0  0  0  0  0  0
    9.5114  -19.3858   19.5306 C   0  0  0  0  0  0  0  0  0  0  0  0
    8.7690  -20.6771   19.5604 C   0  0  0  0  0  0  0  0  0  0  0  0
    9.2209  -21.5001   18.3418 C   0  0  0  0  0  0  0  0  0  0  0  0
    8.4439  -22.7241   18.3108 N   0  0  0  0  0  0  0  0  0  0  0  0
    9.7386  -16.2661   21.7249 C   0  0  0  0  0  0  0  0  0  0  0  0
   10.6918  -16.3535   22.5322 O   0  0  0  0  0  0  0  0  0  0  0  0
    6.3648  -11.3550   28.3534 O   0  0  0  0  0  0  0  0  0  0  0  0
    6.5624  -11.9584   27.1115 C   0  0  0  0  0  0  0  0  0  0  0  0
    7.6154  -11.5993   26.2974 C   0  0  0  0  0  0  0  0  0  0  0  0
    7.7968  -12.2047   25.0733 C   0  0  0  0  0  0  0  0  0  0  0  0
    6.9384  -13.2034   24.5903 C   0  0  0  0  0  0  0  0  0  0  0  0
    7.2341  -13.7875   23.2665 C   0  0  0  0  0  0  0  0  0  0  0  0
    8.3805  -14.7783   23.2790 C   0  0  2  0  0  0  0  0  0  0  0  0
    8.6512  -15.4148   22.0312 N   0  0  0  0  0  0  0  0  0  0  0  0
    8.2712  -15.6872   24.4358 C   0  0  0  0  0  0  0  0  0  0  0  0
    8.3251  -15.1384   25.5807 O   0  0  0  0  0  0  0  0  0  0  0  0
    5.8951  -13.5507   25.4111 C   0  0  0  0  0  0  0  0  0  0  0  0
    5.7075  -12.9368   26.6568 C   0  0  0  0  0  0  0  0  0  0  0  0
    8.1154  -17.0856   24.3204 N   0  0  0  0  0  0  0  0  0  0  0  0
    7.9853  -17.8947   25.5156 C   0  0  1  0  0  0  0  0  0  0  0  0
    7.3106  -19.1700   25.1471 C   0  0  0  0  0  0  0  0  0  0  0  0
    7.2023  -20.1693   26.2474 C   0  0  0  0  0  0  0  0  0  0  0  0
    6.4818  -21.4097   25.7591 C   0  0  0  0  0  0  0  0  0  0  0  0
    6.2561  -22.3885   26.9110 C   0  0  0  0  0  0  0  0  0  0  0  0
    5.5163  -23.5101   26.3316 N   0  0  0  0  0  0  0  0  0  0  0  0
    9.3357  -18.0750   26.1085 C   0  0  0  0  0  0  0  0  0  0  0  0
   10.3040  -18.2400   25.3289 O   0  0  0  0  0  0  0  0  0  0  0  0
    9.5928  -18.0740   27.4636 O   0  0  0  0  0  0  0  0  0  0  0  0
  2  1  1  1
  3  2  1  0
  4  3  1  0
  5  4  1  0
  6  5  1  0
  7  6  1  0
  8  2  1  0
  8  9  2  0
 10 11  1  0
 11 12  2  0
 12 13  1  0
 14 13  2  0
 14 15  1  0
 16 15  1  6
 16 17  1  0
 17  8  1  0
 18 16  1  0
 19 18  2  0
 20 14  1  0
 21 11  1  0
 21 20  2  0
 22 18  1  0
 23 24  1  6
 23 22  1  0
 24 25  1  0
 25 26  1  0
 26 27  1  0
 27 28  1  0
 29 23  1  0
 30 29  2  0
 31 29  1  0
M  END
$$$$
