KYK.pdb
     RDKit          3D

 31 31  0  0  1  0  0  0  0  0999 V2000
   10.3281  -16.9272   19.0603 N   0  0  0  0  0  0  0  0  0  0  0  0
    9.0875  -16.8882   19.7598 C   0  0  1  0  0  0  0  0  0  0  0  0
    8.4279  -18.2164   19.8734 C   0  0  0  0  0  0  0  0  0  0  0  0
    8.6468  -19.1427   18.7271 C   0  0  0  0  0  0  0  0  0  0  0  0
    7.4432  -19.8545   18.2132 C   0  0  0  0  0  0  0  0  0  0  0  0
    7.8747  -20.6625   16.9772 C   0  0  0  0  0  0  0  0  0  0  0  0
    6.7209  -21.3940   16.4911 N   0  0  0  0  0  0  0  0  0  0  0  0
    9.2352  -16.2020   21.0691 C   0  0  0  0  0  0  0  0  0  0  0  0
   10.3560  -16.2368   21.6265 O   0  0  0  0  0  0  0  0  0  0  0  0
    7.2131  -11.7276   28.5163 O   0  0  0  0  0  0  0  0  0  0  0  0
    7.1511  -12.2903   27.2416 C   0  0  0  0  0  0  0  0  0  0  0  0
    7.9116  -11.7997   26.2017 C   0  0  0  0  0  0  0  0  0  0  0  0
    7.8389  -12.3665   24.9481 C   0  0  0  0  0  0  0  0  0  0  0  0
    7.0034  -13.4556   24.6593 C   0  0  0  0  0  0  0  0  0  0  0  0
    7.0123  -13.9865   23.2812 C   0  0  0  0  0  0  0  0  0  0  0  0
    8.1919  -14.8896   22.9829 C   0  0  2  0  0  0  0  0  0  0  0  0
    8.1707  -15.5189   21.7027 N   0  0  0  0  0  0  0  0  0  0  0  0
    8.4593  -15.7904   24.1200 C   0  0  0  0  0  0  0  0  0  0  0  0
    7.5311  -16.6077   24.4118 O   0  0  0  0  0  0  0  0  0  0  0  0
    6.2526  -13.9333   25.7037 C   0  0  0  0  0  0  0  0  0  0  0  0
    6.3240  -13.3591   26.9800 C   0  0  0  0  0  0  0  0  0  0  0  0
    9.6592  -15.7770   24.8638 N   0  0  0  0  0  0  0  0  0  0  0  0
    9.8512  -16.7345   25.9345 C   0  0  1  0  0  0  0  0  0  0  0  0
   10.8937  -17.7095   25.5099 C   0  0  0  0  0  0  0  0  0  0  0  0
   10.5933  -18.4490   24.2514 C   0  0  0  0  0  0  0  0  0  0  0  0
   11.7204  -19.4082   23.9261 C   0  0  0  0  0  0  0  0  0  0  0  0
   11.4900  -20.0665   22.5661 C   0  0  0  0  0  0  0  0  0  0  0  0
   12.6219  -20.9734   22.3741 N   0  0  0  0  0  0  0  0  0  0  0  0
   10.1900  -15.9893   27.1743 C   0  0  0  0  0  0  0  0  0  0  0  0
   10.3175  -16.6420   28.2376 O   0  0  0  0  0  0  0  0  0  0  0  0
   10.3723  -14.6234   27.2314 O   0  0  0  0  0  0  0  0  0  0  0  0
  2  1  1  1
  3  2  1  0
  4  3  1  0
  5  4  1  0
  6  5  1  0
  7  6  1  0
  8  2  1  0
  8  9  2  0
 10 11  1  0
 11 12  2  0
 12 13  1  0
 14 13  2  0
 14 15  1  0
 16 15  1  1
 16 17  1  0
 17  8  1  0
 18 16  1  0
 19 18  2  0
 20 14  1  0
 21 11  1  0
 21 20  2  0
 22 18  1  0
 23 24  1  6
 23 22  1  0
 24 25  1  0
 25 26  1  0
 26 27  1  0
 27 28  1  0
 29 23  1  0
 30 29  2  0
 31 29  1  0
M  END
$$$$
