CEC.pdb
     RDKit          3D

 22 21  0  0  1  0  0  0  0  0999 V2000
    6.6249  -15.8641   20.7399 N   0  0  0  0  0  0  0  0  0  0  0  0
    7.8436  -15.2088   21.1683 C   0  0  1  0  0  0  0  0  0  0  0  0
    7.5627  -13.8002   21.4883 C   0  0  0  0  0  0  0  0  0  0  0  0
    6.8180  -13.6095   23.1148 S   0  0  0  0  0  0  0  0  0  0  0  0
    8.5414  -15.9841   22.2104 C   0  0  0  0  0  0  0  0  0  0  0  0
    7.8316  -16.6113   23.0273 O   0  0  0  0  0  0  0  0  0  0  0  0
    9.9490  -16.0448   22.3194 N   0  0  0  0  0  0  0  0  0  0  0  0
   10.7303  -16.6251   23.3548 C   0  0  1  0  0  0  0  0  0  0  0  0
   12.0791  -17.1596   22.9570 C   0  0  0  0  0  0  0  0  0  0  0  0
   12.8414  -17.8593   24.0247 C   0  0  0  0  0  0  0  0  0  0  0  0
   14.1378  -18.3982   23.5720 C   0  0  0  0  0  0  0  0  0  0  0  0
   14.8903  -18.9583   24.3910 O   0  0  0  0  0  0  0  0  0  0  0  0
   10.8018  -15.8772   24.5917 C   0  0  0  0  0  0  0  0  0  0  0  0
   10.8275  -14.5937   24.5820 O   0  0  0  0  0  0  0  0  0  0  0  0
   14.5219  -18.2878   22.2569 O   0  0  0  0  0  0  0  0  0  0  0  0
   10.8483  -16.4408   25.8948 N   0  0  0  0  0  0  0  0  0  0  0  0
   10.8931  -15.6170   27.0986 C   0  0  1  0  0  0  0  0  0  0  0  0
    9.8009  -14.5896   27.1489 C   0  0  0  0  0  0  0  0  0  0  0  0
    9.8487  -13.6161   28.6733 S   0  0  0  0  0  0  0  0  0  0  0  0
   10.8790  -16.4937   28.3057 C   0  0  0  0  0  0  0  0  0  0  0  0
   10.5491  -17.6961   28.2818 O   0  0  0  0  0  0  0  0  0  0  0  0
   11.2568  -15.9296   29.5237 O   0  0  0  0  0  0  0  0  0  0  0  0
  2  1  1  1
  2  5  1  0
  2  3  1  0
  3  4  1  0
  5  7  1  0
  6  5  2  0
  7  8  1  0
  8 13  1  0
  9 10  1  0
  8  9  1  6
 10 11  1  0
 11 15  1  0
 11 12  2  0
 13 14  2  0
 13 16  1  0
 16 17  1  0
 17 18  1  1
 17 20  1  0
 19 18  1  0
 20 22  1  0
 21 20  2  0
M  END
$$$$
