CEC.pdb
     RDKit          3D

 22 21  0  0  1  0  0  0  0  0999 V2000
    6.7713  -15.7927   20.0075 N   0  0  0  0  0  0  0  0  0  0  0  0
    7.5793  -14.9676   20.8819 C   0  0  1  0  0  0  0  0  0  0  0  0
    7.3973  -13.5496   20.5330 C   0  0  0  0  0  0  0  0  0  0  0  0
    8.3951  -13.0661   19.1164 S   0  0  0  0  0  0  0  0  0  0  0  0
    7.3786  -15.3178   22.3000 C   0  0  0  0  0  0  0  0  0  0  0  0
    6.2617  -15.0583   22.7999 O   0  0  0  0  0  0  0  0  0  0  0  0
    8.3763  -15.9214   23.0981 N   0  0  0  0  0  0  0  0  0  0  0  0
    8.2889  -16.3424   24.4525 C   0  0  1  0  0  0  0  0  0  0  0  0
    8.2268  -17.8265   24.6903 C   0  0  0  0  0  0  0  0  0  0  0  0
    7.0708  -18.5345   24.0795 C   0  0  0  0  0  0  0  0  0  0  0  0
    7.0889  -19.9940   24.2929 C   0  0  0  0  0  0  0  0  0  0  0  0
    7.5803  -20.7363   23.4222 O   0  0  0  0  0  0  0  0  0  0  0  0
    9.1945  -15.6961   25.3781 C   0  0  0  0  0  0  0  0  0  0  0  0
   10.4593  -15.6837   25.1582 O   0  0  0  0  0  0  0  0  0  0  0  0
    6.5691  -20.5409   25.4418 O   0  0  0  0  0  0  0  0  0  0  0  0
    8.8152  -15.0325   26.5755 N   0  0  0  0  0  0  0  0  0  0  0  0
    9.7934  -14.4310   27.4761 C   0  0  1  0  0  0  0  0  0  0  0  0
    9.2791  -13.2024   28.1668 C   0  0  0  0  0  0  0  0  0  0  0  0
    8.1921  -12.2243   27.1012 S   0  0  0  0  0  0  0  0  0  0  0  0
   10.2682  -15.4531   28.4537 C   0  0  0  0  0  0  0  0  0  0  0  0
    9.7947  -16.6039   28.5341 O   0  0  0  0  0  0  0  0  0  0  0  0
   11.2986  -15.0934   29.3218 O   0  0  0  0  0  0  0  0  0  0  0  0
  2  1  1  6
  2  5  1  0
  2  3  1  0
  3  4  1  0
  5  7  1  0
  6  5  2  0
  7  8  1  0
  8 13  1  0
  9 10  1  0
  8  9  1  6
 10 11  1  0
 11 15  1  0
 11 12  2  0
 13 14  2  0
 13 16  1  0
 16 17  1  0
 17 18  1  1
 17 20  1  0
 19 18  1  0
 20 22  1  0
 21 20  2  0
M  END
$$$$
