CEC.pdb
     RDKit          3D

 22 21  0  0  1  0  0  0  0  0999 V2000
    7.5626  -15.4891   17.9983 N   0  0  0  0  0  0  0  0  0  0  0  0
    8.2846  -14.9130   19.1141 C   0  0  1  0  0  0  0  0  0  0  0  0
    7.6570  -13.6412   19.5069 C   0  0  0  0  0  0  0  0  0  0  0  0
    8.3810  -12.9626   21.0074 S   0  0  0  0  0  0  0  0  0  0  0  0
    8.4916  -15.8951   20.1941 C   0  0  0  0  0  0  0  0  0  0  0  0
    7.4731  -16.4423   20.6717 O   0  0  0  0  0  0  0  0  0  0  0  0
    9.7670  -16.2346   20.6991 N   0  0  0  0  0  0  0  0  0  0  0  0
   10.0901  -17.1404   21.7453 C   0  0  1  0  0  0  0  0  0  0  0  0
   11.2784  -18.0337   21.5150 C   0  0  0  0  0  0  0  0  0  0  0  0
   12.6076  -17.3684   21.5488 C   0  0  0  0  0  0  0  0  0  0  0  0
   13.7308  -18.2705   21.2314 C   0  0  0  0  0  0  0  0  0  0  0  0
   13.8839  -18.6739   20.0633 O   0  0  0  0  0  0  0  0  0  0  0  0
   10.0942  -16.5896   23.0836 C   0  0  0  0  0  0  0  0  0  0  0  0
   10.8008  -15.5554   23.3655 O   0  0  0  0  0  0  0  0  0  0  0  0
   14.6080  -18.6691   22.2116 O   0  0  0  0  0  0  0  0  0  0  0  0
    9.3570  -17.0971   24.1867 N   0  0  0  0  0  0  0  0  0  0  0  0
    9.4359  -16.5014   25.5166 C   0  0  1  0  0  0  0  0  0  0  0  0
    8.2538  -15.6378   25.8451 C   0  0  0  0  0  0  0  0  0  0  0  0
    6.6868  -16.5195   25.6432 S   0  0  0  0  0  0  0  0  0  0  0  0
    9.6327  -17.5743   26.5345 C   0  0  0  0  0  0  0  0  0  0  0  0
    9.5326  -18.7915   26.2827 O   0  0  0  0  0  0  0  0  0  0  0  0
    9.9454  -17.1857   27.8367 O   0  0  0  0  0  0  0  0  0  0  0  0
  2  1  1  6
  2  5  1  0
  2  3  1  0
  3  4  1  0
  5  7  1  0
  6  5  2  0
  7  8  1  0
  8 13  1  0
  9 10  1  0
  8  9  1  6
 10 11  1  0
 11 15  1  0
 11 12  2  0
 13 14  2  0
 13 16  1  0
 16 17  1  0
 17 18  1  1
 17 20  1  0
 19 18  1  0
 20 22  1  0
 21 20  2  0
M  END
$$$$
