CEC.pdb
     RDKit          3D

 22 21  0  0  1  0  0  0  0  0999 V2000
    7.1461  -15.5691   19.1775 N   0  0  0  0  0  0  0  0  0  0  0  0
    8.0885  -14.8424   20.0034 C   0  0  1  0  0  0  0  0  0  0  0  0
    7.7181  -13.4187   20.0425 C   0  0  0  0  0  0  0  0  0  0  0  0
    8.2911  -12.5285   18.5881 S   0  0  0  0  0  0  0  0  0  0  0  0
    8.2861  -15.4975   21.3094 C   0  0  0  0  0  0  0  0  0  0  0  0
    7.2633  -15.7405   21.9872 O   0  0  0  0  0  0  0  0  0  0  0  0
    9.5573  -15.8534   21.8136 N   0  0  0  0  0  0  0  0  0  0  0  0
    9.8811  -16.4060   23.0821 C   0  0  1  0  0  0  0  0  0  0  0  0
   11.0340  -17.3718   23.1176 C   0  0  0  0  0  0  0  0  0  0  0  0
   10.8215  -18.6634   22.4125 C   0  0  0  0  0  0  0  0  0  0  0  0
   11.9873  -19.5658   22.4633 C   0  0  0  0  0  0  0  0  0  0  0  0
   13.0739  -19.1939   21.9820 O   0  0  0  0  0  0  0  0  0  0  0  0
    9.9400  -15.4717   24.1856 C   0  0  0  0  0  0  0  0  0  0  0  0
   10.7131  -14.4478   24.1381 O   0  0  0  0  0  0  0  0  0  0  0  0
   11.8851  -20.8112   23.0358 O   0  0  0  0  0  0  0  0  0  0  0  0
    9.1903  -15.5675   25.3884 N   0  0  0  0  0  0  0  0  0  0  0  0
    9.2640  -14.5533   26.4351 C   0  0  1  0  0  0  0  0  0  0  0  0
    7.9720  -13.8162   26.6316 C   0  0  0  0  0  0  0  0  0  0  0  0
    8.0686  -12.6173   27.9832 S   0  0  0  0  0  0  0  0  0  0  0  0
    9.7392  -15.1775   27.7042 C   0  0  0  0  0  0  0  0  0  0  0  0
    9.9197  -14.5411   28.7612 O   0  0  0  0  0  0  0  0  0  0  0  0
    9.9931  -16.5486   27.6992 O   0  0  0  0  0  0  0  0  0  0  0  0
  2  1  1  1
  2  5  1  0
  2  3  1  0
  3  4  1  0
  5  7  1  0
  6  5  2  0
  7  8  1  0
  8 13  1  0
  9 10  1  0
  8  9  1  6
 10 11  1  0
 11 15  1  0
 11 12  2  0
 13 14  2  0
 13 16  1  0
 16 17  1  0
 17 18  1  1
 17 20  1  0
 19 18  1  0
 20 22  1  0
 21 20  2  0
M  END
$$$$
