CEC.pdb
     RDKit          3D

 22 21  0  0  1  0  0  0  0  0999 V2000
    8.0823  -14.5053   16.3146 N   0  0  0  0  0  0  0  0  0  0  0  0
    8.6270  -13.7950   17.4535 C   0  0  1  0  0  0  0  0  0  0  0  0
    7.5295  -13.2881   18.2927 C   0  0  0  0  0  0  0  0  0  0  0  0
    8.1282  -12.5576   19.8238 S   0  0  0  0  0  0  0  0  0  0  0  0
    9.6604  -14.5868   18.1456 C   0  0  0  0  0  0  0  0  0  0  0  0
    9.4413  -15.8098   18.2907 O   0  0  0  0  0  0  0  0  0  0  0  0
   10.8615  -14.0304   18.6401 N   0  0  0  0  0  0  0  0  0  0  0  0
   11.9553  -14.6962   19.2564 C   0  0  1  0  0  0  0  0  0  0  0  0
   13.3304  -14.2201   18.8751 C   0  0  0  0  0  0  0  0  0  0  0  0
   14.4654  -15.0210   19.4052 C   0  0  0  0  0  0  0  0  0  0  0  0
   15.7876  -14.5464   18.9552 C   0  0  0  0  0  0  0  0  0  0  0  0
   16.8056  -14.8616   19.5993 O   0  0  0  0  0  0  0  0  0  0  0  0
   11.8464  -14.9095   20.6836 C   0  0  0  0  0  0  0  0  0  0  0  0
   11.6160  -13.9278   21.4782 O   0  0  0  0  0  0  0  0  0  0  0  0
   15.9058  -13.7607   17.8336 O   0  0  0  0  0  0  0  0  0  0  0  0
   11.9730  -16.1616   21.3425 N   0  0  0  0  0  0  0  0  0  0  0  0
   11.8392  -16.2975   22.7893 C   0  0  1  0  0  0  0  0  0  0  0  0
   10.4831  -16.7809   23.2115 C   0  0  0  0  0  0  0  0  0  0  0  0
   10.3660  -17.0073   25.0028 S   0  0  0  0  0  0  0  0  0  0  0  0
   12.9240  -17.1787   23.3115 C   0  0  0  0  0  0  0  0  0  0  0  0
   13.3224  -18.2046   22.7251 O   0  0  0  0  0  0  0  0  0  0  0  0
   13.5198  -16.8286   24.5227 O   0  0  0  0  0  0  0  0  0  0  0  0
  2  1  1  6
  2  5  1  0
  2  3  1  0
  3  4  1  0
  5  7  1  0
  6  5  2  0
  7  8  1  0
  8 13  1  0
  9 10  1  0
  8  9  1  1
 10 11  1  0
 11 15  1  0
 11 12  2  0
 13 14  2  0
 13 16  1  0
 16 17  1  0
 17 18  1  6
 17 20  1  0
 19 18  1  0
 20 22  1  0
 21 20  2  0
M  END
$$$$
