WDG.pdb
     RDKit          3D

 27 28  0  0  1  0  0  0  0  0999 V2000
    6.5632  -18.0734   25.0746 N   0  0  0  0  0  0  0  0  0  0  0  0
    7.1897  -16.9700   24.4450 C   0  0  1  0  0  0  0  0  0  0  0  0
    7.9874  -16.1481   25.3952 C   0  0  0  0  0  0  0  0  0  0  0  0
    7.1756  -15.0433   25.9450 C   0  0  0  0  0  0  0  0  0  0  0  0
    6.0850  -15.1782   26.7789 C   0  0  0  0  0  0  0  0  0  0  0  0
    5.6266  -13.9561   27.0923 N   0  0  0  0  0  0  0  0  0  0  0  0
    6.3852  -13.0438   26.4878 C   0  0  0  0  0  0  0  0  0  0  0  0
    6.3072  -11.6554   26.4985 C   0  0  0  0  0  0  0  0  0  0  0  0
    7.2009  -10.8816   25.7853 C   0  0  0  0  0  0  0  0  0  0  0  0
    8.1594  -11.5525   25.0734 C   0  0  0  0  0  0  0  0  0  0  0  0
    8.2631  -12.9239   25.0426 C   0  0  0  0  0  0  0  0  0  0  0  0
    7.3659  -13.6945   25.7597 C   0  0  0  0  0  0  0  0  0  0  0  0
    7.9715  -17.3698   23.2378 C   0  0  0  0  0  0  0  0  0  0  0  0
    8.4999  -18.5107   23.2345 O   0  0  0  0  0  0  0  0  0  0  0  0
    8.1577  -16.5576   22.1031 N   0  0  0  0  0  0  0  0  0  0  0  0
    9.0593  -16.8971   21.0160 C   0  0  1  0  0  0  0  0  0  0  0  0
    8.6409  -16.2773   19.7202 C   0  0  0  0  0  0  0  0  0  0  0  0
    9.4398  -16.6823   18.5501 C   0  0  0  0  0  0  0  0  0  0  0  0
   10.3687  -17.5101   18.6462 O   0  0  0  0  0  0  0  0  0  0  0  0
   10.4455  -16.5801   21.4313 C   0  0  0  0  0  0  0  0  0  0  0  0
   10.9012  -15.3947   21.3208 O   0  0  0  0  0  0  0  0  0  0  0  0
    9.1612  -16.1377   17.3119 O   0  0  0  0  0  0  0  0  0  0  0  0
   11.3481  -17.5372   21.9692 N   0  0  0  0  0  0  0  0  0  0  0  0
   12.6604  -17.1980   22.4794 C   0  0  0  0  0  0  0  0  0  0  0  0
   13.6386  -16.8551   21.4249 C   0  0  0  0  0  0  0  0  0  0  0  0
   13.2943  -16.8978   20.2291 O   0  0  0  0  0  0  0  0  0  0  0  0
   14.9147  -16.4945   21.7824 O   0  0  0  0  0  0  0  0  0  0  0  0
  2  3  1  0
  2  1  1  1
  4  5  2  0
  4  3  1  0
  6  5  1  0
  7 12  2  0
  7  6  1  0
  8  7  1  0
  9 10  1  0
  9  8  2  0
 10 11  2  0
 11 12  1  0
 12  4  1  0
 13  2  1  0
 14 13  2  0
 15 13  1  0
 16 15  1  0
 16 17  1  6
 17 18  1  0
 18 22  1  0
 19 18  2  0
 20 16  1  0
 20 21  2  0
 23 20  1  0
 24 23  1  0
 24 25  1  0
 25 27  1  0
 26 25  2  0
M  END
$$$$
