WDG.pdb
     RDKit          3D

 27 28  0  0  1  0  0  0  0  0999 V2000
    7.4787  -18.0992   24.4205 N   0  0  0  0  0  0  0  0  0  0  0  0
    8.2494  -16.9955   23.9795 C   0  0  1  0  0  0  0  0  0  0  0  0
    8.6433  -16.0925   25.0948 C   0  0  0  0  0  0  0  0  0  0  0  0
    7.5017  -15.2603   25.5261 C   0  0  0  0  0  0  0  0  0  0  0  0
    6.3252  -15.7242   26.0773 C   0  0  0  0  0  0  0  0  0  0  0  0
    5.5408  -14.6746   26.3683 N   0  0  0  0  0  0  0  0  0  0  0  0
    6.1736  -13.5552   26.0223 C   0  0  0  0  0  0  0  0  0  0  0  0
    5.7741  -12.2267   26.1184 C   0  0  0  0  0  0  0  0  0  0  0  0
    6.5899  -11.1997   25.6874 C   0  0  0  0  0  0  0  0  0  0  0  0
    7.8033  -11.5602   25.1644 C   0  0  0  0  0  0  0  0  0  0  0  0
    8.2274  -12.8643   25.0558 C   0  0  0  0  0  0  0  0  0  0  0  0
    7.4067  -13.8894   25.4901 C   0  0  0  0  0  0  0  0  0  0  0  0
    9.4124  -17.4103   23.1406 C   0  0  0  0  0  0  0  0  0  0  0  0
    9.8325  -18.5889   23.2647 O   0  0  0  0  0  0  0  0  0  0  0  0
   10.0710  -16.5728   22.2202 N   0  0  0  0  0  0  0  0  0  0  0  0
   11.2418  -16.9810   21.4635 C   0  0  1  0  0  0  0  0  0  0  0  0
   11.2999  -16.3303   20.1175 C   0  0  0  0  0  0  0  0  0  0  0  0
   10.8598  -17.1792   18.9964 C   0  0  0  0  0  0  0  0  0  0  0  0
   10.4211  -18.3328   19.1815 O   0  0  0  0  0  0  0  0  0  0  0  0
   12.4458  -16.7725   22.3010 C   0  0  0  0  0  0  0  0  0  0  0  0
   13.5968  -17.1257   21.8823 O   0  0  0  0  0  0  0  0  0  0  0  0
   10.9306  -16.6950   17.7049 O   0  0  0  0  0  0  0  0  0  0  0  0
   12.4172  -16.1812   23.5932 N   0  0  0  0  0  0  0  0  0  0  0  0
   13.5793  -16.0833   24.4519 C   0  0  0  0  0  0  0  0  0  0  0  0
   14.7400  -16.8649   23.9740 C   0  0  0  0  0  0  0  0  0  0  0  0
   15.8473  -16.3091   23.8513 O   0  0  0  0  0  0  0  0  0  0  0  0
   14.5773  -18.1949   23.6724 O   0  0  0  0  0  0  0  0  0  0  0  0
  2  3  1  0
  2  1  1  1
  4  5  2  0
  4  3  1  0
  6  5  1  0
  7 12  2  0
  7  6  1  0
  8  7  1  0
  9 10  1  0
  9  8  2  0
 10 11  2  0
 11 12  1  0
 12  4  1  0
 13  2  1  0
 14 13  2  0
 15 13  1  0
 16 15  1  0
 16 17  1  6
 17 18  1  0
 18 22  1  0
 19 18  2  0
 20 16  1  0
 20 21  2  0
 23 20  1  0
 24 23  1  0
 24 25  1  0
 25 27  1  0
 26 25  2  0
M  END
$$$$
