WDG.pdb
     RDKit          3D

 27 28  0  0  1  0  0  0  0  0999 V2000
    7.2092  -17.9621   24.8195 N   0  0  0  0  0  0  0  0  0  0  0  0
    7.8919  -16.9046   24.1696 C   0  0  1  0  0  0  0  0  0  0  0  0
    8.4866  -15.9346   25.1289 C   0  0  0  0  0  0  0  0  0  0  0  0
    7.4507  -15.0370   25.6795 C   0  0  0  0  0  0  0  0  0  0  0  0
    6.3581  -15.4253   26.4267 C   0  0  0  0  0  0  0  0  0  0  0  0
    5.6605  -14.3320   26.7729 N   0  0  0  0  0  0  0  0  0  0  0  0
    6.2680  -13.2576   26.2730 C   0  0  0  0  0  0  0  0  0  0  0  0
    5.9298  -11.9111   26.3532 C   0  0  0  0  0  0  0  0  0  0  0  0
    6.7022  -10.9406   25.7471 C   0  0  0  0  0  0  0  0  0  0  0  0
    7.8097  -11.3749   25.0686 C   0  0  0  0  0  0  0  0  0  0  0  0
    8.1712  -12.6986   24.9711 C   0  0  0  0  0  0  0  0  0  0  0  0
    7.3944  -13.6670   25.5811 C   0  0  0  0  0  0  0  0  0  0  0  0
    8.8808  -17.3958   23.1649 C   0  0  0  0  0  0  0  0  0  0  0  0
    9.4088  -18.5192   23.3647 O   0  0  0  0  0  0  0  0  0  0  0  0
    9.2625  -16.6878   22.0095 N   0  0  0  0  0  0  0  0  0  0  0  0
   10.2997  -17.1421   21.0996 C   0  0  1  0  0  0  0  0  0  0  0  0
   10.1444  -16.5604   19.7299 C   0  0  0  0  0  0  0  0  0  0  0  0
   11.1980  -16.9368   18.7710 C   0  0  0  0  0  0  0  0  0  0  0  0
   11.6579  -18.0960   18.7251 O   0  0  0  0  0  0  0  0  0  0  0  0
   11.6205  -16.9005   21.7254 C   0  0  0  0  0  0  0  0  0  0  0  0
   12.6942  -17.2330   21.1242 O   0  0  0  0  0  0  0  0  0  0  0  0
   11.6954  -15.9901   17.8971 O   0  0  0  0  0  0  0  0  0  0  0  0
   11.7924  -16.2980   23.0012 N   0  0  0  0  0  0  0  0  0  0  0  0
   13.0883  -15.9954   23.5727 C   0  0  0  0  0  0  0  0  0  0  0  0
   13.6385  -17.0833   24.4095 C   0  0  0  0  0  0  0  0  0  0  0  0
   13.0727  -18.1923   24.4266 O   0  0  0  0  0  0  0  0  0  0  0  0
   14.7675  -16.8522   25.1566 O   0  0  0  0  0  0  0  0  0  0  0  0
  2  3  1  0
  2  1  1  1
  4  5  2  0
  4  3  1  0
  6  5  1  0
  7 12  2  0
  7  6  1  0
  8  7  1  0
  9 10  1  0
  9  8  2  0
 10 11  2  0
 11 12  1  0
 12  4  1  0
 13  2  1  0
 14 13  2  0
 15 13  1  0
 16 15  1  0
 16 17  1  6
 17 18  1  0
 18 22  1  0
 19 18  2  0
 20 16  1  0
 20 21  2  0
 23 20  1  0
 24 23  1  0
 24 25  1  0
 25 27  1  0
 26 25  2  0
M  END
$$$$
