WDG.pdb
     RDKit          3D

 27 28  0  0  1  0  0  0  0  0999 V2000
    6.6640  -17.5322   24.3495 N   0  0  0  0  0  0  0  0  0  0  0  0
    7.7952  -16.6924   24.2023 C   0  0  1  0  0  0  0  0  0  0  0  0
    8.2743  -16.1474   25.5016 C   0  0  0  0  0  0  0  0  0  0  0  0
    7.2920  -15.2016   26.0696 C   0  0  0  0  0  0  0  0  0  0  0  0
    6.1367  -15.5422   26.7422 C   0  0  0  0  0  0  0  0  0  0  0  0
    5.5171  -14.4179   27.1341 N   0  0  0  0  0  0  0  0  0  0  0  0
    6.2349  -13.3695   26.7354 C   0  0  0  0  0  0  0  0  0  0  0  0
    6.0067  -12.0070   26.8944 C   0  0  0  0  0  0  0  0  0  0  0  0
    6.8850  -11.0691   26.3895 C   0  0  0  0  0  0  0  0  0  0  0  0
    7.9833  -11.5521   25.7291 C   0  0  0  0  0  0  0  0  0  0  0  0
    8.2374  -12.8928   25.5552 C   0  0  0  0  0  0  0  0  0  0  0  0
    7.3547  -13.8284   26.0640 C   0  0  0  0  0  0  0  0  0  0  0  0
    8.8867  -17.3380   23.4148 C   0  0  0  0  0  0  0  0  0  0  0  0
    9.0518  -18.5770   23.5505 O   0  0  0  0  0  0  0  0  0  0  0  0
    9.7437  -16.6551   22.5309 N   0  0  0  0  0  0  0  0  0  0  0  0
   11.0683  -17.1319   22.1733 C   0  0  1  0  0  0  0  0  0  0  0  0
   11.6792  -16.3284   21.0688 C   0  0  0  0  0  0  0  0  0  0  0  0
   12.7734  -16.9981   20.3439 C   0  0  0  0  0  0  0  0  0  0  0  0
   13.4938  -17.8564   20.8933 O   0  0  0  0  0  0  0  0  0  0  0  0
   11.8915  -17.2155   23.4022 C   0  0  0  0  0  0  0  0  0  0  0  0
   12.6380  -16.2429   23.7507 O   0  0  0  0  0  0  0  0  0  0  0  0
   13.0157  -16.6746   19.0234 O   0  0  0  0  0  0  0  0  0  0  0  0
   11.9140  -18.3461   24.2632 N   0  0  0  0  0  0  0  0  0  0  0  0
   12.7409  -18.4297   25.4491 C   0  0  0  0  0  0  0  0  0  0  0  0
   13.8186  -19.4377   25.3535 C   0  0  0  0  0  0  0  0  0  0  0  0
   14.7773  -19.2420   24.5836 O   0  0  0  0  0  0  0  0  0  0  0  0
   13.7442  -20.5767   26.1174 O   0  0  0  0  0  0  0  0  0  0  0  0
  2  3  1  0
  2  1  1  1
  4  5  2  0
  4  3  1  0
  6  5  1  0
  7 12  2  0
  7  6  1  0
  8  7  1  0
  9 10  1  0
  9  8  2  0
 10 11  2  0
 11 12  1  0
 12  4  1  0
 13  2  1  0
 14 13  2  0
 15 13  1  0
 16 15  1  0
 16 17  1  6
 17 18  1  0
 18 22  1  0
 19 18  2  0
 20 16  1  0
 20 21  2  0
 23 20  1  0
 24 23  1  0
 24 25  1  0
 25 27  1  0
 26 25  2  0
M  END
$$$$
