WDG.pdb
     RDKit          3D

 27 28  0  0  1  0  0  0  0  0999 V2000
    7.8877  -17.5382   23.0485 N   0  0  0  0  0  0  0  0  0  0  0  0
    7.5752  -17.0407   24.3374 C   0  0  1  0  0  0  0  0  0  0  0  0
    6.3682  -16.1702   24.3359 C   0  0  0  0  0  0  0  0  0  0  0  0
    6.7449  -14.7489   24.1943 C   0  0  0  0  0  0  0  0  0  0  0  0
    7.1343  -14.1279   23.0256 C   0  0  0  0  0  0  0  0  0  0  0  0
    7.3676  -12.8312   23.2820 N   0  0  0  0  0  0  0  0  0  0  0  0
    7.1418  -12.6005   24.5739 C   0  0  0  0  0  0  0  0  0  0  0  0
    7.2507  -11.4277   25.3132 C   0  0  0  0  0  0  0  0  0  0  0  0
    6.9739  -11.4044   26.6656 C   0  0  0  0  0  0  0  0  0  0  0  0
    6.5898  -12.5905   27.2324 C   0  0  0  0  0  0  0  0  0  0  0  0
    6.4724  -13.7667   26.5288 C   0  0  0  0  0  0  0  0  0  0  0  0
    6.7499  -13.7845   25.1739 C   0  0  0  0  0  0  0  0  0  0  0  0
    7.5001  -18.1219   25.3639 C   0  0  0  0  0  0  0  0  0  0  0  0
    6.3811  -18.3538   25.8884 O   0  0  0  0  0  0  0  0  0  0  0  0
    8.5955  -18.8997   25.7847 N   0  0  0  0  0  0  0  0  0  0  0  0
    8.5475  -19.7969   26.9260 C   0  0  1  0  0  0  0  0  0  0  0  0
    8.6451  -21.2336   26.5199 C   0  0  0  0  0  0  0  0  0  0  0  0
    8.5849  -22.1998   27.6309 C   0  0  0  0  0  0  0  0  0  0  0  0
    9.5419  -22.9568   27.8929 O   0  0  0  0  0  0  0  0  0  0  0  0
    9.5642  -19.3655   27.9133 C   0  0  0  0  0  0  0  0  0  0  0  0
    9.5409  -19.8128   29.1067 O   0  0  0  0  0  0  0  0  0  0  0  0
    7.4455  -22.2769   28.4074 O   0  0  0  0  0  0  0  0  0  0  0  0
   10.6125  -18.4513   27.6204 N   0  0  0  0  0  0  0  0  0  0  0  0
   11.6281  -18.0681   28.5791 C   0  0  0  0  0  0  0  0  0  0  0  0
   12.7705  -19.0048   28.6425 C   0  0  0  0  0  0  0  0  0  0  0  0
   12.7858  -20.0070   27.9037 O   0  0  0  0  0  0  0  0  0  0  0  0
   13.7987  -18.7538   29.5177 O   0  0  0  0  0  0  0  0  0  0  0  0
  2  3  1  0
  2  1  1  6
  4  5  2  0
  4  3  1  0
  6  5  1  0
  7 12  2  0
  7  6  1  0
  8  7  1  0
  9 10  1  0
  9  8  2  0
 10 11  2  0
 11 12  1  0
 12  4  1  0
 13  2  1  0
 14 13  2  0
 15 13  1  0
 16 15  1  0
 16 17  1  6
 17 18  1  0
 18 22  1  0
 19 18  2  0
 20 16  1  0
 20 21  2  0
 23 20  1  0
 24 23  1  0
 24 25  1  0
 25 27  1  0
 26 25  2  0
M  END
$$$$
