WDG.pdb
     RDKit          3D

 27 28  0  0  1  0  0  0  0  0999 V2000
    6.9651  -17.3688   23.6498 N   0  0  0  0  0  0  0  0  0  0  0  0
    8.1161  -16.5577   23.4948 C   0  0  1  0  0  0  0  0  0  0  0  0
    8.6309  -16.0436   24.7930 C   0  0  0  0  0  0  0  0  0  0  0  0
    7.6139  -15.2141   25.4709 C   0  0  0  0  0  0  0  0  0  0  0  0
    6.5168  -15.6841   26.1625 C   0  0  0  0  0  0  0  0  0  0  0  0
    5.8409  -14.6383   26.6636 N   0  0  0  0  0  0  0  0  0  0  0  0
    6.4667  -13.5152   26.3165 C   0  0  0  0  0  0  0  0  0  0  0  0
    6.1541  -12.1876   26.5877 C   0  0  0  0  0  0  0  0  0  0  0  0
    6.9424  -11.1554   26.1199 C   0  0  0  0  0  0  0  0  0  0  0  0
    8.0393  -11.5096   25.3803 C   0  0  0  0  0  0  0  0  0  0  0  0
    8.3756  -12.8126   25.0949 C   0  0  0  0  0  0  0  0  0  0  0  0
    7.5830  -13.8432   25.5669 C   0  0  0  0  0  0  0  0  0  0  0  0
    9.1767  -17.2215   22.6807 C   0  0  0  0  0  0  0  0  0  0  0  0
    9.1798  -18.4780   22.6367 O   0  0  0  0  0  0  0  0  0  0  0  0
   10.1733  -16.5375   21.9589 N   0  0  0  0  0  0  0  0  0  0  0  0
   11.3614  -17.1829   21.4282 C   0  0  1  0  0  0  0  0  0  0  0  0
   12.0805  -16.3192   20.4406 C   0  0  0  0  0  0  0  0  0  0  0  0
   11.4592  -16.2500   19.1062 C   0  0  0  0  0  0  0  0  0  0  0  0
   11.6919  -15.3060   18.3237 O   0  0  0  0  0  0  0  0  0  0  0  0
   12.1952  -17.6492   22.5605 C   0  0  0  0  0  0  0  0  0  0  0  0
   12.9290  -18.6849   22.4429 O   0  0  0  0  0  0  0  0  0  0  0  0
   10.5965  -17.2499   18.7023 O   0  0  0  0  0  0  0  0  0  0  0  0
   12.2445  -17.0021   23.8250 N   0  0  0  0  0  0  0  0  0  0  0  0
   13.0366  -17.4837   24.9376 C   0  0  0  0  0  0  0  0  0  0  0  0
   14.4246  -16.9740   24.9448 C   0  0  0  0  0  0  0  0  0  0  0  0
   14.8286  -16.2765   23.9958 O   0  0  0  0  0  0  0  0  0  0  0  0
   15.2481  -17.2792   26.0008 O   0  0  0  0  0  0  0  0  0  0  0  0
  2  3  1  0
  2  1  1  1
  4  5  2  0
  4  3  1  0
  6  5  1  0
  7 12  2  0
  7  6  1  0
  8  7  1  0
  9 10  1  0
  9  8  2  0
 10 11  2  0
 11 12  1  0
 12  4  1  0
 13  2  1  0
 14 13  2  0
 15 13  1  0
 16 15  1  0
 16 17  1  1
 17 18  1  0
 18 22  1  0
 19 18  2  0
 20 16  1  0
 20 21  2  0
 23 20  1  0
 24 23  1  0
 24 25  1  0
 25 27  1  0
 26 25  2  0
M  END
$$$$
