WDG.pdb
     RDKit          3D

 27 28  0  0  1  0  0  0  0  0999 V2000
    8.6162  -16.8961   24.2309 N   0  0  0  0  0  0  0  0  0  0  0  0
    9.5483  -16.1560   24.9991 C   0  0  1  0  0  0  0  0  0  0  0  0
    8.9845  -15.7039   26.3000 C   0  0  0  0  0  0  0  0  0  0  0  0
    7.7142  -14.9774   26.0987 C   0  0  0  0  0  0  0  0  0  0  0  0
    6.4780  -15.5524   25.8885 C   0  0  0  0  0  0  0  0  0  0  0  0
    5.5610  -14.5784   25.7791 N   0  0  0  0  0  0  0  0  0  0  0  0
    6.1669  -13.4000   25.9113 C   0  0  0  0  0  0  0  0  0  0  0  0
    5.6497  -12.1099   25.8674 C   0  0  0  0  0  0  0  0  0  0  0  0
    6.4637  -11.0055   26.0214 C   0  0  0  0  0  0  0  0  0  0  0  0
    7.7969  -11.2502   26.2177 C   0  0  0  0  0  0  0  0  0  0  0  0
    8.3390  -12.5135   26.2664 C   0  0  0  0  0  0  0  0  0  0  0  0
    7.5189  -13.6167   26.1125 C   0  0  0  0  0  0  0  0  0  0  0  0
   10.8513  -16.8673   25.1560 C   0  0  0  0  0  0  0  0  0  0  0  0
   11.7319  -16.3241   25.8704 O   0  0  0  0  0  0  0  0  0  0  0  0
   11.1617  -18.1041   24.5594 N   0  0  0  0  0  0  0  0  0  0  0  0
   12.4503  -18.7593   24.7016 C   0  0  1  0  0  0  0  0  0  0  0  0
   12.3364  -20.0902   25.3757 C   0  0  0  0  0  0  0  0  0  0  0  0
   11.8411  -20.0447   26.7628 C   0  0  0  0  0  0  0  0  0  0  0  0
   10.8364  -20.6926   27.1209 O   0  0  0  0  0  0  0  0  0  0  0  0
   13.1147  -18.7942   23.3780 C   0  0  0  0  0  0  0  0  0  0  0  0
   14.2839  -19.2859   23.2513 O   0  0  0  0  0  0  0  0  0  0  0  0
   12.4984  -19.2687   27.6971 O   0  0  0  0  0  0  0  0  0  0  0  0
   12.5231  -18.3012   22.1833 N   0  0  0  0  0  0  0  0  0  0  0  0
   12.7058  -16.9476   21.7020 C   0  0  0  0  0  0  0  0  0  0  0  0
   14.0759  -16.6663   21.2223 C   0  0  0  0  0  0  0  0  0  0  0  0
   15.0446  -16.8584   21.9806 O   0  0  0  0  0  0  0  0  0  0  0  0
   14.2583  -16.1961   19.9448 O   0  0  0  0  0  0  0  0  0  0  0  0
  2  3  1  0
  2  1  1  1
  4  5  2  0
  4  3  1  0
  6  5  1  0
  7 12  2  0
  7  6  1  0
  8  7  1  0
  9 10  1  0
  9  8  2  0
 10 11  2  0
 11 12  1  0
 12  4  1  0
 13  2  1  0
 14 13  2  0
 15 13  1  0
 16 15  1  0
 16 17  1  6
 17 18  1  0
 18 22  1  0
 19 18  2  0
 20 16  1  0
 20 21  2  0
 23 20  1  0
 24 23  1  0
 24 25  1  0
 25 27  1  0
 26 25  2  0
M  END
$$$$
