WDG.pdb
     RDKit          3D

 27 28  0  0  1  0  0  0  0  0999 V2000
    6.9330  -17.4490   23.7867 N   0  0  0  0  0  0  0  0  0  0  0  0
    8.0018  -16.5207   23.7372 C   0  0  1  0  0  0  0  0  0  0  0  0
    8.3589  -15.9895   25.0807 C   0  0  0  0  0  0  0  0  0  0  0  0
    7.2998  -15.0953   25.5914 C   0  0  0  0  0  0  0  0  0  0  0  0
    6.0920  -15.4946   26.1251 C   0  0  0  0  0  0  0  0  0  0  0  0
    5.4067  -14.4053   26.5066 N   0  0  0  0  0  0  0  0  0  0  0  0
    6.1332  -13.3228   26.2354 C   0  0  0  0  0  0  0  0  0  0  0  0
    5.8544  -11.9755   26.4373 C   0  0  0  0  0  0  0  0  0  0  0  0
    6.7542  -10.9944   26.0714 C   0  0  0  0  0  0  0  0  0  0  0  0
    7.9258  -11.4193   25.5035 C   0  0  0  0  0  0  0  0  0  0  0  0
    8.2313  -12.7436   25.2906 C   0  0  0  0  0  0  0  0  0  0  0  0
    7.3267  -13.7227   25.6599 C   0  0  0  0  0  0  0  0  0  0  0  0
    9.1852  -17.0514   22.9982 C   0  0  0  0  0  0  0  0  0  0  0  0
    9.3151  -18.2997   22.9211 O   0  0  0  0  0  0  0  0  0  0  0  0
   10.1655  -16.2507   22.3818 N   0  0  0  0  0  0  0  0  0  0  0  0
   11.3927  -16.7832   21.8157 C   0  0  1  0  0  0  0  0  0  0  0  0
   11.9933  -15.8620   20.8012 C   0  0  0  0  0  0  0  0  0  0  0  0
   13.2223  -16.3603   20.1587 C   0  0  0  0  0  0  0  0  0  0  0  0
   13.2172  -17.3783   19.4368 O   0  0  0  0  0  0  0  0  0  0  0  0
   12.3032  -17.1585   22.9224 C   0  0  0  0  0  0  0  0  0  0  0  0
   13.3778  -17.8030   22.6886 O   0  0  0  0  0  0  0  0  0  0  0  0
   14.4143  -15.6910   20.3543 O   0  0  0  0  0  0  0  0  0  0  0  0
   12.0623  -16.8405   24.2866 N   0  0  0  0  0  0  0  0  0  0  0  0
   13.0055  -17.1195   25.3496 C   0  0  0  0  0  0  0  0  0  0  0  0
   12.8827  -18.4816   25.9119 C   0  0  0  0  0  0  0  0  0  0  0  0
   12.1897  -19.3308   25.3212 O   0  0  0  0  0  0  0  0  0  0  0  0
   13.5367  -18.7888   27.0799 O   0  0  0  0  0  0  0  0  0  0  0  0
  2  3  1  0
  2  1  1  1
  4  5  2  0
  4  3  1  0
  6  5  1  0
  7 12  2  0
  7  6  1  0
  8  7  1  0
  9 10  1  0
  9  8  2  0
 10 11  2  0
 11 12  1  0
 12  4  1  0
 13  2  1  0
 14 13  2  0
 15 13  1  0
 16 15  1  0
 16 17  1  6
 17 18  1  0
 18 22  1  0
 19 18  2  0
 20 16  1  0
 20 21  2  0
 23 20  1  0
 24 23  1  0
 24 25  1  0
 25 27  1  0
 26 25  2  0
M  END
$$$$
