WDG.pdb
     RDKit          3D

 27 28  0  0  1  0  0  0  0  0999 V2000
    6.8222  -17.7757   24.1831 N   0  0  0  0  0  0  0  0  0  0  0  0
    7.7584  -16.7833   23.8019 C   0  0  1  0  0  0  0  0  0  0  0  0
    8.3638  -16.0906   24.9716 C   0  0  0  0  0  0  0  0  0  0  0  0
    7.3978  -15.1594   25.5894 C   0  0  0  0  0  0  0  0  0  0  0  0
    6.2861  -15.5168   26.3238 C   0  0  0  0  0  0  0  0  0  0  0  0
    5.6699  -14.4015   26.7458 N   0  0  0  0  0  0  0  0  0  0  0  0
    6.3478  -13.3428   26.3068 C   0  0  0  0  0  0  0  0  0  0  0  0
    6.1058  -11.9837   26.4748 C   0  0  0  0  0  0  0  0  0  0  0  0
    6.9402  -11.0331   25.9213 C   0  0  0  0  0  0  0  0  0  0  0  0
    8.0093  -11.5001   25.2040 C   0  0  0  0  0  0  0  0  0  0  0  0
    8.2759  -12.8370   25.0198 C   0  0  0  0  0  0  0  0  0  0  0  0
    7.4374  -13.7853   25.5773 C   0  0  0  0  0  0  0  0  0  0  0  0
    8.7842  -17.3021   22.8496 C   0  0  0  0  0  0  0  0  0  0  0  0
    8.9849  -18.5431   22.8249 O   0  0  0  0  0  0  0  0  0  0  0  0
    9.5421  -16.4976   21.9776 N   0  0  0  0  0  0  0  0  0  0  0  0
   10.5742  -17.0219   21.1001 C   0  0  1  0  0  0  0  0  0  0  0  0
   10.8391  -16.1192   19.9368 C   0  0  0  0  0  0  0  0  0  0  0  0
   11.7932  -16.6460   18.9450 C   0  0  0  0  0  0  0  0  0  0  0  0
   12.8233  -16.0165   18.6286 O   0  0  0  0  0  0  0  0  0  0  0  0
   11.7695  -17.3464   21.9128 C   0  0  0  0  0  0  0  0  0  0  0  0
   12.7031  -18.0702   21.4337 O   0  0  0  0  0  0  0  0  0  0  0  0
   11.5502  -17.8660   18.3452 O   0  0  0  0  0  0  0  0  0  0  0  0
   11.9668  -16.8921   23.2450 N   0  0  0  0  0  0  0  0  0  0  0  0
   13.0686  -17.3232   24.0802 C   0  0  0  0  0  0  0  0  0  0  0  0
   14.3336  -16.6054   23.8141 C   0  0  0  0  0  0  0  0  0  0  0  0
   14.3991  -15.8072   22.8607 O   0  0  0  0  0  0  0  0  0  0  0  0
   15.4190  -16.8315   24.6247 O   0  0  0  0  0  0  0  0  0  0  0  0
  2  3  1  0
  2  1  1  1
  4  5  2  0
  4  3  1  0
  6  5  1  0
  7 12  2  0
  7  6  1  0
  8  7  1  0
  9 10  1  0
  9  8  2  0
 10 11  2  0
 11 12  1  0
 12  4  1  0
 13  2  1  0
 14 13  2  0
 15 13  1  0
 16 15  1  0
 16 17  1  6
 17 18  1  0
 18 22  1  0
 19 18  2  0
 20 16  1  0
 20 21  2  0
 23 20  1  0
 24 23  1  0
 24 25  1  0
 25 27  1  0
 26 25  2  0
M  END
$$$$
