SHA.pdb
     RDKit          3D

 22 22  0  0  1  0  0  0  0  0999 V2000
    9.4635  -14.0753   21.1104 O   0  0  0  0  0  0  0  0  0  0  0  0
    8.2730  -14.2683   20.3921 C   0  0  0  0  0  0  0  0  0  0  0  0
    7.7827  -15.6544   20.7249 C   0  0  2  0  0  0  0  0  0  0  0  0
    6.7138  -16.0846   19.8660 N   0  0  0  0  0  0  0  0  0  0  0  0
    7.3551  -15.7799   22.1378 C   0  0  0  0  0  0  0  0  0  0  0  0
    6.2192  -15.3592   22.5143 O   0  0  0  0  0  0  0  0  0  0  0  0
    8.2139  -16.3731   23.0850 N   0  0  0  0  0  0  0  0  0  0  0  0
    7.8545  -16.4898   24.4759 C   0  0  1  0  0  0  0  0  0  0  0  0
    8.1150  -17.9437   24.8652 C   0  0  0  0  0  0  0  0  0  0  0  0
    6.9419  -18.7306   24.4109 C   0  0  0  0  0  0  0  0  0  0  0  0
    5.8375  -18.2200   23.7500 C   0  0  0  0  0  0  0  0  0  0  0  0
    4.9625  -19.2135   23.4869 N   0  0  0  0  0  0  0  0  0  0  0  0
    5.4998  -20.3416   23.9723 C   0  0  0  0  0  0  0  0  0  0  0  0
    6.6992  -20.0499   24.5324 N   0  0  0  0  0  0  0  0  0  0  0  0
    8.7039  -15.5598   25.2463 C   0  0  0  0  0  0  0  0  0  0  0  0
    9.9475  -15.5133   25.0644 O   0  0  0  0  0  0  0  0  0  0  0  0
    8.1071  -12.7371   27.6227 C   0  0  0  0  0  0  0  0  0  0  0  0
    9.0149  -13.8589   27.1007 C   0  0  2  0  0  0  0  0  0  0  0  0
    8.1889  -14.6655   26.2314 N   0  0  0  0  0  0  0  0  0  0  0  0
    9.5042  -14.5879   28.2734 C   0  0  0  0  0  0  0  0  0  0  0  0
    9.0295  -15.7294   28.5032 O   0  0  0  0  0  0  0  0  0  0  0  0
   10.4602  -14.1122   29.1594 O   0  0  0  0  0  0  0  0  0  0  0  0
  1  2  1  0
  3  4  1  6
  3  5  1  0
  3  2  1  0
  5  6  2  0
  7  5  1  0
  7  8  1  0
  8 15  1  0
  9 10  1  0
  8  9  1  1
 10 14  1  0
 11 12  1  0
 11 10  2  0
 12 13  1  0
 13 14  2  0
 15 19  1  0
 15 16  2  0
 18 17  1  1
 18 20  1  0
 19 18  1  0
 20 22  1  0
 21 20  2  0
M  END
$$$$
