SHA.pdb
     RDKit          3D

 22 22  0  0  1  0  0  0  0  0999 V2000
    6.6805  -13.8794   19.1879 O   0  0  0  0  0  0  0  0  0  0  0  0
    7.4480  -12.7337   18.9254 C   0  0  0  0  0  0  0  0  0  0  0  0
    8.4109  -13.0969   17.8238 C   0  0  2  0  0  0  0  0  0  0  0  0
    7.7448  -13.5431   16.6310 N   0  0  0  0  0  0  0  0  0  0  0  0
    9.3949  -14.1205   18.2463 C   0  0  0  0  0  0  0  0  0  0  0  0
    9.3400  -15.3034   17.7916 O   0  0  0  0  0  0  0  0  0  0  0  0
   10.4101  -13.7868   19.1653 N   0  0  0  0  0  0  0  0  0  0  0  0
   11.4570  -14.7125   19.5181 C   0  0  1  0  0  0  0  0  0  0  0  0
   12.7341  -13.8850   19.6500 C   0  0  0  0  0  0  0  0  0  0  0  0
   13.8484  -14.8403   19.8685 C   0  0  0  0  0  0  0  0  0  0  0  0
   14.8744  -14.6838   20.7850 C   0  0  0  0  0  0  0  0  0  0  0  0
   15.7129  -15.7393   20.7170 N   0  0  0  0  0  0  0  0  0  0  0  0
   15.2300  -16.5576   19.7715 C   0  0  0  0  0  0  0  0  0  0  0  0
   14.1001  -16.0136   19.2568 N   0  0  0  0  0  0  0  0  0  0  0  0
   11.0886  -15.3521   20.7969 C   0  0  0  0  0  0  0  0  0  0  0  0
   10.6016  -14.6811   21.7425 O   0  0  0  0  0  0  0  0  0  0  0  0
   10.6546  -18.8363   22.0155 C   0  0  0  0  0  0  0  0  0  0  0  0
   10.9964  -17.3728   22.3256 C   0  0  2  0  0  0  0  0  0  0  0  0
   11.2541  -16.7466   21.0488 N   0  0  0  0  0  0  0  0  0  0  0  0
   12.1656  -17.3888   23.2081 C   0  0  0  0  0  0  0  0  0  0  0  0
   13.2767  -17.0491   22.7275 O   0  0  0  0  0  0  0  0  0  0  0  0
   12.1423  -17.7534   24.5467 O   0  0  0  0  0  0  0  0  0  0  0  0
  1  2  1  0
  3  4  1  6
  3  5  1  0
  3  2  1  0
  5  6  2  0
  7  5  1  0
  7  8  1  0
  8 15  1  0
  9 10  1  0
  8  9  1  1
 10 14  1  0
 11 12  1  0
 11 10  2  0
 12 13  1  0
 13 14  2  0
 15 19  1  0
 15 16  2  0
 18 17  1  6
 18 20  1  0
 19 18  1  0
 20 22  1  0
 21 20  2  0
M  END
$$$$
