SHA.pdb
     RDKit          3D

 22 22  0  0  1  0  0  0  0  0999 V2000
   11.6994  -18.4101   22.7939 O   0  0  0  0  0  0  0  0  0  0  0  0
   10.6619  -18.3327   21.8514 C   0  0  0  0  0  0  0  0  0  0  0  0
   10.6392  -16.9135   21.3435 C   0  0  2  0  0  0  0  0  0  0  0  0
   11.8601  -16.5425   20.6824 N   0  0  0  0  0  0  0  0  0  0  0  0
   10.3458  -15.9332   22.4148 C   0  0  0  0  0  0  0  0  0  0  0  0
   11.2427  -15.1415   22.8365 O   0  0  0  0  0  0  0  0  0  0  0  0
    9.0563  -15.8705   22.9803 N   0  0  0  0  0  0  0  0  0  0  0  0
    8.7215  -14.9286   24.0186 C   0  0  1  0  0  0  0  0  0  0  0  0
    7.1965  -14.8455   24.0462 C   0  0  0  0  0  0  0  0  0  0  0  0
    6.8378  -13.7921   25.0278 C   0  0  0  0  0  0  0  0  0  0  0  0
    6.9404  -12.4275   24.8172 C   0  0  0  0  0  0  0  0  0  0  0  0
    6.5299  -11.7629   25.9180 N   0  0  0  0  0  0  0  0  0  0  0  0
    6.1705  -12.6889   26.8181 C   0  0  0  0  0  0  0  0  0  0  0  0
    6.3568  -13.9189   26.2795 N   0  0  0  0  0  0  0  0  0  0  0  0
    9.2614  -15.4431   25.2929 C   0  0  0  0  0  0  0  0  0  0  0  0
    9.3825  -16.6783   25.4958 O   0  0  0  0  0  0  0  0  0  0  0  0
   10.4298  -13.8615   28.4975 C   0  0  0  0  0  0  0  0  0  0  0  0
   10.3433  -15.0697   27.5554 C   0  0  2  0  0  0  0  0  0  0  0  0
    9.6762  -14.5966   26.3638 N   0  0  0  0  0  0  0  0  0  0  0  0
    9.5916  -16.1075   28.2654 C   0  0  0  0  0  0  0  0  0  0  0  0
    8.4181  -16.3542   27.8870 O   0  0  0  0  0  0  0  0  0  0  0  0
   10.0785  -16.8470   29.3337 O   0  0  0  0  0  0  0  0  0  0  0  0
  1  2  1  0
  3  4  1  1
  3  5  1  0
  3  2  1  0
  5  6  2  0
  7  5  1  0
  7  8  1  0
  8 15  1  0
  9 10  1  0
  8  9  1  1
 10 14  1  0
 11 12  1  0
 11 10  2  0
 12 13  1  0
 13 14  2  0
 15 19  1  0
 15 16  2  0
 18 17  1  1
 18 20  1  0
 19 18  1  0
 20 22  1  0
 21 20  2  0
M  END
$$$$
