SHA.pdb
     RDKit          3D

 22 22  0  0  1  0  0  0  0  0999 V2000
    9.3708  -12.9019   20.1013 O   0  0  0  0  0  0  0  0  0  0  0  0
    9.1559  -14.2128   19.6477 C   0  0  0  0  0  0  0  0  0  0  0  0
    7.6956  -14.5163   19.8670 C   0  0  2  0  0  0  0  0  0  0  0  0
    6.8318  -13.5110   19.3115 N   0  0  0  0  0  0  0  0  0  0  0  0
    7.3657  -14.7077   21.2985 C   0  0  0  0  0  0  0  0  0  0  0  0
    6.5936  -13.9025   21.9022 O   0  0  0  0  0  0  0  0  0  0  0  0
    7.9113  -15.7958   22.0092 N   0  0  0  0  0  0  0  0  0  0  0  0
    7.4529  -16.1554   23.3274 C   0  0  1  0  0  0  0  0  0  0  0  0
    7.9975  -17.5557   23.6033 C   0  0  0  0  0  0  0  0  0  0  0  0
    7.5308  -17.9428   24.9576 C   0  0  0  0  0  0  0  0  0  0  0  0
    6.6079  -17.2471   25.7201 C   0  0  0  0  0  0  0  0  0  0  0  0
    6.4169  -17.8804   26.8966 N   0  0  0  0  0  0  0  0  0  0  0  0
    7.2057  -18.9641   26.8860 C   0  0  0  0  0  0  0  0  0  0  0  0
    7.8811  -19.0027   25.7113 N   0  0  0  0  0  0  0  0  0  0  0  0
    7.9890  -15.1654   24.2828 C   0  0  0  0  0  0  0  0  0  0  0  0
    9.1926  -14.8038   24.2370 O   0  0  0  0  0  0  0  0  0  0  0  0
    6.4547  -12.8360   26.7666 C   0  0  0  0  0  0  0  0  0  0  0  0
    7.6946  -13.5567   26.2204 C   0  0  2  0  0  0  0  0  0  0  0  0
    7.1994  -14.5595   25.3050 N   0  0  0  0  0  0  0  0  0  0  0  0
    8.3974  -14.1237   27.3739 C   0  0  0  0  0  0  0  0  0  0  0  0
    8.9173  -13.3313   28.2004 O   0  0  0  0  0  0  0  0  0  0  0  0
    8.5355  -15.4807   27.6283 O   0  0  0  0  0  0  0  0  0  0  0  0
  1  2  1  0
  3  4  1  1
  3  5  1  0
  3  2  1  0
  5  6  2  0
  7  5  1  0
  7  8  1  0
  8 15  1  0
  9 10  1  0
  8  9  1  1
 10 14  1  0
 11 12  1  0
 11 10  2  0
 12 13  1  0
 13 14  2  0
 15 19  1  0
 15 16  2  0
 18 17  1  1
 18 20  1  0
 19 18  1  0
 20 22  1  0
 21 20  2  0
M  END
$$$$
