SHA.pdb
     RDKit          3D

 22 22  0  0  1  0  0  0  0  0999 V2000
   12.2917  -19.0315   17.9528 O   0  0  0  0  0  0  0  0  0  0  0  0
   10.9812  -18.8139   17.4990 C   0  0  0  0  0  0  0  0  0  0  0  0
   10.8443  -17.3325   17.2560 C   0  0  2  0  0  0  0  0  0  0  0  0
   11.6691  -16.8704   16.1735 N   0  0  0  0  0  0  0  0  0  0  0  0
   11.1335  -16.5306   18.4676 C   0  0  0  0  0  0  0  0  0  0  0  0
   12.2326  -15.9094   18.5905 O   0  0  0  0  0  0  0  0  0  0  0  0
   10.1819  -16.4498   19.5042 N   0  0  0  0  0  0  0  0  0  0  0  0
   10.4185  -15.6834   20.7017 C   0  0  1  0  0  0  0  0  0  0  0  0
    9.0428  -15.3492   21.2754 C   0  0  0  0  0  0  0  0  0  0  0  0
    8.3760  -14.4471   20.3041 C   0  0  0  0  0  0  0  0  0  0  0  0
    8.6250  -13.0925   20.1618 C   0  0  0  0  0  0  0  0  0  0  0  0
    7.8429  -12.5839   19.1865 N   0  0  0  0  0  0  0  0  0  0  0  0
    7.1054  -13.5981   18.7128 C   0  0  0  0  0  0  0  0  0  0  0  0
    7.4278  -14.7276   19.3894 N   0  0  0  0  0  0  0  0  0  0  0  0
   11.2065  -16.5187   21.6298 C   0  0  0  0  0  0  0  0  0  0  0  0
   10.9282  -17.7322   21.8077 O   0  0  0  0  0  0  0  0  0  0  0  0
   14.4217  -16.0832   23.4834 C   0  0  0  0  0  0  0  0  0  0  0  0
   13.0874  -16.8196   23.3033 C   0  0  2  0  0  0  0  0  0  0  0  0
   12.3166  -16.0226   22.3762 N   0  0  0  0  0  0  0  0  0  0  0  0
   12.4747  -16.9166   24.6304 C   0  0  0  0  0  0  0  0  0  0  0  0
   11.4326  -16.2493   24.8533 O   0  0  0  0  0  0  0  0  0  0  0  0
   12.9597  -17.6955   25.6713 O   0  0  0  0  0  0  0  0  0  0  0  0
  1  2  1  0
  3  4  1  6
  3  5  1  0
  3  2  1  0
  5  6  2  0
  7  5  1  0
  7  8  1  0
  8 15  1  0
  9 10  1  0
  8  9  1  1
 10 14  1  0
 11 12  1  0
 11 10  2  0
 12 13  1  0
 13 14  2  0
 15 19  1  0
 15 16  2  0
 18 17  1  1
 18 20  1  0
 19 18  1  0
 20 22  1  0
 21 20  2  0
M  END
$$$$
