SHA.pdb
     RDKit          3D

 22 22  0  0  1  0  0  0  0  0999 V2000
   11.6941  -18.6295   20.8304 O   0  0  0  0  0  0  0  0  0  0  0  0
   11.1970  -17.7830   21.8338 C   0  0  0  0  0  0  0  0  0  0  0  0
    9.7216  -17.6168   21.5727 C   0  0  2  0  0  0  0  0  0  0  0  0
    9.4392  -17.2326   20.2170 N   0  0  0  0  0  0  0  0  0  0  0  0
    9.0884  -16.6480   22.4974 C   0  0  0  0  0  0  0  0  0  0  0  0
    8.8032  -15.4729   22.1144 O   0  0  0  0  0  0  0  0  0  0  0  0
    8.7942  -17.0262   23.8229 N   0  0  0  0  0  0  0  0  0  0  0  0
    8.2697  -16.0915   24.7865 C   0  0  1  0  0  0  0  0  0  0  0  0
    6.9993  -16.7250   25.3504 C   0  0  0  0  0  0  0  0  0  0  0  0
    7.3407  -18.1192   25.7265 C   0  0  0  0  0  0  0  0  0  0  0  0
    8.5888  -18.7047   25.5980 C   0  0  0  0  0  0  0  0  0  0  0  0
    8.5423  -19.9808   26.0353 N   0  0  0  0  0  0  0  0  0  0  0  0
    7.2837  -20.2071   26.4372 C   0  0  0  0  0  0  0  0  0  0  0  0
    6.5548  -19.0795   26.2505 N   0  0  0  0  0  0  0  0  0  0  0  0
    9.2910  -15.8952   25.8346 C   0  0  0  0  0  0  0  0  0  0  0  0
   10.1945  -16.7481   26.0293 O   0  0  0  0  0  0  0  0  0  0  0  0
    9.8989  -13.2479   28.4392 C   0  0  0  0  0  0  0  0  0  0  0  0
   10.2604  -14.5838   27.7761 C   0  0  2  0  0  0  0  0  0  0  0  0
    9.3278  -14.7500   26.6846 N   0  0  0  0  0  0  0  0  0  0  0  0
   10.1334  -15.6166   28.8072 C   0  0  0  0  0  0  0  0  0  0  0  0
   11.0083  -15.6657   29.7090 O   0  0  0  0  0  0  0  0  0  0  0  0
    9.1125  -16.5543   28.8671 O   0  0  0  0  0  0  0  0  0  0  0  0
  1  2  1  0
  3  4  1  6
  3  5  1  0
  3  2  1  0
  5  6  2  0
  7  5  1  0
  7  8  1  0
  8 15  1  0
  9 10  1  0
  8  9  1  1
 10 14  1  0
 11 12  1  0
 11 10  2  0
 12 13  1  0
 13 14  2  0
 15 19  1  0
 15 16  2  0
 18 17  1  1
 18 20  1  0
 19 18  1  0
 20 22  1  0
 21 20  2  0
M  END
$$$$
