WMT.pdb
     RDKit          3D

 30 31  0  0  1  0  0  0  0  0999 V2000
   28.2322  -21.0234  -16.1106 N   0  0  0  0  0  0  0  0  0  0  0  0
   27.6954  -20.1308  -15.1187 C   0  0  1  0  0  0  0  0  0  0  0  0
   26.6900  -19.1551  -15.6780 C   0  0  0  0  0  0  0  0  0  0  0  0
   27.0911  -17.7519  -15.4593 C   0  0  0  0  0  0  0  0  0  0  0  0
   26.7625  -16.9970  -14.3625 C   0  0  0  0  0  0  0  0  0  0  0  0
   27.3136  -15.7890  -14.5451 N   0  0  0  0  0  0  0  0  0  0  0  0
   27.9794  -15.7445  -15.7134 C   0  0  0  0  0  0  0  0  0  0  0  0
   28.7082  -14.7714  -16.3741 C   0  0  0  0  0  0  0  0  0  0  0  0
   29.2910  -15.0213  -17.5908 C   0  0  0  0  0  0  0  0  0  0  0  0
   29.1734  -16.2515  -18.2029 C   0  0  0  0  0  0  0  0  0  0  0  0
   28.4485  -17.2176  -17.5444 C   0  0  0  0  0  0  0  0  0  0  0  0
   27.8499  -16.9998  -16.3211 C   0  0  0  0  0  0  0  0  0  0  0  0
   27.0419  -20.8704  -14.0063 C   0  0  0  0  0  0  0  0  0  0  0  0
   26.2803  -21.8456  -14.3295 O   0  0  0  0  0  0  0  0  0  0  0  0
   26.0913  -19.5033   -6.7834 C   0  0  0  0  0  0  0  0  0  0  0  0
   26.9382  -20.9361   -7.5342 S   0  0  0  0  0  0  0  0  0  0  0  0
   26.1938  -21.3525   -9.1347 C   0  0  0  0  0  0  0  0  0  0  0  0
   26.9861  -20.8786  -10.2898 C   0  0  0  0  0  0  0  0  0  0  0  0
   26.3980  -21.1607  -11.6404 C   0  0  2  0  0  0  0  0  0  0  0  0
   27.2522  -20.5140  -12.6630 N   0  0  0  0  0  0  0  0  0  0  0  0
   25.0025  -20.7368  -11.8265 C   0  0  0  0  0  0  0  0  0  0  0  0
   24.7281  -19.4772  -11.9091 O   0  0  0  0  0  0  0  0  0  0  0  0
   22.7321  -21.1944  -14.6373 C   0  0  0  0  0  0  0  0  0  0  0  0
   21.8924  -21.6020  -13.4292 C   0  0  1  0  0  0  0  0  0  0  0  0
   21.9476  -23.0019  -13.4088 O   0  0  0  0  0  0  0  0  0  0  0  0
   22.5335  -21.0474  -12.1883 C   0  0  2  0  0  0  0  0  0  0  0  0
   23.8578  -21.5490  -11.9382 N   0  0  0  0  0  0  0  0  0  0  0  0
   21.6560  -21.2926  -11.0129 C   0  0  0  0  0  0  0  0  0  0  0  0
   22.0575  -21.9152   -9.9909 O   0  0  0  0  0  0  0  0  0  0  0  0
   20.3424  -20.8423  -10.9879 O   0  0  0  0  0  0  0  0  0  0  0  0
  2  1  1  6
  2  3  1  0
  2 13  1  0
  3  4  1  0
  4 12  1  0
  4  5  2  0
  5  6  1  0
  7  6  1  0
  7  8  2  0
  9  8  1  0
 10  9  2  0
 11 12  2  0
 11 10  1  0
 12  7  1  0
 13 14  2  0
 16 15  1  0
 16 17  1  0
 18 17  1  0
 19 18  1  1
 19 21  1  0
 20 13  1  0
 20 19  1  0
 21 22  2  0
 24 23  1  6
 24 26  1  0
 25 24  1  0
 26 28  1  0
 26 27  1  1
 27 21  1  0
 28 29  2  0
 28 30  1  0
M  END
$$$$
