WMT.pdb
     RDKit          3D

 30 31  0  0  1  0  0  0  0  0999 V2000
   21.2517  -19.7995  -13.4721 N   0  0  0  0  0  0  0  0  0  0  0  0
   21.8641  -20.8531  -12.7080 C   0  0  1  0  0  0  0  0  0  0  0  0
   21.6553  -22.2215  -13.3077 C   0  0  0  0  0  0  0  0  0  0  0  0
   20.2282  -22.5906  -13.3751 C   0  0  0  0  0  0  0  0  0  0  0  0
   19.5193  -22.8013  -14.5300 C   0  0  0  0  0  0  0  0  0  0  0  0
   18.2683  -23.1141  -14.1644 N   0  0  0  0  0  0  0  0  0  0  0  0
   18.1524  -23.1110  -12.8240 C   0  0  0  0  0  0  0  0  0  0  0  0
   17.1139  -23.3561  -11.9431 C   0  0  0  0  0  0  0  0  0  0  0  0
   17.2973  -23.2753  -10.5858 C   0  0  0  0  0  0  0  0  0  0  0  0
   18.5232  -22.9470  -10.0463 C   0  0  0  0  0  0  0  0  0  0  0  0
   19.5544  -22.7037  -10.9237 C   0  0  0  0  0  0  0  0  0  0  0  0
   19.4043  -22.7760  -12.2929 C   0  0  0  0  0  0  0  0  0  0  0  0
   23.3279  -20.6428  -12.5522 C   0  0  0  0  0  0  0  0  0  0  0  0
   23.9112  -19.9481  -13.4537 O   0  0  0  0  0  0  0  0  0  0  0  0
   26.0482  -19.8448   -7.2419 C   0  0  0  0  0  0  0  0  0  0  0  0
   27.5927  -19.9319   -8.2119 S   0  0  0  0  0  0  0  0  0  0  0  0
   27.3645  -20.9627   -9.6865 C   0  0  0  0  0  0  0  0  0  0  0  0
   25.9453  -21.2505   -9.9856 C   0  0  0  0  0  0  0  0  0  0  0  0
   25.4765  -20.8541  -11.3541 C   0  0  2  0  0  0  0  0  0  0  0  0
   24.0365  -21.1823  -11.4647 N   0  0  0  0  0  0  0  0  0  0  0  0
   26.2065  -21.4619  -12.4762 C   0  0  0  0  0  0  0  0  0  0  0  0
   26.7060  -22.6455  -12.3409 O   0  0  0  0  0  0  0  0  0  0  0  0
   25.6630  -23.4032  -15.2196 C   0  0  0  0  0  0  0  0  0  0  0  0
   26.4097  -22.2246  -15.8395 C   0  0  1  0  0  0  0  0  0  0  0  0
   25.4045  -21.3533  -16.2795 O   0  0  0  0  0  0  0  0  0  0  0  0
   27.2305  -21.5593  -14.7708 C   0  0  2  0  0  0  0  0  0  0  0  0
   26.4509  -20.9132  -13.7497 N   0  0  0  0  0  0  0  0  0  0  0  0
   28.1776  -20.5933  -15.3886 C   0  0  0  0  0  0  0  0  0  0  0  0
   28.1417  -19.3577  -15.1331 O   0  0  0  0  0  0  0  0  0  0  0  0
   29.1538  -21.0129  -16.2831 O   0  0  0  0  0  0  0  0  0  0  0  0
  2  1  1  6
  2  3  1  0
  2 13  1  0
  3  4  1  0
  4 12  1  0
  4  5  2  0
  5  6  1  0
  7  6  1  0
  7  8  2  0
  9  8  1  0
 10  9  2  0
 11 12  2  0
 11 10  1  0
 12  7  1  0
 13 14  2  0
 16 15  1  0
 16 17  1  0
 18 17  1  0
 19 18  1  1
 19 21  1  0
 20 13  1  0
 20 19  1  0
 21 22  2  0
 24 23  1  1
 24 26  1  0
 25 24  1  0
 26 28  1  0
 26 27  1  1
 27 21  1  0
 28 29  2  0
 28 30  1  0
M  END
$$$$
