WMT.pdb
     RDKit          3D

 30 31  0  0  1  0  0  0  0  0999 V2000
   26.4968  -21.1163  -12.9073 N   0  0  0  0  0  0  0  0  0  0  0  0
   25.7187  -20.5056  -11.8631 C   0  0  1  0  0  0  0  0  0  0  0  0
   24.2417  -20.7906  -11.9774 C   0  0  0  0  0  0  0  0  0  0  0  0
   23.6350  -20.1349  -13.1519 C   0  0  0  0  0  0  0  0  0  0  0  0
   24.0473  -20.2977  -14.4497 C   0  0  0  0  0  0  0  0  0  0  0  0
   23.2454  -19.5376  -15.2085 N   0  0  0  0  0  0  0  0  0  0  0  0
   22.3399  -18.8978  -14.4464 C   0  0  0  0  0  0  0  0  0  0  0  0
   21.3073  -18.0148  -14.7083 C   0  0  0  0  0  0  0  0  0  0  0  0
   20.5274  -17.5112  -13.6981 C   0  0  0  0  0  0  0  0  0  0  0  0
   20.7419  -17.8650  -12.3825 C   0  0  0  0  0  0  0  0  0  0  0  0
   21.7690  -18.7429  -12.1242 C   0  0  0  0  0  0  0  0  0  0  0  0
   22.5716  -19.2676  -13.1155 C   0  0  0  0  0  0  0  0  0  0  0  0
   26.1641  -20.9449  -10.5140 C   0  0  0  0  0  0  0  0  0  0  0  0
   26.1828  -22.2043  -10.2932 O   0  0  0  0  0  0  0  0  0  0  0  0
   28.8005  -17.1043   -5.3782 C   0  0  0  0  0  0  0  0  0  0  0  0
   29.4991  -18.7876   -5.4881 S   0  0  0  0  0  0  0  0  0  0  0  0
   28.2806  -19.9422   -6.1746 C   0  0  0  0  0  0  0  0  0  0  0  0
   27.9331  -19.6571   -7.5834 C   0  0  0  0  0  0  0  0  0  0  0  0
   26.8866  -20.5461   -8.1869 C   0  0  2  0  0  0  0  0  0  0  0  0
   26.5467  -20.0185   -9.5284 N   0  0  0  0  0  0  0  0  0  0  0  0
   25.6574  -20.7073   -7.3965 C   0  0  0  0  0  0  0  0  0  0  0  0
   24.7343  -19.8067   -7.4689 O   0  0  0  0  0  0  0  0  0  0  0  0
   22.9607  -23.3701   -7.3506 C   0  0  0  0  0  0  0  0  0  0  0  0
   23.3853  -23.1602   -5.8993 C   0  0  1  0  0  0  0  0  0  0  0  0
   24.2873  -24.1993   -5.6347 O   0  0  0  0  0  0  0  0  0  0  0  0
   24.0860  -21.8353   -5.7897 C   0  0  2  0  0  0  0  0  0  0  0  0
   25.3188  -21.7613   -6.5264 N   0  0  0  0  0  0  0  0  0  0  0  0
   24.3166  -21.5020   -4.3589 C   0  0  0  0  0  0  0  0  0  0  0  0
   25.4611  -21.2161   -3.9098 O   0  0  0  0  0  0  0  0  0  0  0  0
   23.2714  -21.4903   -3.4442 O   0  0  0  0  0  0  0  0  0  0  0  0
  2  1  1  6
  2  3  1  0
  2 13  1  0
  3  4  1  0
  4 12  1  0
  4  5  2  0
  5  6  1  0
  7  6  1  0
  7  8  2  0
  9  8  1  0
 10  9  2  0
 11 12  2  0
 11 10  1  0
 12  7  1  0
 13 14  2  0
 16 15  1  0
 16 17  1  0
 18 17  1  0
 19 18  1  1
 19 21  1  0
 20 13  1  0
 20 19  1  0
 21 22  2  0
 24 23  1  6
 24 26  1  0
 25 24  1  0
 26 28  1  0
 26 27  1  6
 27 21  1  0
 28 29  2  0
 28 30  1  0
M  END
$$$$
