WMT.pdb
     RDKit          3D

 30 31  0  0  1  0  0  0  0  0999 V2000
   25.2934  -18.6361   -8.6843 N   0  0  0  0  0  0  0  0  0  0  0  0
   26.1300  -19.6035   -9.3424 C   0  0  1  0  0  0  0  0  0  0  0  0
   26.1228  -20.9530   -8.6682 C   0  0  0  0  0  0  0  0  0  0  0  0
   26.3441  -20.8521   -7.2128 C   0  0  0  0  0  0  0  0  0  0  0  0
   25.4487  -21.2369   -6.2479 C   0  0  0  0  0  0  0  0  0  0  0  0
   26.0234  -20.9833   -5.0638 N   0  0  0  0  0  0  0  0  0  0  0  0
   27.2477  -20.4529   -5.2360 C   0  0  0  0  0  0  0  0  0  0  0  0
   28.2421  -20.0179   -4.3777 C   0  0  0  0  0  0  0  0  0  0  0  0
   29.4224  -19.5074   -4.8558 C   0  0  0  0  0  0  0  0  0  0  0  0
   29.6641  -19.4077   -6.2099 C   0  0  0  0  0  0  0  0  0  0  0  0
   28.6743  -19.8406   -7.0615 C   0  0  0  0  0  0  0  0  0  0  0  0
   27.4768  -20.3586   -6.6145 C   0  0  0  0  0  0  0  0  0  0  0  0
   25.7333  -19.8015  -10.7618 C   0  0  0  0  0  0  0  0  0  0  0  0
   24.4798  -19.8537  -11.0097 O   0  0  0  0  0  0  0  0  0  0  0  0
   30.1191  -18.9987  -16.1110 C   0  0  0  0  0  0  0  0  0  0  0  0
   28.8130  -17.7339  -15.9427 S   0  0  0  0  0  0  0  0  0  0  0  0
   27.3192  -18.4513  -15.2057 C   0  0  0  0  0  0  0  0  0  0  0  0
   27.5113  -18.8959  -13.8086 C   0  0  0  0  0  0  0  0  0  0  0  0
   26.3042  -19.4877  -13.1434 C   0  0  2  0  0  0  0  0  0  0  0  0
   26.6917  -19.9252  -11.7826 N   0  0  0  0  0  0  0  0  0  0  0  0
   25.6700  -20.6057  -13.8571 C   0  0  0  0  0  0  0  0  0  0  0  0
   26.2033  -21.7807  -13.7965 O   0  0  0  0  0  0  0  0  0  0  0  0
   22.5759  -22.6385  -13.5545 C   0  0  0  0  0  0  0  0  0  0  0  0
   22.5748  -22.0899  -14.9792 C   0  0  1  0  0  0  0  0  0  0  0  0
   21.7777  -20.9391  -14.9207 O   0  0  0  0  0  0  0  0  0  0  0  0
   23.9821  -21.7181  -15.3528 C   0  0  2  0  0  0  0  0  0  0  0  0
   24.4981  -20.5824  -14.6373 N   0  0  0  0  0  0  0  0  0  0  0  0
   24.0727  -21.4911  -16.8197 C   0  0  0  0  0  0  0  0  0  0  0  0
   24.4668  -20.3963  -17.3088 O   0  0  0  0  0  0  0  0  0  0  0  0
   23.7242  -22.4847  -17.7255 O   0  0  0  0  0  0  0  0  0  0  0  0
  2  1  1  1
  2  3  1  0
  2 13  1  0
  3  4  1  0
  4 12  1  0
  4  5  2  0
  5  6  1  0
  7  6  1  0
  7  8  2  0
  9  8  1  0
 10  9  2  0
 11 12  2  0
 11 10  1  0
 12  7  1  0
 13 14  2  0
 16 15  1  0
 16 17  1  0
 18 17  1  0
 19 18  1  6
 19 21  1  0
 20 13  1  0
 20 19  1  0
 21 22  2  0
 24 23  1  1
 24 26  1  0
 25 24  1  0
 26 28  1  0
 26 27  1  1
 27 21  1  0
 28 29  2  0
 28 30  1  0
M  END
$$$$
