WMT.pdb
     RDKit          3D

 30 31  0  0  1  0  0  0  0  0999 V2000
   28.2427  -20.7611   -9.7083 N   0  0  0  0  0  0  0  0  0  0  0  0
   26.8268  -20.9282   -9.5181 C   0  0  1  0  0  0  0  0  0  0  0  0
   26.2338  -19.9296   -8.5553 C   0  0  0  0  0  0  0  0  0  0  0  0
   27.2269  -19.4316   -7.5842 C   0  0  0  0  0  0  0  0  0  0  0  0
   27.9663  -18.2853   -7.7262 C   0  0  0  0  0  0  0  0  0  0  0  0
   28.7439  -18.1894   -6.6386 N   0  0  0  0  0  0  0  0  0  0  0  0
   28.5292  -19.2278   -5.8106 C   0  0  0  0  0  0  0  0  0  0  0  0
   29.0483  -19.6113   -4.5865 C   0  0  0  0  0  0  0  0  0  0  0  0
   28.6249  -20.7566   -3.9608 C   0  0  0  0  0  0  0  0  0  0  0  0
   27.6658  -21.5701   -4.5267 C   0  0  0  0  0  0  0  0  0  0  0  0
   27.1511  -21.1872   -5.7435 C   0  0  0  0  0  0  0  0  0  0  0  0
   27.5543  -20.0429   -6.3995 C   0  0  0  0  0  0  0  0  0  0  0  0
   26.0814  -20.8222  -10.8006 C   0  0  0  0  0  0  0  0  0  0  0  0
   26.3461  -19.8138  -11.5412 O   0  0  0  0  0  0  0  0  0  0  0  0
   25.5090  -24.5871  -16.1596 C   0  0  0  0  0  0  0  0  0  0  0  0
   26.2736  -22.9740  -15.7762 S   0  0  0  0  0  0  0  0  0  0  0  0
   26.2913  -22.6839  -13.9860 C   0  0  0  0  0  0  0  0  0  0  0  0
   24.9587  -22.8155  -13.3586 C   0  0  0  0  0  0  0  0  0  0  0  0
   24.5173  -21.6519  -12.5214 C   0  0  2  0  0  0  0  0  0  0  0  0
   25.1309  -21.7857  -11.1802 N   0  0  0  0  0  0  0  0  0  0  0  0
   23.0632  -21.4852  -12.3821 C   0  0  0  0  0  0  0  0  0  0  0  0
   22.4234  -22.1987  -11.5158 O   0  0  0  0  0  0  0  0  0  0  0  0
   20.8264  -18.4864  -11.5397 C   0  0  0  0  0  0  0  0  0  0  0  0
   20.2648  -19.1311  -12.8046 C   0  0  1  0  0  0  0  0  0  0  0  0
   20.7667  -18.3546  -13.8573 O   0  0  0  0  0  0  0  0  0  0  0  0
   20.7954  -20.5334  -12.9062 C   0  0  2  0  0  0  0  0  0  0  0  0
   22.2194  -20.6095  -13.0918 N   0  0  0  0  0  0  0  0  0  0  0  0
   20.0914  -21.2629  -13.9943 C   0  0  0  0  0  0  0  0  0  0  0  0
   20.6897  -21.6723  -15.0276 O   0  0  0  0  0  0  0  0  0  0  0  0
   18.7302  -21.5288  -13.9203 O   0  0  0  0  0  0  0  0  0  0  0  0
  2  1  1  6
  2  3  1  0
  2 13  1  0
  3  4  1  0
  4 12  1  0
  4  5  2  0
  5  6  1  0
  7  6  1  0
  7  8  2  0
  9  8  1  0
 10  9  2  0
 11 12  2  0
 11 10  1  0
 12  7  1  0
 13 14  2  0
 16 15  1  0
 16 17  1  0
 18 17  1  0
 19 18  1  6
 19 21  1  0
 20 13  1  0
 20 19  1  0
 21 22  2  0
 24 23  1  1
 24 26  1  0
 25 24  1  0
 26 28  1  0
 26 27  1  6
 27 21  1  0
 28 29  2  0
 28 30  1  0
M  END
$$$$
