WMT.pdb
     RDKit          3D

 30 31  0  0  1  0  0  0  0  0999 V2000
   23.3767  -20.2969  -18.2404 N   0  0  0  0  0  0  0  0  0  0  0  0
   21.9663  -20.1386  -18.0068 C   0  0  1  0  0  0  0  0  0  0  0  0
   21.1137  -20.9923  -18.9124 C   0  0  0  0  0  0  0  0  0  0  0  0
   20.6484  -20.2536  -20.1021 C   0  0  0  0  0  0  0  0  0  0  0  0
   21.4486  -19.8253  -21.1302 C   0  0  0  0  0  0  0  0  0  0  0  0
   20.6503  -19.2007  -22.0073 N   0  0  0  0  0  0  0  0  0  0  0  0
   19.3749  -19.2142  -21.5789 C   0  0  0  0  0  0  0  0  0  0  0  0
   18.1814  -18.7268  -22.0815 C   0  0  0  0  0  0  0  0  0  0  0  0
   17.0011  -18.8952  -21.4025 C   0  0  0  0  0  0  0  0  0  0  0  0
   16.9578  -19.5564  -20.1931 C   0  0  0  0  0  0  0  0  0  0  0  0
   18.1455  -20.0401  -19.6951 C   0  0  0  0  0  0  0  0  0  0  0  0
   19.3490  -19.8882  -20.3515 C   0  0  0  0  0  0  0  0  0  0  0  0
   21.6003  -20.4592  -16.6016 C   0  0  0  0  0  0  0  0  0  0  0  0
   22.2738  -21.3806  -16.0247 O   0  0  0  0  0  0  0  0  0  0  0  0
   20.9861  -20.3823   -9.7226 C   0  0  0  0  0  0  0  0  0  0  0  0
   21.3593  -20.1671  -11.4969 S   0  0  0  0  0  0  0  0  0  0  0  0
   20.1961  -19.0027  -12.2585 C   0  0  0  0  0  0  0  0  0  0  0  0
   20.3907  -18.8501  -13.7164 C   0  0  0  0  0  0  0  0  0  0  0  0
   20.3223  -20.1167  -14.5168 C   0  0  2  0  0  0  0  0  0  0  0  0
   20.5627  -19.7806  -15.9391 N   0  0  0  0  0  0  0  0  0  0  0  0
   19.0698  -20.8772  -14.3966 C   0  0  0  0  0  0  0  0  0  0  0  0
   17.9654  -20.3493  -14.8096 O   0  0  0  0  0  0  0  0  0  0  0  0
   18.5293  -24.9477  -14.5893 C   0  0  0  0  0  0  0  0  0  0  0  0
   17.7000  -24.2983  -13.4841 C   0  0  1  0  0  0  0  0  0  0  0  0
   18.4269  -24.5259  -12.3081 O   0  0  0  0  0  0  0  0  0  0  0  0
   17.6120  -22.8223  -13.7527 C   0  0  2  0  0  0  0  0  0  0  0  0
   18.8886  -22.1709  -13.8713 N   0  0  0  0  0  0  0  0  0  0  0  0
   16.7907  -22.1651  -12.7014 C   0  0  0  0  0  0  0  0  0  0  0  0
   15.6241  -22.5542  -12.4168 O   0  0  0  0  0  0  0  0  0  0  0  0
   17.2765  -21.0829  -11.9789 O   0  0  0  0  0  0  0  0  0  0  0  0
  2  1  1  1
  2  3  1  0
  2 13  1  0
  3  4  1  0
  4 12  1  0
  4  5  2  0
  5  6  1  0
  7  6  1  0
  7  8  2  0
  9  8  1  0
 10  9  2  0
 11 12  2  0
 11 10  1  0
 12  7  1  0
 13 14  2  0
 16 15  1  0
 16 17  1  0
 18 17  1  0
 19 18  1  1
 19 21  1  0
 20 13  1  0
 20 19  1  0
 21 22  2  0
 24 23  1  6
 24 26  1  0
 25 24  1  0
 26 28  1  0
 26 27  1  1
 27 21  1  0
 28 29  2  0
 28 30  1  0
M  END
$$$$
