WMT.pdb
     RDKit          3D

 30 31  0  0  1  0  0  0  0  0999 V2000
   28.5507  -20.9715  -15.1584 N   0  0  0  0  0  0  0  0  0  0  0  0
   27.4667  -20.1023  -14.7865 C   0  0  1  0  0  0  0  0  0  0  0  0
   26.6268  -19.6630  -15.9601 C   0  0  0  0  0  0  0  0  0  0  0  0
   27.2690  -18.5835  -16.7344 C   0  0  0  0  0  0  0  0  0  0  0  0
   28.0485  -18.7647  -17.8481 C   0  0  0  0  0  0  0  0  0  0  0  0
   28.4374  -17.5467  -18.2504 N   0  0  0  0  0  0  0  0  0  0  0  0
   27.9371  -16.5981  -17.4381 C   0  0  0  0  0  0  0  0  0  0  0  0
   28.0232  -15.2177  -17.3963 C   0  0  0  0  0  0  0  0  0  0  0  0
   27.3872  -14.4937  -16.4197 C   0  0  0  0  0  0  0  0  0  0  0  0
   26.6375  -15.1129  -15.4417 C   0  0  0  0  0  0  0  0  0  0  0  0
   26.5532  -16.4852  -15.4850 C   0  0  0  0  0  0  0  0  0  0  0  0
   27.1797  -17.2430  -16.4522 C   0  0  0  0  0  0  0  0  0  0  0  0
   26.5628  -20.7411  -13.7933 C   0  0  0  0  0  0  0  0  0  0  0  0
   26.2309  -21.9565  -14.0119 O   0  0  0  0  0  0  0  0  0  0  0  0
   25.7873  -21.3177   -7.0499 C   0  0  0  0  0  0  0  0  0  0  0  0
   27.0614  -20.5408   -8.1020 S   0  0  0  0  0  0  0  0  0  0  0  0
   26.7645  -20.9190   -9.8508 C   0  0  0  0  0  0  0  0  0  0  0  0
   25.4823  -20.3831  -10.3560 C   0  0  0  0  0  0  0  0  0  0  0  0
   25.1432  -20.7384  -11.7732 C   0  0  2  0  0  0  0  0  0  0  0  0
   26.0958  -20.0410  -12.6674 N   0  0  0  0  0  0  0  0  0  0  0  0
   23.7662  -20.4370  -12.1914 C   0  0  0  0  0  0  0  0  0  0  0  0
   23.4296  -19.2129  -12.4299 O   0  0  0  0  0  0  0  0  0  0  0  0
   21.7533  -21.5432  -15.1789 C   0  0  0  0  0  0  0  0  0  0  0  0
   20.8557  -21.7671  -13.9644 C   0  0  1  0  0  0  0  0  0  0  0  0
   20.9760  -23.1328  -13.6753 O   0  0  0  0  0  0  0  0  0  0  0  0
   21.3862  -20.9536  -12.8176 C   0  0  2  0  0  0  0  0  0  0  0  0
   22.7024  -21.3389  -12.3847 N   0  0  0  0  0  0  0  0  0  0  0  0
   20.4313  -21.0024  -11.6786 C   0  0  0  0  0  0  0  0  0  0  0  0
   20.7750  -21.3899  -10.5275 O   0  0  0  0  0  0  0  0  0  0  0  0
   19.1052  -20.6193  -11.8331 O   0  0  0  0  0  0  0  0  0  0  0  0
  2  1  1  6
  2  3  1  0
  2 13  1  0
  3  4  1  0
  4 12  1  0
  4  5  2  0
  5  6  1  0
  7  6  1  0
  7  8  2  0
  9  8  1  0
 10  9  2  0
 11 12  2  0
 11 10  1  0
 12  7  1  0
 13 14  2  0
 16 15  1  0
 16 17  1  0
 18 17  1  0
 19 18  1  1
 19 21  1  0
 20 13  1  0
 20 19  1  0
 21 22  2  0
 24 23  1  6
 24 26  1  0
 25 24  1  0
 26 28  1  0
 26 27  1  1
 27 21  1  0
 28 29  2  0
 28 30  1  0
M  END
$$$$
