WMT.pdb
     RDKit          3D

 30 31  0  0  1  0  0  0  0  0999 V2000
   27.4940  -21.6885  -15.0506 N   0  0  0  0  0  0  0  0  0  0  0  0
   27.5097  -20.6438  -14.0621 C   0  0  1  0  0  0  0  0  0  0  0  0
   26.7297  -19.4208  -14.4766 C   0  0  0  0  0  0  0  0  0  0  0  0
   27.2522  -18.8187  -15.7183 C   0  0  0  0  0  0  0  0  0  0  0  0
   26.5229  -18.5995  -16.8589 C   0  0  0  0  0  0  0  0  0  0  0  0
   27.3555  -18.0418  -17.7491 N   0  0  0  0  0  0  0  0  0  0  0  0
   28.5846  -17.8975  -17.2214 C   0  0  0  0  0  0  0  0  0  0  0  0
   29.7850  -17.3940  -17.6908 C   0  0  0  0  0  0  0  0  0  0  0  0
   30.9070  -17.3759  -16.9014 C   0  0  0  0  0  0  0  0  0  0  0  0
   30.8827  -17.8584  -15.6097 C   0  0  0  0  0  0  0  0  0  0  0  0
   29.6885  -18.3585  -15.1450 C   0  0  0  0  0  0  0  0  0  0  0  0
   28.5424  -18.3918  -15.9116 C   0  0  0  0  0  0  0  0  0  0  0  0
   26.9672  -21.1095  -12.7582 C   0  0  0  0  0  0  0  0  0  0  0  0
   26.1539  -22.0958  -12.7897 O   0  0  0  0  0  0  0  0  0  0  0  0
   26.7332  -20.3800   -4.8633 C   0  0  0  0  0  0  0  0  0  0  0  0
   27.4987  -19.8500   -6.4339 S   0  0  0  0  0  0  0  0  0  0  0  0
   26.5540  -20.4771   -7.8494 C   0  0  0  0  0  0  0  0  0  0  0  0
   27.2193  -20.2398   -9.1485 C   0  0  0  0  0  0  0  0  0  0  0  0
   26.5197  -20.8042  -10.3493 C   0  0  2  0  0  0  0  0  0  0  0  0
   27.3320  -20.4940  -11.5482 N   0  0  0  0  0  0  0  0  0  0  0  0
   25.1402  -20.3401  -10.5569 C   0  0  0  0  0  0  0  0  0  0  0  0
   24.9252  -19.0993  -10.8449 O   0  0  0  0  0  0  0  0  0  0  0  0
   23.1318  -20.4428  -13.2180 C   0  0  0  0  0  0  0  0  0  0  0  0
   22.1531  -20.9695  -12.1713 C   0  0  1  0  0  0  0  0  0  0  0  0
   22.1936  -22.3632  -12.3102 O   0  0  0  0  0  0  0  0  0  0  0  0
   22.6494  -20.5774  -10.8081 C   0  0  2  0  0  0  0  0  0  0  0  0
   23.9528  -21.0937  -10.4878 N   0  0  0  0  0  0  0  0  0  0  0  0
   21.6619  -20.9855   -9.7737 C   0  0  0  0  0  0  0  0  0  0  0  0
   21.9740  -21.7241   -8.7988 O   0  0  0  0  0  0  0  0  0  0  0  0
   20.3389  -20.5672   -9.8356 O   0  0  0  0  0  0  0  0  0  0  0  0
  2  1  1  6
  2  3  1  0
  2 13  1  0
  3  4  1  0
  4 12  1  0
  4  5  2  0
  5  6  1  0
  7  6  1  0
  7  8  2  0
  9  8  1  0
 10  9  2  0
 11 12  2  0
 11 10  1  0
 12  7  1  0
 13 14  2  0
 16 15  1  0
 16 17  1  0
 18 17  1  0
 19 18  1  1
 19 21  1  0
 20 13  1  0
 20 19  1  0
 21 22  2  0
 24 23  1  6
 24 26  1  0
 25 24  1  0
 26 28  1  0
 26 27  1  1
 27 21  1  0
 28 29  2  0
 28 30  1  0
M  END
$$$$
