WMT.pdb
     RDKit          3D

 30 31  0  0  1  0  0  0  0  0999 V2000
   28.4594  -21.3994  -15.0659 N   0  0  0  0  0  0  0  0  0  0  0  0
   27.8275  -20.4026  -14.2436 C   0  0  1  0  0  0  0  0  0  0  0  0
   26.7797  -19.6030  -14.9773 C   0  0  0  0  0  0  0  0  0  0  0  0
   27.3727  -18.6500  -15.9352 C   0  0  0  0  0  0  0  0  0  0  0  0
   27.8727  -18.9771  -17.1697 C   0  0  0  0  0  0  0  0  0  0  0  0
   28.3151  -17.8387  -17.7219 N   0  0  0  0  0  0  0  0  0  0  0  0
   28.1169  -16.8008  -16.8891 C   0  0  0  0  0  0  0  0  0  0  0  0
   28.3789  -15.4438  -16.9566 C   0  0  0  0  0  0  0  0  0  0  0  0
   28.0561  -14.6038  -15.9209 C   0  0  0  0  0  0  0  0  0  0  0  0
   27.4581  -15.0786  -14.7725 C   0  0  0  0  0  0  0  0  0  0  0  0
   27.1986  -16.4279  -14.7073 C   0  0  0  0  0  0  0  0  0  0  0  0
   27.5101  -17.2998  -15.7296 C   0  0  0  0  0  0  0  0  0  0  0  0
   27.1852  -21.0029  -13.0443 C   0  0  0  0  0  0  0  0  0  0  0  0
   26.6661  -22.1629  -13.1862 O   0  0  0  0  0  0  0  0  0  0  0  0
   27.6937  -20.7734   -6.1122 C   0  0  0  0  0  0  0  0  0  0  0  0
   26.2356  -19.8823   -6.7555 S   0  0  0  0  0  0  0  0  0  0  0  0
   25.6964  -20.5940   -8.3341 C   0  0  0  0  0  0  0  0  0  0  0  0
   26.5770  -20.2387   -9.4676 C   0  0  0  0  0  0  0  0  0  0  0  0
   26.1728  -20.7912  -10.8022 C   0  0  2  0  0  0  0  0  0  0  0  0
   27.1507  -20.3262  -11.8126 N   0  0  0  0  0  0  0  0  0  0  0  0
   24.8118  -20.4530  -11.2437 C   0  0  0  0  0  0  0  0  0  0  0  0
   24.5366  -19.2349  -11.5740 O   0  0  0  0  0  0  0  0  0  0  0  0
   23.0418  -21.2809  -14.2388 C   0  0  0  0  0  0  0  0  0  0  0  0
   22.0224  -21.6115  -13.1515 C   0  0  1  0  0  0  0  0  0  0  0  0
   22.1202  -22.9983  -12.9766 O   0  0  0  0  0  0  0  0  0  0  0  0
   22.4234  -20.9075  -11.8858 C   0  0  2  0  0  0  0  0  0  0  0  0
   23.7034  -21.3121  -11.3701 N   0  0  0  0  0  0  0  0  0  0  0  0
   21.3688  -21.0852  -10.8524 C   0  0  0  0  0  0  0  0  0  0  0  0
   21.6195  -21.5552   -9.7081 O   0  0  0  0  0  0  0  0  0  0  0  0
   20.0477  -20.7378  -11.1038 O   0  0  0  0  0  0  0  0  0  0  0  0
  2  1  1  6
  2  3  1  0
  2 13  1  0
  3  4  1  0
  4 12  1  0
  4  5  2  0
  5  6  1  0
  7  6  1  0
  7  8  2  0
  9  8  1  0
 10  9  2  0
 11 12  2  0
 11 10  1  0
 12  7  1  0
 13 14  2  0
 16 15  1  0
 16 17  1  0
 18 17  1  0
 19 18  1  1
 19 21  1  0
 20 13  1  0
 20 19  1  0
 21 22  2  0
 24 23  1  6
 24 26  1  0
 25 24  1  0
 26 28  1  0
 26 27  1  1
 27 21  1  0
 28 29  2  0
 28 30  1  0
M  END
$$$$
