TKP.pdb
     RDKit          3D

 24 24  0  0  1  0  0  0  0  0999 V2000
    8.7390  -12.4599   20.3458 C   0  0  0  0  0  0  0  0  0  0  0  0
    8.1676  -13.4593   19.3535 C   0  0  1  0  0  0  0  0  0  0  0  0
    8.8638  -13.3981   18.1543 O   0  0  0  0  0  0  0  0  0  0  0  0
    8.2395  -14.8180   19.9872 C   0  0  2  0  0  0  0  0  0  0  0  0
    7.9427  -15.8566   19.0489 N   0  0  0  0  0  0  0  0  0  0  0  0
    7.4226  -14.9271   21.2217 C   0  0  0  0  0  0  0  0  0  0  0  0
    6.1710  -14.9269   21.2157 O   0  0  0  0  0  0  0  0  0  0  0  0
    8.1143  -15.0361   22.4578 N   0  0  0  0  0  0  0  0  0  0  0  0
    7.3901  -15.3068   23.7188 C   0  0  1  0  0  0  0  0  0  0  0  0
    7.4649  -16.8379   23.7952 C   0  0  0  0  0  0  0  0  0  0  0  0
    6.3292  -17.5342   23.1527 C   0  0  0  0  0  0  0  0  0  0  0  0
    6.4767  -19.0594   23.3296 C   0  0  0  0  0  0  0  0  0  0  0  0
    5.3770  -19.7699   22.5630 C   0  0  0  0  0  0  0  0  0  0  0  0
    5.6495  -21.1938   22.6717 N   0  0  0  0  0  0  0  0  0  0  0  0
    8.2782  -14.7639   24.8142 C   0  0  0  0  0  0  0  0  0  0  0  0
    9.3813  -15.3952   24.9095 O   0  0  0  0  0  0  0  0  0  0  0  0
    7.8955  -13.6866   25.6093 N   0  0  0  0  0  0  0  0  0  0  0  0
    7.0254  -12.5851   25.1384 C   0  0  0  0  0  0  0  0  0  0  0  0
    6.1201  -12.3075   26.3136 C   0  0  0  0  0  0  0  0  0  0  0  0
    6.6773  -13.1504   27.4296 C   0  0  0  0  0  0  0  0  0  0  0  0
    8.1528  -13.3222   26.9495 C   0  0  1  0  0  0  0  0  0  0  0  0
    8.8586  -14.2170   27.8358 C   0  0  0  0  0  0  0  0  0  0  0  0
    9.6807  -13.6642   28.8275 O   0  0  0  0  0  0  0  0  0  0  0  0
    8.8035  -15.4449   27.7995 O   0  0  0  0  0  0  0  0  0  0  0  0
  2  1  1  1
  2  3  1  0
  4  2  1  0
  4  5  1  6
  6  4  1  0
  7  6  2  0
  8  6  1  0
  9  8  1  0
 10 11  1  0
  9 10  1  1
 12 11  1  0
 13 14  1  0
 13 12  1  0
 15 17  1  0
 15  9  1  0
 16 15  2  0
 17 18  1  0
 19 18  1  0
 20 19  1  0
 21 17  1  0
 21 20  1  0
 22 23  1  0
 21 22  1  1
 24 22  2  0
M  END
$$$$
