TKP.pdb
     RDKit          3D

 24 24  0  0  1  0  0  0  0  0999 V2000
    8.5729  -12.3865   20.5657 C   0  0  0  0  0  0  0  0  0  0  0  0
    8.0871  -13.3020   19.4540 C   0  0  1  0  0  0  0  0  0  0  0  0
    8.8278  -13.0912   18.2992 O   0  0  0  0  0  0  0  0  0  0  0  0
    8.1937  -14.7141   19.9513 C   0  0  2  0  0  0  0  0  0  0  0  0
    7.8676  -15.6615   18.9300 N   0  0  0  0  0  0  0  0  0  0  0  0
    7.4270  -14.9495   21.2003 C   0  0  0  0  0  0  0  0  0  0  0  0
    6.1859  -15.1106   21.2207 O   0  0  0  0  0  0  0  0  0  0  0  0
    8.1559  -14.9900   22.4190 N   0  0  0  0  0  0  0  0  0  0  0  0
    7.5242  -15.4534   23.6736 C   0  0  1  0  0  0  0  0  0  0  0  0
    7.8275  -16.9575   23.6348 C   0  0  0  0  0  0  0  0  0  0  0  0
    7.3029  -17.7128   24.7932 C   0  0  0  0  0  0  0  0  0  0  0  0
    6.9985  -19.1676   24.3807 C   0  0  0  0  0  0  0  0  0  0  0  0
    6.4643  -19.9348   25.5756 C   0  0  0  0  0  0  0  0  0  0  0  0
    5.9829  -21.2094   25.0682 N   0  0  0  0  0  0  0  0  0  0  0  0
    8.3596  -14.8607   24.7844 C   0  0  0  0  0  0  0  0  0  0  0  0
    9.4984  -15.4223   24.8950 O   0  0  0  0  0  0  0  0  0  0  0  0
    7.8981  -13.8127   25.5769 N   0  0  0  0  0  0  0  0  0  0  0  0
    6.8593  -12.8504   25.1445 C   0  0  0  0  0  0  0  0  0  0  0  0
    6.0135  -12.6480   26.3780 C   0  0  0  0  0  0  0  0  0  0  0  0
    6.7561  -13.3703   27.4703 C   0  0  0  0  0  0  0  0  0  0  0  0
    8.2025  -13.3688   26.8828 C   0  0  1  0  0  0  0  0  0  0  0  0
    9.0821  -14.1319   27.7362 C   0  0  0  0  0  0  0  0  0  0  0  0
    8.9273  -15.5243   27.7811 O   0  0  0  0  0  0  0  0  0  0  0  0
    9.9730  -13.6623   28.4419 O   0  0  0  0  0  0  0  0  0  0  0  0
  2  1  1  1
  2  3  1  0
  4  2  1  0
  4  5  1  6
  6  4  1  0
  7  6  2  0
  8  6  1  0
  9  8  1  0
 10 11  1  0
  9 10  1  6
 12 11  1  0
 13 14  1  0
 13 12  1  0
 15 17  1  0
 15  9  1  0
 16 15  2  0
 17 18  1  0
 19 18  1  0
 20 19  1  0
 21 17  1  0
 21 20  1  0
 22 23  1  0
 21 22  1  1
 24 22  2  0
M  END
$$$$
