TKP.pdb
     RDKit          3D

 24 24  0  0  1  0  0  0  0  0999 V2000
    9.7892  -14.3685   18.3593 C   0  0  0  0  0  0  0  0  0  0  0  0
    9.5024  -14.2565   19.8477 C   0  0  1  0  0  0  0  0  0  0  0  0
   10.2944  -13.2689   20.4170 O   0  0  0  0  0  0  0  0  0  0  0  0
    8.0367  -13.9756   20.0064 C   0  0  2  0  0  0  0  0  0  0  0  0
    7.6580  -12.7562   19.3607 N   0  0  0  0  0  0  0  0  0  0  0  0
    7.5853  -14.0256   21.4196 C   0  0  0  0  0  0  0  0  0  0  0  0
    7.1568  -13.0243   22.0364 O   0  0  0  0  0  0  0  0  0  0  0  0
    7.6513  -15.2792   22.0847 N   0  0  0  0  0  0  0  0  0  0  0  0
    7.0711  -15.4617   23.4329 C   0  0  1  0  0  0  0  0  0  0  0  0
    7.1400  -16.9864   23.5949 C   0  0  0  0  0  0  0  0  0  0  0  0
    6.6858  -17.4781   24.9138 C   0  0  0  0  0  0  0  0  0  0  0  0
    7.3106  -18.8577   25.2067 C   0  0  0  0  0  0  0  0  0  0  0  0
    6.8078  -19.3714   26.5427 C   0  0  0  0  0  0  0  0  0  0  0  0
    7.5363  -20.5996   26.8152 N   0  0  0  0  0  0  0  0  0  0  0  0
    8.0816  -14.8680   24.3867 C   0  0  0  0  0  0  0  0  0  0  0  0
    9.2165  -15.4443   24.3204 O   0  0  0  0  0  0  0  0  0  0  0  0
    7.7664  -13.8044   25.2286 N   0  0  0  0  0  0  0  0  0  0  0  0
    6.8486  -12.7042   24.8554 C   0  0  0  0  0  0  0  0  0  0  0  0
    6.0540  -12.4496   26.1130 C   0  0  0  0  0  0  0  0  0  0  0  0
    6.7181  -13.3024   27.1609 C   0  0  0  0  0  0  0  0  0  0  0  0
    8.1440  -13.4555   26.5442 C   0  0  1  0  0  0  0  0  0  0  0  0
    8.9353  -14.3558   27.3490 C   0  0  0  0  0  0  0  0  0  0  0  0
    9.7419  -13.8149   28.3598 O   0  0  0  0  0  0  0  0  0  0  0  0
    8.9669  -15.5790   27.2263 O   0  0  0  0  0  0  0  0  0  0  0  0
  2  1  1  6
  2  3  1  0
  4  2  1  0
  4  5  1  1
  6  4  1  0
  7  6  2  0
  8  6  1  0
  9  8  1  0
 10 11  1  0
  9 10  1  1
 12 11  1  0
 13 14  1  0
 13 12  1  0
 15 17  1  0
 15  9  1  0
 16 15  2  0
 17 18  1  0
 19 18  1  0
 20 19  1  0
 21 17  1  0
 21 20  1  0
 22 23  1  0
 21 22  1  1
 24 22  2  0
M  END
$$$$
