TKP.pdb
     RDKit          3D

 24 24  0  0  1  0  0  0  0  0999 V2000
    9.7980  -16.5634   21.2689 C   0  0  0  0  0  0  0  0  0  0  0  0
    9.5775  -15.2852   20.4767 C   0  0  1  0  0  0  0  0  0  0  0  0
    9.4808  -15.5700   19.1216 O   0  0  0  0  0  0  0  0  0  0  0  0
    8.3387  -14.6287   21.0124 C   0  0  2  0  0  0  0  0  0  0  0  0
    7.8315  -13.6395   20.1115 N   0  0  0  0  0  0  0  0  0  0  0  0
    8.5106  -14.0988   22.3882 C   0  0  0  0  0  0  0  0  0  0  0  0
    8.8137  -12.9087   22.6297 O   0  0  0  0  0  0  0  0  0  0  0  0
    8.3175  -15.0023   23.4674 N   0  0  0  0  0  0  0  0  0  0  0  0
    8.3547  -14.5372   24.8710 C   0  0  1  0  0  0  0  0  0  0  0  0
    6.8902  -14.7151   25.2942 C   0  0  0  0  0  0  0  0  0  0  0  0
    6.0453  -13.5212   25.0746 C   0  0  0  0  0  0  0  0  0  0  0  0
    6.0379  -12.6396   26.3403 C   0  0  0  0  0  0  0  0  0  0  0  0
    5.1991  -11.3999   26.0927 C   0  0  0  0  0  0  0  0  0  0  0  0
    5.2739  -10.6002   27.3046 N   0  0  0  0  0  0  0  0  0  0  0  0
    9.1611  -15.5762   25.6150 C   0  0  0  0  0  0  0  0  0  0  0  0
    8.8784  -16.7661   25.2561 O   0  0  0  0  0  0  0  0  0  0  0  0
   10.1032  -15.2283   26.5798 N   0  0  0  0  0  0  0  0  0  0  0  0
   10.5881  -13.8460   26.7948 C   0  0  0  0  0  0  0  0  0  0  0  0
   10.6820  -13.7219   28.2960 C   0  0  0  0  0  0  0  0  0  0  0  0
   10.4220  -15.1131   28.8091 C   0  0  0  0  0  0  0  0  0  0  0  0
   10.8153  -15.9584   27.5570 C   0  0  1  0  0  0  0  0  0  0  0  0
   10.5267  -17.3531   27.7931 C   0  0  0  0  0  0  0  0  0  0  0  0
    9.2043  -17.7236   28.0739 O   0  0  0  0  0  0  0  0  0  0  0  0
   11.3519  -18.2645   27.7699 O   0  0  0  0  0  0  0  0  0  0  0  0
  2  1  1  1
  2  3  1  0
  4  2  1  0
  4  5  1  6
  6  4  1  0
  7  6  2  0
  8  6  1  0
  9  8  1  0
 10 11  1  0
  9 10  1  1
 12 11  1  0
 13 14  1  0
 13 12  1  0
 15 17  1  0
 15  9  1  0
 16 15  2  0
 17 18  1  0
 19 18  1  0
 20 19  1  0
 21 17  1  0
 21 20  1  0
 22 23  1  0
 21 22  1  1
 24 22  2  0
M  END
$$$$
