TKP.pdb
     RDKit          3D

 24 24  0  0  1  0  0  0  0  0999 V2000
    7.2962  -12.4918   19.6899 C   0  0  0  0  0  0  0  0  0  0  0  0
    7.7082  -13.9363   19.4583 C   0  0  1  0  0  0  0  0  0  0  0  0
    8.3872  -14.0555   18.2535 O   0  0  0  0  0  0  0  0  0  0  0  0
    8.5443  -14.3621   20.6298 C   0  0  2  0  0  0  0  0  0  0  0  0
    9.2447  -15.5814   20.3656 N   0  0  0  0  0  0  0  0  0  0  0  0
    7.7782  -14.4192   21.8999 C   0  0  0  0  0  0  0  0  0  0  0  0
    7.0424  -13.4878   22.2971 O   0  0  0  0  0  0  0  0  0  0  0  0
    7.9003  -15.5958   22.6866 N   0  0  0  0  0  0  0  0  0  0  0  0
    7.2784  -15.6894   24.0253 C   0  0  1  0  0  0  0  0  0  0  0  0
    7.3239  -17.2019   24.2819 C   0  0  0  0  0  0  0  0  0  0  0  0
    6.8987  -17.6002   25.6414 C   0  0  0  0  0  0  0  0  0  0  0  0
    7.2706  -19.0747   25.9000 C   0  0  0  0  0  0  0  0  0  0  0  0
    6.7974  -19.4846   27.2819 C   0  0  0  0  0  0  0  0  0  0  0  0
    7.0005  -20.9208   27.3804 N   0  0  0  0  0  0  0  0  0  0  0  0
    8.2674  -15.0488   24.9711 C   0  0  0  0  0  0  0  0  0  0  0  0
    9.3565  -15.7050   25.0605 O   0  0  0  0  0  0  0  0  0  0  0  0
    7.9811  -13.8672   25.6503 N   0  0  0  0  0  0  0  0  0  0  0  0
    7.0518  -12.8319   25.1435 C   0  0  0  0  0  0  0  0  0  0  0  0
    6.2998  -12.3836   26.3728 C   0  0  0  0  0  0  0  0  0  0  0  0
    6.9982  -13.0697   27.5165 C   0  0  0  0  0  0  0  0  0  0  0  0
    8.4026  -13.3233   26.8838 C   0  0  1  0  0  0  0  0  0  0  0  0
    9.2199  -14.0943   27.7904 C   0  0  0  0  0  0  0  0  0  0  0  0
   10.3381  -13.4789   28.3698 O   0  0  0  0  0  0  0  0  0  0  0  0
    9.0206  -15.2656   28.1072 O   0  0  0  0  0  0  0  0  0  0  0  0
  2  1  1  1
  2  3  1  0
  4  2  1  0
  4  5  1  6
  6  4  1  0
  7  6  2  0
  8  6  1  0
  9  8  1  0
 10 11  1  0
  9 10  1  1
 12 11  1  0
 13 14  1  0
 13 12  1  0
 15 17  1  0
 15  9  1  0
 16 15  2  0
 17 18  1  0
 19 18  1  0
 20 19  1  0
 21 17  1  0
 21 20  1  0
 22 23  1  0
 21 22  1  1
 24 22  2  0
M  END
$$$$
