TKP.pdb
     RDKit          3D

 24 24  0  0  1  0  0  0  0  0999 V2000
    9.6969  -13.6462   21.3661 C   0  0  0  0  0  0  0  0  0  0  0  0
    8.6142  -13.2488   20.3762 C   0  0  1  0  0  0  0  0  0  0  0  0
    9.1545  -13.1016   19.1061 O   0  0  0  0  0  0  0  0  0  0  0  0
    7.5475  -14.3035   20.4245 C   0  0  2  0  0  0  0  0  0  0  0  0
    6.5190  -14.0614   19.4596 N   0  0  0  0  0  0  0  0  0  0  0  0
    6.9993  -14.5133   21.7878 C   0  0  0  0  0  0  0  0  0  0  0  0
    6.0731  -13.8207   22.2665 O   0  0  0  0  0  0  0  0  0  0  0  0
    7.5673  -15.5547   22.5695 N   0  0  0  0  0  0  0  0  0  0  0  0
    7.1366  -15.7859   23.9655 C   0  0  1  0  0  0  0  0  0  0  0  0
    7.2239  -17.3149   24.0664 C   0  0  0  0  0  0  0  0  0  0  0  0
    6.9019  -17.8545   25.4053 C   0  0  0  0  0  0  0  0  0  0  0  0
    7.1419  -19.3779   25.4323 C   0  0  0  0  0  0  0  0  0  0  0  0
    6.7509  -19.9313   26.7897 C   0  0  0  0  0  0  0  0  0  0  0  0
    7.1621  -21.3257   26.8028 N   0  0  0  0  0  0  0  0  0  0  0  0
    8.2439  -15.2205   24.8242 C   0  0  0  0  0  0  0  0  0  0  0  0
    9.3076  -15.9213   24.7773 O   0  0  0  0  0  0  0  0  0  0  0  0
    8.0793  -14.0554   25.5691 N   0  0  0  0  0  0  0  0  0  0  0  0
    7.2144  -12.9283   25.1523 C   0  0  0  0  0  0  0  0  0  0  0  0
    6.5507  -12.4849   26.4332 C   0  0  0  0  0  0  0  0  0  0  0  0
    7.2391  -13.2780   27.5119 C   0  0  0  0  0  0  0  0  0  0  0  0
    8.5923  -13.6069   26.8063 C   0  0  1  0  0  0  0  0  0  0  0  0
    9.3827  -14.4820   27.6392 C   0  0  0  0  0  0  0  0  0  0  0  0
   10.4727  -13.9389   28.3335 O   0  0  0  0  0  0  0  0  0  0  0  0
    9.1832  -15.6848   27.7984 O   0  0  0  0  0  0  0  0  0  0  0  0
  2  1  1  1
  2  3  1  0
  4  2  1  0
  4  5  1  6
  6  4  1  0
  7  6  2  0
  8  6  1  0
  9  8  1  0
 10 11  1  0
  9 10  1  6
 12 11  1  0
 13 14  1  0
 13 12  1  0
 15 17  1  0
 15  9  1  0
 16 15  2  0
 17 18  1  0
 19 18  1  0
 20 19  1  0
 21 17  1  0
 21 20  1  0
 22 23  1  0
 21 22  1  1
 24 22  2  0
M  END
$$$$
