TKP.pdb
     RDKit          3D

 24 24  0  0  1  0  0  0  0  0999 V2000
    8.2618  -12.4767   20.5680 C   0  0  0  0  0  0  0  0  0  0  0  0
    7.9458  -13.5664   19.5567 C   0  0  1  0  0  0  0  0  0  0  0  0
    8.7432  -13.4223   18.4296 O   0  0  0  0  0  0  0  0  0  0  0  0
    8.1514  -14.8885   20.2367 C   0  0  2  0  0  0  0  0  0  0  0  0
    7.9965  -15.9819   19.3270 N   0  0  0  0  0  0  0  0  0  0  0  0
    7.3194  -15.0504   21.4552 C   0  0  0  0  0  0  0  0  0  0  0  0
    6.1347  -15.4533   21.4258 O   0  0  0  0  0  0  0  0  0  0  0  0
    7.9156  -14.7273   22.7036 N   0  0  0  0  0  0  0  0  0  0  0  0
    7.3273  -15.1965   23.9770 C   0  0  1  0  0  0  0  0  0  0  0  0
    7.5995  -16.7053   23.9055 C   0  0  0  0  0  0  0  0  0  0  0  0
    7.1273  -17.4640   25.0840 C   0  0  0  0  0  0  0  0  0  0  0  0
    7.4983  -18.9539   24.9359 C   0  0  0  0  0  0  0  0  0  0  0  0
    6.9495  -19.7351   26.1149 C   0  0  0  0  0  0  0  0  0  0  0  0
    7.3876  -21.1104   25.9408 N   0  0  0  0  0  0  0  0  0  0  0  0
    8.2193  -14.6354   25.0600 C   0  0  0  0  0  0  0  0  0  0  0  0
    9.2976  -15.3003   25.2008 O   0  0  0  0  0  0  0  0  0  0  0  0
    7.8647  -13.5099   25.7995 N   0  0  0  0  0  0  0  0  0  0  0  0
    6.9996  -12.4253   25.2824 C   0  0  0  0  0  0  0  0  0  0  0  0
    6.1198  -12.0698   26.4561 C   0  0  0  0  0  0  0  0  0  0  0  0
    6.6873  -12.8556   27.6079 C   0  0  0  0  0  0  0  0  0  0  0  0
    8.1514  -13.0739   27.1120 C   0  0  1  0  0  0  0  0  0  0  0  0
    8.8626  -13.9265   28.0349 C   0  0  0  0  0  0  0  0  0  0  0  0
    9.8341  -13.3495   28.8645 O   0  0  0  0  0  0  0  0  0  0  0  0
    8.6906  -15.1373   28.1622 O   0  0  0  0  0  0  0  0  0  0  0  0
  2  1  1  1
  2  3  1  0
  4  2  1  0
  4  5  1  6
  6  4  1  0
  7  6  2  0
  8  6  1  0
  9  8  1  0
 10 11  1  0
  9 10  1  6
 12 11  1  0
 13 14  1  0
 13 12  1  0
 15 17  1  0
 15  9  1  0
 16 15  2  0
 17 18  1  0
 19 18  1  0
 20 19  1  0
 21 17  1  0
 21 20  1  0
 22 23  1  0
 21 22  1  1
 24 22  2  0
M  END
$$$$
