ECY.pdb
     RDKit          3D

 28 28  0  0  1  0  0  0  0  0999 V2000
   24.8730  -36.3034    2.4383 N   0  0  0  0  0  0  0  0  0  0  0  0
   24.9517  -36.8745    1.0732 C   0  0  1  0  0  0  0  0  0  0  0  0
   23.5831  -36.9151    0.4694 C   0  0  0  0  0  0  0  0  0  0  0  0
   22.8165  -38.1061    0.9043 C   0  0  0  0  0  0  0  0  0  0  0  0
   21.7411  -37.8145    1.8689 C   0  0  0  0  0  0  0  0  0  0  0  0
   21.0307  -38.7091    2.3354 O   0  0  0  0  0  0  0  0  0  0  0  0
   25.8175  -35.9339    0.2914 C   0  0  0  0  0  0  0  0  0  0  0  0
   25.6754  -34.6783    0.4082 O   0  0  0  0  0  0  0  0  0  0  0  0
   21.5707  -36.4713    2.2254 O   0  0  0  0  0  0  0  0  0  0  0  0
   26.8269  -36.3711   -0.6074 N   0  0  0  0  0  0  0  0  0  0  0  0
   27.6654  -35.3985   -1.2779 C   0  0  1  0  0  0  0  0  0  0  0  0
   29.1183  -35.8266   -1.2356 C   0  0  0  0  0  0  0  0  0  0  0  0
   29.8740  -35.4183    0.3475 S   0  0  0  0  0  0  0  0  0  0  0  0
   27.3002  -35.2553   -2.7041 C   0  0  0  0  0  0  0  0  0  0  0  0
   26.8786  -36.2633   -3.3182 O   0  0  0  0  0  0  0  0  0  0  0  0
   25.3543  -32.0746  -10.5757 O   0  0  0  0  0  0  0  0  0  0  0  0
   25.8291  -32.1609   -9.2766 C   0  0  0  0  0  0  0  0  0  0  0  0
   24.9581  -32.0593   -8.1959 C   0  0  0  0  0  0  0  0  0  0  0  0
   25.4281  -32.1446   -6.9082 C   0  0  0  0  0  0  0  0  0  0  0  0
   26.7656  -32.3323   -6.6258 C   0  0  0  0  0  0  0  0  0  0  0  0
   27.2223  -32.4176   -5.2058 C   0  0  0  0  0  0  0  0  0  0  0  0
   27.1003  -33.8874   -4.8173 C   0  0  2  0  0  0  0  0  0  0  0  0
   27.4046  -34.0317   -3.4074 N   0  0  0  0  0  0  0  0  0  0  0  0
   28.0301  -34.7143   -5.6065 C   0  0  0  0  0  0  0  0  0  0  0  0
   29.2647  -34.7517   -5.3685 O   0  0  0  0  0  0  0  0  0  0  0  0
   27.6350  -32.4342   -7.6870 C   0  0  0  0  0  0  0  0  0  0  0  0
   27.1665  -32.3488   -8.9868 C   0  0  0  0  0  0  0  0  0  0  0  0
   27.5548  -35.4900   -6.6558 O   0  0  0  0  0  0  0  0  0  0  0  0
  2  1  1  1
  3  2  1  0
  3  4  1  0
  4  5  1  0
  5  9  1  0
  5  6  2  0
  7  2  1  0
  8  7  2  0
 10  7  1  0
 11 14  1  0
 11 10  1  0
 11 12  1  6
 13 12  1  0
 14 23  1  0
 15 14  2  0
 16 17  1  0
 17 18  2  0
 17 27  1  0
 18 19  1  0
 19 20  2  0
 20 21  1  0
 22 21  1  6
 22 24  1  0
 23 22  1  0
 24 25  2  0
 24 28  1  0
 26 20  1  0
 27 26  2  0
M  END
$$$$
