ECY.pdb
     RDKit          3D

 28 28  0  0  1  0  0  0  0  0999 V2000
   19.7833  -13.5865  -16.5373 N   0  0  0  0  0  0  0  0  0  0  0  0
   19.7923  -12.2830  -17.2420 C   0  0  1  0  0  0  0  0  0  0  0  0
   18.3847  -11.8318  -17.4750 C   0  0  0  0  0  0  0  0  0  0  0  0
   17.7204  -12.6078  -18.5482 C   0  0  0  0  0  0  0  0  0  0  0  0
   17.1054  -13.8671  -18.0923 C   0  0  0  0  0  0  0  0  0  0  0  0
   17.1307  -14.2069  -16.9062 O   0  0  0  0  0  0  0  0  0  0  0  0
   20.4787  -11.3273  -16.3142 C   0  0  0  0  0  0  0  0  0  0  0  0
   20.0831  -11.1952  -15.1157 O   0  0  0  0  0  0  0  0  0  0  0  0
   16.4930  -14.6536  -19.0754 O   0  0  0  0  0  0  0  0  0  0  0  0
   21.5867  -10.5274  -16.7019 N   0  0  0  0  0  0  0  0  0  0  0  0
   22.2773   -9.7249  -15.7131 C   0  0  1  0  0  0  0  0  0  0  0  0
   23.7760   -9.9230  -15.8167 C   0  0  0  0  0  0  0  0  0  0  0  0
   24.2685  -11.5316  -15.1733 S   0  0  0  0  0  0  0  0  0  0  0  0
   22.0197   -8.2812  -15.9066 C   0  0  0  0  0  0  0  0  0  0  0  0
   22.1102   -7.8066  -17.0631 O   0  0  0  0  0  0  0  0  0  0  0  0
   19.2161   -0.1135  -15.1496 O   0  0  0  0  0  0  0  0  0  0  0  0
   19.5681   -1.4132  -14.8222 C   0  0  0  0  0  0  0  0  0  0  0  0
   18.8025   -2.4875  -15.2654 C   0  0  0  0  0  0  0  0  0  0  0  0
   19.1509   -3.7758  -14.9412 C   0  0  0  0  0  0  0  0  0  0  0  0
   20.2594   -4.0651  -14.1721 C   0  0  0  0  0  0  0  0  0  0  0  0
   20.5918   -5.4855  -13.8490 C   0  0  0  0  0  0  0  0  0  0  0  0
   21.4312   -5.9922  -15.0173 C   0  0  2  0  0  0  0  0  0  0  0  0
   21.6751   -7.4107  -14.8454 N   0  0  0  0  0  0  0  0  0  0  0  0
   22.7182   -5.2780  -15.0832 C   0  0  0  0  0  0  0  0  0  0  0  0
   23.6618   -5.5173  -14.2866 O   0  0  0  0  0  0  0  0  0  0  0  0
   21.0231   -3.0103  -13.7289 C   0  0  0  0  0  0  0  0  0  0  0  0
   20.6764   -1.7099  -14.0528 C   0  0  0  0  0  0  0  0  0  0  0  0
   22.9252   -4.3013  -16.0486 O   0  0  0  0  0  0  0  0  0  0  0  0
  2  1  1  1
  3  2  1  0
  3  4  1  0
  4  5  1  0
  5  9  1  0
  5  6  2  0
  7  2  1  0
  8  7  2  0
 10  7  1  0
 11 14  1  0
 11 10  1  0
 11 12  1  6
 13 12  1  0
 14 23  1  0
 15 14  2  0
 16 17  1  0
 17 18  2  0
 17 27  1  0
 18 19  1  0
 19 20  2  0
 20 21  1  0
 22 21  1  1
 22 24  1  0
 23 22  1  0
 24 25  2  0
 24 28  1  0
 26 20  1  0
 27 26  2  0
M  END
$$$$
