ECY.pdb
     RDKit          3D

 28 28  0  0  1  0  0  0  0  0999 V2000
   27.7653  -20.8912  -16.5216 N   0  0  0  0  0  0  0  0  0  0  0  0
   27.5563  -20.1792  -15.2390 C   0  0  1  0  0  0  0  0  0  0  0  0
   27.0900  -18.7839  -15.5130 C   0  0  0  0  0  0  0  0  0  0  0  0
   28.1696  -17.9333  -16.0662 C   0  0  0  0  0  0  0  0  0  0  0  0
   28.1991  -17.8745  -17.5386 C   0  0  0  0  0  0  0  0  0  0  0  0
   27.1613  -17.8598  -18.2061 O   0  0  0  0  0  0  0  0  0  0  0  0
   26.4780  -20.9381  -14.5271 C   0  0  0  0  0  0  0  0  0  0  0  0
   25.5564  -21.5157  -15.1809 O   0  0  0  0  0  0  0  0  0  0  0  0
   29.4648  -17.8365  -18.1357 O   0  0  0  0  0  0  0  0  0  0  0  0
   26.4160  -21.0591  -13.1131 N   0  0  0  0  0  0  0  0  0  0  0  0
   25.2563  -21.6655  -12.4919 C   0  0  1  0  0  0  0  0  0  0  0  0
   25.5766  -22.1049  -11.0776 C   0  0  0  0  0  0  0  0  0  0  0  0
   26.1821  -20.7280  -10.0868 S   0  0  0  0  0  0  0  0  0  0  0  0
   24.1268  -20.7146  -12.4017 C   0  0  0  0  0  0  0  0  0  0  0  0
   24.3589  -19.5439  -12.0187 O   0  0  0  0  0  0  0  0  0  0  0  0
   21.7225  -21.3559  -18.7799 O   0  0  0  0  0  0  0  0  0  0  0  0
   21.7793  -20.7832  -17.5193 C   0  0  0  0  0  0  0  0  0  0  0  0
   20.6117  -20.4940  -16.8193 C   0  0  0  0  0  0  0  0  0  0  0  0
   20.6675  -19.9264  -15.5700 C   0  0  0  0  0  0  0  0  0  0  0  0
   21.8643  -19.6193  -14.9559 C   0  0  0  0  0  0  0  0  0  0  0  0
   21.8667  -19.0021  -13.5952 C   0  0  0  0  0  0  0  0  0  0  0  0
   21.6737  -20.1548  -12.6153 C   0  0  2  0  0  0  0  0  0  0  0  0
   22.7955  -21.0658  -12.7286 N   0  0  0  0  0  0  0  0  0  0  0  0
   20.4231  -20.8792  -12.9021 C   0  0  0  0  0  0  0  0  0  0  0  0
   20.4136  -22.0671  -13.3157 O   0  0  0  0  0  0  0  0  0  0  0  0
   23.0245  -19.9012  -15.6392 C   0  0  0  0  0  0  0  0  0  0  0  0
   22.9739  -20.4733  -16.8987 C   0  0  0  0  0  0  0  0  0  0  0  0
   19.1970  -20.2536  -12.7184 O   0  0  0  0  0  0  0  0  0  0  0  0
  2  1  1  6
  3  2  1  0
  3  4  1  0
  4  5  1  0
  5  9  1  0
  5  6  2  0
  7  2  1  0
  8  7  2  0
 10  7  1  0
 11 14  1  0
 11 10  1  0
 11 12  1  1
 13 12  1  0
 14 23  1  0
 15 14  2  0
 16 17  1  0
 17 18  2  0
 17 27  1  0
 18 19  1  0
 19 20  2  0
 20 21  1  0
 22 21  1  6
 22 24  1  0
 23 22  1  0
 24 25  2  0
 24 28  1  0
 26 20  1  0
 27 26  2  0
M  END
$$$$
