ECY.pdb
     RDKit          3D

 28 28  0  0  1  0  0  0  0  0999 V2000
   28.2040  -17.1888  -19.1270 N   0  0  0  0  0  0  0  0  0  0  0  0
   27.6568  -16.0153  -19.8475 C   0  0  1  0  0  0  0  0  0  0  0  0
   26.9594  -16.4730  -21.0898 C   0  0  0  0  0  0  0  0  0  0  0  0
   27.9011  -17.0471  -22.0791 C   0  0  0  0  0  0  0  0  0  0  0  0
   27.2590  -17.5390  -23.3110 C   0  0  0  0  0  0  0  0  0  0  0  0
   26.8361  -18.6947  -23.4028 O   0  0  0  0  0  0  0  0  0  0  0  0
   26.6628  -15.3955  -18.9131 C   0  0  0  0  0  0  0  0  0  0  0  0
   25.9973  -16.1164  -18.1082 O   0  0  0  0  0  0  0  0  0  0  0  0
   27.1558  -16.6262  -24.3676 O   0  0  0  0  0  0  0  0  0  0  0  0
   26.4051  -13.9993  -18.8662 N   0  0  0  0  0  0  0  0  0  0  0  0
   25.4475  -13.4747  -17.9142 C   0  0  1  0  0  0  0  0  0  0  0  0
   26.0615  -12.3524  -17.1023 C   0  0  0  0  0  0  0  0  0  0  0  0
   27.3170  -12.9754  -15.9710 S   0  0  0  0  0  0  0  0  0  0  0  0
   24.2572  -12.9150  -18.5909 C   0  0  0  0  0  0  0  0  0  0  0  0
   24.4245  -12.2290  -19.6264 O   0  0  0  0  0  0  0  0  0  0  0  0
   20.0333  -18.7966  -18.3717 O   0  0  0  0  0  0  0  0  0  0  0  0
   20.4573  -17.5476  -18.7968 C   0  0  0  0  0  0  0  0  0  0  0  0
   19.5371  -16.5939  -19.2219 C   0  0  0  0  0  0  0  0  0  0  0  0
   19.9568  -15.3560  -19.6433 C   0  0  0  0  0  0  0  0  0  0  0  0
   21.2900  -15.0012  -19.6661 C   0  0  0  0  0  0  0  0  0  0  0  0
   21.6910  -13.6404  -20.1347 C   0  0  0  0  0  0  0  0  0  0  0  0
   21.7531  -12.7711  -18.8830 C   0  0  2  0  0  0  0  0  0  0  0  0
   22.9373  -13.1188  -18.1229 N   0  0  0  0  0  0  0  0  0  0  0  0
   20.5569  -12.9744  -18.0470 C   0  0  0  0  0  0  0  0  0  0  0  0
   20.6207  -13.4593  -16.8881 O   0  0  0  0  0  0  0  0  0  0  0  0
   22.2079  -15.9367  -19.2478 C   0  0  0  0  0  0  0  0  0  0  0  0
   21.7902  -17.1859  -18.8221 C   0  0  0  0  0  0  0  0  0  0  0  0
   19.3017  -12.6277  -18.5295 O   0  0  0  0  0  0  0  0  0  0  0  0
  2  1  1  1
  3  2  1  0
  3  4  1  0
  4  5  1  0
  5  9  1  0
  5  6  2  0
  7  2  1  0
  8  7  2  0
 10  7  1  0
 11 14  1  0
 11 10  1  0
 11 12  1  6
 13 12  1  0
 14 23  1  0
 15 14  2  0
 16 17  1  0
 17 18  2  0
 17 27  1  0
 18 19  1  0
 19 20  2  0
 20 21  1  0
 22 21  1  6
 22 24  1  0
 23 22  1  0
 24 25  2  0
 24 28  1  0
 26 20  1  0
 27 26  2  0
M  END
$$$$
