ECY.pdb
     RDKit          3D

 28 28  0  0  1  0  0  0  0  0999 V2000
   18.8741  -14.2352  -16.3322 N   0  0  0  0  0  0  0  0  0  0  0  0
   18.5968  -12.8055  -16.6062 C   0  0  1  0  0  0  0  0  0  0  0  0
   17.2402  -12.4511  -16.0835 C   0  0  0  0  0  0  0  0  0  0  0  0
   16.1556  -13.0605  -16.8882 C   0  0  0  0  0  0  0  0  0  0  0  0
   15.6189  -14.3142  -16.3294 C   0  0  0  0  0  0  0  0  0  0  0  0
   15.3021  -15.2616  -17.0539 O   0  0  0  0  0  0  0  0  0  0  0  0
   19.6411  -12.0401  -15.8519 C   0  0  0  0  0  0  0  0  0  0  0  0
   19.7711  -12.1898  -14.5984 O   0  0  0  0  0  0  0  0  0  0  0  0
   15.4888  -14.3707  -14.9366 O   0  0  0  0  0  0  0  0  0  0  0  0
   20.5306  -11.1214  -16.4706 N   0  0  0  0  0  0  0  0  0  0  0  0
   21.4916  -10.3954  -15.6656 C   0  0  1  0  0  0  0  0  0  0  0  0
   22.9066  -10.7810  -16.0462 C   0  0  0  0  0  0  0  0  0  0  0  0
   24.1153   -9.9260  -15.0204 S   0  0  0  0  0  0  0  0  0  0  0  0
   21.3754   -8.9342  -15.8642 C   0  0  0  0  0  0  0  0  0  0  0  0
   21.4236   -8.4832  -17.0327 O   0  0  0  0  0  0  0  0  0  0  0  0
   19.7844   -0.4464  -14.6305 O   0  0  0  0  0  0  0  0  0  0  0  0
   20.0503   -1.7841  -14.3849 C   0  0  0  0  0  0  0  0  0  0  0  0
   21.3377   -2.2029  -14.0623 C   0  0  0  0  0  0  0  0  0  0  0  0
   21.6017   -3.5285  -13.8188 C   0  0  0  0  0  0  0  0  0  0  0  0
   20.6199   -4.4960  -13.8808 C   0  0  0  0  0  0  0  0  0  0  0  0
   20.9630   -5.9242  -13.6070 C   0  0  0  0  0  0  0  0  0  0  0  0
   21.1057   -6.5869  -14.9732 C   0  0  2  0  0  0  0  0  0  0  0  0
   21.2119   -8.0215  -14.7952 N   0  0  0  0  0  0  0  0  0  0  0  0
   22.3041   -6.0896  -15.6714 C   0  0  0  0  0  0  0  0  0  0  0  0
   22.2348   -5.2924  -16.6419 O   0  0  0  0  0  0  0  0  0  0  0  0
   19.3437   -4.0926  -14.1988 C   0  0  0  0  0  0  0  0  0  0  0  0
   19.0723   -2.7578  -14.4452 C   0  0  0  0  0  0  0  0  0  0  0  0
   23.5677   -6.4984  -15.2653 O   0  0  0  0  0  0  0  0  0  0  0  0
  2  1  1  1
  3  2  1  0
  3  4  1  0
  4  5  1  0
  5  9  1  0
  5  6  2  0
  7  2  1  0
  8  7  2  0
 10  7  1  0
 11 14  1  0
 11 10  1  0
 11 12  1  6
 13 12  1  0
 14 23  1  0
 15 14  2  0
 16 17  1  0
 17 18  2  0
 17 27  1  0
 18 19  1  0
 19 20  2  0
 20 21  1  0
 22 21  1  1
 22 24  1  0
 23 22  1  0
 24 25  2  0
 24 28  1  0
 26 20  1  0
 27 26  2  0
M  END
$$$$
