ECY.pdb
     RDKit          3D

 28 28  0  0  1  0  0  0  0  0999 V2000
   20.9786  -22.9403  -14.5599 N   0  0  0  0  0  0  0  0  0  0  0  0
   21.1320  -22.6941  -16.0130 C   0  0  1  0  0  0  0  0  0  0  0  0
   19.7822  -22.6544  -16.6578 C   0  0  0  0  0  0  0  0  0  0  0  0
   18.7688  -23.4019  -15.8771 C   0  0  0  0  0  0  0  0  0  0  0  0
   17.7635  -22.5495  -15.2175 C   0  0  0  0  0  0  0  0  0  0  0  0
   16.9591  -21.8767  -15.8680 O   0  0  0  0  0  0  0  0  0  0  0  0
   21.7829  -21.3493  -16.1281 C   0  0  0  0  0  0  0  0  0  0  0  0
   21.9247  -20.7960  -17.2614 O   0  0  0  0  0  0  0  0  0  0  0  0
   17.7717  -22.5452  -13.8175 O   0  0  0  0  0  0  0  0  0  0  0  0
   22.2711  -20.6233  -15.0090 N   0  0  0  0  0  0  0  0  0  0  0  0
   22.9279  -19.3476  -15.2083 C   0  0  1  0  0  0  0  0  0  0  0  0
   22.2496  -18.2647  -14.3939 C   0  0  0  0  0  0  0  0  0  0  0  0
   20.4649  -18.5031  -14.3474 S   0  0  0  0  0  0  0  0  0  0  0  0
   24.3419  -19.3893  -14.7760 C   0  0  0  0  0  0  0  0  0  0  0  0
   24.6190  -19.0517  -13.6012 O   0  0  0  0  0  0  0  0  0  0  0  0
   24.2390  -20.8741   -9.5754 O   0  0  0  0  0  0  0  0  0  0  0  0
   24.9086  -20.9602  -10.7856 C   0  0  0  0  0  0  0  0  0  0  0  0
   26.0888  -20.2529  -10.9941 C   0  0  0  0  0  0  0  0  0  0  0  0
   26.7527  -20.3378  -12.1934 C   0  0  0  0  0  0  0  0  0  0  0  0
   26.2906  -21.1161  -13.2348 C   0  0  0  0  0  0  0  0  0  0  0  0
   27.0529  -21.1715  -14.5187 C   0  0  0  0  0  0  0  0  0  0  0  0
   26.7864  -19.8427  -15.2182 C   0  0  2  0  0  0  0  0  0  0  0  0
   25.3969  -19.7934  -15.6283 N   0  0  0  0  0  0  0  0  0  0  0  0
   27.6521  -19.6933  -16.4012 C   0  0  0  0  0  0  0  0  0  0  0  0
   27.1892  -19.6205  -17.5685 O   0  0  0  0  0  0  0  0  0  0  0  0
   25.1247  -21.8195  -13.0391 C   0  0  0  0  0  0  0  0  0  0  0  0
   24.4516  -21.7373  -11.8322 C   0  0  0  0  0  0  0  0  0  0  0  0
   29.0312  -19.6278  -16.2522 O   0  0  0  0  0  0  0  0  0  0  0  0
  2  1  1  1
  3  2  1  0
  3  4  1  0
  4  5  1  0
  5  9  1  0
  5  6  2  0
  7  2  1  0
  8  7  2  0
 10  7  1  0
 11 14  1  0
 11 10  1  0
 11 12  1  1
 13 12  1  0
 14 23  1  0
 15 14  2  0
 16 17  1  0
 17 18  2  0
 17 27  1  0
 18 19  1  0
 19 20  2  0
 20 21  1  0
 22 21  1  6
 22 24  1  0
 23 22  1  0
 24 25  2  0
 24 28  1  0
 26 20  1  0
 27 26  2  0
M  END
$$$$
