ECY.pdb
     RDKit          3D

 28 28  0  0  1  0  0  0  0  0999 V2000
   24.9477  -24.1493  -15.1673 N   0  0  0  0  0  0  0  0  0  0  0  0
   23.6639  -24.7320  -15.6233 C   0  0  1  0  0  0  0  0  0  0  0  0
   23.8418  -26.1964  -15.8746 C   0  0  0  0  0  0  0  0  0  0  0  0
   24.4797  -26.4643  -17.1848 C   0  0  0  0  0  0  0  0  0  0  0  0
   24.6031  -27.8949  -17.5165 C   0  0  0  0  0  0  0  0  0  0  0  0
   24.3695  -28.7745  -16.6830 O   0  0  0  0  0  0  0  0  0  0  0  0
   22.7039  -24.5301  -14.4906 C   0  0  0  0  0  0  0  0  0  0  0  0
   23.1253  -24.4318  -13.2976 O   0  0  0  0  0  0  0  0  0  0  0  0
   24.9985  -28.1998  -18.8245 O   0  0  0  0  0  0  0  0  0  0  0  0
   21.2978  -24.4377  -14.6699 N   0  0  0  0  0  0  0  0  0  0  0  0
   20.4389  -24.2094  -13.5260 C   0  0  1  0  0  0  0  0  0  0  0  0
   19.4879  -23.0603  -13.7931 C   0  0  0  0  0  0  0  0  0  0  0  0
   19.2569  -22.0477  -12.3216 S   0  0  0  0  0  0  0  0  0  0  0  0
   19.6073  -25.3948  -13.2238 C   0  0  0  0  0  0  0  0  0  0  0  0
   18.9288  -25.9015  -14.1478 O   0  0  0  0  0  0  0  0  0  0  0  0
   17.6113  -24.5800   -6.0687 O   0  0  0  0  0  0  0  0  0  0  0  0
   18.0286  -25.3901   -7.1127 C   0  0  0  0  0  0  0  0  0  0  0  0
   18.9012  -24.9037   -8.0817 C   0  0  0  0  0  0  0  0  0  0  0  0
   19.3150  -25.7062   -9.1166 C   0  0  0  0  0  0  0  0  0  0  0  0
   18.8934  -27.0137   -9.2457 C   0  0  0  0  0  0  0  0  0  0  0  0
   19.3750  -27.8420  -10.3921 C   0  0  0  0  0  0  0  0  0  0  0  0
   18.7981  -27.1925  -11.6457 C   0  0  2  0  0  0  0  0  0  0  0  0
   19.5429  -25.9839  -11.9387 N   0  0  0  0  0  0  0  0  0  0  0  0
   17.3764  -26.8573  -11.4523 C   0  0  0  0  0  0  0  0  0  0  0  0
   16.9849  -25.6796  -11.2470 O   0  0  0  0  0  0  0  0  0  0  0  0
   18.0307  -27.5044   -8.2930 C   0  0  0  0  0  0  0  0  0  0  0  0
   17.6105  -26.6997   -7.2479 C   0  0  0  0  0  0  0  0  0  0  0  0
   16.4126  -27.8563  -11.4931 O   0  0  0  0  0  0  0  0  0  0  0  0
  2  1  1  1
  3  2  1  0
  3  4  1  0
  4  5  1  0
  5  9  1  0
  5  6  2  0
  7  2  1  0
  8  7  2  0
 10  7  1  0
 11 14  1  0
 11 10  1  0
 11 12  1  6
 13 12  1  0
 14 23  1  0
 15 14  2  0
 16 17  1  0
 17 18  2  0
 17 27  1  0
 18 19  1  0
 19 20  2  0
 20 21  1  0
 22 21  1  1
 22 24  1  0
 23 22  1  0
 24 25  2  0
 24 28  1  0
 26 20  1  0
 27 26  2  0
M  END
$$$$
