IWK.pdb
     RDKit          3D

 32 33  0  0  1  0  0  0  0  0999 V2000
   18.9302  -12.1900    3.1575 C   0  0  0  0  0  0  0  0  0  0  0  0
   17.9847  -12.1358    4.3142 C   0  0  0  0  0  0  0  0  0  0  0  0
   17.7118  -13.5052    4.9021 C   0  0  2  0  0  0  0  0  0  0  0  0
   19.0003  -14.2454    5.0156 C   0  0  0  0  0  0  0  0  0  0  0  0
   16.6937  -14.2210    4.0391 C   0  0  2  0  0  0  0  0  0  0  0  0
   15.5053  -13.3943    4.0208 N   0  0  0  0  0  0  0  0  0  0  0  0
   16.3610  -15.5638    4.5836 C   0  0  0  0  0  0  0  0  0  0  0  0
   15.7139  -15.6894    5.6628 O   0  0  0  0  0  0  0  0  0  0  0  0
   16.7407  -16.7759    3.9406 N   0  0  0  0  0  0  0  0  0  0  0  0
   16.4769  -18.0719    4.5235 C   0  0  1  0  0  0  0  0  0  0  0  0
   16.5658  -19.1586    3.4833 C   0  0  0  0  0  0  0  0  0  0  0  0
   15.4360  -19.2231    2.5436 C   0  0  0  0  0  0  0  0  0  0  0  0
   14.2959  -18.4411    2.6079 C   0  0  0  0  0  0  0  0  0  0  0  0
   13.4638  -18.7845    1.6024 N   0  0  0  0  0  0  0  0  0  0  0  0
   14.0147  -19.7684    0.8723 C   0  0  0  0  0  0  0  0  0  0  0  0
   13.5814  -20.4456   -0.2408 C   0  0  0  0  0  0  0  0  0  0  0  0
   14.3649  -21.4317   -0.8203 C   0  0  0  0  0  0  0  0  0  0  0  0
   15.5889  -21.6893   -0.2214 C   0  0  0  0  0  0  0  0  0  0  0  0
   16.0148  -21.0158    0.8826 C   0  0  0  0  0  0  0  0  0  0  0  0
   15.2508  -20.0511    1.4526 C   0  0  0  0  0  0  0  0  0  0  0  0
   17.2531  -18.3202    5.7389 C   0  0  0  0  0  0  0  0  0  0  0  0
   18.5129  -18.1638    5.7337 O   0  0  0  0  0  0  0  0  0  0  0  0
   16.6727  -18.7359    6.9669 N   0  0  0  0  0  0  0  0  0  0  0  0
   17.4676  -19.0213    8.1460 C   0  0  1  0  0  0  0  0  0  0  0  0
   17.3095  -17.9295    9.1359 C   0  0  0  0  0  0  0  0  0  0  0  0
   17.8780  -18.0946   10.4860 C   0  0  0  0  0  0  0  0  0  0  0  0
   17.6388  -17.0054   11.4775 C   0  0  0  0  0  0  0  0  0  0  0  0
   18.3700  -17.3165   12.7943 C   0  0  0  0  0  0  0  0  0  0  0  0
   18.1697  -16.2715   13.7537 N   0  0  0  0  0  0  0  0  0  0  0  0
   17.0938  -20.3344    8.6783 C   0  0  0  0  0  0  0  0  0  0  0  0
   17.7169  -20.9464    9.7857 O   0  0  0  0  0  0  0  0  0  0  0  0
   16.1413  -20.9713    8.1102 O   0  0  0  0  0  0  0  0  0  0  0  0
  1  2  1  0
  2  3  1  0
  3  5  1  0
  3  4  1  6
  5  6  1  1
  7  5  1  0
  8  7  2  0
  9  7  1  0
 10  9  1  0
 11 12  1  0
 10 11  1  6
 12 20  1  0
 12 13  2  0
 13 14  1  0
 15 14  1  0
 15 16  2  0
 17 16  1  0
 18 17  2  0
 19 20  2  0
 19 18  1  0
 20 15  1  0
 21 22  2  0
 21 10  1  0
 23 21  1  0
 24 23  1  0
 24 25  1  1
 26 25  1  0
 27 26  1  0
 27 28  1  0
 29 28  1  0
 30 24  1  0
 31 30  1  0
 32 30  2  0
M  END
$$$$
