IWK.pdb
     RDKit          3D

 32 33  0  0  1  0  0  0  0  0999 V2000
   28.0586  -17.9708  -17.2850 C   0  0  0  0  0  0  0  0  0  0  0  0
   28.6037  -18.7809  -16.1530 C   0  0  0  0  0  0  0  0  0  0  0  0
   27.5110  -19.3546  -15.2743 C   0  0  2  0  0  0  0  0  0  0  0  0
   26.6539  -18.2390  -14.7825 C   0  0  0  0  0  0  0  0  0  0  0  0
   28.1444  -20.1511  -14.1525 C   0  0  2  0  0  0  0  0  0  0  0  0
   28.8842  -21.2306  -14.7717 N   0  0  0  0  0  0  0  0  0  0  0  0
   27.1201  -20.7101  -13.2313 C   0  0  0  0  0  0  0  0  0  0  0  0
   26.5053  -21.7797  -13.5093 O   0  0  0  0  0  0  0  0  0  0  0  0
   26.7681  -20.0921  -11.9980 N   0  0  0  0  0  0  0  0  0  0  0  0
   25.7629  -20.6453  -11.1192 C   0  0  1  0  0  0  0  0  0  0  0  0
   26.0012  -20.2203   -9.6932 C   0  0  0  0  0  0  0  0  0  0  0  0
   27.3135  -20.5871   -9.1390 C   0  0  0  0  0  0  0  0  0  0  0  0
   28.2412  -21.4088   -9.7552 C   0  0  0  0  0  0  0  0  0  0  0  0
   29.3176  -21.5445   -8.9526 N   0  0  0  0  0  0  0  0  0  0  0  0
   29.1351  -20.8392   -7.8240 C   0  0  0  0  0  0  0  0  0  0  0  0
   29.9244  -20.6478   -6.7170 C   0  0  0  0  0  0  0  0  0  0  0  0
   29.4963  -19.8446   -5.6713 C   0  0  0  0  0  0  0  0  0  0  0  0
   28.2475  -19.2566   -5.8062 C   0  0  0  0  0  0  0  0  0  0  0  0
   27.4676  -19.4491   -6.9054 C   0  0  0  0  0  0  0  0  0  0  0  0
   27.8828  -20.2348   -7.9299 C   0  0  0  0  0  0  0  0  0  0  0  0
   24.3992  -20.4301  -11.6043 C   0  0  0  0  0  0  0  0  0  0  0  0
   23.9732  -19.2515  -11.8067 O   0  0  0  0  0  0  0  0  0  0  0  0
   23.4894  -21.4866  -11.8761 N   0  0  0  0  0  0  0  0  0  0  0  0
   22.2260  -21.2701  -12.5547 C   0  0  1  0  0  0  0  0  0  0  0  0
   21.8292  -22.4984  -13.2833 C   0  0  0  0  0  0  0  0  0  0  0  0
   21.2015  -22.3759  -14.6115 C   0  0  0  0  0  0  0  0  0  0  0  0
   20.8437  -23.6346  -15.3286 C   0  0  0  0  0  0  0  0  0  0  0  0
   20.1254  -23.3075  -16.6486 C   0  0  0  0  0  0  0  0  0  0  0  0
   19.6853  -24.5025  -17.3051 N   0  0  0  0  0  0  0  0  0  0  0  0
   21.2208  -20.8319  -11.5827 C   0  0  0  0  0  0  0  0  0  0  0  0
   20.0164  -20.1837  -11.9269 O   0  0  0  0  0  0  0  0  0  0  0  0
   21.4404  -21.0498  -10.3417 O   0  0  0  0  0  0  0  0  0  0  0  0
  1  2  1  0
  2  3  1  0
  3  5  1  0
  3  4  1  1
  5  6  1  6
  7  5  1  0
  8  7  2  0
  9  7  1  0
 10  9  1  0
 11 12  1  0
 10 11  1  1
 12 20  1  0
 12 13  2  0
 13 14  1  0
 15 14  1  0
 15 16  2  0
 17 16  1  0
 18 17  2  0
 19 20  2  0
 19 18  1  0
 20 15  1  0
 21 22  2  0
 21 10  1  0
 23 21  1  0
 24 23  1  0
 24 25  1  1
 26 25  1  0
 27 26  1  0
 27 28  1  0
 29 28  1  0
 30 24  1  0
 31 30  1  0
 32 30  2  0
M  END
$$$$
