IWK.pdb
     RDKit          3D

 32 33  0  0  1  0  0  0  0  0999 V2000
   22.5044  -18.3032  -15.8007 C   0  0  0  0  0  0  0  0  0  0  0  0
   22.6948  -19.7860  -15.8028 C   0  0  0  0  0  0  0  0  0  0  0  0
   22.4706  -20.3992  -14.4357 C   0  0  2  0  0  0  0  0  0  0  0  0
   21.1956  -19.8700  -13.8743 C   0  0  0  0  0  0  0  0  0  0  0  0
   23.6692  -20.1048  -13.5579 C   0  0  2  0  0  0  0  0  0  0  0  0
   24.8390  -20.5558  -14.2820 N   0  0  0  0  0  0  0  0  0  0  0  0
   23.5822  -20.8155  -12.2551 C   0  0  0  0  0  0  0  0  0  0  0  0
   23.3561  -22.0587  -12.2026 O   0  0  0  0  0  0  0  0  0  0  0  0
   23.7438  -20.1587  -11.0023 N   0  0  0  0  0  0  0  0  0  0  0  0
   23.6474  -20.8647   -9.7449 C   0  0  1  0  0  0  0  0  0  0  0  0
   24.5108  -20.2149   -8.6946 C   0  0  0  0  0  0  0  0  0  0  0  0
   25.9548  -20.4616   -8.8272 C   0  0  0  0  0  0  0  0  0  0  0  0
   26.5528  -21.1876   -9.8425 C   0  0  0  0  0  0  0  0  0  0  0  0
   27.8856  -21.2285   -9.6346 N   0  0  0  0  0  0  0  0  0  0  0  0
   28.1919  -20.5527   -8.5147 C   0  0  0  0  0  0  0  0  0  0  0  0
   29.3867  -20.2973   -7.8882 C   0  0  0  0  0  0  0  0  0  0  0  0
   29.4301  -19.5463   -6.7236 C   0  0  0  0  0  0  0  0  0  0  0  0
   28.2190  -19.0768   -6.2376 C   0  0  0  0  0  0  0  0  0  0  0  0
   27.0363  -19.3326   -6.8616 C   0  0  0  0  0  0  0  0  0  0  0  0
   26.9899  -20.0675   -8.0006 C   0  0  0  0  0  0  0  0  0  0  0  0
   22.2652  -21.1149   -9.3349 C   0  0  0  0  0  0  0  0  0  0  0  0
   21.4260  -20.1628   -9.3079 O   0  0  0  0  0  0  0  0  0  0  0  0
   21.7811  -22.3951   -8.9546 N   0  0  0  0  0  0  0  0  0  0  0  0
   20.4042  -22.6202   -8.5585 C   0  0  1  0  0  0  0  0  0  0  0  0
   19.8799  -23.8342   -9.2281 C   0  0  0  0  0  0  0  0  0  0  0  0
   18.4920  -24.2569   -8.9675 C   0  0  0  0  0  0  0  0  0  0  0  0
   17.9820  -25.4533   -9.6991 C   0  0  0  0  0  0  0  0  0  0  0  0
   16.5248  -25.7389   -9.2989 C   0  0  0  0  0  0  0  0  0  0  0  0
   16.0110  -26.8762  -10.0025 N   0  0  0  0  0  0  0  0  0  0  0  0
   20.3243  -22.6934   -7.0972 C   0  0  0  0  0  0  0  0  0  0  0  0
   19.1245  -22.5872   -6.3635 O   0  0  0  0  0  0  0  0  0  0  0  0
   21.4063  -22.8675   -6.4378 O   0  0  0  0  0  0  0  0  0  0  0  0
  1  2  1  0
  2  3  1  0
  3  5  1  0
  3  4  1  1
  5  6  1  6
  7  5  1  0
  8  7  2  0
  9  7  1  0
 10  9  1  0
 11 12  1  0
 10 11  1  1
 12 20  1  0
 12 13  2  0
 13 14  1  0
 15 14  1  0
 15 16  2  0
 17 16  1  0
 18 17  2  0
 19 20  2  0
 19 18  1  0
 20 15  1  0
 21 22  2  0
 21 10  1  0
 23 21  1  0
 24 23  1  0
 24 25  1  6
 26 25  1  0
 27 26  1  0
 27 28  1  0
 29 28  1  0
 30 24  1  0
 31 30  1  0
 32 30  2  0
M  END
$$$$
