IWK.pdb
     RDKit          3D

 32 33  0  0  1  0  0  0  0  0999 V2000
   27.3198  -18.7478  -17.6268 C   0  0  0  0  0  0  0  0  0  0  0  0
   28.1000  -19.5853  -16.6651 C   0  0  0  0  0  0  0  0  0  0  0  0
   27.2893  -19.9702  -15.4445 C   0  0  2  0  0  0  0  0  0  0  0  0
   26.7585  -18.7310  -14.8092 C   0  0  0  0  0  0  0  0  0  0  0  0
   28.1577  -20.7870  -14.5104 C   0  0  2  0  0  0  0  0  0  0  0  0
   28.4971  -22.0062  -15.2135 N   0  0  0  0  0  0  0  0  0  0  0  0
   27.4445  -21.1187  -13.2489 C   0  0  0  0  0  0  0  0  0  0  0  0
   26.4988  -21.9582  -13.2341 O   0  0  0  0  0  0  0  0  0  0  0  0
   27.7704  -20.5259  -11.9962 N   0  0  0  0  0  0  0  0  0  0  0  0
   26.9862  -20.7624  -10.8054 C   0  0  1  0  0  0  0  0  0  0  0  0
   27.7012  -20.2546   -9.5799 C   0  0  0  0  0  0  0  0  0  0  0  0
   26.9439  -20.3566   -8.3229 C   0  0  0  0  0  0  0  0  0  0  0  0
   25.6225  -20.7534   -8.2146 C   0  0  0  0  0  0  0  0  0  0  0  0
   25.2494  -20.7083   -6.9185 N   0  0  0  0  0  0  0  0  0  0  0  0
   26.2803  -20.2951   -6.1627 C   0  0  0  0  0  0  0  0  0  0  0  0
   26.4124  -20.0960   -4.8107 C   0  0  0  0  0  0  0  0  0  0  0  0
   27.6155  -19.6672   -4.2714 C   0  0  0  0  0  0  0  0  0  0  0  0
   28.6583  -19.4552   -5.1608 C   0  0  0  0  0  0  0  0  0  0  0  0
   28.5232  -19.6535   -6.5009 C   0  0  0  0  0  0  0  0  0  0  0  0
   27.3476  -20.0722   -7.0321 C   0  0  0  0  0  0  0  0  0  0  0  0
   25.5992  -20.3151  -10.9367 C   0  0  0  0  0  0  0  0  0  0  0  0
   25.3346  -19.0767  -11.0258 O   0  0  0  0  0  0  0  0  0  0  0  0
   24.4909  -21.2027  -10.9752 N   0  0  0  0  0  0  0  0  0  0  0  0
   23.1494  -20.7587  -11.3023 C   0  0  1  0  0  0  0  0  0  0  0  0
   22.4905  -21.7534  -12.1817 C   0  0  0  0  0  0  0  0  0  0  0  0
   21.0966  -21.5278  -12.6049 C   0  0  0  0  0  0  0  0  0  0  0  0
   20.4413  -22.5861  -13.4278 C   0  0  0  0  0  0  0  0  0  0  0  0
   19.0338  -22.1336  -13.8515 C   0  0  0  0  0  0  0  0  0  0  0  0
   18.4647  -23.0430  -14.8011 N   0  0  0  0  0  0  0  0  0  0  0  0
   22.4053  -20.5073  -10.0652 C   0  0  0  0  0  0  0  0  0  0  0  0
   22.4782  -21.3239   -8.9176 O   0  0  0  0  0  0  0  0  0  0  0  0
   21.6413  -19.4829  -10.0136 O   0  0  0  0  0  0  0  0  0  0  0  0
  1  2  1  0
  2  3  1  0
  3  5  1  0
  3  4  1  1
  5  6  1  6
  7  5  1  0
  8  7  2  0
  9  7  1  0
 10  9  1  0
 11 12  1  0
 10 11  1  1
 12 20  1  0
 12 13  2  0
 13 14  1  0
 15 14  1  0
 15 16  2  0
 17 16  1  0
 18 17  2  0
 19 20  2  0
 19 18  1  0
 20 15  1  0
 21 22  2  0
 21 10  1  0
 23 21  1  0
 24 23  1  0
 24 25  1  1
 26 25  1  0
 27 26  1  0
 27 28  1  0
 29 28  1  0
 30 24  1  0
 31 30  1  0
 32 30  2  0
M  END
$$$$
