IWK.pdb
     RDKit          3D

 32 33  0  0  1  0  0  0  0  0999 V2000
   16.9683  -26.6076  -15.0979 C   0  0  0  0  0  0  0  0  0  0  0  0
   18.3370  -26.0574  -14.8557 C   0  0  0  0  0  0  0  0  0  0  0  0
   18.4877  -24.6382  -15.3640 C   0  0  2  0  0  0  0  0  0  0  0  0
   18.2776  -24.6309  -16.8395 C   0  0  0  0  0  0  0  0  0  0  0  0
   19.8474  -24.1084  -14.9588 C   0  0  2  0  0  0  0  0  0  0  0  0
   20.8255  -25.0732  -15.4156 N   0  0  0  0  0  0  0  0  0  0  0  0
   19.9551  -23.9457  -13.4850 C   0  0  0  0  0  0  0  0  0  0  0  0
   20.6730  -24.7231  -12.7924 O   0  0  0  0  0  0  0  0  0  0  0  0
   19.2713  -22.9244  -12.7665 N   0  0  0  0  0  0  0  0  0  0  0  0
   19.4569  -22.7256  -11.3471 C   0  0  1  0  0  0  0  0  0  0  0  0
   19.7550  -21.2807  -11.0400 C   0  0  0  0  0  0  0  0  0  0  0  0
   21.1643  -20.8851  -11.1853 C   0  0  0  0  0  0  0  0  0  0  0  0
   21.7616  -20.4697  -12.3626 C   0  0  0  0  0  0  0  0  0  0  0  0
   23.0656  -20.2092  -12.1320 N   0  0  0  0  0  0  0  0  0  0  0  0
   23.3531  -20.4375  -10.8398 C   0  0  0  0  0  0  0  0  0  0  0  0
   24.5139  -20.3154  -10.1167 C   0  0  0  0  0  0  0  0  0  0  0  0
   24.5398  -20.6101   -8.7622 C   0  0  0  0  0  0  0  0  0  0  0  0
   23.3470  -21.0276   -8.1910 C   0  0  0  0  0  0  0  0  0  0  0  0
   22.1981  -21.1479   -8.9115 C   0  0  0  0  0  0  0  0  0  0  0  0
   22.1692  -20.8611  -10.2368 C   0  0  0  0  0  0  0  0  0  0  0  0
   18.3865  -23.3161  -10.5429 C   0  0  0  0  0  0  0  0  0  0  0  0
   17.2058  -23.3839  -11.0042 O   0  0  0  0  0  0  0  0  0  0  0  0
   18.5860  -23.8391   -9.2373 N   0  0  0  0  0  0  0  0  0  0  0  0
   17.4951  -24.3459   -8.4270 C   0  0  1  0  0  0  0  0  0  0  0  0
   18.0223  -24.8725   -7.1458 C   0  0  0  0  0  0  0  0  0  0  0  0
   17.0816  -25.4197   -6.1513 C   0  0  0  0  0  0  0  0  0  0  0  0
   17.6553  -26.0387   -4.9207 C   0  0  0  0  0  0  0  0  0  0  0  0
   18.2833  -27.4020   -5.2557 C   0  0  0  0  0  0  0  0  0  0  0  0
   18.8380  -28.0148   -4.0855 N   0  0  0  0  0  0  0  0  0  0  0  0
   16.4950  -23.2907   -8.2433 C   0  0  0  0  0  0  0  0  0  0  0  0
   15.1825  -23.5161   -7.7788 O   0  0  0  0  0  0  0  0  0  0  0  0
   16.8261  -22.0859   -8.5164 O   0  0  0  0  0  0  0  0  0  0  0  0
  1  2  1  0
  2  3  1  0
  3  5  1  0
  3  4  1  6
  5  6  1  1
  7  5  1  0
  8  7  2  0
  9  7  1  0
 10  9  1  0
 11 12  1  0
 10 11  1  6
 12 20  1  0
 12 13  2  0
 13 14  1  0
 15 14  1  0
 15 16  2  0
 17 16  1  0
 18 17  2  0
 19 20  2  0
 19 18  1  0
 20 15  1  0
 21 22  2  0
 21 10  1  0
 23 21  1  0
 24 23  1  0
 24 25  1  1
 26 25  1  0
 27 26  1  0
 27 28  1  0
 29 28  1  0
 30 24  1  0
 31 30  1  0
 32 30  2  0
M  END
$$$$
