IWK.pdb
     RDKit          3D

 32 33  0  0  1  0  0  0  0  0999 V2000
   30.0349  -21.0392  -16.9208 C   0  0  0  0  0  0  0  0  0  0  0  0
   28.7878  -20.3246  -16.5096 C   0  0  0  0  0  0  0  0  0  0  0  0
   28.0058  -21.0853  -15.4583 C   0  0  2  0  0  0  0  0  0  0  0  0
   27.8195  -22.4900  -15.9202 C   0  0  0  0  0  0  0  0  0  0  0  0
   26.6960  -20.3699  -15.2010 C   0  0  2  0  0  0  0  0  0  0  0  0
   27.0247  -18.9956  -14.8857 N   0  0  0  0  0  0  0  0  0  0  0  0
   25.9522  -20.9794  -14.0672 C   0  0  0  0  0  0  0  0  0  0  0  0
   25.5423  -22.1746  -14.1216 O   0  0  0  0  0  0  0  0  0  0  0  0
   25.6561  -20.2738  -12.8666 N   0  0  0  0  0  0  0  0  0  0  0  0
   24.8816  -20.8634  -11.7983 C   0  0  1  0  0  0  0  0  0  0  0  0
   25.2626  -20.2706  -10.4662 C   0  0  0  0  0  0  0  0  0  0  0  0
   26.5627  -20.7058   -9.9333 C   0  0  0  0  0  0  0  0  0  0  0  0
   27.4662  -21.5202  -10.5935 C   0  0  0  0  0  0  0  0  0  0  0  0
   28.5372  -21.7313   -9.7999 N   0  0  0  0  0  0  0  0  0  0  0  0
   28.3744  -21.0828   -8.6347 C   0  0  0  0  0  0  0  0  0  0  0  0
   29.1679  -20.9752   -7.5194 C   0  0  0  0  0  0  0  0  0  0  0  0
   28.7626  -20.2172   -6.4315 C   0  0  0  0  0  0  0  0  0  0  0  0
   27.5322  -19.5858   -6.5339 C   0  0  0  0  0  0  0  0  0  0  0  0
   26.7481  -19.6953   -7.6415 C   0  0  0  0  0  0  0  0  0  0  0  0
   27.1409  -20.4365   -8.7072 C   0  0  0  0  0  0  0  0  0  0  0  0
   23.4449  -20.8785  -12.0754 C   0  0  0  0  0  0  0  0  0  0  0  0
   22.8651  -19.8290  -12.4927 O   0  0  0  0  0  0  0  0  0  0  0  0
   22.6271  -22.0276  -11.9060 N   0  0  0  0  0  0  0  0  0  0  0  0
   21.1959  -22.0054  -12.1399 C   0  0  1  0  0  0  0  0  0  0  0  0
   20.6811  -23.3915  -12.2422 C   0  0  0  0  0  0  0  0  0  0  0  0
   19.2582  -23.6089  -12.5601 C   0  0  0  0  0  0  0  0  0  0  0  0
   18.8066  -25.0111  -12.7973 C   0  0  0  0  0  0  0  0  0  0  0  0
   17.2902  -25.0445  -13.0517 C   0  0  0  0  0  0  0  0  0  0  0  0
   16.8294  -26.3877  -13.2420 N   0  0  0  0  0  0  0  0  0  0  0  0
   20.5424  -21.2293  -11.0825 C   0  0  0  0  0  0  0  0  0  0  0  0
   19.3327  -20.5240  -11.2506 O   0  0  0  0  0  0  0  0  0  0  0  0
   21.0961  -21.1860   -9.9304 O   0  0  0  0  0  0  0  0  0  0  0  0
  1  2  1  0
  2  3  1  0
  3  5  1  0
  3  4  1  6
  5  6  1  1
  7  5  1  0
  8  7  2  0
  9  7  1  0
 10  9  1  0
 11 12  1  0
 10 11  1  1
 12 20  1  0
 12 13  2  0
 13 14  1  0
 15 14  1  0
 15 16  2  0
 17 16  1  0
 18 17  2  0
 19 20  2  0
 19 18  1  0
 20 15  1  0
 21 22  2  0
 21 10  1  0
 23 21  1  0
 24 23  1  0
 24 25  1  1
 26 25  1  0
 27 26  1  0
 27 28  1  0
 29 28  1  0
 30 24  1  0
 31 30  1  0
 32 30  2  0
M  END
$$$$
