IWK.pdb
     RDKit          3D

 32 33  0  0  1  0  0  0  0  0999 V2000
   25.8763  -20.4853  -20.9028 C   0  0  0  0  0  0  0  0  0  0  0  0
   27.0097  -20.4566  -19.9284 C   0  0  0  0  0  0  0  0  0  0  0  0
   26.5657  -20.7783  -18.5160 C   0  0  2  0  0  0  0  0  0  0  0  0
   25.4877  -19.8275  -18.1224 C   0  0  0  0  0  0  0  0  0  0  0  0
   27.7665  -20.7236  -17.5947 C   0  0  2  0  0  0  0  0  0  0  0  0
   28.7064  -21.7156  -18.0728 N   0  0  0  0  0  0  0  0  0  0  0  0
   27.3921  -21.0257  -16.1880 C   0  0  0  0  0  0  0  0  0  0  0  0
   27.0506  -22.1922  -15.8387 O   0  0  0  0  0  0  0  0  0  0  0  0
   27.3922  -20.0425  -15.1584 N   0  0  0  0  0  0  0  0  0  0  0  0
   26.8882  -20.3169  -13.8319 C   0  0  1  0  0  0  0  0  0  0  0  0
   27.6489  -19.5329  -12.7938 C   0  0  0  0  0  0  0  0  0  0  0  0
   27.9242  -20.2517  -11.5403 C   0  0  0  0  0  0  0  0  0  0  0  0
   28.9480  -21.1631  -11.3486 C   0  0  0  0  0  0  0  0  0  0  0  0
   28.8873  -21.6415  -10.0882 N   0  0  0  0  0  0  0  0  0  0  0  0
   27.8571  -21.0769   -9.4367 C   0  0  0  0  0  0  0  0  0  0  0  0
   27.3862  -21.2187   -8.1547 C   0  0  0  0  0  0  0  0  0  0  0  0
   26.2875  -20.4942   -7.7189 C   0  0  0  0  0  0  0  0  0  0  0  0
   25.7028  -19.6338   -8.6361 C   0  0  0  0  0  0  0  0  0  0  0  0
   26.1725  -19.4963   -9.9066 C   0  0  0  0  0  0  0  0  0  0  0  0
   27.2467  -20.2040  -10.3367 C   0  0  0  0  0  0  0  0  0  0  0  0
   25.4321  -20.2063  -13.7399 C   0  0  0  0  0  0  0  0  0  0  0  0
   24.8452  -19.1581  -14.1505 O   0  0  0  0  0  0  0  0  0  0  0  0
   24.6017  -21.2280  -13.2066 N   0  0  0  0  0  0  0  0  0  0  0  0
   23.1624  -21.0841  -13.0996 C   0  0  1  0  0  0  0  0  0  0  0  0
   22.5047  -22.3828  -13.3782 C   0  0  0  0  0  0  0  0  0  0  0  0
   21.0362  -22.4785  -13.2930 C   0  0  0  0  0  0  0  0  0  0  0  0
   20.4169  -23.8242  -13.4720 C   0  0  0  0  0  0  0  0  0  0  0  0
   18.8883  -23.7277  -13.3334 C   0  0  0  0  0  0  0  0  0  0  0  0
   18.2692  -24.9994  -13.5620 N   0  0  0  0  0  0  0  0  0  0  0  0
   22.8246  -20.5434  -11.7802 C   0  0  0  0  0  0  0  0  0  0  0  0
   21.7161  -19.7091  -11.5266 O   0  0  0  0  0  0  0  0  0  0  0  0
   23.5757  -20.8448  -10.7899 O   0  0  0  0  0  0  0  0  0  0  0  0
  1  2  1  0
  2  3  1  0
  3  5  1  0
  3  4  1  1
  5  6  1  6
  7  5  1  0
  8  7  2  0
  9  7  1  0
 10  9  1  0
 11 12  1  0
 10 11  1  1
 12 20  1  0
 12 13  2  0
 13 14  1  0
 15 14  1  0
 15 16  2  0
 17 16  1  0
 18 17  2  0
 19 20  2  0
 19 18  1  0
 20 15  1  0
 21 22  2  0
 21 10  1  0
 23 21  1  0
 24 23  1  0
 24 25  1  1
 26 25  1  0
 27 26  1  0
 27 28  1  0
 29 28  1  0
 30 24  1  0
 31 30  1  0
 32 30  2  0
M  END
$$$$
