IWK.pdb
     RDKit          3D

 32 33  0  0  1  0  0  0  0  0999 V2000
   31.2575  -19.1573  -14.5136 C   0  0  0  0  0  0  0  0  0  0  0  0
   29.7871  -18.9061  -14.4155 C   0  0  0  0  0  0  0  0  0  0  0  0
   29.0704  -19.9748  -13.6156 C   0  0  2  0  0  0  0  0  0  0  0  0
   29.4062  -21.3096  -14.1870 C   0  0  0  0  0  0  0  0  0  0  0  0
   27.5836  -19.6862  -13.6238 C   0  0  2  0  0  0  0  0  0  0  0  0
   27.4318  -18.2656  -13.3898 N   0  0  0  0  0  0  0  0  0  0  0  0
   26.8719  -20.4472  -12.5634 C   0  0  0  0  0  0  0  0  0  0  0  0
   26.4923  -21.6380  -12.7564 O   0  0  0  0  0  0  0  0  0  0  0  0
   26.5745  -19.8986  -11.2837 N   0  0  0  0  0  0  0  0  0  0  0  0
   25.5642  -20.4651  -10.4192 C   0  0  1  0  0  0  0  0  0  0  0  0
   25.7871  -20.0517   -8.9873 C   0  0  0  0  0  0  0  0  0  0  0  0
   27.1358  -20.3113   -8.4608 C   0  0  0  0  0  0  0  0  0  0  0  0
   28.1465  -20.9703   -9.1388 C   0  0  0  0  0  0  0  0  0  0  0  0
   29.2364  -21.0478   -8.3467 N   0  0  0  0  0  0  0  0  0  0  0  0
   28.9823  -20.4612   -7.1652 C   0  0  0  0  0  0  0  0  0  0  0  0
   29.7519  -20.2719   -6.0440 C   0  0  0  0  0  0  0  0  0  0  0  0
   29.2423  -19.6093   -4.9379 C   0  0  0  0  0  0  0  0  0  0  0  0
   27.9343  -19.1574   -5.0284 C   0  0  0  0  0  0  0  0  0  0  0  0
   27.1743  -19.3474   -6.1419 C   0  0  0  0  0  0  0  0  0  0  0  0
   27.6692  -19.9957   -7.2255 C   0  0  0  0  0  0  0  0  0  0  0  0
   24.2040  -20.2530  -10.9150 C   0  0  0  0  0  0  0  0  0  0  0  0
   23.8471  -19.1064  -11.3269 O   0  0  0  0  0  0  0  0  0  0  0  0
   23.2226  -21.2785  -10.9713 N   0  0  0  0  0  0  0  0  0  0  0  0
   21.8774  -21.0423  -11.4594 C   0  0  1  0  0  0  0  0  0  0  0  0
   21.5384  -22.0389  -12.5028 C   0  0  0  0  0  0  0  0  0  0  0  0
   20.6303  -21.6532  -13.5981 C   0  0  0  0  0  0  0  0  0  0  0  0
   19.2640  -22.2530  -13.6104 C   0  0  0  0  0  0  0  0  0  0  0  0
   18.4834  -21.7701  -14.8444 C   0  0  0  0  0  0  0  0  0  0  0  0
   17.1391  -22.2653  -14.8295 N   0  0  0  0  0  0  0  0  0  0  0  0
   20.9419  -21.0543  -10.3316 C   0  0  0  0  0  0  0  0  0  0  0  0
   19.7379  -20.3207  -10.2938 O   0  0  0  0  0  0  0  0  0  0  0  0
   21.2263  -21.7754   -9.3143 O   0  0  0  0  0  0  0  0  0  0  0  0
  1  2  1  0
  2  3  1  0
  3  5  1  0
  3  4  1  6
  5  6  1  1
  7  5  1  0
  8  7  2  0
  9  7  1  0
 10  9  1  0
 11 12  1  0
 10 11  1  1
 12 20  1  0
 12 13  2  0
 13 14  1  0
 15 14  1  0
 15 16  2  0
 17 16  1  0
 18 17  2  0
 19 20  2  0
 19 18  1  0
 20 15  1  0
 21 22  2  0
 21 10  1  0
 23 21  1  0
 24 23  1  0
 24 25  1  6
 26 25  1  0
 27 26  1  0
 27 28  1  0
 29 28  1  0
 30 24  1  0
 31 30  1  0
 32 30  2  0
M  END
$$$$
