PTS.pdb
     RDKit          3D

 21 21  0  0  1  0  0  0  0  0999 V2000
   18.1855  -12.1509  -15.5409 N   0  0  0  0  0  0  0  0  0  0  0  0
   17.3925  -13.0614  -16.3229 C   0  0  0  0  0  0  0  0  0  0  0  0
   18.3174  -14.1716  -16.7690 C   0  0  0  0  0  0  0  0  0  0  0  0
   19.6380  -13.4452  -16.9038 C   0  0  0  0  0  0  0  0  0  0  0  0
   19.5553  -12.3241  -15.8942 C   0  0  1  0  0  0  0  0  0  0  0  0
   20.1841  -11.0714  -16.3939 C   0  0  0  0  0  0  0  0  0  0  0  0
   21.3412  -11.0218  -16.8530 O   0  0  0  0  0  0  0  0  0  0  0  0
   19.5552   -8.8777  -19.1625 C   0  0  0  0  0  0  0  0  0  0  0  0
   19.2568   -8.0031  -17.9695 C   0  0  1  0  0  0  0  0  0  0  0  0
   17.8830   -7.9172  -17.7777 O   0  0  0  0  0  0  0  0  0  0  0  0
   19.9644   -8.5922  -16.7737 C   0  0  2  0  0  0  0  0  0  0  0  0
   19.4491   -9.8602  -16.3560 N   0  0  0  0  0  0  0  0  0  0  0  0
   20.0838   -7.6214  -15.6565 C   0  0  0  0  0  0  0  0  0  0  0  0
   19.2087   -7.5699  -14.7543 O   0  0  0  0  0  0  0  0  0  0  0  0
   22.6278   -4.2692  -13.2200 O   0  0  0  0  0  0  0  0  0  0  0  0
   22.6006   -5.1849  -14.2689 C   0  0  0  0  0  0  0  0  0  0  0  0
   21.2205   -5.7887  -14.4226 C   0  0  2  0  0  0  0  0  0  0  0  0
   21.1650   -6.7123  -15.5372 N   0  0  0  0  0  0  0  0  0  0  0  0
   20.1751   -4.7381  -14.5159 C   0  0  0  0  0  0  0  0  0  0  0  0
   19.4730   -4.4261  -13.3612 O   0  0  0  0  0  0  0  0  0  0  0  0
   19.9659   -4.1816  -15.6051 O   0  0  0  0  0  0  0  0  0  0  0  0
  1  5  1  0
  2  1  1  0
  3  2  1  0
  3  4  1  0
  4  5  1  0
  5  6  1  6
  6  7  2  0
  9  8  1  6
  9 10  1  0
  9 11  1  0
 11 13  1  0
 12  6  1  0
 11 12  1  1
 13 14  2  0
 13 18  1  0
 17 16  1  6
 16 15  1  0
 17 19  1  0
 18 17  1  0
 19 21  2  0
 19 20  1  0
M  END
$$$$
