PTS.pdb
     RDKit          3D

 21 21  0  0  1  0  0  0  0  0999 V2000
   15.8469  -19.0512    2.9362 N   0  0  0  0  0  0  0  0  0  0  0  0
   16.0030  -20.2341    2.1326 C   0  0  0  0  0  0  0  0  0  0  0  0
   16.0290  -21.4077    3.0860 C   0  0  0  0  0  0  0  0  0  0  0  0
   16.6734  -20.8011    4.3135 C   0  0  0  0  0  0  0  0  0  0  0  0
   16.2826  -19.3425    4.2615 C   0  0  1  0  0  0  0  0  0  0  0  0
   17.3835  -18.4501    4.7152 C   0  0  0  0  0  0  0  0  0  0  0  0
   18.5748  -18.6118    4.3886 O   0  0  0  0  0  0  0  0  0  0  0  0
   17.1541  -14.5208    4.7868 C   0  0  0  0  0  0  0  0  0  0  0  0
   17.5375  -15.0032    6.1643 C   0  0  1  0  0  0  0  0  0  0  0  0
   16.4417  -14.9237    7.0155 O   0  0  0  0  0  0  0  0  0  0  0  0
   18.0576  -16.4140    6.0338 C   0  0  2  0  0  0  0  0  0  0  0  0
   17.0865  -17.3535    5.5625 N   0  0  0  0  0  0  0  0  0  0  0  0
   18.7551  -16.8719    7.2620 C   0  0  0  0  0  0  0  0  0  0  0  0
   18.2928  -17.8200    7.9474 O   0  0  0  0  0  0  0  0  0  0  0  0
   21.9964  -18.5283    8.0916 O   0  0  0  0  0  0  0  0  0  0  0  0
   22.0021  -17.2592    8.6649 C   0  0  0  0  0  0  0  0  0  0  0  0
   20.5904  -16.7825    8.9346 C   0  0  2  0  0  0  0  0  0  0  0  0
   19.9577  -16.2849    7.7302 N   0  0  0  0  0  0  0  0  0  0  0  0
   20.5541  -15.7870   10.0360 C   0  0  0  0  0  0  0  0  0  0  0  0
   20.9829  -16.1992   11.2889 O   0  0  0  0  0  0  0  0  0  0  0  0
   20.1485  -14.6372    9.8050 O   0  0  0  0  0  0  0  0  0  0  0  0
  1  5  1  0
  2  1  1  0
  3  2  1  0
  3  4  1  0
  4  5  1  0
  5  6  1  6
  6  7  2  0
  9  8  1  6
  9 10  1  0
  9 11  1  0
 11 13  1  0
 12  6  1  0
 11 12  1  1
 13 14  2  0
 13 18  1  0
 17 16  1  6
 16 15  1  0
 17 19  1  0
 18 17  1  0
 19 21  2  0
 19 20  1  0
M  END
$$$$
