PTS.pdb
     RDKit          3D

 21 21  0  0  1  0  0  0  0  0999 V2000
   24.4798  -12.1186  -15.8719 N   0  0  0  0  0  0  0  0  0  0  0  0
   24.2303  -13.4964  -15.5423 C   0  0  0  0  0  0  0  0  0  0  0  0
   24.0320  -14.2280  -16.8509 C   0  0  0  0  0  0  0  0  0  0  0  0
   23.4039  -13.1579  -17.7170 C   0  0  0  0  0  0  0  0  0  0  0  0
   23.9554  -11.8611  -17.1719 C   0  0  1  0  0  0  0  0  0  0  0  0
   22.9405  -10.7729  -17.1785 C   0  0  0  0  0  0  0  0  0  0  0  0
   22.4130  -10.3347  -18.2186 O   0  0  0  0  0  0  0  0  0  0  0  0
   19.5949  -10.6217  -15.9312 C   0  0  0  0  0  0  0  0  0  0  0  0
   20.3036   -9.5855  -15.0938 C   0  0  1  0  0  0  0  0  0  0  0  0
   20.5917  -10.1080  -13.8386 O   0  0  0  0  0  0  0  0  0  0  0  0
   21.5481   -9.1618  -15.8351 C   0  0  2  0  0  0  0  0  0  0  0  0
   22.5372  -10.1895  -15.9515 N   0  0  0  0  0  0  0  0  0  0  0  0
   22.1015   -7.8837  -15.3203 C   0  0  0  0  0  0  0  0  0  0  0  0
   22.9336   -7.8780  -14.3769 O   0  0  0  0  0  0  0  0  0  0  0  0
   22.4851   -3.0349  -15.5928 O   0  0  0  0  0  0  0  0  0  0  0  0
   21.9848   -4.2020  -16.1647 C   0  0  0  0  0  0  0  0  0  0  0  0
   22.3502   -5.4116  -15.3302 C   0  0  2  0  0  0  0  0  0  0  0  0
   21.7370   -6.6185  -15.8458 N   0  0  0  0  0  0  0  0  0  0  0  0
   22.0370   -5.1961  -13.8947 C   0  0  0  0  0  0  0  0  0  0  0  0
   23.0033   -4.5827  -13.1113 O   0  0  0  0  0  0  0  0  0  0  0  0
   20.9394   -5.5648  -13.4483 O   0  0  0  0  0  0  0  0  0  0  0  0
  1  5  1  0
  2  1  1  0
  3  2  1  0
  3  4  1  0
  4  5  1  0
  5  6  1  1
  6  7  2  0
  9  8  1  6
  9 10  1  0
  9 11  1  0
 11 13  1  0
 12  6  1  0
 11 12  1  1
 13 14  2  0
 13 18  1  0
 17 16  1  6
 16 15  1  0
 17 19  1  0
 18 17  1  0
 19 21  2  0
 19 20  1  0
M  END
$$$$
