PTS.pdb
     RDKit          3D

 21 21  0  0  1  0  0  0  0  0999 V2000
   15.6194  -13.5338  -15.2591 N   0  0  0  0  0  0  0  0  0  0  0  0
   14.2303  -13.8894  -15.1434 C   0  0  0  0  0  0  0  0  0  0  0  0
   13.4879  -13.0915  -16.1917 C   0  0  0  0  0  0  0  0  0  0  0  0
   14.3116  -11.8241  -16.2637 C   0  0  0  0  0  0  0  0  0  0  0  0
   15.7105  -12.2636  -15.8991 C   0  0  1  0  0  0  0  0  0  0  0  0
   16.4189  -11.2507  -15.0707 C   0  0  0  0  0  0  0  0  0  0  0  0
   16.2987  -11.1727  -13.8331 O   0  0  0  0  0  0  0  0  0  0  0  0
   19.9710  -10.6246  -14.5720 C   0  0  0  0  0  0  0  0  0  0  0  0
   19.4815   -9.3316  -15.1770 C   0  0  1  0  0  0  0  0  0  0  0  0
   19.8631   -9.2594  -16.5115 O   0  0  0  0  0  0  0  0  0  0  0  0
   17.9827   -9.2785  -15.0082 C   0  0  2  0  0  0  0  0  0  0  0  0
   17.2798  -10.3163  -15.6987 N   0  0  0  0  0  0  0  0  0  0  0  0
   17.4334   -7.9269  -15.2844 C   0  0  0  0  0  0  0  0  0  0  0  0
   16.9418   -7.6510  -16.4089 O   0  0  0  0  0  0  0  0  0  0  0  0
   15.5291   -3.8079  -13.6907 O   0  0  0  0  0  0  0  0  0  0  0  0
   16.1965   -4.9895  -13.3779 C   0  0  0  0  0  0  0  0  0  0  0  0
   16.7864   -5.6214  -14.6211 C   0  0  2  0  0  0  0  0  0  0  0  0
   17.4275   -6.8856  -14.3223 N   0  0  0  0  0  0  0  0  0  0  0  0
   17.6994   -4.6856  -15.3254 C   0  0  0  0  0  0  0  0  0  0  0  0
   17.1342   -3.7846  -16.2155 O   0  0  0  0  0  0  0  0  0  0  0  0
   18.9185   -4.7378  -15.0994 O   0  0  0  0  0  0  0  0  0  0  0  0
  1  5  1  0
  2  1  1  0
  3  2  1  0
  3  4  1  0
  4  5  1  0
  5  6  1  1
  6  7  2  0
  9  8  1  6
  9 10  1  0
  9 11  1  0
 11 13  1  0
 12  6  1  0
 11 12  1  6
 13 14  2  0
 13 18  1  0
 17 16  1  1
 16 15  1  0
 17 19  1  0
 18 17  1  0
 19 21  2  0
 19 20  1  0
M  END
$$$$
