PTS.pdb
     RDKit          3D

 21 21  0  0  1  0  0  0  0  0999 V2000
   27.4766  -18.7490  -17.8246 N   0  0  0  0  0  0  0  0  0  0  0  0
   28.6814  -17.9633  -17.8029 C   0  0  0  0  0  0  0  0  0  0  0  0
   29.7790  -18.8337  -18.3729 C   0  0  0  0  0  0  0  0  0  0  0  0
   29.3417  -20.2156  -17.9384 C   0  0  0  0  0  0  0  0  0  0  0  0
   27.8351  -20.1278  -17.8657 C   0  0  1  0  0  0  0  0  0  0  0  0
   27.2825  -20.9010  -16.7208 C   0  0  0  0  0  0  0  0  0  0  0  0
   27.5798  -22.0884  -16.4890 O   0  0  0  0  0  0  0  0  0  0  0  0
   27.5926  -20.4590  -13.2356 C   0  0  0  0  0  0  0  0  0  0  0  0
   26.0931  -20.3783  -13.3847 C   0  0  1  0  0  0  0  0  0  0  0  0
   25.6724  -19.0627  -13.2301 O   0  0  0  0  0  0  0  0  0  0  0  0
   25.7306  -20.9382  -14.7385 C   0  0  2  0  0  0  0  0  0  0  0  0
   26.3696  -20.2764  -15.8347 N   0  0  0  0  0  0  0  0  0  0  0  0
   24.2624  -21.0672  -14.9187 C   0  0  0  0  0  0  0  0  0  0  0  0
   23.6360  -20.2774  -15.6712 O   0  0  0  0  0  0  0  0  0  0  0  0
   20.1177  -23.5144  -14.2780 O   0  0  0  0  0  0  0  0  0  0  0  0
   21.4973  -23.4775  -14.0916 C   0  0  0  0  0  0  0  0  0  0  0  0
   22.0579  -22.1244  -14.4760 C   0  0  2  0  0  0  0  0  0  0  0  0
   23.4905  -22.0642  -14.2706 N   0  0  0  0  0  0  0  0  0  0  0  0
   21.3473  -21.0234  -13.7772 C   0  0  0  0  0  0  0  0  0  0  0  0
   20.1254  -20.6179  -14.2932 O   0  0  0  0  0  0  0  0  0  0  0  0
   21.8598  -20.5095  -12.7707 O   0  0  0  0  0  0  0  0  0  0  0  0
  1  5  1  0
  2  1  1  0
  3  2  1  0
  3  4  1  0
  4  5  1  0
  5  6  1  1
  6  7  2  0
  9  8  1  6
  9 10  1  0
  9 11  1  0
 11 13  1  0
 12  6  1  0
 11 12  1  6
 13 14  2  0
 13 18  1  0
 17 16  1  1
 16 15  1  0
 17 19  1  0
 18 17  1  0
 19 21  2  0
 19 20  1  0
M  END
$$$$
