MVG.pdb
     RDKit          3D

 20 19  0  0  1  0  0  0  0  0999 V2000
   18.4228  -15.4128  -13.8228 C   0  0  0  0  0  0  0  0  0  0  0  0
   17.9937  -13.6609  -13.7133 S   0  0  0  0  0  0  0  0  0  0  0  0
   16.6810  -13.3752  -12.5060 C   0  0  0  0  0  0  0  0  0  0  0  0
   16.3407  -11.8979  -12.3985 C   0  0  0  0  0  0  0  0  0  0  0  0
   15.3043  -11.6524  -11.3309 C   0  0  2  0  0  0  0  0  0  0  0  0
   14.1042  -12.3969  -11.6308 N   0  0  0  0  0  0  0  0  0  0  0  0
   14.9582  -10.1899  -11.2546 C   0  0  0  0  0  0  0  0  0  0  0  0
   13.9730   -9.7193  -11.8708 O   0  0  0  0  0  0  0  0  0  0  0  0
   15.4725   -6.1201   -8.5683 C   0  0  0  0  0  0  0  0  0  0  0  0
   15.3918   -7.5994   -8.8655 C   0  0  1  0  0  0  0  0  0  0  0  0
   14.1730   -8.2472   -8.2482 C   0  0  0  0  0  0  0  0  0  0  0  0
   15.5299   -7.9054  -10.3351 C   0  0  2  0  0  0  0  0  0  0  0  0
   15.7399   -9.3137  -10.4837 N   0  0  0  0  0  0  0  0  0  0  0  0
   16.5499   -7.0834  -11.0125 C   0  0  0  0  0  0  0  0  0  0  0  0
   17.7289   -7.1472  -10.5752 O   0  0  0  0  0  0  0  0  0  0  0  0
   16.2912   -6.2386  -12.1082 N   0  0  0  0  0  0  0  0  0  0  0  0
   17.3492   -5.4374  -12.6705 C   0  0  0  0  0  0  0  0  0  0  0  0
   17.0290   -3.9982  -12.5165 C   0  0  0  0  0  0  0  0  0  0  0  0
   15.9420   -3.6195  -12.0166 O   0  0  0  0  0  0  0  0  0  0  0  0
   17.9302   -3.0333  -12.9243 O   0  0  0  0  0  0  0  0  0  0  0  0
  2  1  1  0
  3  2  1  0
  4  5  1  0
  4  3  1  0
  5  6  1  6
  7  5  1  0
  8  7  2  0
 10  9  1  6
 10 11  1  0
 12 10  1  0
 12 13  1  1
 13  7  1  0
 14 16  1  0
 14 12  1  0
 15 14  2  0
 17 18  1  0
 17 16  1  0
 18 20  1  0
 19 18  2  0
M  END
$$$$
