MVG.pdb
     RDKit          3D

 20 19  0  0  1  0  0  0  0  0999 V2000
   26.6520  -15.1957  -14.4565 C   0  0  0  0  0  0  0  0  0  0  0  0
   26.3172  -16.6694  -15.4470 S   0  0  0  0  0  0  0  0  0  0  0  0
   25.1282  -16.3266  -16.7626 C   0  0  0  0  0  0  0  0  0  0  0  0
   24.8965  -14.8331  -16.9231 C   0  0  0  0  0  0  0  0  0  0  0  0
   23.8355  -14.5530  -17.9575 C   0  0  2  0  0  0  0  0  0  0  0  0
   24.2365  -15.0985  -19.2327 N   0  0  0  0  0  0  0  0  0  0  0  0
   23.6239  -13.0712  -18.1118 C   0  0  0  0  0  0  0  0  0  0  0  0
   24.4951  -12.3387  -18.6374 O   0  0  0  0  0  0  0  0  0  0  0  0
   20.3416   -9.5188  -18.6160 C   0  0  0  0  0  0  0  0  0  0  0  0
   20.8666  -10.9355  -18.5922 C   0  0  1  0  0  0  0  0  0  0  0  0
   21.0349  -11.5128  -19.9794 C   0  0  0  0  0  0  0  0  0  0  0  0
   22.1073  -11.0814  -17.7485 C   0  0  2  0  0  0  0  0  0  0  0  0
   22.4340  -12.4728  -17.6656 N   0  0  0  0  0  0  0  0  0  0  0  0
   22.0040  -10.4216  -16.4336 C   0  0  0  0  0  0  0  0  0  0  0  0
   21.2396  -10.9457  -15.5813 O   0  0  0  0  0  0  0  0  0  0  0  0
   22.7000   -9.2524  -16.0737 N   0  0  0  0  0  0  0  0  0  0  0  0
   22.5188   -8.6755  -14.7653 C   0  0  0  0  0  0  0  0  0  0  0  0
   21.5955   -7.5186  -14.8472 C   0  0  0  0  0  0  0  0  0  0  0  0
   21.0976   -7.1547  -15.9400 O   0  0  0  0  0  0  0  0  0  0  0  0
   21.2603   -6.8091  -13.7097 O   0  0  0  0  0  0  0  0  0  0  0  0
  2  1  1  0
  3  2  1  0
  4  5  1  0
  4  3  1  0
  5  6  1  6
  7  5  1  0
  8  7  2  0
 10  9  1  6
 10 11  1  0
 12 10  1  0
 12 13  1  1
 13  7  1  0
 14 16  1  0
 14 12  1  0
 15 14  2  0
 17 18  1  0
 17 16  1  0
 18 20  1  0
 19 18  2  0
M  END
$$$$
