MVG.pdb
     RDKit          3D

 20 19  0  0  1  0  0  0  0  0999 V2000
   12.0620   -9.5983   -6.7900 C   0  0  0  0  0  0  0  0  0  0  0  0
   10.4701   -9.6801   -7.6410 S   0  0  0  0  0  0  0  0  0  0  0  0
   10.4636  -10.9647   -8.9107 C   0  0  0  0  0  0  0  0  0  0  0  0
   11.7645  -10.9720   -9.6964 C   0  0  0  0  0  0  0  0  0  0  0  0
   11.7551  -12.0424  -10.7587 C   0  0  2  0  0  0  0  0  0  0  0  0
   11.6325  -13.3432  -10.1442 N   0  0  0  0  0  0  0  0  0  0  0  0
   13.0284  -12.0055  -11.5596 C   0  0  0  0  0  0  0  0  0  0  0  0
   14.0572  -12.6123  -11.1784 O   0  0  0  0  0  0  0  0  0  0  0  0
   14.9958  -11.5837  -15.9675 C   0  0  0  0  0  0  0  0  0  0  0  0
   13.9325  -11.8326  -14.9232 C   0  0  1  0  0  0  0  0  0  0  0  0
   13.6155  -13.3019  -14.7601 C   0  0  0  0  0  0  0  0  0  0  0  0
   14.2368  -11.1555  -13.6112 C   0  0  2  0  0  0  0  0  0  0  0  0
   13.0908  -11.2830  -12.7627 N   0  0  0  0  0  0  0  0  0  0  0  0
   14.7052   -9.7653  -13.7628 C   0  0  0  0  0  0  0  0  0  0  0  0
   13.8534   -8.9005  -14.0974 O   0  0  0  0  0  0  0  0  0  0  0  0
   16.0335   -9.3471  -13.5588 N   0  0  0  0  0  0  0  0  0  0  0  0
   16.4006   -7.9702  -13.7754 C   0  0  0  0  0  0  0  0  0  0  0  0
   17.8463   -7.7846  -13.5050 C   0  0  0  0  0  0  0  0  0  0  0  0
   18.5568   -8.7238  -13.0717 O   0  0  0  0  0  0  0  0  0  0  0  0
   18.4481   -6.5606  -13.7268 O   0  0  0  0  0  0  0  0  0  0  0  0
  2  1  1  0
  3  2  1  0
  4  5  1  0
  4  3  1  0
  5  6  1  1
  7  5  1  0
  8  7  2  0
 10  9  1  6
 10 11  1  0
 12 10  1  0
 12 13  1  1
 13  7  1  0
 14 16  1  0
 14 12  1  0
 15 14  2  0
 17 18  1  0
 17 16  1  0
 18 20  1  0
 19 18  2  0
M  END
$$$$
