MVG.pdb
     RDKit          3D

 20 19  0  0  1  0  0  0  0  0999 V2000
   20.0134  -21.6041  -15.4028 C   0  0  0  0  0  0  0  0  0  0  0  0
   19.1442  -22.0852  -13.8935 S   0  0  0  0  0  0  0  0  0  0  0  0
   20.2690  -22.1798  -12.4834 C   0  0  0  0  0  0  0  0  0  0  0  0
   21.4128  -21.1885  -12.6212 C   0  0  0  0  0  0  0  0  0  0  0  0
   22.3982  -21.3306  -11.4885 C   0  0  2  0  0  0  0  0  0  0  0  0
   21.7964  -20.8827  -10.2549 N   0  0  0  0  0  0  0  0  0  0  0  0
   23.6300  -20.5071  -11.7512 C   0  0  0  0  0  0  0  0  0  0  0  0
   23.7636  -19.3593  -11.2649 O   0  0  0  0  0  0  0  0  0  0  0  0
   28.3570  -20.4145  -12.7647 C   0  0  0  0  0  0  0  0  0  0  0  0
   27.0425  -21.0627  -12.3972 C   0  0  1  0  0  0  0  0  0  0  0  0
   26.9294  -21.3402  -10.9153 C   0  0  0  0  0  0  0  0  0  0  0  0
   25.8528  -20.3123  -12.9396 C   0  0  2  0  0  0  0  0  0  0  0  0
   24.6653  -21.0130  -12.5545 N   0  0  0  0  0  0  0  0  0  0  0  0
   25.9365  -20.0472  -14.3879 C   0  0  0  0  0  0  0  0  0  0  0  0
   25.7416  -21.0174  -15.1663 O   0  0  0  0  0  0  0  0  0  0  0  0
   26.2181  -18.7883  -14.9508 N   0  0  0  0  0  0  0  0  0  0  0  0
   26.1527  -18.6025  -16.3787 C   0  0  0  0  0  0  0  0  0  0  0  0
   27.5170  -18.4095  -16.9256 C   0  0  0  0  0  0  0  0  0  0  0  0
   28.4775  -18.0814  -16.1877 O   0  0  0  0  0  0  0  0  0  0  0  0
   27.7622  -18.5885  -18.2737 O   0  0  0  0  0  0  0  0  0  0  0  0
  2  1  1  0
  3  2  1  0
  4  5  1  0
  4  3  1  0
  5  6  1  1
  7  5  1  0
  8  7  2  0
 10  9  1  1
 10 11  1  0
 12 10  1  0
 12 13  1  6
 13  7  1  0
 14 16  1  0
 14 12  1  0
 15 14  2  0
 17 18  1  0
 17 16  1  0
 18 20  1  0
 19 18  2  0
M  END
$$$$
