MVG.pdb
     RDKit          3D

 20 19  0  0  1  0  0  0  0  0999 V2000
   26.2785  -16.7066  -18.8582 C   0  0  0  0  0  0  0  0  0  0  0  0
   27.8768  -17.0953  -18.1103 S   0  0  0  0  0  0  0  0  0  0  0  0
   27.7754  -17.1192  -16.3071 C   0  0  0  0  0  0  0  0  0  0  0  0
   26.7843  -18.1648  -15.8229 C   0  0  0  0  0  0  0  0  0  0  0  0
   27.4859  -19.2945  -15.1118 C   0  0  2  0  0  0  0  0  0  0  0  0
   28.4018  -19.9500  -16.0152 N   0  0  0  0  0  0  0  0  0  0  0  0
   26.4903  -20.3076  -14.6152 C   0  0  0  0  0  0  0  0  0  0  0  0
   26.7389  -21.5361  -14.6452 O   0  0  0  0  0  0  0  0  0  0  0  0
   26.2759  -22.0910  -12.6923 C   0  0  0  0  0  0  0  0  0  0  0  0
   25.0022  -21.3962  -12.2703 C   0  0  1  0  0  0  0  0  0  0  0  0
   25.2109  -20.4726  -11.0916 C   0  0  0  0  0  0  0  0  0  0  0  0
   24.3007  -20.7198  -13.4205 C   0  0  2  0  0  0  0  0  0  0  0  0
   25.2498  -19.8932  -14.1028 N   0  0  0  0  0  0  0  0  0  0  0  0
   23.0756  -20.0027  -13.0208 C   0  0  0  0  0  0  0  0  0  0  0  0
   23.2096  -18.8366  -12.5653 O   0  0  0  0  0  0  0  0  0  0  0  0
   21.7760  -20.5350  -13.1155 N   0  0  0  0  0  0  0  0  0  0  0  0
   20.6336  -19.7184  -12.7904 C   0  0  0  0  0  0  0  0  0  0  0  0
   19.3865  -20.4977  -12.9775 C   0  0  0  0  0  0  0  0  0  0  0  0
   19.4114  -21.6857  -13.3811 O   0  0  0  0  0  0  0  0  0  0  0  0
   18.1574  -19.9264  -12.7084 O   0  0  0  0  0  0  0  0  0  0  0  0
  2  1  1  0
  3  2  1  0
  4  5  1  0
  4  3  1  0
  5  6  1  6
  7  5  1  0
  8  7  2  0
 10  9  1  6
 10 11  1  0
 12 10  1  0
 12 13  1  1
 13  7  1  0
 14 16  1  0
 14 12  1  0
 15 14  2  0
 17 18  1  0
 17 16  1  0
 18 20  1  0
 19 18  2  0
M  END
$$$$
