MVG.pdb
     RDKit          3D

 20 19  0  0  1  0  0  0  0  0999 V2000
   20.5077  -20.5550  -14.7195 C   0  0  0  0  0  0  0  0  0  0  0  0
   21.7084  -19.3364  -15.3012 S   0  0  0  0  0  0  0  0  0  0  0  0
   23.3698  -19.7023  -14.6945 C   0  0  0  0  0  0  0  0  0  0  0  0
   23.3402  -20.1663  -13.2475 C   0  0  0  0  0  0  0  0  0  0  0  0
   24.7349  -20.3497  -12.7041 C   0  0  2  0  0  0  0  0  0  0  0  0
   25.5261  -21.1224  -13.6323 N   0  0  0  0  0  0  0  0  0  0  0  0
   24.6987  -21.0712  -11.3840 C   0  0  0  0  0  0  0  0  0  0  0  0
   24.6812  -22.3235  -11.3249 O   0  0  0  0  0  0  0  0  0  0  0  0
   25.4047  -20.5876   -6.5114 C   0  0  0  0  0  0  0  0  0  0  0  0
   25.4658  -20.1043   -7.9417 C   0  0  1  0  0  0  0  0  0  0  0  0
   26.8842  -19.9861   -8.4517 C   0  0  0  0  0  0  0  0  0  0  0  0
   24.5824  -20.9052   -8.8641 C   0  0  2  0  0  0  0  0  0  0  0  0
   24.6836  -20.3490  -10.1793 N   0  0  0  0  0  0  0  0  0  0  0  0
   23.1939  -21.0318   -8.3837 C   0  0  0  0  0  0  0  0  0  0  0  0
   22.3962  -20.0994   -8.6662 O   0  0  0  0  0  0  0  0  0  0  0  0
   22.7074  -22.1200   -7.6353 N   0  0  0  0  0  0  0  0  0  0  0  0
   21.3989  -22.0582   -7.0339 C   0  0  0  0  0  0  0  0  0  0  0  0
   20.3756  -22.5165   -8.0036 C   0  0  0  0  0  0  0  0  0  0  0  0
   20.6109  -22.5517   -9.2357 O   0  0  0  0  0  0  0  0  0  0  0  0
   19.1279  -22.9187   -7.5665 O   0  0  0  0  0  0  0  0  0  0  0  0
  2  1  1  0
  3  2  1  0
  4  5  1  0
  4  3  1  0
  5  6  1  6
  7  5  1  0
  8  7  2  0
 10  9  1  1
 10 11  1  0
 12 10  1  0
 12 13  1  6
 13  7  1  0
 14 16  1  0
 14 12  1  0
 15 14  2  0
 17 18  1  0
 17 16  1  0
 18 20  1  0
 19 18  2  0
M  END
$$$$
