MVG.pdb
     RDKit          3D

 20 19  0  0  1  0  0  0  0  0999 V2000
   28.5903  -18.0226   -6.4872 C   0  0  0  0  0  0  0  0  0  0  0  0
   27.0978  -18.9819   -6.1446 S   0  0  0  0  0  0  0  0  0  0  0  0
   26.9090  -20.3504   -7.3081 C   0  0  0  0  0  0  0  0  0  0  0  0
   26.6519  -19.8456   -8.7184 C   0  0  0  0  0  0  0  0  0  0  0  0
   26.4682  -20.9901   -9.6832 C   0  0  2  0  0  0  0  0  0  0  0  0
   27.7178  -21.6924   -9.8558 N   0  0  0  0  0  0  0  0  0  0  0  0
   26.0099  -20.4843  -11.0243 C   0  0  0  0  0  0  0  0  0  0  0  0
   26.7251  -19.7177  -11.7119 O   0  0  0  0  0  0  0  0  0  0  0  0
   23.9772  -21.6494  -15.1139 C   0  0  0  0  0  0  0  0  0  0  0  0
   24.5696  -21.7798  -13.7300 C   0  0  1  0  0  0  0  0  0  0  0  0
   26.0419  -22.1223  -13.7616 C   0  0  0  0  0  0  0  0  0  0  0  0
   24.2694  -20.5897  -12.8548 C   0  0  2  0  0  0  0  0  0  0  0  0
   24.7591  -20.8647  -11.5379 N   0  0  0  0  0  0  0  0  0  0  0  0
   22.8521  -20.1831  -12.8828 C   0  0  0  0  0  0  0  0  0  0  0  0
   22.0545  -20.8116  -12.1382 O   0  0  0  0  0  0  0  0  0  0  0  0
   22.3382  -19.1452  -13.6827 N   0  0  0  0  0  0  0  0  0  0  0  0
   20.9611  -18.7414  -13.5484 C   0  0  0  0  0  0  0  0  0  0  0  0
   20.0807  -19.7108  -14.2432 C   0  0  0  0  0  0  0  0  0  0  0  0
   20.5443  -20.5594  -15.0430 O   0  0  0  0  0  0  0  0  0  0  0  0
   18.7166  -19.7003  -14.0222 O   0  0  0  0  0  0  0  0  0  0  0  0
  2  1  1  0
  3  2  1  0
  4  5  1  0
  4  3  1  0
  5  6  1  6
  7  5  1  0
  8  7  2  0
 10  9  1  6
 10 11  1  0
 12 10  1  0
 12 13  1  1
 13  7  1  0
 14 16  1  0
 14 12  1  0
 15 14  2  0
 17 18  1  0
 17 16  1  0
 18 20  1  0
 19 18  2  0
M  END
$$$$
