MVG.pdb
     RDKit          3D

 20 19  0  0  1  0  0  0  0  0999 V2000
   20.0673  -22.6052   -9.1827 C   0  0  0  0  0  0  0  0  0  0  0  0
   21.5878  -22.0124   -9.9582 S   0  0  0  0  0  0  0  0  0  0  0  0
   22.0818  -20.4037   -9.3021 C   0  0  0  0  0  0  0  0  0  0  0  0
   23.3028  -19.8622  -10.0272 C   0  0  0  0  0  0  0  0  0  0  0  0
   24.4265  -20.8679  -10.0309 C   0  0  2  0  0  0  0  0  0  0  0  0
   24.9557  -21.0181   -8.6960 N   0  0  0  0  0  0  0  0  0  0  0  0
   25.5366  -20.4189  -10.9422 C   0  0  0  0  0  0  0  0  0  0  0  0
   26.4995  -19.7404  -10.5127 O   0  0  0  0  0  0  0  0  0  0  0  0
   26.2106  -22.3642  -14.5916 C   0  0  0  0  0  0  0  0  0  0  0  0
   27.1195  -21.3276  -13.9732 C   0  0  1  0  0  0  0  0  0  0  0  0
   28.1758  -20.8364  -14.9371 C   0  0  0  0  0  0  0  0  0  0  0  0
   26.3580  -20.2007  -13.3231 C   0  0  2  0  0  0  0  0  0  0  0  0
   25.5163  -20.7543  -12.3061 N   0  0  0  0  0  0  0  0  0  0  0  0
   25.6356  -19.3483  -14.2857 C   0  0  0  0  0  0  0  0  0  0  0  0
   24.4324  -19.6338  -14.5225 O   0  0  0  0  0  0  0  0  0  0  0  0
   26.2013  -18.2447  -14.9513 N   0  0  0  0  0  0  0  0  0  0  0  0
   25.3774  -17.3948  -15.7737 C   0  0  0  0  0  0  0  0  0  0  0  0
   25.2885  -17.9515  -17.1447 C   0  0  0  0  0  0  0  0  0  0  0  0
   25.9560  -18.9576  -17.4870 O   0  0  0  0  0  0  0  0  0  0  0  0
   24.4601  -17.3683  -18.0844 O   0  0  0  0  0  0  0  0  0  0  0  0
  2  1  1  0
  3  2  1  0
  4  5  1  0
  4  3  1  0
  5  6  1  1
  7  5  1  0
  8  7  2  0
 10  9  1  6
 10 11  1  0
 12 10  1  0
 12 13  1  1
 13  7  1  0
 14 16  1  0
 14 12  1  0
 15 14  2  0
 17 18  1  0
 17 16  1  0
 18 20  1  0
 19 18  2  0
M  END
$$$$
