MVG.pdb
     RDKit          3D

 20 19  0  0  1  0  0  0  0  0999 V2000
   24.9891  -16.6525  -22.7363 C   0  0  0  0  0  0  0  0  0  0  0  0
   24.9183  -15.5382  -21.3157 S   0  0  0  0  0  0  0  0  0  0  0  0
   23.3596  -15.7074  -20.4189 C   0  0  0  0  0  0  0  0  0  0  0  0
   23.2592  -14.6957  -19.2892 C   0  0  0  0  0  0  0  0  0  0  0  0
   24.4033  -14.8458  -18.3182 C   0  0  2  0  0  0  0  0  0  0  0  0
   24.3208  -16.1261  -17.6561 N   0  0  0  0  0  0  0  0  0  0  0  0
   24.3603  -13.7605  -17.2768 C   0  0  0  0  0  0  0  0  0  0  0  0
   23.7264  -13.9088  -16.2053 O   0  0  0  0  0  0  0  0  0  0  0  0
   26.6226   -9.7764  -15.5288 C   0  0  0  0  0  0  0  0  0  0  0  0
   26.4915  -11.0098  -16.3917 C   0  0  1  0  0  0  0  0  0  0  0  0
   27.3677  -12.1454  -15.9135 C   0  0  0  0  0  0  0  0  0  0  0  0
   25.0574  -11.4285  -16.5930 C   0  0  2  0  0  0  0  0  0  0  0  0
   25.0364  -12.5471  -17.4862 N   0  0  0  0  0  0  0  0  0  0  0  0
   24.1765  -10.3230  -17.0133 C   0  0  0  0  0  0  0  0  0  0  0  0
   24.4558   -9.7386  -18.0931 O   0  0  0  0  0  0  0  0  0  0  0  0
   23.0522   -9.8829  -16.2899 N   0  0  0  0  0  0  0  0  0  0  0  0
   22.2740   -8.7681  -16.7685 C   0  0  0  0  0  0  0  0  0  0  0  0
   22.4875   -7.5907  -15.8934 C   0  0  0  0  0  0  0  0  0  0  0  0
   23.2836   -7.6314  -14.9242 O   0  0  0  0  0  0  0  0  0  0  0  0
   21.8071   -6.4113  -16.1290 O   0  0  0  0  0  0  0  0  0  0  0  0
  2  1  1  0
  3  2  1  0
  4  5  1  0
  4  3  1  0
  5  6  1  1
  7  5  1  0
  8  7  2  0
 10  9  1  1
 10 11  1  0
 12 10  1  0
 12 13  1  6
 13  7  1  0
 14 16  1  0
 14 12  1  0
 15 14  2  0
 17 18  1  0
 17 16  1  0
 18 20  1  0
 19 18  2  0
M  END
$$$$
