MVG.pdb
     RDKit          3D

 20 19  0  0  1  0  0  0  0  0999 V2000
   26.7766   -9.6598  -16.3022 C   0  0  0  0  0  0  0  0  0  0  0  0
   26.4026  -11.0573  -15.2195 S   0  0  0  0  0  0  0  0  0  0  0  0
   24.6632  -11.5318  -15.3282 C   0  0  0  0  0  0  0  0  0  0  0  0
   23.7992  -10.3657  -15.7796 C   0  0  0  0  0  0  0  0  0  0  0  0
   22.3662  -10.7920  -15.9772 C   0  0  2  0  0  0  0  0  0  0  0  0
   22.2953  -11.8247  -16.9837 N   0  0  0  0  0  0  0  0  0  0  0  0
   21.5232   -9.6272  -16.4209 C   0  0  0  0  0  0  0  0  0  0  0  0
   21.4708   -9.2805  -17.6247 O   0  0  0  0  0  0  0  0  0  0  0  0
   17.5767   -6.9673  -15.4659 C   0  0  0  0  0  0  0  0  0  0  0  0
   18.5051   -8.1584  -15.5152 C   0  0  1  0  0  0  0  0  0  0  0  0
   18.0172   -9.2327  -16.4607 C   0  0  0  0  0  0  0  0  0  0  0  0
   19.9385   -7.7678  -15.7709 C   0  0  2  0  0  0  0  0  0  0  0  0
   20.7704   -8.8976  -15.4861 N   0  0  0  0  0  0  0  0  0  0  0  0
   20.3482   -6.5414  -15.0615 C   0  0  0  0  0  0  0  0  0  0  0  0
   19.7219   -5.4820  -15.3277 O   0  0  0  0  0  0  0  0  0  0  0  0
   21.3866   -6.4805  -14.1133 N   0  0  0  0  0  0  0  0  0  0  0  0
   21.7367   -5.2227  -13.5027 C   0  0  0  0  0  0  0  0  0  0  0  0
   22.3763   -4.3362  -14.5039 C   0  0  0  0  0  0  0  0  0  0  0  0
   22.6906   -4.7561  -15.6439 O   0  0  0  0  0  0  0  0  0  0  0  0
   22.6428   -3.0148  -14.1996 O   0  0  0  0  0  0  0  0  0  0  0  0
  2  1  1  0
  3  2  1  0
  4  5  1  0
  4  3  1  0
  5  6  1  6
  7  5  1  0
  8  7  2  0
 10  9  1  6
 10 11  1  0
 12 10  1  0
 12 13  1  1
 13  7  1  0
 14 16  1  0
 14 12  1  0
 15 14  2  0
 17 18  1  0
 17 16  1  0
 18 20  1  0
 19 18  2  0
M  END
$$$$
