MVG.pdb
     RDKit          3D

 20 19  0  0  1  0  0  0  0  0999 V2000
   25.2607  -19.1433   -6.7124 C   0  0  0  0  0  0  0  0  0  0  0  0
   26.7539  -19.1880   -7.7290 S   0  0  0  0  0  0  0  0  0  0  0  0
   26.7453  -20.5995   -8.8559 C   0  0  0  0  0  0  0  0  0  0  0  0
   26.2064  -20.2120  -10.2232 C   0  0  0  0  0  0  0  0  0  0  0  0
   26.1458  -21.4045  -11.1443 C   0  0  2  0  0  0  0  0  0  0  0  0
   27.4651  -21.9683  -11.3056 N   0  0  0  0  0  0  0  0  0  0  0  0
   25.6242  -21.0029  -12.4975 C   0  0  0  0  0  0  0  0  0  0  0  0
   26.4009  -20.6744  -13.4252 O   0  0  0  0  0  0  0  0  0  0  0  0
   21.7590  -21.4932  -15.5043 C   0  0  0  0  0  0  0  0  0  0  0  0
   22.5936  -21.7802  -14.2779 C   0  0  1  0  0  0  0  0  0  0  0  0
   23.1934  -23.1679  -14.2988 C   0  0  0  0  0  0  0  0  0  0  0  0
   23.6194  -20.7087  -14.0093 C   0  0  2  0  0  0  0  0  0  0  0  0
   24.2427  -20.9879  -12.7511 N   0  0  0  0  0  0  0  0  0  0  0  0
   23.0783  -19.3403  -14.1073 C   0  0  0  0  0  0  0  0  0  0  0  0
   22.2133  -18.9974  -13.2590 O   0  0  0  0  0  0  0  0  0  0  0  0
   23.4643  -18.4005  -15.0815 N   0  0  0  0  0  0  0  0  0  0  0  0
   22.8067  -17.1199  -15.1530 C   0  0  0  0  0  0  0  0  0  0  0  0
   22.7249  -16.6725  -16.5639 C   0  0  0  0  0  0  0  0  0  0  0  0
   22.6883  -17.4957  -17.5104 O   0  0  0  0  0  0  0  0  0  0  0  0
   22.6868  -15.3255  -16.8698 O   0  0  0  0  0  0  0  0  0  0  0  0
  2  1  1  0
  3  2  1  0
  4  5  1  0
  4  3  1  0
  5  6  1  6
  7  5  1  0
  8  7  2  0
 10  9  1  6
 10 11  1  0
 12 10  1  0
 12 13  1  1
 13  7  1  0
 14 16  1  0
 14 12  1  0
 15 14  2  0
 17 18  1  0
 17 16  1  0
 18 20  1  0
 19 18  2  0
M  END
$$$$
