RRW.pdb
     RDKit          3D

 37 38  0  0  1  0  0  0  0  0999 V2000
   29.2635  -28.9439  -18.0116 N   0  0  0  0  0  0  0  0  0  0  0  0
   29.9500  -27.7066  -18.3087 C   0  0  0  0  0  0  0  0  0  0  0  0
   30.9952  -27.7005  -19.0498 N   0  0  0  0  0  0  0  0  0  0  0  0
   29.4637  -26.4854  -17.7758 N   0  0  0  0  0  0  0  0  0  0  0  0
   28.1739  -26.3930  -17.1398 C   0  0  0  0  0  0  0  0  0  0  0  0
   27.2475  -25.5091  -17.9466 C   0  0  0  0  0  0  0  0  0  0  0  0
   25.8915  -25.3981  -17.3118 C   0  0  0  0  0  0  0  0  0  0  0  0
   25.8253  -24.3249  -16.2801 C   0  0  2  0  0  0  0  0  0  0  0  0
   26.2371  -24.8811  -14.9902 N   0  0  0  0  0  0  0  0  0  0  0  0
   24.4943  -23.6858  -16.1366 C   0  0  0  0  0  0  0  0  0  0  0  0
   23.8571  -23.2400  -17.1145 O   0  0  0  0  0  0  0  0  0  0  0  0
   31.4339  -26.8129  -19.3474 N   0  0  0  0  0  0  0  0  0  0  0  0
   17.1200  -22.4358  -12.0402 C   0  0  0  0  0  0  0  0  0  0  0  0
   17.9358  -23.1530  -11.1248 N   0  0  0  0  0  0  0  0  0  0  0  0
   17.5263  -23.2335   -9.8917 N   0  0  0  0  0  0  0  0  0  0  0  0
   19.1550  -23.7609  -11.5215 C   0  0  0  0  0  0  0  0  0  0  0  0
   19.3511  -24.2043  -12.8767 C   0  0  0  0  0  0  0  0  0  0  0  0
   20.2937  -23.3803  -13.6754 C   0  0  0  0  0  0  0  0  0  0  0  0
   21.7097  -23.8522  -13.7082 C   0  0  2  0  0  0  0  0  0  0  0  0
   22.5225  -23.0227  -14.7162 N   0  0  0  0  0  0  0  0  0  0  0  0
   23.8582  -23.5413  -14.8659 C   0  0  0  0  0  0  0  0  0  0  0  0
   22.5237  -21.5887  -14.3317 O   0  0  0  0  0  0  0  0  0  0  0  0
   22.9141  -21.2063  -13.1866 N   0  0  0  0  0  0  0  0  0  0  0  0
   18.1214  -23.6624   -9.1659 C   0  0  2  0  0  0  0  0  0  0  0  0
   22.0936  -20.5476  -15.2039 C   0  0  0  0  0  0  0  0  0  0  0  0
   22.0598  -19.1606  -14.7860 C   0  0  0  0  0  0  0  0  0  0  0  0
   22.5091  -18.2343  -15.8961 C   0  0  0  0  0  0  0  0  0  0  0  0
   23.9559  -18.4378  -16.1564 N   0  0  0  0  0  0  0  0  0  0  0  0
   24.5745  -19.4911  -16.8308 C   0  0  0  0  0  0  0  0  0  0  0  0
   25.9074  -19.2867  -16.8413 C   0  0  0  0  0  0  0  0  0  0  0  0
   26.2136  -18.1455  -16.2058 C   0  0  0  0  0  0  0  0  0  0  0  0
   27.4024  -17.5013  -15.9453 C   0  0  0  0  0  0  0  0  0  0  0  0
   27.3585  -16.3160  -15.2493 C   0  0  0  0  0  0  0  0  0  0  0  0
   26.1636  -15.7727  -14.8163 C   0  0  0  0  0  0  0  0  0  0  0  0
   24.9903  -16.4366  -15.0897 C   0  0  0  0  0  0  0  0  0  0  0  0
   24.9933  -17.6122  -15.7760 O   0  0  0  0  0  0  0  0  0  0  0  0
   20.6822  -18.8286  -14.3912 O   0  0  0  0  0  0  0  0  0  0  0  0
  2  3  2  0
  2  1  1  0
  4  2  1  0
  5  4  1  0
  6  5  1  0
  7  6  1  0
  8 10  1  0
  8  7  1  0
  8  9  1  1
 10 20  1  0
 10 11  2  0
 12 13  1  0
 13 14  2  0
 15 13  1  0
 16 15  1  0
 17 16  1  0
 18 17  1  0
 19 18  1  6
 19 21  1  0
 20 19  1  0
 21 23  1  0
 21 22  2  0
 23 24  1  0
 24 35  1  0
 24 25  1  1
 26 25  1  0
 27 26  2  0
 28 29  1  0
 28 27  1  0
 29 34  2  0
 30 29  1  0
 30 31  2  0
 31 32  1  0
 32 33  2  0
 34 26  1  0
 34 33  1  0
 35 37  1  0
 36 35  2  0
M  END
$$$$
