RRW.pdb
     RDKit          3D

 37 38  0  0  1  0  0  0  0  0999 V2000
   22.2743  -25.2502  -18.9630 N   0  0  0  0  0  0  0  0  0  0  0  0
   22.5780  -26.4369  -19.7312 C   0  0  0  0  0  0  0  0  0  0  0  0
   22.2755  -26.5061  -20.9744 N   0  0  0  0  0  0  0  0  0  0  0  0
   23.2174  -27.5373  -19.1050 N   0  0  0  0  0  0  0  0  0  0  0  0
   23.6311  -27.4923  -17.7253 C   0  0  0  0  0  0  0  0  0  0  0  0
   24.3947  -28.7468  -17.3601 C   0  0  0  0  0  0  0  0  0  0  0  0
   25.5795  -28.9582  -18.2578 C   0  0  0  0  0  0  0  0  0  0  0  0
   26.8685  -28.5952  -17.6042 C   0  0  2  0  0  0  0  0  0  0  0  0
   27.0124  -29.3749  -16.3737 N   0  0  0  0  0  0  0  0  0  0  0  0
   27.0191  -27.1529  -17.2918 C   0  0  0  0  0  0  0  0  0  0  0  0
   27.0855  -26.7254  -16.1197 O   0  0  0  0  0  0  0  0  0  0  0  0
   22.4704  -27.3592  -21.5249 N   0  0  0  0  0  0  0  0  0  0  0  0
   31.5371  -25.2303  -15.1912 C   0  0  0  0  0  0  0  0  0  0  0  0
   32.2120  -24.5336  -16.2289 N   0  0  0  0  0  0  0  0  0  0  0  0
   33.2796  -25.0870  -16.7275 N   0  0  0  0  0  0  0  0  0  0  0  0
   31.7559  -23.2800  -16.7126 C   0  0  0  0  0  0  0  0  0  0  0  0
   30.5639  -23.1885  -17.5142 C   0  0  0  0  0  0  0  0  0  0  0  0
   29.9425  -24.4911  -17.8641 C   0  0  0  0  0  0  0  0  0  0  0  0
   28.7796  -24.4315  -18.7985 C   0  0  2  0  0  0  0  0  0  0  0  0
   27.4834  -24.7981  -18.0567 N   0  0  0  0  0  0  0  0  0  0  0  0
   27.0978  -26.1616  -18.3171 C   0  0  0  0  0  0  0  0  0  0  0  0
   26.4000  -23.8409  -18.3943 O   0  0  0  0  0  0  0  0  0  0  0  0
   26.0508  -23.6262  -19.5951 N   0  0  0  0  0  0  0  0  0  0  0  0
   33.8592  -24.5855  -17.4186 C   0  0  2  0  0  0  0  0  0  0  0  0
   25.6800  -23.1008  -17.4128 C   0  0  0  0  0  0  0  0  0  0  0  0
   24.6891  -22.1072  -17.7740 C   0  0  0  0  0  0  0  0  0  0  0  0
   23.4437  -22.2284  -16.9217 C   0  0  0  0  0  0  0  0  0  0  0  0
   22.6195  -23.3632  -17.4069 N   0  0  0  0  0  0  0  0  0  0  0  0
   22.4761  -24.6319  -16.8442 C   0  0  0  0  0  0  0  0  0  0  0  0
   21.6326  -25.3595  -17.6043 C   0  0  0  0  0  0  0  0  0  0  0  0
   21.2025  -24.6393  -18.6514 C   0  0  0  0  0  0  0  0  0  0  0  0
   20.3507  -24.9136  -19.6981 C   0  0  0  0  0  0  0  0  0  0  0  0
   20.1215  -23.9229  -20.6239 C   0  0  0  0  0  0  0  0  0  0  0  0
   20.7207  -22.6815  -20.5217 C   0  0  0  0  0  0  0  0  0  0  0  0
   21.5673  -22.4337  -19.4664 C   0  0  0  0  0  0  0  0  0  0  0  0
   21.8191  -23.3890  -18.5300 O   0  0  0  0  0  0  0  0  0  0  0  0
   25.2833  -20.7735  -17.5956 O   0  0  0  0  0  0  0  0  0  0  0  0
  2  3  2  0
  2  1  1  0
  4  2  1  0
  5  4  1  0
  6  5  1  0
  7  6  1  0
  8 10  1  0
  8  7  1  0
  8  9  1  1
 10 20  1  0
 10 11  2  0
 12 13  1  0
 13 14  2  0
 15 13  1  0
 16 15  1  0
 17 16  1  0
 18 17  1  0
 19 18  1  1
 19 21  1  0
 20 19  1  0
 21 23  1  0
 21 22  2  0
 23 24  1  0
 24 35  1  0
 24 25  1  6
 26 25  1  0
 27 26  2  0
 28 29  1  0
 28 27  1  0
 29 34  2  0
 30 29  1  0
 30 31  2  0
 31 32  1  0
 32 33  2  0
 34 26  1  0
 34 33  1  0
 35 37  1  0
 36 35  2  0
M  END
$$$$
