RRW.pdb
     RDKit          3D

 37 38  0  0  1  0  0  0  0  0999 V2000
   20.8058  -21.5538  -16.3739 N   0  0  0  0  0  0  0  0  0  0  0  0
   20.6595  -20.3496  -15.5870 C   0  0  0  0  0  0  0  0  0  0  0  0
   19.7355  -20.2535  -14.7045 N   0  0  0  0  0  0  0  0  0  0  0  0
   21.5466  -19.2620  -15.7917 N   0  0  0  0  0  0  0  0  0  0  0  0
   21.9322  -18.8329  -17.1123 C   0  0  0  0  0  0  0  0  0  0  0  0
   22.7731  -19.8935  -17.7894 C   0  0  0  0  0  0  0  0  0  0  0  0
   23.8958  -19.2904  -18.5832 C   0  0  0  0  0  0  0  0  0  0  0  0
   25.1679  -19.2102  -17.8111 C   0  0  2  0  0  0  0  0  0  0  0  0
   26.1821  -18.5510  -18.6355 N   0  0  0  0  0  0  0  0  0  0  0  0
   25.6903  -20.5168  -17.3418 C   0  0  0  0  0  0  0  0  0  0  0  0
   25.8948  -21.4738  -18.1186 O   0  0  0  0  0  0  0  0  0  0  0  0
   19.6417  -19.4064  -14.1195 N   0  0  0  0  0  0  0  0  0  0  0  0
   31.3519  -24.9671  -18.0190 C   0  0  0  0  0  0  0  0  0  0  0  0
   31.4757  -25.0731  -16.6079 N   0  0  0  0  0  0  0  0  0  0  0  0
   32.4291  -25.8285  -16.1442 N   0  0  0  0  0  0  0  0  0  0  0  0
   30.5999  -24.3918  -15.7234 C   0  0  0  0  0  0  0  0  0  0  0  0
   29.5513  -23.5462  -16.2303 C   0  0  0  0  0  0  0  0  0  0  0  0
   29.4346  -22.2246  -15.5632 C   0  0  0  0  0  0  0  0  0  0  0  0
   28.3868  -21.3087  -16.1039 C   0  0  1  0  0  0  0  0  0  0  0  0
   27.0068  -21.6917  -15.5440 N   0  0  0  0  0  0  0  0  0  0  0  0
   25.9923  -20.7604  -15.9671 C   0  0  0  0  0  0  0  0  0  0  0  0
   27.0603  -21.8204  -14.0659 O   0  0  0  0  0  0  0  0  0  0  0  0
   28.0907  -21.4869  -13.4050 N   0  0  0  0  0  0  0  0  0  0  0  0
   32.5531  -25.9559  -15.1277 C   0  0  2  0  0  0  0  0  0  0  0  0
   25.9770  -22.3202  -13.2874 C   0  0  0  0  0  0  0  0  0  0  0  0
   25.4331  -21.5824  -12.1652 C   0  0  0  0  0  0  0  0  0  0  0  0
   26.4108  -20.5451  -11.6552 C   0  0  0  0  0  0  0  0  0  0  0  0
   26.2797  -20.4222  -10.1821 N   0  0  0  0  0  0  0  0  0  0  0  0
   25.1317  -20.1588   -9.4340 C   0  0  0  0  0  0  0  0  0  0  0  0
   25.4543  -20.1304   -8.1250 C   0  0  0  0  0  0  0  0  0  0  0  0
   26.7652  -20.3622   -7.9582 C   0  0  0  0  0  0  0  0  0  0  0  0
   27.5754  -20.4371   -6.8473 C   0  0  0  0  0  0  0  0  0  0  0  0
   28.9125  -20.6973   -7.0365 C   0  0  0  0  0  0  0  0  0  0  0  0
   29.4444  -20.8811   -8.2989 C   0  0  0  0  0  0  0  0  0  0  0  0
   28.6130  -20.8010   -9.3918 C   0  0  0  0  0  0  0  0  0  0  0  0
   27.2842  -20.5452   -9.2448 O   0  0  0  0  0  0  0  0  0  0  0  0
   24.1933  -20.9219  -12.6016 O   0  0  0  0  0  0  0  0  0  0  0  0
  2  3  2  0
  2  1  1  0
  4  2  1  0
  5  4  1  0
  6  5  1  0
  7  6  1  0
  8 10  1  0
  8  7  1  0
  8  9  1  6
 10 20  1  0
 10 11  2  0
 12 13  1  0
 13 14  2  0
 15 13  1  0
 16 15  1  0
 17 16  1  0
 18 17  1  0
 19 18  1  6
 19 21  1  0
 20 19  1  0
 21 23  1  0
 21 22  2  0
 23 24  1  0
 24 35  1  0
 24 25  1  6
 26 25  1  0
 27 26  2  0
 28 29  1  0
 28 27  1  0
 29 34  2  0
 30 29  1  0
 30 31  2  0
 31 32  1  0
 32 33  2  0
 34 26  1  0
 34 33  1  0
 35 37  1  0
 36 35  2  0
M  END
$$$$
