RRW.pdb
     RDKit          3D

 37 38  0  0  1  0  0  0  0  0999 V2000
   19.5368  -27.2218  -17.4731 N   0  0  0  0  0  0  0  0  0  0  0  0
   18.6744  -26.1046  -17.7872 C   0  0  0  0  0  0  0  0  0  0  0  0
   17.4310  -26.2884  -18.0362 N   0  0  0  0  0  0  0  0  0  0  0  0
   19.2073  -24.7907  -17.8207 N   0  0  0  0  0  0  0  0  0  0  0  0
   20.3574  -24.4160  -17.0373 C   0  0  0  0  0  0  0  0  0  0  0  0
   19.9910  -23.3376  -16.0407 C   0  0  0  0  0  0  0  0  0  0  0  0
   21.1946  -22.8349  -15.2972 C   0  0  0  0  0  0  0  0  0  0  0  0
   22.0610  -23.9374  -14.7926 C   0  0  2  0  0  0  0  0  0  0  0  0
   21.6206  -24.3085  -13.4469 N   0  0  0  0  0  0  0  0  0  0  0  0
   23.5103  -23.6221  -14.7653 C   0  0  0  0  0  0  0  0  0  0  0  0
   24.0464  -23.0201  -13.8107 O   0  0  0  0  0  0  0  0  0  0  0  0
   16.8171  -25.5000  -18.3016 N   0  0  0  0  0  0  0  0  0  0  0  0
   30.9711  -23.7993  -16.0723 C   0  0  0  0  0  0  0  0  0  0  0  0
   30.8220  -25.1993  -16.2608 N   0  0  0  0  0  0  0  0  0  0  0  0
   31.5853  -25.9843  -15.5567 N   0  0  0  0  0  0  0  0  0  0  0  0
   29.8849  -25.7382  -17.1800 C   0  0  0  0  0  0  0  0  0  0  0  0
   28.8772  -24.9038  -17.7801 C   0  0  0  0  0  0  0  0  0  0  0  0
   28.0118  -24.1758  -16.8175 C   0  0  0  0  0  0  0  0  0  0  0  0
   26.5555  -24.5002  -16.8717 C   0  0  2  0  0  0  0  0  0  0  0  0
   25.7837  -23.6487  -15.8500 N   0  0  0  0  0  0  0  0  0  0  0  0
   24.3841  -23.9898  -15.8337 C   0  0  0  0  0  0  0  0  0  0  0  0
   25.9996  -22.2024  -16.1063 O   0  0  0  0  0  0  0  0  0  0  0  0
   25.4027  -21.5963  -17.0478 N   0  0  0  0  0  0  0  0  0  0  0  0
   31.4768  -27.0093  -15.6077 C   0  0  1  0  0  0  0  0  0  0  0  0
   26.8791  -21.3957  -15.3284 C   0  0  0  0  0  0  0  0  0  0  0  0
   27.0397  -19.9769  -15.5747 C   0  0  0  0  0  0  0  0  0  0  0  0
   27.5088  -19.2467  -14.3341 C   0  0  0  0  0  0  0  0  0  0  0  0
   26.8895  -19.8610  -13.1334 N   0  0  0  0  0  0  0  0  0  0  0  0
   27.4845  -20.6868  -12.1790 C   0  0  0  0  0  0  0  0  0  0  0  0
   26.5648  -21.0248  -11.2524 C   0  0  0  0  0  0  0  0  0  0  0  0
   25.3798  -20.4649  -11.5394 C   0  0  0  0  0  0  0  0  0  0  0  0
   24.1482  -20.4975  -10.9243 C   0  0  0  0  0  0  0  0  0  0  0  0
   23.1174  -19.7921  -11.4998 C   0  0  0  0  0  0  0  0  0  0  0  0
   23.2954  -19.0659  -12.6623 C   0  0  0  0  0  0  0  0  0  0  0  0
   24.5359  -19.0502  -13.2564 C   0  0  0  0  0  0  0  0  0  0  0  0
   25.5806  -19.7358  -12.7168 O   0  0  0  0  0  0  0  0  0  0  0  0
   28.0238  -19.8021  -16.6540 O   0  0  0  0  0  0  0  0  0  0  0  0
  2  3  2  0
  2  1  1  0
  4  2  1  0
  5  4  1  0
  6  5  1  0
  7  6  1  0
  8 10  1  0
  8  7  1  0
  8  9  1  1
 10 20  1  0
 10 11  2  0
 12 13  1  0
 13 14  2  0
 15 13  1  0
 16 15  1  0
 17 16  1  0
 18 17  1  0
 19 18  1  1
 19 21  1  0
 20 19  1  0
 21 23  1  0
 21 22  2  0
 23 24  1  0
 24 35  1  0
 24 25  1  6
 26 25  1  0
 27 26  2  0
 28 29  1  0
 28 27  1  0
 29 34  2  0
 30 29  1  0
 30 31  2  0
 31 32  1  0
 32 33  2  0
 34 26  1  0
 34 33  1  0
 35 37  1  0
 36 35  2  0
M  END
$$$$
