RRW.pdb
     RDKit          3D

 37 38  0  0  1  0  0  0  0  0999 V2000
   20.6186  -17.4918  -18.8597 N   0  0  0  0  0  0  0  0  0  0  0  0
   20.9019  -16.5938  -19.9570 C   0  0  0  0  0  0  0  0  0  0  0  0
   19.9548  -16.1367  -20.6889 N   0  0  0  0  0  0  0  0  0  0  0  0
   22.2410  -16.2132  -20.2283 N   0  0  0  0  0  0  0  0  0  0  0  0
   23.3585  -17.0417  -19.8520 C   0  0  0  0  0  0  0  0  0  0  0  0
   23.6517  -16.8964  -18.3744 C   0  0  0  0  0  0  0  0  0  0  0  0
   23.8526  -18.2294  -17.7133 C   0  0  0  0  0  0  0  0  0  0  0  0
   24.6811  -19.1587  -18.5322 C   0  0  2  0  0  0  0  0  0  0  0  0
   23.8547  -19.7070  -19.6088 N   0  0  0  0  0  0  0  0  0  0  0  0
   25.2973  -20.2725  -17.7705 C   0  0  0  0  0  0  0  0  0  0  0  0
   24.6158  -21.1476  -17.1955 O   0  0  0  0  0  0  0  0  0  0  0  0
   20.1509  -15.5049  -21.4833 N   0  0  0  0  0  0  0  0  0  0  0  0
   30.7647  -25.6833  -16.1841 C   0  0  0  0  0  0  0  0  0  0  0  0
   29.8239  -25.7975  -17.2422 N   0  0  0  0  0  0  0  0  0  0  0  0
   29.2197  -26.9414  -17.3872 N   0  0  0  0  0  0  0  0  0  0  0  0
   29.5444  -24.7175  -18.1191 C   0  0  0  0  0  0  0  0  0  0  0  0
   29.9985  -23.3856  -17.8164 C   0  0  0  0  0  0  0  0  0  0  0  0
   29.3278  -22.7430  -16.6578 C   0  0  0  0  0  0  0  0  0  0  0  0
   28.8536  -21.3432  -16.8697 C   0  0  2  0  0  0  0  0  0  0  0  0
   27.3321  -21.2611  -16.6625 N   0  0  0  0  0  0  0  0  0  0  0  0
   26.7136  -20.4122  -17.6485 C   0  0  0  0  0  0  0  0  0  0  0  0
   27.0164  -20.8257  -15.2786 O   0  0  0  0  0  0  0  0  0  0  0  0
   27.2106  -19.6319  -14.8952 N   0  0  0  0  0  0  0  0  0  0  0  0
   28.5689  -27.0977  -18.1727 C   0  0  1  0  0  0  0  0  0  0  0  0
   26.4799  -21.6997  -14.2899 C   0  0  0  0  0  0  0  0  0  0  0  0
   26.4053  -21.3247  -12.8922 C   0  0  0  0  0  0  0  0  0  0  0  0
   25.3949  -20.2203  -12.6659 C   0  0  0  0  0  0  0  0  0  0  0  0
   24.9787  -20.2134  -11.2414 N   0  0  0  0  0  0  0  0  0  0  0  0
   25.7819  -20.1080  -10.1053 C   0  0  0  0  0  0  0  0  0  0  0  0
   25.0003  -20.1441   -9.0069 C   0  0  0  0  0  0  0  0  0  0  0  0
   23.7097  -20.2688   -9.3516 C   0  0  0  0  0  0  0  0  0  0  0  0
   22.5434  -20.3507   -8.6240 C   0  0  0  0  0  0  0  0  0  0  0  0
   21.3586  -20.4769   -9.3107 C   0  0  0  0  0  0  0  0  0  0  0  0
   21.3215  -20.5218  -10.6917 C   0  0  0  0  0  0  0  0  0  0  0  0
   22.5011  -20.4381  -11.3943 C   0  0  0  0  0  0  0  0  0  0  0  0
   23.6937  -20.3125  -10.7501 O   0  0  0  0  0  0  0  0  0  0  0  0
   26.0234  -22.5126  -12.1132 O   0  0  0  0  0  0  0  0  0  0  0  0
  2  3  2  0
  2  1  1  0
  4  2  1  0
  5  4  1  0
  6  5  1  0
  7  6  1  0
  8 10  1  0
  8  7  1  0
  8  9  1  6
 10 20  1  0
 10 11  2  0
 12 13  1  0
 13 14  2  0
 15 13  1  0
 16 15  1  0
 17 16  1  0
 18 17  1  0
 19 18  1  6
 19 21  1  0
 20 19  1  0
 21 23  1  0
 21 22  2  0
 23 24  1  0
 24 35  1  0
 24 25  1  1
 26 25  1  0
 27 26  2  0
 28 29  1  0
 28 27  1  0
 29 34  2  0
 30 29  1  0
 30 31  2  0
 31 32  1  0
 32 33  2  0
 34 26  1  0
 34 33  1  0
 35 37  1  0
 36 35  2  0
M  END
$$$$
