RRW.pdb
     RDKit          3D

 37 38  0  0  1  0  0  0  0  0999 V2000
   18.7295  -24.4793  -13.5406 N   0  0  0  0  0  0  0  0  0  0  0  0
   18.6966  -25.2390  -14.7704 C   0  0  0  0  0  0  0  0  0  0  0  0
   17.7010  -25.9981  -15.0435 N   0  0  0  0  0  0  0  0  0  0  0  0
   19.7757  -25.1450  -15.6858 N   0  0  0  0  0  0  0  0  0  0  0  0
   20.8274  -24.1729  -15.5249 C   0  0  0  0  0  0  0  0  0  0  0  0
   21.9538  -24.7442  -14.6911 C   0  0  0  0  0  0  0  0  0  0  0  0
   22.9132  -23.6782  -14.2469 C   0  0  0  0  0  0  0  0  0  0  0  0
   24.1633  -23.6551  -15.0577 C   0  0  2  0  0  0  0  0  0  0  0  0
   24.2389  -24.8851  -15.8477 N   0  0  0  0  0  0  0  0  0  0  0  0
   25.4099  -23.5012  -14.2684 C   0  0  0  0  0  0  0  0  0  0  0  0
   25.9326  -24.4532  -13.6506 O   0  0  0  0  0  0  0  0  0  0  0  0
   17.6815  -26.5627  -15.9092 N   0  0  0  0  0  0  0  0  0  0  0  0
   27.4371  -17.2881  -17.1431 C   0  0  0  0  0  0  0  0  0  0  0  0
   27.3348  -16.9519  -15.7668 N   0  0  0  0  0  0  0  0  0  0  0  0
   26.7068  -15.8530  -15.4625 N   0  0  0  0  0  0  0  0  0  0  0  0
   27.8934  -17.7690  -14.7501 C   0  0  0  0  0  0  0  0  0  0  0  0
   28.4437  -19.0618  -15.0625 C   0  0  0  0  0  0  0  0  0  0  0  0
   27.5984  -20.2157  -14.6636 C   0  0  0  0  0  0  0  0  0  0  0  0
   27.6977  -20.6368  -13.2347 C   0  0  1  0  0  0  0  0  0  0  0  0
   26.7458  -21.8130  -12.9605 N   0  0  0  0  0  0  0  0  0  0  0  0
   26.0907  -22.2497  -14.1670 C   0  0  0  0  0  0  0  0  0  0  0  0
   25.7720  -21.4597  -11.8970 O   0  0  0  0  0  0  0  0  0  0  0  0
   24.8695  -20.5875  -12.0830 N   0  0  0  0  0  0  0  0  0  0  0  0
   26.5245  -15.6058  -14.4773 C   0  0  2  0  0  0  0  0  0  0  0  0
   25.7751  -22.0622  -10.6060 C   0  0  0  0  0  0  0  0  0  0  0  0
   25.9352  -21.2828   -9.3951 C   0  0  0  0  0  0  0  0  0  0  0  0
   27.3959  -21.0867   -9.0489 C   0  0  0  0  0  0  0  0  0  0  0  0
   27.5120  -20.1599   -7.8956 N   0  0  0  0  0  0  0  0  0  0  0  0
   26.6404  -19.1394   -7.5138 C   0  0  0  0  0  0  0  0  0  0  0  0
   27.1218  -18.5385   -6.4067 C   0  0  0  0  0  0  0  0  0  0  0  0
   28.2759  -19.1073   -6.0265 C   0  0  0  0  0  0  0  0  0  0  0  0
   29.1462  -18.8696   -4.9862 C   0  0  0  0  0  0  0  0  0  0  0  0
   30.2677  -19.6593   -4.8859 C   0  0  0  0  0  0  0  0  0  0  0  0
   30.5290  -20.6672   -5.7949 C   0  0  0  0  0  0  0  0  0  0  0  0
   29.6433  -20.8836   -6.8248 C   0  0  0  0  0  0  0  0  0  0  0  0
   28.5224  -20.1227   -6.9573 O   0  0  0  0  0  0  0  0  0  0  0  0
   25.2944  -19.9743   -9.5977 O   0  0  0  0  0  0  0  0  0  0  0  0
  2  3  2  0
  2  1  1  0
  4  2  1  0
  5  4  1  0
  6  5  1  0
  7  6  1  0
  8 10  1  0
  8  7  1  0
  8  9  1  1
 10 20  1  0
 10 11  2  0
 12 13  1  0
 13 14  2  0
 15 13  1  0
 16 15  1  0
 17 16  1  0
 18 17  1  0
 19 18  1  6
 19 21  1  0
 20 19  1  0
 21 23  1  0
 21 22  2  0
 23 24  1  0
 24 35  1  0
 24 25  1  1
 26 25  1  0
 27 26  2  0
 28 29  1  0
 28 27  1  0
 29 34  2  0
 30 29  1  0
 30 31  2  0
 31 32  1  0
 32 33  2  0
 34 26  1  0
 34 33  1  0
 35 37  1  0
 36 35  2  0
M  END
$$$$
