RRW.pdb
     RDKit          3D

 37 38  0  0  1  0  0  0  0  0999 V2000
   18.7173  -24.2749  -14.2864 N   0  0  0  0  0  0  0  0  0  0  0  0
   18.6232  -23.8671  -15.6705 C   0  0  0  0  0  0  0  0  0  0  0  0
   17.8379  -22.9170  -16.0201 N   0  0  0  0  0  0  0  0  0  0  0  0
   19.4073  -24.5235  -16.6533 N   0  0  0  0  0  0  0  0  0  0  0  0
   20.5027  -25.3901  -16.2985 C   0  0  0  0  0  0  0  0  0  0  0  0
   21.2844  -24.8088  -15.1403 C   0  0  0  0  0  0  0  0  0  0  0  0
   22.4466  -25.6801  -14.7604 C   0  0  0  0  0  0  0  0  0  0  0  0
   23.6827  -25.3571  -15.5274 C   0  0  2  0  0  0  0  0  0  0  0  0
   24.1820  -26.5797  -16.1588 N   0  0  0  0  0  0  0  0  0  0  0  0
   24.7669  -24.7420  -14.7231 C   0  0  0  0  0  0  0  0  0  0  0  0
   25.5289  -25.4177  -13.9993 O   0  0  0  0  0  0  0  0  0  0  0  0
   17.7140  -22.6652  -17.0151 N   0  0  0  0  0  0  0  0  0  0  0  0
   30.5944  -22.4857  -14.5845 C   0  0  0  0  0  0  0  0  0  0  0  0
   30.0610  -21.6713  -15.6189 N   0  0  0  0  0  0  0  0  0  0  0  0
   30.3394  -22.0019  -16.8469 N   0  0  0  0  0  0  0  0  0  0  0  0
   29.2572  -20.5353  -15.3420 C   0  0  0  0  0  0  0  0  0  0  0  0
   28.8382  -20.2386  -13.9973 C   0  0  0  0  0  0  0  0  0  0  0  0
   27.7822  -21.1329  -13.4583 C   0  0  0  0  0  0  0  0  0  0  0  0
   26.8659  -21.7450  -14.4657 C   0  0  2  0  0  0  0  0  0  0  0  0
   25.8659  -22.6847  -13.7718 N   0  0  0  0  0  0  0  0  0  0  0  0
   25.0059  -23.3339  -14.7281 C   0  0  0  0  0  0  0  0  0  0  0  0
   25.0927  -21.9525  -12.7373 O   0  0  0  0  0  0  0  0  0  0  0  0
   24.1296  -21.1856  -13.0439 N   0  0  0  0  0  0  0  0  0  0  0  0
   29.9698  -21.4513  -17.6375 C   0  0  2  0  0  0  0  0  0  0  0  0
   25.3673  -22.0522  -11.3430 C   0  0  0  0  0  0  0  0  0  0  0  0
   24.5246  -21.4214  -10.3472 C   0  0  0  0  0  0  0  0  0  0  0  0
   25.2049  -21.3687   -8.9957 C   0  0  0  0  0  0  0  0  0  0  0  0
   26.5273  -20.7090   -9.1316 N   0  0  0  0  0  0  0  0  0  0  0  0
   27.2560  -20.4619  -10.2956 C   0  0  0  0  0  0  0  0  0  0  0  0
   28.4083  -19.8407   -9.9719 C   0  0  0  0  0  0  0  0  0  0  0  0
   28.4881  -19.6587   -8.6450 C   0  0  0  0  0  0  0  0  0  0  0  0
   29.4381  -19.0885   -7.8272 C   0  0  0  0  0  0  0  0  0  0  0  0
   29.1989  -19.0667   -6.4731 C   0  0  0  0  0  0  0  0  0  0  0  0
   28.0432  -19.5975   -5.9318 C   0  0  0  0  0  0  0  0  0  0  0  0
   27.1105  -20.1613   -6.7711 C   0  0  0  0  0  0  0  0  0  0  0  0
   27.3116  -20.2016   -8.1168 O   0  0  0  0  0  0  0  0  0  0  0  0
   24.2151  -20.0562  -10.7993 O   0  0  0  0  0  0  0  0  0  0  0  0
  2  3  2  0
  2  1  1  0
  4  2  1  0
  5  4  1  0
  6  5  1  0
  7  6  1  0
  8 10  1  0
  8  7  1  0
  8  9  1  1
 10 20  1  0
 10 11  2  0
 12 13  1  0
 13 14  2  0
 15 13  1  0
 16 15  1  0
 17 16  1  0
 18 17  1  0
 19 18  1  6
 19 21  1  0
 20 19  1  0
 21 23  1  0
 21 22  2  0
 23 24  1  0
 24 35  1  0
 24 25  1  6
 26 25  1  0
 27 26  2  0
 28 29  1  0
 28 27  1  0
 29 34  2  0
 30 29  1  0
 30 31  2  0
 31 32  1  0
 32 33  2  0
 34 26  1  0
 34 33  1  0
 35 37  1  0
 36 35  2  0
M  END
$$$$
