RRW.pdb
     RDKit          3D

 37 38  0  0  1  0  0  0  0  0999 V2000
   24.0353  -26.7373  -13.2310 N   0  0  0  0  0  0  0  0  0  0  0  0
   23.5999  -26.0356  -14.4178 C   0  0  0  0  0  0  0  0  0  0  0  0
   22.4291  -26.2311  -14.9004 N   0  0  0  0  0  0  0  0  0  0  0  0
   24.4754  -25.1206  -15.0565 N   0  0  0  0  0  0  0  0  0  0  0  0
   25.5551  -24.4803  -14.3485 C   0  0  0  0  0  0  0  0  0  0  0  0
   25.0186  -23.4212  -13.4100 C   0  0  0  0  0  0  0  0  0  0  0  0
   25.2115  -22.0386  -13.9628 C   0  0  0  0  0  0  0  0  0  0  0  0
   25.9559  -21.1451  -13.0311 C   0  0  2  0  0  0  0  0  0  0  0  0
   25.9574  -21.7470  -11.6967 N   0  0  0  0  0  0  0  0  0  0  0  0
   25.4267  -19.7620  -12.9451 C   0  0  0  0  0  0  0  0  0  0  0  0
   24.5087  -19.4443  -12.1593 O   0  0  0  0  0  0  0  0  0  0  0  0
   22.1333  -25.7816  -15.7831 N   0  0  0  0  0  0  0  0  0  0  0  0
   28.7348  -18.1501  -18.6182 C   0  0  0  0  0  0  0  0  0  0  0  0
   27.8860  -17.0631  -18.9584 N   0  0  0  0  0  0  0  0  0  0  0  0
   27.4909  -16.9747  -20.1957 N   0  0  0  0  0  0  0  0  0  0  0  0
   27.4783  -16.0994  -18.0001 C   0  0  0  0  0  0  0  0  0  0  0  0
   27.8115  -16.2566  -16.6087 C   0  0  0  0  0  0  0  0  0  0  0  0
   26.9162  -17.1656  -15.8488 C   0  0  0  0  0  0  0  0  0  0  0  0
   25.9958  -16.5117  -14.8718 C   0  0  1  0  0  0  0  0  0  0  0  0
   25.1420  -17.5714  -14.1558 N   0  0  0  0  0  0  0  0  0  0  0  0
   25.9373  -18.7053  -13.7593 C   0  0  0  0  0  0  0  0  0  0  0  0
   23.9885  -17.9708  -15.0009 O   0  0  0  0  0  0  0  0  0  0  0  0
   24.1068  -18.8308  -15.9263 N   0  0  0  0  0  0  0  0  0  0  0  0
   26.9049  -16.1841  -20.5064 C   0  0  1  0  0  0  0  0  0  0  0  0
   22.6808  -17.4285  -14.8415 C   0  0  0  0  0  0  0  0  0  0  0  0
   21.5762  -17.8250  -15.6912 C   0  0  0  0  0  0  0  0  0  0  0  0
   20.9048  -19.0820  -15.1801 C   0  0  0  0  0  0  0  0  0  0  0  0
   20.3663  -18.8379  -13.8188 N   0  0  0  0  0  0  0  0  0  0  0  0
   19.3094  -18.0087  -13.4417 C   0  0  0  0  0  0  0  0  0  0  0  0
   19.1494  -18.0775  -12.1044 C   0  0  0  0  0  0  0  0  0  0  0  0
   20.0492  -18.9140  -11.5652 C   0  0  0  0  0  0  0  0  0  0  0  0
   20.3024  -19.3216  -10.2745 C   0  0  0  0  0  0  0  0  0  0  0  0
   21.3285  -20.2131  -10.0658 C   0  0  0  0  0  0  0  0  0  0  0  0
   22.0937  -20.6964  -11.1106 C   0  0  0  0  0  0  0  0  0  0  0  0
   21.8197  -20.2729  -12.3903 C   0  0  0  0  0  0  0  0  0  0  0  0
   20.8123  -19.3913  -12.6367 O   0  0  0  0  0  0  0  0  0  0  0  0
   20.6018  -16.7236  -15.7291 O   0  0  0  0  0  0  0  0  0  0  0  0
  2  3  2  0
  2  1  1  0
  4  2  1  0
  5  4  1  0
  6  5  1  0
  7  6  1  0
  8 10  1  0
  8  7  1  0
  8  9  1  1
 10 20  1  0
 10 11  2  0
 12 13  1  0
 13 14  2  0
 15 13  1  0
 16 15  1  0
 17 16  1  0
 18 17  1  0
 19 18  1  1
 19 21  1  0
 20 19  1  0
 21 23  1  0
 21 22  2  0
 23 24  1  0
 24 35  1  0
 24 25  1  6
 26 25  1  0
 27 26  2  0
 28 29  1  0
 28 27  1  0
 29 34  2  0
 30 29  1  0
 30 31  2  0
 31 32  1  0
 32 33  2  0
 34 26  1  0
 34 33  1  0
 35 37  1  0
 36 35  2  0
M  END
$$$$
