EVN.pdb
     RDKit          3D

 25 24  0  0  1  0  0  0  0  0999 V2000
    7.6262  -14.4383   20.8654 N   0  0  0  0  0  0  0  0  0  0  0  0
    7.0333  -14.9276   22.1197 C   0  0  1  0  0  0  0  0  0  0  0  0
    6.9627  -16.4271   22.0929 C   0  0  0  0  0  0  0  0  0  0  0  0
    8.1710  -17.0599   21.4587 C   0  0  0  0  0  0  0  0  0  0  0  0
    7.9871  -18.5474   21.3782 C   0  0  0  0  0  0  0  0  0  0  0  0
    8.7808  -19.3075   21.9790 O   0  0  0  0  0  0  0  0  0  0  0  0
    7.9244  -14.4594   23.2005 C   0  0  0  0  0  0  0  0  0  0  0  0
    9.1600  -14.3093   23.0305 O   0  0  0  0  0  0  0  0  0  0  0  0
    6.9463  -19.0470   20.6431 O   0  0  0  0  0  0  0  0  0  0  0  0
    7.0079  -11.4022   25.4892 C   0  0  0  0  0  0  0  0  0  0  0  0
    7.4138  -12.5937   26.2987 C   0  0  1  0  0  0  0  0  0  0  0  0
    6.2297  -13.2110   26.9619 C   0  0  0  0  0  0  0  0  0  0  0  0
    8.2846  -13.5671   25.5388 C   0  0  2  0  0  0  0  0  0  0  0  0
    7.4065  -14.1514   24.5116 N   0  0  0  0  0  0  0  0  0  0  0  0
    8.8008  -14.6773   26.3573 C   0  0  0  0  0  0  0  0  0  0  0  0
    8.0591  -15.6814   26.6421 O   0  0  0  0  0  0  0  0  0  0  0  0
   12.7585  -15.7844   24.8843 N   0  0  0  0  0  0  0  0  0  0  0  0
   11.9890  -16.5848   25.7672 C   0  0  0  0  0  0  0  0  0  0  0  0
   11.3421  -17.5144   25.2248 O   0  0  0  0  0  0  0  0  0  0  0  0
   11.9013  -16.4078   27.2092 C   0  0  0  0  0  0  0  0  0  0  0  0
   10.5822  -15.8656   27.6956 C   0  0  2  0  0  0  0  0  0  0  0  0
   10.1142  -14.7519   26.8937 N   0  0  0  0  0  0  0  0  0  0  0  0
   10.6016  -15.5406   29.1383 C   0  0  0  0  0  0  0  0  0  0  0  0
   10.8807  -16.5007   30.0864 O   0  0  0  0  0  0  0  0  0  0  0  0
   10.3605  -14.3728   29.5080 O   0  0  0  0  0  0  0  0  0  0  0  0
  2  1  1  6
  2  3  1  0
  4  3  1  0
  5  9  1  0
  5  4  1  0
  6  5  2  0
  7  2  1  0
  7  8  2  0
 11 10  1  6
 11 13  1  0
 12 11  1  0
 13 14  1  6
 14  7  1  0
 15 16  2  0
 15 13  1  0
 18 19  2  0
 18 17  1  0
 20 18  1  0
 21 22  1  0
 21 20  1  6
 22 15  1  0
 23 21  1  0
 24 23  1  0
 25 23  2  0
M  END
$$$$
