EVN.pdb
     RDKit          3D

 25 24  0  0  1  0  0  0  0  0999 V2000
    6.3305  -16.2687   22.0054 N   0  0  0  0  0  0  0  0  0  0  0  0
    7.7027  -16.7777   22.1543 C   0  0  1  0  0  0  0  0  0  0  0  0
    8.3633  -16.8482   20.8078 C   0  0  0  0  0  0  0  0  0  0  0  0
    7.5603  -16.1811   19.7248 C   0  0  0  0  0  0  0  0  0  0  0  0
    8.2565  -16.3329   18.4039 C   0  0  0  0  0  0  0  0  0  0  0  0
    9.4730  -16.0516   18.3040 O   0  0  0  0  0  0  0  0  0  0  0  0
    8.3990  -15.8183   23.0353 C   0  0  0  0  0  0  0  0  0  0  0  0
    9.6438  -15.6548   22.9944 O   0  0  0  0  0  0  0  0  0  0  0  0
    7.5413  -16.7795   17.3259 O   0  0  0  0  0  0  0  0  0  0  0  0
    7.0043  -12.2351   24.1883 C   0  0  0  0  0  0  0  0  0  0  0  0
    7.4195  -13.0899   25.3444 C   0  0  1  0  0  0  0  0  0  0  0  0
    6.2290  -13.5590   26.1098 C   0  0  0  0  0  0  0  0  0  0  0  0
    8.3905  -14.1833   24.9641 C   0  0  2  0  0  0  0  0  0  0  0  0
    7.6695  -15.0197   23.9904 N   0  0  0  0  0  0  0  0  0  0  0  0
    8.7835  -15.0547   26.0844 C   0  0  0  0  0  0  0  0  0  0  0  0
    8.0290  -16.0182   26.4609 O   0  0  0  0  0  0  0  0  0  0  0  0
   11.4215  -18.6951   28.9532 N   0  0  0  0  0  0  0  0  0  0  0  0
   12.1146  -17.5331   28.5270 C   0  0  0  0  0  0  0  0  0  0  0  0
   13.2152  -17.3249   29.0947 O   0  0  0  0  0  0  0  0  0  0  0  0
   11.6528  -16.5983   27.5114 C   0  0  0  0  0  0  0  0  0  0  0  0
   10.3817  -15.8689   27.8619 C   0  0  2  0  0  0  0  0  0  0  0  0
    9.9843  -14.9277   26.8330 N   0  0  0  0  0  0  0  0  0  0  0  0
   10.4420  -15.2373   29.1979 C   0  0  0  0  0  0  0  0  0  0  0  0
   10.4868  -15.9944   30.3482 O   0  0  0  0  0  0  0  0  0  0  0  0
   10.4526  -13.9922   29.2885 O   0  0  0  0  0  0  0  0  0  0  0  0
  2  1  1  6
  2  3  1  0
  4  3  1  0
  5  9  1  0
  5  4  1  0
  6  5  2  0
  7  2  1  0
  7  8  2  0
 11 10  1  6
 11 13  1  0
 12 11  1  0
 13 14  1  6
 14  7  1  0
 15 16  2  0
 15 13  1  0
 18 19  2  0
 18 17  1  0
 20 18  1  0
 21 22  1  0
 21 20  1  6
 22 15  1  0
 23 21  1  0
 24 23  1  0
 25 23  2  0
M  END
$$$$
