EVN.pdb
     RDKit          3D

 25 24  0  0  1  0  0  0  0  0999 V2000
    7.1531  -13.6880   20.6720 N   0  0  0  0  0  0  0  0  0  0  0  0
    6.9941  -14.7400   21.6879 C   0  0  1  0  0  0  0  0  0  0  0  0
    7.3999  -16.0649   21.1098 C   0  0  0  0  0  0  0  0  0  0  0  0
    7.3171  -17.1894   22.1055 C   0  0  0  0  0  0  0  0  0  0  0  0
    7.8525  -18.4526   21.4969 C   0  0  0  0  0  0  0  0  0  0  0  0
    9.0286  -18.4885   21.0676 O   0  0  0  0  0  0  0  0  0  0  0  0
    7.8771  -14.3595   22.8090 C   0  0  0  0  0  0  0  0  0  0  0  0
    9.0122  -13.8541   22.6242 O   0  0  0  0  0  0  0  0  0  0  0  0
    7.0370  -19.5492   21.4228 O   0  0  0  0  0  0  0  0  0  0  0  0
    7.2669  -11.8048   25.2151 C   0  0  0  0  0  0  0  0  0  0  0  0
    7.4949  -13.0512   26.0114 C   0  0  1  0  0  0  0  0  0  0  0  0
    6.2109  -13.5654   26.5685 C   0  0  0  0  0  0  0  0  0  0  0  0
    8.3208  -14.0859   25.2833 C   0  0  2  0  0  0  0  0  0  0  0  0
    7.4677  -14.5548   24.1788 N   0  0  0  0  0  0  0  0  0  0  0  0
    8.6668  -15.2620   26.0995 C   0  0  0  0  0  0  0  0  0  0  0  0
    7.7642  -16.0915   26.4692 O   0  0  0  0  0  0  0  0  0  0  0  0
   12.2316  -16.3425   24.7430 N   0  0  0  0  0  0  0  0  0  0  0  0
   11.6691  -17.4455   25.4354 C   0  0  0  0  0  0  0  0  0  0  0  0
   11.3387  -18.4202   24.7159 O   0  0  0  0  0  0  0  0  0  0  0  0
   11.4564  -17.5214   26.8732 C   0  0  0  0  0  0  0  0  0  0  0  0
   10.2684  -16.7413   27.3736 C   0  0  2  0  0  0  0  0  0  0  0  0
    9.9761  -15.5888   26.5437 N   0  0  0  0  0  0  0  0  0  0  0  0
   10.3906  -16.3791   28.8023 C   0  0  0  0  0  0  0  0  0  0  0  0
   10.6174  -17.3354   29.7681 O   0  0  0  0  0  0  0  0  0  0  0  0
   10.2864  -15.1827   29.1437 O   0  0  0  0  0  0  0  0  0  0  0  0
  2  1  1  6
  2  3  1  0
  4  3  1  0
  5  9  1  0
  5  4  1  0
  6  5  2  0
  7  2  1  0
  7  8  2  0
 11 10  1  6
 11 13  1  0
 12 11  1  0
 13 14  1  6
 14  7  1  0
 15 16  2  0
 15 13  1  0
 18 19  2  0
 18 17  1  0
 20 18  1  0
 21 22  1  0
 21 20  1  6
 22 15  1  0
 23 21  1  0
 24 23  1  0
 25 23  2  0
M  END
$$$$
