EVN.pdb
     RDKit          3D

 25 24  0  0  1  0  0  0  0  0999 V2000
    7.6123  -15.8521   20.9448 N   0  0  0  0  0  0  0  0  0  0  0  0
    6.9409  -15.8702   22.2537 C   0  0  1  0  0  0  0  0  0  0  0  0
    6.7925  -17.2880   22.7249 C   0  0  0  0  0  0  0  0  0  0  0  0
    6.9831  -18.2950   21.6238 C   0  0  0  0  0  0  0  0  0  0  0  0
    7.1956  -19.6603   22.2098 C   0  0  0  0  0  0  0  0  0  0  0  0
    8.2036  -19.8851   22.9184 O   0  0  0  0  0  0  0  0  0  0  0  0
    7.8080  -15.0977   23.1662 C   0  0  0  0  0  0  0  0  0  0  0  0
    9.0597  -15.0986   23.0599 O   0  0  0  0  0  0  0  0  0  0  0  0
    6.2750  -20.6406   21.9553 O   0  0  0  0  0  0  0  0  0  0  0  0
    6.0274  -13.0478   26.4604 C   0  0  0  0  0  0  0  0  0  0  0  0
    7.2926  -12.5538   25.8321 C   0  0  1  0  0  0  0  0  0  0  0  0
    8.0366  -11.6644   26.7695 C   0  0  0  0  0  0  0  0  0  0  0  0
    8.1265  -13.6536   25.2173 C   0  0  2  0  0  0  0  0  0  0  0  0
    7.2467  -14.3006   24.2300 N   0  0  0  0  0  0  0  0  0  0  0  0
    8.5513  -14.6912   26.1723 C   0  0  0  0  0  0  0  0  0  0  0  0
    7.7346  -15.5969   26.5620 O   0  0  0  0  0  0  0  0  0  0  0  0
   11.8294  -19.0786   27.4873 N   0  0  0  0  0  0  0  0  0  0  0  0
   12.0194  -17.7002   27.7630 C   0  0  0  0  0  0  0  0  0  0  0  0
   12.6942  -17.4454   28.7909 O   0  0  0  0  0  0  0  0  0  0  0  0
   11.5033  -16.5993   26.9631 C   0  0  0  0  0  0  0  0  0  0  0  0
   10.2812  -15.9279   27.5343 C   0  0  2  0  0  0  0  0  0  0  0  0
    9.8506  -14.7956   26.7374 N   0  0  0  0  0  0  0  0  0  0  0  0
   10.4460  -15.5717   28.9603 C   0  0  0  0  0  0  0  0  0  0  0  0
   10.4427  -16.5350   29.9455 O   0  0  0  0  0  0  0  0  0  0  0  0
   10.5913  -14.3740   29.2812 O   0  0  0  0  0  0  0  0  0  0  0  0
  2  1  1  6
  2  3  1  0
  4  3  1  0
  5  9  1  0
  5  4  1  0
  6  5  2  0
  7  2  1  0
  7  8  2  0
 11 10  1  1
 11 13  1  0
 12 11  1  0
 13 14  1  6
 14  7  1  0
 15 16  2  0
 15 13  1  0
 18 19  2  0
 18 17  1  0
 20 18  1  0
 21 22  1  0
 21 20  1  6
 22 15  1  0
 23 21  1  0
 24 23  1  0
 25 23  2  0
M  END
$$$$
