EVN.pdb
     RDKit          3D

 25 24  0  0  1  0  0  0  0  0999 V2000
    7.0459  -16.6157   21.4134 N   0  0  0  0  0  0  0  0  0  0  0  0
    6.6004  -16.5866   22.8151 C   0  0  1  0  0  0  0  0  0  0  0  0
    6.7069  -17.9624   23.4068 C   0  0  0  0  0  0  0  0  0  0  0  0
    5.4239  -18.7421   23.3130 C   0  0  0  0  0  0  0  0  0  0  0  0
    5.6490  -20.0066   22.5364 C   0  0  0  0  0  0  0  0  0  0  0  0
    5.9319  -19.9482   21.3177 O   0  0  0  0  0  0  0  0  0  0  0  0
    7.4996  -15.6419   23.5081 C   0  0  0  0  0  0  0  0  0  0  0  0
    8.7195  -15.5488   23.2233 O   0  0  0  0  0  0  0  0  0  0  0  0
    5.5393  -21.2085   23.1819 O   0  0  0  0  0  0  0  0  0  0  0  0
    5.9033  -13.3505   26.6753 C   0  0  0  0  0  0  0  0  0  0  0  0
    7.0984  -12.8475   25.9281 C   0  0  1  0  0  0  0  0  0  0  0  0
    7.8577  -11.8601   26.7477 C   0  0  0  0  0  0  0  0  0  0  0  0
    7.9433  -13.9508   25.3349 C   0  0  2  0  0  0  0  0  0  0  0  0
    7.0083  -14.7766   24.5531 N   0  0  0  0  0  0  0  0  0  0  0  0
    8.5732  -14.8295   26.3351 C   0  0  0  0  0  0  0  0  0  0  0  0
    7.9035  -15.7613   26.9031 O   0  0  0  0  0  0  0  0  0  0  0  0
   11.6602  -17.4779   25.4268 N   0  0  0  0  0  0  0  0  0  0  0  0
   12.2161  -16.3475   26.0792 C   0  0  0  0  0  0  0  0  0  0  0  0
   12.9981  -15.6550   25.3823 O   0  0  0  0  0  0  0  0  0  0  0  0
   11.9506  -15.9497   27.4538 C   0  0  0  0  0  0  0  0  0  0  0  0
   10.5074  -15.6307   27.7470 C   0  0  2  0  0  0  0  0  0  0  0  0
    9.9267  -14.7436   26.7579 N   0  0  0  0  0  0  0  0  0  0  0  0
   10.3070  -15.1322   29.1249 C   0  0  0  0  0  0  0  0  0  0  0  0
   10.5354  -15.9371   30.2196 O   0  0  0  0  0  0  0  0  0  0  0  0
    9.9227  -13.9577   29.3031 O   0  0  0  0  0  0  0  0  0  0  0  0
  2  1  1  6
  2  3  1  0
  4  3  1  0
  5  9  1  0
  5  4  1  0
  6  5  2  0
  7  2  1  0
  7  8  2  0
 11 10  1  1
 11 13  1  0
 12 11  1  0
 13 14  1  6
 14  7  1  0
 15 16  2  0
 15 13  1  0
 18 19  2  0
 18 17  1  0
 20 18  1  0
 21 22  1  0
 21 20  1  6
 22 15  1  0
 23 21  1  0
 24 23  1  0
 25 23  2  0
M  END
$$$$
