EVN.pdb
     RDKit          3D

 25 24  0  0  1  0  0  0  0  0999 V2000
    7.9690  -14.3089   20.7918 N   0  0  0  0  0  0  0  0  0  0  0  0
    7.1783  -14.6972   21.9700 C   0  0  1  0  0  0  0  0  0  0  0  0
    7.0531  -16.1924   22.0230 C   0  0  0  0  0  0  0  0  0  0  0  0
    7.4375  -16.8594   20.7306 C   0  0  0  0  0  0  0  0  0  0  0  0
    7.1335  -18.3274   20.8018 C   0  0  0  0  0  0  0  0  0  0  0  0
    8.0537  -19.1632   20.6488 O   0  0  0  0  0  0  0  0  0  0  0  0
    7.9178  -14.1867   23.1422 C   0  0  0  0  0  0  0  0  0  0  0  0
    9.1694  -14.0797   23.1485 O   0  0  0  0  0  0  0  0  0  0  0  0
    5.8451  -18.7262   21.0347 O   0  0  0  0  0  0  0  0  0  0  0  0
    5.7650  -12.0675   25.4464 C   0  0  0  0  0  0  0  0  0  0  0  0
    7.0067  -12.3639   26.2274 C   0  0  1  0  0  0  0  0  0  0  0  0
    6.6684  -12.8167   27.6072 C   0  0  0  0  0  0  0  0  0  0  0  0
    7.9772  -13.2603   25.4942 C   0  0  2  0  0  0  0  0  0  0  0  0
    7.2250  -13.7851   24.3426 N   0  0  0  0  0  0  0  0  0  0  0  0
    8.4386  -14.4171   26.2803 C   0  0  0  0  0  0  0  0  0  0  0  0
    9.0565  -14.2512   27.3894 O   0  0  0  0  0  0  0  0  0  0  0  0
    7.9318  -19.4435   28.4879 N   0  0  0  0  0  0  0  0  0  0  0  0
    7.4053  -18.8935   27.2910 C   0  0  0  0  0  0  0  0  0  0  0  0
    6.1665  -19.0287   27.1365 O   0  0  0  0  0  0  0  0  0  0  0  0
    8.1768  -18.2069   26.2655 C   0  0  0  0  0  0  0  0  0  0  0  0
    8.7602  -16.8867   26.6981 C   0  0  2  0  0  0  0  0  0  0  0  0
    8.2568  -15.7771   25.9120 N   0  0  0  0  0  0  0  0  0  0  0  0
   10.2383  -16.9090   26.7430 C   0  0  0  0  0  0  0  0  0  0  0  0
   10.9920  -16.0196   26.0086 O   0  0  0  0  0  0  0  0  0  0  0  0
   10.8182  -17.7502   27.4605 O   0  0  0  0  0  0  0  0  0  0  0  0
  2  1  1  6
  2  3  1  0
  4  3  1  0
  5  9  1  0
  5  4  1  0
  6  5  2  0
  7  2  1  0
  7  8  2  0
 11 10  1  6
 11 13  1  0
 12 11  1  0
 13 14  1  6
 14  7  1  0
 15 16  2  0
 15 13  1  0
 18 19  2  0
 18 17  1  0
 20 18  1  0
 21 22  1  0
 21 20  1  6
 22 15  1  0
 23 21  1  0
 24 23  1  0
 25 23  2  0
M  END
$$$$
