EVN.pdb
     RDKit          3D

 25 24  0  0  1  0  0  0  0  0999 V2000
    7.2653  -16.2810   21.5138 N   0  0  0  0  0  0  0  0  0  0  0  0
    6.5856  -16.2246   22.8172 C   0  0  1  0  0  0  0  0  0  0  0  0
    6.3964  -17.6163   23.3480 C   0  0  0  0  0  0  0  0  0  0  0  0
    6.6637  -18.6786   22.3171 C   0  0  0  0  0  0  0  0  0  0  0  0
    6.3944  -20.0358   22.8988 C   0  0  0  0  0  0  0  0  0  0  0  0
    5.2439  -20.5264   22.8310 O   0  0  0  0  0  0  0  0  0  0  0  0
    7.4674  -15.4366   23.7019 C   0  0  0  0  0  0  0  0  0  0  0  0
    8.7191  -15.4722   23.6023 O   0  0  0  0  0  0  0  0  0  0  0  0
    7.4209  -20.7154   23.4967 O   0  0  0  0  0  0  0  0  0  0  0  0
    7.6373  -12.0002   27.3404 C   0  0  0  0  0  0  0  0  0  0  0  0
    6.9271  -12.8059   26.2982 C   0  0  1  0  0  0  0  0  0  0  0  0
    6.1679  -11.9193   25.3705 C   0  0  0  0  0  0  0  0  0  0  0  0
    7.8162  -13.8165   25.6118 C   0  0  2  0  0  0  0  0  0  0  0  0
    6.9212  -14.5832   24.7293 N   0  0  0  0  0  0  0  0  0  0  0  0
    8.4551  -14.7759   26.5285 C   0  0  0  0  0  0  0  0  0  0  0  0
    7.7653  -15.6824   27.1131 O   0  0  0  0  0  0  0  0  0  0  0  0
   11.1415  -17.3394   25.1210 N   0  0  0  0  0  0  0  0  0  0  0  0
   11.9756  -16.4645   25.8634 C   0  0  0  0  0  0  0  0  0  0  0  0
   12.9013  -15.9217   25.2113 O   0  0  0  0  0  0  0  0  0  0  0  0
   11.8360  -16.1635   27.2806 C   0  0  0  0  0  0  0  0  0  0  0  0
   10.4381  -15.8000   27.7099 C   0  0  2  0  0  0  0  0  0  0  0  0
    9.8391  -14.7994   26.8482 N   0  0  0  0  0  0  0  0  0  0  0  0
   10.3659  -15.4180   29.1369 C   0  0  0  0  0  0  0  0  0  0  0  0
   10.5990  -16.3356   30.1380 O   0  0  0  0  0  0  0  0  0  0  0  0
   10.0883  -14.2402   29.4440 O   0  0  0  0  0  0  0  0  0  0  0  0
  2  1  1  6
  2  3  1  0
  4  3  1  0
  5  9  1  0
  5  4  1  0
  6  5  2  0
  7  2  1  0
  7  8  2  0
 11 10  1  1
 11 13  1  0
 12 11  1  0
 13 14  1  6
 14  7  1  0
 15 16  2  0
 15 13  1  0
 18 19  2  0
 18 17  1  0
 20 18  1  0
 21 22  1  0
 21 20  1  6
 22 15  1  0
 23 21  1  0
 24 23  1  0
 25 23  2  0
M  END
$$$$
