EVN.pdb
     RDKit          3D

 25 24  0  0  1  0  0  0  0  0999 V2000
    8.0637  -17.8066   17.5371 N   0  0  0  0  0  0  0  0  0  0  0  0
    9.5188  -17.7510   17.7460 C   0  0  1  0  0  0  0  0  0  0  0  0
   10.1989  -17.3773   16.4607 C   0  0  0  0  0  0  0  0  0  0  0  0
    9.5518  -17.9976   15.2527 C   0  0  0  0  0  0  0  0  0  0  0  0
   10.3222  -17.6356   14.0165 C   0  0  0  0  0  0  0  0  0  0  0  0
    9.7202  -17.1781   13.0180 O   0  0  0  0  0  0  0  0  0  0  0  0
    9.7419  -16.7213   18.7810 C   0  0  0  0  0  0  0  0  0  0  0  0
   10.8937  -16.3451   19.1127 O   0  0  0  0  0  0  0  0  0  0  0  0
   11.6791  -17.8145   14.0058 O   0  0  0  0  0  0  0  0  0  0  0  0
    7.5085  -13.3991   21.7736 C   0  0  0  0  0  0  0  0  0  0  0  0
    7.6061  -14.2611   20.5541 C   0  0  1  0  0  0  0  0  0  0  0  0
    7.3258  -13.4688   19.3225 C   0  0  0  0  0  0  0  0  0  0  0  0
    8.8751  -15.0792   20.4974 C   0  0  2  0  0  0  0  0  0  0  0  0
    8.6332  -16.0975   19.4620 N   0  0  0  0  0  0  0  0  0  0  0  0
    9.1875  -15.7915   21.7481 C   0  0  0  0  0  0  0  0  0  0  0  0
    8.4039  -16.6981   22.1991 O   0  0  0  0  0  0  0  0  0  0  0  0
   12.6885  -17.9427   22.0927 N   0  0  0  0  0  0  0  0  0  0  0  0
   12.8500  -16.7811   22.8907 C   0  0  0  0  0  0  0  0  0  0  0  0
   13.7616  -15.9992   22.5240 O   0  0  0  0  0  0  0  0  0  0  0  0
   12.0581  -16.4454   24.0649 C   0  0  0  0  0  0  0  0  0  0  0  0
   10.5869  -16.2601   23.7972 C   0  0  2  0  0  0  0  0  0  0  0  0
   10.3366  -15.5619   22.5512 N   0  0  0  0  0  0  0  0  0  0  0  0
    9.8793  -15.6344   24.9353 C   0  0  0  0  0  0  0  0  0  0  0  0
    9.7347  -16.2902   26.1384 O   0  0  0  0  0  0  0  0  0  0  0  0
    9.4020  -14.4880   24.8063 O   0  0  0  0  0  0  0  0  0  0  0  0
  2  1  1  6
  2  3  1  0
  4  3  1  0
  5  9  1  0
  5  4  1  0
  6  5  2  0
  7  2  1  0
  7  8  2  0
 11 10  1  1
 11 13  1  0
 12 11  1  0
 13 14  1  6
 14  7  1  0
 15 16  2  0
 15 13  1  0
 18 19  2  0
 18 17  1  0
 20 18  1  0
 21 22  1  0
 21 20  1  1
 22 15  1  0
 23 21  1  0
 24 23  1  0
 25 23  2  0
M  END
$$$$
