EVN.pdb
     RDKit          3D

 25 24  0  0  1  0  0  0  0  0999 V2000
    7.9732  -14.6311   20.5966 N   0  0  0  0  0  0  0  0  0  0  0  0
    6.8895  -14.7017   21.5890 C   0  0  1  0  0  0  0  0  0  0  0  0
    6.3169  -16.0894   21.6127 C   0  0  0  0  0  0  0  0  0  0  0  0
    7.2411  -17.1155   21.0163 C   0  0  0  0  0  0  0  0  0  0  0  0
    6.5327  -18.4331   20.8940 C   0  0  0  0  0  0  0  0  0  0  0  0
    5.3367  -18.5339   21.2522 O   0  0  0  0  0  0  0  0  0  0  0  0
    7.5049  -14.3614   22.8878 C   0  0  0  0  0  0  0  0  0  0  0  0
    8.7403  -14.4655   23.0902 O   0  0  0  0  0  0  0  0  0  0  0  0
    7.2145  -19.5070   20.3891 O   0  0  0  0  0  0  0  0  0  0  0  0
    6.8400  -12.2726   27.3599 C   0  0  0  0  0  0  0  0  0  0  0  0
    6.4792  -12.5506   25.9343 C   0  0  1  0  0  0  0  0  0  0  0  0
    6.4117  -11.2848   25.1493 C   0  0  0  0  0  0  0  0  0  0  0  0
    7.3205  -13.6352   25.3029 C   0  0  2  0  0  0  0  0  0  0  0  0
    6.7030  -13.8896   23.9909 N   0  0  0  0  0  0  0  0  0  0  0  0
    7.3153  -14.9080   26.0439 C   0  0  0  0  0  0  0  0  0  0  0  0
    6.2138  -15.4913   26.3365 O   0  0  0  0  0  0  0  0  0  0  0  0
    7.6352  -19.9858   26.9275 N   0  0  0  0  0  0  0  0  0  0  0  0
    8.2010  -19.2919   25.8272 C   0  0  0  0  0  0  0  0  0  0  0  0
    8.8149  -20.0079   24.9981 O   0  0  0  0  0  0  0  0  0  0  0  0
    8.1212  -17.8562   25.6019 C   0  0  0  0  0  0  0  0  0  0  0  0
    8.4923  -17.0126   26.7940 C   0  0  2  0  0  0  0  0  0  0  0  0
    8.4755  -15.5943   26.4926 N   0  0  0  0  0  0  0  0  0  0  0  0
    9.7695  -17.4336   27.4093 C   0  0  0  0  0  0  0  0  0  0  0  0
    9.8106  -18.4105   28.3802 O   0  0  0  0  0  0  0  0  0  0  0  0
   10.8346  -16.8946   27.0435 O   0  0  0  0  0  0  0  0  0  0  0  0
  2  1  1  6
  2  3  1  0
  4  3  1  0
  5  9  1  0
  5  4  1  0
  6  5  2  0
  7  2  1  0
  7  8  2  0
 11 10  1  1
 11 13  1  0
 12 11  1  0
 13 14  1  6
 14  7  1  0
 15 16  2  0
 15 13  1  0
 18 19  2  0
 18 17  1  0
 20 18  1  0
 21 22  1  0
 21 20  1  6
 22 15  1  0
 23 21  1  0
 24 23  1  0
 25 23  2  0
M  END
$$$$
