EVN.pdb
     RDKit          3D

 25 24  0  0  1  0  0  0  0  0999 V2000
    8.5976  -14.6230   14.6455 N   0  0  0  0  0  0  0  0  0  0  0  0
    8.5417  -15.7140   15.6309 C   0  0  1  0  0  0  0  0  0  0  0  0
    9.3023  -16.9005   15.1134 C   0  0  0  0  0  0  0  0  0  0  0  0
    9.3156  -18.0547   16.0779 C   0  0  0  0  0  0  0  0  0  0  0  0
   10.1467  -19.1752   15.5241 C   0  0  0  0  0  0  0  0  0  0  0  0
    9.7698  -19.7817   14.4951 O   0  0  0  0  0  0  0  0  0  0  0  0
    9.1631  -15.1830   16.8610 C   0  0  0  0  0  0  0  0  0  0  0  0
   10.3019  -14.6528   16.8597 O   0  0  0  0  0  0  0  0  0  0  0  0
   11.3098  -19.5141   16.1609 O   0  0  0  0  0  0  0  0  0  0  0  0
    7.7737  -12.6068   18.9453 C   0  0  0  0  0  0  0  0  0  0  0  0
    8.1038  -13.7150   19.8953 C   0  0  1  0  0  0  0  0  0  0  0  0
    6.8608  -14.3358   20.4363 C   0  0  0  0  0  0  0  0  0  0  0  0
    9.1068  -14.7006   19.3425 C   0  0  2  0  0  0  0  0  0  0  0  0
    8.4798  -15.2521   18.1301 N   0  0  0  0  0  0  0  0  0  0  0  0
    9.3954  -15.8320   20.2402 C   0  0  0  0  0  0  0  0  0  0  0  0
    9.3877  -17.0348   19.8015 O   0  0  0  0  0  0  0  0  0  0  0  0
   12.6400  -18.2377   20.9790 N   0  0  0  0  0  0  0  0  0  0  0  0
   12.9441  -16.8544   20.9005 C   0  0  0  0  0  0  0  0  0  0  0  0
   13.9924  -16.5691   20.2708 O   0  0  0  0  0  0  0  0  0  0  0  0
   12.1511  -15.7805   21.4803 C   0  0  0  0  0  0  0  0  0  0  0  0
   10.9170  -16.2379   22.2142 C   0  0  2  0  0  0  0  0  0  0  0  0
    9.6993  -15.7177   21.6232 N   0  0  0  0  0  0  0  0  0  0  0  0
   10.9889  -15.9659   23.6661 C   0  0  0  0  0  0  0  0  0  0  0  0
   11.4172  -16.9269   24.5558 O   0  0  0  0  0  0  0  0  0  0  0  0
   10.6553  -14.8429   24.0978 O   0  0  0  0  0  0  0  0  0  0  0  0
  2  1  1  6
  2  3  1  0
  4  3  1  0
  5  9  1  0
  5  4  1  0
  6  5  2  0
  7  2  1  0
  7  8  2  0
 11 10  1  6
 11 13  1  0
 12 11  1  0
 13 14  1  6
 14  7  1  0
 15 16  2  0
 15 13  1  0
 18 19  2  0
 18 17  1  0
 20 18  1  0
 21 22  1  0
 21 20  1  6
 22 15  1  0
 23 21  1  0
 24 23  1  0
 25 23  2  0
M  END
$$$$
