EVN.pdb
     RDKit          3D

 25 24  0  0  1  0  0  0  0  0999 V2000
    7.3216  -14.1111   20.4829 N   0  0  0  0  0  0  0  0  0  0  0  0
    6.7207  -14.6310   21.7209 C   0  0  1  0  0  0  0  0  0  0  0  0
    6.4482  -16.0998   21.5711 C   0  0  0  0  0  0  0  0  0  0  0  0
    7.5406  -16.8270   20.8359 C   0  0  0  0  0  0  0  0  0  0  0  0
    7.1576  -18.2652   20.6418 C   0  0  0  0  0  0  0  0  0  0  0  0
    7.6520  -19.1476   21.3805 O   0  0  0  0  0  0  0  0  0  0  0  0
    7.7104  -14.3830   22.7887 C   0  0  0  0  0  0  0  0  0  0  0  0
    8.9404  -14.2879   22.5515 O   0  0  0  0  0  0  0  0  0  0  0  0
    6.2678  -18.5857   19.6525 O   0  0  0  0  0  0  0  0  0  0  0  0
    7.1345  -11.6565   25.5092 C   0  0  0  0  0  0  0  0  0  0  0  0
    7.5435  -12.9503   26.1404 C   0  0  1  0  0  0  0  0  0  0  0  0
    6.3915  -13.5829   26.8445 C   0  0  0  0  0  0  0  0  0  0  0  0
    8.2834  -13.8704   25.1976 C   0  0  2  0  0  0  0  0  0  0  0  0
    7.3008  -14.2378   24.1647 N   0  0  0  0  0  0  0  0  0  0  0  0
    8.7518  -15.1198   25.8211 C   0  0  0  0  0  0  0  0  0  0  0  0
    7.9331  -16.0693   26.0810 O   0  0  0  0  0  0  0  0  0  0  0  0
   12.7418  -16.2181   24.1271 N   0  0  0  0  0  0  0  0  0  0  0  0
   12.0277  -17.1523   24.9206 C   0  0  0  0  0  0  0  0  0  0  0  0
   11.5016  -18.1023   24.2901 O   0  0  0  0  0  0  0  0  0  0  0  0
   11.8691  -17.0868   26.3660 C   0  0  0  0  0  0  0  0  0  0  0  0
   10.5105  -16.6266   26.8277 C   0  0  2  0  0  0  0  0  0  0  0  0
   10.0975  -15.3945   26.1842 N   0  0  0  0  0  0  0  0  0  0  0  0
   10.4122  -16.5428   28.3010 C   0  0  0  0  0  0  0  0  0  0  0  0
   10.6739  -17.6338   29.1008 O   0  0  0  0  0  0  0  0  0  0  0  0
   10.0855  -15.4622   28.8341 O   0  0  0  0  0  0  0  0  0  0  0  0
  2  1  1  6
  2  3  1  0
  4  3  1  0
  5  9  1  0
  5  4  1  0
  6  5  2  0
  7  2  1  0
  7  8  2  0
 11 10  1  6
 11 13  1  0
 12 11  1  0
 13 14  1  6
 14  7  1  0
 15 16  2  0
 15 13  1  0
 18 19  2  0
 18 17  1  0
 20 18  1  0
 21 22  1  0
 21 20  1  1
 22 15  1  0
 23 21  1  0
 24 23  1  0
 25 23  2  0
M  END
$$$$
