EVN.pdb
     RDKit          3D

 25 24  0  0  1  0  0  0  0  0999 V2000
    8.5465  -18.0110   18.2164 N   0  0  0  0  0  0  0  0  0  0  0  0
    9.9699  -17.6470   18.2932 C   0  0  1  0  0  0  0  0  0  0  0  0
   10.5405  -17.5475   16.9081 C   0  0  0  0  0  0  0  0  0  0  0  0
    9.6047  -18.0642   15.8497 C   0  0  0  0  0  0  0  0  0  0  0  0
   10.2976  -18.0829   14.5185 C   0  0  0  0  0  0  0  0  0  0  0  0
   11.3337  -18.7697   14.3641 O   0  0  0  0  0  0  0  0  0  0  0  0
   10.0191  -16.3407   18.9805 C   0  0  0  0  0  0  0  0  0  0  0  0
   11.0851  -15.6867   19.0981 O   0  0  0  0  0  0  0  0  0  0  0  0
    9.7784  -17.3423   13.4913 O   0  0  0  0  0  0  0  0  0  0  0  0
    7.4014  -12.7592   21.2370 C   0  0  0  0  0  0  0  0  0  0  0  0
    7.6921  -13.7699   20.1723 C   0  0  1  0  0  0  0  0  0  0  0  0
    7.6501  -13.1416   18.8208 C   0  0  0  0  0  0  0  0  0  0  0  0
    8.9328  -14.5883   20.4444 C   0  0  2  0  0  0  0  0  0  0  0  0
    8.8307  -15.7546   19.5517 N   0  0  0  0  0  0  0  0  0  0  0  0
    9.0262  -15.0983   21.8229 C   0  0  0  0  0  0  0  0  0  0  0  0
    7.9797  -15.4861   22.4503 O   0  0  0  0  0  0  0  0  0  0  0  0
   11.0083  -19.9143   23.7005 N   0  0  0  0  0  0  0  0  0  0  0  0
   10.3053  -18.7106   23.9634 C   0  0  0  0  0  0  0  0  0  0  0  0
    9.8273  -18.6086   25.1201 O   0  0  0  0  0  0  0  0  0  0  0  0
   10.1073  -17.6233   23.0163 C   0  0  0  0  0  0  0  0  0  0  0  0
   10.4633  -16.2580   23.5452 C   0  0  2  0  0  0  0  0  0  0  0  0
   10.2291  -15.2105   22.5703 N   0  0  0  0  0  0  0  0  0  0  0  0
   11.8344  -16.2052   24.0974 C   0  0  0  0  0  0  0  0  0  0  0  0
   12.8169  -15.4411   23.5065 O   0  0  0  0  0  0  0  0  0  0  0  0
   12.1103  -16.8658   25.1202 O   0  0  0  0  0  0  0  0  0  0  0  0
  2  1  1  6
  2  3  1  0
  4  3  1  0
  5  9  1  0
  5  4  1  0
  6  5  2  0
  7  2  1  0
  7  8  2  0
 11 10  1  1
 11 13  1  0
 12 11  1  0
 13 14  1  6
 14  7  1  0
 15 16  2  0
 15 13  1  0
 18 19  2  0
 18 17  1  0
 20 18  1  0
 21 22  1  0
 21 20  1  6
 22 15  1  0
 23 21  1  0
 24 23  1  0
 25 23  2  0
M  END
$$$$
