HYY.pdb
     RDKit          3D

 35 37  0  0  1  0  0  0  0  0999 V2000
   45.8860   -8.9039   -7.6785 N   0  0  0  0  0  0  0  0  0  0  0  0
   44.5330   -9.2974   -7.3363 C   0  0  1  0  0  0  0  0  0  0  0  0
   44.0266   -8.5107   -6.1341 C   0  0  0  0  0  0  0  0  0  0  0  0
   44.9729   -8.7327   -5.0085 C   0  0  0  0  0  0  0  0  0  0  0  0
   45.1810   -9.9195   -4.3242 C   0  0  0  0  0  0  0  0  0  0  0  0
   46.1283   -9.6816   -3.3740 N   0  0  0  0  0  0  0  0  0  0  0  0
   46.5048   -8.3911   -3.4554 C   0  0  0  0  0  0  0  0  0  0  0  0
   45.8071   -7.8283   -4.4384 N   0  0  0  0  0  0  0  0  0  0  0  0
   43.6178   -9.1619   -8.4919 C   0  0  0  0  0  0  0  0  0  0  0  0
   43.7376   -8.2288   -9.3198 O   0  0  0  0  0  0  0  0  0  0  0  0
   37.5183  -11.7392  -14.3972 O   0  0  0  0  0  0  0  0  0  0  0  0
   38.4361  -11.6705  -13.3512 C   0  0  0  0  0  0  0  0  0  0  0  0
   39.7788  -11.4961  -13.6224 C   0  0  0  0  0  0  0  0  0  0  0  0
   40.7024  -11.4260  -12.5939 C   0  0  0  0  0  0  0  0  0  0  0  0
   40.3250  -11.5264  -11.2626 C   0  0  0  0  0  0  0  0  0  0  0  0
   41.2776  -11.4558  -10.1572 C   0  0  0  0  0  0  0  0  0  0  0  0
   41.6265  -10.0624   -9.7418 C   0  0  2  0  0  0  0  0  0  0  0  0
   42.5826  -10.0971   -8.6780 N   0  0  0  0  0  0  0  0  0  0  0  0
   40.3695   -9.3515   -9.3399 C   0  0  0  0  0  0  0  0  0  0  0  0
   39.5840   -9.8796   -8.5117 O   0  0  0  0  0  0  0  0  0  0  0  0
   38.9885  -11.6999  -10.9949 C   0  0  0  0  0  0  0  0  0  0  0  0
   38.0673  -11.7697  -12.0246 C   0  0  0  0  0  0  0  0  0  0  0  0
   42.1162   -2.0626   -9.3481 O   0  0  0  0  0  0  0  0  0  0  0  0
   41.3223   -3.1875   -9.0927 C   0  0  0  0  0  0  0  0  0  0  0  0
   41.9045   -4.3511   -8.6389 C   0  0  0  0  0  0  0  0  0  0  0  0
   41.1154   -5.4733   -8.3837 C   0  0  0  0  0  0  0  0  0  0  0  0
   39.7555   -5.4426   -8.5776 C   0  0  0  0  0  0  0  0  0  0  0  0
   38.9020   -6.6086   -8.3220 C   0  0  0  0  0  0  0  0  0  0  0  0
   38.7568   -7.4415   -9.5524 C   0  0  2  0  0  0  0  0  0  0  0  0
   40.0445   -8.0793   -9.8822 N   0  0  0  0  0  0  0  0  0  0  0  0
   38.2735   -6.6909  -10.7194 C   0  0  0  0  0  0  0  0  0  0  0  0
   37.0531   -6.0422  -10.6578 O   0  0  0  0  0  0  0  0  0  0  0  0
   39.1894   -4.2741   -9.0308 C   0  0  0  0  0  0  0  0  0  0  0  0
   39.9612   -3.1701   -9.2823 C   0  0  0  0  0  0  0  0  0  0  0  0
   38.9216   -6.6075  -11.7844 O   0  0  0  0  0  0  0  0  0  0  0  0
  2  1  1  6
  3  2  1  0
  4  5  2  0
  4  3  1  0
  6  5  1  0
  7  8  2  0
  7  6  1  0
  8  4  1  0
  9  2  1  0
 10  9  2  0
 12 11  1  0
 12 22  2  0
 13 12  1  0
 14 13  2  0
 14 15  1  0
 15 21  2  0
 16 15  1  0
 17 16  1  1
 17 18  1  0
 18  9  1  0
 19 20  2  0
 19 17  1  0
 21 22  1  0
 24 34  2  0
 24 23  1  0
 25 24  1  0
 26 27  1  0
 26 25  2  0
 27 33  2  0
 29 28  1  1
 28 27  1  0
 29 30  1  0
 30 19  1  0
 31 32  1  0
 31 29  1  0
 33 34  1  0
 35 31  2  0
M  END
$$$$
