HYY.pdb
     RDKit          3D

 35 37  0  0  1  0  0  0  0  0999 V2000
   19.7125  -13.6208  -19.8183 N   0  0  0  0  0  0  0  0  0  0  0  0
   19.9962  -12.8762  -18.6069 C   0  0  1  0  0  0  0  0  0  0  0  0
   21.0607  -13.5793  -17.7743 C   0  0  0  0  0  0  0  0  0  0  0  0
   20.5509  -14.9318  -17.4247 C   0  0  0  0  0  0  0  0  0  0  0  0
   19.6825  -15.2475  -16.3921 C   0  0  0  0  0  0  0  0  0  0  0  0
   19.4778  -16.5942  -16.4285 N   0  0  0  0  0  0  0  0  0  0  0  0
   20.1914  -17.1104  -17.4475 C   0  0  0  0  0  0  0  0  0  0  0  0
   20.8325  -16.1068  -18.0404 N   0  0  0  0  0  0  0  0  0  0  0  0
   20.3827  -11.4786  -18.9049 C   0  0  0  0  0  0  0  0  0  0  0  0
   20.6876  -11.1135  -20.0643 O   0  0  0  0  0  0  0  0  0  0  0  0
   19.4325   -2.9609  -19.5577 O   0  0  0  0  0  0  0  0  0  0  0  0
   19.4286   -4.3443  -19.3918 C   0  0  0  0  0  0  0  0  0  0  0  0
   20.2859   -5.1303  -20.1361 C   0  0  0  0  0  0  0  0  0  0  0  0
   20.2935   -6.5058  -19.9824 C   0  0  0  0  0  0  0  0  0  0  0  0
   19.4514   -7.1472  -19.0857 C   0  0  0  0  0  0  0  0  0  0  0  0
   19.4380   -8.5967  -18.9027 C   0  0  0  0  0  0  0  0  0  0  0  0
   20.5576   -9.1143  -18.0576 C   0  0  2  0  0  0  0  0  0  0  0  0
   20.4131  -10.5253  -17.8699 N   0  0  0  0  0  0  0  0  0  0  0  0
   20.5575   -8.3746  -16.7538 C   0  0  0  0  0  0  0  0  0  0  0  0
   19.6403   -8.5734  -15.9164 O   0  0  0  0  0  0  0  0  0  0  0  0
   18.5991   -6.3633  -18.3461 C   0  0  0  0  0  0  0  0  0  0  0  0
   18.5933   -4.9887  -18.5015 C   0  0  0  0  0  0  0  0  0  0  0  0
   26.8522   -4.4744  -17.8639 O   0  0  0  0  0  0  0  0  0  0  0  0
   25.9107   -5.1071  -17.0427 C   0  0  0  0  0  0  0  0  0  0  0  0
   25.5969   -6.4325  -17.2516 C   0  0  0  0  0  0  0  0  0  0  0  0
   24.6591   -7.0652  -16.4347 C   0  0  0  0  0  0  0  0  0  0  0  0
   24.0350   -6.3874  -15.4154 C   0  0  0  0  0  0  0  0  0  0  0  0
   23.0418   -7.0258  -14.5440 C   0  0  0  0  0  0  0  0  0  0  0  0
   21.6640   -6.8544  -15.0929 C   0  0  2  0  0  0  0  0  0  0  0  0
   21.5840   -7.4433  -16.4421 N   0  0  0  0  0  0  0  0  0  0  0  0
   21.2202   -5.4548  -15.1466 C   0  0  0  0  0  0  0  0  0  0  0  0
   20.9805   -4.7678  -13.9700 O   0  0  0  0  0  0  0  0  0  0  0  0
   24.3590   -5.0653  -15.2196 C   0  0  0  0  0  0  0  0  0  0  0  0
   25.2795   -4.4409  -16.0198 C   0  0  0  0  0  0  0  0  0  0  0  0
   21.0453   -4.8426  -16.2216 O   0  0  0  0  0  0  0  0  0  0  0  0
  2  1  1  6
  3  2  1  0
  4  5  2  0
  4  3  1  0
  6  5  1  0
  7  8  2  0
  7  6  1  0
  8  4  1  0
  9  2  1  0
 10  9  2  0
 12 11  1  0
 12 22  2  0
 13 12  1  0
 14 13  2  0
 14 15  1  0
 15 21  2  0
 16 15  1  0
 17 16  1  6
 17 18  1  0
 18  9  1  0
 19 20  2  0
 19 17  1  0
 21 22  1  0
 24 34  2  0
 24 23  1  0
 25 24  1  0
 26 27  1  0
 26 25  2  0
 27 33  2  0
 29 28  1  6
 28 27  1  0
 29 30  1  0
 30 19  1  0
 31 32  1  0
 31 29  1  0
 33 34  1  0
 35 31  2  0
M  END
$$$$
