HYY.pdb
     RDKit          3D

 35 37  0  0  1  0  0  0  0  0999 V2000
   20.3569  -10.5470  -18.3523 N   0  0  0  0  0  0  0  0  0  0  0  0
   21.2281   -9.5130  -17.8284 C   0  0  1  0  0  0  0  0  0  0  0  0
   21.7338   -8.6112  -18.9471 C   0  0  0  0  0  0  0  0  0  0  0  0
   22.4989   -9.4530  -19.9050 C   0  0  0  0  0  0  0  0  0  0  0  0
   23.8752   -9.4850  -20.0624 C   0  0  0  0  0  0  0  0  0  0  0  0
   24.1527  -10.3897  -21.0429 N   0  0  0  0  0  0  0  0  0  0  0  0
   22.9933  -10.9102  -21.4886 C   0  0  0  0  0  0  0  0  0  0  0  0
   22.0055  -10.3433  -20.8011 N   0  0  0  0  0  0  0  0  0  0  0  0
   20.5626   -8.7281  -16.7641 C   0  0  0  0  0  0  0  0  0  0  0  0
   19.3456   -8.4360  -16.8258 O   0  0  0  0  0  0  0  0  0  0  0  0
   19.0392   -5.4598   -8.7343 O   0  0  0  0  0  0  0  0  0  0  0  0
   19.5899   -6.0911   -9.8475 C   0  0  0  0  0  0  0  0  0  0  0  0
   18.9985   -7.2302  -10.3570 C   0  0  0  0  0  0  0  0  0  0  0  0
   19.5341   -7.8683  -11.4623 C   0  0  0  0  0  0  0  0  0  0  0  0
   20.6735   -7.3980  -12.0989 C   0  0  0  0  0  0  0  0  0  0  0  0
   21.2604   -8.0509  -13.2668 C   0  0  0  0  0  0  0  0  0  0  0  0
   20.7816   -7.5057  -14.5741 C   0  0  2  0  0  0  0  0  0  0  0  0
   21.3031   -8.2925  -15.6493 N   0  0  0  0  0  0  0  0  0  0  0  0
   21.2000   -6.0700  -14.6785 C   0  0  0  0  0  0  0  0  0  0  0  0
   22.4203   -5.7722  -14.7418 O   0  0  0  0  0  0  0  0  0  0  0  0
   21.2604   -6.2645  -11.5903 C   0  0  0  0  0  0  0  0  0  0  0  0
   20.7233   -5.6284  -10.4855 C   0  0  0  0  0  0  0  0  0  0  0  0
   22.5354    1.9992  -17.1206 O   0  0  0  0  0  0  0  0  0  0  0  0
   22.2127    0.6532  -16.9080 C   0  0  0  0  0  0  0  0  0  0  0  0
   21.1624    0.0817  -17.5928 C   0  0  0  0  0  0  0  0  0  0  0  0
   20.8389   -1.2594  -17.3827 C   0  0  0  0  0  0  0  0  0  0  0  0
   21.5531   -2.0305  -16.4978 C   0  0  0  0  0  0  0  0  0  0  0  0
   21.2325   -3.4415  -16.2535 C   0  0  0  0  0  0  0  0  0  0  0  0
   20.6622   -3.6285  -14.8865 C   0  0  2  0  0  0  0  0  0  0  0  0
   20.2348   -5.0281  -14.7076 N   0  0  0  0  0  0  0  0  0  0  0  0
   19.5343   -2.7345  -14.5905 C   0  0  0  0  0  0  0  0  0  0  0  0
   18.3037   -3.2727  -14.2592 O   0  0  0  0  0  0  0  0  0  0  0  0
   22.5984   -1.4457  -15.8221 C   0  0  0  0  0  0  0  0  0  0  0  0
   22.9189   -0.1292  -16.0260 C   0  0  0  0  0  0  0  0  0  0  0  0
   19.6329   -1.4894  -14.6236 O   0  0  0  0  0  0  0  0  0  0  0  0
  2  1  1  6
  3  2  1  0
  4  5  2  0
  4  3  1  0
  6  5  1  0
  7  8  2  0
  7  6  1  0
  8  4  1  0
  9  2  1  0
 10  9  2  0
 12 11  1  0
 12 22  2  0
 13 12  1  0
 14 13  2  0
 14 15  1  0
 15 21  2  0
 16 15  1  0
 17 16  1  1
 17 18  1  0
 18  9  1  0
 19 20  2  0
 19 17  1  0
 21 22  1  0
 24 34  2  0
 24 23  1  0
 25 24  1  0
 26 27  1  0
 26 25  2  0
 27 33  2  0
 29 28  1  6
 28 27  1  0
 29 30  1  0
 30 19  1  0
 31 32  1  0
 31 29  1  0
 33 34  1  0
 35 31  2  0
M  END
$$$$
