HYY.pdb
     RDKit          3D

 35 37  0  0  1  0  0  0  0  0999 V2000
   21.8664   -7.9111  -15.6719 N   0  0  0  0  0  0  0  0  0  0  0  0
   21.0619   -8.5660  -14.6587 C   0  0  1  0  0  0  0  0  0  0  0  0
   21.9290   -9.4299  -13.7518 C   0  0  0  0  0  0  0  0  0  0  0  0
   22.4388  -10.5721  -14.5563 C   0  0  0  0  0  0  0  0  0  0  0  0
   23.7660  -10.8747  -14.8155 C   0  0  0  0  0  0  0  0  0  0  0  0
   23.7851  -11.9973  -15.5876 N   0  0  0  0  0  0  0  0  0  0  0  0
   22.5156  -12.3896  -15.8079 C   0  0  0  0  0  0  0  0  0  0  0  0
   21.7136  -11.5296  -15.1859 N   0  0  0  0  0  0  0  0  0  0  0  0
   20.2716   -7.5893  -13.8758 C   0  0  0  0  0  0  0  0  0  0  0  0
   20.8157   -6.6332  -13.2756 O   0  0  0  0  0  0  0  0  0  0  0  0
   19.3870   -2.4877  -17.6127 O   0  0  0  0  0  0  0  0  0  0  0  0
   18.8099   -3.4071  -16.7392 C   0  0  0  0  0  0  0  0  0  0  0  0
   18.4020   -3.0027  -15.4834 C   0  0  0  0  0  0  0  0  0  0  0  0
   17.8271   -3.9044  -14.6047 C   0  0  0  0  0  0  0  0  0  0  0  0
   17.6378   -5.2367  -14.9422 C   0  0  0  0  0  0  0  0  0  0  0  0
   17.0339   -6.2101  -14.0353 C   0  0  0  0  0  0  0  0  0  0  0  0
   18.0018   -6.8398  -13.0854 C   0  0  2  0  0  0  0  0  0  0  0  0
   18.8730   -7.7255  -13.7949 N   0  0  0  0  0  0  0  0  0  0  0  0
   17.2308   -7.5530  -12.0157 C   0  0  0  0  0  0  0  0  0  0  0  0
   16.6466   -8.6360  -12.2757 O   0  0  0  0  0  0  0  0  0  0  0  0
   18.0444   -5.6370  -16.1922 C   0  0  0  0  0  0  0  0  0  0  0  0
   18.6187   -4.7339  -17.0687 C   0  0  0  0  0  0  0  0  0  0  0  0
   14.8275   -1.9850   -7.4524 O   0  0  0  0  0  0  0  0  0  0  0  0
   15.3066   -3.2837   -7.6647 C   0  0  0  0  0  0  0  0  0  0  0  0
   16.4590   -3.4805   -8.3941 C   0  0  0  0  0  0  0  0  0  0  0  0
   16.9383   -4.7736   -8.6070 C   0  0  0  0  0  0  0  0  0  0  0  0
   16.2784   -5.8667   -8.0995 C   0  0  0  0  0  0  0  0  0  0  0  0
   16.7567   -7.2376   -8.3116 C   0  0  0  0  0  0  0  0  0  0  0  0
   16.3702   -7.7324   -9.6661 C   0  0  2  0  0  0  0  0  0  0  0  0
   17.1462   -7.0238  -10.7001 N   0  0  0  0  0  0  0  0  0  0  0  0
   14.9362   -7.5969   -9.9566 C   0  0  0  0  0  0  0  0  0  0  0  0
   14.5060   -6.6194  -10.8359 O   0  0  0  0  0  0  0  0  0  0  0  0
   15.1298   -5.6538   -7.3738 C   0  0  0  0  0  0  0  0  0  0  0  0
   14.6563   -4.3854   -7.1627 C   0  0  0  0  0  0  0  0  0  0  0  0
   14.0699   -8.3340   -9.4396 O   0  0  0  0  0  0  0  0  0  0  0  0
  2  1  1  6
  3  2  1  0
  4  5  2  0
  4  3  1  0
  6  5  1  0
  7  8  2  0
  7  6  1  0
  8  4  1  0
  9  2  1  0
 10  9  2  0
 12 11  1  0
 12 22  2  0
 13 12  1  0
 14 13  2  0
 14 15  1  0
 15 21  2  0
 16 15  1  0
 17 16  1  6
 17 18  1  0
 18  9  1  0
 19 20  2  0
 19 17  1  0
 21 22  1  0
 24 34  2  0
 24 23  1  0
 25 24  1  0
 26 27  1  0
 26 25  2  0
 27 33  2  0
 29 28  1  1
 28 27  1  0
 29 30  1  0
 30 19  1  0
 31 32  1  0
 31 29  1  0
 33 34  1  0
 35 31  2  0
M  END
$$$$
