HYY.pdb
     RDKit          3D

 35 37  0  0  1  0  0  0  0  0999 V2000
   24.1493  -22.7099  -21.4097 N   0  0  0  0  0  0  0  0  0  0  0  0
   23.6027  -22.0014  -20.2688 C   0  0  1  0  0  0  0  0  0  0  0  0
   23.0277  -20.6552  -20.6904 C   0  0  0  0  0  0  0  0  0  0  0  0
   24.1581  -19.7840  -21.1085 C   0  0  0  0  0  0  0  0  0  0  0  0
   24.7107  -18.7404  -20.3835 C   0  0  0  0  0  0  0  0  0  0  0  0
   25.7194  -18.2126  -21.1324 N   0  0  0  0  0  0  0  0  0  0  0  0
   25.8007  -18.8982  -22.2888 C   0  0  0  0  0  0  0  0  0  0  0  0
   24.8608  -19.8394  -22.2671 N   0  0  0  0  0  0  0  0  0  0  0  0
   22.5948  -22.8164  -19.5537 C   0  0  0  0  0  0  0  0  0  0  0  0
   21.7743  -23.5364  -20.1692 O   0  0  0  0  0  0  0  0  0  0  0  0
   19.0657  -27.4843  -12.9647 O   0  0  0  0  0  0  0  0  0  0  0  0
   19.8686  -26.6656  -13.7562 C   0  0  0  0  0  0  0  0  0  0  0  0
   19.9724  -25.3184  -13.4711 C   0  0  0  0  0  0  0  0  0  0  0  0
   20.7660  -24.4926  -14.2483 C   0  0  0  0  0  0  0  0  0  0  0  0
   21.4827  -24.9754  -15.3337 C   0  0  0  0  0  0  0  0  0  0  0  0
   22.3278  -24.1272  -16.1709 C   0  0  0  0  0  0  0  0  0  0  0  0
   21.6197  -23.5319  -17.3456 C   0  0  2  0  0  0  0  0  0  0  0  0
   22.5451  -22.7918  -18.1473 N   0  0  0  0  0  0  0  0  0  0  0  0
   20.5000  -22.6697  -16.8456 C   0  0  0  0  0  0  0  0  0  0  0  0
   20.7466  -21.5384  -16.3545 O   0  0  0  0  0  0  0  0  0  0  0  0
   21.3780  -26.3161  -15.6156 C   0  0  0  0  0  0  0  0  0  0  0  0
   20.5843  -27.1395  -14.8374 C   0  0  0  0  0  0  0  0  0  0  0  0
   18.6598  -18.2156  -21.2108 O   0  0  0  0  0  0  0  0  0  0  0  0
   18.2508  -19.1660  -20.2671 C   0  0  0  0  0  0  0  0  0  0  0  0
   17.7049  -18.7556  -19.0703 C   0  0  0  0  0  0  0  0  0  0  0  0
   17.2967  -19.7008  -18.1284 C   0  0  0  0  0  0  0  0  0  0  0  0
   17.4290  -21.0466  -18.3714 C   0  0  0  0  0  0  0  0  0  0  0  0
   17.0128  -22.0624  -17.3976 C   0  0  0  0  0  0  0  0  0  0  0  0
   18.0698  -22.2738  -16.3647 C   0  0  2  0  0  0  0  0  0  0  0  0
   19.1512  -23.1102  -16.9164 N   0  0  0  0  0  0  0  0  0  0  0  0
   17.5694  -22.8824  -15.1245 C   0  0  0  0  0  0  0  0  0  0  0  0
   18.0883  -24.0920  -14.6985 O   0  0  0  0  0  0  0  0  0  0  0  0
   17.9756  -21.4403  -19.5704 C   0  0  0  0  0  0  0  0  0  0  0  0
   18.3774  -20.5149  -20.4976 C   0  0  0  0  0  0  0  0  0  0  0  0
   16.6821  -22.3524  -14.4224 O   0  0  0  0  0  0  0  0  0  0  0  0
  2  1  1  6
  3  2  1  0
  4  5  2  0
  4  3  1  0
  6  5  1  0
  7  8  2  0
  7  6  1  0
  8  4  1  0
  9  2  1  0
 10  9  2  0
 12 11  1  0
 12 22  2  0
 13 12  1  0
 14 13  2  0
 14 15  1  0
 15 21  2  0
 16 15  1  0
 17 16  1  1
 17 18  1  0
 18  9  1  0
 19 20  2  0
 19 17  1  0
 21 22  1  0
 24 34  2  0
 24 23  1  0
 25 24  1  0
 26 27  1  0
 26 25  2  0
 27 33  2  0
 29 28  1  6
 28 27  1  0
 29 30  1  0
 30 19  1  0
 31 32  1  0
 31 29  1  0
 33 34  1  0
 35 31  2  0
M  END
$$$$
