HYY.pdb
     RDKit          3D

 35 37  0  0  1  0  0  0  0  0999 V2000
   26.3892  -14.5146  -19.0839 N   0  0  0  0  0  0  0  0  0  0  0  0
   25.7673  -13.2100  -19.2022 C   0  0  1  0  0  0  0  0  0  0  0  0
   24.6050  -13.2501  -20.1861 C   0  0  0  0  0  0  0  0  0  0  0  0
   25.1489  -13.6016  -21.5249 C   0  0  0  0  0  0  0  0  0  0  0  0
   25.9382  -12.8002  -22.3340 C   0  0  0  0  0  0  0  0  0  0  0  0
   26.2118  -13.5073  -23.4662 N   0  0  0  0  0  0  0  0  0  0  0  0
   25.6166  -14.7121  -23.3753 C   0  0  0  0  0  0  0  0  0  0  0  0
   24.9808  -14.7612  -22.2078 N   0  0  0  0  0  0  0  0  0  0  0  0
   25.3385  -12.6899  -17.8842 C   0  0  0  0  0  0  0  0  0  0  0  0
   24.9678  -13.4555  -16.9640 O   0  0  0  0  0  0  0  0  0  0  0  0
   29.8645   -7.5213  -19.1474 O   0  0  0  0  0  0  0  0  0  0  0  0
   28.9656   -8.1711  -18.3042 C   0  0  0  0  0  0  0  0  0  0  0  0
   29.2196   -9.4638  -17.8902 C   0  0  0  0  0  0  0  0  0  0  0  0
   28.3361  -10.1222  -17.0527 C   0  0  0  0  0  0  0  0  0  0  0  0
   27.1715   -9.5206  -16.5981 C   0  0  0  0  0  0  0  0  0  0  0  0
   26.2213  -10.1913  -15.7138 C   0  0  0  0  0  0  0  0  0  0  0  0
   24.9896  -10.6834  -16.4041 C   0  0  2  0  0  0  0  0  0  0  0  0
   25.3421  -11.3030  -17.6446 N   0  0  0  0  0  0  0  0  0  0  0  0
   24.0555   -9.5279  -16.6025 C   0  0  0  0  0  0  0  0  0  0  0  0
   23.9811   -8.9630  -17.7237 O   0  0  0  0  0  0  0  0  0  0  0  0
   26.9206   -8.2344  -17.0112 C   0  0  0  0  0  0  0  0  0  0  0  0
   27.8052   -7.5784  -17.8483 C   0  0  0  0  0  0  0  0  0  0  0  0
   17.9473  -12.4961  -15.2587 O   0  0  0  0  0  0  0  0  0  0  0  0
   18.7887  -11.4456  -15.6455 C   0  0  0  0  0  0  0  0  0  0  0  0
   18.5754  -10.1769  -15.1519 C   0  0  0  0  0  0  0  0  0  0  0  0
   19.4125   -9.1284  -15.5359 C   0  0  0  0  0  0  0  0  0  0  0  0
   20.4560   -9.3365  -16.4050 C   0  0  0  0  0  0  0  0  0  0  0  0
   21.3490   -8.2522  -16.8296 C   0  0  0  0  0  0  0  0  0  0  0  0
   22.3288   -7.9180  -15.7538 C   0  0  2  0  0  0  0  0  0  0  0  0
   23.2440   -9.0534  -15.5375 N   0  0  0  0  0  0  0  0  0  0  0  0
   21.7009   -7.5500  -14.4774 C   0  0  0  0  0  0  0  0  0  0  0  0
   20.8505   -6.4601  -14.4227 O   0  0  0  0  0  0  0  0  0  0  0  0
   20.6559  -10.6082  -16.8888 C   0  0  0  0  0  0  0  0  0  0  0  0
   19.8359  -11.6401  -16.5139 C   0  0  0  0  0  0  0  0  0  0  0  0
   21.9001   -8.1840  -13.4193 O   0  0  0  0  0  0  0  0  0  0  0  0
  2  1  1  1
  3  2  1  0
  4  5  2  0
  4  3  1  0
  6  5  1  0
  7  8  2  0
  7  6  1  0
  8  4  1  0
  9  2  1  0
 10  9  2  0
 12 11  1  0
 12 22  2  0
 13 12  1  0
 14 13  2  0
 14 15  1  0
 15 21  2  0
 16 15  1  0
 17 16  1  6
 17 18  1  0
 18  9  1  0
 19 20  2  0
 19 17  1  0
 21 22  1  0
 24 34  2  0
 24 23  1  0
 25 24  1  0
 26 27  1  0
 26 25  2  0
 27 33  2  0
 29 28  1  6
 28 27  1  0
 29 30  1  0
 30 19  1  0
 31 32  1  0
 31 29  1  0
 33 34  1  0
 35 31  2  0
M  END
$$$$
