HYY.pdb
     RDKit          3D

 35 37  0  0  1  0  0  0  0  0999 V2000
   28.9606  -28.9250  -19.6933 N   0  0  0  0  0  0  0  0  0  0  0  0
   27.9035  -29.9175  -19.6922 C   0  0  1  0  0  0  0  0  0  0  0  0
   27.4966  -30.2786  -21.1151 C   0  0  0  0  0  0  0  0  0  0  0  0
   26.8220  -29.0962  -21.7138 C   0  0  0  0  0  0  0  0  0  0  0  0
   25.4562  -28.8884  -21.8203 C   0  0  0  0  0  0  0  0  0  0  0  0
   25.2731  -27.6835  -22.4298 N   0  0  0  0  0  0  0  0  0  0  0  0
   26.4800  -27.1497  -22.6986 C   0  0  0  0  0  0  0  0  0  0  0  0
   27.4043  -28.0030  -22.2660 N   0  0  0  0  0  0  0  0  0  0  0  0
   28.2876  -31.1211  -18.9208 C   0  0  0  0  0  0  0  0  0  0  0  0
   29.1611  -31.9177  -19.3364 O   0  0  0  0  0  0  0  0  0  0  0  0
   34.2341  -30.9064  -16.9148 O   0  0  0  0  0  0  0  0  0  0  0  0
   32.8985  -31.1600  -16.6098 C   0  0  0  0  0  0  0  0  0  0  0  0
   32.5471  -32.3361  -15.9770 C   0  0  0  0  0  0  0  0  0  0  0  0
   31.2245  -32.6020  -15.6676 C   0  0  0  0  0  0  0  0  0  0  0  0
   30.2068  -31.7108  -15.9754 C   0  0  0  0  0  0  0  0  0  0  0  0
   28.8030  -31.9652  -15.6607 C   0  0  0  0  0  0  0  0  0  0  0  0
   28.0021  -32.4735  -16.8165 C   0  0  2  0  0  0  0  0  0  0  0  0
   27.6643  -31.3903  -17.6879 N   0  0  0  0  0  0  0  0  0  0  0  0
   26.7824  -33.1668  -16.2885 C   0  0  0  0  0  0  0  0  0  0  0  0
   25.7160  -32.5225  -16.1167 O   0  0  0  0  0  0  0  0  0  0  0  0
   30.5586  -30.5413  -16.6050 C   0  0  0  0  0  0  0  0  0  0  0  0
   31.8812  -30.2776  -16.9132 C   0  0  0  0  0  0  0  0  0  0  0  0
   19.7624  -37.7347  -15.0651 O   0  0  0  0  0  0  0  0  0  0  0  0
   20.9334  -37.0632  -15.4378 C   0  0  0  0  0  0  0  0  0  0  0  0
   21.8050  -37.6461  -16.3319 C   0  0  0  0  0  0  0  0  0  0  0  0
   22.9725  -36.9789  -16.7048 C   0  0  0  0  0  0  0  0  0  0  0  0
   23.2749  -35.7399  -16.1938 C   0  0  0  0  0  0  0  0  0  0  0  0
   24.4972  -35.0175  -16.5643 C   0  0  0  0  0  0  0  0  0  0  0  0
   25.5728  -35.2378  -15.5527 C   0  0  2  0  0  0  0  0  0  0  0  0
   26.8077  -34.5521  -15.9749 N   0  0  0  0  0  0  0  0  0  0  0  0
   25.8657  -36.6557  -15.3023 C   0  0  0  0  0  0  0  0  0  0  0  0
   27.1508  -37.1321  -15.4901 O   0  0  0  0  0  0  0  0  0  0  0  0
   22.3950  -35.1715  -15.3026 C   0  0  0  0  0  0  0  0  0  0  0  0
   21.2476  -35.8237  -14.9343 C   0  0  0  0  0  0  0  0  0  0  0  0
   24.9959  -37.4678  -14.9211 O   0  0  0  0  0  0  0  0  0  0  0  0
  2  1  1  6
  3  2  1  0
  4  5  2  0
  4  3  1  0
  6  5  1  0
  7  8  2  0
  7  6  1  0
  8  4  1  0
  9  2  1  0
 10  9  2  0
 12 11  1  0
 12 22  2  0
 13 12  1  0
 14 13  2  0
 14 15  1  0
 15 21  2  0
 16 15  1  0
 17 16  1  1
 17 18  1  0
 18  9  1  0
 19 20  2  0
 19 17  1  0
 21 22  1  0
 24 34  2  0
 24 23  1  0
 25 24  1  0
 26 27  1  0
 26 25  2  0
 27 33  2  0
 29 28  1  6
 28 27  1  0
 29 30  1  0
 30 19  1  0
 31 32  1  0
 31 29  1  0
 33 34  1  0
 35 31  2  0
M  END
$$$$
