HYY.pdb
     RDKit          3D

 35 37  0  0  1  0  0  0  0  0999 V2000
   22.8409  -12.9974  -19.6850 N   0  0  0  0  0  0  0  0  0  0  0  0
   22.3795  -11.6261  -19.5887 C   0  0  1  0  0  0  0  0  0  0  0  0
   20.8847  -11.5356  -19.8677 C   0  0  0  0  0  0  0  0  0  0  0  0
   20.6489  -11.9988  -21.2611 C   0  0  0  0  0  0  0  0  0  0  0  0
   20.3946  -13.2983  -21.6694 C   0  0  0  0  0  0  0  0  0  0  0  0
   20.2405  -13.2778  -23.0231 N   0  0  0  0  0  0  0  0  0  0  0  0
   20.3920  -12.0109  -23.4542 C   0  0  0  0  0  0  0  0  0  0  0  0
   20.6368  -11.2493  -22.3913 N   0  0  0  0  0  0  0  0  0  0  0  0
   22.7190  -11.0284  -18.2776 C   0  0  0  0  0  0  0  0  0  0  0  0
   22.6068  -11.6761  -17.2107 O   0  0  0  0  0  0  0  0  0  0  0  0
   26.9210   -5.7795  -21.3964 O   0  0  0  0  0  0  0  0  0  0  0  0
   26.4403   -6.4955  -20.3021 C   0  0  0  0  0  0  0  0  0  0  0  0
   26.3635   -7.8731  -20.3592 C   0  0  0  0  0  0  0  0  0  0  0  0
   25.8882   -8.5979  -19.2802 C   0  0  0  0  0  0  0  0  0  0  0  0
   25.4734   -7.9808  -18.1089 C   0  0  0  0  0  0  0  0  0  0  0  0
   24.9678   -8.7204  -16.9549 C   0  0  0  0  0  0  0  0  0  0  0  0
   23.4999   -9.0005  -17.0064 C   0  0  2  0  0  0  0  0  0  0  0  0
   23.1805   -9.7004  -18.2126 N   0  0  0  0  0  0  0  0  0  0  0  0
   22.7586   -7.7018  -16.9012 C   0  0  0  0  0  0  0  0  0  0  0  0
   22.5734   -6.9970  -17.9262 O   0  0  0  0  0  0  0  0  0  0  0  0
   25.5506   -6.6100  -18.0541 C   0  0  0  0  0  0  0  0  0  0  0  0
   26.0260   -5.8877  -19.1339 C   0  0  0  0  0  0  0  0  0  0  0  0
   16.3892   -9.6709  -14.4404 O   0  0  0  0  0  0  0  0  0  0  0  0
   17.3519   -8.7943  -14.9559 C   0  0  0  0  0  0  0  0  0  0  0  0
   18.2126   -9.2221  -15.9433 C   0  0  0  0  0  0  0  0  0  0  0  0
   19.1727   -8.3503  -16.4586 C   0  0  0  0  0  0  0  0  0  0  0  0
   19.2795   -7.0606  -15.9971 C   0  0  0  0  0  0  0  0  0  0  0  0
   20.2823   -6.1239  -16.5171 C   0  0  0  0  0  0  0  0  0  0  0  0
   21.4444   -6.0176  -15.5858 C   0  0  2  0  0  0  0  0  0  0  0  0
   22.2559   -7.2466  -15.6529 N   0  0  0  0  0  0  0  0  0  0  0  0
   21.0608   -5.7642  -14.1903 C   0  0  0  0  0  0  0  0  0  0  0  0
   21.4455   -6.6536  -13.2030 O   0  0  0  0  0  0  0  0  0  0  0  0
   18.4134   -6.6487  -15.0115 C   0  0  0  0  0  0  0  0  0  0  0  0
   17.4693   -7.5020  -14.5034 C   0  0  0  0  0  0  0  0  0  0  0  0
   20.3920   -4.7671  -13.8442 O   0  0  0  0  0  0  0  0  0  0  0  0
  2  1  1  1
  3  2  1  0
  4  5  2  0
  4  3  1  0
  6  5  1  0
  7  8  2  0
  7  6  1  0
  8  4  1  0
  9  2  1  0
 10  9  2  0
 12 11  1  0
 12 22  2  0
 13 12  1  0
 14 13  2  0
 14 15  1  0
 15 21  2  0
 16 15  1  0
 17 16  1  6
 17 18  1  0
 18  9  1  0
 19 20  2  0
 19 17  1  0
 21 22  1  0
 24 34  2  0
 24 23  1  0
 25 24  1  0
 26 27  1  0
 26 25  2  0
 27 33  2  0
 29 28  1  6
 28 27  1  0
 29 30  1  0
 30 19  1  0
 31 32  1  0
 31 29  1  0
 33 34  1  0
 35 31  2  0
M  END
$$$$
