FDE.pdb
     RDKit          3D

 29 29  0  0  1  0  0  0  0  0999 V2000
   24.2602   -9.8185  -17.8664 N   0  0  0  0  0  0  0  0  0  0  0  0
   23.8272   -9.3698  -16.5807 C   0  0  1  0  0  0  0  0  0  0  0  0
   24.9038   -8.5993  -15.8523 C   0  0  0  0  0  0  0  0  0  0  0  0
   26.0832   -9.5023  -15.7608 C   0  0  0  0  0  0  0  0  0  0  0  0
   26.0372  -10.6470  -14.9708 C   0  0  0  0  0  0  0  0  0  0  0  0
   27.1126  -11.4989  -14.8673 C   0  0  0  0  0  0  0  0  0  0  0  0
   28.2874  -11.2494  -15.5481 C   0  0  0  0  0  0  0  0  0  0  0  0
   28.3479  -10.1230  -16.3322 C   0  0  0  0  0  0  0  0  0  0  0  0
   27.2697   -9.2713  -16.4342 C   0  0  0  0  0  0  0  0  0  0  0  0
   22.5599   -8.6335  -16.6852 C   0  0  0  0  0  0  0  0  0  0  0  0
   22.2953   -8.0769  -17.7826 O   0  0  0  0  0  0  0  0  0  0  0  0
   21.6250   -8.5191  -15.6186 N   0  0  0  0  0  0  0  0  0  0  0  0
   20.3483   -7.9298  -15.8587 C   0  0  1  0  0  0  0  0  0  0  0  0
   19.2233   -8.6931  -15.1733 C   0  0  0  0  0  0  0  0  0  0  0  0
   17.9314   -8.1312  -15.5592 C   0  0  0  0  0  0  0  0  0  0  0  0
   17.4747   -7.0457  -15.1253 O   0  0  0  0  0  0  0  0  0  0  0  0
   20.2870   -6.4881  -15.5671 C   0  0  0  0  0  0  0  0  0  0  0  0
   20.7549   -6.0611  -14.4885 O   0  0  0  0  0  0  0  0  0  0  0  0
   17.1464   -8.8365  -16.4666 O   0  0  0  0  0  0  0  0  0  0  0  0
   19.7097   -5.5988  -16.4896 N   0  0  0  0  0  0  0  0  0  0  0  0
   19.6343   -4.1559  -16.2928 C   0  0  1  0  0  0  0  0  0  0  0  0
   19.8254   -3.4174  -17.5728 C   0  0  0  0  0  0  0  0  0  0  0  0
   19.8668   -1.9215  -17.4604 C   0  0  0  0  0  0  0  0  0  0  0  0
   20.0011   -1.2110  -18.7392 C   0  0  0  0  0  0  0  0  0  0  0  0
   19.7771    0.0435  -18.8265 O   0  0  0  0  0  0  0  0  0  0  0  0
   18.4062   -3.7824  -15.5558 C   0  0  0  0  0  0  0  0  0  0  0  0
   17.2142   -4.4145  -15.7406 O   0  0  0  0  0  0  0  0  0  0  0  0
   20.3695   -1.8156  -19.9275 O   0  0  0  0  0  0  0  0  0  0  0  0
   18.4813   -2.8397  -14.7288 O   0  0  0  0  0  0  0  0  0  0  0  0
  2  1  1  6
  2 10  1  0
  3  2  1  0
  3  4  1  0
  4  9  2  0
  5  6  2  0
  5  4  1  0
  6  7  1  0
  7  8  2  0
  9  8  1  0
 10 12  1  0
 10 11  2  0
 12 13  1  0
 13 17  1  0
 13 14  1  1
 14 15  1  0
 15 19  1  0
 16 15  2  0
 17 18  2  0
 20 21  1  0
 20 17  1  0
 22 23  1  0
 21 22  1  6
 23 24  1  0
 24 25  2  0
 24 28  1  0
 26 21  1  0
 27 26  1  0
 29 26  2  0
M  END
$$$$
