FDE.pdb
     RDKit          3D

 29 29  0  0  1  0  0  0  0  0999 V2000
   25.6565  -18.7515   -9.1947 N   0  0  0  0  0  0  0  0  0  0  0  0
   26.1745  -19.9011   -9.8669 C   0  0  1  0  0  0  0  0  0  0  0  0
   26.4459  -21.0443   -8.9168 C   0  0  0  0  0  0  0  0  0  0  0  0
   27.3817  -20.5237   -7.8834 C   0  0  0  0  0  0  0  0  0  0  0  0
   28.7495  -20.7581   -7.9862 C   0  0  0  0  0  0  0  0  0  0  0  0
   29.6370  -20.2893   -7.0453 C   0  0  0  0  0  0  0  0  0  0  0  0
   29.2021  -19.5630   -5.9549 C   0  0  0  0  0  0  0  0  0  0  0  0
   27.8542  -19.3234   -5.8397 C   0  0  0  0  0  0  0  0  0  0  0  0
   26.9673  -19.7939   -6.7832 C   0  0  0  0  0  0  0  0  0  0  0  0
   25.3107  -20.2790  -10.9940 C   0  0  0  0  0  0  0  0  0  0  0  0
   24.2234  -19.6601  -11.1311 O   0  0  0  0  0  0  0  0  0  0  0  0
   25.6383  -21.2996  -11.9299 N   0  0  0  0  0  0  0  0  0  0  0  0
   24.9921  -21.3256  -13.2014 C   0  0  1  0  0  0  0  0  0  0  0  0
   25.0544  -19.9778  -13.9070 C   0  0  0  0  0  0  0  0  0  0  0  0
   26.4437  -19.5463  -14.0373 C   0  0  0  0  0  0  0  0  0  0  0  0
   27.4290  -20.3237  -14.0313 O   0  0  0  0  0  0  0  0  0  0  0  0
   25.4343  -22.4221  -14.0784 C   0  0  0  0  0  0  0  0  0  0  0  0
   26.3015  -22.1965  -14.9512 O   0  0  0  0  0  0  0  0  0  0  0  0
   26.7049  -18.1864  -14.1779 O   0  0  0  0  0  0  0  0  0  0  0  0
   24.8896  -23.7101  -13.9382 N   0  0  0  0  0  0  0  0  0  0  0  0
   24.2493  -24.4464  -15.0219 C   0  0  1  0  0  0  0  0  0  0  0  0
   23.3007  -25.4714  -14.5025 C   0  0  0  0  0  0  0  0  0  0  0  0
   23.7761  -26.2537  -13.3133 C   0  0  0  0  0  0  0  0  0  0  0  0
   22.7090  -26.8801  -12.5213 C   0  0  0  0  0  0  0  0  0  0  0  0
   21.4897  -26.8340  -12.8990 O   0  0  0  0  0  0  0  0  0  0  0  0
   23.6582  -23.5232  -16.0164 C   0  0  0  0  0  0  0  0  0  0  0  0
   23.7196  -23.7469  -17.3583 O   0  0  0  0  0  0  0  0  0  0  0  0
   22.9197  -27.5545  -11.3321 O   0  0  0  0  0  0  0  0  0  0  0  0
   23.0795  -22.4928  -15.5900 O   0  0  0  0  0  0  0  0  0  0  0  0
  2  1  1  1
  2 10  1  0
  3  2  1  0
  3  4  1  0
  4  9  2  0
  5  6  2  0
  5  4  1  0
  6  7  1  0
  7  8  2  0
  9  8  1  0
 10 12  1  0
 10 11  2  0
 12 13  1  0
 13 17  1  0
 13 14  1  6
 14 15  1  0
 15 19  1  0
 16 15  2  0
 17 18  2  0
 20 21  1  0
 20 17  1  0
 22 23  1  0
 21 22  1  1
 23 24  1  0
 24 25  2  0
 24 28  1  0
 26 21  1  0
 27 26  1  0
 29 26  2  0
M  END
$$$$
