FDE.pdb
     RDKit          3D

 29 29  0  0  1  0  0  0  0  0999 V2000
   17.5242  -27.8816  -12.2648 N   0  0  0  0  0  0  0  0  0  0  0  0
   18.3853  -28.1005  -11.1458 C   0  0  1  0  0  0  0  0  0  0  0  0
   19.5420  -27.1286  -11.1164 C   0  0  0  0  0  0  0  0  0  0  0  0
   20.3724  -27.4213  -12.3161 C   0  0  0  0  0  0  0  0  0  0  0  0
   20.2353  -26.6606  -13.4733 C   0  0  0  0  0  0  0  0  0  0  0  0
   20.9893  -26.9094  -14.5968 C   0  0  0  0  0  0  0  0  0  0  0  0
   21.9178  -27.9308  -14.6202 C   0  0  0  0  0  0  0  0  0  0  0  0
   22.0645  -28.6907  -13.4850 C   0  0  0  0  0  0  0  0  0  0  0  0
   21.3083  -28.4396  -12.3611 C   0  0  0  0  0  0  0  0  0  0  0  0
   17.6171  -28.1225   -9.8934 C   0  0  0  0  0  0  0  0  0  0  0  0
   16.7530  -27.2237   -9.7211 O   0  0  0  0  0  0  0  0  0  0  0  0
   17.7986  -29.0995   -8.8749 N   0  0  0  0  0  0  0  0  0  0  0  0
   17.1883  -28.9116   -7.5993 C   0  0  1  0  0  0  0  0  0  0  0  0
   17.1736  -30.1907   -6.7736 C   0  0  0  0  0  0  0  0  0  0  0  0
   16.4115  -29.9829   -5.5449 C   0  0  0  0  0  0  0  0  0  0  0  0
   15.7780  -28.9337   -5.2749 O   0  0  0  0  0  0  0  0  0  0  0  0
   17.7287  -27.7748   -6.8358 C   0  0  0  0  0  0  0  0  0  0  0  0
   18.9670  -27.6615   -6.7003 O   0  0  0  0  0  0  0  0  0  0  0  0
   16.3780  -31.0083   -4.6044 O   0  0  0  0  0  0  0  0  0  0  0  0
   16.8644  -26.8253   -6.2644 N   0  0  0  0  0  0  0  0  0  0  0  0
   17.2940  -25.5172   -5.7840 C   0  0  1  0  0  0  0  0  0  0  0  0
   17.2225  -24.4880   -6.8590 C   0  0  0  0  0  0  0  0  0  0  0  0
   17.7119  -23.1201   -6.4829 C   0  0  0  0  0  0  0  0  0  0  0  0
   17.5430  -22.0974   -7.5241 C   0  0  0  0  0  0  0  0  0  0  0  0
   16.8231  -22.3158   -8.5564 O   0  0  0  0  0  0  0  0  0  0  0  0
   16.5805  -25.1456   -4.5415 C   0  0  0  0  0  0  0  0  0  0  0  0
   15.5114  -25.8438   -4.0680 O   0  0  0  0  0  0  0  0  0  0  0  0
   18.1296  -20.8454   -7.4839 O   0  0  0  0  0  0  0  0  0  0  0  0
   16.9888  -24.1405   -3.9080 O   0  0  0  0  0  0  0  0  0  0  0  0
  2  1  1  6
  2 10  1  0
  3  2  1  0
  3  4  1  0
  4  9  2  0
  5  6  2  0
  5  4  1  0
  6  7  1  0
  7  8  2  0
  9  8  1  0
 10 12  1  0
 10 11  2  0
 12 13  1  0
 13 17  1  0
 13 14  1  1
 14 15  1  0
 15 19  1  0
 16 15  2  0
 17 18  2  0
 20 21  1  0
 20 17  1  0
 22 23  1  0
 21 22  1  6
 23 24  1  0
 24 25  2  0
 24 28  1  0
 26 21  1  0
 27 26  1  0
 29 26  2  0
M  END
$$$$
