FDE.pdb
     RDKit          3D

 29 29  0  0  1  0  0  0  0  0999 V2000
   28.9327  -21.5328  -14.5119 N   0  0  0  0  0  0  0  0  0  0  0  0
   28.0127  -21.2464  -13.4567 C   0  0  1  0  0  0  0  0  0  0  0  0
   28.4943  -20.1229  -12.5683 C   0  0  0  0  0  0  0  0  0  0  0  0
   27.8363  -20.3151  -11.2474 C   0  0  0  0  0  0  0  0  0  0  0  0
   28.5170  -20.9310  -10.2016 C   0  0  0  0  0  0  0  0  0  0  0  0
   27.9330  -21.1220   -8.9707 C   0  0  0  0  0  0  0  0  0  0  0  0
   26.6397  -20.7072   -8.7234 C   0  0  0  0  0  0  0  0  0  0  0  0
   25.9548  -20.0974   -9.7463 C   0  0  0  0  0  0  0  0  0  0  0  0
   26.5417  -19.9072  -10.9782 C   0  0  0  0  0  0  0  0  0  0  0  0
   26.6617  -21.0231  -13.9895 C   0  0  0  0  0  0  0  0  0  0  0  0
   26.5609  -20.4775  -15.1193 O   0  0  0  0  0  0  0  0  0  0  0  0
   25.4723  -21.3893  -13.2995 N   0  0  0  0  0  0  0  0  0  0  0  0
   24.2514  -21.5317  -14.0234 C   0  0  1  0  0  0  0  0  0  0  0  0
   24.0605  -22.9441  -14.5590 C   0  0  0  0  0  0  0  0  0  0  0  0
   22.8272  -23.0202  -15.3379 C   0  0  0  0  0  0  0  0  0  0  0  0
   22.4880  -22.1821  -16.2083 O   0  0  0  0  0  0  0  0  0  0  0  0
   23.0623  -21.0581  -13.2961 C   0  0  0  0  0  0  0  0  0  0  0  0
   22.6449  -21.7108  -12.3140 O   0  0  0  0  0  0  0  0  0  0  0  0
   21.9635  -24.0873  -15.1089 O   0  0  0  0  0  0  0  0  0  0  0  0
   22.4013  -19.8850  -13.6988 N   0  0  0  0  0  0  0  0  0  0  0  0
   21.1458  -19.4184  -13.1225 C   0  0  1  0  0  0  0  0  0  0  0  0
   20.5608  -18.3005  -13.9153 C   0  0  0  0  0  0  0  0  0  0  0  0
   19.2460  -17.7718  -13.4216 C   0  0  0  0  0  0  0  0  0  0  0  0
   18.6378  -16.7405  -14.2728 C   0  0  0  0  0  0  0  0  0  0  0  0
   18.5947  -16.8707  -15.5428 O   0  0  0  0  0  0  0  0  0  0  0  0
   20.2158  -20.5459  -12.8883 C   0  0  0  0  0  0  0  0  0  0  0  0
   19.9989  -21.5263  -13.8081 O   0  0  0  0  0  0  0  0  0  0  0  0
   18.0750  -15.5715  -13.7931 O   0  0  0  0  0  0  0  0  0  0  0  0
   19.6068  -20.5864  -11.7902 O   0  0  0  0  0  0  0  0  0  0  0  0
  2  1  1  6
  2 10  1  0
  3  2  1  0
  3  4  1  0
  4  9  2  0
  5  6  2  0
  5  4  1  0
  6  7  1  0
  7  8  2  0
  9  8  1  0
 10 12  1  0
 10 11  2  0
 12 13  1  0
 13 17  1  0
 13 14  1  1
 14 15  1  0
 15 19  1  0
 16 15  2  0
 17 18  2  0
 20 21  1  0
 20 17  1  0
 22 23  1  0
 21 22  1  6
 23 24  1  0
 24 25  2  0
 24 28  1  0
 26 21  1  0
 27 26  1  0
 29 26  2  0
M  END
$$$$
