FDE.pdb
     RDKit          3D

 29 29  0  0  1  0  0  0  0  0999 V2000
   37.0830  -32.8002   -1.9921 N   0  0  0  0  0  0  0  0  0  0  0  0
   35.7534  -33.2155   -2.3104 C   0  0  1  0  0  0  0  0  0  0  0  0
   35.5916  -33.5383   -3.7777 C   0  0  0  0  0  0  0  0  0  0  0  0
   34.1731  -33.9460   -3.9683 C   0  0  0  0  0  0  0  0  0  0  0  0
   33.1975  -32.9964   -4.2565 C   0  0  0  0  0  0  0  0  0  0  0  0
   31.8789  -33.3450   -4.4369 C   0  0  0  0  0  0  0  0  0  0  0  0
   31.4694  -34.6597   -4.3383 C   0  0  0  0  0  0  0  0  0  0  0  0
   32.4213  -35.6087   -4.0541 C   0  0  0  0  0  0  0  0  0  0  0  0
   33.7412  -35.2572   -3.8739 C   0  0  0  0  0  0  0  0  0  0  0  0
   35.3233  -34.3084   -1.4274 C   0  0  0  0  0  0  0  0  0  0  0  0
   36.2160  -35.0348   -0.9178 O   0  0  0  0  0  0  0  0  0  0  0  0
   33.9613  -34.5847   -1.1218 N   0  0  0  0  0  0  0  0  0  0  0  0
   33.6442  -35.5055   -0.0794 C   0  0  1  0  0  0  0  0  0  0  0  0
   34.3173  -35.1403    1.2365 C   0  0  0  0  0  0  0  0  0  0  0  0
   34.0591  -36.1760    2.2336 C   0  0  0  0  0  0  0  0  0  0  0  0
   33.1594  -36.1088    3.1061 O   0  0  0  0  0  0  0  0  0  0  0  0
   32.2020  -35.7455    0.0929 C   0  0  0  0  0  0  0  0  0  0  0  0
   31.4901  -34.8546    0.6068 O   0  0  0  0  0  0  0  0  0  0  0  0
   34.8565  -37.3167    2.2259 O   0  0  0  0  0  0  0  0  0  0  0  0
   31.6286  -36.9620   -0.3152 N   0  0  0  0  0  0  0  0  0  0  0  0
   30.1957  -37.2321   -0.3030 C   0  0  1  0  0  0  0  0  0  0  0  0
   29.8526  -38.4093   -1.1495 C   0  0  0  0  0  0  0  0  0  0  0  0
   28.3867  -38.6770   -1.3274 C   0  0  0  0  0  0  0  0  0  0  0  0
   28.0684  -39.7771   -2.2476 C   0  0  0  0  0  0  0  0  0  0  0  0
   28.9847  -40.3759   -2.9060 O   0  0  0  0  0  0  0  0  0  0  0  0
   29.6807  -37.3118    1.0824 C   0  0  0  0  0  0  0  0  0  0  0  0
   28.4296  -36.9005    1.4290 O   0  0  0  0  0  0  0  0  0  0  0  0
   26.7891  -40.2496   -2.4786 O   0  0  0  0  0  0  0  0  0  0  0  0
   30.4415  -37.7798    1.9658 O   0  0  0  0  0  0  0  0  0  0  0  0
  2  1  1  6
  2 10  1  0
  3  2  1  0
  3  4  1  0
  4  9  2  0
  5  6  2  0
  5  4  1  0
  6  7  1  0
  7  8  2  0
  9  8  1  0
 10 12  1  0
 10 11  2  0
 12 13  1  0
 13 17  1  0
 13 14  1  1
 14 15  1  0
 15 19  1  0
 16 15  2  0
 17 18  2  0
 20 21  1  0
 20 17  1  0
 22 23  1  0
 21 22  1  1
 23 24  1  0
 24 25  2  0
 24 28  1  0
 26 21  1  0
 27 26  1  0
 29 26  2  0
M  END
$$$$
