FDE.pdb
     RDKit          3D

 29 29  0  0  1  0  0  0  0  0999 V2000
   28.9476  -35.5608   -4.7523 N   0  0  0  0  0  0  0  0  0  0  0  0
   29.1709  -34.4707   -3.8558 C   0  0  1  0  0  0  0  0  0  0  0  0
   30.0388  -33.3960   -4.4684 C   0  0  0  0  0  0  0  0  0  0  0  0
   31.3810  -34.0034   -4.6782 C   0  0  0  0  0  0  0  0  0  0  0  0
   31.7626  -34.4567   -5.9374 C   0  0  0  0  0  0  0  0  0  0  0  0
   32.9966  -35.0228   -6.1597 C   0  0  0  0  0  0  0  0  0  0  0  0
   33.9109  -35.1641   -5.1350 C   0  0  0  0  0  0  0  0  0  0  0  0
   33.5485  -34.7211   -3.8860 C   0  0  0  0  0  0  0  0  0  0  0  0
   32.3121  -34.1546   -3.6658 C   0  0  0  0  0  0  0  0  0  0  0  0
   27.8975  -33.9567   -3.3329 C   0  0  0  0  0  0  0  0  0  0  0  0
   27.9457  -33.0363   -2.4757 O   0  0  0  0  0  0  0  0  0  0  0  0
   26.6242  -34.4422   -3.7427 N   0  0  0  0  0  0  0  0  0  0  0  0
   25.4453  -33.9661   -3.0959 C   0  0  1  0  0  0  0  0  0  0  0  0
   24.2726  -33.8361   -4.0581 C   0  0  0  0  0  0  0  0  0  0  0  0
   23.1437  -33.1979   -3.3860 C   0  0  0  0  0  0  0  0  0  0  0  0
   23.2553  -32.3408   -2.4760 O   0  0  0  0  0  0  0  0  0  0  0  0
   25.0777  -34.7190   -1.8854 C   0  0  0  0  0  0  0  0  0  0  0  0
   24.8291  -35.9415   -1.9767 O   0  0  0  0  0  0  0  0  0  0  0  0
   21.8548  -33.5555   -3.7710 O   0  0  0  0  0  0  0  0  0  0  0  0
   25.0065  -34.0734   -0.6391 N   0  0  0  0  0  0  0  0  0  0  0  0
   24.7212  -34.7564    0.6172 C   0  0  1  0  0  0  0  0  0  0  0  0
   25.6017  -34.2713    1.7171 C   0  0  0  0  0  0  0  0  0  0  0  0
   27.0769  -34.3672    1.4591 C   0  0  0  0  0  0  0  0  0  0  0  0
   27.9270  -33.8922    2.5591 C   0  0  0  0  0  0  0  0  0  0  0  0
   28.4593  -34.7086    3.3848 O   0  0  0  0  0  0  0  0  0  0  0  0
   23.2759  -34.7087    0.9330 C   0  0  0  0  0  0  0  0  0  0  0  0
   22.7318  -35.3594    1.9984 O   0  0  0  0  0  0  0  0  0  0  0  0
   28.2187  -32.5608    2.7947 O   0  0  0  0  0  0  0  0  0  0  0  0
   22.5313  -34.0366    0.1766 O   0  0  0  0  0  0  0  0  0  0  0  0
  2  1  1  6
  2 10  1  0
  3  2  1  0
  3  4  1  0
  4  9  2  0
  5  6  2  0
  5  4  1  0
  6  7  1  0
  7  8  2  0
  9  8  1  0
 10 12  1  0
 10 11  2  0
 12 13  1  0
 13 17  1  0
 13 14  1  6
 14 15  1  0
 15 19  1  0
 16 15  2  0
 17 18  2  0
 20 21  1  0
 20 17  1  0
 22 23  1  0
 21 22  1  1
 23 24  1  0
 24 25  2  0
 24 28  1  0
 26 21  1  0
 27 26  1  0
 29 26  2  0
M  END
$$$$
