FDE.pdb
     RDKit          3D

 29 29  0  0  1  0  0  0  0  0999 V2000
   23.0398  -13.3795  -19.4127 N   0  0  0  0  0  0  0  0  0  0  0  0
   21.9440  -12.5027  -19.6811 C   0  0  1  0  0  0  0  0  0  0  0  0
   20.6665  -12.9663  -19.0205 C   0  0  0  0  0  0  0  0  0  0  0  0
   20.2298  -14.1867  -19.7516 C   0  0  0  0  0  0  0  0  0  0  0  0
   20.4576  -15.4508  -19.2161 C   0  0  0  0  0  0  0  0  0  0  0  0
   20.0653  -16.5956  -19.8704 C   0  0  0  0  0  0  0  0  0  0  0  0
   19.4258  -16.5345  -21.0924 C   0  0  0  0  0  0  0  0  0  0  0  0
   19.1938  -15.2933  -21.6339 C   0  0  0  0  0  0  0  0  0  0  0  0
   19.5877  -14.1482  -20.9767 C   0  0  0  0  0  0  0  0  0  0  0  0
   22.2944  -11.1144  -19.3509 C   0  0  0  0  0  0  0  0  0  0  0  0
   23.0975  -10.9237  -18.4007 O   0  0  0  0  0  0  0  0  0  0  0  0
   21.7769   -9.9849  -20.0448 N   0  0  0  0  0  0  0  0  0  0  0  0
   22.1790   -8.6725  -19.6565 C   0  0  1  0  0  0  0  0  0  0  0  0
   22.4873   -7.7860  -20.8553 C   0  0  0  0  0  0  0  0  0  0  0  0
   23.0112   -6.4997  -20.4033 C   0  0  0  0  0  0  0  0  0  0  0  0
   23.9858   -6.3679  -19.6236 O   0  0  0  0  0  0  0  0  0  0  0  0
   21.2584   -8.0157  -18.7140 C   0  0  0  0  0  0  0  0  0  0  0  0
   20.0285   -8.2201  -18.8163 O   0  0  0  0  0  0  0  0  0  0  0  0
   22.3980   -5.3368  -20.8602 O   0  0  0  0  0  0  0  0  0  0  0  0
   21.7536   -7.1677  -17.7085 N   0  0  0  0  0  0  0  0  0  0  0  0
   20.9258   -6.5635  -16.6713 C   0  0  1  0  0  0  0  0  0  0  0  0
   21.7077   -6.2987  -15.4309 C   0  0  0  0  0  0  0  0  0  0  0  0
   20.9255   -5.7491  -14.2741 C   0  0  0  0  0  0  0  0  0  0  0  0
   21.7185   -5.4769  -13.0678 C   0  0  0  0  0  0  0  0  0  0  0  0
   22.9468   -5.1351  -13.1458 O   0  0  0  0  0  0  0  0  0  0  0  0
   20.1972   -5.3846  -17.1910 C   0  0  0  0  0  0  0  0  0  0  0  0
   18.9561   -5.0331  -16.7543 O   0  0  0  0  0  0  0  0  0  0  0  0
   21.2244   -5.5637  -11.7787 O   0  0  0  0  0  0  0  0  0  0  0  0
   20.7593   -4.6886  -18.0730 O   0  0  0  0  0  0  0  0  0  0  0  0
  2  1  1  1
  2 10  1  0
  3  2  1  0
  3  4  1  0
  4  9  2  0
  5  6  2  0
  5  4  1  0
  6  7  1  0
  7  8  2  0
  9  8  1  0
 10 12  1  0
 10 11  2  0
 12 13  1  0
 13 17  1  0
 13 14  1  6
 14 15  1  0
 15 19  1  0
 16 15  2  0
 17 18  2  0
 20 21  1  0
 20 17  1  0
 22 23  1  0
 21 22  1  1
 23 24  1  0
 24 25  2  0
 24 28  1  0
 26 21  1  0
 27 26  1  0
 29 26  2  0
M  END
$$$$
