VPE.pdb
     RDKit          3D

 24 24  0  0  1  0  0  0  0  0999 V2000
    6.7326  -13.9879   19.5848 C   0  0  0  0  0  0  0  0  0  0  0  0
    7.5066  -14.3447   20.8391 C   0  0  2  0  0  0  0  0  0  0  0  0
    6.6524  -15.2888   21.6641 C   0  0  0  0  0  0  0  0  0  0  0  0
    7.8314  -13.0608   21.5679 C   0  0  2  0  0  0  0  0  0  0  0  0
    8.5080  -12.1877   20.6425 N   0  0  0  0  0  0  0  0  0  0  0  0
    8.5382  -13.2606   22.8436 C   0  0  0  0  0  0  0  0  0  0  0  0
    9.8038  -13.3671   22.7981 O   0  0  0  0  0  0  0  0  0  0  0  0
    7.9064  -13.3401   24.0955 N   0  0  0  0  0  0  0  0  0  0  0  0
    6.4677  -13.1760   24.3033 C   0  0  0  0  0  0  0  0  0  0  0  0
    6.3879  -12.3921   25.6161 C   0  0  0  0  0  0  0  0  0  0  0  0
    7.4698  -13.0861   26.4168 C   0  0  0  0  0  0  0  0  0  0  0  0
    8.4791  -13.5851   25.3686 C   0  0  1  0  0  0  0  0  0  0  0  0
    8.6542  -15.0359   25.6678 C   0  0  0  0  0  0  0  0  0  0  0  0
    7.6848  -15.8007   25.4443 O   0  0  0  0  0  0  0  0  0  0  0  0
    9.8348  -15.5886   26.1828 N   0  0  0  0  0  0  0  0  0  0  0  0
   10.0710  -17.0139   26.3827 C   0  0  1  0  0  0  0  0  0  0  0  0
   11.4497  -17.3004   25.8208 C   0  0  0  0  0  0  0  0  0  0  0  0
   11.8021  -18.7641   25.9917 C   0  0  0  0  0  0  0  0  0  0  0  0
   13.1140  -19.0370   25.3741 C   0  0  0  0  0  0  0  0  0  0  0  0
   14.1083  -18.3114   25.6059 O   0  0  0  0  0  0  0  0  0  0  0  0
   10.0510  -17.3930   27.7937 C   0  0  0  0  0  0  0  0  0  0  0  0
    9.9762  -18.7208   28.1532 O   0  0  0  0  0  0  0  0  0  0  0  0
   13.2714  -20.1098   24.5193 O   0  0  0  0  0  0  0  0  0  0  0  0
   10.1014  -16.5219   28.6838 O   0  0  0  0  0  0  0  0  0  0  0  0
  2  1  1  6
  2  3  1  0
  4  2  1  0
  4  5  1  6
  6  8  1  0
  6  4  1  0
  7  6  2  0
  8 12  1  0
  9 10  1  0
  9  8  1  0
 10 11  1  0
 11 12  1  0
 12 13  1  1
 13 14  2  0
 15 13  1  0
 15 16  1  0
 16 21  1  0
 16 17  1  1
 18 17  1  0
 19 20  2  0
 19 18  1  0
 21 22  1  0
 23 19  1  0
 24 21  2  0
M  END
$$$$
