VPE.pdb
     RDKit          3D

 24 24  0  0  1  0  0  0  0  0999 V2000
    8.0196  -13.2722   27.0740 C   0  0  0  0  0  0  0  0  0  0  0  0
    7.0531  -12.7441   26.0316 C   0  0  2  0  0  0  0  0  0  0  0  0
    6.2030  -11.6694   26.6828 C   0  0  0  0  0  0  0  0  0  0  0  0
    6.2351  -13.9084   25.5215 C   0  0  2  0  0  0  0  0  0  0  0  0
    5.4881  -14.4424   26.6320 N   0  0  0  0  0  0  0  0  0  0  0  0
    7.0186  -14.9087   24.7782 C   0  0  0  0  0  0  0  0  0  0  0  0
    7.2136  -16.0314   25.3407 O   0  0  0  0  0  0  0  0  0  0  0  0
    7.5588  -14.7007   23.4985 N   0  0  0  0  0  0  0  0  0  0  0  0
    7.4239  -13.4568   22.7403 C   0  0  0  0  0  0  0  0  0  0  0  0
    7.2223  -13.9406   21.3016 C   0  0  0  0  0  0  0  0  0  0  0  0
    8.2264  -15.0729   21.2492 C   0  0  0  0  0  0  0  0  0  0  0  0
    8.3149  -15.5903   22.6951 C   0  0  1  0  0  0  0  0  0  0  0  0
    9.7719  -15.5812   23.0151 C   0  0  0  0  0  0  0  0  0  0  0  0
   10.3049  -14.4778   23.2851 O   0  0  0  0  0  0  0  0  0  0  0  0
   10.5739  -16.7307   23.0298 N   0  0  0  0  0  0  0  0  0  0  0  0
   11.9789  -16.7629   23.4198 C   0  0  1  0  0  0  0  0  0  0  0  0
   12.0084  -17.1984   24.8717 C   0  0  0  0  0  0  0  0  0  0  0  0
   11.2336  -18.4871   25.0582 C   0  0  0  0  0  0  0  0  0  0  0  0
   11.3921  -18.9686   26.4439 C   0  0  0  0  0  0  0  0  0  0  0  0
   12.1773  -19.9034   26.7245 O   0  0  0  0  0  0  0  0  0  0  0  0
   12.7586  -17.7124   22.6289 C   0  0  0  0  0  0  0  0  0  0  0  0
   12.1249  -18.5822   21.7687 O   0  0  0  0  0  0  0  0  0  0  0  0
   10.6693  -18.3908   27.4686 O   0  0  0  0  0  0  0  0  0  0  0  0
   14.0010  -17.7453   22.7240 O   0  0  0  0  0  0  0  0  0  0  0  0
  2  1  1  1
  2  3  1  0
  4  2  1  0
  4  5  1  1
  6  8  1  0
  6  4  1  0
  7  6  2  0
  8 12  1  0
  9 10  1  0
  9  8  1  0
 10 11  1  0
 11 12  1  0
 12 13  1  1
 13 14  2  0
 15 13  1  0
 15 16  1  0
 16 21  1  0
 16 17  1  1
 18 17  1  0
 19 20  2  0
 19 18  1  0
 21 22  1  0
 23 19  1  0
 24 21  2  0
M  END
$$$$
