VPE.pdb
     RDKit          3D

 24 24  0  0  1  0  0  0  0  0999 V2000
    7.3762  -11.6407   27.3595 C   0  0  0  0  0  0  0  0  0  0  0  0
    7.7365  -12.9610   26.7064 C   0  0  2  0  0  0  0  0  0  0  0  0
    9.0182  -12.7602   25.9199 C   0  0  0  0  0  0  0  0  0  0  0  0
    6.5752  -13.3828   25.8354 C   0  0  2  0  0  0  0  0  0  0  0  0
    5.4140  -13.5082   26.6794 N   0  0  0  0  0  0  0  0  0  0  0  0
    6.8519  -14.5642   25.0019 C   0  0  0  0  0  0  0  0  0  0  0  0
    6.4479  -15.6892   25.4333 O   0  0  0  0  0  0  0  0  0  0  0  0
    7.5284  -14.5251   23.7716 N   0  0  0  0  0  0  0  0  0  0  0  0
    8.2906  -13.3741   23.2876 C   0  0  0  0  0  0  0  0  0  0  0  0
    7.9761  -13.3473   21.7894 C   0  0  0  0  0  0  0  0  0  0  0  0
    8.0336  -14.8264   21.4700 C   0  0  0  0  0  0  0  0  0  0  0  0
    7.6262  -15.5293   22.7763 C   0  0  1  0  0  0  0  0  0  0  0  0
    8.7164  -16.5137   23.0361 C   0  0  0  0  0  0  0  0  0  0  0  0
    8.9974  -17.3296   22.1251 O   0  0  0  0  0  0  0  0  0  0  0  0
    9.4395  -16.5777   24.2351 N   0  0  0  0  0  0  0  0  0  0  0  0
   10.5093  -17.5288   24.5146 C   0  0  1  0  0  0  0  0  0  0  0  0
   11.6498  -17.1739   23.5808 C   0  0  0  0  0  0  0  0  0  0  0  0
   12.3850  -15.9461   24.0787 C   0  0  0  0  0  0  0  0  0  0  0  0
   13.7221  -15.8793   23.4585 C   0  0  0  0  0  0  0  0  0  0  0  0
   14.4184  -16.9077   23.2956 O   0  0  0  0  0  0  0  0  0  0  0  0
   10.9876  -17.4454   25.8927 C   0  0  0  0  0  0  0  0  0  0  0  0
   11.8604  -18.3927   26.3815 O   0  0  0  0  0  0  0  0  0  0  0  0
   14.2362  -14.6677   23.0414 O   0  0  0  0  0  0  0  0  0  0  0  0
   10.6122  -16.5196   26.6380 O   0  0  0  0  0  0  0  0  0  0  0  0
  2  1  1  6
  2  3  1  0
  4  2  1  0
  4  5  1  1
  6  8  1  0
  6  4  1  0
  7  6  2  0
  8 12  1  0
  9 10  1  0
  9  8  1  0
 10 11  1  0
 11 12  1  0
 12 13  1  1
 13 14  2  0
 15 13  1  0
 15 16  1  0
 16 21  1  0
 16 17  1  6
 18 17  1  0
 19 20  2  0
 19 18  1  0
 21 22  1  0
 23 19  1  0
 24 21  2  0
M  END
$$$$
