VPE.pdb
     RDKit          3D

 24 24  0  0  1  0  0  0  0  0999 V2000
    8.0799  -13.3275   27.0080 C   0  0  0  0  0  0  0  0  0  0  0  0
    6.9946  -12.8212   26.0778 C   0  0  2  0  0  0  0  0  0  0  0  0
    6.1146  -11.8653   26.8610 C   0  0  0  0  0  0  0  0  0  0  0  0
    6.2356  -14.0179   25.5515 C   0  0  2  0  0  0  0  0  0  0  0  0
    5.5502  -14.6284   26.6624 N   0  0  0  0  0  0  0  0  0  0  0  0
    7.0590  -14.9465   24.7600 C   0  0  0  0  0  0  0  0  0  0  0  0
    7.3368  -16.0705   25.2840 O   0  0  0  0  0  0  0  0  0  0  0  0
    7.5519  -14.6696   23.4743 N   0  0  0  0  0  0  0  0  0  0  0  0
    7.2966  -13.4275   22.7448 C   0  0  0  0  0  0  0  0  0  0  0  0
    7.1051  -13.8993   21.3008 C   0  0  0  0  0  0  0  0  0  0  0  0
    8.1993  -14.9417   21.2049 C   0  0  0  0  0  0  0  0  0  0  0  0
    8.3624  -15.4770   22.6378 C   0  0  1  0  0  0  0  0  0  0  0  0
    9.8201  -15.3511   22.9285 C   0  0  0  0  0  0  0  0  0  0  0  0
   10.2130  -14.3114   23.5107 O   0  0  0  0  0  0  0  0  0  0  0  0
   10.7697  -16.3244   22.5884 N   0  0  0  0  0  0  0  0  0  0  0  0
   11.8175  -16.8143   23.4769 C   0  0  1  0  0  0  0  0  0  0  0  0
   11.1120  -17.4260   24.6713 C   0  0  0  0  0  0  0  0  0  0  0  0
   12.1159  -17.8541   25.7224 C   0  0  0  0  0  0  0  0  0  0  0  0
   11.4070  -18.3825   26.9036 C   0  0  0  0  0  0  0  0  0  0  0  0
   10.9821  -19.5603   26.9372 O   0  0  0  0  0  0  0  0  0  0  0  0
   12.6514  -17.8371   22.8497 C   0  0  0  0  0  0  0  0  0  0  0  0
   12.0793  -18.8047   22.0532 O   0  0  0  0  0  0  0  0  0  0  0  0
   11.1967  -17.5788   28.0065 O   0  0  0  0  0  0  0  0  0  0  0  0
   13.8850  -17.8448   23.0281 O   0  0  0  0  0  0  0  0  0  0  0  0
  2  1  1  1
  2  3  1  0
  4  2  1  0
  4  5  1  1
  6  8  1  0
  6  4  1  0
  7  6  2  0
  8 12  1  0
  9 10  1  0
  9  8  1  0
 10 11  1  0
 11 12  1  0
 12 13  1  1
 13 14  2  0
 15 13  1  0
 15 16  1  0
 16 21  1  0
 16 17  1  1
 18 17  1  0
 19 20  2  0
 19 18  1  0
 21 22  1  0
 23 19  1  0
 24 21  2  0
M  END
$$$$
