VPE.pdb
     RDKit          3D

 24 24  0  0  1  0  0  0  0  0999 V2000
    7.5459  -17.4825   21.8798 C   0  0  0  0  0  0  0  0  0  0  0  0
    6.4387  -16.6668   21.2407 C   0  0  2  0  0  0  0  0  0  0  0  0
    5.1118  -17.2851   21.6386 C   0  0  0  0  0  0  0  0  0  0  0  0
    6.6609  -16.6695   19.7455 C   0  0  2  0  0  0  0  0  0  0  0  0
    6.3566  -17.9906   19.2571 N   0  0  0  0  0  0  0  0  0  0  0  0
    7.9795  -16.1585   19.3366 C   0  0  0  0  0  0  0  0  0  0  0  0
    8.8218  -17.0036   18.8991 O   0  0  0  0  0  0  0  0  0  0  0  0
    8.3604  -14.8081   19.3998 N   0  0  0  0  0  0  0  0  0  0  0  0
    7.4742  -13.7216   19.8176 C   0  0  0  0  0  0  0  0  0  0  0  0
    7.8520  -12.5758   18.8748 C   0  0  0  0  0  0  0  0  0  0  0  0
    9.3590  -12.7230   18.8536 C   0  0  0  0  0  0  0  0  0  0  0  0
    9.6137  -14.2206   19.0954 C   0  0  1  0  0  0  0  0  0  0  0  0
   10.5782  -14.2649   20.2325 C   0  0  0  0  0  0  0  0  0  0  0  0
   10.1153  -14.1845   21.3960 O   0  0  0  0  0  0  0  0  0  0  0  0
   11.9653  -14.3899   20.0737 N   0  0  0  0  0  0  0  0  0  0  0  0
   12.8952  -14.7709   21.1306 C   0  0  1  0  0  0  0  0  0  0  0  0
   12.5030  -16.1714   21.5589 C   0  0  0  0  0  0  0  0  0  0  0  0
   13.4357  -16.6800   22.6393 C   0  0  0  0  0  0  0  0  0  0  0  0
   13.0772  -18.0660   22.9962 C   0  0  0  0  0  0  0  0  0  0  0  0
   11.9320  -18.5221   22.7737 O   0  0  0  0  0  0  0  0  0  0  0  0
   14.2836  -14.7906   20.6756 C   0  0  0  0  0  0  0  0  0  0  0  0
   15.3126  -14.7995   21.5916 O   0  0  0  0  0  0  0  0  0  0  0  0
   14.0084  -18.8953   23.5891 O   0  0  0  0  0  0  0  0  0  0  0  0
   14.5505  -14.7996   19.4581 O   0  0  0  0  0  0  0  0  0  0  0  0
  2  1  1  1
  2  3  1  0
  4  2  1  0
  4  5  1  1
  6  8  1  0
  6  4  1  0
  7  6  2  0
  8 12  1  0
  9 10  1  0
  9  8  1  0
 10 11  1  0
 11 12  1  0
 12 13  1  1
 13 14  2  0
 15 13  1  0
 15 16  1  0
 16 21  1  0
 16 17  1  6
 18 17  1  0
 19 20  2  0
 19 18  1  0
 21 22  1  0
 23 19  1  0
 24 21  2  0
M  END
$$$$
