VPE.pdb
     RDKit          3D

 24 24  0  0  1  0  0  0  0  0999 V2000
    5.8656  -11.7322   26.8729 C   0  0  0  0  0  0  0  0  0  0  0  0
    6.8806  -12.7257   26.3414 C   0  0  2  0  0  0  0  0  0  0  0  0
    7.8652  -11.9687   25.4702 C   0  0  0  0  0  0  0  0  0  0  0  0
    6.1314  -13.7973   25.5830 C   0  0  2  0  0  0  0  0  0  0  0  0
    5.1521  -14.3654   26.4745 N   0  0  0  0  0  0  0  0  0  0  0  0
    7.0035  -14.7858   24.9278 C   0  0  0  0  0  0  0  0  0  0  0  0
    7.2722  -15.8458   25.5754 O   0  0  0  0  0  0  0  0  0  0  0  0
    7.5517  -14.6312   23.6439 N   0  0  0  0  0  0  0  0  0  0  0  0
    7.4045  -13.4275   22.8256 C   0  0  0  0  0  0  0  0  0  0  0  0
    7.2230  -13.9831   21.4103 C   0  0  0  0  0  0  0  0  0  0  0  0
    8.2449  -15.1006   21.4207 C   0  0  0  0  0  0  0  0  0  0  0  0
    8.3286  -15.5464   22.8906 C   0  0  1  0  0  0  0  0  0  0  0  0
    9.7823  -15.4990   23.2216 C   0  0  0  0  0  0  0  0  0  0  0  0
   10.2257  -14.4572   23.7625 O   0  0  0  0  0  0  0  0  0  0  0  0
   10.6754  -16.5477   22.9623 N   0  0  0  0  0  0  0  0  0  0  0  0
   11.9832  -16.7041   23.5887 C   0  0  1  0  0  0  0  0  0  0  0  0
   11.7255  -16.9028   25.0695 C   0  0  0  0  0  0  0  0  0  0  0  0
   10.8335  -18.1058   25.2994 C   0  0  0  0  0  0  0  0  0  0  0  0
   10.9701  -18.5693   26.6935 C   0  0  0  0  0  0  0  0  0  0  0  0
   11.8106  -18.0613   27.4710 O   0  0  0  0  0  0  0  0  0  0  0  0
   12.7137  -17.8628   23.0797 C   0  0  0  0  0  0  0  0  0  0  0  0
   12.0779  -18.7844   22.2769 O   0  0  0  0  0  0  0  0  0  0  0  0
   10.1646  -19.5834   27.1720 O   0  0  0  0  0  0  0  0  0  0  0  0
   13.9155  -18.0288   23.3656 O   0  0  0  0  0  0  0  0  0  0  0  0
  2  1  1  6
  2  3  1  0
  4  2  1  0
  4  5  1  1
  6  8  1  0
  6  4  1  0
  7  6  2  0
  8 12  1  0
  9 10  1  0
  9  8  1  0
 10 11  1  0
 11 12  1  0
 12 13  1  1
 13 14  2  0
 15 13  1  0
 15 16  1  0
 16 21  1  0
 16 17  1  1
 18 17  1  0
 19 20  2  0
 19 18  1  0
 21 22  1  0
 23 19  1  0
 24 21  2  0
M  END
$$$$
