PMQ.pdb
     RDKit          3D

 25 25  0  0  1  0  0  0  0  0999 V2000
    7.1575  -14.8520   20.4397 N   0  0  0  0  0  0  0  0  0  0  0  0
    6.8676  -14.6469   19.0121 C   0  0  0  0  0  0  0  0  0  0  0  0
    7.4988  -13.3017   18.6976 C   0  0  0  0  0  0  0  0  0  0  0  0
    8.3837  -12.9850   19.9114 C   0  0  0  0  0  0  0  0  0  0  0  0
    8.5228  -14.3778   20.5060 C   0  0  1  0  0  0  0  0  0  0  0  0
    9.0690  -14.3754   21.8662 C   0  0  0  0  0  0  0  0  0  0  0  0
   10.3151  -14.3520   22.0246 O   0  0  0  0  0  0  0  0  0  0  0  0
    5.2109  -11.6646   26.1321 C   0  0  0  0  0  0  0  0  0  0  0  0
    6.8455  -11.6250   26.8680 S   0  0  0  0  0  0  0  0  0  0  0  0
    7.8300  -13.0781   26.4350 C   0  0  0  0  0  0  0  0  0  0  0  0
    7.8101  -13.2874   24.9785 C   0  0  0  0  0  0  0  0  0  0  0  0
    8.7182  -14.3237   24.3868 C   0  0  2  0  0  0  0  0  0  0  0  0
    8.2254  -14.3985   22.9751 N   0  0  0  0  0  0  0  0  0  0  0  0
    8.6138  -15.6842   24.9539 C   0  0  0  0  0  0  0  0  0  0  0  0
    7.6847  -16.4470   24.5474 O   0  0  0  0  0  0  0  0  0  0  0  0
   11.4134  -20.0337   22.4534 N   0  0  0  0  0  0  0  0  0  0  0  0
   12.1401  -19.1362   23.2680 C   0  0  0  0  0  0  0  0  0  0  0  0
   13.2416  -18.6295   22.9012 O   0  0  0  0  0  0  0  0  0  0  0  0
   11.6150  -18.7528   24.5974 C   0  0  0  0  0  0  0  0  0  0  0  0
   10.3038  -18.0660   24.5979 C   0  0  0  0  0  0  0  0  0  0  0  0
    9.7863  -17.6920   25.9451 C   0  0  2  0  0  0  0  0  0  0  0  0
    9.4836  -16.2380   25.9278 N   0  0  0  0  0  0  0  0  0  0  0  0
   10.6530  -18.0248   27.0335 C   0  0  0  0  0  0  0  0  0  0  0  0
   10.7383  -19.3303   27.5491 O   0  0  0  0  0  0  0  0  0  0  0  0
   11.3794  -17.1772   27.6001 O   0  0  0  0  0  0  0  0  0  0  0  0
  1  5  1  0
  1  2  1  0
  2  3  1  0
  4  5  1  0
  4  3  1  0
  5  6  1  1
  6 13  1  0
  6  7  2  0
  8  9  1  0
  9 10  1  0
 11 10  1  0
 12 11  1  1
 12 14  1  0
 13 12  1  0
 14 15  2  0
 16 17  1  0
 17 19  1  0
 17 18  2  0
 19 20  1  0
 21 20  1  6
 22 21  1  0
 22 14  1  0
 23 24  1  0
 23 21  1  0
 25 23  2  0
M  END
$$$$
