PMQ.pdb
     RDKit          3D

 25 25  0  0  1  0  0  0  0  0999 V2000
    7.1459  -15.0125   20.1068 N   0  0  0  0  0  0  0  0  0  0  0  0
    6.9531  -14.8605   18.6563 C   0  0  0  0  0  0  0  0  0  0  0  0
    7.4423  -13.4523   18.3652 C   0  0  0  0  0  0  0  0  0  0  0  0
    8.1789  -13.0167   19.6397 C   0  0  0  0  0  0  0  0  0  0  0  0
    8.4342  -14.3754   20.2733 C   0  0  1  0  0  0  0  0  0  0  0  0
    8.8613  -14.2911   21.6730 C   0  0  0  0  0  0  0  0  0  0  0  0
    9.9894  -13.8067   21.9398 O   0  0  0  0  0  0  0  0  0  0  0  0
    6.1234  -11.1482   26.5175 C   0  0  0  0  0  0  0  0  0  0  0  0
    7.3991  -12.3999   26.6616 S   0  0  0  0  0  0  0  0  0  0  0  0
    6.8182  -14.0354   26.1555 C   0  0  0  0  0  0  0  0  0  0  0  0
    6.9722  -14.1996   24.7012 C   0  0  0  0  0  0  0  0  0  0  0  0
    8.3302  -14.5198   24.1518 C   0  0  2  0  0  0  0  0  0  0  0  0
    8.0342  -14.7395   22.7009 N   0  0  0  0  0  0  0  0  0  0  0  0
    8.9640  -15.7558   24.6558 C   0  0  0  0  0  0  0  0  0  0  0  0
    8.3302  -16.8511   24.5609 O   0  0  0  0  0  0  0  0  0  0  0  0
   15.1022  -17.4594   24.2822 N   0  0  0  0  0  0  0  0  0  0  0  0
   14.2286  -16.3778   24.0292 C   0  0  0  0  0  0  0  0  0  0  0  0
   14.6490  -15.2374   23.6723 O   0  0  0  0  0  0  0  0  0  0  0  0
   12.7667  -16.5586   24.1720 C   0  0  0  0  0  0  0  0  0  0  0  0
   12.3063  -17.0676   25.4834 C   0  0  0  0  0  0  0  0  0  0  0  0
   10.8265  -17.1480   25.6464 C   0  0  2  0  0  0  0  0  0  0  0  0
   10.2531  -15.8390   25.2415 N   0  0  0  0  0  0  0  0  0  0  0  0
   10.3874  -17.5196   26.9563 C   0  0  0  0  0  0  0  0  0  0  0  0
   10.6238  -18.7994   27.4891 O   0  0  0  0  0  0  0  0  0  0  0  0
    9.7588  -16.7366   27.7038 O   0  0  0  0  0  0  0  0  0  0  0  0
  1  5  1  0
  1  2  1  0
  2  3  1  0
  4  5  1  0
  4  3  1  0
  5  6  1  1
  6 13  1  0
  6  7  2  0
  8  9  1  0
  9 10  1  0
 11 10  1  0
 12 11  1  1
 12 14  1  0
 13 12  1  0
 14 15  2  0
 16 17  1  0
 17 19  1  0
 17 18  2  0
 19 20  1  0
 21 20  1  1
 22 21  1  0
 22 14  1  0
 23 24  1  0
 23 21  1  0
 25 23  2  0
M  END
$$$$
