PMQ.pdb
     RDKit          3D

 25 25  0  0  1  0  0  0  0  0999 V2000
    7.3962  -14.9255   20.0243 N   0  0  0  0  0  0  0  0  0  0  0  0
    7.2822  -14.6102   18.5919 C   0  0  0  0  0  0  0  0  0  0  0  0
    7.5986  -13.1266   18.5150 C   0  0  0  0  0  0  0  0  0  0  0  0
    8.1841  -12.7739   19.8896 C   0  0  0  0  0  0  0  0  0  0  0  0
    8.5746  -14.1620   20.3731 C   0  0  1  0  0  0  0  0  0  0  0  0
    8.8923  -14.2094   21.8032 C   0  0  0  0  0  0  0  0  0  0  0  0
   10.0852  -14.0639   22.1697 O   0  0  0  0  0  0  0  0  0  0  0  0
    6.8375  -10.8438   26.8991 C   0  0  0  0  0  0  0  0  0  0  0  0
    5.7320  -12.2342   26.6547 S   0  0  0  0  0  0  0  0  0  0  0  0
    6.6146  -13.7400   26.1835 C   0  0  0  0  0  0  0  0  0  0  0  0
    6.8711  -13.7439   24.7344 C   0  0  0  0  0  0  0  0  0  0  0  0
    8.1350  -14.3721   24.2279 C   0  0  2  0  0  0  0  0  0  0  0  0
    7.8915  -14.4124   22.7513 N   0  0  0  0  0  0  0  0  0  0  0  0
    8.3936  -15.7609   24.6615 C   0  0  0  0  0  0  0  0  0  0  0  0
    7.8961  -16.7148   23.9885 O   0  0  0  0  0  0  0  0  0  0  0  0
   13.2217  -18.7919   22.2815 N   0  0  0  0  0  0  0  0  0  0  0  0
   13.0633  -17.8352   23.3095 C   0  0  0  0  0  0  0  0  0  0  0  0
   13.7195  -16.7519   23.3328 O   0  0  0  0  0  0  0  0  0  0  0  0
   12.0990  -18.0794   24.4052 C   0  0  0  0  0  0  0  0  0  0  0  0
   11.0652  -17.0376   24.5968 C   0  0  0  0  0  0  0  0  0  0  0  0
   10.1075  -17.2943   25.7102 C   0  0  2  0  0  0  0  0  0  0  0  0
    9.1753  -16.1402   25.7826 N   0  0  0  0  0  0  0  0  0  0  0  0
   10.7177  -17.5439   26.9798 C   0  0  0  0  0  0  0  0  0  0  0  0
   10.4771  -16.7264   28.0986 O   0  0  0  0  0  0  0  0  0  0  0  0
   11.5087  -18.4948   27.1722 O   0  0  0  0  0  0  0  0  0  0  0  0
  1  5  1  0
  1  2  1  0
  2  3  1  0
  4  5  1  0
  4  3  1  0
  5  6  1  1
  6 13  1  0
  6  7  2  0
  8  9  1  0
  9 10  1  0
 11 10  1  0
 12 11  1  1
 12 14  1  0
 13 12  1  0
 14 15  2  0
 16 17  1  0
 17 19  1  0
 17 18  2  0
 19 20  1  0
 21 20  1  6
 22 21  1  0
 22 14  1  0
 23 24  1  0
 23 21  1  0
 25 23  2  0
M  END
$$$$
