PMQ.pdb
     RDKit          3D

 25 25  0  0  1  0  0  0  0  0999 V2000
    6.9320  -15.1789   20.6532 N   0  0  0  0  0  0  0  0  0  0  0  0
    6.4905  -15.0949   19.2525 C   0  0  0  0  0  0  0  0  0  0  0  0
    7.0184  -13.7514   18.7798 C   0  0  0  0  0  0  0  0  0  0  0  0
    8.0034  -13.3063   19.8698 C   0  0  0  0  0  0  0  0  0  0  0  0
    8.2715  -14.6430   20.5438 C   0  0  1  0  0  0  0  0  0  0  0  0
    8.9506  -14.5144   21.8364 C   0  0  0  0  0  0  0  0  0  0  0  0
   10.1677  -14.2036   21.8594 O   0  0  0  0  0  0  0  0  0  0  0  0
    5.4097  -11.8365   26.9128 C   0  0  0  0  0  0  0  0  0  0  0  0
    7.1959  -11.9637   27.0031 S   0  0  0  0  0  0  0  0  0  0  0  0
    7.7925  -13.6069   26.5427 C   0  0  0  0  0  0  0  0  0  0  0  0
    7.7165  -13.7825   25.0835 C   0  0  0  0  0  0  0  0  0  0  0  0
    8.8522  -14.4631   24.3794 C   0  0  2  0  0  0  0  0  0  0  0  0
    8.2638  -14.7318   23.0293 N   0  0  0  0  0  0  0  0  0  0  0  0
    9.2773  -15.7656   24.9328 C   0  0  0  0  0  0  0  0  0  0  0  0
    8.4615  -16.7373   24.9067 O   0  0  0  0  0  0  0  0  0  0  0  0
   14.7313  -16.2627   24.7854 N   0  0  0  0  0  0  0  0  0  0  0  0
   13.8674  -16.6852   23.7498 C   0  0  0  0  0  0  0  0  0  0  0  0
   14.0900  -16.4186   22.5316 O   0  0  0  0  0  0  0  0  0  0  0  0
   12.6572  -17.4739   24.0717 C   0  0  0  0  0  0  0  0  0  0  0  0
   12.3559  -17.6311   25.5123 C   0  0  0  0  0  0  0  0  0  0  0  0
   10.9270  -17.4267   25.8855 C   0  0  2  0  0  0  0  0  0  0  0  0
   10.5490  -16.0442   25.4958 N   0  0  0  0  0  0  0  0  0  0  0  0
   10.6259  -17.6743   27.2620 C   0  0  0  0  0  0  0  0  0  0  0  0
   10.8273  -18.9326   27.8568 O   0  0  0  0  0  0  0  0  0  0  0  0
   10.1567  -16.7941   28.0182 O   0  0  0  0  0  0  0  0  0  0  0  0
  1  5  1  0
  1  2  1  0
  2  3  1  0
  4  5  1  0
  4  3  1  0
  5  6  1  1
  6 13  1  0
  6  7  2  0
  8  9  1  0
  9 10  1  0
 11 10  1  0
 12 11  1  1
 12 14  1  0
 13 12  1  0
 14 15  2  0
 16 17  1  0
 17 19  1  0
 17 18  2  0
 19 20  1  0
 21 20  1  1
 22 21  1  0
 22 14  1  0
 23 24  1  0
 23 21  1  0
 25 23  2  0
M  END
$$$$
