PMN.pdb
     RDKit          3D

 24 24  0  0  1  0  0  0  0  0999 V2000
   26.3970  -19.1605  -14.4921 N   0  0  0  0  0  0  0  0  0  0  0  0
   27.4573  -18.1866  -14.6025 C   0  0  0  0  0  0  0  0  0  0  0  0
   28.7483  -18.9263  -14.8548 C   0  0  0  0  0  0  0  0  0  0  0  0
   28.3214  -20.3372  -15.2245 C   0  0  0  0  0  0  0  0  0  0  0  0
   26.9773  -20.4611  -14.5392 C   0  0  1  0  0  0  0  0  0  0  0  0
   27.1895  -21.0397  -13.1795 C   0  0  0  0  0  0  0  0  0  0  0  0
   27.6472  -22.1978  -13.1246 O   0  0  0  0  0  0  0  0  0  0  0  0
   28.2411  -19.6637   -6.8537 C   0  0  0  0  0  0  0  0  0  0  0  0
   26.4462  -19.7242   -6.8593 S   0  0  0  0  0  0  0  0  0  0  0  0
   25.8485  -20.6245   -8.3547 C   0  0  0  0  0  0  0  0  0  0  0  0
   26.5504  -20.0300   -9.5509 C   0  0  0  0  0  0  0  0  0  0  0  0
   26.1855  -20.7342  -10.8469 C   0  0  2  0  0  0  0  0  0  0  0  0
   26.8940  -20.3320  -12.0022 N   0  0  0  0  0  0  0  0  0  0  0  0
   24.7532  -20.9331  -11.0445 C   0  0  0  0  0  0  0  0  0  0  0  0
   24.0464  -21.4722  -10.1309 O   0  0  0  0  0  0  0  0  0  0  0  0
   19.7681  -20.1754  -11.4275 N   0  0  0  0  0  0  0  0  0  0  0  0
   20.5068  -19.4132  -12.3591 C   0  0  0  0  0  0  0  0  0  0  0  0
   19.9099  -18.7962  -13.2975 O   0  0  0  0  0  0  0  0  0  0  0  0
   21.9908  -19.3408  -12.2229 C   0  0  0  0  0  0  0  0  0  0  0  0
   22.5990  -20.7390  -12.3171 C   0  0  2  0  0  0  0  0  0  0  0  0
   24.0488  -20.5527  -12.2374 N   0  0  0  0  0  0  0  0  0  0  0  0
   22.2148  -21.3291  -13.6156 C   0  0  0  0  0  0  0  0  0  0  0  0
   20.9752  -21.9129  -13.8375 O   0  0  0  0  0  0  0  0  0  0  0  0
   23.0217  -21.3191  -14.5842 O   0  0  0  0  0  0  0  0  0  0  0  0
  1  5  1  0
  1  2  1  0
  2  3  1  0
  4  3  1  0
  5  4  1  0
  5  6  1  1
  7  6  2  0
  8  9  1  0
  9 10  1  0
 11 10  1  0
 12 11  1  1
 12 13  1  0
 13  6  1  0
 14 12  1  0
 14 15  2  0
 17 16  1  0
 17 19  1  0
 18 17  2  0
 20 19  1  6
 20 21  1  0
 21 14  1  0
 22 20  1  0
 23 22  1  0
 24 22  2  0
M  END
$$$$
