PMN.pdb
     RDKit          3D

 24 24  0  0  1  0  0  0  0  0999 V2000
   27.2650  -19.4154  -14.9143 N   0  0  0  0  0  0  0  0  0  0  0  0
   28.4737  -19.2109  -14.1515 C   0  0  0  0  0  0  0  0  0  0  0  0
   29.1059  -20.5589  -13.9053 C   0  0  0  0  0  0  0  0  0  0  0  0
   28.3869  -21.5038  -14.8538 C   0  0  0  0  0  0  0  0  0  0  0  0
   27.0513  -20.8179  -15.0469 C   0  0  1  0  0  0  0  0  0  0  0  0
   26.0949  -21.3469  -14.0300 C   0  0  0  0  0  0  0  0  0  0  0  0
   25.7302  -22.5317  -14.1614 O   0  0  0  0  0  0  0  0  0  0  0  0
   26.4575  -19.0870   -8.0436 C   0  0  0  0  0  0  0  0  0  0  0  0
   26.2703  -20.8613   -8.2496 S   0  0  0  0  0  0  0  0  0  0  0  0
   26.0960  -21.2752  -10.0391 C   0  0  0  0  0  0  0  0  0  0  0  0
   24.9210  -20.4925  -10.5718 C   0  0  0  0  0  0  0  0  0  0  0  0
   24.6017  -20.8367  -12.0169 C   0  0  2  0  0  0  0  0  0  0  0  0
   25.6135  -20.5654  -12.9663 N   0  0  0  0  0  0  0  0  0  0  0  0
   23.2519  -20.4777  -12.4400 C   0  0  0  0  0  0  0  0  0  0  0  0
   22.8913  -19.2555  -12.4717 O   0  0  0  0  0  0  0  0  0  0  0  0
   21.6928  -21.9716  -16.6546 N   0  0  0  0  0  0  0  0  0  0  0  0
   21.1972  -21.1258  -15.6380 C   0  0  0  0  0  0  0  0  0  0  0  0
   21.3244  -19.8642  -15.7368 O   0  0  0  0  0  0  0  0  0  0  0  0
   20.5221  -21.7330  -14.4541 C   0  0  0  0  0  0  0  0  0  0  0  0
   20.9078  -20.9802  -13.1820 C   0  0  2  0  0  0  0  0  0  0  0  0
   22.2571  -21.4337  -12.8401 N   0  0  0  0  0  0  0  0  0  0  0  0
   19.9471  -21.3374  -12.1184 C   0  0  0  0  0  0  0  0  0  0  0  0
   18.8748  -20.5269  -11.7721 O   0  0  0  0  0  0  0  0  0  0  0  0
   20.0764  -22.4159  -11.4783 O   0  0  0  0  0  0  0  0  0  0  0  0
  1  5  1  0
  1  2  1  0
  2  3  1  0
  4  3  1  0
  5  4  1  0
  5  6  1  1
  7  6  2  0
  8  9  1  0
  9 10  1  0
 11 10  1  0
 12 11  1  1
 12 13  1  0
 13  6  1  0
 14 12  1  0
 14 15  2  0
 17 16  1  0
 17 19  1  0
 18 17  2  0
 20 19  1  6
 20 21  1  0
 21 14  1  0
 22 20  1  0
 23 22  1  0
 24 22  2  0
M  END
$$$$
