PMN.pdb
     RDKit          3D

 24 24  0  0  1  0  0  0  0  0999 V2000
   22.2759  -12.5930  -19.1001 N   0  0  0  0  0  0  0  0  0  0  0  0
   22.8737  -13.8815  -18.8406 C   0  0  0  0  0  0  0  0  0  0  0  0
   22.1234  -14.5249  -17.7004 C   0  0  0  0  0  0  0  0  0  0  0  0
   20.8586  -13.6956  -17.5510 C   0  0  0  0  0  0  0  0  0  0  0  0
   21.2816  -12.3531  -18.1080 C   0  0  1  0  0  0  0  0  0  0  0  0
   21.7896  -11.5118  -16.9843 C   0  0  0  0  0  0  0  0  0  0  0  0
   21.1968  -11.6116  -15.8924 O   0  0  0  0  0  0  0  0  0  0  0  0
   27.8740  -12.7470  -15.2345 C   0  0  0  0  0  0  0  0  0  0  0  0
   27.2263  -11.0985  -15.5319 S   0  0  0  0  0  0  0  0  0  0  0  0
   25.3973  -11.1700  -15.7633 C   0  0  0  0  0  0  0  0  0  0  0  0
   24.9136   -9.7572  -15.9805 C   0  0  0  0  0  0  0  0  0  0  0  0
   23.4159   -9.6883  -16.2278 C   0  0  2  0  0  0  0  0  0  0  0  0
   22.8825  -10.6403  -17.1265 N   0  0  0  0  0  0  0  0  0  0  0  0
   22.8905   -8.3358  -16.3843 C   0  0  0  0  0  0  0  0  0  0  0  0
   23.0052   -7.7259  -17.4977 O   0  0  0  0  0  0  0  0  0  0  0  0
   20.3102   -3.9710  -16.0591 N   0  0  0  0  0  0  0  0  0  0  0  0
   19.5758   -4.9955  -15.4224 C   0  0  0  0  0  0  0  0  0  0  0  0
   18.3890   -4.7771  -15.0207 O   0  0  0  0  0  0  0  0  0  0  0  0
   20.2103   -6.3325  -15.2328 C   0  0  0  0  0  0  0  0  0  0  0  0
   21.6900   -6.2733  -15.6079 C   0  0  2  0  0  0  0  0  0  0  0  0
   22.2266   -7.6085  -15.3384 N   0  0  0  0  0  0  0  0  0  0  0  0
   22.3473   -5.2604  -14.7572 C   0  0  0  0  0  0  0  0  0  0  0  0
   22.3624   -3.9091  -15.0742 O   0  0  0  0  0  0  0  0  0  0  0  0
   22.9282   -5.6022  -13.6917 O   0  0  0  0  0  0  0  0  0  0  0  0
  1  5  1  0
  1  2  1  0
  2  3  1  0
  4  3  1  0
  5  4  1  0
  5  6  1  1
  7  6  2  0
  8  9  1  0
  9 10  1  0
 11 10  1  0
 12 11  1  6
 12 13  1  0
 13  6  1  0
 14 12  1  0
 14 15  2  0
 17 16  1  0
 17 19  1  0
 18 17  2  0
 20 19  1  1
 20 21  1  0
 21 14  1  0
 22 20  1  0
 23 22  1  0
 24 22  2  0
M  END
$$$$
