PMN.pdb
     RDKit          3D

 24 24  0  0  1  0  0  0  0  0999 V2000
   29.3706   -8.4324  -18.5591 N   0  0  0  0  0  0  0  0  0  0  0  0
   30.5774   -9.1271  -18.1773 C   0  0  0  0  0  0  0  0  0  0  0  0
   30.6986  -10.3621  -19.0359 C   0  0  0  0  0  0  0  0  0  0  0  0
   29.6906  -10.1574  -20.1548 C   0  0  0  0  0  0  0  0  0  0  0  0
   28.6789   -9.2299  -19.5162 C   0  0  1  0  0  0  0  0  0  0  0  0
   27.6018  -10.0571  -18.8965 C   0  0  0  0  0  0  0  0  0  0  0  0
   26.9951  -10.8467  -19.6463 O   0  0  0  0  0  0  0  0  0  0  0  0
   26.2259  -14.5936  -14.7842 C   0  0  0  0  0  0  0  0  0  0  0  0
   27.8429  -13.8128  -14.8167 S   0  0  0  0  0  0  0  0  0  0  0  0
   27.8452  -12.4130  -16.0185 C   0  0  0  0  0  0  0  0  0  0  0  0
   26.7189  -11.4853  -15.6340 C   0  0  0  0  0  0  0  0  0  0  0  0
   26.2565  -10.6216  -16.7955 C   0  0  2  0  0  0  0  0  0  0  0  0
   27.2686   -9.9672  -17.5345 N   0  0  0  0  0  0  0  0  0  0  0  0
   25.0801   -9.8059  -16.5117 C   0  0  0  0  0  0  0  0  0  0  0  0
   25.2124   -8.6192  -16.0655 O   0  0  0  0  0  0  0  0  0  0  0  0
   20.6666   -7.6590  -15.5870 N   0  0  0  0  0  0  0  0  0  0  0  0
   21.7483   -7.8264  -14.6945 C   0  0  0  0  0  0  0  0  0  0  0  0
   21.7548   -7.2204  -13.5764 O   0  0  0  0  0  0  0  0  0  0  0  0
   22.8756   -8.7240  -15.0812 C   0  0  0  0  0  0  0  0  0  0  0  0
   22.6153   -9.3374  -16.4559 C   0  0  2  0  0  0  0  0  0  0  0  0
   23.7290  -10.2545  -16.7041 N   0  0  0  0  0  0  0  0  0  0  0  0
   22.5954   -8.2507  -17.4560 C   0  0  0  0  0  0  0  0  0  0  0  0
   21.4241   -7.6284  -17.8655 O   0  0  0  0  0  0  0  0  0  0  0  0
   23.6685   -7.8464  -17.9799 O   0  0  0  0  0  0  0  0  0  0  0  0
  1  5  1  0
  1  2  1  0
  2  3  1  0
  4  3  1  0
  5  4  1  0
  5  6  1  1
  7  6  2  0
  8  9  1  0
  9 10  1  0
 11 10  1  0
 12 11  1  1
 12 13  1  0
 13  6  1  0
 14 12  1  0
 14 15  2  0
 17 16  1  0
 17 19  1  0
 18 17  2  0
 20 19  1  1
 20 21  1  0
 21 14  1  0
 22 20  1  0
 23 22  1  0
 24 22  2  0
M  END
$$$$
