ISF.pdb
     RDKit          3D

 26 26  0  0  1  0  0  0  0  0999 V2000
   15.6778  -12.1860  -17.6975 C   0  0  0  0  0  0  0  0  0  0  0  0
   16.4618  -11.5860  -18.8384 C   0  0  0  0  0  0  0  0  0  0  0  0
   17.5271  -10.6428  -18.3820 C   0  0  2  0  0  0  0  0  0  0  0  0
   16.9111   -9.5987  -17.4985 C   0  0  0  0  0  0  0  0  0  0  0  0
   18.3034  -10.0403  -19.5320 C   0  0  2  0  0  0  0  0  0  0  0  0
   18.8754  -11.1592  -20.2906 N   0  0  0  0  0  0  0  0  0  0  0  0
   19.3532   -9.1174  -19.0782 C   0  0  0  0  0  0  0  0  0  0  0  0
   20.3691   -9.5949  -18.4944 O   0  0  0  0  0  0  0  0  0  0  0  0
   19.1743   -4.8114  -19.1160 O   0  0  0  0  0  0  0  0  0  0  0  0
   20.3124   -5.5209  -19.4138 C   0  0  0  0  0  0  0  0  0  0  0  0
   20.3516   -6.8836  -18.7589 C   0  0  2  0  0  0  0  0  0  0  0  0
   19.2970   -7.7093  -19.2564 N   0  0  0  0  0  0  0  0  0  0  0  0
   20.3358   -6.7678  -17.2756 C   0  0  0  0  0  0  0  0  0  0  0  0
   19.2225   -6.6319  -16.7073 O   0  0  0  0  0  0  0  0  0  0  0  0
   21.4986   -6.8027  -16.4839 N   0  0  0  0  0  0  0  0  0  0  0  0
   21.5317   -6.5194  -15.0568 C   0  0  1  0  0  0  0  0  0  0  0  0
   21.7990   -7.7875  -14.3121 C   0  0  0  0  0  0  0  0  0  0  0  0
   22.9123   -8.6021  -14.8234 C   0  0  0  0  0  0  0  0  0  0  0  0
   24.2241   -8.1937  -14.7260 C   0  0  0  0  0  0  0  0  0  0  0  0
   25.2566   -8.9723  -15.1936 C   0  0  0  0  0  0  0  0  0  0  0  0
   25.0251  -10.1976  -15.7814 C   0  0  0  0  0  0  0  0  0  0  0  0
   23.7070  -10.5857  -15.8682 C   0  0  0  0  0  0  0  0  0  0  0  0
   22.6558   -9.8235  -15.4072 C   0  0  0  0  0  0  0  0  0  0  0  0
   22.5268   -5.5024  -14.7136 C   0  0  0  0  0  0  0  0  0  0  0  0
   23.4031   -4.9322  -15.6271 O   0  0  0  0  0  0  0  0  0  0  0  0
   22.6163   -5.1027  -13.5321 O   0  0  0  0  0  0  0  0  0  0  0  0
  1  2  1  0
  2  3  1  0
  3  5  1  0
  3  4  1  6
  5  7  1  0
  5  6  1  1
  7  8  2  0
  9 10  1  0
 11 10  1  6
 12 11  1  0
 12  7  1  0
 13 11  1  0
 13 14  2  0
 15 13  1  0
 16 15  1  0
 16 24  1  0
 16 17  1  1
 18 19  2  0
 18 17  1  0
 20 19  1  0
 21 22  1  0
 21 20  2  0
 22 23  2  0
 23 18  1  0
 24 25  1  0
 26 24  2  0
M  END
$$$$
