ISF.pdb
     RDKit          3D

 26 26  0  0  1  0  0  0  0  0999 V2000
   28.4882  -17.6043  -16.0010 C   0  0  0  0  0  0  0  0  0  0  0  0
   27.1939  -18.2855  -15.6306 C   0  0  0  0  0  0  0  0  0  0  0  0
   27.3371  -19.7644  -15.4732 C   0  0  2  0  0  0  0  0  0  0  0  0
   27.8719  -20.3433  -16.7496 C   0  0  0  0  0  0  0  0  0  0  0  0
   26.0528  -20.4303  -15.0316 C   0  0  2  0  0  0  0  0  0  0  0  0
   25.0773  -20.2281  -16.1096 N   0  0  0  0  0  0  0  0  0  0  0  0
   25.5520  -19.8949  -13.7578 C   0  0  0  0  0  0  0  0  0  0  0  0
   24.7683  -18.9021  -13.7839 O   0  0  0  0  0  0  0  0  0  0  0  0
   23.4078  -21.1780  -11.1040 O   0  0  0  0  0  0  0  0  0  0  0  0
   23.8808  -19.8981  -11.2634 C   0  0  0  0  0  0  0  0  0  0  0  0
   25.3910  -19.8225  -11.2967 C   0  0  2  0  0  0  0  0  0  0  0  0
   25.8970  -20.4286  -12.4875 N   0  0  0  0  0  0  0  0  0  0  0  0
   25.9856  -20.4031  -10.0625 C   0  0  0  0  0  0  0  0  0  0  0  0
   26.0915  -21.6539   -9.9919 O   0  0  0  0  0  0  0  0  0  0  0  0
   26.4318  -19.6250   -8.9782 N   0  0  0  0  0  0  0  0  0  0  0  0
   26.9825  -20.1694   -7.7459 C   0  0  1  0  0  0  0  0  0  0  0  0
   27.7658  -19.1050   -7.0476 C   0  0  0  0  0  0  0  0  0  0  0  0
   28.3696  -19.4984   -5.7650 C   0  0  0  0  0  0  0  0  0  0  0  0
   27.7522  -19.2524   -4.5586 C   0  0  0  0  0  0  0  0  0  0  0  0
   28.3201  -19.6400   -3.3677 C   0  0  0  0  0  0  0  0  0  0  0  0
   29.5337  -20.2926   -3.3276 C   0  0  0  0  0  0  0  0  0  0  0  0
   30.1326  -20.5280   -4.5447 C   0  0  0  0  0  0  0  0  0  0  0  0
   29.5837  -20.1495   -5.7505 C   0  0  0  0  0  0  0  0  0  0  0  0
   25.9467  -20.7080   -6.8631 C   0  0  0  0  0  0  0  0  0  0  0  0
   26.1675  -21.7050   -5.9225 O   0  0  0  0  0  0  0  0  0  0  0  0
   24.7809  -20.2617   -6.9380 O   0  0  0  0  0  0  0  0  0  0  0  0
  1  2  1  0
  2  3  1  0
  3  5  1  0
  3  4  1  6
  5  7  1  0
  5  6  1  6
  7  8  2  0
  9 10  1  0
 11 10  1  1
 12 11  1  0
 12  7  1  0
 13 11  1  0
 13 14  2  0
 15 13  1  0
 16 15  1  0
 16 24  1  0
 16 17  1  1
 18 19  2  0
 18 17  1  0
 20 19  1  0
 21 22  1  0
 21 20  2  0
 22 23  2  0
 23 18  1  0
 24 25  1  0
 26 24  2  0
M  END
$$$$
