ISF.pdb
     RDKit          3D

 26 26  0  0  1  0  0  0  0  0999 V2000
   14.4304  -23.7886   -3.2026 C   0  0  0  0  0  0  0  0  0  0  0  0
   13.6779  -23.8130   -1.8951 C   0  0  0  0  0  0  0  0  0  0  0  0
   13.9353  -22.6070   -1.0512 C   0  0  2  0  0  0  0  0  0  0  0  0
   15.4136  -22.4621   -0.8420 C   0  0  0  0  0  0  0  0  0  0  0  0
   13.1682  -22.6338    0.2523 C   0  0  2  0  0  0  0  0  0  0  0  0
   11.7482  -22.7698   -0.0935 N   0  0  0  0  0  0  0  0  0  0  0  0
   13.4018  -21.4323    1.0658 C   0  0  0  0  0  0  0  0  0  0  0  0
   13.0114  -20.3140    0.6212 O   0  0  0  0  0  0  0  0  0  0  0  0
   13.4535  -21.0269    5.1990 O   0  0  0  0  0  0  0  0  0  0  0  0
   13.2189  -20.1319    4.1834 C   0  0  0  0  0  0  0  0  0  0  0  0
   14.2250  -20.2325    3.0586 C   0  0  2  0  0  0  0  0  0  0  0  0
   14.0447  -21.4496    2.3322 N   0  0  0  0  0  0  0  0  0  0  0  0
   15.6147  -20.0688    3.5642 C   0  0  0  0  0  0  0  0  0  0  0  0
   16.3433  -21.0916    3.6259 O   0  0  0  0  0  0  0  0  0  0  0  0
   16.1490  -18.8330    3.9736 N   0  0  0  0  0  0  0  0  0  0  0  0
   17.4306  -18.6720    4.6441 C   0  0  1  0  0  0  0  0  0  0  0  0
   18.3870  -17.9949    3.7161 C   0  0  0  0  0  0  0  0  0  0  0  0
   18.0696  -16.5969    3.3855 C   0  0  0  0  0  0  0  0  0  0  0  0
   17.1211  -15.8775    4.0782 C   0  0  0  0  0  0  0  0  0  0  0  0
   16.8456  -14.5661    3.7693 C   0  0  0  0  0  0  0  0  0  0  0  0
   17.5068  -13.9121    2.7517 C   0  0  0  0  0  0  0  0  0  0  0  0
   18.4503  -14.6501    2.0731 C   0  0  0  0  0  0  0  0  0  0  0  0
   18.7439  -15.9645    2.3639 C   0  0  0  0  0  0  0  0  0  0  0  0
   17.3138  -17.9242    5.8969 C   0  0  0  0  0  0  0  0  0  0  0  0
   16.1441  -17.3176    6.3346 O   0  0  0  0  0  0  0  0  0  0  0  0
   18.3130  -17.8077    6.6398 O   0  0  0  0  0  0  0  0  0  0  0  0
  1  2  1  0
  2  3  1  0
  3  5  1  0
  3  4  1  1
  5  7  1  0
  5  6  1  6
  7  8  2  0
  9 10  1  0
 11 10  1  1
 12 11  1  0
 12  7  1  0
 13 11  1  0
 13 14  2  0
 15 13  1  0
 16 15  1  0
 16 24  1  0
 16 17  1  6
 18 19  2  0
 18 17  1  0
 20 19  1  0
 21 22  1  0
 21 20  2  0
 22 23  2  0
 23 18  1  0
 24 25  1  0
 26 24  2  0
M  END
$$$$
