ISF.pdb
     RDKit          3D

 26 26  0  0  1  0  0  0  0  0999 V2000
   22.8304  -15.9224  -20.9829 C   0  0  0  0  0  0  0  0  0  0  0  0
   22.7696  -15.4256  -19.5596 C   0  0  0  0  0  0  0  0  0  0  0  0
   24.1204  -15.1979  -18.9628 C   0  0  2  0  0  0  0  0  0  0  0  0
   24.8685  -16.4978  -18.9337 C   0  0  0  0  0  0  0  0  0  0  0  0
   24.0528  -14.5408  -17.6021 C   0  0  2  0  0  0  0  0  0  0  0  0
   23.2863  -15.4418  -16.7331 N   0  0  0  0  0  0  0  0  0  0  0  0
   23.4392  -13.2063  -17.6530 C   0  0  0  0  0  0  0  0  0  0  0  0
   24.0555  -12.2783  -18.2528 O   0  0  0  0  0  0  0  0  0  0  0  0
   19.6027  -12.3316  -16.1674 O   0  0  0  0  0  0  0  0  0  0  0  0
   20.1385  -11.6127  -17.2084 C   0  0  0  0  0  0  0  0  0  0  0  0
   21.6502  -11.5722  -17.1866 C   0  0  2  0  0  0  0  0  0  0  0  0
   22.1853  -12.8913  -17.0647 N   0  0  0  0  0  0  0  0  0  0  0  0
   22.1481  -10.6532  -16.1276 C   0  0  0  0  0  0  0  0  0  0  0  0
   22.2095  -11.0897  -14.9501 O   0  0  0  0  0  0  0  0  0  0  0  0
   22.5506   -9.3284  -16.3788 N   0  0  0  0  0  0  0  0  0  0  0  0
   23.0347   -8.4080  -15.3607 C   0  0  1  0  0  0  0  0  0  0  0  0
   24.4485   -8.0350  -15.6704 C   0  0  0  0  0  0  0  0  0  0  0  0
   25.3591   -9.1598  -15.9351 C   0  0  0  0  0  0  0  0  0  0  0  0
   25.8710   -9.4085  -17.1894 C   0  0  0  0  0  0  0  0  0  0  0  0
   26.7341  -10.4538  -17.4198 C   0  0  0  0  0  0  0  0  0  0  0  0
   27.1262  -11.3006  -16.4051 C   0  0  0  0  0  0  0  0  0  0  0  0
   26.6026  -11.0335  -15.1602 C   0  0  0  0  0  0  0  0  0  0  0  0
   25.7365   -9.9928  -14.9046 C   0  0  0  0  0  0  0  0  0  0  0  0
   22.1999   -7.2109  -15.2496 C   0  0  0  0  0  0  0  0  0  0  0  0
   21.1419   -6.9187  -16.0998 O   0  0  0  0  0  0  0  0  0  0  0  0
   22.4303   -6.3817  -14.3423 O   0  0  0  0  0  0  0  0  0  0  0  0
  1  2  1  0
  2  3  1  0
  3  5  1  0
  3  4  1  1
  5  7  1  0
  5  6  1  1
  7  8  2  0
  9 10  1  0
 11 10  1  1
 12 11  1  0
 12  7  1  0
 13 11  1  0
 13 14  2  0
 15 13  1  0
 16 15  1  0
 16 24  1  0
 16 17  1  6
 18 19  2  0
 18 17  1  0
 20 19  1  0
 21 22  1  0
 21 20  2  0
 22 23  2  0
 23 18  1  0
 24 25  1  0
 26 24  2  0
M  END
$$$$
