ISF.pdb
     RDKit          3D

 26 26  0  0  1  0  0  0  0  0999 V2000
   21.3496  -30.3106  -15.0776 C   0  0  0  0  0  0  0  0  0  0  0  0
   20.4930  -31.4264  -14.5321 C   0  0  0  0  0  0  0  0  0  0  0  0
   21.2471  -32.3580  -13.6399 C   0  0  2  0  0  0  0  0  0  0  0  0
   21.8932  -31.5678  -12.5406 C   0  0  0  0  0  0  0  0  0  0  0  0
   22.2400  -33.2127  -14.3960 C   0  0  2  0  0  0  0  0  0  0  0  0
   21.4672  -34.0196  -15.3480 N   0  0  0  0  0  0  0  0  0  0  0  0
   23.0386  -34.0664  -13.5053 C   0  0  0  0  0  0  0  0  0  0  0  0
   22.4549  -34.6658  -12.5563 O   0  0  0  0  0  0  0  0  0  0  0  0
   27.2071  -34.9894  -13.9785 O   0  0  0  0  0  0  0  0  0  0  0  0
   26.2482  -35.8599  -13.5202 C   0  0  0  0  0  0  0  0  0  0  0  0
   25.1235  -35.1698  -12.7812 C   0  0  2  0  0  0  0  0  0  0  0  0
   24.4385  -34.2617  -13.6458 N   0  0  0  0  0  0  0  0  0  0  0  0
   25.6180  -34.5147  -11.5402 C   0  0  0  0  0  0  0  0  0  0  0  0
   26.0363  -33.3320  -11.6250 O   0  0  0  0  0  0  0  0  0  0  0  0
   25.6399  -35.1506  -10.2850 N   0  0  0  0  0  0  0  0  0  0  0  0
   26.2291  -34.5795   -9.0830 C   0  0  1  0  0  0  0  0  0  0  0  0
   25.1547  -34.3625   -8.0668 C   0  0  0  0  0  0  0  0  0  0  0  0
   25.6180  -33.9794   -6.7240 C   0  0  0  0  0  0  0  0  0  0  0  0
   25.8835  -34.9129   -5.7467 C   0  0  0  0  0  0  0  0  0  0  0  0
   26.3317  -34.5421   -4.5007 C   0  0  0  0  0  0  0  0  0  0  0  0
   26.5356  -33.2186   -4.1734 C   0  0  0  0  0  0  0  0  0  0  0  0
   26.2640  -32.3032   -5.1651 C   0  0  0  0  0  0  0  0  0  0  0  0
   25.8144  -32.6499   -6.4205 C   0  0  0  0  0  0  0  0  0  0  0  0
   27.2952  -35.4179   -8.5328 C   0  0  0  0  0  0  0  0  0  0  0  0
   28.4677  -34.9216   -7.9791 O   0  0  0  0  0  0  0  0  0  0  0  0
   27.1700  -36.6620   -8.5486 O   0  0  0  0  0  0  0  0  0  0  0  0
  1  2  1  0
  2  3  1  0
  3  5  1  0
  3  4  1  1
  5  7  1  0
  5  6  1  6
  7  8  2  0
  9 10  1  0
 11 10  1  6
 12 11  1  0
 12  7  1  0
 13 11  1  0
 13 14  2  0
 15 13  1  0
 16 15  1  0
 16 24  1  0
 16 17  1  1
 18 19  2  0
 18 17  1  0
 20 19  1  0
 21 22  1  0
 21 20  2  0
 22 23  2  0
 23 18  1  0
 24 25  1  0
 26 24  2  0
M  END
$$$$
