ISF.pdb
     RDKit          3D

 26 26  0  0  1  0  0  0  0  0999 V2000
   28.2847  -16.1929  -16.6782 C   0  0  0  0  0  0  0  0  0  0  0  0
   26.8045  -16.1495  -16.3896 C   0  0  0  0  0  0  0  0  0  0  0  0
   26.4523  -16.7296  -15.0584 C   0  0  2  0  0  0  0  0  0  0  0  0
   26.9858  -15.8360  -13.9780 C   0  0  0  0  0  0  0  0  0  0  0  0
   26.9176  -18.1607  -14.9052 C   0  0  2  0  0  0  0  0  0  0  0  0
   26.6332  -18.8380  -16.1760 N   0  0  0  0  0  0  0  0  0  0  0  0
   26.2630  -18.8467  -13.7822 C   0  0  0  0  0  0  0  0  0  0  0  0
   25.4627  -18.1904  -13.0546 O   0  0  0  0  0  0  0  0  0  0  0  0
   26.6190  -22.9459  -13.1021 O   0  0  0  0  0  0  0  0  0  0  0  0
   25.5017  -22.2779  -12.6633 C   0  0  0  0  0  0  0  0  0  0  0  0
   25.7568  -20.8140  -12.3816 C   0  0  2  0  0  0  0  0  0  0  0  0
   26.4757  -20.2138  -13.4607 N   0  0  0  0  0  0  0  0  0  0  0  0
   26.4348  -20.6292  -11.0701 C   0  0  0  0  0  0  0  0  0  0  0  0
   27.6588  -20.3414  -11.0752 O   0  0  0  0  0  0  0  0  0  0  0  0
   25.7768  -20.7602   -9.8332 N   0  0  0  0  0  0  0  0  0  0  0  0
   26.4495  -20.9880   -8.5629 C   0  0  1  0  0  0  0  0  0  0  0  0
   27.4132  -19.8732   -8.3125 C   0  0  0  0  0  0  0  0  0  0  0  0
   27.9563  -19.7973   -6.9473 C   0  0  0  0  0  0  0  0  0  0  0  0
   28.9174  -20.6723   -6.4915 C   0  0  0  0  0  0  0  0  0  0  0  0
   29.4283  -20.5801   -5.2182 C   0  0  0  0  0  0  0  0  0  0  0  0
   29.0013  -19.6072   -4.3399 C   0  0  0  0  0  0  0  0  0  0  0  0
   28.0406  -18.7439   -4.8164 C   0  0  0  0  0  0  0  0  0  0  0  0
   27.5136  -18.8160   -6.0875 C   0  0  0  0  0  0  0  0  0  0  0  0
   25.5085  -21.1139   -7.4489 C   0  0  0  0  0  0  0  0  0  0  0  0
   24.1488  -20.8507   -7.5457 O   0  0  0  0  0  0  0  0  0  0  0  0
   25.9265  -21.4792   -6.3284 O   0  0  0  0  0  0  0  0  0  0  0  0
  1  2  1  0
  2  3  1  0
  3  5  1  0
  3  4  1  1
  5  7  1  0
  5  6  1  6
  7  8  2  0
  9 10  1  0
 11 10  1  6
 12 11  1  0
 12  7  1  0
 13 11  1  0
 13 14  2  0
 15 13  1  0
 16 15  1  0
 16 24  1  0
 16 17  1  1
 18 19  2  0
 18 17  1  0
 20 19  1  0
 21 22  1  0
 21 20  2  0
 22 23  2  0
 23 18  1  0
 24 25  1  0
 26 24  2  0
M  END
$$$$
