ISF.pdb
     RDKit          3D

 26 26  0  0  1  0  0  0  0  0999 V2000
   26.8662  -15.3738  -17.1892 C   0  0  0  0  0  0  0  0  0  0  0  0
   25.8662  -15.3253  -16.0605 C   0  0  0  0  0  0  0  0  0  0  0  0
   25.8893  -16.5519  -15.2074 C   0  0  2  0  0  0  0  0  0  0  0  0
   27.2675  -16.7297  -14.6425 C   0  0  0  0  0  0  0  0  0  0  0  0
   25.4042  -17.7817  -15.9424 C   0  0  2  0  0  0  0  0  0  0  0  0
   24.0904  -17.4489  -16.5060 N   0  0  0  0  0  0  0  0  0  0  0  0
   25.3218  -18.9613  -15.0696 C   0  0  0  0  0  0  0  0  0  0  0  0
   24.3894  -19.0201  -14.2165 O   0  0  0  0  0  0  0  0  0  0  0  0
   27.9980  -22.3590  -15.0557 O   0  0  0  0  0  0  0  0  0  0  0  0
   26.6299  -22.4278  -14.9509 C   0  0  0  0  0  0  0  0  0  0  0  0
   26.0208  -21.2018  -14.3081 C   0  0  2  0  0  0  0  0  0  0  0  0
   26.2331  -20.0494  -15.1256 N   0  0  0  0  0  0  0  0  0  0  0  0
   26.5219  -21.0179  -12.9193 C   0  0  0  0  0  0  0  0  0  0  0  0
   27.7344  -20.7235  -12.7648 O   0  0  0  0  0  0  0  0  0  0  0  0
   25.7097  -21.1566  -11.7785 N   0  0  0  0  0  0  0  0  0  0  0  0
   26.2071  -21.1717  -10.4108 C   0  0  1  0  0  0  0  0  0  0  0  0
   27.0661  -19.9688  -10.1890 C   0  0  0  0  0  0  0  0  0  0  0  0
   27.5446  -19.7749   -8.8113 C   0  0  0  0  0  0  0  0  0  0  0  0
   27.0003  -18.8270   -7.9734 C   0  0  0  0  0  0  0  0  0  0  0  0
   27.4460  -18.6672   -6.6824 C   0  0  0  0  0  0  0  0  0  0  0  0
   28.4583  -19.4490   -6.1683 C   0  0  0  0  0  0  0  0  0  0  0  0
   28.9875  -20.3895   -7.0231 C   0  0  0  0  0  0  0  0  0  0  0  0
   28.5580  -20.5686   -8.3200 C   0  0  0  0  0  0  0  0  0  0  0  0
   25.1259  -21.2199   -9.4254 C   0  0  0  0  0  0  0  0  0  0  0  0
   25.2398  -21.8097   -8.1738 O   0  0  0  0  0  0  0  0  0  0  0  0
   24.0194  -20.7060   -9.7001 O   0  0  0  0  0  0  0  0  0  0  0  0
  1  2  1  0
  2  3  1  0
  3  5  1  0
  3  4  1  6
  5  7  1  0
  5  6  1  1
  7  8  2  0
  9 10  1  0
 11 10  1  6
 12 11  1  0
 12  7  1  0
 13 11  1  0
 13 14  2  0
 15 13  1  0
 16 15  1  0
 16 24  1  0
 16 17  1  1
 18 19  2  0
 18 17  1  0
 20 19  1  0
 21 22  1  0
 21 20  2  0
 22 23  2  0
 23 18  1  0
 24 25  1  0
 26 24  2  0
M  END
$$$$
