ISF.pdb
     RDKit          3D

 26 26  0  0  1  0  0  0  0  0999 V2000
   26.1414  -18.7108  -17.9941 C   0  0  0  0  0  0  0  0  0  0  0  0
   24.7473  -19.0885  -17.5579 C   0  0  0  0  0  0  0  0  0  0  0  0
   24.4950  -18.8162  -16.1105 C   0  0  2  0  0  0  0  0  0  0  0  0
   24.4830  -17.3331  -15.8860 C   0  0  0  0  0  0  0  0  0  0  0  0
   25.4744  -19.5288  -15.2044 C   0  0  2  0  0  0  0  0  0  0  0  0
   25.3980  -20.9567  -15.5360 N   0  0  0  0  0  0  0  0  0  0  0  0
   25.1903  -19.3005  -13.7807 C   0  0  0  0  0  0  0  0  0  0  0  0
   24.9498  -18.1207  -13.3922 O   0  0  0  0  0  0  0  0  0  0  0  0
   23.3316  -21.9365  -11.5867 O   0  0  0  0  0  0  0  0  0  0  0  0
   23.4657  -20.6517  -11.1190 C   0  0  0  0  0  0  0  0  0  0  0  0
   24.8040  -20.0332  -11.4563 C   0  0  2  0  0  0  0  0  0  0  0  0
   25.1688  -20.3326  -12.8049 N   0  0  0  0  0  0  0  0  0  0  0  0
   25.8472  -20.4422  -10.4775 C   0  0  0  0  0  0  0  0  0  0  0  0
   26.7718  -21.1926  -10.8812 O   0  0  0  0  0  0  0  0  0  0  0  0
   25.8489  -20.0325   -9.1313 N   0  0  0  0  0  0  0  0  0  0  0  0
   26.8191  -20.4702   -8.1387 C   0  0  1  0  0  0  0  0  0  0  0  0
   27.6275  -19.2947   -7.6928 C   0  0  0  0  0  0  0  0  0  0  0  0
   28.2021  -19.3943   -6.3421 C   0  0  0  0  0  0  0  0  0  0  0  0
   28.2639  -20.5884   -5.6584 C   0  0  0  0  0  0  0  0  0  0  0  0
   28.8184  -20.6705   -4.4028 C   0  0  0  0  0  0  0  0  0  0  0  0
   29.3377  -19.5606   -3.7712 C   0  0  0  0  0  0  0  0  0  0  0  0
   29.2653  -18.3782   -4.4727 C   0  0  0  0  0  0  0  0  0  0  0  0
   28.7148  -18.2708   -5.7312 C   0  0  0  0  0  0  0  0  0  0  0  0
   26.1867  -21.1238   -6.9920 C   0  0  0  0  0  0  0  0  0  0  0  0
   26.8455  -21.9890   -6.1289 O   0  0  0  0  0  0  0  0  0  0  0  0
   24.9789  -20.9085   -6.7497 O   0  0  0  0  0  0  0  0  0  0  0  0
  1  2  1  0
  2  3  1  0
  3  5  1  0
  3  4  1  6
  5  7  1  0
  5  6  1  1
  7  8  2  0
  9 10  1  0
 11 10  1  1
 12 11  1  0
 12  7  1  0
 13 11  1  0
 13 14  2  0
 15 13  1  0
 16 15  1  0
 16 24  1  0
 16 17  1  1
 18 19  2  0
 18 17  1  0
 20 19  1  0
 21 22  1  0
 21 20  2  0
 22 23  2  0
 23 18  1  0
 24 25  1  0
 26 24  2  0
M  END
$$$$
