ISF.pdb
     RDKit          3D

 26 26  0  0  1  0  0  0  0  0999 V2000
   27.4147  -21.0594  -17.2296 C   0  0  0  0  0  0  0  0  0  0  0  0
   26.0743  -21.0090  -16.5388 C   0  0  0  0  0  0  0  0  0  0  0  0
   26.1293  -20.3334  -15.2072 C   0  0  2  0  0  0  0  0  0  0  0  0
   27.2835  -20.8863  -14.4247 C   0  0  0  0  0  0  0  0  0  0  0  0
   24.8222  -20.4279  -14.4517 C   0  0  2  0  0  0  0  0  0  0  0  0
   23.8180  -19.7145  -15.2498 N   0  0  0  0  0  0  0  0  0  0  0  0
   24.9156  -19.8681  -13.0961 C   0  0  0  0  0  0  0  0  0  0  0  0
   24.5222  -18.6814  -12.9020 O   0  0  0  0  0  0  0  0  0  0  0  0
   23.0328  -20.8737  -10.2808 O   0  0  0  0  0  0  0  0  0  0  0  0
   23.8139  -19.7482  -10.3831 C   0  0  0  0  0  0  0  0  0  0  0  0
   25.2681  -20.0573  -10.6613 C   0  0  2  0  0  0  0  0  0  0  0  0
   25.4251  -20.5840  -11.9801 N   0  0  0  0  0  0  0  0  0  0  0  0
   25.8369  -20.9515   -9.6170 C   0  0  0  0  0  0  0  0  0  0  0  0
   25.5586  -22.1762   -9.6749 O   0  0  0  0  0  0  0  0  0  0  0  0
   26.6655  -20.4956   -8.5749 N   0  0  0  0  0  0  0  0  0  0  0  0
   27.2282  -21.3477   -7.5379 C   0  0  1  0  0  0  0  0  0  0  0  0
   28.5386  -20.7804   -7.0960 C   0  0  0  0  0  0  0  0  0  0  0  0
   28.4772  -19.8514   -5.9569 C   0  0  0  0  0  0  0  0  0  0  0  0
   28.0631  -18.5454   -6.0982 C   0  0  0  0  0  0  0  0  0  0  0  0
   27.9948  -17.6920   -5.0221 C   0  0  0  0  0  0  0  0  0  0  0  0
   28.3379  -18.1055   -3.7525 C   0  0  0  0  0  0  0  0  0  0  0  0
   28.7487  -19.4142   -3.6347 C   0  0  0  0  0  0  0  0  0  0  0  0
   28.8254  -20.2880   -4.6973 C   0  0  0  0  0  0  0  0  0  0  0  0
   26.3257  -21.5062   -6.3966 C   0  0  0  0  0  0  0  0  0  0  0  0
   26.5459  -22.3885   -5.3475 O   0  0  0  0  0  0  0  0  0  0  0  0
   25.2838  -20.8175   -6.3355 O   0  0  0  0  0  0  0  0  0  0  0  0
  1  2  1  0
  2  3  1  0
  3  5  1  0
  3  4  1  1
  5  7  1  0
  5  6  1  6
  7  8  2  0
  9 10  1  0
 11 10  1  1
 12 11  1  0
 12  7  1  0
 13 11  1  0
 13 14  2  0
 15 13  1  0
 16 15  1  0
 16 24  1  0
 16 17  1  1
 18 19  2  0
 18 17  1  0
 20 19  1  0
 21 22  1  0
 21 20  2  0
 22 23  2  0
 23 18  1  0
 24 25  1  0
 26 24  2  0
M  END
$$$$
