IAL.pdb
     RDKit          3D

 22 21  0  0  1  0  0  0  0  0999 V2000
   25.8841  -23.4745    8.8254 C   0  0  0  0  0  0  0  0  0  0  0  0
   26.4908  -23.9656   10.1456 C   0  0  0  0  0  0  0  0  0  0  0  0
   27.9659  -23.6245   10.1986 C   0  0  2  0  0  0  0  0  0  0  0  0
   28.7154  -24.2930    9.0636 C   0  0  0  0  0  0  0  0  0  0  0  0
   28.5431  -23.9854   11.5444 C   0  0  2  0  0  0  0  0  0  0  0  0
   27.7022  -23.4750   12.5818 N   0  0  0  0  0  0  0  0  0  0  0  0
   29.9547  -23.6080   11.6535 C   0  0  0  0  0  0  0  0  0  0  0  0
   30.2128  -22.3630   11.6933 O   0  0  0  0  0  0  0  0  0  0  0  0
   33.2961  -24.7614   12.6944 C   0  0  0  0  0  0  0  0  0  0  0  0
   32.3958  -23.9987   11.7161 C   0  0  2  0  0  0  0  0  0  0  0  0
   31.0571  -24.5007   11.7187 N   0  0  0  0  0  0  0  0  0  0  0  0
   33.0452  -24.1333   10.3719 C   0  0  0  0  0  0  0  0  0  0  0  0
   32.8983  -25.1843    9.7135 O   0  0  0  0  0  0  0  0  0  0  0  0
   32.2930  -20.8423    6.4006 C   0  0  0  0  0  0  0  0  0  0  0  0
   32.6055  -22.2353    7.0131 C   0  0  1  0  0  0  0  0  0  0  0  0
   32.5552  -23.1632    5.8057 C   0  0  0  0  0  0  0  0  0  0  0  0
   33.9361  -22.0869    7.6426 C   0  0  0  0  0  0  0  0  0  0  0  0
   34.4848  -23.1539    8.5136 C   0  0  2  0  0  0  0  0  0  0  0  0
   33.8243  -23.0735    9.8461 N   0  0  0  0  0  0  0  0  0  0  0  0
   35.9154  -23.3035    8.6803 C   0  0  0  0  0  0  0  0  0  0  0  0
   36.6866  -23.7835    7.5796 O   0  0  0  0  0  0  0  0  0  0  0  0
   36.6062  -23.0642    9.6899 O   0  0  0  0  0  0  0  0  0  0  0  0
  2  1  1  0
  3  2  1  0
  3  4  1  6
  5  3  1  0
  5  6  1  1
  7  5  1  0
  7 11  1  0
  8  7  2  0
 10  9  1  1
 10 11  1  0
 10 12  1  0
 12 19  1  0
 13 12  2  0
 15 14  1  6
 15 16  1  0
 17 15  1  0
 18 20  1  0
 18 17  1  6
 19 18  1  0
 20 21  1  0
 22 20  2  0
M  END
$$$$
