IAL.pdb
     RDKit          3D

 22 21  0  0  1  0  0  0  0  0999 V2000
   28.4203  -17.6282  -17.2760 C   0  0  0  0  0  0  0  0  0  0  0  0
   28.7597  -18.8898  -16.4727 C   0  0  0  0  0  0  0  0  0  0  0  0
   27.5848  -19.2827  -15.6008 C   0  0  2  0  0  0  0  0  0  0  0  0
   27.2448  -18.1760  -14.6228 C   0  0  0  0  0  0  0  0  0  0  0  0
   27.8616  -20.5889  -14.8993 C   0  0  2  0  0  0  0  0  0  0  0  0
   28.2374  -21.5805  -15.8582 N   0  0  0  0  0  0  0  0  0  0  0  0
   26.7631  -20.9761  -14.0102 C   0  0  0  0  0  0  0  0  0  0  0  0
   25.7325  -21.4799  -14.5600 O   0  0  0  0  0  0  0  0  0  0  0  0
   25.7916  -21.0523  -10.3422 C   0  0  0  0  0  0  0  0  0  0  0  0
   25.5738  -21.1925  -11.8529 C   0  0  2  0  0  0  0  0  0  0  0  0
   26.7431  -20.8413  -12.5969 N   0  0  0  0  0  0  0  0  0  0  0  0
   24.4096  -20.3078  -12.1827 C   0  0  0  0  0  0  0  0  0  0  0  0
   24.5879  -19.0831  -12.3502 O   0  0  0  0  0  0  0  0  0  0  0  0
   22.0023  -20.4005  -16.8417 C   0  0  0  0  0  0  0  0  0  0  0  0
   21.9917  -19.4027  -15.6510 C   0  0  1  0  0  0  0  0  0  0  0  0
   20.5056  -19.1809  -15.3988 C   0  0  0  0  0  0  0  0  0  0  0  0
   22.7219  -20.0940  -14.5658 C   0  0  0  0  0  0  0  0  0  0  0  0
   22.0924  -20.2961  -13.2388 C   0  0  2  0  0  0  0  0  0  0  0  0
   23.1089  -20.8554  -12.3049 N   0  0  0  0  0  0  0  0  0  0  0  0
   20.8524  -21.0342  -13.1181 C   0  0  0  0  0  0  0  0  0  0  0  0
   19.6287  -20.3062  -13.0229 O   0  0  0  0  0  0  0  0  0  0  0  0
   20.6872  -22.2692  -13.0833 O   0  0  0  0  0  0  0  0  0  0  0  0
  2  1  1  0
  3  2  1  0
  3  4  1  1
  5  3  1  0
  5  6  1  6
  7  5  1  0
  7 11  1  0
  8  7  2  0
 10  9  1  1
 10 11  1  0
 10 12  1  0
 12 19  1  0
 13 12  2  0
 15 14  1  6
 15 16  1  0
 17 15  1  0
 18 20  1  0
 18 17  1  6
 19 18  1  0
 20 21  1  0
 22 20  2  0
M  END
$$$$
