IAL.pdb
     RDKit          3D

 22 21  0  0  1  0  0  0  0  0999 V2000
   17.8339  -13.0101  -21.0336 C   0  0  0  0  0  0  0  0  0  0  0  0
   18.3366  -12.8677  -19.5916 C   0  0  0  0  0  0  0  0  0  0  0  0
   18.1497  -11.4421  -19.1142 C   0  0  2  0  0  0  0  0  0  0  0  0
   18.8629  -10.4684  -20.0307 C   0  0  0  0  0  0  0  0  0  0  0  0
   18.6013  -11.3016  -17.6821 C   0  0  2  0  0  0  0  0  0  0  0  0
   18.3056  -12.5018  -16.9637 N   0  0  0  0  0  0  0  0  0  0  0  0
   18.0928  -10.0732  -17.0659 C   0  0  0  0  0  0  0  0  0  0  0  0
   18.5080   -8.9742  -17.5536 O   0  0  0  0  0  0  0  0  0  0  0  0
   15.5586   -8.8508  -14.5358 C   0  0  0  0  0  0  0  0  0  0  0  0
   16.7664   -8.7268  -15.4713 C   0  0  2  0  0  0  0  0  0  0  0  0
   17.1824   -9.9970  -15.9789 N   0  0  0  0  0  0  0  0  0  0  0  0
   17.8418   -8.0625  -14.6657 C   0  0  0  0  0  0  0  0  0  0  0  0
   17.6222   -6.9566  -14.1286 O   0  0  0  0  0  0  0  0  0  0  0  0
   21.7222   -9.6115  -10.5992 C   0  0  0  0  0  0  0  0  0  0  0  0
   21.8971   -8.8524  -11.9434 C   0  0  1  0  0  0  0  0  0  0  0  0
   23.0767   -9.5654  -12.5924 C   0  0  0  0  0  0  0  0  0  0  0  0
   20.6019   -9.0068  -12.6414 C   0  0  0  0  0  0  0  0  0  0  0  0
   20.2058   -8.0684  -13.7188 C   0  0  2  0  0  0  0  0  0  0  0  0
   19.1053   -8.6839  -14.5116 N   0  0  0  0  0  0  0  0  0  0  0  0
   21.2014   -7.5084  -14.6086 C   0  0  0  0  0  0  0  0  0  0  0  0
   21.9368   -6.3631  -14.1794 O   0  0  0  0  0  0  0  0  0  0  0  0
   21.5271   -7.8961  -15.7476 O   0  0  0  0  0  0  0  0  0  0  0  0
  2  1  1  0
  3  2  1  0
  3  4  1  6
  5  3  1  0
  5  6  1  1
  7  5  1  0
  7 11  1  0
  8  7  2  0
 10  9  1  1
 10 11  1  0
 10 12  1  0
 12 19  1  0
 13 12  2  0
 15 14  1  1
 15 16  1  0
 17 15  1  0
 18 20  1  0
 18 17  1  6
 19 18  1  0
 20 21  1  0
 22 20  2  0
M  END
$$$$
