IAL.pdb
     RDKit          3D

 22 21  0  0  1  0  0  0  0  0999 V2000
   29.3217  -18.0955  -16.7026 C   0  0  0  0  0  0  0  0  0  0  0  0
   28.1522  -19.0476  -16.4231 C   0  0  0  0  0  0  0  0  0  0  0  0
   27.5276  -18.7240  -15.0814 C   0  0  2  0  0  0  0  0  0  0  0  0
   28.5674  -18.7606  -13.9794 C   0  0  0  0  0  0  0  0  0  0  0  0
   26.3740  -19.6535  -14.7983 C   0  0  2  0  0  0  0  0  0  0  0  0
   25.4503  -19.6208  -15.8889 N   0  0  0  0  0  0  0  0  0  0  0  0
   25.7819  -19.4054  -13.4812 C   0  0  0  0  0  0  0  0  0  0  0  0
   25.4554  -18.2045  -13.2176 O   0  0  0  0  0  0  0  0  0  0  0  0
   23.5122  -20.2647  -11.0937 C   0  0  0  0  0  0  0  0  0  0  0  0
   25.0160  -19.9894  -11.2035 C   0  0  2  0  0  0  0  0  0  0  0  0
   25.5396  -20.3784  -12.4758 N   0  0  0  0  0  0  0  0  0  0  0  0
   25.6540  -20.7448  -10.0770 C   0  0  0  0  0  0  0  0  0  0  0  0
   26.0231  -21.9251  -10.2510 O   0  0  0  0  0  0  0  0  0  0  0  0
   28.5691  -18.5077   -5.8639 C   0  0  0  0  0  0  0  0  0  0  0  0
   28.1610  -19.4148   -7.0573 C   0  0  1  0  0  0  0  0  0  0  0  0
   29.3458  -20.3632   -7.1919 C   0  0  0  0  0  0  0  0  0  0  0  0
   26.8891  -20.0456   -6.6411 C   0  0  0  0  0  0  0  0  0  0  0  0
   26.1267  -20.9035   -7.5797 C   0  0  2  0  0  0  0  0  0  0  0  0
   25.8396  -20.1253   -8.8167 N   0  0  0  0  0  0  0  0  0  0  0  0
   24.9306  -21.5913   -7.1406 C   0  0  0  0  0  0  0  0  0  0  0  0
   23.6602  -21.0802   -7.5425 O   0  0  0  0  0  0  0  0  0  0  0  0
   24.8413  -22.6117   -6.4302 O   0  0  0  0  0  0  0  0  0  0  0  0
  2  1  1  0
  3  2  1  0
  3  4  1  1
  5  3  1  0
  5  6  1  6
  7  5  1  0
  7 11  1  0
  8  7  2  0
 10  9  1  6
 10 11  1  0
 10 12  1  0
 12 19  1  0
 13 12  2  0
 15 14  1  1
 15 16  1  0
 17 15  1  0
 18 20  1  0
 18 17  1  1
 19 18  1  0
 20 21  1  0
 22 20  2  0
M  END
$$$$
