IAL.pdb
     RDKit          3D

 22 21  0  0  1  0  0  0  0  0999 V2000
   18.4077  -11.8259  -20.6067 C   0  0  0  0  0  0  0  0  0  0  0  0
   19.2847  -12.5695  -19.5919 C   0  0  0  0  0  0  0  0  0  0  0  0
   19.7221  -11.6244  -18.4916 C   0  0  2  0  0  0  0  0  0  0  0  0
   20.4741  -10.4401  -19.0650 C   0  0  0  0  0  0  0  0  0  0  0  0
   20.5353  -12.3602  -17.4561 C   0  0  2  0  0  0  0  0  0  0  0  0
   19.8466  -13.5479  -17.0575 N   0  0  0  0  0  0  0  0  0  0  0  0
   20.9405  -11.4833  -16.3543 C   0  0  0  0  0  0  0  0  0  0  0  0
   20.0108  -11.0206  -15.6196 O   0  0  0  0  0  0  0  0  0  0  0  0
   23.9567  -10.3503  -14.4131 C   0  0  0  0  0  0  0  0  0  0  0  0
   22.5253  -10.2130  -14.9436 C   0  0  2  0  0  0  0  0  0  0  0  0
   22.2704  -11.1041  -16.0322 N   0  0  0  0  0  0  0  0  0  0  0  0
   22.3729   -8.7766  -15.3439 C   0  0  0  0  0  0  0  0  0  0  0  0
   22.8126   -8.3890  -16.4466 O   0  0  0  0  0  0  0  0  0  0  0  0
   18.3160   -6.1861  -16.5697 C   0  0  0  0  0  0  0  0  0  0  0  0
   19.8097   -6.6098  -16.5173 C   0  0  1  0  0  0  0  0  0  0  0  0
   20.3901   -5.9883  -17.7816 C   0  0  0  0  0  0  0  0  0  0  0  0
   20.3211   -6.0528  -15.2457 C   0  0  0  0  0  0  0  0  0  0  0  0
   21.6793   -6.3967  -14.7605 C   0  0  2  0  0  0  0  0  0  0  0  0
   21.7324   -7.8579  -14.4766 N   0  0  0  0  0  0  0  0  0  0  0  0
   22.2779   -5.6595  -13.6674 C   0  0  0  0  0  0  0  0  0  0  0  0
   22.5873   -4.2798  -13.8603 O   0  0  0  0  0  0  0  0  0  0  0  0
   22.5773   -6.0702  -12.5292 O   0  0  0  0  0  0  0  0  0  0  0  0
  2  1  1  0
  3  2  1  0
  3  4  1  6
  5  3  1  0
  5  6  1  1
  7  5  1  0
  7 11  1  0
  8  7  2  0
 10  9  1  6
 10 11  1  0
 10 12  1  0
 12 19  1  0
 13 12  2  0
 15 14  1  6
 15 16  1  0
 17 15  1  0
 18 20  1  0
 18 17  1  1
 19 18  1  0
 20 21  1  0
 22 20  2  0
M  END
$$$$
