IAL.pdb
     RDKit          3D

 22 21  0  0  1  0  0  0  0  0999 V2000
   12.8713  -12.1950  -15.1732 C   0  0  0  0  0  0  0  0  0  0  0  0
   14.3954  -12.0345  -15.2334 C   0  0  0  0  0  0  0  0  0  0  0  0
   14.8448  -10.9681  -14.2557 C   0  0  2  0  0  0  0  0  0  0  0  0
   14.1572   -9.6484  -14.5430 C   0  0  0  0  0  0  0  0  0  0  0  0
   16.3472  -10.8359  -14.2727 C   0  0  2  0  0  0  0  0  0  0  0  0
   16.9454  -12.0991  -13.9723 N   0  0  0  0  0  0  0  0  0  0  0  0
   16.8079   -9.7218  -13.4399 C   0  0  0  0  0  0  0  0  0  0  0  0
   16.7879   -9.9022  -12.1808 O   0  0  0  0  0  0  0  0  0  0  0  0
   18.6499   -6.4424  -13.6828 C   0  0  0  0  0  0  0  0  0  0  0  0
   17.7748   -7.4912  -12.9874 C   0  0  2  0  0  0  0  0  0  0  0  0
   17.2732   -8.4642  -13.9070 N   0  0  0  0  0  0  0  0  0  0  0  0
   16.6723   -6.7267  -12.3191 C   0  0  0  0  0  0  0  0  0  0  0  0
   15.6423   -6.4327  -12.9613 O   0  0  0  0  0  0  0  0  0  0  0  0
   15.2032   -7.4003   -6.9901 C   0  0  0  0  0  0  0  0  0  0  0  0
   15.0789   -7.2823   -8.5342 C   0  0  1  0  0  0  0  0  0  0  0  0
   13.5801   -7.4182   -8.7719 C   0  0  0  0  0  0  0  0  0  0  0  0
   15.6552   -5.9605   -8.8646 C   0  0  0  0  0  0  0  0  0  0  0  0
   15.7627   -5.5123  -10.2738 C   0  0  2  0  0  0  0  0  0  0  0  0
   16.7943   -6.3366  -10.9628 N   0  0  0  0  0  0  0  0  0  0  0  0
   15.9598   -4.1124  -10.5869 C   0  0  0  0  0  0  0  0  0  0  0  0
   14.8430   -3.2280  -10.5026 O   0  0  0  0  0  0  0  0  0  0  0  0
   17.0095   -3.5377  -10.9358 O   0  0  0  0  0  0  0  0  0  0  0  0
  2  1  1  0
  3  2  1  0
  3  4  1  6
  5  3  1  0
  5  6  1  1
  7  5  1  0
  7 11  1  0
  8  7  2  0
 10  9  1  6
 10 11  1  0
 10 12  1  0
 12 19  1  0
 13 12  2  0
 15 14  1  1
 15 16  1  0
 17 15  1  0
 18 20  1  0
 18 17  1  1
 19 18  1  0
 20 21  1  0
 22 20  2  0
M  END
$$$$
