IAL.pdb
     RDKit          3D

 22 21  0  0  1  0  0  0  0  0999 V2000
   26.4451  -34.2061  -11.3095 C   0  0  0  0  0  0  0  0  0  0  0  0
   25.5286  -33.5117  -10.2946 C   0  0  0  0  0  0  0  0  0  0  0  0
   26.2221  -33.4110   -8.9515 C   0  0  2  0  0  0  0  0  0  0  0  0
   26.6606  -34.7785   -8.4670 C   0  0  0  0  0  0  0  0  0  0  0  0
   25.3340  -32.7166   -7.9496 C   0  0  2  0  0  0  0  0  0  0  0  0
   25.0520  -31.3878   -8.3954 N   0  0  0  0  0  0  0  0  0  0  0  0
   25.8676  -32.8100   -6.5882 C   0  0  0  0  0  0  0  0  0  0  0  0
   26.7749  -31.9767   -6.2708 O   0  0  0  0  0  0  0  0  0  0  0  0
   25.2760  -34.4296   -3.2440 C   0  0  0  0  0  0  0  0  0  0  0  0
   26.1430  -33.7924   -4.3356 C   0  0  2  0  0  0  0  0  0  0  0  0
   25.4666  -33.7412   -5.5941 N   0  0  0  0  0  0  0  0  0  0  0  0
   27.3921  -34.6183   -4.4006 C   0  0  0  0  0  0  0  0  0  0  0  0
   27.4397  -35.6146   -5.1522 O   0  0  0  0  0  0  0  0  0  0  0  0
   32.3945  -35.1206   -5.9801 C   0  0  0  0  0  0  0  0  0  0  0  0
   32.1722  -35.0035   -4.4470 C   0  0  1  0  0  0  0  0  0  0  0  0
   33.3376  -34.1329   -3.9940 C   0  0  0  0  0  0  0  0  0  0  0  0
   30.8321  -34.3943   -4.3000 C   0  0  0  0  0  0  0  0  0  0  0  0
   29.7517  -35.1069   -3.5767 C   0  0  2  0  0  0  0  0  0  0  0  0
   28.5180  -34.2733   -3.6133 N   0  0  0  0  0  0  0  0  0  0  0  0
   29.9703  -35.6061   -2.2351 C   0  0  0  0  0  0  0  0  0  0  0  0
   30.7384  -36.7967   -2.0642 O   0  0  0  0  0  0  0  0  0  0  0  0
   29.5683  -35.1280   -1.1564 O   0  0  0  0  0  0  0  0  0  0  0  0
  2  1  1  0
  3  2  1  0
  3  4  1  1
  5  3  1  0
  5  6  1  6
  7  5  1  0
  7 11  1  0
  8  7  2  0
 10  9  1  1
 10 11  1  0
 10 12  1  0
 12 19  1  0
 13 12  2  0
 15 14  1  6
 15 16  1  0
 17 15  1  0
 18 20  1  0
 18 17  1  1
 19 18  1  0
 20 21  1  0
 22 20  2  0
M  END
$$$$
