RPP.pdb
     RDKit          3D

 26 27  0  0  1  0  0  0  0  0999 V2000
    8.4322  -12.4389   19.8395 N   0  0  0  0  0  0  0  0  0  0  0  0
    8.3534  -13.2890   18.7096 C   0  0  0  0  0  0  0  0  0  0  0  0
    8.2557  -12.8400   17.5046 N   0  0  0  0  0  0  0  0  0  0  0  0
    8.3827  -14.7225   18.9011 N   0  0  0  0  0  0  0  0  0  0  0  0
    9.0523  -15.2798   20.0472 C   0  0  0  0  0  0  0  0  0  0  0  0
    9.1160  -16.7734   19.9035 C   0  0  0  0  0  0  0  0  0  0  0  0
    8.9828  -17.4738   21.2047 C   0  0  0  0  0  0  0  0  0  0  0  0
    7.5686  -17.8428   21.5153 C   0  0  2  0  0  0  0  0  0  0  0  0
    6.7718  -17.7259   20.3021 N   0  0  0  0  0  0  0  0  0  0  0  0
    7.0507  -16.9656   22.5878 C   0  0  0  0  0  0  0  0  0  0  0  0
    6.4363  -15.9073   22.2566 O   0  0  0  0  0  0  0  0  0  0  0  0
    8.1891  -13.5064   16.7167 N   0  0  0  0  0  0  0  0  0  0  0  0
    7.2379  -17.3222   23.9406 C   0  0  0  0  0  0  0  0  0  0  0  0
    7.7921  -18.5828   24.4581 C   0  0  0  0  0  0  0  0  0  0  0  0
    6.7451  -18.8173   25.5665 C   0  0  0  0  0  0  0  0  0  0  0  0
    6.7085  -17.4712   26.2238 C   0  0  2  0  0  0  0  0  0  0  0  0
    6.8550  -16.5043   25.0585 C   0  0  0  0  0  0  0  0  0  0  0  0
    7.6966  -15.3761   25.3709 O   0  0  0  0  0  0  0  0  0  0  0  0
    8.8754  -15.4565   24.7956 N   0  0  0  0  0  0  0  0  0  0  0  0
    7.4962  -14.2343   26.1522 C   0  0  0  0  0  0  0  0  0  0  0  0
    6.2390  -13.9145   26.8554 C   0  0  0  0  0  0  0  0  0  0  0  0
    6.0601  -12.4296   26.5645 C   0  0  0  0  0  0  0  0  0  0  0  0
    7.4715  -11.9160   26.7069 C   0  0  1  0  0  0  0  0  0  0  0  0
    8.3655  -13.1494   26.5170 C   0  0  0  0  0  0  0  0  0  0  0  0
    9.0000  -13.3802   27.8508 O   0  0  0  0  0  0  0  0  0  0  0  0
   10.1114  -12.6842   28.2666 O   0  0  0  0  0  0  0  0  0  0  0  0
  2  1  1  0
  3  2  2  0
  4  2  1  0
  5  4  1  0
  6  5  1  0
  6  7  1  0
  7  8  1  0
  8  9  1  6
 10  8  1  0
 11 10  2  0
 12 16  1  0
 12 10  1  0
 13 14  1  0
 13 12  1  0
 14 15  1  0
 15 16  1  0
 17 19  1  0
 16 17  1  1
 18 17  2  0
 19 20  1  0
 20 21  1  0
 22 21  1  0
 23 19  1  0
 23 22  1  0
 24 25  1  0
 23 24  1  1
 26 24  2  0
M  END
$$$$
