RPP.pdb
     RDKit          3D

 26 27  0  0  1  0  0  0  0  0999 V2000
    6.1639  -20.6236   26.0376 N   0  0  0  0  0  0  0  0  0  0  0  0
    7.1202  -20.2773   25.0521 C   0  0  0  0  0  0  0  0  0  0  0  0
    8.3439  -20.6818   25.0954 N   0  0  0  0  0  0  0  0  0  0  0  0
    6.7208  -19.4355   23.9456 N   0  0  0  0  0  0  0  0  0  0  0  0
    7.7129  -18.6872   23.2187 C   0  0  0  0  0  0  0  0  0  0  0  0
    7.3694  -17.2264   23.2766 C   0  0  0  0  0  0  0  0  0  0  0  0
    7.6741  -16.5222   22.0067 C   0  0  0  0  0  0  0  0  0  0  0  0
    7.5852  -15.0364   22.1391 C   0  0  2  0  0  0  0  0  0  0  0  0
    8.0973  -14.4216   20.9226 N   0  0  0  0  0  0  0  0  0  0  0  0
    8.3479  -14.5976   23.3281 C   0  0  0  0  0  0  0  0  0  0  0  0
    9.6115  -14.5364   23.2445 O   0  0  0  0  0  0  0  0  0  0  0  0
    8.6450  -21.3132   25.8571 N   0  0  0  0  0  0  0  0  0  0  0  0
    7.6652  -14.2499   24.5135 C   0  0  0  0  0  0  0  0  0  0  0  0
    6.2102  -14.2419   24.7304 C   0  0  0  0  0  0  0  0  0  0  0  0
    6.1269  -12.8820   25.4537 C   0  0  0  0  0  0  0  0  0  0  0  0
    7.2234  -13.0211   26.4654 C   0  0  2  0  0  0  0  0  0  0  0  0
    8.3035  -13.7844   25.7139 C   0  0  0  0  0  0  0  0  0  0  0  0
    8.9662  -14.7677   26.5340 O   0  0  0  0  0  0  0  0  0  0  0  0
    8.8762  -15.9795   26.0336 N   0  0  0  0  0  0  0  0  0  0  0  0
    9.6753  -14.6748   27.7352 C   0  0  0  0  0  0  0  0  0  0  0  0
    9.5002  -13.5957   28.7262 C   0  0  0  0  0  0  0  0  0  0  0  0
   10.9354  -13.2513   29.1046 C   0  0  0  0  0  0  0  0  0  0  0  0
   11.5696  -14.6180   29.1813 C   0  0  1  0  0  0  0  0  0  0  0  0
   10.6595  -15.5273   28.3437 C   0  0  0  0  0  0  0  0  0  0  0  0
   10.0381  -16.4680   29.3255 O   0  0  0  0  0  0  0  0  0  0  0  0
   10.7008  -17.5746   29.8042 O   0  0  0  0  0  0  0  0  0  0  0  0
  2  1  1  0
  3  2  2  0
  4  2  1  0
  5  4  1  0
  6  5  1  0
  6  7  1  0
  7  8  1  0
  8  9  1  6
 10  8  1  0
 11 10  2  0
 12 16  1  0
 12 10  1  0
 13 14  1  0
 13 12  1  0
 14 15  1  0
 15 16  1  0
 17 19  1  0
 16 17  1  1
 18 17  2  0
 19 20  1  0
 20 21  1  0
 22 21  1  0
 23 19  1  0
 23 22  1  0
 24 25  1  0
 23 24  1  1
 26 24  2  0
M  END
$$$$
