RPP.pdb
     RDKit          3D

 26 27  0  0  1  0  0  0  0  0999 V2000
    9.5665  -15.2538   16.2522 N   0  0  0  0  0  0  0  0  0  0  0  0
    8.2063  -14.8760   16.3658 C   0  0  0  0  0  0  0  0  0  0  0  0
    7.2754  -15.3953   15.6400 N   0  0  0  0  0  0  0  0  0  0  0  0
    7.8321  -13.8667   17.3321 N   0  0  0  0  0  0  0  0  0  0  0  0
    8.3767  -13.9114   18.6640 C   0  0  0  0  0  0  0  0  0  0  0  0
    7.8170  -15.1033   19.3861 C   0  0  0  0  0  0  0  0  0  0  0  0
    8.1163  -15.0772   20.8391 C   0  0  0  0  0  0  0  0  0  0  0  0
    7.8376  -13.7461   21.4582 C   0  0  2  0  0  0  0  0  0  0  0  0
    8.3142  -12.6997   20.5649 N   0  0  0  0  0  0  0  0  0  0  0  0
    8.4941  -13.6668   22.7813 C   0  0  0  0  0  0  0  0  0  0  0  0
    9.7549  -13.5401   22.8217 O   0  0  0  0  0  0  0  0  0  0  0  0
    6.2976  -15.0829   15.7656 N   0  0  0  0  0  0  0  0  0  0  0  0
    7.7161  -13.7222   23.9577 C   0  0  0  0  0  0  0  0  0  0  0  0
    6.2615  -13.9207   24.0517 C   0  0  0  0  0  0  0  0  0  0  0  0
    5.9804  -12.8214   25.0967 C   0  0  0  0  0  0  0  0  0  0  0  0
    7.0334  -13.1155   26.1213 C   0  0  2  0  0  0  0  0  0  0  0  0
    8.2333  -13.5346   25.2853 C   0  0  0  0  0  0  0  0  0  0  0  0
    8.9665  -14.6298   25.8698 O   0  0  0  0  0  0  0  0  0  0  0  0
    9.1074  -15.6379   25.0387 N   0  0  0  0  0  0  0  0  0  0  0  0
    9.5469  -14.8147   27.1281 C   0  0  0  0  0  0  0  0  0  0  0  0
    9.1946  -14.0377   28.3319 C   0  0  0  0  0  0  0  0  0  0  0  0
   10.5558  -13.7318   28.9444 C   0  0  0  0  0  0  0  0  0  0  0  0
   11.2827  -15.0389   28.7466 C   0  0  1  0  0  0  0  0  0  0  0  0
   10.5304  -15.7454   27.6102 C   0  0  0  0  0  0  0  0  0  0  0  0
    9.8911  -16.9372   28.2475 O   0  0  0  0  0  0  0  0  0  0  0  0
   10.6061  -18.0637   28.5828 O   0  0  0  0  0  0  0  0  0  0  0  0
  2  1  1  0
  3  2  2  0
  4  2  1  0
  5  4  1  0
  6  5  1  0
  6  7  1  0
  7  8  1  0
  8  9  1  6
 10  8  1  0
 11 10  2  0
 12 16  1  0
 12 10  1  0
 13 14  1  0
 13 12  1  0
 14 15  1  0
 15 16  1  0
 17 19  1  0
 16 17  1  1
 18 17  2  0
 19 20  1  0
 20 21  1  0
 22 21  1  0
 23 19  1  0
 23 22  1  0
 24 25  1  0
 23 24  1  1
 26 24  2  0
M  END
$$$$
