RPP.pdb
     RDKit          3D

 26 27  0  0  1  0  0  0  0  0999 V2000
    8.8273  -21.4881   17.5014 N   0  0  0  0  0  0  0  0  0  0  0  0
    8.2297  -21.8010   18.7466 C   0  0  0  0  0  0  0  0  0  0  0  0
    8.5919  -22.8130   19.4592 N   0  0  0  0  0  0  0  0  0  0  0  0
    7.1678  -20.9587   19.2518 N   0  0  0  0  0  0  0  0  0  0  0  0
    6.7742  -19.7834   18.5194 C   0  0  0  0  0  0  0  0  0  0  0  0
    7.9576  -18.8691   18.3807 C   0  0  0  0  0  0  0  0  0  0  0  0
    7.6297  -17.6270   17.6384 C   0  0  0  0  0  0  0  0  0  0  0  0
    8.7782  -16.6728   17.5815 C   0  0  2  0  0  0  0  0  0  0  0  0
    9.9046  -17.3265   16.9301 N   0  0  0  0  0  0  0  0  0  0  0  0
    9.1268  -16.2334   18.9502 C   0  0  0  0  0  0  0  0  0  0  0  0
   10.1386  -16.7528   19.5103 O   0  0  0  0  0  0  0  0  0  0  0  0
    8.1563  -22.9665   20.3844 N   0  0  0  0  0  0  0  0  0  0  0  0
    8.3449  -15.2509   19.5947 C   0  0  0  0  0  0  0  0  0  0  0  0
    7.2533  -14.4587   19.0073 C   0  0  0  0  0  0  0  0  0  0  0  0
    7.6728  -13.0899   19.5817 C   0  0  0  0  0  0  0  0  0  0  0  0
    7.9088  -13.4363   21.0204 C   0  0  2  0  0  0  0  0  0  0  0  0
    8.5349  -14.8211   20.9528 C   0  0  0  0  0  0  0  0  0  0  0  0
    8.0645  -15.6985   21.9956 O   0  0  0  0  0  0  0  0  0  0  0  0
    7.2970  -16.6597   21.5327 N   0  0  0  0  0  0  0  0  0  0  0  0
    8.2708  -15.7201   23.3781 C   0  0  0  0  0  0  0  0  0  0  0  0
    8.8619  -14.6109   24.1510 C   0  0  0  0  0  0  0  0  0  0  0  0
    9.8292  -15.3296   25.0834 C   0  0  0  0  0  0  0  0  0  0  0  0
    9.0262  -16.5422   25.4843 C   0  0  1  0  0  0  0  0  0  0  0  0
    7.9673  -16.7006   24.3842 C   0  0  0  0  0  0  0  0  0  0  0  0
    6.6624  -16.4124   25.0545 O   0  0  0  0  0  0  0  0  0  0  0  0
    5.9912  -17.3582   25.7945 O   0  0  0  0  0  0  0  0  0  0  0  0
  2  1  1  0
  3  2  2  0
  4  2  1  0
  5  4  1  0
  6  5  1  0
  6  7  1  0
  7  8  1  0
  8  9  1  1
 10  8  1  0
 11 10  2  0
 12 16  1  0
 12 10  1  0
 13 14  1  0
 13 12  1  0
 14 15  1  0
 15 16  1  0
 17 19  1  0
 16 17  1  1
 18 17  2  0
 19 20  1  0
 20 21  1  0
 22 21  1  0
 23 19  1  0
 23 22  1  0
 24 25  1  0
 23 24  1  1
 26 24  2  0
M  END
$$$$
