RPP.pdb
     RDKit          3D

 26 27  0  0  1  0  0  0  0  0999 V2000
    7.9186  -13.7157   18.1861 N   0  0  0  0  0  0  0  0  0  0  0  0
    9.2167  -13.6179   18.7438 C   0  0  0  0  0  0  0  0  0  0  0  0
    9.9126  -12.5330   18.7046 N   0  0  0  0  0  0  0  0  0  0  0  0
    9.7979  -14.7759   19.3871 N   0  0  0  0  0  0  0  0  0  0  0  0
    8.9881  -15.9395   19.6378 C   0  0  0  0  0  0  0  0  0  0  0  0
    8.8927  -16.1642   21.1196 C   0  0  0  0  0  0  0  0  0  0  0  0
    7.4952  -16.0980   21.6136 C   0  0  0  0  0  0  0  0  0  0  0  0
    7.1029  -14.7212   22.0418 C   0  0  2  0  0  0  0  0  0  0  0  0
    7.2669  -13.8112   20.9169 N   0  0  0  0  0  0  0  0  0  0  0  0
    7.9287  -14.3062   23.1967 C   0  0  0  0  0  0  0  0  0  0  0  0
    9.1613  -14.0793   23.0055 O   0  0  0  0  0  0  0  0  0  0  0  0
   10.9009  -12.5505   19.0085 N   0  0  0  0  0  0  0  0  0  0  0  0
    7.3367  -14.1622   24.4699 C   0  0  0  0  0  0  0  0  0  0  0  0
    5.9169  -14.3355   24.8136 C   0  0  0  0  0  0  0  0  0  0  0  0
    5.7728  -13.0769   25.6938 C   0  0  0  0  0  0  0  0  0  0  0  0
    6.9730  -13.2022   26.5821 C   0  0  1  0  0  0  0  0  0  0  0  0
    8.0426  -13.7596   25.6551 C   0  0  0  0  0  0  0  0  0  0  0  0
    8.8772  -14.7463   26.2944 O   0  0  0  0  0  0  0  0  0  0  0  0
    9.0414  -15.8190   25.5533 N   0  0  0  0  0  0  0  0  0  0  0  0
    9.5340  -14.7733   27.5282 C   0  0  0  0  0  0  0  0  0  0  0  0
    9.2540  -13.8482   28.6430 C   0  0  0  0  0  0  0  0  0  0  0  0
   10.6494  -13.4743   29.1275 C   0  0  0  0  0  0  0  0  0  0  0  0
   11.3661  -14.7998   29.0531 C   0  0  1  0  0  0  0  0  0  0  0  0
   10.5474  -15.6406   28.0635 C   0  0  0  0  0  0  0  0  0  0  0  0
    9.9514  -16.7386   28.8847 O   0  0  0  0  0  0  0  0  0  0  0  0
   10.6705  -17.8499   29.2593 O   0  0  0  0  0  0  0  0  0  0  0  0
  2  1  1  0
  3  2  2  0
  4  2  1  0
  5  4  1  0
  6  5  1  0
  6  7  1  0
  7  8  1  0
  8  9  1  6
 10  8  1  0
 11 10  2  0
 12 16  1  0
 12 10  1  0
 13 14  1  0
 13 12  1  0
 14 15  1  0
 15 16  1  0
 17 19  1  0
 16 17  1  6
 18 17  2  0
 19 20  1  0
 20 21  1  0
 22 21  1  0
 23 19  1  0
 23 22  1  0
 24 25  1  0
 23 24  1  1
 26 24  2  0
M  END
$$$$
