RPP.pdb
     RDKit          3D

 26 27  0  0  1  0  0  0  0  0999 V2000
    7.8314  -13.1703   17.0283 N   0  0  0  0  0  0  0  0  0  0  0  0
    8.6075  -14.3409   17.2099 C   0  0  0  0  0  0  0  0  0  0  0  0
    8.9957  -15.0796   16.2267 N   0  0  0  0  0  0  0  0  0  0  0  0
    8.9874  -14.7357   18.5487 N   0  0  0  0  0  0  0  0  0  0  0  0
    8.4185  -15.9205   19.1361 C   0  0  0  0  0  0  0  0  0  0  0  0
    7.2709  -15.5296   20.0224 C   0  0  0  0  0  0  0  0  0  0  0  0
    7.6879  -15.3250   21.4316 C   0  0  0  0  0  0  0  0  0  0  0  0
    7.6761  -13.8849   21.8299 C   0  0  2  0  0  0  0  0  0  0  0  0
    8.3366  -13.1023   20.7947 N   0  0  0  0  0  0  0  0  0  0  0  0
    8.3479  -13.7260   23.1380 C   0  0  0  0  0  0  0  0  0  0  0  0
    9.6073  -13.5809   23.1549 O   0  0  0  0  0  0  0  0  0  0  0  0
    9.4762  -15.9745   16.4208 N   0  0  0  0  0  0  0  0  0  0  0  0
    7.5855  -13.7284   24.3259 C   0  0  0  0  0  0  0  0  0  0  0  0
    6.1259  -13.8696   24.4438 C   0  0  0  0  0  0  0  0  0  0  0  0
    5.9016  -12.7397   25.4698 C   0  0  0  0  0  0  0  0  0  0  0  0
    6.9575  -13.0531   26.4857 C   0  0  2  0  0  0  0  0  0  0  0  0
    8.1285  -13.5340   25.6421 C   0  0  0  0  0  0  0  0  0  0  0  0
    8.8283  -14.6444   26.2389 O   0  0  0  0  0  0  0  0  0  0  0  0
    8.8367  -15.7056   25.4638 N   0  0  0  0  0  0  0  0  0  0  0  0
    9.4893  -14.7991   27.4610 C   0  0  0  0  0  0  0  0  0  0  0  0
    9.1966  -14.0111   28.6736 C   0  0  0  0  0  0  0  0  0  0  0  0
   10.5867  -13.6696   29.1957 C   0  0  0  0  0  0  0  0  0  0  0  0
   11.3264  -14.9651   28.9711 C   0  0  1  0  0  0  0  0  0  0  0  0
   10.5195  -15.7031   27.8936 C   0  0  0  0  0  0  0  0  0  0  0  0
    9.9454  -16.8973   28.5859 O   0  0  0  0  0  0  0  0  0  0  0  0
    8.6053  -17.0044   28.8777 O   0  0  0  0  0  0  0  0  0  0  0  0
  2  1  1  0
  3  2  2  0
  4  2  1  0
  5  4  1  0
  6  5  1  0
  6  7  1  0
  7  8  1  0
  8  9  1  6
 10  8  1  0
 11 10  2  0
 12 16  1  0
 12 10  1  0
 13 14  1  0
 13 12  1  0
 14 15  1  0
 15 16  1  0
 17 19  1  0
 16 17  1  1
 18 17  2  0
 19 20  1  0
 20 21  1  0
 22 21  1  0
 23 19  1  0
 23 22  1  0
 24 25  1  0
 23 24  1  1
 26 24  2  0
M  END
$$$$
