RMG.pdb
     RDKit          3D

 24 23  0  0  1  0  0  0  0  0999 V2000
   25.3570  -25.7009  -17.7228 N   0  0  0  0  0  0  0  0  0  0  0  0
   24.0113  -25.8204  -17.2368 C   0  0  0  0  0  0  0  0  0  0  0  0
   23.4434  -26.9713  -17.1816 N   0  0  0  0  0  0  0  0  0  0  0  0
   23.2961  -24.6566  -16.8106 N   0  0  0  0  0  0  0  0  0  0  0  0
   23.9810  -23.3793  -16.7232 C   0  0  0  0  0  0  0  0  0  0  0  0
   25.0106  -23.4385  -15.6279 C   0  0  0  0  0  0  0  0  0  0  0  0
   25.6303  -22.1211  -15.3074 C   0  0  0  0  0  0  0  0  0  0  0  0
   26.6994  -22.2776  -14.2514 C   0  0  2  0  0  0  0  0  0  0  0  0
   27.2273  -23.6188  -14.4008 N   0  0  0  0  0  0  0  0  0  0  0  0
   26.1590  -22.1409  -12.8805 C   0  0  0  0  0  0  0  0  0  0  0  0
   25.6925  -23.1441  -12.2917 O   0  0  0  0  0  0  0  0  0  0  0  0
   22.4593  -27.0533  -16.8588 C   0  0  0  0  0  0  0  0  0  0  0  0
   26.5484  -19.5861   -5.8335 S   0  0  0  0  0  0  0  0  0  0  0  0
   27.1594  -20.0027   -7.4768 C   0  0  0  0  0  0  0  0  0  0  0  0
   26.1124  -19.4175   -8.7882 C   0  0  0  0  0  0  0  0  0  0  0  0
   26.5369  -19.8475  -10.1429 C   0  0  1  0  0  0  0  0  0  0  0  0
   25.5899  -20.7119  -10.8585 N   0  0  0  0  0  0  0  0  0  0  0  0
   26.1657  -20.8811  -12.2277 C   0  0  0  0  0  0  0  0  0  0  0  0
   24.2338  -20.2395  -11.0425 O   0  0  0  0  0  0  0  0  0  0  0  0
   23.9081  -19.2523  -11.7742 N   0  0  0  0  0  0  0  0  0  0  0  0
   23.1447  -20.9096  -10.3641 C   0  0  0  0  0  0  0  0  0  0  0  0
   21.7759  -20.4445  -10.5915 C   0  0  0  0  0  0  0  0  0  0  0  0
   20.8211  -21.2875   -9.8554 O   0  0  0  0  0  0  0  0  0  0  0  0
   19.4797  -20.9317   -9.8615 O   0  0  0  0  0  0  0  0  0  0  0  0
  1  2  1  0
  2  3  2  0
  4  5  1  0
  4  2  1  0
  6  7  1  0
  6  5  1  0
  8  7  1  0
  8  9  1  1
  8 10  1  0
 10 11  2  0
 13 14  1  0
 13 12  1  0
 16 15  1  1
 15 14  1  0
 17 16  1  0
 17 10  1  0
 18 16  1  0
 18 19  2  0
 20 18  1  0
 21 20  1  0
 22 21  1  0
 23 22  1  0
 24 22  2  0
M  END
$$$$
