RMG.pdb
     RDKit          3D

 24 23  0  0  1  0  0  0  0  0999 V2000
   20.1752  -22.7572   -8.6839 N   0  0  0  0  0  0  0  0  0  0  0  0
   19.4705  -23.2805   -9.8201 C   0  0  0  0  0  0  0  0  0  0  0  0
   19.0429  -24.4918   -9.8142 N   0  0  0  0  0  0  0  0  0  0  0  0
   19.2405  -22.4537  -10.9651 N   0  0  0  0  0  0  0  0  0  0  0  0
   20.3648  -21.9826  -11.7538 C   0  0  0  0  0  0  0  0  0  0  0  0
   21.2628  -21.1398  -10.8899 C   0  0  0  0  0  0  0  0  0  0  0  0
   22.3701  -20.4752  -11.6345 C   0  0  0  0  0  0  0  0  0  0  0  0
   23.4975  -21.4472  -11.8931 C   0  0  2  0  0  0  0  0  0  0  0  0
   23.5456  -22.3308  -10.7455 N   0  0  0  0  0  0  0  0  0  0  0  0
   24.8074  -20.7690  -12.0127 C   0  0  0  0  0  0  0  0  0  0  0  0
   24.8583  -19.5732  -12.3844 O   0  0  0  0  0  0  0  0  0  0  0  0
   18.5342  -24.8702  -10.6374 C   0  0  0  0  0  0  0  0  0  0  0  0
   32.3523  -21.1185   -9.6999 S   0  0  0  0  0  0  0  0  0  0  0  0
   30.6896  -21.8098   -9.7679 C   0  0  0  0  0  0  0  0  0  0  0  0
   29.6511  -21.0321  -10.9825 C   0  0  0  0  0  0  0  0  0  0  0  0
   28.2410  -21.4917  -10.9608 C   0  0  1  0  0  0  0  0  0  0  0  0
   27.3454  -20.8325  -11.9198 N   0  0  0  0  0  0  0  0  0  0  0  0
   26.0067  -21.4637  -11.7091 C   0  0  0  0  0  0  0  0  0  0  0  0
   27.6383  -20.9603  -13.3318 O   0  0  0  0  0  0  0  0  0  0  0  0
   27.5204  -22.0371  -13.9971 N   0  0  0  0  0  0  0  0  0  0  0  0
   28.0999  -19.8064  -14.0739 C   0  0  0  0  0  0  0  0  0  0  0  0
   28.7441  -20.0108  -15.3719 C   0  0  0  0  0  0  0  0  0  0  0  0
   27.7391  -20.0132  -16.4461 O   0  0  0  0  0  0  0  0  0  0  0  0
   28.1627  -19.8099  -17.7519 O   0  0  0  0  0  0  0  0  0  0  0  0
  1  2  1  0
  2  3  2  0
  4  5  1  0
  4  2  1  0
  6  7  1  0
  6  5  1  0
  8  7  1  0
  8  9  1  1
  8 10  1  0
 10 11  2  0
 13 14  1  0
 13 12  1  0
 16 15  1  1
 15 14  1  0
 17 16  1  0
 17 10  1  0
 18 16  1  0
 18 19  2  0
 20 18  1  0
 21 20  1  0
 22 21  1  0
 23 22  1  0
 24 22  2  0
M  END
$$$$
