RMG.pdb
     RDKit          3D

 24 23  0  0  1  0  0  0  0  0999 V2000
   19.5486  -24.2425   -7.1132 N   0  0  0  0  0  0  0  0  0  0  0  0
   18.3073  -24.1967   -7.8332 C   0  0  0  0  0  0  0  0  0  0  0  0
   17.1906  -24.2647   -7.2020 N   0  0  0  0  0  0  0  0  0  0  0  0
   18.3088  -24.0743   -9.2589 N   0  0  0  0  0  0  0  0  0  0  0  0
   19.5640  -23.9027   -9.9681 C   0  0  0  0  0  0  0  0  0  0  0  0
   19.9293  -22.4435   -9.9911 C   0  0  0  0  0  0  0  0  0  0  0  0
   21.1729  -22.1425  -10.7560 C   0  0  0  0  0  0  0  0  0  0  0  0
   21.5057  -20.6709  -10.6749 C   0  0  2  0  0  0  0  0  0  0  0  0
   20.8431  -20.0403  -11.7988 N   0  0  0  0  0  0  0  0  0  0  0  0
   22.9590  -20.4167  -10.7898 C   0  0  0  0  0  0  0  0  0  0  0  0
   23.4226  -19.9142  -11.8402 O   0  0  0  0  0  0  0  0  0  0  0  0
   16.2938  -24.2729   -7.7265 C   0  0  0  0  0  0  0  0  0  0  0  0
   27.6362  -18.6135   -5.8796 S   0  0  0  0  0  0  0  0  0  0  0  0
   27.7565  -20.2934   -6.5204 C   0  0  0  0  0  0  0  0  0  0  0  0
   27.2401  -20.4410   -8.2145 C   0  0  0  0  0  0  0  0  0  0  0  0
   25.7739  -20.5761   -8.3936 C   0  0  1  0  0  0  0  0  0  0  0  0
   25.2828  -20.3815   -9.7638 N   0  0  0  0  0  0  0  0  0  0  0  0
   23.8317  -20.7379   -9.7182 C   0  0  0  0  0  0  0  0  0  0  0  0
   25.8655  -21.1803  -10.8213 O   0  0  0  0  0  0  0  0  0  0  0  0
   25.6161  -22.4118  -11.0144 N   0  0  0  0  0  0  0  0  0  0  0  0
   26.8012  -20.5730  -11.7437 C   0  0  0  0  0  0  0  0  0  0  0  0
   27.4886  -21.4228  -12.7169 C   0  0  0  0  0  0  0  0  0  0  0  0
   26.8602  -21.2946  -14.0408 O   0  0  0  0  0  0  0  0  0  0  0  0
   27.4774  -21.8944  -15.1294 O   0  0  0  0  0  0  0  0  0  0  0  0
  1  2  1  0
  2  3  2  0
  4  5  1  0
  4  2  1  0
  6  7  1  0
  6  5  1  0
  8  7  1  0
  8  9  1  6
  8 10  1  0
 10 11  2  0
 13 14  1  0
 13 12  1  0
 16 15  1  1
 15 14  1  0
 17 16  1  0
 17 10  1  0
 18 16  1  0
 18 19  2  0
 20 18  1  0
 21 20  1  0
 22 21  1  0
 23 22  1  0
 24 22  2  0
M  END
$$$$
