RMG.pdb
     RDKit          3D

 24 23  0  0  1  0  0  0  0  0999 V2000
   25.8801  -23.4350  -17.2585 N   0  0  0  0  0  0  0  0  0  0  0  0
   25.1141  -23.2567  -16.0573 C   0  0  0  0  0  0  0  0  0  0  0  0
   24.6763  -24.2775  -15.4120 N   0  0  0  0  0  0  0  0  0  0  0  0
   24.8355  -21.9395  -15.5727 N   0  0  0  0  0  0  0  0  0  0  0  0
   25.3569  -20.7839  -16.2804 C   0  0  0  0  0  0  0  0  0  0  0  0
   26.8519  -20.7326  -16.1198 C   0  0  0  0  0  0  0  0  0  0  0  0
   27.3190  -19.7386  -15.1118 C   0  0  0  0  0  0  0  0  0  0  0  0
   28.0495  -20.4273  -13.9827 C   0  0  2  0  0  0  0  0  0  0  0  0
   28.8196  -21.4959  -14.5868 N   0  0  0  0  0  0  0  0  0  0  0  0
   27.1226  -21.0233  -12.9951 C   0  0  0  0  0  0  0  0  0  0  0  0
   26.8114  -22.2341  -13.0841 O   0  0  0  0  0  0  0  0  0  0  0  0
   24.0839  -24.1474  -14.5684 C   0  0  0  0  0  0  0  0  0  0  0  0
   25.9535  -19.3343   -6.4629 S   0  0  0  0  0  0  0  0  0  0  0  0
   27.4097  -19.7851   -7.4239 C   0  0  0  0  0  0  0  0  0  0  0  0
   27.0260  -20.6930   -8.9027 C   0  0  0  0  0  0  0  0  0  0  0  0
   25.9071  -20.1236   -9.6927 C   0  0  2  0  0  0  0  0  0  0  0  0
   25.6166  -20.8046  -10.9607 N   0  0  0  0  0  0  0  0  0  0  0  0
   26.5835  -20.2330  -11.9473 C   0  0  0  0  0  0  0  0  0  0  0  0
   24.2998  -20.6430  -11.5403 O   0  0  0  0  0  0  0  0  0  0  0  0
   23.8742  -19.5701  -12.0731 N   0  0  0  0  0  0  0  0  0  0  0  0
   23.3736  -21.7554  -11.5328 C   0  0  0  0  0  0  0  0  0  0  0  0
   22.1884  -21.6955  -12.3893 C   0  0  0  0  0  0  0  0  0  0  0  0
   21.0609  -21.0948  -11.6599 O   0  0  0  0  0  0  0  0  0  0  0  0
   19.8343  -20.9933  -12.3010 O   0  0  0  0  0  0  0  0  0  0  0  0
  1  2  1  0
  2  3  2  0
  4  5  1  0
  4  2  1  0
  6  7  1  0
  6  5  1  0
  8  7  1  0
  8  9  1  6
  8 10  1  0
 10 11  2  0
 13 14  1  0
 13 12  1  0
 16 15  1  1
 15 14  1  0
 17 16  1  0
 17 10  1  0
 18 16  1  0
 18 19  2  0
 20 18  1  0
 21 20  1  0
 22 21  1  0
 23 22  1  0
 24 22  2  0
M  END
$$$$
