RMG.pdb
     RDKit          3D

 24 23  0  0  1  0  0  0  0  0999 V2000
   27.0842  -24.5543  -15.9622 N   0  0  0  0  0  0  0  0  0  0  0  0
   28.2259  -23.9196  -16.5582 C   0  0  0  0  0  0  0  0  0  0  0  0
   29.2666  -24.6103  -16.8581 N   0  0  0  0  0  0  0  0  0  0  0  0
   28.2089  -22.5132  -16.8217 N   0  0  0  0  0  0  0  0  0  0  0  0
   27.2649  -21.6587  -16.1242 C   0  0  0  0  0  0  0  0  0  0  0  0
   27.9659  -20.9606  -14.9908 C   0  0  0  0  0  0  0  0  0  0  0  0
   27.7728  -21.6141  -13.6650 C   0  0  0  0  0  0  0  0  0  0  0  0
   26.4948  -21.1362  -13.0160 C   0  0  2  0  0  0  0  0  0  0  0  0
   26.5076  -19.6900  -13.1060 N   0  0  0  0  0  0  0  0  0  0  0  0
   26.4159  -21.5124  -11.5870 C   0  0  0  0  0  0  0  0  0  0  0  0
   26.4264  -22.7221  -11.2595 O   0  0  0  0  0  0  0  0  0  0  0  0
   30.0957  -24.1487  -17.2812 C   0  0  0  0  0  0  0  0  0  0  0  0
   29.2501  -19.2393   -6.5051 S   0  0  0  0  0  0  0  0  0  0  0  0
   27.5915  -19.3293   -5.8062 C   0  0  0  0  0  0  0  0  0  0  0  0
   26.4244  -20.1537   -6.8629 C   0  0  0  0  0  0  0  0  0  0  0  0
   26.7444  -20.0647   -8.3085 C   0  0  1  0  0  0  0  0  0  0  0  0
   25.8697  -20.8378   -9.1993 N   0  0  0  0  0  0  0  0  0  0  0  0
   26.3286  -20.5122  -10.5844 C   0  0  0  0  0  0  0  0  0  0  0  0
   24.4476  -20.5685   -9.1676 O   0  0  0  0  0  0  0  0  0  0  0  0
   23.6985  -20.7715   -8.1608 N   0  0  0  0  0  0  0  0  0  0  0  0
   23.7950  -20.0311  -10.3425 C   0  0  0  0  0  0  0  0  0  0  0  0
   22.3610  -19.7440  -10.2869 C   0  0  0  0  0  0  0  0  0  0  0  0
   21.6498  -20.4890  -11.3373 O   0  0  0  0  0  0  0  0  0  0  0  0
   20.5610  -21.2699  -10.9758 O   0  0  0  0  0  0  0  0  0  0  0  0
  1  2  1  0
  2  3  2  0
  4  5  1  0
  4  2  1  0
  6  7  1  0
  6  5  1  0
  8  7  1  0
  8  9  1  1
  8 10  1  0
 10 11  2  0
 13 14  1  0
 13 12  1  0
 16 15  1  1
 15 14  1  0
 17 16  1  0
 17 10  1  0
 18 16  1  0
 18 19  2  0
 20 18  1  0
 21 20  1  0
 22 21  1  0
 23 22  1  0
 24 22  2  0
M  END
$$$$
