RMG.pdb
     RDKit          3D

 24 23  0  0  1  0  0  0  0  0999 V2000
   22.8311  -25.9379  -13.1132 N   0  0  0  0  0  0  0  0  0  0  0  0
   21.4056  -25.9692  -13.2819 C   0  0  0  0  0  0  0  0  0  0  0  0
   20.7554  -27.0602  -13.0889 N   0  0  0  0  0  0  0  0  0  0  0  0
   20.7021  -24.7837  -13.6653 N   0  0  0  0  0  0  0  0  0  0  0  0
   21.2851  -23.4803  -13.4019 C   0  0  0  0  0  0  0  0  0  0  0  0
   21.6992  -22.8464  -14.7019 C   0  0  0  0  0  0  0  0  0  0  0  0
   22.3159  -21.4979  -14.5488 C   0  0  0  0  0  0  0  0  0  0  0  0
   22.1451  -20.9907  -13.1359 C   0  0  2  0  0  0  0  0  0  0  0  0
   21.1638  -19.9264  -13.2003 N   0  0  0  0  0  0  0  0  0  0  0  0
   23.3998  -20.4334  -12.5837 C   0  0  0  0  0  0  0  0  0  0  0  0
   23.7692  -19.2824  -12.9148 O   0  0  0  0  0  0  0  0  0  0  0  0
   19.7242  -27.0826  -13.2137 C   0  0  0  0  0  0  0  0  0  0  0  0
   27.9249  -19.5408   -6.4675 S   0  0  0  0  0  0  0  0  0  0  0  0
   26.4647  -20.1736   -7.3127 C   0  0  0  0  0  0  0  0  0  0  0  0
   26.7432  -20.5300   -9.0314 C   0  0  0  0  0  0  0  0  0  0  0  0
   25.5368  -20.9934   -9.7595 C   0  0  2  0  0  0  0  0  0  0  0  0
   25.5124  -20.6970  -11.1975 N   0  0  0  0  0  0  0  0  0  0  0  0
   24.1879  -21.1934  -11.6813 C   0  0  0  0  0  0  0  0  0  0  0  0
   26.5124  -21.3151  -12.0425 O   0  0  0  0  0  0  0  0  0  0  0  0
   27.0298  -22.4566  -11.8291 N   0  0  0  0  0  0  0  0  0  0  0  0
   26.9827  -20.6186  -13.2210 C   0  0  0  0  0  0  0  0  0  0  0  0
   28.0132  -21.2455  -14.0499 C   0  0  0  0  0  0  0  0  0  0  0  0
   28.2960  -20.4132  -15.2295 O   0  0  0  0  0  0  0  0  0  0  0  0
   29.2990  -20.8152  -16.1003 O   0  0  0  0  0  0  0  0  0  0  0  0
  1  2  1  0
  2  3  2  0
  4  5  1  0
  4  2  1  0
  6  7  1  0
  6  5  1  0
  8  7  1  0
  8  9  1  6
  8 10  1  0
 10 11  2  0
 13 14  1  0
 13 12  1  0
 16 15  1  1
 15 14  1  0
 17 16  1  0
 17 10  1  0
 18 16  1  0
 18 19  2  0
 20 18  1  0
 21 20  1  0
 22 21  1  0
 23 22  1  0
 24 22  2  0
M  END
$$$$
