RMG.pdb
     RDKit          3D

 24 23  0  0  1  0  0  0  0  0999 V2000
   30.3727  -17.4783  -17.8006 N   0  0  0  0  0  0  0  0  0  0  0  0
   29.2002  -16.9327  -18.4243 C   0  0  0  0  0  0  0  0  0  0  0  0
   29.2345  -16.5629  -19.6540 N   0  0  0  0  0  0  0  0  0  0  0  0
   27.9866  -16.7992  -17.6781 N   0  0  0  0  0  0  0  0  0  0  0  0
   27.9232  -17.2801  -16.3096 C   0  0  0  0  0  0  0  0  0  0  0  0
   27.9696  -18.7838  -16.3059 C   0  0  0  0  0  0  0  0  0  0  0  0
   27.7892  -19.3920  -14.9569 C   0  0  0  0  0  0  0  0  0  0  0  0
   26.4328  -20.0481  -14.8449 C   0  0  2  0  0  0  0  0  0  0  0  0
   25.4550  -18.9835  -14.9467 N   0  0  0  0  0  0  0  0  0  0  0  0
   26.2443  -20.7296  -13.5449 C   0  0  0  0  0  0  0  0  0  0  0  0
   26.9836  -21.6924  -13.2331 O   0  0  0  0  0  0  0  0  0  0  0  0
   28.3918  -16.1486  -20.0986 C   0  0  0  0  0  0  0  0  0  0  0  0
   28.4760  -20.0303   -7.4056 S   0  0  0  0  0  0  0  0  0  0  0  0
   26.9495  -19.5476   -8.2326 C   0  0  0  0  0  0  0  0  0  0  0  0
   26.4644  -20.6646   -9.5269 C   0  0  0  0  0  0  0  0  0  0  0  0
   25.2726  -20.2263  -10.2935 C   0  0  2  0  0  0  0  0  0  0  0  0
   24.8945  -21.0860  -11.4223 N   0  0  0  0  0  0  0  0  0  0  0  0
   25.2319  -20.3001  -12.6484 C   0  0  0  0  0  0  0  0  0  0  0  0
   23.5056  -21.4723  -11.5554 O   0  0  0  0  0  0  0  0  0  0  0  0
   22.8132  -22.0009  -10.6296 N   0  0  0  0  0  0  0  0  0  0  0  0
   22.8213  -21.2591  -12.8130 C   0  0  0  0  0  0  0  0  0  0  0  0
   21.4639  -21.7809  -12.9777 C   0  0  0  0  0  0  0  0  0  0  0  0
   20.4762  -20.7129  -12.7587 O   0  0  0  0  0  0  0  0  0  0  0  0
   20.9336  -19.4346  -12.4713 O   0  0  0  0  0  0  0  0  0  0  0  0
  1  2  1  0
  2  3  2  0
  4  5  1  0
  4  2  1  0
  6  7  1  0
  6  5  1  0
  8  7  1  0
  8  9  1  1
  8 10  1  0
 10 11  2  0
 13 14  1  0
 13 12  1  0
 16 15  1  6
 15 14  1  0
 17 16  1  0
 17 10  1  0
 18 16  1  0
 18 19  2  0
 20 18  1  0
 21 20  1  0
 22 21  1  0
 23 22  1  0
 24 22  2  0
M  END
$$$$
