RMG.pdb
     RDKit          3D

 24 23  0  0  1  0  0  0  0  0999 V2000
   30.3211  -25.1561  -16.4347 N   0  0  0  0  0  0  0  0  0  0  0  0
   28.9688  -25.6377  -16.4048 C   0  0  0  0  0  0  0  0  0  0  0  0
   28.7245  -26.8608  -16.0976 N   0  0  0  0  0  0  0  0  0  0  0  0
   27.8860  -24.7558  -16.7168 N   0  0  0  0  0  0  0  0  0  0  0  0
   28.1622  -23.4197  -17.2134 C   0  0  0  0  0  0  0  0  0  0  0  0
   28.6834  -22.5667  -16.0891 C   0  0  0  0  0  0  0  0  0  0  0  0
   27.6365  -21.7465  -15.4157 C   0  0  0  0  0  0  0  0  0  0  0  0
   26.9829  -20.8041  -16.3993 C   0  0  2  0  0  0  0  0  0  0  0  0
   28.0261  -19.9128  -16.8652 N   0  0  0  0  0  0  0  0  0  0  0  0
   25.9194  -19.9876  -15.7731 C   0  0  0  0  0  0  0  0  0  0  0  0
   26.1422  -18.7881  -15.4861 O   0  0  0  0  0  0  0  0  0  0  0  0
   27.7436  -27.1965  -16.0302 C   0  0  0  0  0  0  0  0  0  0  0  0
   22.8126  -16.8845  -18.6439 S   0  0  0  0  0  0  0  0  0  0  0  0
   23.5225  -16.1794  -17.1452 C   0  0  0  0  0  0  0  0  0  0  0  0
   23.9345  -17.3976  -15.9187 C   0  0  0  0  0  0  0  0  0  0  0  0
   23.3131  -18.7250  -16.1473 C   0  0  2  0  0  0  0  0  0  0  0  0
   23.4953  -19.7037  -15.0679 N   0  0  0  0  0  0  0  0  0  0  0  0
   24.6484  -20.5537  -15.4952 C   0  0  0  0  0  0  0  0  0  0  0  0
   22.4066  -20.6118  -14.7742 O   0  0  0  0  0  0  0  0  0  0  0  0
   22.0571  -21.5815  -15.5182 N   0  0  0  0  0  0  0  0  0  0  0  0
   21.6380  -20.4380  -13.5600 C   0  0  0  0  0  0  0  0  0  0  0  0
   20.4623  -21.2812  -13.3396 C   0  0  0  0  0  0  0  0  0  0  0  0
   19.3138  -20.7649  -14.1000 O   0  0  0  0  0  0  0  0  0  0  0  0
   18.0950  -21.4189  -13.9872 O   0  0  0  0  0  0  0  0  0  0  0  0
  1  2  1  0
  2  3  2  0
  4  5  1  0
  4  2  1  0
  6  7  1  0
  6  5  1  0
  8  7  1  0
  8  9  1  1
  8 10  1  0
 10 11  2  0
 13 14  1  0
 13 12  1  0
 16 15  1  1
 15 14  1  0
 17 16  1  0
 17 10  1  0
 18 16  1  0
 18 19  2  0
 20 18  1  0
 21 20  1  0
 22 21  1  0
 23 22  1  0
 24 22  2  0
M  END
$$$$
