RMG.pdb
     RDKit          3D

 24 23  0  0  1  0  0  0  0  0999 V2000
   23.3068  -20.4845  -18.5102 N   0  0  0  0  0  0  0  0  0  0  0  0
   22.6985  -21.7838  -18.5643 C   0  0  0  0  0  0  0  0  0  0  0  0
   22.3489  -22.2878  -19.6930 N   0  0  0  0  0  0  0  0  0  0  0  0
   22.4792  -22.5244  -17.3596 N   0  0  0  0  0  0  0  0  0  0  0  0
   22.7256  -21.8996  -16.0724 C   0  0  0  0  0  0  0  0  0  0  0  0
   21.7167  -20.8067  -15.8464 C   0  0  0  0  0  0  0  0  0  0  0  0
   21.8828  -20.0875  -14.5512 C   0  0  0  0  0  0  0  0  0  0  0  0
   22.1219  -21.0657  -13.4249 C   0  0  2  0  0  0  0  0  0  0  0  0
   20.8918  -21.1166  -12.6607 N   0  0  0  0  0  0  0  0  0  0  0  0
   23.2114  -20.6291  -12.5237 C   0  0  0  0  0  0  0  0  0  0  0  0
   23.0969  -19.5595  -11.8804 O   0  0  0  0  0  0  0  0  0  0  0  0
   21.9113  -23.2293  -19.7316 C   0  0  0  0  0  0  0  0  0  0  0  0
   25.1847  -20.4159   -7.6960 S   0  0  0  0  0  0  0  0  0  0  0  0
   26.8996  -20.7549   -8.1336 C   0  0  0  0  0  0  0  0  0  0  0  0
   27.1136  -21.2300   -9.8326 C   0  0  0  0  0  0  0  0  0  0  0  0
   25.8484  -21.5446  -10.5401 C   0  0  1  0  0  0  0  0  0  0  0  0
   25.6408  -20.8380  -11.8104 N   0  0  0  0  0  0  0  0  0  0  0  0
   24.3852  -21.4135  -12.3825 C   0  0  0  0  0  0  0  0  0  0  0  0
   26.6520  -20.9640  -12.8388 O   0  0  0  0  0  0  0  0  0  0  0  0
   26.6750  -21.8822  -13.7176 N   0  0  0  0  0  0  0  0  0  0  0  0
   27.7284  -19.9985  -12.9055 C   0  0  0  0  0  0  0  0  0  0  0  0
   27.5579  -18.8043  -13.7341 C   0  0  0  0  0  0  0  0  0  0  0  0
   27.6725  -19.1508  -15.1591 O   0  0  0  0  0  0  0  0  0  0  0  0
   27.6592  -18.1258  -16.0946 O   0  0  0  0  0  0  0  0  0  0  0  0
  1  2  1  0
  2  3  2  0
  4  5  1  0
  4  2  1  0
  6  7  1  0
  6  5  1  0
  8  7  1  0
  8  9  1  1
  8 10  1  0
 10 11  2  0
 13 14  1  0
 13 12  1  0
 16 15  1  1
 15 14  1  0
 17 16  1  0
 17 10  1  0
 18 16  1  0
 18 19  2  0
 20 18  1  0
 21 20  1  0
 22 21  1  0
 23 22  1  0
 24 22  2  0
M  END
$$$$
