RMG.pdb
     RDKit          3D

 24 23  0  0  1  0  0  0  0  0999 V2000
   17.4011  -24.3260  -13.3609 N   0  0  0  0  0  0  0  0  0  0  0  0
   18.8030  -24.6050  -13.2261 C   0  0  0  0  0  0  0  0  0  0  0  0
   19.3134  -25.6409  -13.7888 N   0  0  0  0  0  0  0  0  0  0  0  0
   19.6390  -23.7289  -12.4638 N   0  0  0  0  0  0  0  0  0  0  0  0
   19.7771  -22.3381  -12.8572 C   0  0  0  0  0  0  0  0  0  0  0  0
   20.1196  -22.2645  -14.3203 C   0  0  0  0  0  0  0  0  0  0  0  0
   21.5066  -21.7921  -14.5946 C   0  0  0  0  0  0  0  0  0  0  0  0
   21.7302  -20.4210  -14.0004 C   0  0  2  0  0  0  0  0  0  0  0  0
   21.3288  -19.4666  -15.0143 N   0  0  0  0  0  0  0  0  0  0  0  0
   23.1518  -20.1774  -13.6695 C   0  0  0  0  0  0  0  0  0  0  0  0
   23.8571  -19.4744  -14.4305 O   0  0  0  0  0  0  0  0  0  0  0  0
   20.3062  -25.8935  -13.6157 C   0  0  0  0  0  0  0  0  0  0  0  0
   26.3315  -19.0700   -7.8295 S   0  0  0  0  0  0  0  0  0  0  0  0
   26.8306  -20.6734   -8.4830 C   0  0  0  0  0  0  0  0  0  0  0  0
   26.7162  -20.7805  -10.2533 C   0  0  0  0  0  0  0  0  0  0  0  0
   25.3270  -20.8125  -10.7721 C   0  0  1  0  0  0  0  0  0  0  0  0
   25.1890  -20.6397  -12.2237 N   0  0  0  0  0  0  0  0  0  0  0  0
   23.7221  -20.7343  -12.4957 C   0  0  0  0  0  0  0  0  0  0  0  0
   25.8277  -21.6049  -13.0934 O   0  0  0  0  0  0  0  0  0  0  0  0
   25.6800  -22.8643  -13.0029 N   0  0  0  0  0  0  0  0  0  0  0  0
   26.7025  -21.1458  -14.1513 C   0  0  0  0  0  0  0  0  0  0  0  0
   27.4166  -22.1355  -14.9590 C   0  0  0  0  0  0  0  0  0  0  0  0
   28.1883  -21.4687  -16.0191 O   0  0  0  0  0  0  0  0  0  0  0  0
   29.1439  -22.2035  -16.7067 O   0  0  0  0  0  0  0  0  0  0  0  0
  1  2  1  0
  2  3  2  0
  4  5  1  0
  4  2  1  0
  6  7  1  0
  6  5  1  0
  8  7  1  0
  8  9  1  6
  8 10  1  0
 10 11  2  0
 13 14  1  0
 13 12  1  0
 16 15  1  1
 15 14  1  0
 17 16  1  0
 17 10  1  0
 18 16  1  0
 18 19  2  0
 20 18  1  0
 21 20  1  0
 22 21  1  0
 23 22  1  0
 24 22  2  0
M  END
$$$$
