RMG.pdb
     RDKit          3D

 24 23  0  0  1  0  0  0  0  0999 V2000
   17.7061  -22.8559  -10.8279 N   0  0  0  0  0  0  0  0  0  0  0  0
   17.3481  -22.5651  -12.1876 C   0  0  0  0  0  0  0  0  0  0  0  0
   16.1206  -22.6285  -12.5608 N   0  0  0  0  0  0  0  0  0  0  0  0
   18.3585  -22.2024  -13.1337 N   0  0  0  0  0  0  0  0  0  0  0  0
   19.7214  -21.9795  -12.6858 C   0  0  0  0  0  0  0  0  0  0  0  0
   19.7285  -20.9250  -11.6128 C   0  0  0  0  0  0  0  0  0  0  0  0
   21.0933  -20.4923  -11.1978 C   0  0  0  0  0  0  0  0  0  0  0  0
   22.0894  -20.7322  -12.3082 C   0  0  2  0  0  0  0  0  0  0  0  0
   22.1521  -22.1675  -12.4971 N   0  0  0  0  0  0  0  0  0  0  0  0
   23.4445  -20.2494  -11.9611 C   0  0  0  0  0  0  0  0  0  0  0  0
   23.6491  -19.0222  -11.8100 O   0  0  0  0  0  0  0  0  0  0  0  0
   15.8652  -22.4405  -13.5503 C   0  0  0  0  0  0  0  0  0  0  0  0
   27.7288  -19.7171   -7.1528 S   0  0  0  0  0  0  0  0  0  0  0  0
   26.0569  -20.2892   -7.5054 C   0  0  0  0  0  0  0  0  0  0  0  0
   25.5647  -20.0329   -9.1938 C   0  0  0  0  0  0  0  0  0  0  0  0
   26.1961  -20.9652  -10.1594 C   0  0  2  0  0  0  0  0  0  0  0  0
   25.9156  -20.6959  -11.5754 N   0  0  0  0  0  0  0  0  0  0  0  0
   24.5144  -21.1670  -11.7976 C   0  0  0  0  0  0  0  0  0  0  0  0
   26.7304  -21.3557  -12.5738 O   0  0  0  0  0  0  0  0  0  0  0  0
   27.1293  -22.5602  -12.4965 N   0  0  0  0  0  0  0  0  0  0  0  0
   27.1407  -20.6288  -13.7564 C   0  0  0  0  0  0  0  0  0  0  0  0
   27.6568  -21.3769  -14.9036 C   0  0  0  0  0  0  0  0  0  0  0  0
   27.8778  -20.4744  -16.0441 O   0  0  0  0  0  0  0  0  0  0  0  0
   29.1762  -20.2779  -16.4931 O   0  0  0  0  0  0  0  0  0  0  0  0
  1  2  1  0
  2  3  2  0
  4  5  1  0
  4  2  1  0
  6  7  1  0
  6  5  1  0
  8  7  1  0
  8  9  1  1
  8 10  1  0
 10 11  2  0
 13 14  1  0
 13 12  1  0
 16 15  1  1
 15 14  1  0
 17 16  1  0
 17 10  1  0
 18 16  1  0
 18 19  2  0
 20 18  1  0
 21 20  1  0
 22 21  1  0
 23 22  1  0
 24 22  2  0
M  END
$$$$
