NTY.pdb
     RDKit          3D

 28 28  0  0  1  0  0  0  0  0999 V2000
   10.7360  -19.5111   16.9404 N   0  0  0  0  0  0  0  0  0  0  0  0
   11.5706  -18.5210   17.5130 C   0  0  0  0  0  0  0  0  0  0  0  0
   12.8139  -18.6307   17.3971 O   0  0  0  0  0  0  0  0  0  0  0  0
   10.9630  -17.3771   18.2334 C   0  0  0  0  0  0  0  0  0  0  0  0
    9.4657  -17.5671   18.3020 C   0  0  2  0  0  0  0  0  0  0  0  0
    8.7679  -17.1967   17.1221 N   0  0  0  0  0  0  0  0  0  0  0  0
    8.9308  -16.9403   19.5467 C   0  0  0  0  0  0  0  0  0  0  0  0
    8.7911  -15.6995   19.5681 O   0  0  0  0  0  0  0  0  0  0  0  0
    6.0926  -17.5717   23.5318 C   0  0  0  0  0  0  0  0  0  0  0  0
    6.8450  -18.1285   22.3437 C   0  0  1  0  0  0  0  0  0  0  0  0
    5.9024  -18.3675   21.3500 O   0  0  0  0  0  0  0  0  0  0  0  0
    7.9265  -17.1604   21.8753 C   0  0  2  0  0  0  0  0  0  0  0  0
    8.5838  -17.6989   20.6817 N   0  0  0  0  0  0  0  0  0  0  0  0
    8.9064  -17.0270   22.9811 C   0  0  0  0  0  0  0  0  0  0  0  0
    9.7653  -17.9174   23.1977 O   0  0  0  0  0  0  0  0  0  0  0  0
    5.3902  -11.7438   26.7433 O   0  0  0  0  0  0  0  0  0  0  0  0
    6.5755  -12.3654   26.3342 C   0  0  0  0  0  0  0  0  0  0  0  0
    6.9197  -12.5237   25.0133 C   0  0  0  0  0  0  0  0  0  0  0  0
    8.0918  -13.1389   24.6153 C   0  0  0  0  0  0  0  0  0  0  0  0
    8.9344  -13.6054   25.6024 C   0  0  0  0  0  0  0  0  0  0  0  0
   10.1951  -14.2699   25.1885 C   0  0  0  0  0  0  0  0  0  0  0  0
    9.9661  -15.7295   24.8615 C   0  0  2  0  0  0  0  0  0  0  0  0
    8.9356  -15.8961   23.8549 N   0  0  0  0  0  0  0  0  0  0  0  0
    9.5985  -16.5063   26.0662 C   0  0  0  0  0  0  0  0  0  0  0  0
    8.4148  -16.8880   26.2042 O   0  0  0  0  0  0  0  0  0  0  0  0
    8.5955  -13.4497   26.9261 C   0  0  0  0  0  0  0  0  0  0  0  0
    7.4145  -12.8300   27.3312 C   0  0  0  0  0  0  0  0  0  0  0  0
   10.4988  -16.8410   27.0672 O   0  0  0  0  0  0  0  0  0  0  0  0
  2  1  1  0
  2  3  2  0
  4  5  1  0
  4  2  1  0
  5  7  1  0
  5  6  1  6
  7  8  2  0
 10  9  1  1
 10 11  1  0
 10 12  1  0
 12 14  1  0
 12 13  1  6
 13  7  1  0
 14 15  2  0
 14 23  1  0
 16 17  1  0
 17 18  2  0
 18 19  1  0
 20 21  1  0
 20 19  2  0
 22 21  1  1
 22 24  1  0
 23 22  1  0
 24 25  2  0
 24 28  1  0
 26 20  1  0
 27 26  2  0
 27 17  1  0
M  END
$$$$
