NTY.pdb
     RDKit          3D

 28 28  0  0  1  0  0  0  0  0999 V2000
   13.2854  -17.3657   15.9506 N   0  0  0  0  0  0  0  0  0  0  0  0
   12.7898  -17.7705   17.2136 C   0  0  0  0  0  0  0  0  0  0  0  0
   12.7348  -18.9935   17.4830 O   0  0  0  0  0  0  0  0  0  0  0  0
   12.3494  -16.7469   18.1908 C   0  0  0  0  0  0  0  0  0  0  0  0
   10.9533  -17.0761   18.6655 C   0  0  2  0  0  0  0  0  0  0  0  0
    9.9711  -17.1028   17.6404 N   0  0  0  0  0  0  0  0  0  0  0  0
   10.5953  -16.2111   19.8282 C   0  0  0  0  0  0  0  0  0  0  0  0
   11.5108  -15.5807   20.3974 O   0  0  0  0  0  0  0  0  0  0  0  0
    7.3092  -13.8360   19.9577 C   0  0  0  0  0  0  0  0  0  0  0  0
    7.4102  -14.7579   21.1526 C   0  0  1  0  0  0  0  0  0  0  0  0
    6.5729  -15.8379   20.8960 O   0  0  0  0  0  0  0  0  0  0  0  0
    8.8508  -15.2024   21.3835 C   0  0  2  0  0  0  0  0  0  0  0  0
    9.2718  -16.0875   20.2944 N   0  0  0  0  0  0  0  0  0  0  0  0
    8.8847  -15.9311   22.6753 C   0  0  0  0  0  0  0  0  0  0  0  0
    8.9653  -17.1839   22.7115 O   0  0  0  0  0  0  0  0  0  0  0  0
    5.4622  -10.7202   26.3099 O   0  0  0  0  0  0  0  0  0  0  0  0
    6.3707  -11.7848   26.3184 C   0  0  0  0  0  0  0  0  0  0  0  0
    7.6865  -11.6481   25.9465 C   0  0  0  0  0  0  0  0  0  0  0  0
    8.5792  -12.7035   25.9565 C   0  0  0  0  0  0  0  0  0  0  0  0
    8.1066  -13.9348   26.3597 C   0  0  0  0  0  0  0  0  0  0  0  0
    9.0541  -15.0769   26.3728 C   0  0  0  0  0  0  0  0  0  0  0  0
    8.8255  -15.9953   25.1921 C   0  0  2  0  0  0  0  0  0  0  0  0
    8.8293  -15.2654   23.9391 N   0  0  0  0  0  0  0  0  0  0  0  0
    7.5515  -16.7374   25.3182 C   0  0  0  0  0  0  0  0  0  0  0  0
    6.6006  -16.4437   24.5596 O   0  0  0  0  0  0  0  0  0  0  0  0
    6.7907  -14.0778   26.7332 C   0  0  0  0  0  0  0  0  0  0  0  0
    5.8878  -13.0160   26.7243 C   0  0  0  0  0  0  0  0  0  0  0  0
    7.3433  -17.7527   26.2403 O   0  0  0  0  0  0  0  0  0  0  0  0
  2  1  1  0
  2  3  2  0
  4  5  1  0
  4  2  1  0
  5  7  1  0
  5  6  1  6
  7  8  2  0
 10  9  1  6
 10 11  1  0
 10 12  1  0
 12 14  1  0
 12 13  1  6
 13  7  1  0
 14 15  2  0
 14 23  1  0
 16 17  1  0
 17 18  2  0
 18 19  1  0
 20 21  1  0
 20 19  2  0
 22 21  1  1
 22 24  1  0
 23 22  1  0
 24 25  2  0
 24 28  1  0
 26 20  1  0
 27 26  2  0
 27 17  1  0
M  END
$$$$
