NTY.pdb
     RDKit          3D

 28 28  0  0  1  0  0  0  0  0999 V2000
   14.6207  -14.8480   20.2058 N   0  0  0  0  0  0  0  0  0  0  0  0
   13.8055  -14.2706   19.2026 C   0  0  0  0  0  0  0  0  0  0  0  0
   14.2642  -14.1440   18.0429 O   0  0  0  0  0  0  0  0  0  0  0  0
   12.4306  -13.8303   19.5384 C   0  0  0  0  0  0  0  0  0  0  0  0
   11.4566  -14.9381   19.2116 C   0  0  2  0  0  0  0  0  0  0  0  0
   11.0741  -15.0053   17.8458 N   0  0  0  0  0  0  0  0  0  0  0  0
   10.3075  -14.9009   20.1636 C   0  0  0  0  0  0  0  0  0  0  0  0
    9.4904  -13.9617   20.0642 O   0  0  0  0  0  0  0  0  0  0  0  0
    7.5400  -17.1845   20.3215 C   0  0  0  0  0  0  0  0  0  0  0  0
    8.1785  -17.2645   21.6904 C   0  0  1  0  0  0  0  0  0  0  0  0
    9.0176  -18.3731   21.6758 O   0  0  0  0  0  0  0  0  0  0  0  0
    8.9399  -15.9840   22.0173 C   0  0  2  0  0  0  0  0  0  0  0  0
   10.1214  -15.8823   21.1567 N   0  0  0  0  0  0  0  0  0  0  0  0
    9.3508  -16.0676   23.4403 C   0  0  0  0  0  0  0  0  0  0  0  0
   10.5548  -16.2288   23.7595 O   0  0  0  0  0  0  0  0  0  0  0  0
    6.5295  -10.1836   25.9763 O   0  0  0  0  0  0  0  0  0  0  0  0
    6.8117  -11.5383   26.1854 C   0  0  0  0  0  0  0  0  0  0  0  0
    5.9050  -12.5390   25.9312 C   0  0  0  0  0  0  0  0  0  0  0  0
    6.1894  -13.8756   26.1399 C   0  0  0  0  0  0  0  0  0  0  0  0
    7.4410  -14.1933   26.6244 C   0  0  0  0  0  0  0  0  0  0  0  0
    7.7583  -15.6245   26.8551 C   0  0  0  0  0  0  0  0  0  0  0  0
    8.8299  -16.1109   25.9038 C   0  0  2  0  0  0  0  0  0  0  0  0
    8.4191  -15.9713   24.5202 N   0  0  0  0  0  0  0  0  0  0  0  0
    9.1888  -17.5227   26.1639 C   0  0  0  0  0  0  0  0  0  0  0  0
    8.8721  -18.3941   25.3234 O   0  0  0  0  0  0  0  0  0  0  0  0
    8.3528  -13.1961   26.8806 C   0  0  0  0  0  0  0  0  0  0  0  0
    8.0696  -11.8475   26.6713 C   0  0  0  0  0  0  0  0  0  0  0  0
    9.8637  -17.9458   27.2997 O   0  0  0  0  0  0  0  0  0  0  0  0
  2  1  1  0
  2  3  2  0
  4  5  1  0
  4  2  1  0
  5  7  1  0
  5  6  1  6
  7  8  2  0
 10  9  1  6
 10 11  1  0
 10 12  1  0
 12 14  1  0
 12 13  1  6
 13  7  1  0
 14 15  2  0
 14 23  1  0
 16 17  1  0
 17 18  2  0
 18 19  1  0
 20 21  1  0
 20 19  2  0
 22 21  1  1
 22 24  1  0
 23 22  1  0
 24 25  2  0
 24 28  1  0
 26 20  1  0
 27 26  2  0
 27 17  1  0
M  END
$$$$
