NTY.pdb
     RDKit          3D

 28 28  0  0  1  0  0  0  0  0999 V2000
   13.8541  -16.5649   17.2309 N   0  0  0  0  0  0  0  0  0  0  0  0
   14.3249  -15.2985   17.6541 C   0  0  0  0  0  0  0  0  0  0  0  0
   15.4829  -14.9409   17.3340 O   0  0  0  0  0  0  0  0  0  0  0  0
   13.4444  -14.4214   18.4617 C   0  0  0  0  0  0  0  0  0  0  0  0
   12.1347  -15.1287   18.7205 C   0  0  2  0  0  0  0  0  0  0  0  0
   11.3522  -15.3676   17.5600 N   0  0  0  0  0  0  0  0  0  0  0  0
   11.3960  -14.4425   19.8213 C   0  0  0  0  0  0  0  0  0  0  0  0
   12.0399  -13.6926   20.5846 O   0  0  0  0  0  0  0  0  0  0  0  0
    7.3945  -13.2306   19.5041 C   0  0  0  0  0  0  0  0  0  0  0  0
    7.7432  -14.0482   20.7279 C   0  0  1  0  0  0  0  0  0  0  0  0
    7.3724  -15.3594   20.4515 O   0  0  0  0  0  0  0  0  0  0  0  0
    9.2285  -13.9387   21.0571 C   0  0  2  0  0  0  0  0  0  0  0  0
   10.0121  -14.6145   20.0199 N   0  0  0  0  0  0  0  0  0  0  0  0
    9.4385  -14.6008   22.3680 C   0  0  0  0  0  0  0  0  0  0  0  0
    9.8673  -15.7791   22.4383 O   0  0  0  0  0  0  0  0  0  0  0  0
   10.6056  -16.1421   30.9301 O   0  0  0  0  0  0  0  0  0  0  0  0
   10.2524  -15.5277   29.7233 C   0  0  0  0  0  0  0  0  0  0  0  0
    8.9563  -15.4534   29.2730 C   0  0  0  0  0  0  0  0  0  0  0  0
    8.6135  -14.8454   28.0799 C   0  0  0  0  0  0  0  0  0  0  0  0
    9.6315  -14.2985   27.3271 C   0  0  0  0  0  0  0  0  0  0  0  0
    9.2774  -13.6449   26.0428 C   0  0  0  0  0  0  0  0  0  0  0  0
    9.3782  -14.6147   24.8855 C   0  0  2  0  0  0  0  0  0  0  0  0
    9.1715  -13.9510   23.6129 N   0  0  0  0  0  0  0  0  0  0  0  0
    8.4076  -15.7237   25.0183 C   0  0  0  0  0  0  0  0  0  0  0  0
    7.2398  -15.5615   24.5988 O   0  0  0  0  0  0  0  0  0  0  0  0
   10.9307  -14.3697   27.7726 C   0  0  0  0  0  0  0  0  0  0  0  0
   11.2801  -14.9819   28.9750 C   0  0  0  0  0  0  0  0  0  0  0  0
    8.7172  -16.9497   25.5890 O   0  0  0  0  0  0  0  0  0  0  0  0
  2  1  1  0
  2  3  2  0
  4  5  1  0
  4  2  1  0
  5  7  1  0
  5  6  1  6
  7  8  2  0
 10  9  1  6
 10 11  1  0
 10 12  1  0
 12 14  1  0
 12 13  1  6
 13  7  1  0
 14 15  2  0
 14 23  1  0
 16 17  1  0
 17 18  2  0
 18 19  1  0
 20 21  1  0
 20 19  2  0
 22 21  1  1
 22 24  1  0
 23 22  1  0
 24 25  2  0
 24 28  1  0
 26 20  1  0
 27 26  2  0
 27 17  1  0
M  END
$$$$
