NTY.pdb
     RDKit          3D

 28 28  0  0  1  0  0  0  0  0999 V2000
    8.1678  -12.0506   17.7029 N   0  0  0  0  0  0  0  0  0  0  0  0
    7.9198  -13.4416   17.7928 C   0  0  0  0  0  0  0  0  0  0  0  0
    8.1249  -14.1632   16.7885 O   0  0  0  0  0  0  0  0  0  0  0  0
    7.4270  -14.0177   19.0664 C   0  0  0  0  0  0  0  0  0  0  0  0
    8.5828  -14.1690   20.0276 C   0  0  2  0  0  0  0  0  0  0  0  0
    9.8141  -14.5306   19.4196 N   0  0  0  0  0  0  0  0  0  0  0  0
    8.1850  -15.0495   21.1654 C   0  0  0  0  0  0  0  0  0  0  0  0
    7.0278  -14.9362   21.6211 O   0  0  0  0  0  0  0  0  0  0  0  0
    8.6472  -18.9282   21.2490 C   0  0  0  0  0  0  0  0  0  0  0  0
    9.3066  -18.3107   22.4622 C   0  0  1  0  0  0  0  0  0  0  0  0
   10.6641  -18.2189   22.1759 O   0  0  0  0  0  0  0  0  0  0  0  0
    8.7030  -16.9468   22.7812 C   0  0  2  0  0  0  0  0  0  0  0  0
    9.0660  -15.9918   21.7311 N   0  0  0  0  0  0  0  0  0  0  0  0
    9.2645  -16.5111   24.0835 C   0  0  0  0  0  0  0  0  0  0  0  0
   10.2894  -15.7872   24.1385 O   0  0  0  0  0  0  0  0  0  0  0  0
    6.3995  -10.7756   25.6273 O   0  0  0  0  0  0  0  0  0  0  0  0
    6.8051  -12.0382   26.0746 C   0  0  0  0  0  0  0  0  0  0  0  0
    6.0832  -13.1831   25.8375 C   0  0  0  0  0  0  0  0  0  0  0  0
    6.4887  -14.4275   26.2821 C   0  0  0  0  0  0  0  0  0  0  0  0
    7.6695  -14.4979   26.9911 C   0  0  0  0  0  0  0  0  0  0  0  0
    8.1152  -15.8277   27.4761 C   0  0  0  0  0  0  0  0  0  0  0  0
    9.2095  -16.3953   26.5986 C   0  0  2  0  0  0  0  0  0  0  0  0
    8.6847  -16.8804   25.3368 N   0  0  0  0  0  0  0  0  0  0  0  0
    9.9370  -17.4916   27.2758 C   0  0  0  0  0  0  0  0  0  0  0  0
    9.8139  -18.6594   26.8433 O   0  0  0  0  0  0  0  0  0  0  0  0
    8.3966  -13.3555   27.2313 C   0  0  0  0  0  0  0  0  0  0  0  0
    7.9908  -12.0991   26.7847 C   0  0  0  0  0  0  0  0  0  0  0  0
   10.7579  -17.3014   28.3777 O   0  0  0  0  0  0  0  0  0  0  0  0
  2  1  1  0
  2  3  2  0
  4  5  1  0
  4  2  1  0
  5  7  1  0
  5  6  1  6
  7  8  2  0
 10  9  1  6
 10 11  1  0
 10 12  1  0
 12 14  1  0
 12 13  1  6
 13  7  1  0
 14 15  2  0
 14 23  1  0
 16 17  1  0
 17 18  2  0
 18 19  1  0
 20 21  1  0
 20 19  2  0
 22 21  1  1
 22 24  1  0
 23 22  1  0
 24 25  2  0
 24 28  1  0
 26 20  1  0
 27 26  2  0
 27 17  1  0
M  END
$$$$
