NTY.pdb
     RDKit          3D

 28 28  0  0  1  0  0  0  0  0999 V2000
   12.8058  -18.6231   16.4688 N   0  0  0  0  0  0  0  0  0  0  0  0
   11.9850  -18.6675   17.6216 C   0  0  0  0  0  0  0  0  0  0  0  0
   11.4747  -19.7599   17.9645 O   0  0  0  0  0  0  0  0  0  0  0  0
   11.7468  -17.4290   18.4002 C   0  0  0  0  0  0  0  0  0  0  0  0
   10.2593  -17.2112   18.5512 C   0  0  2  0  0  0  0  0  0  0  0  0
    9.5608  -17.0311   17.3282 N   0  0  0  0  0  0  0  0  0  0  0  0
   10.0028  -16.1422   19.5610 C   0  0  0  0  0  0  0  0  0  0  0  0
   10.8022  -15.1847   19.6211 O   0  0  0  0  0  0  0  0  0  0  0  0
    6.7227  -14.0064   20.1751 C   0  0  0  0  0  0  0  0  0  0  0  0
    7.0797  -14.8515   21.3777 C   0  0  1  0  0  0  0  0  0  0  0  0
    6.3283  -16.0175   21.2841 O   0  0  0  0  0  0  0  0  0  0  0  0
    8.5758  -15.1453   21.4183 C   0  0  2  0  0  0  0  0  0  0  0  0
    8.8991  -16.1826   20.4353 N   0  0  0  0  0  0  0  0  0  0  0  0
    8.8935  -15.6223   22.7867 C   0  0  0  0  0  0  0  0  0  0  0  0
    8.9813  -16.8489   23.0420 O   0  0  0  0  0  0  0  0  0  0  0  0
   10.9486  -15.9915   31.3351 O   0  0  0  0  0  0  0  0  0  0  0  0
   10.6104  -15.4975   30.0701 C   0  0  0  0  0  0  0  0  0  0  0  0
    9.8956  -14.3384   29.8863 C   0  0  0  0  0  0  0  0  0  0  0  0
    9.5642  -13.8555   28.6343 C   0  0  0  0  0  0  0  0  0  0  0  0
    9.9786  -14.5845   27.5393 C   0  0  0  0  0  0  0  0  0  0  0  0
    9.6274  -14.0783   26.1892 C   0  0  0  0  0  0  0  0  0  0  0  0
    9.3561  -15.2155   25.2285 C   0  0  2  0  0  0  0  0  0  0  0  0
    9.1166  -14.7320   23.8825 N   0  0  0  0  0  0  0  0  0  0  0  0
    8.2016  -16.0325   25.6638 C   0  0  0  0  0  0  0  0  0  0  0  0
    8.3997  -17.0058   26.4250 O   0  0  0  0  0  0  0  0  0  0  0  0
   10.6945  -15.7453   27.7168 C   0  0  0  0  0  0  0  0  0  0  0  0
   11.0304  -16.2352   28.9777 C   0  0  0  0  0  0  0  0  0  0  0  0
    6.8943  -15.7825   25.2727 O   0  0  0  0  0  0  0  0  0  0  0  0
  2  1  1  0
  2  3  2  0
  4  5  1  0
  4  2  1  0
  5  7  1  0
  5  6  1  6
  7  8  2  0
 10  9  1  6
 10 11  1  0
 10 12  1  0
 12 14  1  0
 12 13  1  6
 13  7  1  0
 14 15  2  0
 14 23  1  0
 16 17  1  0
 17 18  2  0
 18 19  1  0
 20 21  1  0
 20 19  2  0
 22 21  1  1
 22 24  1  0
 23 22  1  0
 24 25  2  0
 24 28  1  0
 26 20  1  0
 27 26  2  0
 27 17  1  0
M  END
$$$$
