NTY.pdb
     RDKit          3D

 28 28  0  0  1  0  0  0  0  0999 V2000
   16.4091  -17.4039   20.8249 N   0  0  0  0  0  0  0  0  0  0  0  0
   15.0690  -17.8609   20.8211 C   0  0  0  0  0  0  0  0  0  0  0  0
   14.8000  -18.9552   20.2722 O   0  0  0  0  0  0  0  0  0  0  0  0
   14.0137  -17.0431   21.4648 C   0  0  0  0  0  0  0  0  0  0  0  0
   12.7647  -17.0793   20.6154 C   0  0  2  0  0  0  0  0  0  0  0  0
   12.9372  -16.6018   19.2894 N   0  0  0  0  0  0  0  0  0  0  0  0
   11.6330  -16.4400   21.3494 C   0  0  0  0  0  0  0  0  0  0  0  0
   11.8054  -15.2941   21.8150 O   0  0  0  0  0  0  0  0  0  0  0  0
    8.0247  -15.8353   20.1132 C   0  0  0  0  0  0  0  0  0  0  0  0
    7.9867  -16.6977   21.3553 C   0  0  1  0  0  0  0  0  0  0  0  0
    7.8680  -18.0142   20.9242 O   0  0  0  0  0  0  0  0  0  0  0  0
    9.2363  -16.4921   22.2053 C   0  0  2  0  0  0  0  0  0  0  0  0
   10.3931  -17.0841   21.5285 N   0  0  0  0  0  0  0  0  0  0  0  0
    9.0019  -17.1713   23.5033 C   0  0  0  0  0  0  0  0  0  0  0  0
    9.5580  -18.2647   23.7731 O   0  0  0  0  0  0  0  0  0  0  0  0
   11.6554  -13.8338   29.3645 O   0  0  0  0  0  0  0  0  0  0  0  0
   10.5924  -14.5019   28.7463 C   0  0  0  0  0  0  0  0  0  0  0  0
   10.3277  -15.8350   28.9488 C   0  0  0  0  0  0  0  0  0  0  0  0
    9.2763  -16.4896   28.3351 C   0  0  0  0  0  0  0  0  0  0  0  0
    8.4738  -15.7538   27.4885 C   0  0  0  0  0  0  0  0  0  0  0  0
    7.3427  -16.4451   26.8214 C   0  0  0  0  0  0  0  0  0  0  0  0
    7.8307  -17.3659   25.7242 C   0  0  2  0  0  0  0  0  0  0  0  0
    8.1438  -16.6338   24.5123 N   0  0  0  0  0  0  0  0  0  0  0  0
    6.8367  -18.4173   25.4135 C   0  0  0  0  0  0  0  0  0  0  0  0
    6.1625  -18.3236   24.3635 O   0  0  0  0  0  0  0  0  0  0  0  0
    8.7335  -14.4191   27.2820 C   0  0  0  0  0  0  0  0  0  0  0  0
    9.7928  -13.7558   27.8990 C   0  0  0  0  0  0  0  0  0  0  0  0
    6.6023  -19.5157   26.2276 O   0  0  0  0  0  0  0  0  0  0  0  0
  2  1  1  0
  2  3  2  0
  4  5  1  0
  4  2  1  0
  5  7  1  0
  5  6  1  6
  7  8  2  0
 10  9  1  6
 10 11  1  0
 10 12  1  0
 12 14  1  0
 12 13  1  6
 13  7  1  0
 14 15  2  0
 14 23  1  0
 16 17  1  0
 17 18  2  0
 18 19  1  0
 20 21  1  0
 20 19  2  0
 22 21  1  1
 22 24  1  0
 23 22  1  0
 24 25  2  0
 24 28  1  0
 26 20  1  0
 27 26  2  0
 27 17  1  0
M  END
$$$$
