NTY.pdb
     RDKit          3D

 28 28  0  0  1  0  0  0  0  0999 V2000
    8.2545  -14.8899   16.8887 N   0  0  0  0  0  0  0  0  0  0  0  0
    8.1501  -13.7789   17.7600 C   0  0  0  0  0  0  0  0  0  0  0  0
    8.1738  -12.6221   17.2779 O   0  0  0  0  0  0  0  0  0  0  0  0
    8.0131  -14.0017   19.2190 C   0  0  0  0  0  0  0  0  0  0  0  0
    7.8847  -15.4827   19.4891 C   0  0  2  0  0  0  0  0  0  0  0  0
    6.7910  -16.1103   18.8363 N   0  0  0  0  0  0  0  0  0  0  0  0
    7.9429  -15.7375   20.9588 C   0  0  0  0  0  0  0  0  0  0  0  0
    6.8710  -15.9536   21.5620 O   0  0  0  0  0  0  0  0  0  0  0  0
    7.9787  -18.3551   22.3206 C   0  0  0  0  0  0  0  0  0  0  0  0
    9.3198  -17.8838   22.8376 C   0  0  1  0  0  0  0  0  0  0  0  0
   10.2765  -18.3318   21.9336 O   0  0  0  0  0  0  0  0  0  0  0  0
    9.3492  -16.3660   22.9853 C   0  0  2  0  0  0  0  0  0  0  0  0
    9.1564  -15.7415   21.6740 N   0  0  0  0  0  0  0  0  0  0  0  0
   10.6794  -16.0030   23.5328 C   0  0  0  0  0  0  0  0  0  0  0  0
   11.7057  -16.0211   22.8090 O   0  0  0  0  0  0  0  0  0  0  0  0
    9.2300  -17.2412   30.6203 O   0  0  0  0  0  0  0  0  0  0  0  0
    9.8972  -16.5073   29.6329 C   0  0  0  0  0  0  0  0  0  0  0  0
    9.2868  -15.5256   28.8901 C   0  0  0  0  0  0  0  0  0  0  0  0
    9.9509  -14.8042   27.9158 C   0  0  0  0  0  0  0  0  0  0  0  0
   11.2802  -15.1001   27.6978 C   0  0  0  0  0  0  0  0  0  0  0  0
   12.0043  -14.3345   26.6530 C   0  0  0  0  0  0  0  0  0  0  0  0
   12.1556  -15.1437   25.3833 C   0  0  2  0  0  0  0  0  0  0  0  0
   10.8745  -15.6158   24.8949 N   0  0  0  0  0  0  0  0  0  0  0  0
   13.0572  -16.3007   25.5791 C   0  0  0  0  0  0  0  0  0  0  0  0
   12.5667  -17.4510   25.6255 O   0  0  0  0  0  0  0  0  0  0  0  0
   11.8966  -16.0815   28.4382 C   0  0  0  0  0  0  0  0  0  0  0  0
   11.2302  -16.8109   29.4214 C   0  0  0  0  0  0  0  0  0  0  0  0
   14.4327  -16.1863   25.7179 O   0  0  0  0  0  0  0  0  0  0  0  0
  2  1  1  0
  2  3  2  0
  4  5  1  0
  4  2  1  0
  5  7  1  0
  5  6  1  1
  7  8  2  0
 10  9  1  6
 10 11  1  0
 10 12  1  0
 12 14  1  0
 12 13  1  6
 13  7  1  0
 14 15  2  0
 14 23  1  0
 16 17  1  0
 17 18  2  0
 18 19  1  0
 20 21  1  0
 20 19  2  0
 22 21  1  1
 22 24  1  0
 23 22  1  0
 24 25  2  0
 24 28  1  0
 26 20  1  0
 27 26  2  0
 27 17  1  0
M  END
$$$$
