CTQ.pdb
     RDKit          3D

 23 22  0  0  1  0  0  0  0  0999 V2000
    7.6050  -15.1123   17.7826 N   0  0  0  0  0  0  0  0  0  0  0  0
    8.3991  -14.4046   18.8071 C   0  0  1  0  0  0  0  0  0  0  0  0
    7.8104  -13.0342   18.8941 C   0  0  0  0  0  0  0  0  0  0  0  0
    8.6435  -12.0560   20.1404 S   0  0  0  0  0  0  0  0  0  0  0  0
    8.3357  -15.1772   20.0521 C   0  0  0  0  0  0  0  0  0  0  0  0
    7.2282  -15.2767   20.6525 O   0  0  0  0  0  0  0  0  0  0  0  0
    8.1886  -18.4208   20.7967 C   0  0  0  0  0  0  0  0  0  0  0  0
    9.3536  -18.0720   21.7054 C   0  0  1  0  0  0  0  0  0  0  0  0
   10.5474  -18.5516   21.2522 O   0  0  0  0  0  0  0  0  0  0  0  0
    9.3212  -16.5700   21.8947 C   0  0  2  0  0  0  0  0  0  0  0  0
    9.4382  -15.8488   20.6659 N   0  0  0  0  0  0  0  0  0  0  0  0
   10.2321  -16.1315   22.9725 C   0  0  0  0  0  0  0  0  0  0  0  0
   11.2660  -15.4558   22.6437 O   0  0  0  0  0  0  0  0  0  0  0  0
   10.4270  -13.5569   28.5600 N   0  0  0  0  0  0  0  0  0  0  0  0
    9.7708  -14.8187   28.6817 C   0  0  0  0  0  0  0  0  0  0  0  0
    9.2717  -15.1396   29.7864 O   0  0  0  0  0  0  0  0  0  0  0  0
    9.7317  -15.6669   27.4659 C   0  0  0  0  0  0  0  0  0  0  0  0
   10.3266  -15.0090   26.2670 C   0  0  0  0  0  0  0  0  0  0  0  0
   11.0704  -15.9199   25.3392 C   0  0  2  0  0  0  0  0  0  0  0  0
   10.0809  -16.3826   24.3469 N   0  0  0  0  0  0  0  0  0  0  0  0
   11.5214  -17.1109   26.1055 C   0  0  0  0  0  0  0  0  0  0  0  0
   12.6735  -17.1271   26.8683 O   0  0  0  0  0  0  0  0  0  0  0  0
   10.8494  -18.1882   26.0892 O   0  0  0  0  0  0  0  0  0  0  0  0
  2  1  1  6
  2  3  1  0
  2  5  1  0
  3  4  1  0
  5  6  2  0
  5 11  1  0
  8  7  1  6
  8 10  1  0
  8  9  1  0
 10 12  1  0
 10 11  1  6
 12 20  1  0
 12 13  2  0
 14 15  1  0
 15 16  2  0
 17 15  1  0
 17 18  1  0
 19 18  1  1
 19 21  1  0
 20 19  1  0
 21 22  1  0
 23 21  2  0
M  END
$$$$
