CTQ.pdb
     RDKit          3D

 23 22  0  0  1  0  0  0  0  0999 V2000
   12.8928  -14.6666   17.5917 N   0  0  0  0  0  0  0  0  0  0  0  0
   12.1221  -15.5651   18.4747 C   0  0  1  0  0  0  0  0  0  0  0  0
   13.1404  -16.3732   19.2110 C   0  0  0  0  0  0  0  0  0  0  0  0
   13.4091  -17.9511   18.4096 S   0  0  0  0  0  0  0  0  0  0  0  0
   11.2610  -14.7412   19.3295 C   0  0  0  0  0  0  0  0  0  0  0  0
   11.7682  -13.7567   19.9382 O   0  0  0  0  0  0  0  0  0  0  0  0
    7.8366  -12.9152   18.8078 C   0  0  0  0  0  0  0  0  0  0  0  0
    7.6932  -13.8832   19.9684 C   0  0  1  0  0  0  0  0  0  0  0  0
    6.9706  -14.9956   19.6508 O   0  0  0  0  0  0  0  0  0  0  0  0
    9.0936  -14.1753   20.4648 C   0  0  2  0  0  0  0  0  0  0  0  0
    9.8633  -14.9511   19.5431 N   0  0  0  0  0  0  0  0  0  0  0  0
    9.0919  -14.6695   21.8574 C   0  0  0  0  0  0  0  0  0  0  0  0
    9.6329  -15.8039   22.0901 O   0  0  0  0  0  0  0  0  0  0  0  0
    6.2021  -12.1069   26.7454 N   0  0  0  0  0  0  0  0  0  0  0  0
    6.8130  -13.1979   27.4339 C   0  0  0  0  0  0  0  0  0  0  0  0
    6.6424  -13.3071   28.6713 O   0  0  0  0  0  0  0  0  0  0  0  0
    7.6179  -14.1344   26.6126 C   0  0  0  0  0  0  0  0  0  0  0  0
    7.7492  -13.7091   25.1893 C   0  0  0  0  0  0  0  0  0  0  0  0
    8.5531  -14.6249   24.3184 C   0  0  2  0  0  0  0  0  0  0  0  0
    8.5487  -14.0135   22.9753 N   0  0  0  0  0  0  0  0  0  0  0  0
    7.8423  -15.9263   24.2164 C   0  0  0  0  0  0  0  0  0  0  0  0
    8.1471  -17.0179   25.0069 O   0  0  0  0  0  0  0  0  0  0  0  0
    6.9034  -16.0911   23.3775 O   0  0  0  0  0  0  0  0  0  0  0  0
  2  1  1  6
  2  3  1  0
  2  5  1  0
  3  4  1  0
  5  6  2  0
  5 11  1  0
  8  7  1  6
  8 10  1  0
  8  9  1  0
 10 12  1  0
 10 11  1  6
 12 20  1  0
 12 13  2  0
 14 15  1  0
 15 16  2  0
 17 15  1  0
 17 18  1  0
 19 18  1  1
 19 21  1  0
 20 19  1  0
 21 22  1  0
 23 21  2  0
M  END
$$$$
