CTQ.pdb
     RDKit          3D

 23 22  0  0  1  0  0  0  0  0999 V2000
   10.1978  -15.0182   18.4613 N   0  0  0  0  0  0  0  0  0  0  0  0
   11.2633  -15.2251   19.4628 C   0  0  1  0  0  0  0  0  0  0  0  0
   11.9409  -13.9013   19.6059 C   0  0  0  0  0  0  0  0  0  0  0  0
   13.5602  -13.9237   18.8433 S   0  0  0  0  0  0  0  0  0  0  0  0
   10.6454  -15.7315   20.6927 C   0  0  0  0  0  0  0  0  0  0  0  0
    9.5124  -15.2877   21.0337 O   0  0  0  0  0  0  0  0  0  0  0  0
    9.0168  -18.5816   21.4030 C   0  0  0  0  0  0  0  0  0  0  0  0
   10.0316  -18.6288   22.5311 C   0  0  1  0  0  0  0  0  0  0  0  0
   11.0144  -19.5525   22.3278 O   0  0  0  0  0  0  0  0  0  0  0  0
   10.5397  -17.2145   22.7166 C   0  0  2  0  0  0  0  0  0  0  0  0
   11.2186  -16.7084   21.5647 N   0  0  0  0  0  0  0  0  0  0  0  0
   11.2615  -17.0525   23.9959 C   0  0  0  0  0  0  0  0  0  0  0  0
   12.5387  -17.0197   23.9619 O   0  0  0  0  0  0  0  0  0  0  0  0
    8.7630  -15.0587   29.2459 N   0  0  0  0  0  0  0  0  0  0  0  0
    9.1666  -14.1568   28.2157 C   0  0  0  0  0  0  0  0  0  0  0  0
    8.6896  -12.9972   28.2027 O   0  0  0  0  0  0  0  0  0  0  0  0
   10.1380  -14.6751   27.2223 C   0  0  0  0  0  0  0  0  0  0  0  0
   10.5577  -16.0819   27.4846 C   0  0  0  0  0  0  0  0  0  0  0  0
   11.4955  -16.6696   26.4753 C   0  0  2  0  0  0  0  0  0  0  0  0
   10.6831  -16.9283   25.2707 N   0  0  0  0  0  0  0  0  0  0  0  0
   11.9719  -17.9837   26.9803 C   0  0  0  0  0  0  0  0  0  0  0  0
   12.9888  -18.1138   27.9068 O   0  0  0  0  0  0  0  0  0  0  0  0
   11.4507  -19.0666   26.5701 O   0  0  0  0  0  0  0  0  0  0  0  0
  2  1  1  6
  2  3  1  0
  2  5  1  0
  3  4  1  0
  5  6  2  0
  5 11  1  0
  8  7  1  6
  8 10  1  0
  8  9  1  0
 10 12  1  0
 10 11  1  6
 12 20  1  0
 12 13  2  0
 14 15  1  0
 15 16  2  0
 17 15  1  0
 17 18  1  0
 19 18  1  1
 19 21  1  0
 20 19  1  0
 21 22  1  0
 23 21  2  0
M  END
$$$$
