CTQ.pdb
     RDKit          3D

 23 22  0  0  1  0  0  0  0  0999 V2000
    7.2814  -14.6321   18.0578 N   0  0  0  0  0  0  0  0  0  0  0  0
    8.2658  -14.1262   19.0355 C   0  0  1  0  0  0  0  0  0  0  0  0
    7.7826  -12.7667   19.4234 C   0  0  0  0  0  0  0  0  0  0  0  0
    8.8275  -12.0512   20.6885 S   0  0  0  0  0  0  0  0  0  0  0  0
    8.3477  -15.0846   20.1426 C   0  0  0  0  0  0  0  0  0  0  0  0
    7.2796  -15.4656   20.7000 O   0  0  0  0  0  0  0  0  0  0  0  0
    9.0863  -18.4474   20.1588 C   0  0  0  0  0  0  0  0  0  0  0  0
   10.0597  -17.9819   21.2268 C   0  0  1  0  0  0  0  0  0  0  0  0
   11.3575  -17.9894   20.8072 O   0  0  0  0  0  0  0  0  0  0  0  0
    9.5697  -16.6296   21.7003 C   0  0  2  0  0  0  0  0  0  0  0  0
    9.5550  -15.6456   20.6634 N   0  0  0  0  0  0  0  0  0  0  0  0
   10.2298  -16.2137   22.9552 C   0  0  0  0  0  0  0  0  0  0  0  0
   11.2291  -15.4211   22.8710 O   0  0  0  0  0  0  0  0  0  0  0  0
    8.7828  -13.6501   27.7214 N   0  0  0  0  0  0  0  0  0  0  0  0
    9.7602  -14.3733   28.4691 C   0  0  0  0  0  0  0  0  0  0  0  0
   10.1289  -13.9245   29.5805 O   0  0  0  0  0  0  0  0  0  0  0  0
   10.2723  -15.6238   27.8581 C   0  0  0  0  0  0  0  0  0  0  0  0
    9.6818  -15.9122   26.5194 C   0  0  0  0  0  0  0  0  0  0  0  0
   10.6695  -16.2197   25.4362 C   0  0  2  0  0  0  0  0  0  0  0  0
    9.8701  -16.6035   24.2566 N   0  0  0  0  0  0  0  0  0  0  0  0
   11.4621  -17.4098   25.8419 C   0  0  0  0  0  0  0  0  0  0  0  0
   12.6165  -17.3276   26.5969 O   0  0  0  0  0  0  0  0  0  0  0  0
   11.1012  -18.5789   25.5021 O   0  0  0  0  0  0  0  0  0  0  0  0
  2  1  1  6
  2  3  1  0
  2  5  1  0
  3  4  1  0
  5  6  2  0
  5 11  1  0
  8  7  1  6
  8 10  1  0
  8  9  1  0
 10 12  1  0
 10 11  1  6
 12 20  1  0
 12 13  2  0
 14 15  1  0
 15 16  2  0
 17 15  1  0
 17 18  1  0
 19 18  1  1
 19 21  1  0
 20 19  1  0
 21 22  1  0
 23 21  2  0
M  END
$$$$
