CTQ.pdb
     RDKit          3D

 23 22  0  0  1  0  0  0  0  0999 V2000
    6.6535  -16.1960   20.0153 N   0  0  0  0  0  0  0  0  0  0  0  0
    7.6068  -15.3567   20.7687 C   0  0  1  0  0  0  0  0  0  0  0  0
    6.7873  -14.6388   21.7910 C   0  0  0  0  0  0  0  0  0  0  0  0
    7.8264  -13.6775   22.8866 S   0  0  0  0  0  0  0  0  0  0  0  0
    8.6481  -16.2285   21.3225 C   0  0  0  0  0  0  0  0  0  0  0  0
    8.3112  -17.1552   22.1127 O   0  0  0  0  0  0  0  0  0  0  0  0
   10.7625  -18.8118   20.1944 C   0  0  0  0  0  0  0  0  0  0  0  0
   11.7822  -17.8419   20.7636 C   0  0  1  0  0  0  0  0  0  0  0  0
   12.4949  -17.1892   19.8009 O   0  0  0  0  0  0  0  0  0  0  0  0
   11.0301  -16.9255   21.7056 C   0  0  2  0  0  0  0  0  0  0  0  0
   10.0464  -16.1275   21.0429 N   0  0  0  0  0  0  0  0  0  0  0  0
   11.9444  -16.1854   22.6001 C   0  0  0  0  0  0  0  0  0  0  0  0
   12.4554  -15.0974   22.1655 O   0  0  0  0  0  0  0  0  0  0  0  0
   10.6109  -16.1910   28.8610 N   0  0  0  0  0  0  0  0  0  0  0  0
   11.5905  -16.7969   28.0178 C   0  0  0  0  0  0  0  0  0  0  0  0
   12.3006  -17.7217   28.4793 O   0  0  0  0  0  0  0  0  0  0  0  0
   11.6919  -16.2725   26.6344 C   0  0  0  0  0  0  0  0  0  0  0  0
   13.0916  -16.2231   26.1222 C   0  0  0  0  0  0  0  0  0  0  0  0
   13.2416  -15.7374   24.7133 C   0  0  2  0  0  0  0  0  0  0  0  0
   12.3198  -16.5565   23.9025 N   0  0  0  0  0  0  0  0  0  0  0  0
   14.6230  -16.0368   24.2536 C   0  0  0  0  0  0  0  0  0  0  0  0
   14.9295  -17.0962   23.4210 O   0  0  0  0  0  0  0  0  0  0  0  0
   15.6011  -15.3133   24.6171 O   0  0  0  0  0  0  0  0  0  0  0  0
  2  1  1  1
  2  3  1  0
  2  5  1  0
  3  4  1  0
  5  6  2  0
  5 11  1  0
  8  7  1  6
  8 10  1  0
  8  9  1  0
 10 12  1  0
 10 11  1  6
 12 20  1  0
 12 13  2  0
 14 15  1  0
 15 16  2  0
 17 15  1  0
 17 18  1  0
 19 18  1  1
 19 21  1  0
 20 19  1  0
 21 22  1  0
 23 21  2  0
M  END
$$$$
