CTQ.pdb
     RDKit          3D

 23 22  0  0  1  0  0  0  0  0999 V2000
    1.4997  -20.3858   20.8088 N   0  0  0  0  0  0  0  0  0  0  0  0
    1.7938  -19.4959   21.9501 C   0  0  1  0  0  0  0  0  0  0  0  0
    0.9196  -19.9713   23.0644 C   0  0  0  0  0  0  0  0  0  0  0  0
   -0.3352  -18.7569   23.4583 S   0  0  0  0  0  0  0  0  0  0  0  0
    3.2320  -19.5665   22.2288 C   0  0  0  0  0  0  0  0  0  0  0  0
    3.7721  -20.7009   22.3645 O   0  0  0  0  0  0  0  0  0  0  0  0
    6.0329  -18.1736   20.2362 C   0  0  0  0  0  0  0  0  0  0  0  0
    6.3364  -17.7073   21.6486 C   0  0  1  0  0  0  0  0  0  0  0  0
    6.1482  -16.3675   21.8215 O   0  0  0  0  0  0  0  0  0  0  0  0
    5.5121  -18.5735   22.5776 C   0  0  2  0  0  0  0  0  0  0  0  0
    4.1048  -18.4424   22.3628 N   0  0  0  0  0  0  0  0  0  0  0  0
    5.9501  -18.4448   23.9831 C   0  0  0  0  0  0  0  0  0  0  0  0
    5.2837  -17.6677   24.7484 O   0  0  0  0  0  0  0  0  0  0  0  0
    8.4247  -22.5436   27.6951 N   0  0  0  0  0  0  0  0  0  0  0  0
    7.9015  -21.5826   28.6118 C   0  0  0  0  0  0  0  0  0  0  0  0
    7.7878  -21.8956   29.8207 O   0  0  0  0  0  0  0  0  0  0  0  0
    7.5263  -20.2631   28.0485 C   0  0  0  0  0  0  0  0  0  0  0  0
    7.7560  -20.1613   26.5785 C   0  0  0  0  0  0  0  0  0  0  0  0
    7.4482  -18.8264   25.9728 C   0  0  2  0  0  0  0  0  0  0  0  0
    7.0419  -19.0978   24.5802 N   0  0  0  0  0  0  0  0  0  0  0  0
    8.7014  -18.0289   25.9224 C   0  0  0  0  0  0  0  0  0  0  0  0
    9.2714  -17.4454   27.0378 O   0  0  0  0  0  0  0  0  0  0  0  0
    9.3135  -17.8470   24.8248 O   0  0  0  0  0  0  0  0  0  0  0  0
  2  1  1  6
  2  3  1  0
  2  5  1  0
  3  4  1  0
  5  6  2  0
  5 11  1  0
  8  7  1  6
  8 10  1  0
  8  9  1  0
 10 12  1  0
 10 11  1  1
 12 20  1  0
 12 13  2  0
 14 15  1  0
 15 16  2  0
 17 15  1  0
 17 18  1  0
 19 18  1  1
 19 21  1  0
 20 19  1  0
 21 22  1  0
 23 21  2  0
M  END
$$$$
