CTQ.pdb
     RDKit          3D

 23 22  0  0  1  0  0  0  0  0999 V2000
   11.5714  -14.8655   18.0796 N   0  0  0  0  0  0  0  0  0  0  0  0
   12.3599  -15.1524   19.2949 C   0  0  1  0  0  0  0  0  0  0  0  0
   13.1115  -13.8955   19.5907 C   0  0  0  0  0  0  0  0  0  0  0  0
   14.3850  -14.1826   20.8154 S   0  0  0  0  0  0  0  0  0  0  0  0
   11.4359  -15.5752   20.3525 C   0  0  0  0  0  0  0  0  0  0  0  0
   10.3632  -14.9286   20.5199 O   0  0  0  0  0  0  0  0  0  0  0  0
    9.3712  -18.4545   20.8082 C   0  0  0  0  0  0  0  0  0  0  0  0
   10.1607  -18.4390   22.1047 C   0  0  1  0  0  0  0  0  0  0  0  0
   11.1077  -19.4189   22.1658 O   0  0  0  0  0  0  0  0  0  0  0  0
   10.7097  -17.0366   22.2613 C   0  0  2  0  0  0  0  0  0  0  0  0
   11.6389  -16.6817   21.2345 N   0  0  0  0  0  0  0  0  0  0  0  0
   11.1659  -16.7753   23.6424 C   0  0  0  0  0  0  0  0  0  0  0  0
   12.4249  -16.7211   23.8561 O   0  0  0  0  0  0  0  0  0  0  0  0
    9.5491  -13.4296   27.9671 N   0  0  0  0  0  0  0  0  0  0  0  0
   10.0110  -14.3959   28.9107 C   0  0  0  0  0  0  0  0  0  0  0  0
   10.3076  -14.0197   30.0695 O   0  0  0  0  0  0  0  0  0  0  0  0
   10.1054  -15.7971   28.4341 C   0  0  0  0  0  0  0  0  0  0  0  0
    9.7813  -15.9520   26.9867 C   0  0  0  0  0  0  0  0  0  0  0  0
   10.9094  -16.4303   26.1252 C   0  0  2  0  0  0  0  0  0  0  0  0
   10.3483  -16.5762   24.7680 N   0  0  0  0  0  0  0  0  0  0  0  0
   11.3159  -17.7838   26.5855 C   0  0  0  0  0  0  0  0  0  0  0  0
   10.6489  -18.9380   26.2214 O   0  0  0  0  0  0  0  0  0  0  0  0
   12.3172  -17.9374   27.3512 O   0  0  0  0  0  0  0  0  0  0  0  0
  2  1  1  6
  2  3  1  0
  2  5  1  0
  3  4  1  0
  5  6  2  0
  5 11  1  0
  8  7  1  6
  8 10  1  0
  8  9  1  0
 10 12  1  0
 10 11  1  6
 12 20  1  0
 12 13  2  0
 14 15  1  0
 15 16  2  0
 17 15  1  0
 17 18  1  0
 19 18  1  1
 19 21  1  0
 20 19  1  0
 21 22  1  0
 23 21  2  0
M  END
$$$$
