GRP.pdb
     RDKit          3D

 23 23  0  0  1  0  0  0  0  0999 V2000
    8.6333  -12.6133   18.7061 N   0  0  0  0  0  0  0  0  0  0  0  0
    9.3238  -13.2362   19.8100 C   0  0  0  0  0  0  0  0  0  0  0  0
    8.3714  -13.4843   20.9375 C   0  0  0  0  0  0  0  0  0  0  0  0
    7.3190  -12.7867   21.0561 O   0  0  0  0  0  0  0  0  0  0  0  0
    7.3987  -21.0842   19.8867 N   0  0  0  0  0  0  0  0  0  0  0  0
    7.8743  -19.7568   20.0557 C   0  0  0  0  0  0  0  0  0  0  0  0
    8.9182  -19.3248   19.4389 N   0  0  0  0  0  0  0  0  0  0  0  0
    7.1934  -18.8488   20.9317 N   0  0  0  0  0  0  0  0  0  0  0  0
    7.6274  -17.4979   21.1205 C   0  0  0  0  0  0  0  0  0  0  0  0
    6.6455  -16.7689   22.0020 C   0  0  0  0  0  0  0  0  0  0  0  0
    7.4007  -16.1989   23.1623 C   0  0  0  0  0  0  0  0  0  0  0  0
    7.6141  -14.6939   23.0191 C   0  0  2  0  0  0  0  0  0  0  0  0
    8.5752  -14.4776   21.9104 N   0  0  0  0  0  0  0  0  0  0  0  0
    8.3228  -14.2625   24.2354 C   0  0  0  0  0  0  0  0  0  0  0  0
    9.5323  -14.7003   24.3201 O   0  0  0  0  0  0  0  0  0  0  0  0
    9.2474  -18.3675   19.6496 N   0  0  0  0  0  0  0  0  0  0  0  0
    7.7993  -13.4327   25.2790 C   0  0  0  0  0  0  0  0  0  0  0  0
    6.5097  -12.8478   25.1632 C   0  0  0  0  0  0  0  0  0  0  0  0
    6.1445  -12.4855   26.5819 C   0  0  0  0  0  0  0  0  0  0  0  0
    7.5184  -12.0214   27.1138 C   0  0  1  0  0  0  0  0  0  0  0  0
    8.3859  -13.1052   26.5045 C   0  0  0  0  0  0  0  0  0  0  0  0
    8.5846  -14.2288   27.4384 O   0  0  0  0  0  0  0  0  0  0  0  0
    8.0006  -15.3086   27.2441 O   0  0  0  0  0  0  0  0  0  0  0  0
  1  2  1  0
  3  4  2  0
  3  2  1  0
  5  6  1  0
  6  8  1  0
  7  6  2  0
  8  9  1  0
  9 10  1  0
 10 11  1  0
 12 11  1  1
 12 13  1  0
 13  3  1  0
 14 16  1  0
 14 12  1  0
 15 14  2  0
 16 17  1  0
 18 17  1  0
 19 20  1  0
 19 18  1  0
 20 16  1  0
 20 21  1  1
 21 23  1  0
 22 21  2  0
M  END
$$$$
