GRP.pdb
     RDKit          3D

 23 23  0  0  1  0  0  0  0  0999 V2000
    7.8391  -12.5052   19.1144 N   0  0  0  0  0  0  0  0  0  0  0  0
    8.5868  -13.4206   19.9427 C   0  0  0  0  0  0  0  0  0  0  0  0
    7.8160  -13.7348   21.1865 C   0  0  0  0  0  0  0  0  0  0  0  0
    6.8249  -13.0206   21.5269 O   0  0  0  0  0  0  0  0  0  0  0  0
    6.9904  -21.2171   25.9130 N   0  0  0  0  0  0  0  0  0  0  0  0
    6.9506  -20.1323   26.8286 C   0  0  0  0  0  0  0  0  0  0  0  0
    6.9531  -20.3173   28.1024 N   0  0  0  0  0  0  0  0  0  0  0  0
    6.9058  -18.7815   26.3506 N   0  0  0  0  0  0  0  0  0  0  0  0
    6.8246  -18.4658   24.9568 C   0  0  0  0  0  0  0  0  0  0  0  0
    6.6980  -16.9738   24.7819 C   0  0  0  0  0  0  0  0  0  0  0  0
    7.4304  -16.5909   23.5335 C   0  0  0  0  0  0  0  0  0  0  0  0
    7.3511  -15.0902   23.2641 C   0  0  2  0  0  0  0  0  0  0  0  0
    8.1311  -14.8105   22.0341 N   0  0  0  0  0  0  0  0  0  0  0  0
    8.0978  -14.4380   24.3526 C   0  0  0  0  0  0  0  0  0  0  0  0
    9.3481  -14.7496   24.3902 O   0  0  0  0  0  0  0  0  0  0  0  0
    6.9848  -19.4851   28.7155 N   0  0  0  0  0  0  0  0  0  0  0  0
    7.5695  -13.5269   25.3234 C   0  0  0  0  0  0  0  0  0  0  0  0
    6.2214  -13.0849   25.2457 C   0  0  0  0  0  0  0  0  0  0  0  0
    5.9257  -12.5696   26.6329 C   0  0  0  0  0  0  0  0  0  0  0  0
    7.2796  -11.9128   26.9811 C   0  0  2  0  0  0  0  0  0  0  0  0
    8.2073  -12.9840   26.4421 C   0  0  0  0  0  0  0  0  0  0  0  0
    8.5886  -13.9479   27.4908 O   0  0  0  0  0  0  0  0  0  0  0  0
    8.1664  -15.1160   27.4440 O   0  0  0  0  0  0  0  0  0  0  0  0
  1  2  1  0
  3  4  2  0
  3  2  1  0
  5  6  1  0
  6  8  1  0
  7  6  2  0
  8  9  1  0
  9 10  1  0
 10 11  1  0
 12 11  1  1
 12 13  1  0
 13  3  1  0
 14 16  1  0
 14 12  1  0
 15 14  2  0
 16 17  1  0
 18 17  1  0
 19 20  1  0
 19 18  1  0
 20 16  1  0
 20 21  1  1
 21 23  1  0
 22 21  2  0
M  END
$$$$
