GRP.pdb
     RDKit          3D

 23 23  0  0  1  0  0  0  0  0999 V2000
    7.6990  -12.6095   18.9680 N   0  0  0  0  0  0  0  0  0  0  0  0
    8.6288  -13.2840   19.8421 C   0  0  0  0  0  0  0  0  0  0  0  0
    7.9269  -13.7458   21.0807 C   0  0  0  0  0  0  0  0  0  0  0  0
    6.6844  -13.5409   21.2305 O   0  0  0  0  0  0  0  0  0  0  0  0
    7.2072  -21.6729   26.0380 N   0  0  0  0  0  0  0  0  0  0  0  0
    6.6787  -20.4666   25.5067 C   0  0  0  0  0  0  0  0  0  0  0  0
    5.5759  -20.4415   24.8433 N   0  0  0  0  0  0  0  0  0  0  0  0
    7.3706  -19.2257   25.6983 N   0  0  0  0  0  0  0  0  0  0  0  0
    8.0331  -18.5460   24.6268 C   0  0  0  0  0  0  0  0  0  0  0  0
    7.4614  -17.1592   24.4764 C   0  0  0  0  0  0  0  0  0  0  0  0
    8.2018  -16.4714   23.3717 C   0  0  0  0  0  0  0  0  0  0  0  0
    7.8328  -14.9932   23.2726 C   0  0  2  0  0  0  0  0  0  0  0  0
    8.5800  -14.4170   22.1284 N   0  0  0  0  0  0  0  0  0  0  0  0
    8.3989  -14.3481   24.4688 C   0  0  0  0  0  0  0  0  0  0  0  0
    9.6653  -14.5382   24.6170 O   0  0  0  0  0  0  0  0  0  0  0  0
    5.3013  -19.5546   24.3880 N   0  0  0  0  0  0  0  0  0  0  0  0
    7.6874  -13.5618   25.4318 C   0  0  0  0  0  0  0  0  0  0  0  0
    6.2977  -13.3090   25.2782 C   0  0  0  0  0  0  0  0  0  0  0  0
    5.8463  -12.8998   26.6588 C   0  0  0  0  0  0  0  0  0  0  0  0
    7.0691  -12.0763   27.1195 C   0  0  2  0  0  0  0  0  0  0  0  0
    8.1710  -12.9838   26.6087 C   0  0  0  0  0  0  0  0  0  0  0  0
    8.6192  -13.9291   27.6477 O   0  0  0  0  0  0  0  0  0  0  0  0
    8.3526  -15.1386   27.5436 O   0  0  0  0  0  0  0  0  0  0  0  0
  1  2  1  0
  3  4  2  0
  3  2  1  0
  5  6  1  0
  6  8  1  0
  7  6  2  0
  8  9  1  0
  9 10  1  0
 10 11  1  0
 12 11  1  1
 12 13  1  0
 13  3  1  0
 14 16  1  0
 14 12  1  0
 15 14  2  0
 16 17  1  0
 18 17  1  0
 19 20  1  0
 19 18  1  0
 20 16  1  0
 20 21  1  1
 21 23  1  0
 22 21  2  0
M  END
$$$$
