GRP.pdb
     RDKit          3D

 23 23  0  0  1  0  0  0  0  0999 V2000
   13.9511  -17.2494   24.2325 N   0  0  0  0  0  0  0  0  0  0  0  0
   12.5546  -17.6060   24.3103 C   0  0  0  0  0  0  0  0  0  0  0  0
   11.7039  -16.3809   24.1865 C   0  0  0  0  0  0  0  0  0  0  0  0
   12.1402  -15.2532   24.5689 O   0  0  0  0  0  0  0  0  0  0  0  0
    7.7774  -14.4774   18.3093 N   0  0  0  0  0  0  0  0  0  0  0  0
    7.9145  -13.2676   19.0403 C   0  0  0  0  0  0  0  0  0  0  0  0
    8.6227  -12.2857   18.6033 N   0  0  0  0  0  0  0  0  0  0  0  0
    7.2572  -13.1057   20.3041 N   0  0  0  0  0  0  0  0  0  0  0  0
    6.8887  -14.2206   21.1228 C   0  0  0  0  0  0  0  0  0  0  0  0
    7.6324  -14.1551   22.4324 C   0  0  0  0  0  0  0  0  0  0  0  0
    8.7407  -15.1607   22.3854 C   0  0  0  0  0  0  0  0  0  0  0  0
    9.5260  -15.2046   23.6939 C   0  0  2  0  0  0  0  0  0  0  0  0
   10.4036  -16.3995   23.6539 N   0  0  0  0  0  0  0  0  0  0  0  0
    8.5422  -15.4823   24.7535 C   0  0  0  0  0  0  0  0  0  0  0  0
    8.2199  -16.7262   24.8564 O   0  0  0  0  0  0  0  0  0  0  0  0
    8.6814  -11.4313   19.1829 N   0  0  0  0  0  0  0  0  0  0  0  0
    7.9470  -14.5251   25.6374 C   0  0  0  0  0  0  0  0  0  0  0  0
    8.1599  -13.1329   25.4494 C   0  0  0  0  0  0  0  0  0  0  0  0
    7.0384  -12.4844   26.2233 C   0  0  0  0  0  0  0  0  0  0  0  0
    6.9578  -13.4293   27.4424 C   0  0  1  0  0  0  0  0  0  0  0  0
    7.0969  -14.7562   26.7224 C   0  0  0  0  0  0  0  0  0  0  0  0
    5.7810  -15.3335   26.3916 O   0  0  0  0  0  0  0  0  0  0  0  0
    5.3650  -15.3006   25.2208 O   0  0  0  0  0  0  0  0  0  0  0  0
  1  2  1  0
  3  4  2  0
  3  2  1  0
  5  6  1  0
  6  8  1  0
  7  6  2  0
  8  9  1  0
  9 10  1  0
 10 11  1  0
 12 11  1  6
 12 13  1  0
 13  3  1  0
 14 16  1  0
 14 12  1  0
 15 14  2  0
 16 17  1  0
 18 17  1  0
 19 20  1  0
 19 18  1  0
 20 16  1  0
 20 21  1  6
 21 23  1  0
 22 21  2  0
M  END
$$$$
