GRP.pdb
     RDKit          3D

 23 23  0  0  1  0  0  0  0  0999 V2000
   14.5655  -17.0922   22.0594 N   0  0  0  0  0  0  0  0  0  0  0  0
   13.4047  -17.6630   22.6999 C   0  0  0  0  0  0  0  0  0  0  0  0
   12.4633  -16.5775   23.1188 C   0  0  0  0  0  0  0  0  0  0  0  0
   12.8896  -15.4019   23.3294 O   0  0  0  0  0  0  0  0  0  0  0  0
    6.4541  -13.0443   19.6710 N   0  0  0  0  0  0  0  0  0  0  0  0
    7.8180  -13.2081   20.0312 C   0  0  0  0  0  0  0  0  0  0  0  0
    8.7750  -12.7929   19.2771 N   0  0  0  0  0  0  0  0  0  0  0  0
    8.1703  -13.8503   21.2636 N   0  0  0  0  0  0  0  0  0  0  0  0
    7.1856  -14.3081   22.1962 C   0  0  0  0  0  0  0  0  0  0  0  0
    7.8651  -14.8105   23.4446 C   0  0  0  0  0  0  0  0  0  0  0  0
    8.8502  -15.8638   23.0427 C   0  0  0  0  0  0  0  0  0  0  0  0
   10.1868  -15.6979   23.7617 C   0  0  2  0  0  0  0  0  0  0  0  0
   11.0853  -16.7841   23.3008 N   0  0  0  0  0  0  0  0  0  0  0  0
    9.9272  -15.9867   25.1818 C   0  0  0  0  0  0  0  0  0  0  0  0
    9.7525  -17.2378   25.4387 O   0  0  0  0  0  0  0  0  0  0  0  0
    9.7462  -13.0094   19.5587 N   0  0  0  0  0  0  0  0  0  0  0  0
    9.8599  -15.0327   26.2482 C   0  0  0  0  0  0  0  0  0  0  0  0
    9.5882  -13.6638   25.9813 C   0  0  0  0  0  0  0  0  0  0  0  0
    9.1339  -13.1157   27.3119 C   0  0  0  0  0  0  0  0  0  0  0  0
   10.0746  -13.8841   28.2660 C   0  0  1  0  0  0  0  0  0  0  0  0
    9.9976  -15.2540   27.6212 C   0  0  0  0  0  0  0  0  0  0  0  0
    8.9512  -16.0868   28.2424 O   0  0  0  0  0  0  0  0  0  0  0  0
    7.8932  -16.3132   27.6308 O   0  0  0  0  0  0  0  0  0  0  0  0
  1  2  1  0
  3  4  2  0
  3  2  1  0
  5  6  1  0
  6  8  1  0
  7  6  2  0
  8  9  1  0
  9 10  1  0
 10 11  1  0
 12 11  1  6
 12 13  1  0
 13  3  1  0
 14 16  1  0
 14 12  1  0
 15 14  2  0
 16 17  1  0
 18 17  1  0
 19 20  1  0
 19 18  1  0
 20 16  1  0
 20 21  1  6
 21 23  1  0
 22 21  2  0
M  END
$$$$
