GRP.pdb
     RDKit          3D

 23 23  0  0  1  0  0  0  0  0999 V2000
   11.9590  -18.7305   25.5489 N   0  0  0  0  0  0  0  0  0  0  0  0
   10.5593  -18.5457   25.2490 C   0  0  0  0  0  0  0  0  0  0  0  0
   10.2913  -17.1128   24.9101 C   0  0  0  0  0  0  0  0  0  0  0  0
   11.0523  -16.1958   25.3441 O   0  0  0  0  0  0  0  0  0  0  0  0
    8.6863  -14.4512   17.5350 N   0  0  0  0  0  0  0  0  0  0  0  0
    8.3513  -13.6618   18.6670 C   0  0  0  0  0  0  0  0  0  0  0  0
    8.2887  -12.3777   18.6061 N   0  0  0  0  0  0  0  0  0  0  0  0
    8.0696  -14.2845   19.9273 N   0  0  0  0  0  0  0  0  0  0  0  0
    7.1589  -13.7167   20.8744 C   0  0  0  0  0  0  0  0  0  0  0  0
    7.7754  -13.7451   22.2498 C   0  0  0  0  0  0  0  0  0  0  0  0
    8.2419  -15.1421   22.5185 C   0  0  0  0  0  0  0  0  0  0  0  0
    8.9061  -15.2675   23.8874 C   0  0  2  0  0  0  0  0  0  0  0  0
    9.2103  -16.7017   24.1120 N   0  0  0  0  0  0  0  0  0  0  0  0
    7.8702  -14.9318   24.8783 C   0  0  0  0  0  0  0  0  0  0  0  0
    6.9677  -15.8411   25.0213 O   0  0  0  0  0  0  0  0  0  0  0  0
    8.0117  -11.8623   19.4587 N   0  0  0  0  0  0  0  0  0  0  0  0
    7.7928  -13.7337   25.6594 C   0  0  0  0  0  0  0  0  0  0  0  0
    8.7545  -12.7000   25.5000 C   0  0  0  0  0  0  0  0  0  0  0  0
    8.0860  -11.4847   26.0946 C   0  0  0  0  0  0  0  0  0  0  0  0
    7.3517  -12.1279   27.2916 C   0  0  2  0  0  0  0  0  0  0  0  0
    6.8290  -13.3748   26.6056 C   0  0  0  0  0  0  0  0  0  0  0  0
    5.4646  -13.1742   26.0837 O   0  0  0  0  0  0  0  0  0  0  0  0
    5.2672  -13.1431   24.8569 O   0  0  0  0  0  0  0  0  0  0  0  0
  1  2  1  0
  3  4  2  0
  3  2  1  0
  5  6  1  0
  6  8  1  0
  7  6  2  0
  8  9  1  0
  9 10  1  0
 10 11  1  0
 12 11  1  6
 12 13  1  0
 13  3  1  0
 14 16  1  0
 14 12  1  0
 15 14  2  0
 16 17  1  0
 18 17  1  0
 19 20  1  0
 19 18  1  0
 20 16  1  0
 20 21  1  6
 21 23  1  0
 22 21  2  0
M  END
$$$$
