GRP.pdb
     RDKit          3D

 23 23  0  0  1  0  0  0  0  0999 V2000
    8.2368  -14.7660   13.4749 N   0  0  0  0  0  0  0  0  0  0  0  0
    8.8027  -15.7632   14.3517 C   0  0  0  0  0  0  0  0  0  0  0  0
    8.1843  -15.6627   15.7109 C   0  0  0  0  0  0  0  0  0  0  0  0
    7.5479  -14.6204   16.0527 O   0  0  0  0  0  0  0  0  0  0  0  0
    2.4397  -18.5322   22.0203 N   0  0  0  0  0  0  0  0  0  0  0  0
    3.2070  -19.0097   20.9248 C   0  0  0  0  0  0  0  0  0  0  0  0
    2.6857  -19.7242   19.9898 N   0  0  0  0  0  0  0  0  0  0  0  0
    4.6043  -18.7033   20.8303 N   0  0  0  0  0  0  0  0  0  0  0  0
    5.2282  -18.3521   19.5908 C   0  0  0  0  0  0  0  0  0  0  0  0
    6.6790  -18.0195   19.8303 C   0  0  0  0  0  0  0  0  0  0  0  0
    7.3755  -18.0086   18.5051 C   0  0  0  0  0  0  0  0  0  0  0  0
    7.5739  -16.5897   17.9775 C   0  0  2  0  0  0  0  0  0  0  0  0
    8.2660  -16.6870   16.6694 N   0  0  0  0  0  0  0  0  0  0  0  0
    8.5429  -15.9478   18.8813 C   0  0  0  0  0  0  0  0  0  0  0  0
    9.6480  -16.5984   19.0121 O   0  0  0  0  0  0  0  0  0  0  0  0
    3.2971  -20.0351   19.2158 N   0  0  0  0  0  0  0  0  0  0  0  0
    8.3629  -14.7156   19.5892 C   0  0  0  0  0  0  0  0  0  0  0  0
    7.1506  -13.9835   19.4753 C   0  0  0  0  0  0  0  0  0  0  0  0
    7.1598  -13.0727   20.6785 C   0  0  0  0  0  0  0  0  0  0  0  0
    8.6602  -12.7116   20.7436 C   0  0  1  0  0  0  0  0  0  0  0  0
    9.2453  -14.0830   20.4692 C   0  0  0  0  0  0  0  0  0  0  0  0
    9.5315  -14.8098   21.7198 O   0  0  0  0  0  0  0  0  0  0  0  0
   10.4894  -14.4655   22.4330 O   0  0  0  0  0  0  0  0  0  0  0  0
  1  2  1  0
  3  4  2  0
  3  2  1  0
  5  6  1  0
  6  8  1  0
  7  6  2  0
  8  9  1  0
  9 10  1  0
 10 11  1  0
 12 11  1  1
 12 13  1  0
 13  3  1  0
 14 16  1  0
 14 12  1  0
 15 14  2  0
 16 17  1  0
 18 17  1  0
 19 20  1  0
 19 18  1  0
 20 16  1  0
 20 21  1  1
 21 23  1  0
 22 21  2  0
M  END
$$$$
