GRP.pdb
     RDKit          3D

 23 23  0  0  1  0  0  0  0  0999 V2000
    9.2947  -16.5765   19.1180 N   0  0  0  0  0  0  0  0  0  0  0  0
    9.5936  -16.6964   20.5250 C   0  0  0  0  0  0  0  0  0  0  0  0
    8.4834  -16.1080   21.3381 C   0  0  0  0  0  0  0  0  0  0  0  0
    7.4457  -15.6480   20.7726 O   0  0  0  0  0  0  0  0  0  0  0  0
    9.0797  -18.4340   27.3388 N   0  0  0  0  0  0  0  0  0  0  0  0
    8.0429  -19.4018   27.2667 C   0  0  0  0  0  0  0  0  0  0  0  0
    7.6445  -20.0501   28.3048 N   0  0  0  0  0  0  0  0  0  0  0  0
    7.4029  -19.6866   26.0158 N   0  0  0  0  0  0  0  0  0  0  0  0
    6.5950  -18.7223   25.3330 C   0  0  0  0  0  0  0  0  0  0  0  0
    7.4715  -17.6278   24.7796 C   0  0  0  0  0  0  0  0  0  0  0  0
    6.5894  -16.6317   24.0932 C   0  0  0  0  0  0  0  0  0  0  0  0
    7.3879  -15.4641   23.5187 C   0  0  2  0  0  0  0  0  0  0  0  0
    8.5173  -16.0289   22.7407 N   0  0  0  0  0  0  0  0  0  0  0  0
    8.0103  -14.7875   24.6687 C   0  0  0  0  0  0  0  0  0  0  0  0
    9.1332  -15.3037   25.0354 O   0  0  0  0  0  0  0  0  0  0  0  0
    6.8071  -20.6499   28.2129 N   0  0  0  0  0  0  0  0  0  0  0  0
    7.4919  -13.6544   25.3751 C   0  0  0  0  0  0  0  0  0  0  0  0
    6.1870  -13.1634   25.1015 C   0  0  0  0  0  0  0  0  0  0  0  0
    5.8458  -12.3364   26.3168 C   0  0  0  0  0  0  0  0  0  0  0  0
    7.2205  -11.6982   26.6148 C   0  0  2  0  0  0  0  0  0  0  0  0
    8.0984  -12.9143   26.3936 C   0  0  0  0  0  0  0  0  0  0  0  0
    8.3436  -13.6414   27.6528 O   0  0  0  0  0  0  0  0  0  0  0  0
    8.9832  -13.0977   28.5694 O   0  0  0  0  0  0  0  0  0  0  0  0
  1  2  1  0
  3  4  2  0
  3  2  1  0
  5  6  1  0
  6  8  1  0
  7  6  2  0
  8  9  1  0
  9 10  1  0
 10 11  1  0
 12 11  1  1
 12 13  1  0
 13  3  1  0
 14 16  1  0
 14 12  1  0
 15 14  2  0
 16 17  1  0
 18 17  1  0
 19 20  1  0
 19 18  1  0
 20 16  1  0
 20 21  1  1
 21 23  1  0
 22 21  2  0
M  END
$$$$
