GRP.pdb
     RDKit          3D

 23 23  0  0  1  0  0  0  0  0999 V2000
   10.0403  -20.6740   18.0321 N   0  0  0  0  0  0  0  0  0  0  0  0
    9.1188  -20.3969   19.1079 C   0  0  0  0  0  0  0  0  0  0  0  0
    9.4270  -19.0655   19.7182 C   0  0  0  0  0  0  0  0  0  0  0  0
   10.5232  -18.4801   19.4653 O   0  0  0  0  0  0  0  0  0  0  0  0
    7.3926  -12.9813   18.3103 N   0  0  0  0  0  0  0  0  0  0  0  0
    8.6069  -12.9595   19.0464 C   0  0  0  0  0  0  0  0  0  0  0  0
    9.7192  -12.5930   18.5125 N   0  0  0  0  0  0  0  0  0  0  0  0
    8.6257  -13.3514   20.4254 N   0  0  0  0  0  0  0  0  0  0  0  0
    7.4819  -13.9144   21.0762 C   0  0  0  0  0  0  0  0  0  0  0  0
    7.9254  -14.9710   22.0557 C   0  0  0  0  0  0  0  0  0  0  0  0
    7.6452  -16.3106   21.4490 C   0  0  0  0  0  0  0  0  0  0  0  0
    8.9219  -17.1238   21.2492 C   0  0  2  0  0  0  0  0  0  0  0  0
    8.5474  -18.3965   20.5862 N   0  0  0  0  0  0  0  0  0  0  0  0
    9.3781  -17.5083   22.5952 C   0  0  0  0  0  0  0  0  0  0  0  0
    8.5312  -18.2262   23.2503 O   0  0  0  0  0  0  0  0  0  0  0  0
   10.5759  -12.6414   19.0895 N   0  0  0  0  0  0  0  0  0  0  0  0
   10.6295  -17.1659   23.2023 C   0  0  0  0  0  0  0  0  0  0  0  0
   11.4833  -16.1977   22.6087 C   0  0  0  0  0  0  0  0  0  0  0  0
   12.4004  -15.7817   23.7326 C   0  0  0  0  0  0  0  0  0  0  0  0
   12.6032  -17.1378   24.4436 C   0  0  1  0  0  0  0  0  0  0  0  0
   11.1753  -17.6452   24.3962 C   0  0  0  0  0  0  0  0  0  0  0  0
   10.4354  -17.2959   25.6228 O   0  0  0  0  0  0  0  0  0  0  0  0
    9.5140  -16.4629   25.5764 O   0  0  0  0  0  0  0  0  0  0  0  0
  1  2  1  0
  3  4  2  0
  3  2  1  0
  5  6  1  0
  6  8  1  0
  7  6  2  0
  8  9  1  0
  9 10  1  0
 10 11  1  0
 12 11  1  1
 12 13  1  0
 13  3  1  0
 14 16  1  0
 14 12  1  0
 15 14  2  0
 16 17  1  0
 18 17  1  0
 19 20  1  0
 19 18  1  0
 20 16  1  0
 20 21  1  1
 21 23  1  0
 22 21  2  0
M  END
$$$$
