KRS.pdb
     RDKit          3D

 27 26  0  0  1  0  0  0  0  0999 V2000
   19.7853  -27.6714  -11.4158 N   0  0  0  0  0  0  0  0  0  0  0  0
   19.8901  -26.6722  -10.3710 C   0  0  1  0  0  0  0  0  0  0  0  0
   20.4230  -25.4084  -10.9876 C   0  0  0  0  0  0  0  0  0  0  0  0
   19.4699  -24.8919  -12.0386 C   0  0  0  0  0  0  0  0  0  0  0  0
   19.9522  -23.6965  -12.7848 C   0  0  0  0  0  0  0  0  0  0  0  0
   18.9665  -23.4286  -13.9034 C   0  0  0  0  0  0  0  0  0  0  0  0
   19.3253  -22.2705  -14.6775 N   0  0  0  0  0  0  0  0  0  0  0  0
   18.5996  -26.4789   -9.6858 C   0  0  0  0  0  0  0  0  0  0  0  0
   17.5362  -26.6883  -10.3446 O   0  0  0  0  0  0  0  0  0  0  0  0
   17.6223  -28.1554   -1.4130 N   0  0  0  0  0  0  0  0  0  0  0  0
   18.2664  -27.2741   -2.3247 C   0  0  0  0  0  0  0  0  0  0  0  0
   19.4319  -26.7548   -2.0675 N   0  0  0  0  0  0  0  0  0  0  0  0
   17.6821  -26.9002   -3.5786 N   0  0  0  0  0  0  0  0  0  0  0  0
   17.0190  -25.6211   -3.7550 C   0  0  0  0  0  0  0  0  0  0  0  0
   16.5734  -25.5342   -5.1926 C   0  0  0  0  0  0  0  0  0  0  0  0
   17.6040  -25.9161   -6.1788 C   0  0  0  0  0  0  0  0  0  0  0  0
   17.2347  -25.9177   -7.6159 C   0  0  2  0  0  0  0  0  0  0  0  0
   18.5067  -26.0787   -8.3541 N   0  0  0  0  0  0  0  0  0  0  0  0
   16.6295  -24.6738   -8.1292 C   0  0  0  0  0  0  0  0  0  0  0  0
   17.3565  -23.6303   -8.2969 O   0  0  0  0  0  0  0  0  0  0  0  0
   19.9981  -26.2866   -2.8038 O   0  0  0  0  0  0  0  0  0  0  0  0
   14.6985  -24.1640  -11.2754 C   0  0  0  0  0  0  0  0  0  0  0  0
   13.9059  -23.6500  -10.2554 C   0  0  2  0  0  0  0  0  0  0  0  0
   14.7894  -23.2458   -9.0716 N   0  0  0  0  0  0  0  0  0  0  0  0
   15.2658  -24.5006   -8.4751 C   0  0  0  0  0  0  0  0  0  0  0  0
   13.9994  -22.4619   -8.1166 O   0  0  0  0  0  0  0  0  0  0  0  0
   13.7824  -21.1049   -8.2818 O   0  0  0  0  0  0  0  0  0  0  0  0
  2  3  1  0
  2  1  1  6
  4  3  1  0
  5  4  1  0
  6  5  1  0
  7  6  1  0
  8  9  2  0
  8  2  1  0
 10 11  1  0
 11 12  2  0
 13 11  1  0
 13 14  1  0
 15 14  1  0
 16 15  1  0
 17 16  1  1
 17 18  1  0
 18  8  1  0
 19 20  2  0
 19 17  1  0
 22 21  1  0
 23 24  1  0
 23 22  1  6
 24 19  1  0
 25 23  1  0
 26 25  1  0
 27 25  2  0
M  END
$$$$
