KRS.pdb
     RDKit          3D

 27 26  0  0  1  0  0  0  0  0999 V2000
   24.9216  -22.3914  -10.6359 N   0  0  0  0  0  0  0  0  0  0  0  0
   24.7480  -20.9545  -10.7127 C   0  0  1  0  0  0  0  0  0  0  0  0
   24.5107  -20.4393   -9.3199 C   0  0  0  0  0  0  0  0  0  0  0  0
   23.0465  -20.5362   -8.9642 C   0  0  0  0  0  0  0  0  0  0  0  0
   22.7087  -21.6220   -8.0023 C   0  0  0  0  0  0  0  0  0  0  0  0
   21.2084  -21.5973   -7.7950 C   0  0  0  0  0  0  0  0  0  0  0  0
   20.7679  -22.6274   -6.8927 N   0  0  0  0  0  0  0  0  0  0  0  0
   25.8971  -20.3126  -11.3761 C   0  0  0  0  0  0  0  0  0  0  0  0
   25.9135  -19.0465  -11.4499 O   0  0  0  0  0  0  0  0  0  0  0  0
   33.4728  -23.1606  -10.2320 N   0  0  0  0  0  0  0  0  0  0  0  0
   32.7979  -23.1698  -11.4838 C   0  0  0  0  0  0  0  0  0  0  0  0
   33.0634  -24.0570  -12.3984 N   0  0  0  0  0  0  0  0  0  0  0  0
   31.7877  -22.2112  -11.8220 N   0  0  0  0  0  0  0  0  0  0  0  0
   31.4086  -21.1528  -10.9039 C   0  0  0  0  0  0  0  0  0  0  0  0
   29.9038  -21.0613  -10.9117 C   0  0  0  0  0  0  0  0  0  0  0  0
   29.2828  -21.2756  -12.2342 C   0  0  0  0  0  0  0  0  0  0  0  0
   28.1176  -20.4360  -12.6074 C   0  0  2  0  0  0  0  0  0  0  0  0
   26.9550  -21.0391  -11.9194 N   0  0  0  0  0  0  0  0  0  0  0  0
   27.7677  -20.4163  -14.0406 C   0  0  0  0  0  0  0  0  0  0  0  0
   27.2766  -21.4643  -14.5939 O   0  0  0  0  0  0  0  0  0  0  0  0
   32.5735  -24.0622  -13.3160 O   0  0  0  0  0  0  0  0  0  0  0  0
   27.5401  -18.0417  -18.2922 C   0  0  0  0  0  0  0  0  0  0  0  0
   27.7696  -18.0113  -16.9213 C   0  0  1  0  0  0  0  0  0  0  0  0
   27.5664  -19.4112  -16.3347 N   0  0  0  0  0  0  0  0  0  0  0  0
   27.9217  -19.3098  -14.9131 C   0  0  0  0  0  0  0  0  0  0  0  0
   28.4286  -20.3663  -17.0380 O   0  0  0  0  0  0  0  0  0  0  0  0
   29.7932  -20.4274  -16.8141 O   0  0  0  0  0  0  0  0  0  0  0  0
  2  3  1  0
  2  1  1  1
  4  3  1  0
  5  4  1  0
  6  5  1  0
  7  6  1  0
  8  9  2  0
  8  2  1  0
 10 11  1  0
 11 12  2  0
 13 11  1  0
 13 14  1  0
 15 14  1  0
 16 15  1  0
 17 16  1  6
 17 18  1  0
 18  8  1  0
 19 20  2  0
 19 17  1  0
 22 21  1  0
 23 24  1  0
 23 22  1  1
 24 19  1  0
 25 23  1  0
 26 25  1  0
 27 25  2  0
M  END
$$$$
