KRS.pdb
     RDKit          3D

 27 26  0  0  1  0  0  0  0  0999 V2000
   27.5912  -22.9766  -16.9739 N   0  0  0  0  0  0  0  0  0  0  0  0
   27.0397  -21.6880  -16.6048 C   0  0  1  0  0  0  0  0  0  0  0  0
   26.6280  -20.9796  -17.8657 C   0  0  0  0  0  0  0  0  0  0  0  0
   27.6895  -21.1347  -18.9283 C   0  0  0  0  0  0  0  0  0  0  0  0
   27.3970  -20.4335  -20.2093 C   0  0  0  0  0  0  0  0  0  0  0  0
   28.5705  -20.6703  -21.1373 C   0  0  0  0  0  0  0  0  0  0  0  0
   29.6460  -19.7450  -20.8998 N   0  0  0  0  0  0  0  0  0  0  0  0
   25.9348  -21.8365  -15.6407 C   0  0  0  0  0  0  0  0  0  0  0  0
   24.9367  -22.5418  -15.9800 O   0  0  0  0  0  0  0  0  0  0  0  0
   22.3793  -20.4605   -8.7151 N   0  0  0  0  0  0  0  0  0  0  0  0
   23.5587  -21.0644   -8.1982 C   0  0  0  0  0  0  0  0  0  0  0  0
   23.5240  -21.8709   -7.1773 N   0  0  0  0  0  0  0  0  0  0  0  0
   24.8555  -20.8287   -8.7607 N   0  0  0  0  0  0  0  0  0  0  0  0
   25.0567  -19.8612   -9.8239 C   0  0  0  0  0  0  0  0  0  0  0  0
   24.4144  -20.4149  -11.0703 C   0  0  0  0  0  0  0  0  0  0  0  0
   25.3642  -20.7745  -12.1424 C   0  0  0  0  0  0  0  0  0  0  0  0
   24.8162  -21.2687  -13.4298 C   0  0  2  0  0  0  0  0  0  0  0  0
   25.9471  -21.2363  -14.3831 N   0  0  0  0  0  0  0  0  0  0  0  0
   23.7555  -20.4442  -14.0398 C   0  0  0  0  0  0  0  0  0  0  0  0
   23.9962  -19.2251  -14.3583 O   0  0  0  0  0  0  0  0  0  0  0  0
   24.3923  -22.2522   -6.7499 O   0  0  0  0  0  0  0  0  0  0  0  0
   21.1539  -21.9636  -16.1409 C   0  0  0  0  0  0  0  0  0  0  0  0
   20.9605  -20.5878  -16.1929 C   0  0  1  0  0  0  0  0  0  0  0  0
   21.4415  -19.9511  -14.8858 N   0  0  0  0  0  0  0  0  0  0  0  0
   22.4363  -20.8761  -14.3271 C   0  0  0  0  0  0  0  0  0  0  0  0
   20.3024  -19.7744  -13.9794 O   0  0  0  0  0  0  0  0  0  0  0  0
   19.2189  -18.9781  -14.3077 O   0  0  0  0  0  0  0  0  0  0  0  0
  2  3  1  0
  2  1  1  6
  4  3  1  0
  5  4  1  0
  6  5  1  0
  7  6  1  0
  8  9  2  0
  8  2  1  0
 10 11  1  0
 11 12  2  0
 13 11  1  0
 13 14  1  0
 15 14  1  0
 16 15  1  0
 17 16  1  1
 17 18  1  0
 18  8  1  0
 19 20  2  0
 19 17  1  0
 22 21  1  0
 23 24  1  0
 23 22  1  6
 24 19  1  0
 25 23  1  0
 26 25  1  0
 27 25  2  0
M  END
$$$$
