KRS.pdb
     RDKit          3D

 27 26  0  0  1  0  0  0  0  0999 V2000
   27.1433  -25.2931  -18.2099 N   0  0  0  0  0  0  0  0  0  0  0  0
   26.1573  -25.9461  -17.3719 C   0  0  1  0  0  0  0  0  0  0  0  0
   26.8835  -26.8634  -16.4272 C   0  0  0  0  0  0  0  0  0  0  0  0
   27.3527  -28.1023  -17.1515 C   0  0  0  0  0  0  0  0  0  0  0  0
   27.8949  -29.1730  -16.2694 C   0  0  0  0  0  0  0  0  0  0  0  0
   28.2646  -30.3474  -17.1518 C   0  0  0  0  0  0  0  0  0  0  0  0
   28.8286  -31.4357  -16.3991 N   0  0  0  0  0  0  0  0  0  0  0  0
   25.3086  -24.9603  -16.6789 C   0  0  0  0  0  0  0  0  0  0  0  0
   25.8070  -23.8245  -16.4136 O   0  0  0  0  0  0  0  0  0  0  0  0
   19.1225  -21.7345  -18.1465 N   0  0  0  0  0  0  0  0  0  0  0  0
   19.5591  -20.4170  -17.8359 C   0  0  0  0  0  0  0  0  0  0  0  0
   18.7412  -19.4046  -17.8454 N   0  0  0  0  0  0  0  0  0  0  0  0
   20.9177  -20.1157  -17.4940 N   0  0  0  0  0  0  0  0  0  0  0  0
   21.9934  -21.0523  -17.7636 C   0  0  0  0  0  0  0  0  0  0  0  0
   21.9918  -22.0772  -16.6581 C   0  0  0  0  0  0  0  0  0  0  0  0
   22.9989  -23.1463  -16.8108 C   0  0  0  0  0  0  0  0  0  0  0  0
   23.0482  -24.2168  -15.7844 C   0  0  2  0  0  0  0  0  0  0  0  0
   23.9921  -25.2284  -16.3085 N   0  0  0  0  0  0  0  0  0  0  0  0
   21.7841  -24.9378  -15.5412 C   0  0  0  0  0  0  0  0  0  0  0  0
   21.1654  -25.4921  -16.5187 O   0  0  0  0  0  0  0  0  0  0  0  0
   19.0718  -18.4311  -17.6870 O   0  0  0  0  0  0  0  0  0  0  0  0
   20.0176  -24.9897  -11.9263 C   0  0  0  0  0  0  0  0  0  0  0  0
   19.7290  -26.1351  -12.6596 C   0  0  1  0  0  0  0  0  0  0  0  0
   19.8956  -25.8447  -14.1539 N   0  0  0  0  0  0  0  0  0  0  0  0
   21.1508  -25.0927  -14.2826 C   0  0  0  0  0  0  0  0  0  0  0  0
   18.7495  -25.0644  -14.6316 O   0  0  0  0  0  0  0  0  0  0  0  0
   18.8659  -23.7329  -14.9911 O   0  0  0  0  0  0  0  0  0  0  0  0
  2  3  1  0
  2  1  1  1
  4  3  1  0
  5  4  1  0
  6  5  1  0
  7  6  1  0
  8  9  2  0
  8  2  1  0
 10 11  1  0
 11 12  2  0
 13 11  1  0
 13 14  1  0
 15 14  1  0
 16 15  1  0
 17 16  1  6
 17 18  1  0
 18  8  1  0
 19 20  2  0
 19 17  1  0
 22 21  1  0
 23 24  1  0
 23 22  1  6
 24 19  1  0
 25 23  1  0
 26 25  1  0
 27 25  2  0
M  END
$$$$
