KRS.pdb
     RDKit          3D

 27 26  0  0  1  0  0  0  0  0999 V2000
   18.6769  -27.4763   -0.9853 N   0  0  0  0  0  0  0  0  0  0  0  0
   18.1249  -27.7181   -2.3035 C   0  0  1  0  0  0  0  0  0  0  0  0
   16.9215  -28.6065   -2.1483 C   0  0  0  0  0  0  0  0  0  0  0  0
   17.2839  -30.0419   -2.4448 C   0  0  0  0  0  0  0  0  0  0  0  0
   17.9731  -30.7538   -1.3328 C   0  0  0  0  0  0  0  0  0  0  0  0
   18.2540  -32.1669   -1.8006 C   0  0  0  0  0  0  0  0  0  0  0  0
   18.9802  -32.9290   -0.8203 N   0  0  0  0  0  0  0  0  0  0  0  0
   17.8210  -26.4527   -2.9954 C   0  0  0  0  0  0  0  0  0  0  0  0
   17.5066  -25.4466   -2.2898 O   0  0  0  0  0  0  0  0  0  0  0  0
   19.7792  -26.3838  -10.5920 N   0  0  0  0  0  0  0  0  0  0  0  0
   18.4972  -25.7741  -10.6792 C   0  0  0  0  0  0  0  0  0  0  0  0
   17.6651  -26.0634  -11.6373 N   0  0  0  0  0  0  0  0  0  0  0  0
   18.0370  -24.8075   -9.7266 N   0  0  0  0  0  0  0  0  0  0  0  0
   18.9036  -24.3058   -8.6758 C   0  0  0  0  0  0  0  0  0  0  0  0
   18.0670  -24.1521   -7.4311 C   0  0  0  0  0  0  0  0  0  0  0  0
   18.3198  -25.1705   -6.3920 C   0  0  0  0  0  0  0  0  0  0  0  0
   17.5695  -25.0730   -5.1156 C   0  0  2  0  0  0  0  0  0  0  0  0
   17.8663  -26.3231   -4.3822 N   0  0  0  0  0  0  0  0  0  0  0  0
   16.0997  -25.0175   -5.2324 C   0  0  0  0  0  0  0  0  0  0  0  0
   15.4513  -26.0448   -5.6444 O   0  0  0  0  0  0  0  0  0  0  0  0
   16.7049  -25.6648  -11.6687 O   0  0  0  0  0  0  0  0  0  0  0  0
   14.0447  -22.1006   -3.6301 C   0  0  0  0  0  0  0  0  0  0  0  0
   13.2058  -23.1434   -4.0067 C   0  0  1  0  0  0  0  0  0  0  0  0
   13.8397  -23.9214   -5.1634 N   0  0  0  0  0  0  0  0  0  0  0  0
   15.2883  -23.8976   -4.9214 C   0  0  0  0  0  0  0  0  0  0  0  0
   13.4958  -23.2754   -6.4342 O   0  0  0  0  0  0  0  0  0  0  0  0
   14.4596  -22.7367   -7.2689 O   0  0  0  0  0  0  0  0  0  0  0  0
  2  3  1  0
  2  1  1  1
  4  3  1  0
  5  4  1  0
  6  5  1  0
  7  6  1  0
  8  9  2  0
  8  2  1  0
 10 11  1  0
 11 12  2  0
 13 11  1  0
 13 14  1  0
 15 14  1  0
 16 15  1  0
 17 16  1  6
 17 18  1  0
 18  8  1  0
 19 20  2  0
 19 17  1  0
 22 21  1  0
 23 24  1  0
 23 22  1  1
 24 19  1  0
 25 23  1  0
 26 25  1  0
 27 25  2  0
M  END
$$$$
