KRS.pdb
     RDKit          3D

 27 26  0  0  1  0  0  0  0  0999 V2000
   18.5517  -23.9678   -8.4749 N   0  0  0  0  0  0  0  0  0  0  0  0
   19.3829  -24.1153   -9.6531 C   0  0  1  0  0  0  0  0  0  0  0  0
   18.8018  -25.2155  -10.4977 C   0  0  0  0  0  0  0  0  0  0  0  0
   18.9169  -26.5426   -9.7869 C   0  0  0  0  0  0  0  0  0  0  0  0
   18.4087  -27.7102  -10.5595 C   0  0  0  0  0  0  0  0  0  0  0  0
   18.5844  -28.9411   -9.6943 C   0  0  0  0  0  0  0  0  0  0  0  0
   18.0567  -30.1241  -10.3196 N   0  0  0  0  0  0  0  0  0  0  0  0
   19.5114  -22.8389  -10.3789 C   0  0  0  0  0  0  0  0  0  0  0  0
   18.5674  -21.9977  -10.2798 O   0  0  0  0  0  0  0  0  0  0  0  0
   24.7178  -23.2547  -12.4122 N   0  0  0  0  0  0  0  0  0  0  0  0
   25.4954  -22.0640  -12.4019 C   0  0  0  0  0  0  0  0  0  0  0  0
   26.4837  -21.8843  -13.2297 N   0  0  0  0  0  0  0  0  0  0  0  0
   25.2469  -20.9889  -11.4875 N   0  0  0  0  0  0  0  0  0  0  0  0
   24.1695  -21.0524  -10.5169 C   0  0  0  0  0  0  0  0  0  0  0  0
   22.9851  -20.3277  -11.1041 C   0  0  0  0  0  0  0  0  0  0  0  0
   22.2370  -21.0961  -12.1192 C   0  0  0  0  0  0  0  0  0  0  0  0
   20.7757  -21.2721  -11.9309 C   0  0  2  0  0  0  0  0  0  0  0  0
   20.6211  -22.5265  -11.1619 N   0  0  0  0  0  0  0  0  0  0  0  0
   19.9831  -21.4574  -13.1614 C   0  0  0  0  0  0  0  0  0  0  0  0
   20.0947  -22.5421  -13.8371 O   0  0  0  0  0  0  0  0  0  0  0  0
   26.9994  -20.9824  -13.2805 O   0  0  0  0  0  0  0  0  0  0  0  0
   17.3669  -18.6794  -14.4350 C   0  0  0  0  0  0  0  0  0  0  0  0
   17.0200  -19.9694  -14.8204 C   0  0  1  0  0  0  0  0  0  0  0  0
   18.2786  -20.8381  -14.9006 N   0  0  0  0  0  0  0  0  0  0  0  0
   19.0662  -20.5212  -13.7019 C   0  0  0  0  0  0  0  0  0  0  0  0
   19.0153  -20.5200  -16.1280 O   0  0  0  0  0  0  0  0  0  0  0  0
   18.5355  -20.8585  -17.3815 O   0  0  0  0  0  0  0  0  0  0  0  0
  2  3  1  0
  2  1  1  1
  4  3  1  0
  5  4  1  0
  6  5  1  0
  7  6  1  0
  8  9  2  0
  8  2  1  0
 10 11  1  0
 11 12  2  0
 13 11  1  0
 13 14  1  0
 15 14  1  0
 16 15  1  0
 17 16  1  6
 17 18  1  0
 18  8  1  0
 19 20  2  0
 19 17  1  0
 22 21  1  0
 23 24  1  0
 23 22  1  1
 24 19  1  0
 25 23  1  0
 26 25  1  0
 27 25  2  0
M  END
$$$$
