KRS.pdb
     RDKit          3D

 27 26  0  0  1  0  0  0  0  0999 V2000
   16.1399  -12.1372  -11.6799 N   0  0  0  0  0  0  0  0  0  0  0  0
   15.3844  -10.9118  -11.8485 C   0  0  1  0  0  0  0  0  0  0  0  0
   14.0857  -11.0598  -11.1049 C   0  0  0  0  0  0  0  0  0  0  0  0
   13.2598  -12.1736  -11.7025 C   0  0  0  0  0  0  0  0  0  0  0  0
   11.8975  -12.3222  -11.1191 C   0  0  0  0  0  0  0  0  0  0  0  0
   11.1849  -13.4102  -11.8956 C   0  0  0  0  0  0  0  0  0  0  0  0
    9.8586  -13.6545  -11.3954 N   0  0  0  0  0  0  0  0  0  0  0  0
   16.1654   -9.7392  -11.4157 C   0  0  0  0  0  0  0  0  0  0  0  0
   16.6717   -9.7548  -10.2528 O   0  0  0  0  0  0  0  0  0  0  0  0
   20.4353   -9.6247  -15.1085 N   0  0  0  0  0  0  0  0  0  0  0  0
   21.2398   -9.1860  -14.0209 C   0  0  0  0  0  0  0  0  0  0  0  0
   22.0830   -9.9811  -13.4285 N   0  0  0  0  0  0  0  0  0  0  0  0
   21.1784   -7.8499  -13.5063 N   0  0  0  0  0  0  0  0  0  0  0  0
   20.0265   -7.3764  -12.7608 C   0  0  0  0  0  0  0  0  0  0  0  0
   18.8662   -7.2949  -13.7198 C   0  0  0  0  0  0  0  0  0  0  0  0
   17.6037   -6.8222  -13.1171 C   0  0  0  0  0  0  0  0  0  0  0  0
   17.1596   -7.4389  -11.8426 C   0  0  2  0  0  0  0  0  0  0  0  0
   16.3655   -8.6257  -12.2294 N   0  0  0  0  0  0  0  0  0  0  0  0
   16.2669   -6.6169  -11.0033 C   0  0  0  0  0  0  0  0  0  0  0  0
   15.1719   -6.1598  -11.4908 O   0  0  0  0  0  0  0  0  0  0  0  0
   22.6780   -9.6591  -12.6383 O   0  0  0  0  0  0  0  0  0  0  0  0
   14.8676   -4.8994   -6.7084 C   0  0  0  0  0  0  0  0  0  0  0  0
   15.7241   -5.7015   -7.4540 C   0  0  2  0  0  0  0  0  0  0  0  0
   15.5929   -5.3524   -8.9393 N   0  0  0  0  0  0  0  0  0  0  0  0
   16.4999   -6.2627   -9.6507 C   0  0  0  0  0  0  0  0  0  0  0  0
   15.9664   -3.9497   -9.1471 O   0  0  0  0  0  0  0  0  0  0  0  0
   15.0282   -2.9321   -9.1491 O   0  0  0  0  0  0  0  0  0  0  0  0
  2  3  1  0
  2  1  1  1
  4  3  1  0
  5  4  1  0
  6  5  1  0
  7  6  1  0
  8  9  2  0
  8  2  1  0
 10 11  1  0
 11 12  2  0
 13 11  1  0
 13 14  1  0
 15 14  1  0
 16 15  1  0
 17 16  1  6
 17 18  1  0
 18  8  1  0
 19 20  2  0
 19 17  1  0
 22 21  1  0
 23 24  1  0
 23 22  1  6
 24 19  1  0
 25 23  1  0
 26 25  1  0
 27 25  2  0
M  END
$$$$
