KRS.pdb
     RDKit          3D

 27 26  0  0  1  0  0  0  0  0999 V2000
   18.7458  -24.3561  -14.4603 N   0  0  0  0  0  0  0  0  0  0  0  0
   19.4753  -24.1647  -13.2225 C   0  0  1  0  0  0  0  0  0  0  0  0
   19.5728  -22.6865  -12.9637 C   0  0  0  0  0  0  0  0  0  0  0  0
   20.5358  -22.0439  -13.9329 C   0  0  0  0  0  0  0  0  0  0  0  0
   19.9798  -21.7949  -15.2920 C   0  0  0  0  0  0  0  0  0  0  0  0
   19.8915  -20.2945  -15.4809 C   0  0  0  0  0  0  0  0  0  0  0  0
   19.6209  -19.9342  -16.8470 N   0  0  0  0  0  0  0  0  0  0  0  0
   18.8467  -24.9034  -12.1127 C   0  0  0  0  0  0  0  0  0  0  0  0
   17.5818  -24.8822  -12.0217 O   0  0  0  0  0  0  0  0  0  0  0  0
   20.6291  -31.7118  -10.5445 N   0  0  0  0  0  0  0  0  0  0  0  0
   21.1246  -31.3348  -11.8232 C   0  0  0  0  0  0  0  0  0  0  0  0
   21.1683  -32.1757  -12.8157 N   0  0  0  0  0  0  0  0  0  0  0  0
   21.6059  -30.0148  -12.1049 N   0  0  0  0  0  0  0  0  0  0  0  0
   21.6101  -28.9764  -11.0908 C   0  0  0  0  0  0  0  0  0  0  0  0
   20.1757  -28.6010  -10.8182 C   0  0  0  0  0  0  0  0  0  0  0  0
   20.0019  -27.5163   -9.8315 C   0  0  0  0  0  0  0  0  0  0  0  0
   18.9923  -26.4658  -10.1128 C   0  0  2  0  0  0  0  0  0  0  0  0
   19.5844  -25.6168  -11.1699 N   0  0  0  0  0  0  0  0  0  0  0  0
   18.6800  -25.5538   -8.9959 C   0  0  0  0  0  0  0  0  0  0  0  0
   19.5678  -24.7283   -8.5764 O   0  0  0  0  0  0  0  0  0  0  0  0
   21.4542  -31.8815  -13.7716 O   0  0  0  0  0  0  0  0  0  0  0  0
   15.5720  -23.7859   -5.7007 C   0  0  0  0  0  0  0  0  0  0  0  0
   15.7949  -24.5471   -6.8426 C   0  0  2  0  0  0  0  0  0  0  0  0
   17.3010  -24.6820   -7.0849 N   0  0  0  0  0  0  0  0  0  0  0  0
   17.4441  -25.4875   -8.3048 C   0  0  0  0  0  0  0  0  0  0  0  0
   17.9255  -25.3371   -5.9311 O   0  0  0  0  0  0  0  0  0  0  0  0
   17.9766  -26.7148   -5.8073 O   0  0  0  0  0  0  0  0  0  0  0  0
  2  3  1  0
  2  1  1  6
  4  3  1  0
  5  4  1  0
  6  5  1  0
  7  6  1  0
  8  9  2  0
  8  2  1  0
 10 11  1  0
 11 12  2  0
 13 11  1  0
 13 14  1  0
 15 14  1  0
 16 15  1  0
 17 16  1  1
 17 18  1  0
 18  8  1  0
 19 20  2  0
 19 17  1  0
 22 21  1  0
 23 24  1  0
 23 22  1  6
 24 19  1  0
 25 23  1  0
 26 25  1  0
 27 25  2  0
M  END
$$$$
