KRS.pdb
     RDKit          3D

 27 26  0  0  1  0  0  0  0  0999 V2000
   30.3576  -32.7645  -15.5879 N   0  0  0  0  0  0  0  0  0  0  0  0
   29.3720  -32.4624  -16.6069 C   0  0  1  0  0  0  0  0  0  0  0  0
   28.6785  -33.7441  -16.9779 C   0  0  0  0  0  0  0  0  0  0  0  0
   29.6798  -34.7632  -17.4665 C   0  0  0  0  0  0  0  0  0  0  0  0
   29.0857  -36.0448  -17.9385 C   0  0  0  0  0  0  0  0  0  0  0  0
   30.2255  -36.9444  -18.3698 C   0  0  0  0  0  0  0  0  0  0  0  0
   29.7573  -38.1889  -18.9187 N   0  0  0  0  0  0  0  0  0  0  0  0
   28.4405  -31.4137  -16.1544 C   0  0  0  0  0  0  0  0  0  0  0  0
   28.7501  -30.7444  -15.1224 O   0  0  0  0  0  0  0  0  0  0  0  0
   30.2695  -24.5947  -18.4900 N   0  0  0  0  0  0  0  0  0  0  0  0
   29.9661  -25.0842  -17.1896 C   0  0  0  0  0  0  0  0  0  0  0  0
   30.6617  -24.7341  -16.1467 N   0  0  0  0  0  0  0  0  0  0  0  0
   28.8831  -25.9887  -16.9397 N   0  0  0  0  0  0  0  0  0  0  0  0
   28.0593  -26.5023  -18.0188 C   0  0  0  0  0  0  0  0  0  0  0  0
   27.0427  -27.4347  -17.4106 C   0  0  0  0  0  0  0  0  0  0  0  0
   27.5011  -28.8305  -17.2627 C   0  0  0  0  0  0  0  0  0  0  0  0
   26.5382  -29.8355  -16.7483 C   0  0  2  0  0  0  0  0  0  0  0  0
   27.2445  -31.1339  -16.8127 N   0  0  0  0  0  0  0  0  0  0  0  0
   25.3045  -30.0120  -17.5379 C   0  0  0  0  0  0  0  0  0  0  0  0
   25.3760  -30.4009  -18.7583 O   0  0  0  0  0  0  0  0  0  0  0  0
   30.4586  -25.1131  -15.1996 O   0  0  0  0  0  0  0  0  0  0  0  0
   20.4492  -29.7913  -17.8819 C   0  0  0  0  0  0  0  0  0  0  0  0
   21.5962  -29.6096  -17.1175 C   0  0  2  0  0  0  0  0  0  0  0  0
   22.8351  -29.8685  -17.9797 N   0  0  0  0  0  0  0  0  0  0  0  0
   23.9853  -29.7890  -17.0696 C   0  0  0  0  0  0  0  0  0  0  0  0
   22.9152  -28.8564  -19.0377 O   0  0  0  0  0  0  0  0  0  0  0  0
   22.4119  -29.0797  -20.3077 O   0  0  0  0  0  0  0  0  0  0  0  0
  2  3  1  0
  2  1  1  1
  4  3  1  0
  5  4  1  0
  6  5  1  0
  7  6  1  0
  8  9  2  0
  8  2  1  0
 10 11  1  0
 11 12  2  0
 13 11  1  0
 13 14  1  0
 15 14  1  0
 16 15  1  0
 17 16  1  6
 17 18  1  0
 18  8  1  0
 19 20  2  0
 19 17  1  0
 22 21  1  0
 23 24  1  0
 23 22  1  1
 24 19  1  0
 25 23  1  0
 26 25  1  0
 27 25  2  0
M  END
$$$$
