KRL.pdb
     RDKit          3D

 29 28  0  0  1  0  0  0  0  0999 V2000
    6.2649  -15.6575   20.2448 N   0  0  0  0  0  0  0  0  0  0  0  0
    7.5100  -15.1405   20.6624 C   0  0  1  0  0  0  0  0  0  0  0  0
    7.4906  -13.6362   20.7260 C   0  0  0  0  0  0  0  0  0  0  0  0
    7.3860  -12.9465   19.4194 C   0  0  0  0  0  0  0  0  0  0  0  0
    8.3646  -13.2518   18.3591 C   0  0  0  0  0  0  0  0  0  0  0  0
    8.2791  -12.4643   17.0978 C   0  0  0  0  0  0  0  0  0  0  0  0
    9.2414  -12.7897   16.1021 N   0  0  0  0  0  0  0  0  0  0  0  0
    7.9246  -15.7520   21.9401 C   0  0  0  0  0  0  0  0  0  0  0  0
    7.1508  -15.8516   22.9334 O   0  0  0  0  0  0  0  0  0  0  0  0
   13.5932  -20.5236   22.8123 N   0  0  0  0  0  0  0  0  0  0  0  0
   13.5404  -20.9176   24.1643 C   0  0  0  0  0  0  0  0  0  0  0  0
   14.4778  -21.6082   24.7117 N   0  0  0  0  0  0  0  0  0  0  0  0
   12.4052  -20.5387   24.9622 N   0  0  0  0  0  0  0  0  0  0  0  0
   11.2529  -19.8964   24.4250 C   0  0  0  0  0  0  0  0  0  0  0  0
   11.3272  -18.3863   24.4675 C   0  0  0  0  0  0  0  0  0  0  0  0
   10.8145  -17.7551   23.2162 C   0  0  0  0  0  0  0  0  0  0  0  0
    9.6585  -16.8432   23.4045 C   0  0  2  0  0  0  0  0  0  0  0  0
    9.2279  -16.2692   22.1290 N   0  0  0  0  0  0  0  0  0  0  0  0
    9.8627  -15.7514   24.4104 C   0  0  0  0  0  0  0  0  0  0  0  0
   10.7291  -14.8647   24.2264 O   0  0  0  0  0  0  0  0  0  0  0  0
   14.3630  -21.8672   25.7351 C   0  0  0  0  0  0  0  0  0  0  0  0
    8.5065  -11.9139   25.7164 C   0  0  1  0  0  0  0  0  0  0  0  0
    7.6665  -13.0735   26.0618 C   0  0  0  0  0  0  0  0  0  0  0  0
    6.2735  -12.5584   26.4665 C   0  0  0  0  0  0  0  0  0  0  0  0
    8.1731  -14.0543   27.0319 C   0  0  2  0  0  0  0  0  0  0  0  0
    9.3925  -14.8187   26.7315 N   0  0  0  0  0  0  0  0  0  0  0  0
    9.0757  -15.7085   25.5782 C   0  0  0  0  0  0  0  0  0  0  0  0
    9.8787  -15.6980   27.7998 O   0  0  0  0  0  0  0  0  0  0  0  0
    9.7516  -16.9449   27.8754 O   0  0  0  0  0  0  0  0  0  0  0  0
  2  1  1  1
  3  2  1  0
  4  5  1  0
  4  3  1  0
  6  7  1  0
  6  5  1  0
  8  9  2  0
  8  2  1  0
 11 10  1  0
 12 11  2  0
 13 11  1  0
 14 13  1  0
 15 14  1  0
 16 15  1  0
 17 16  1  6
 17 18  1  0
 18  8  1  0
 19 17  1  0
 19 26  1  0
 20 19  2  0
 22 21  1  6
 22 24  1  0
 23 22  1  0
 25 24  1  6
 25 26  1  0
 25 27  1  0
 27 29  1  0
 28 27  2  0
M  END
$$$$
