KRL.pdb
     RDKit          3D

 29 28  0  0  1  0  0  0  0  0999 V2000
    7.7269  -20.0182   22.0852 N   0  0  0  0  0  0  0  0  0  0  0  0
    7.3095  -18.8855   22.8164 C   0  0  1  0  0  0  0  0  0  0  0  0
    6.8461  -19.2603   24.1992 C   0  0  0  0  0  0  0  0  0  0  0  0
    6.8942  -20.7067   24.5149 C   0  0  0  0  0  0  0  0  0  0  0  0
    6.3267  -21.1893   25.7878 C   0  0  0  0  0  0  0  0  0  0  0  0
    6.3258  -22.6595   26.0260 C   0  0  0  0  0  0  0  0  0  0  0  0
    5.8958  -23.0739   27.3170 N   0  0  0  0  0  0  0  0  0  0  0  0
    8.3711  -17.8604   22.8378 C   0  0  0  0  0  0  0  0  0  0  0  0
    9.5772  -18.1304   23.0977 O   0  0  0  0  0  0  0  0  0  0  0  0
    6.8634  -12.7773   18.3680 N   0  0  0  0  0  0  0  0  0  0  0  0
    7.4505  -13.7787   17.5690 C   0  0  0  0  0  0  0  0  0  0  0  0
    6.9322  -14.1530   16.4524 N   0  0  0  0  0  0  0  0  0  0  0  0
    8.6674  -14.4055   18.0104 N   0  0  0  0  0  0  0  0  0  0  0  0
    9.3805  -13.9938   19.1728 C   0  0  0  0  0  0  0  0  0  0  0  0
    9.4148  -15.0408   20.2638 C   0  0  0  0  0  0  0  0  0  0  0  0
    9.0521  -14.4836   21.5998 C   0  0  0  0  0  0  0  0  0  0  0  0
    9.1112  -15.4562   22.7196 C   0  0  2  0  0  0  0  0  0  0  0  0
    8.0967  -16.4996   22.5643 N   0  0  0  0  0  0  0  0  0  0  0  0
    9.0205  -14.8588   24.0909 C   0  0  0  0  0  0  0  0  0  0  0  0
    8.8897  -13.6216   24.2432 O   0  0  0  0  0  0  0  0  0  0  0  0
    7.4922  -14.8271   15.8530 C   0  0  0  0  0  0  0  0  0  0  0  0
    7.9318  -12.1495   26.8919 C   0  0  2  0  0  0  0  0  0  0  0  0
    7.2337  -13.2538   26.2118 C   0  0  0  0  0  0  0  0  0  0  0  0
    5.7265  -12.9407   26.2029 C   0  0  0  0  0  0  0  0  0  0  0  0
    7.4875  -14.6330   26.6514 C   0  0  2  0  0  0  0  0  0  0  0  0
    8.8535  -15.1747   26.6109 N   0  0  0  0  0  0  0  0  0  0  0  0
    9.0781  -15.6870   25.2292 C   0  0  0  0  0  0  0  0  0  0  0  0
    9.1244  -16.3016   27.5096 O   0  0  0  0  0  0  0  0  0  0  0  0
    8.9585  -17.5228   27.2694 O   0  0  0  0  0  0  0  0  0  0  0  0
  2  1  1  1
  3  2  1  0
  4  5  1  0
  4  3  1  0
  6  7  1  0
  6  5  1  0
  8  9  2  0
  8  2  1  0
 11 10  1  0
 12 11  2  0
 13 11  1  0
 14 13  1  0
 15 14  1  0
 16 15  1  0
 17 16  1  6
 17 18  1  0
 18  8  1  0
 19 17  1  0
 19 26  1  0
 20 19  2  0
 22 21  1  6
 22 24  1  0
 23 22  1  0
 25 24  1  6
 25 26  1  0
 25 27  1  0
 27 29  1  0
 28 27  2  0
M  END
$$$$
