KRL.pdb
     RDKit          3D

 29 28  0  0  1  0  0  0  0  0999 V2000
    6.2404  -15.4722   19.4947 N   0  0  0  0  0  0  0  0  0  0  0  0
    7.2802  -15.0700   20.3601 C   0  0  1  0  0  0  0  0  0  0  0  0
    7.4192  -13.5712   20.3981 C   0  0  0  0  0  0  0  0  0  0  0  0
    8.2137  -12.9789   19.2972 C   0  0  0  0  0  0  0  0  0  0  0  0
    9.6703  -13.2052   19.2524 C   0  0  0  0  0  0  0  0  0  0  0  0
   10.4411  -12.5095   18.1846 C   0  0  0  0  0  0  0  0  0  0  0  0
   11.8459  -12.7330   18.1940 N   0  0  0  0  0  0  0  0  0  0  0  0
    7.0924  -15.6515   21.7036 C   0  0  0  0  0  0  0  0  0  0  0  0
    5.9741  -15.6703   22.2903 O   0  0  0  0  0  0  0  0  0  0  0  0
    6.2128  -21.2942   26.5562 N   0  0  0  0  0  0  0  0  0  0  0  0
    7.4332  -21.0744   27.2256 C   0  0  0  0  0  0  0  0  0  0  0  0
    7.5100  -21.0306   28.5092 N   0  0  0  0  0  0  0  0  0  0  0  0
    8.6339  -20.8926   26.4549 N   0  0  0  0  0  0  0  0  0  0  0  0
    8.6495  -20.2892   25.1646 C   0  0  0  0  0  0  0  0  0  0  0  0
    8.2637  -18.8268   25.1762 C   0  0  0  0  0  0  0  0  0  0  0  0
    8.3136  -18.2136   23.8166 C   0  0  0  0  0  0  0  0  0  0  0  0
    7.9993  -16.7635   23.7731 C   0  0  2  0  0  0  0  0  0  0  0  0
    8.1665  -16.2293   22.4209 N   0  0  0  0  0  0  0  0  0  0  0  0
    8.7541  -15.9161   24.7517 C   0  0  0  0  0  0  0  0  0  0  0  0
    9.9803  -16.0935   24.9405 O   0  0  0  0  0  0  0  0  0  0  0  0
    8.4687  -20.8749   28.9384 C   0  0  0  0  0  0  0  0  0  0  0  0
    7.4347  -11.5439   25.4840 C   0  0  1  0  0  0  0  0  0  0  0  0
    6.8037  -12.5352   26.3721 C   0  0  0  0  0  0  0  0  0  0  0  0
    5.7100  -11.8251   27.1901 C   0  0  0  0  0  0  0  0  0  0  0  0
    7.6587  -13.3635   27.2339 C   0  0  2  0  0  0  0  0  0  0  0  0
    8.7050  -14.2051   26.6356 N   0  0  0  0  0  0  0  0  0  0  0  0
    8.0896  -14.9030   25.4709 C   0  0  0  0  0  0  0  0  0  0  0  0
    9.2518  -15.2591   27.4964 O   0  0  0  0  0  0  0  0  0  0  0  0
    8.8021  -16.4205   27.6558 O   0  0  0  0  0  0  0  0  0  0  0  0
  2  1  1  6
  3  2  1  0
  4  5  1  0
  4  3  1  0
  6  7  1  0
  6  5  1  0
  8  9  2  0
  8  2  1  0
 11 10  1  0
 12 11  2  0
 13 11  1  0
 14 13  1  0
 15 14  1  0
 16 15  1  0
 17 16  1  6
 17 18  1  0
 18  8  1  0
 19 17  1  0
 19 26  1  0
 20 19  2  0
 22 21  1  6
 22 24  1  0
 23 22  1  0
 25 24  1  6
 25 26  1  0
 25 27  1  0
 27 29  1  0
 28 27  2  0
M  END
$$$$
