KRL.pdb
     RDKit          3D

 29 28  0  0  1  0  0  0  0  0999 V2000
   12.0982  -19.1575   21.4960 N   0  0  0  0  0  0  0  0  0  0  0  0
   12.7065  -17.8929   21.6464 C   0  0  1  0  0  0  0  0  0  0  0  0
   13.5424  -17.5354   20.4460 C   0  0  0  0  0  0  0  0  0  0  0  0
   13.7484  -18.6280   19.4673 C   0  0  0  0  0  0  0  0  0  0  0  0
   13.4185  -18.4005   18.0480 C   0  0  0  0  0  0  0  0  0  0  0  0
   14.3475  -18.9620   17.0282 C   0  0  0  0  0  0  0  0  0  0  0  0
   13.7930  -19.9494   16.1673 N   0  0  0  0  0  0  0  0  0  0  0  0
   11.6952  -16.8629   21.9542 C   0  0  0  0  0  0  0  0  0  0  0  0
   11.9808  -15.6385   22.0743 O   0  0  0  0  0  0  0  0  0  0  0  0
    9.2239  -14.7440   16.8236 N   0  0  0  0  0  0  0  0  0  0  0  0
    8.0629  -14.0949   17.2892 C   0  0  0  0  0  0  0  0  0  0  0  0
    7.5599  -13.0771   16.6837 N   0  0  0  0  0  0  0  0  0  0  0  0
    7.4157  -14.5809   18.4781 N   0  0  0  0  0  0  0  0  0  0  0  0
    7.9945  -15.5579   19.3382 C   0  0  0  0  0  0  0  0  0  0  0  0
    7.4054  -15.5623   20.7313 C   0  0  0  0  0  0  0  0  0  0  0  0
    8.0339  -16.5897   21.6124 C   0  0  0  0  0  0  0  0  0  0  0  0
    9.2962  -16.1638   22.2671 C   0  0  2  0  0  0  0  0  0  0  0  0
   10.3306  -17.1906   22.1338 N   0  0  0  0  0  0  0  0  0  0  0  0
    9.1658  -15.7567   23.7033 C   0  0  0  0  0  0  0  0  0  0  0  0
    9.5894  -16.4986   24.6204 O   0  0  0  0  0  0  0  0  0  0  0  0
    6.7165  -12.6094   17.1278 C   0  0  0  0  0  0  0  0  0  0  0  0
    5.4400  -11.7156   26.5337 C   0  0  1  0  0  0  0  0  0  0  0  0
    6.6290  -12.5802   26.6242 C   0  0  0  0  0  0  0  0  0  0  0  0
    7.6684  -11.8814   27.5192 C   0  0  0  0  0  0  0  0  0  0  0  0
    7.2429  -13.0766   25.3846 C   0  0  2  0  0  0  0  0  0  0  0  0
    8.2603  -14.1361   25.4447 N   0  0  0  0  0  0  0  0  0  0  0  0
    8.5654  -14.5271   24.0389 C   0  0  0  0  0  0  0  0  0  0  0  0
    7.8631  -15.3698   26.1310 O   0  0  0  0  0  0  0  0  0  0  0  0
    8.2983  -15.8051   27.2254 O   0  0  0  0  0  0  0  0  0  0  0  0
  2  1  1  6
  3  2  1  0
  4  5  1  0
  4  3  1  0
  6  7  1  0
  6  5  1  0
  8  9  2  0
  8  2  1  0
 11 10  1  0
 12 11  2  0
 13 11  1  0
 14 13  1  0
 15 14  1  0
 16 15  1  0
 17 16  1  1
 17 18  1  0
 18  8  1  0
 19 17  1  0
 19 26  1  0
 20 19  2  0
 22 21  1  1
 22 24  1  0
 23 22  1  0
 25 24  1  6
 25 26  1  0
 25 27  1  0
 27 29  1  0
 28 27  2  0
M  END
$$$$
