KRL.pdb
     RDKit          3D

 29 28  0  0  1  0  0  0  0  0999 V2000
    9.6716  -18.7090   20.3865 N   0  0  0  0  0  0  0  0  0  0  0  0
   10.8501  -17.9583   20.5853 C   0  0  1  0  0  0  0  0  0  0  0  0
   11.6458  -17.8313   19.3133 C   0  0  0  0  0  0  0  0  0  0  0  0
   11.2129  -18.7110   18.2029 C   0  0  0  0  0  0  0  0  0  0  0  0
   11.9867  -18.7264   16.9475 C   0  0  0  0  0  0  0  0  0  0  0  0
   11.4835  -19.5868   15.8408 C   0  0  0  0  0  0  0  0  0  0  0  0
   12.3188  -19.6639   14.6920 N   0  0  0  0  0  0  0  0  0  0  0  0
   10.5361  -16.6469   21.1853 C   0  0  0  0  0  0  0  0  0  0  0  0
   11.4267  -15.8109   21.5064 O   0  0  0  0  0  0  0  0  0  0  0  0
    7.9846  -12.6901   17.0085 N   0  0  0  0  0  0  0  0  0  0  0  0
    8.2462  -14.0593   17.2152 C   0  0  0  0  0  0  0  0  0  0  0  0
    8.5353  -14.8536   16.2451 N   0  0  0  0  0  0  0  0  0  0  0  0
    8.1894  -14.5913   18.5503 N   0  0  0  0  0  0  0  0  0  0  0  0
    7.8622  -13.8036   19.6912 C   0  0  0  0  0  0  0  0  0  0  0  0
    6.8688  -14.4667   20.6192 C   0  0  0  0  0  0  0  0  0  0  0  0
    7.4239  -14.6829   21.9875 C   0  0  0  0  0  0  0  0  0  0  0  0
    8.8837  -14.9471   22.0351 C   0  0  2  0  0  0  0  0  0  0  0  0
    9.2034  -16.2445   21.4381 N   0  0  0  0  0  0  0  0  0  0  0  0
    9.5080  -14.8447   23.3936 C   0  0  0  0  0  0  0  0  0  0  0  0
   10.5090  -14.1152   23.5852 O   0  0  0  0  0  0  0  0  0  0  0  0
    8.7821  -15.8570   16.4894 C   0  0  0  0  0  0  0  0  0  0  0  0
    5.9011  -12.4034   26.5787 C   0  0  1  0  0  0  0  0  0  0  0  0
    7.1880  -13.1070   26.7139 C   0  0  0  0  0  0  0  0  0  0  0  0
    8.2413  -12.0984   27.2068 C   0  0  0  0  0  0  0  0  0  0  0  0
    7.6928  -13.8900   25.5773 C   0  0  2  0  0  0  0  0  0  0  0  0
    8.6895  -14.9472   25.8015 N   0  0  0  0  0  0  0  0  0  0  0  0
    8.9705  -15.5689   24.4761 C   0  0  0  0  0  0  0  0  0  0  0  0
    8.2755  -16.0435   26.6833 O   0  0  0  0  0  0  0  0  0  0  0  0
    8.6323  -16.2402   27.8711 O   0  0  0  0  0  0  0  0  0  0  0  0
  2  1  1  6
  3  2  1  0
  4  5  1  0
  4  3  1  0
  6  7  1  0
  6  5  1  0
  8  9  2  0
  8  2  1  0
 11 10  1  0
 12 11  2  0
 13 11  1  0
 14 13  1  0
 15 14  1  0
 16 15  1  0
 17 16  1  1
 17 18  1  0
 18  8  1  0
 19 17  1  0
 19 26  1  0
 20 19  2  0
 22 21  1  1
 22 24  1  0
 23 22  1  0
 25 24  1  6
 25 26  1  0
 25 27  1  0
 27 29  1  0
 28 27  2  0
M  END
$$$$
