KRL.pdb
     RDKit          3D

 29 28  0  0  1  0  0  0  0  0999 V2000
    8.3022  -18.7265   21.5523 N   0  0  0  0  0  0  0  0  0  0  0  0
    9.6400  -18.3337   21.3332 C   0  0  1  0  0  0  0  0  0  0  0  0
   10.0906  -18.6625   19.9346 C   0  0  0  0  0  0  0  0  0  0  0  0
    9.1976  -18.1891   18.8518 C   0  0  0  0  0  0  0  0  0  0  0  0
    9.5526  -18.4659   17.4474 C   0  0  0  0  0  0  0  0  0  0  0  0
    8.6298  -17.9606   16.3931 C   0  0  0  0  0  0  0  0  0  0  0  0
    9.0064  -18.2535   15.0530 N   0  0  0  0  0  0  0  0  0  0  0  0
    9.8233  -16.9066   21.6620 C   0  0  0  0  0  0  0  0  0  0  0  0
   10.9524  -16.3410   21.6471 O   0  0  0  0  0  0  0  0  0  0  0  0
    8.2604  -12.3662   17.5238 N   0  0  0  0  0  0  0  0  0  0  0  0
    8.1056  -13.7269   17.1916 C   0  0  0  0  0  0  0  0  0  0  0  0
    8.8349  -14.2996   16.2996 N   0  0  0  0  0  0  0  0  0  0  0  0
    7.1023  -14.5049   17.8675 N   0  0  0  0  0  0  0  0  0  0  0  0
    6.9518  -14.5235   19.2839 C   0  0  0  0  0  0  0  0  0  0  0  0
    8.0881  -13.8511   20.0217 C   0  0  0  0  0  0  0  0  0  0  0  0
    7.8900  -13.8578   21.5008 C   0  0  0  0  0  0  0  0  0  0  0  0
    8.8922  -14.6450   22.2620 C   0  0  2  0  0  0  0  0  0  0  0  0
    8.7319  -16.0788   22.0163 N   0  0  0  0  0  0  0  0  0  0  0  0
    8.9253  -14.3822   23.7369 C   0  0  0  0  0  0  0  0  0  0  0  0
    8.9148  -13.2095   24.1790 O   0  0  0  0  0  0  0  0  0  0  0  0
    8.6982  -15.3417   16.1491 C   0  0  0  0  0  0  0  0  0  0  0  0
    8.3317  -12.2746   27.0103 C   0  0  2  0  0  0  0  0  0  0  0  0
    7.4510  -13.1736   26.2452 C   0  0  0  0  0  0  0  0  0  0  0  0
    5.9937  -12.7344   26.4754 C   0  0  0  0  0  0  0  0  0  0  0  0
    7.6009  -14.6261   26.4110 C   0  0  2  0  0  0  0  0  0  0  0  0
    8.8926  -15.2665   26.1235 N   0  0  0  0  0  0  0  0  0  0  0  0
    8.9649  -15.4573   24.6468 C   0  0  0  0  0  0  0  0  0  0  0  0
    9.0971  -16.5934   26.7137 O   0  0  0  0  0  0  0  0  0  0  0  0
    8.9998  -17.7050   26.1380 O   0  0  0  0  0  0  0  0  0  0  0  0
  2  1  1  6
  3  2  1  0
  4  5  1  0
  4  3  1  0
  6  7  1  0
  6  5  1  0
  8  9  2  0
  8  2  1  0
 11 10  1  0
 12 11  2  0
 13 11  1  0
 14 13  1  0
 15 14  1  0
 16 15  1  0
 17 16  1  1
 17 18  1  0
 18  8  1  0
 19 17  1  0
 19 26  1  0
 20 19  2  0
 22 21  1  6
 22 24  1  0
 23 22  1  0
 25 24  1  6
 25 26  1  0
 25 27  1  0
 27 29  1  0
 28 27  2  0
M  END
$$$$
