KRL.pdb
     RDKit          3D

 29 28  0  0  1  0  0  0  0  0999 V2000
   10.0013  -13.9639   19.0362 N   0  0  0  0  0  0  0  0  0  0  0  0
    8.9055  -13.3512   19.6810 C   0  0  1  0  0  0  0  0  0  0  0  0
    7.7726  -13.0955   18.7225 C   0  0  0  0  0  0  0  0  0  0  0  0
    7.5615  -14.1415   17.6951 C   0  0  0  0  0  0  0  0  0  0  0  0
    7.9629  -13.8782   16.3006 C   0  0  0  0  0  0  0  0  0  0  0  0
    7.7320  -14.9601   15.3034 C   0  0  0  0  0  0  0  0  0  0  0  0
    8.1426  -14.6692   13.9729 N   0  0  0  0  0  0  0  0  0  0  0  0
    8.4827  -14.1429   20.8527 C   0  0  0  0  0  0  0  0  0  0  0  0
    7.4455  -13.8742   21.5214 O   0  0  0  0  0  0  0  0  0  0  0  0
    9.4916  -18.9903   18.0381 N   0  0  0  0  0  0  0  0  0  0  0  0
   10.6243  -19.4129   18.7623 C   0  0  0  0  0  0  0  0  0  0  0  0
   11.7739  -19.5650   18.2048 N   0  0  0  0  0  0  0  0  0  0  0  0
   10.4971  -19.6844   20.1690 N   0  0  0  0  0  0  0  0  0  0  0  0
    9.2627  -19.5908   20.8737 C   0  0  0  0  0  0  0  0  0  0  0  0
    8.7449  -18.1754   21.0011 C   0  0  0  0  0  0  0  0  0  0  0  0
    9.2253  -17.5027   22.2435 C   0  0  0  0  0  0  0  0  0  0  0  0
    8.7690  -16.1001   22.4112 C   0  0  2  0  0  0  0  0  0  0  0  0
    9.2228  -15.2628   21.3000 N   0  0  0  0  0  0  0  0  0  0  0  0
    9.1379  -15.4593   23.7146 C   0  0  0  0  0  0  0  0  0  0  0  0
   10.2908  -15.0044   23.9011 O   0  0  0  0  0  0  0  0  0  0  0  0
   12.5806  -19.8763   18.8209 C   0  0  0  0  0  0  0  0  0  0  0  0
    7.9508  -11.7117   25.7777 C   0  0  2  0  0  0  0  0  0  0  0  0
    6.9838  -12.8205   25.8459 C   0  0  0  0  0  0  0  0  0  0  0  0
    5.6460  -12.2644   26.3661 C   0  0  0  0  0  0  0  0  0  0  0  0
    7.3610  -14.0499   26.5572 C   0  0  2  0  0  0  0  0  0  0  0  0
    8.5194  -14.8327   26.1028 N   0  0  0  0  0  0  0  0  0  0  0  0
    8.1857  -15.3579   24.7481 C   0  0  0  0  0  0  0  0  0  0  0  0
    8.8633  -16.0028   26.9173 O   0  0  0  0  0  0  0  0  0  0  0  0
    8.6252  -17.2077   26.6562 O   0  0  0  0  0  0  0  0  0  0  0  0
  2  1  1  6
  3  2  1  0
  4  5  1  0
  4  3  1  0
  6  7  1  0
  6  5  1  0
  8  9  2  0
  8  2  1  0
 11 10  1  0
 12 11  2  0
 13 11  1  0
 14 13  1  0
 15 14  1  0
 16 15  1  0
 17 16  1  6
 17 18  1  0
 18  8  1  0
 19 17  1  0
 19 26  1  0
 20 19  2  0
 22 21  1  6
 22 24  1  0
 23 22  1  0
 25 24  1  6
 25 26  1  0
 25 27  1  0
 27 29  1  0
 28 27  2  0
M  END
$$$$
