FCR.pdb
     RDKit          3D

 29 29  0  0  1  0  0  0  0  0999 V2000
   22.8328  -11.3453  -15.2034 N   0  0  0  0  0  0  0  0  0  0  0  0
   21.5555  -10.7590  -15.5620 C   0  0  1  0  0  0  0  0  0  0  0  0
   20.5084  -11.8012  -15.2212 C   0  0  0  0  0  0  0  0  0  0  0  0
   20.5257  -12.8327  -16.2914 C   0  0  0  0  0  0  0  0  0  0  0  0
   21.1266  -14.0535  -16.1189 C   0  0  0  0  0  0  0  0  0  0  0  0
   21.1233  -15.0009  -17.1398 C   0  0  0  0  0  0  0  0  0  0  0  0
   20.5211  -14.7536  -18.3557 C   0  0  0  0  0  0  0  0  0  0  0  0
   19.9169  -13.5258  -18.5288 C   0  0  0  0  0  0  0  0  0  0  0  0
   19.9244  -12.5852  -17.5054 C   0  0  0  0  0  0  0  0  0  0  0  0
   21.3871   -9.5223  -14.7782 C   0  0  0  0  0  0  0  0  0  0  0  0
   21.4411   -9.5445  -13.5427 O   0  0  0  0  0  0  0  0  0  0  0  0
   21.1558   -8.2470  -15.3826 N   0  0  0  0  0  0  0  0  0  0  0  0
   20.8894   -7.0562  -14.6479 C   0  0  1  0  0  0  0  0  0  0  0  0
   22.0599   -6.1219  -14.5223 C   0  0  0  0  0  0  0  0  0  0  0  0
   21.5950   -4.4572  -14.0255 S   0  0  0  0  0  0  0  0  0  0  0  0
   19.6869   -6.3248  -15.1649 C   0  0  0  0  0  0  0  0  0  0  0  0
   19.5010   -6.2112  -16.4038 O   0  0  0  0  0  0  0  0  0  0  0  0
   12.6409   -9.8902  -15.1306 N   0  0  0  0  0  0  0  0  0  0  0  0
   12.8809   -9.2596  -13.8879 C   0  0  0  0  0  0  0  0  0  0  0  0
   12.2155   -9.5841  -12.8107 N   0  0  0  0  0  0  0  0  0  0  0  0
   13.8505   -8.2374  -13.7132 N   0  0  0  0  0  0  0  0  0  0  0  0
   14.7270   -7.7595  -14.7589 C   0  0  0  0  0  0  0  0  0  0  0  0
   15.6617   -6.6637  -14.2422 C   0  0  0  0  0  0  0  0  0  0  0  0
   16.5669   -6.1790  -15.3386 C   0  0  0  0  0  0  0  0  0  0  0  0
   17.4947   -5.1301  -14.8466 C   0  0  2  0  0  0  0  0  0  0  0  0
   18.7291   -5.7432  -14.3098 N   0  0  0  0  0  0  0  0  0  0  0  0
   16.9194   -4.2124  -13.8646 C   0  0  0  0  0  0  0  0  0  0  0  0
   15.8621   -3.3896  -14.1180 O   0  0  0  0  0  0  0  0  0  0  0  0
   17.3983   -4.1296  -12.6744 O   0  0  0  0  0  0  0  0  0  0  0  0
  2  1  1  1
  2  3  1  0
  3  4  1  0
  4  5  2  0
  4  9  1  0
  5  6  1  0
  6  7  2  0
  8  7  1  0
  9  8  2  0
 10  2  1  0
 11 10  2  0
 12 10  1  0
 13 12  1  0
 13 14  1  6
 15 14  1  0
 16 13  1  0
 16 26  1  0
 17 16  2  0
 19 18  1  0
 20 19  2  0
 21 19  1  0
 22 21  1  0
 23 22  1  0
 24 23  1  0
 25 26  1  0
 25 24  1  1
 27 25  1  0
 28 27  1  0
 29 27  2  0
M  END
$$$$
