FCR.pdb
     RDKit          3D

 29 29  0  0  1  0  0  0  0  0999 V2000
   27.8718  -20.1865  -16.0286 N   0  0  0  0  0  0  0  0  0  0  0  0
   27.2891  -19.4890  -14.8982 C   0  0  1  0  0  0  0  0  0  0  0  0
   26.2801  -18.5196  -15.4819 C   0  0  0  0  0  0  0  0  0  0  0  0
   27.0213  -17.3249  -15.9646 C   0  0  0  0  0  0  0  0  0  0  0  0
   27.4602  -17.2120  -17.2591 C   0  0  0  0  0  0  0  0  0  0  0  0
   28.1493  -16.0781  -17.6825 C   0  0  0  0  0  0  0  0  0  0  0  0
   28.4170  -15.0310  -16.8257 C   0  0  0  0  0  0  0  0  0  0  0  0
   27.9755  -15.1449  -15.5238 C   0  0  0  0  0  0  0  0  0  0  0  0
   27.2883  -16.2796  -15.1086 C   0  0  0  0  0  0  0  0  0  0  0  0
   26.6569  -20.4918  -14.0223 C   0  0  0  0  0  0  0  0  0  0  0  0
   26.0821  -21.4768  -14.5010 O   0  0  0  0  0  0  0  0  0  0  0  0
   26.6677  -20.3917  -12.5957 N   0  0  0  0  0  0  0  0  0  0  0  0
   25.7728  -21.0993  -11.7429 C   0  0  1  0  0  0  0  0  0  0  0  0
   26.0888  -20.9949  -10.2774 C   0  0  0  0  0  0  0  0  0  0  0  0
   24.6875  -21.3737   -9.2158 S   0  0  0  0  0  0  0  0  0  0  0  0
   24.3394  -20.7404  -11.9979 C   0  0  0  0  0  0  0  0  0  0  0  0
   23.9527  -19.5509  -11.8643 O   0  0  0  0  0  0  0  0  0  0  0  0
   18.2603  -18.0564  -16.2885 N   0  0  0  0  0  0  0  0  0  0  0  0
   18.8089  -19.2602  -16.7881 C   0  0  0  0  0  0  0  0  0  0  0  0
   19.1027  -19.4108  -18.0529 N   0  0  0  0  0  0  0  0  0  0  0  0
   19.0806  -20.3862  -15.9673 N   0  0  0  0  0  0  0  0  0  0  0  0
   19.9415  -20.3584  -14.8063 C   0  0  0  0  0  0  0  0  0  0  0  0
   20.0464  -21.7413  -14.1597 C   0  0  0  0  0  0  0  0  0  0  0  0
   21.4795  -22.0800  -13.8627 C   0  0  0  0  0  0  0  0  0  0  0  0
   21.9904  -21.2960  -12.7106 C   0  0  2  0  0  0  0  0  0  0  0  0
   23.3784  -21.6941  -12.3902 N   0  0  0  0  0  0  0  0  0  0  0  0
   21.1589  -21.3558  -11.5096 C   0  0  0  0  0  0  0  0  0  0  0  0
   20.2449  -20.4038  -11.1670 O   0  0  0  0  0  0  0  0  0  0  0  0
   21.2518  -22.3396  -10.6871 O   0  0  0  0  0  0  0  0  0  0  0  0
  2  1  1  6
  2  3  1  0
  3  4  1  0
  4  5  2  0
  4  9  1  0
  5  6  1  0
  6  7  2  0
  8  7  1  0
  9  8  2  0
 10  2  1  0
 11 10  2  0
 12 10  1  0
 13 12  1  0
 13 14  1  1
 15 14  1  0
 16 13  1  0
 16 26  1  0
 17 16  2  0
 19 18  1  0
 20 19  2  0
 21 19  1  0
 22 21  1  0
 23 22  1  0
 24 23  1  0
 25 26  1  0
 25 24  1  6
 27 25  1  0
 28 27  1  0
 29 27  2  0
M  END
$$$$
