FCR.pdb
     RDKit          3D

 29 29  0  0  1  0  0  0  0  0999 V2000
   26.8037  -21.9314  -10.8865 N   0  0  0  0  0  0  0  0  0  0  0  0
   25.7657  -21.4494  -11.7776 C   0  0  1  0  0  0  0  0  0  0  0  0
   25.2812  -20.1413  -11.1836 C   0  0  0  0  0  0  0  0  0  0  0  0
   24.3783  -20.4626  -10.0474 C   0  0  0  0  0  0  0  0  0  0  0  0
   24.7844  -20.3616   -8.7412 C   0  0  0  0  0  0  0  0  0  0  0  0
   23.9137  -20.6666   -7.6977 C   0  0  0  0  0  0  0  0  0  0  0  0
   22.6186  -21.0791   -7.9319 C   0  0  0  0  0  0  0  0  0  0  0  0
   22.2106  -21.1805   -9.2456 C   0  0  0  0  0  0  0  0  0  0  0  0
   23.0852  -20.8745  -10.2817 C   0  0  0  0  0  0  0  0  0  0  0  0
   26.3615  -21.2684  -13.1134 C   0  0  0  0  0  0  0  0  0  0  0  0
   27.4343  -20.6683  -13.2512 O   0  0  0  0  0  0  0  0  0  0  0  0
   25.7510  -21.7639  -14.3080 N   0  0  0  0  0  0  0  0  0  0  0  0
   26.3638  -21.7141  -15.5929 C   0  0  1  0  0  0  0  0  0  0  0  0
   27.0169  -22.9964  -16.0261 C   0  0  0  0  0  0  0  0  0  0  0  0
   26.0667  -24.4621  -15.5984 S   0  0  0  0  0  0  0  0  0  0  0  0
   25.4257  -21.2185  -16.6525 C   0  0  0  0  0  0  0  0  0  0  0  0
   24.2355  -21.6245  -16.6826 O   0  0  0  0  0  0  0  0  0  0  0  0
   24.8263  -15.0170  -15.3343 N   0  0  0  0  0  0  0  0  0  0  0  0
   23.7237  -15.0632  -16.2185 C   0  0  0  0  0  0  0  0  0  0  0  0
   22.6198  -14.4058  -15.9782 N   0  0  0  0  0  0  0  0  0  0  0  0
   23.7274  -15.8172  -17.4214 N   0  0  0  0  0  0  0  0  0  0  0  0
   24.7038  -16.8339  -17.7418 C   0  0  0  0  0  0  0  0  0  0  0  0
   24.3808  -17.5136  -19.0742 C   0  0  0  0  0  0  0  0  0  0  0  0
   25.3507  -18.6270  -19.3499 C   0  0  0  0  0  0  0  0  0  0  0  0
   24.9013  -19.8985  -18.7302 C   0  0  2  0  0  0  0  0  0  0  0  0
   25.8211  -20.2961  -17.6423 N   0  0  0  0  0  0  0  0  0  0  0  0
   24.7182  -21.0070  -19.6659 C   0  0  0  0  0  0  0  0  0  0  0  0
   23.5523  -21.2641  -20.3243 O   0  0  0  0  0  0  0  0  0  0  0  0
   25.6774  -21.8239  -19.9218 O   0  0  0  0  0  0  0  0  0  0  0  0
  2  1  1  1
  2  3  1  0
  3  4  1  0
  4  5  2  0
  4  9  1  0
  5  6  1  0
  6  7  2  0
  8  7  1  0
  9  8  2  0
 10  2  1  0
 11 10  2  0
 12 10  1  0
 13 12  1  0
 13 14  1  6
 15 14  1  0
 16 13  1  0
 16 26  1  0
 17 16  2  0
 19 18  1  0
 20 19  2  0
 21 19  1  0
 22 21  1  0
 23 22  1  0
 24 23  1  0
 25 26  1  0
 25 24  1  6
 27 25  1  0
 28 27  1  0
 29 27  2  0
M  END
$$$$
