FCR.pdb
     RDKit          3D

 29 29  0  0  1  0  0  0  0  0999 V2000
   28.2392  -20.4370  -14.8938 N   0  0  0  0  0  0  0  0  0  0  0  0
   27.3787  -19.7073  -13.9822 C   0  0  1  0  0  0  0  0  0  0  0  0
   26.2615  -19.1347  -14.8323 C   0  0  0  0  0  0  0  0  0  0  0  0
   26.8330  -18.0406  -15.6604 C   0  0  0  0  0  0  0  0  0  0  0  0
   27.1094  -18.2026  -16.9941 C   0  0  0  0  0  0  0  0  0  0  0  0
   27.6416  -17.1570  -17.7446 C   0  0  0  0  0  0  0  0  0  0  0  0
   27.9106  -15.9262  -17.1835 C   0  0  0  0  0  0  0  0  0  0  0  0
   27.6325  -15.7636  -15.8422 C   0  0  0  0  0  0  0  0  0  0  0  0
   27.1015  -16.8117  -15.0996 C   0  0  0  0  0  0  0  0  0  0  0  0
   26.8796  -20.6561  -12.9708 C   0  0  0  0  0  0  0  0  0  0  0  0
   26.5391  -21.8011  -13.2916 O   0  0  0  0  0  0  0  0  0  0  0  0
   26.7599  -20.3207  -11.5857 N   0  0  0  0  0  0  0  0  0  0  0  0
   25.7729  -20.8697  -10.7178 C   0  0  1  0  0  0  0  0  0  0  0  0
   26.0383  -20.6590   -9.2537 C   0  0  0  0  0  0  0  0  0  0  0  0
   26.2365  -18.9287   -8.8054 S   0  0  0  0  0  0  0  0  0  0  0  0
   24.3880  -20.4161  -11.0710 C   0  0  0  0  0  0  0  0  0  0  0  0
   24.1773  -19.2168  -11.3864 O   0  0  0  0  0  0  0  0  0  0  0  0
   20.1045  -25.7676  -15.3298 N   0  0  0  0  0  0  0  0  0  0  0  0
   19.3624  -24.5651  -15.3871 C   0  0  0  0  0  0  0  0  0  0  0  0
   18.1205  -24.5407  -15.7938 N   0  0  0  0  0  0  0  0  0  0  0  0
   19.8997  -23.3056  -15.0127 N   0  0  0  0  0  0  0  0  0  0  0  0
   21.1423  -23.1315  -14.2946 C   0  0  0  0  0  0  0  0  0  0  0  0
   20.9078  -22.4843  -12.9279 C   0  0  0  0  0  0  0  0  0  0  0  0
   21.6171  -21.1632  -12.8387 C   0  0  0  0  0  0  0  0  0  0  0  0
   21.9288  -20.8134  -11.4303 C   0  0  2  0  0  0  0  0  0  0  0  0
   23.2814  -21.2893  -11.0674 N   0  0  0  0  0  0  0  0  0  0  0  0
   20.9501  -21.2810  -10.4500 C   0  0  0  0  0  0  0  0  0  0  0  0
   21.2460  -22.1231   -9.4193 O   0  0  0  0  0  0  0  0  0  0  0  0
   19.7201  -20.9123  -10.5134 O   0  0  0  0  0  0  0  0  0  0  0  0
  2  1  1  6
  2  3  1  0
  3  4  1  0
  4  5  2  0
  4  9  1  0
  5  6  1  0
  6  7  2  0
  8  7  1  0
  9  8  2  0
 10  2  1  0
 11 10  2  0
 12 10  1  0
 13 12  1  0
 13 14  1  1
 15 14  1  0
 16 13  1  0
 16 26  1  0
 17 16  2  0
 19 18  1  0
 20 19  2  0
 21 19  1  0
 22 21  1  0
 23 22  1  0
 24 23  1  0
 25 26  1  0
 25 24  1  6
 27 25  1  0
 28 27  1  0
 29 27  2  0
M  END
$$$$
