FCR.pdb
     RDKit          3D

 29 29  0  0  1  0  0  0  0  0999 V2000
   28.3803  -21.0210   -8.3648 N   0  0  0  0  0  0  0  0  0  0  0  0
   27.0458  -20.4526   -8.3506 C   0  0  1  0  0  0  0  0  0  0  0  0
   27.1474  -19.1713   -7.5464 C   0  0  0  0  0  0  0  0  0  0  0  0
   27.7854  -19.4990   -6.2444 C   0  0  0  0  0  0  0  0  0  0  0  0
   27.1591  -20.2693   -5.2980 C   0  0  0  0  0  0  0  0  0  0  0  0
   27.7845  -20.5620   -4.0885 C   0  0  0  0  0  0  0  0  0  0  0  0
   29.0481  -20.0939   -3.7943 C   0  0  0  0  0  0  0  0  0  0  0  0
   29.6775  -19.3192   -4.7463 C   0  0  0  0  0  0  0  0  0  0  0  0
   29.0471  -19.0312   -5.9511 C   0  0  0  0  0  0  0  0  0  0  0  0
   26.6428  -20.2044   -9.7464 C   0  0  0  0  0  0  0  0  0  0  0  0
   27.0104  -19.1826  -10.3385 O   0  0  0  0  0  0  0  0  0  0  0  0
   25.8197  -21.1088  -10.4879 N   0  0  0  0  0  0  0  0  0  0  0  0
   25.7460  -21.1318  -11.9102 C   0  0  1  0  0  0  0  0  0  0  0  0
   26.5049  -22.2550  -12.5592 C   0  0  0  0  0  0  0  0  0  0  0  0
   28.2629  -22.2416  -12.1808 S   0  0  0  0  0  0  0  0  0  0  0  0
   24.3320  -21.0968  -12.4080 C   0  0  0  0  0  0  0  0  0  0  0  0
   23.4450  -21.7838  -11.8392 O   0  0  0  0  0  0  0  0  0  0  0  0
   20.0572  -16.7665  -13.8886 N   0  0  0  0  0  0  0  0  0  0  0  0
   19.2447  -16.6443  -15.0395 C   0  0  0  0  0  0  0  0  0  0  0  0
   18.1660  -15.9062  -15.0462 N   0  0  0  0  0  0  0  0  0  0  0  0
   19.5317  -17.3045  -16.2631 N   0  0  0  0  0  0  0  0  0  0  0  0
   20.7257  -18.0819  -16.5081 C   0  0  0  0  0  0  0  0  0  0  0  0
   20.9066  -19.1706  -15.4480 C   0  0  0  0  0  0  0  0  0  0  0  0
   22.3239  -19.1959  -14.9511 C   0  0  0  0  0  0  0  0  0  0  0  0
   22.5312  -20.2906  -13.9705 C   0  0  2  0  0  0  0  0  0  0  0  0
   23.9367  -20.3121  -13.5102 N   0  0  0  0  0  0  0  0  0  0  0  0
   22.1335  -21.6176  -14.4378 C   0  0  0  0  0  0  0  0  0  0  0  0
   20.8950  -22.1542  -14.2451 O   0  0  0  0  0  0  0  0  0  0  0  0
   22.9588  -22.3718  -15.0726 O   0  0  0  0  0  0  0  0  0  0  0  0
  2  1  1  6
  2  3  1  0
  3  4  1  0
  4  5  2  0
  4  9  1  0
  5  6  1  0
  6  7  2  0
  8  7  1  0
  9  8  2  0
 10  2  1  0
 11 10  2  0
 12 10  1  0
 13 12  1  0
 13 14  1  1
 15 14  1  0
 16 13  1  0
 16 26  1  0
 17 16  2  0
 19 18  1  0
 20 19  2  0
 21 19  1  0
 22 21  1  0
 23 22  1  0
 24 23  1  0
 25 26  1  0
 25 24  1  6
 27 25  1  0
 28 27  1  0
 29 27  2  0
M  END
$$$$
