FCR.pdb
     RDKit          3D

 29 29  0  0  1  0  0  0  0  0999 V2000
   23.8081  -18.0694  -16.4859 N   0  0  0  0  0  0  0  0  0  0  0  0
   22.4559  -18.5778  -16.3559 C   0  0  1  0  0  0  0  0  0  0  0  0
   22.0896  -19.1399  -17.7155 C   0  0  0  0  0  0  0  0  0  0  0  0
   21.8690  -17.9956  -18.6382 C   0  0  0  0  0  0  0  0  0  0  0  0
   22.7535  -17.6839  -19.6391 C   0  0  0  0  0  0  0  0  0  0  0  0
   22.5172  -16.6070  -20.4902 C   0  0  0  0  0  0  0  0  0  0  0  0
   21.3943  -15.8163  -20.3636 C   0  0  0  0  0  0  0  0  0  0  0  0
   20.5050  -16.1301  -19.3569 C   0  0  0  0  0  0  0  0  0  0  0  0
   20.7475  -17.2063  -18.5113 C   0  0  0  0  0  0  0  0  0  0  0  0
   22.4585  -19.6129  -15.3068 C   0  0  0  0  0  0  0  0  0  0  0  0
   23.4642  -20.3032  -15.1021 O   0  0  0  0  0  0  0  0  0  0  0  0
   21.3240  -19.8790  -14.4776 N   0  0  0  0  0  0  0  0  0  0  0  0
   21.3312  -20.8039  -13.3944 C   0  0  1  0  0  0  0  0  0  0  0  0
   21.2403  -20.1752  -12.0324 C   0  0  0  0  0  0  0  0  0  0  0  0
   20.3138  -18.6339  -12.0176 S   0  0  0  0  0  0  0  0  0  0  0  0
   20.2901  -21.8718  -13.5503 C   0  0  0  0  0  0  0  0  0  0  0  0
   19.1918  -21.6073  -14.1036 O   0  0  0  0  0  0  0  0  0  0  0  0
   21.4647  -29.8298  -11.0979 N   0  0  0  0  0  0  0  0  0  0  0  0
   20.5288  -28.9602  -10.4915 C   0  0  0  0  0  0  0  0  0  0  0  0
   20.1620  -29.1036   -9.2452 N   0  0  0  0  0  0  0  0  0  0  0  0
   19.9209  -27.8768  -11.1786 N   0  0  0  0  0  0  0  0  0  0  0  0
   19.3875  -27.9598  -12.5197 C   0  0  0  0  0  0  0  0  0  0  0  0
   18.8751  -26.5998  -12.9986 C   0  0  0  0  0  0  0  0  0  0  0  0
   19.9111  -25.5351  -12.7765 C   0  0  0  0  0  0  0  0  0  0  0  0
   19.4068  -24.1997  -13.1833 C   0  0  2  0  0  0  0  0  0  0  0  0
   20.4858  -23.1918  -13.0963 N   0  0  0  0  0  0  0  0  0  0  0  0
   18.2271  -23.7396  -12.4524 C   0  0  0  0  0  0  0  0  0  0  0  0
   16.9448  -24.0240  -12.8182 O   0  0  0  0  0  0  0  0  0  0  0  0
   18.3423  -23.0180  -11.3947 O   0  0  0  0  0  0  0  0  0  0  0  0
  2  1  1  6
  2  3  1  0
  3  4  1  0
  4  5  2  0
  4  9  1  0
  5  6  1  0
  6  7  2  0
  8  7  1  0
  9  8  2  0
 10  2  1  0
 11 10  2  0
 12 10  1  0
 13 12  1  0
 13 14  1  1
 15 14  1  0
 16 13  1  0
 16 26  1  0
 17 16  2  0
 19 18  1  0
 20 19  2  0
 21 19  1  0
 22 21  1  0
 23 22  1  0
 24 23  1  0
 25 26  1  0
 25 24  1  1
 27 25  1  0
 28 27  1  0
 29 27  2  0
M  END
$$$$
