FCR.pdb
     RDKit          3D

 29 29  0  0  1  0  0  0  0  0999 V2000
   34.8287  -31.9277  -17.8460 N   0  0  0  0  0  0  0  0  0  0  0  0
   33.7259  -31.7842  -18.7772 C   0  0  1  0  0  0  0  0  0  0  0  0
   33.5607  -33.1382  -19.4391 C   0  0  0  0  0  0  0  0  0  0  0  0
   34.5394  -33.2234  -20.5546 C   0  0  0  0  0  0  0  0  0  0  0  0
   34.4929  -32.3768  -21.6327 C   0  0  0  0  0  0  0  0  0  0  0  0
   35.4266  -32.4793  -22.6611 C   0  0  0  0  0  0  0  0  0  0  0  0
   36.4279  -33.4275  -22.6387 C   0  0  0  0  0  0  0  0  0  0  0  0
   36.4743  -34.2788  -21.5543 C   0  0  0  0  0  0  0  0  0  0  0  0
   35.5390  -34.1705  -20.5318 C   0  0  0  0  0  0  0  0  0  0  0  0
   32.5313  -31.3894  -18.0094 C   0  0  0  0  0  0  0  0  0  0  0  0
   32.3783  -31.7646  -16.8408 O   0  0  0  0  0  0  0  0  0  0  0  0
   31.4968  -30.5661  -18.5545 N   0  0  0  0  0  0  0  0  0  0  0  0
   30.3566  -30.1321  -17.8194 C   0  0  1  0  0  0  0  0  0  0  0  0
   29.6348  -28.9574  -18.4174 C   0  0  0  0  0  0  0  0  0  0  0  0
   30.4852  -27.3930  -18.1655 S   0  0  0  0  0  0  0  0  0  0  0  0
   29.3981  -31.2514  -17.5417 C   0  0  0  0  0  0  0  0  0  0  0  0
   29.1465  -32.1032  -18.4324 O   0  0  0  0  0  0  0  0  0  0  0  0
   23.3762  -34.0291  -12.0512 N   0  0  0  0  0  0  0  0  0  0  0  0
   24.2107  -35.1679  -12.1311 C   0  0  0  0  0  0  0  0  0  0  0  0
   23.7667  -36.3676  -11.8626 N   0  0  0  0  0  0  0  0  0  0  0  0
   25.5787  -35.1003  -12.5043 N   0  0  0  0  0  0  0  0  0  0  0  0
   26.2736  -33.8756  -12.8316 C   0  0  0  0  0  0  0  0  0  0  0  0
   26.7463  -33.8774  -14.2870 C   0  0  0  0  0  0  0  0  0  0  0  0
   27.4930  -32.6129  -14.6032 C   0  0  0  0  0  0  0  0  0  0  0  0
   27.8327  -32.5345  -16.0459 C   0  0  2  0  0  0  0  0  0  0  0  0
   28.7481  -31.4008  -16.2999 N   0  0  0  0  0  0  0  0  0  0  0  0
   26.6821  -32.4646  -16.9452 C   0  0  0  0  0  0  0  0  0  0  0  0
   26.1769  -33.5354  -17.6214 O   0  0  0  0  0  0  0  0  0  0  0  0
   26.0698  -31.3534  -17.1531 O   0  0  0  0  0  0  0  0  0  0  0  0
  2  1  1  1
  2  3  1  0
  3  4  1  0
  4  5  2  0
  4  9  1  0
  5  6  1  0
  6  7  2  0
  8  7  1  0
  9  8  2  0
 10  2  1  0
 11 10  2  0
 12 10  1  0
 13 12  1  0
 13 14  1  6
 15 14  1  0
 16 13  1  0
 16 26  1  0
 17 16  2  0
 19 18  1  0
 20 19  2  0
 21 19  1  0
 22 21  1  0
 23 22  1  0
 24 23  1  0
 25 26  1  0
 25 24  1  1
 27 25  1  0
 28 27  1  0
 29 27  2  0
M  END
$$$$
