FCR.pdb
     RDKit          3D

 29 29  0  0  1  0  0  0  0  0999 V2000
   24.8088  -20.7395  -12.0151 N   0  0  0  0  0  0  0  0  0  0  0  0
   25.7763  -19.6867  -12.2588 C   0  0  1  0  0  0  0  0  0  0  0  0
   27.1098  -20.2277  -11.7814 C   0  0  0  0  0  0  0  0  0  0  0  0
   27.0833  -20.2609  -10.2956 C   0  0  0  0  0  0  0  0  0  0  0  0
   26.8183  -21.4104   -9.5958 C   0  0  0  0  0  0  0  0  0  0  0  0
   26.8041  -21.4105   -8.2031 C   0  0  0  0  0  0  0  0  0  0  0  0
   27.0535  -20.2654   -7.4759 C   0  0  0  0  0  0  0  0  0  0  0  0
   27.3200  -19.1096   -8.1800 C   0  0  0  0  0  0  0  0  0  0  0  0
   27.3324  -19.1172   -9.5700 C   0  0  0  0  0  0  0  0  0  0  0  0
   25.7774  -19.3961  -13.7037 C   0  0  0  0  0  0  0  0  0  0  0  0
   25.4531  -20.2638  -14.5234 O   0  0  0  0  0  0  0  0  0  0  0  0
   26.1452  -18.1215  -14.2377 N   0  0  0  0  0  0  0  0  0  0  0  0
   26.0082  -17.7655  -15.6101 C   0  0  1  0  0  0  0  0  0  0  0  0
   25.6948  -16.3160  -15.8536 C   0  0  0  0  0  0  0  0  0  0  0  0
   26.2769  -15.2295  -14.5442 S   0  0  0  0  0  0  0  0  0  0  0  0
   27.1890  -18.1924  -16.4298 C   0  0  0  0  0  0  0  0  0  0  0  0
   28.3407  -18.1968  -15.9240 O   0  0  0  0  0  0  0  0  0  0  0  0
   31.2405  -24.1942  -14.4875 N   0  0  0  0  0  0  0  0  0  0  0  0
   30.3974  -24.6297  -15.5359 C   0  0  0  0  0  0  0  0  0  0  0  0
   30.1527  -25.8971  -15.7419 N   0  0  0  0  0  0  0  0  0  0  0  0
   29.7582  -23.7376  -16.4364 N   0  0  0  0  0  0  0  0  0  0  0  0
   30.0303  -22.3196  -16.5081 C   0  0  0  0  0  0  0  0  0  0  0  0
   29.2636  -21.6645  -17.6590 C   0  0  0  0  0  0  0  0  0  0  0  0
   28.4239  -20.5253  -17.1557 C   0  0  0  0  0  0  0  0  0  0  0  0
   27.7712  -19.8017  -18.2752 C   0  0  2  0  0  0  0  0  0  0  0  0
   27.0699  -18.5997  -17.7740 N   0  0  0  0  0  0  0  0  0  0  0  0
   26.8644  -20.6131  -19.0856 C   0  0  0  0  0  0  0  0  0  0  0  0
   27.2201  -21.2151  -20.2562 O   0  0  0  0  0  0  0  0  0  0  0  0
   25.6451  -20.8046  -18.7257 O   0  0  0  0  0  0  0  0  0  0  0  0
  2  1  1  6
  2  3  1  0
  3  4  1  0
  4  5  2  0
  4  9  1  0
  5  6  1  0
  6  7  2  0
  8  7  1  0
  9  8  2  0
 10  2  1  0
 11 10  2  0
 12 10  1  0
 13 12  1  0
 13 14  1  1
 15 14  1  0
 16 13  1  0
 16 26  1  0
 17 16  2  0
 19 18  1  0
 20 19  2  0
 21 19  1  0
 22 21  1  0
 23 22  1  0
 24 23  1  0
 25 26  1  0
 25 24  1  1
 27 25  1  0
 28 27  1  0
 29 27  2  0
M  END
$$$$
