FCR.pdb
     RDKit          3D

 29 29  0  0  1  0  0  0  0  0999 V2000
   26.7897  -17.9966  -18.4732 N   0  0  0  0  0  0  0  0  0  0  0  0
   27.2052  -18.6899  -17.2688 C   0  0  1  0  0  0  0  0  0  0  0  0
   26.8396  -17.7765  -16.1152 C   0  0  0  0  0  0  0  0  0  0  0  0
   27.7412  -16.5958  -16.1645 C   0  0  0  0  0  0  0  0  0  0  0  0
   29.0506  -16.6932  -16.5608 C   0  0  0  0  0  0  0  0  0  0  0  0
   29.8699  -15.5676  -16.5998 C   0  0  0  0  0  0  0  0  0  0  0  0
   29.4032  -14.3192  -16.2449 C   0  0  0  0  0  0  0  0  0  0  0  0
   28.0863  -14.2216  -15.8463 C   0  0  0  0  0  0  0  0  0  0  0  0
   27.2747  -15.3494  -15.8099 C   0  0  0  0  0  0  0  0  0  0  0  0
   26.4851  -19.9747  -17.2126 C   0  0  0  0  0  0  0  0  0  0  0  0
   25.3599  -20.0912  -17.7127 O   0  0  0  0  0  0  0  0  0  0  0  0
   27.0294  -21.1417  -16.5906 N   0  0  0  0  0  0  0  0  0  0  0  0
   26.3101  -22.3590  -16.4184 C   0  0  1  0  0  0  0  0  0  0  0  0
   27.1027  -23.4728  -15.7942 C   0  0  0  0  0  0  0  0  0  0  0  0
   28.8181  -23.5174  -16.3322 S   0  0  0  0  0  0  0  0  0  0  0  0
   25.0182  -22.1583  -15.6841 C   0  0  0  0  0  0  0  0  0  0  0  0
   24.9498  -21.3280  -14.7416 O   0  0  0  0  0  0  0  0  0  0  0  0
   20.6795  -18.7860  -13.3149 N   0  0  0  0  0  0  0  0  0  0  0  0
   20.6037  -18.3545  -14.6595 C   0  0  0  0  0  0  0  0  0  0  0  0
   21.0186  -17.1709  -15.0276 N   0  0  0  0  0  0  0  0  0  0  0  0
   20.0780  -19.1611  -15.7027 N   0  0  0  0  0  0  0  0  0  0  0  0
   19.6342  -20.5263  -15.5312 C   0  0  0  0  0  0  0  0  0  0  0  0
   20.5983  -21.5111  -16.1963 C   0  0  0  0  0  0  0  0  0  0  0  0
   21.9891  -21.3379  -15.6557 C   0  0  0  0  0  0  0  0  0  0  0  0
   22.5833  -22.6422  -15.2702 C   0  0  2  0  0  0  0  0  0  0  0  0
   23.8459  -22.8719  -16.0056 N   0  0  0  0  0  0  0  0  0  0  0  0
   21.6938  -23.7922  -15.4244 C   0  0  0  0  0  0  0  0  0  0  0  0
   20.6895  -24.1011  -14.5554 O   0  0  0  0  0  0  0  0  0  0  0  0
   21.8187  -24.5985  -16.4180 O   0  0  0  0  0  0  0  0  0  0  0  0
  2  1  1  6
  2  3  1  0
  3  4  1  0
  4  5  2  0
  4  9  1  0
  5  6  1  0
  6  7  2  0
  8  7  1  0
  9  8  2  0
 10  2  1  0
 11 10  2  0
 12 10  1  0
 13 12  1  0
 13 14  1  1
 15 14  1  0
 16 13  1  0
 16 26  1  0
 17 16  2  0
 19 18  1  0
 20 19  2  0
 21 19  1  0
 22 21  1  0
 23 22  1  0
 24 23  1  0
 25 26  1  0
 25 24  1  6
 27 25  1  0
 28 27  1  0
 29 27  2  0
M  END
$$$$
