HKW.pdb
     RDKit          3D

 34 36  0  0  1  0  0  0  0  0999 V2000
    8.3552  -16.8754   19.8754 N   0  0  0  0  0  0  0  0  0  0  0  0
    8.4922  -15.9797   21.0011 C   0  0  1  0  0  0  0  0  0  0  0  0
    7.4435  -14.9082   20.9762 C   0  0  0  0  0  0  0  0  0  0  0  0
    7.7352  -13.9081   19.8919 C   0  0  0  0  0  0  0  0  0  0  0  0
    8.8038  -13.9493   19.0106 C   0  0  0  0  0  0  0  0  0  0  0  0
    8.7266  -12.8992   18.2025 N   0  0  0  0  0  0  0  0  0  0  0  0
    7.6304  -12.2036   18.5627 C   0  0  0  0  0  0  0  0  0  0  0  0
    7.0239  -12.8088   19.5861 N   0  0  0  0  0  0  0  0  0  0  0  0
    8.5605  -16.7447   22.2605 C   0  0  0  0  0  0  0  0  0  0  0  0
    7.5679  -16.9879   22.9842 O   0  0  0  0  0  0  0  0  0  0  0  0
    9.8224  -17.2395   22.6875 N   0  0  0  0  0  0  0  0  0  0  0  0
    9.9203  -18.1398   23.8588 C   0  0  1  0  0  0  0  0  0  0  0  0
   11.0925  -19.0460   23.6699 C   0  0  0  0  0  0  0  0  0  0  0  0
   10.8047  -20.1198   22.6720 C   0  0  0  0  0  0  0  0  0  0  0  0
   11.9819  -21.0776   22.5148 C   0  0  0  0  0  0  0  0  0  0  0  0
   11.7590  -22.0922   21.4335 C   0  0  0  0  0  0  0  0  0  0  0  0
   12.9237  -22.9420   21.2366 N   0  0  0  0  0  0  0  0  0  0  0  0
   10.1364  -17.2636   25.0201 C   0  0  0  0  0  0  0  0  0  0  0  0
   10.8715  -16.2288   24.8507 O   0  0  0  0  0  0  0  0  0  0  0  0
    9.6143  -17.4301   26.3128 N   0  0  0  0  0  0  0  0  0  0  0  0
   10.0761  -16.5990   27.4398 C   0  0  1  0  0  0  0  0  0  0  0  0
    8.8552  -16.0858   28.1166 C   0  0  0  0  0  0  0  0  0  0  0  0
    7.9379  -15.3396   27.2568 C   0  0  0  0  0  0  0  0  0  0  0  0
    6.9147  -15.8616   26.4480 C   0  0  0  0  0  0  0  0  0  0  0  0
    6.3212  -14.8500   25.7954 N   0  0  0  0  0  0  0  0  0  0  0  0
    6.8893  -13.6862   26.1234 C   0  0  0  0  0  0  0  0  0  0  0  0
    6.6044  -12.4030   25.7171 C   0  0  0  0  0  0  0  0  0  0  0  0
    7.3508  -11.3675   26.2366 C   0  0  0  0  0  0  0  0  0  0  0  0
    8.3723  -11.5914   27.1510 C   0  0  0  0  0  0  0  0  0  0  0  0
    8.6080  -12.8914   27.5158 C   0  0  0  0  0  0  0  0  0  0  0  0
    7.8833  -13.9612   27.0186 C   0  0  0  0  0  0  0  0  0  0  0  0
   11.0846  -17.2526   28.2498 C   0  0  0  0  0  0  0  0  0  0  0  0
   11.4309  -18.4694   28.0955 O   0  0  0  0  0  0  0  0  0  0  0  0
   11.7256  -16.5238   29.2625 O   0  0  0  0  0  0  0  0  0  0  0  0
  2  1  1  6
  2  3  1  0
  3  4  1  0
  4  5  2  0
  4  8  1  0
  5  6  1  0
  6  7  1  0
  8  7  2  0
  9  2  1  0
  9 10  2  0
 11  9  1  0
 12 11  1  0
 12 13  1  6
 13 14  1  0
 14 15  1  0
 16 15  1  0
 17 16  1  0
 18 12  1  0
 19 18  2  0
 20 18  1  0
 21 20  1  0
 21 22  1  1
 22 23  1  0
 23 31  1  0
 24 23  2  0
 24 25  1  0
 25 26  1  0
 26 27  1  0
 27 28  2  0
 29 28  1  0
 30 29  2  0
 31 26  2  0
 31 30  1  0
 32 21  1  0
 32 34  1  0
 33 32  2  0
M  END
$$$$
