HKW.pdb
     RDKit          3D

 34 36  0  0  1  0  0  0  0  0999 V2000
    9.6497  -15.7039   18.8784 N   0  0  0  0  0  0  0  0  0  0  0  0
    8.4836  -15.2932   19.6267 C   0  0  1  0  0  0  0  0  0  0  0  0
    7.2896  -15.1367   18.7330 C   0  0  0  0  0  0  0  0  0  0  0  0
    7.5986  -14.2014   17.5969 C   0  0  0  0  0  0  0  0  0  0  0  0
    8.8328  -13.6365   17.3185 C   0  0  0  0  0  0  0  0  0  0  0  0
    8.7137  -12.8685   16.2425 N   0  0  0  0  0  0  0  0  0  0  0  0
    7.4288  -12.9435   15.8443 C   0  0  0  0  0  0  0  0  0  0  0  0
    6.7463  -13.7497   16.6602 N   0  0  0  0  0  0  0  0  0  0  0  0
    8.2745  -16.1858   20.7823 C   0  0  0  0  0  0  0  0  0  0  0  0
    7.2939  -16.1065   21.5571 O   0  0  0  0  0  0  0  0  0  0  0  0
    9.2366  -17.1992   21.0412 N   0  0  0  0  0  0  0  0  0  0  0  0
    9.1149  -18.0644   22.2364 C   0  0  1  0  0  0  0  0  0  0  0  0
    9.8531  -19.3380   21.9830 C   0  0  0  0  0  0  0  0  0  0  0  0
    9.1610  -20.1836   20.9645 C   0  0  0  0  0  0  0  0  0  0  0  0
    9.9308  -21.4694   20.6779 C   0  0  0  0  0  0  0  0  0  0  0  0
    9.2347  -22.3480   19.6819 C   0  0  0  0  0  0  0  0  0  0  0  0
    7.8321  -22.5438   20.0162 N   0  0  0  0  0  0  0  0  0  0  0  0
    9.7475  -17.3196   23.3356 C   0  0  0  0  0  0  0  0  0  0  0  0
   10.8094  -16.6568   23.0658 O   0  0  0  0  0  0  0  0  0  0  0  0
    9.3091  -17.2445   24.6674 N   0  0  0  0  0  0  0  0  0  0  0  0
   10.0802  -16.5124   25.6889 C   0  0  1  0  0  0  0  0  0  0  0  0
    9.8106  -15.0664   25.4681 C   0  0  0  0  0  0  0  0  0  0  0  0
    8.4052  -14.6762   25.5677 C   0  0  0  0  0  0  0  0  0  0  0  0
    7.2829  -15.5206   25.5335 C   0  0  0  0  0  0  0  0  0  0  0  0
    6.1742  -14.7699   25.6269 N   0  0  0  0  0  0  0  0  0  0  0  0
    6.4936  -13.4762   25.7218 C   0  0  0  0  0  0  0  0  0  0  0  0
    5.6961  -12.3624   25.8489 C   0  0  0  0  0  0  0  0  0  0  0  0
    6.3008  -11.1278   25.9457 C   0  0  0  0  0  0  0  0  0  0  0  0
    7.6825  -10.9879   25.9178 C   0  0  0  0  0  0  0  0  0  0  0  0
    8.4223  -12.1345   25.7888 C   0  0  0  0  0  0  0  0  0  0  0  0
    7.8565  -13.3940   25.6879 C   0  0  0  0  0  0  0  0  0  0  0  0
    9.9012  -17.0461   27.0243 C   0  0  0  0  0  0  0  0  0  0  0  0
    9.0305  -17.9292   27.3182 O   0  0  0  0  0  0  0  0  0  0  0  0
   10.7207  -16.5789   28.0625 O   0  0  0  0  0  0  0  0  0  0  0  0
  2  1  1  6
  2  3  1  0
  3  4  1  0
  4  5  2  0
  4  8  1  0
  5  6  1  0
  6  7  1  0
  8  7  2  0
  9  2  1  0
  9 10  2  0
 11  9  1  0
 12 11  1  0
 12 13  1  6
 13 14  1  0
 14 15  1  0
 16 15  1  0
 17 16  1  0
 18 12  1  0
 19 18  2  0
 20 18  1  0
 21 20  1  0
 21 22  1  1
 22 23  1  0
 23 31  1  0
 24 23  2  0
 24 25  1  0
 25 26  1  0
 26 27  1  0
 27 28  2  0
 29 28  1  0
 30 29  2  0
 31 26  2  0
 31 30  1  0
 32 21  1  0
 32 34  1  0
 33 32  2  0
M  END
$$$$
