HKW.pdb
     RDKit          3D

 34 36  0  0  1  0  0  0  0  0999 V2000
    8.2891  -16.9075   18.1814 N   0  0  0  0  0  0  0  0  0  0  0  0
    8.4114  -16.0216   19.3165 C   0  0  1  0  0  0  0  0  0  0  0  0
    7.5303  -14.8176   19.1660 C   0  0  0  0  0  0  0  0  0  0  0  0
    7.8797  -14.0599   17.9150 C   0  0  0  0  0  0  0  0  0  0  0  0
    8.8400  -14.4217   16.9839 C   0  0  0  0  0  0  0  0  0  0  0  0
    8.8610  -13.5086   16.0210 N   0  0  0  0  0  0  0  0  0  0  0  0
    7.9322  -12.5840   16.3333 C   0  0  0  0  0  0  0  0  0  0  0  0
    7.3328  -12.9111   17.4802 N   0  0  0  0  0  0  0  0  0  0  0  0
    8.2223  -16.7692   20.5739 C   0  0  0  0  0  0  0  0  0  0  0  0
    7.1049  -17.1261   21.0125 O   0  0  0  0  0  0  0  0  0  0  0  0
    9.3690  -17.1099   21.3412 N   0  0  0  0  0  0  0  0  0  0  0  0
    9.2659  -18.0723   22.4615 C   0  0  1  0  0  0  0  0  0  0  0  0
   10.1620  -19.2336   22.1794 C   0  0  0  0  0  0  0  0  0  0  0  0
   10.0565  -20.2819   23.2384 C   0  0  0  0  0  0  0  0  0  0  0  0
   11.0623  -21.4088   23.0224 C   0  0  0  0  0  0  0  0  0  0  0  0
   10.7632  -22.6165   23.8593 C   0  0  0  0  0  0  0  0  0  0  0  0
   11.7529  -23.6666   23.6718 N   0  0  0  0  0  0  0  0  0  0  0  0
    9.7307  -17.3489   23.6546 C   0  0  0  0  0  0  0  0  0  0  0  0
   10.7314  -16.5621   23.5159 O   0  0  0  0  0  0  0  0  0  0  0  0
    9.1893  -17.4171   24.9483 N   0  0  0  0  0  0  0  0  0  0  0  0
    9.8663  -16.7887   26.0976 C   0  0  1  0  0  0  0  0  0  0  0  0
    8.7980  -16.3860   27.0508 C   0  0  0  0  0  0  0  0  0  0  0  0
    7.8052  -15.4579   26.5122 C   0  0  0  0  0  0  0  0  0  0  0  0
    6.5991  -15.7810   25.8682 C   0  0  0  0  0  0  0  0  0  0  0  0
    5.9878  -14.6442   25.5000 N   0  0  0  0  0  0  0  0  0  0  0  0
    6.7163  -13.5845   25.8619 C   0  0  0  0  0  0  0  0  0  0  0  0
    6.4800  -12.2381   25.7062 C   0  0  0  0  0  0  0  0  0  0  0  0
    7.4078  -11.3461   26.1988 C   0  0  0  0  0  0  0  0  0  0  0  0
    8.5624  -11.7745   26.8414 C   0  0  0  0  0  0  0  0  0  0  0  0
    8.7409  -13.1278   26.9649 C   0  0  0  0  0  0  0  0  0  0  0  0
    7.8355  -14.0586   26.4847 C   0  0  0  0  0  0  0  0  0  0  0  0
   10.9735  -17.5758   26.6026 C   0  0  0  0  0  0  0  0  0  0  0  0
   11.1543  -18.8034   26.3117 O   0  0  0  0  0  0  0  0  0  0  0  0
   11.9070  -16.9721   27.4580 O   0  0  0  0  0  0  0  0  0  0  0  0
  2  1  1  6
  2  3  1  0
  3  4  1  0
  4  5  2  0
  4  8  1  0
  5  6  1  0
  6  7  1  0
  8  7  2  0
  9  2  1  0
  9 10  2  0
 11  9  1  0
 12 11  1  0
 12 13  1  6
 13 14  1  0
 14 15  1  0
 16 15  1  0
 17 16  1  0
 18 12  1  0
 19 18  2  0
 20 18  1  0
 21 20  1  0
 21 22  1  1
 22 23  1  0
 23 31  1  0
 24 23  2  0
 24 25  1  0
 25 26  1  0
 26 27  1  0
 27 28  2  0
 29 28  1  0
 30 29  2  0
 31 26  2  0
 31 30  1  0
 32 21  1  0
 32 34  1  0
 33 32  2  0
M  END
$$$$
