HKW.pdb
     RDKit          3D

 34 36  0  0  1  0  0  0  0  0999 V2000
    9.6263  -15.4670   19.9124 N   0  0  0  0  0  0  0  0  0  0  0  0
    8.4602  -15.0418   20.6524 C   0  0  1  0  0  0  0  0  0  0  0  0
    7.2654  -14.9064   19.7565 C   0  0  0  0  0  0  0  0  0  0  0  0
    7.5861  -14.0318   18.5762 C   0  0  0  0  0  0  0  0  0  0  0  0
    8.8257  -13.4902   18.2755 C   0  0  0  0  0  0  0  0  0  0  0  0
    8.7169  -12.7768   17.1616 N   0  0  0  0  0  0  0  0  0  0  0  0
    7.4332  -12.8629   16.7614 C   0  0  0  0  0  0  0  0  0  0  0  0
    6.7413  -13.6221   17.6137 N   0  0  0  0  0  0  0  0  0  0  0  0
    8.2532  -15.9094   21.8273 C   0  0  0  0  0  0  0  0  0  0  0  0
    7.2508  -15.8444   22.5750 O   0  0  0  0  0  0  0  0  0  0  0  0
    9.2436  -16.8799   22.1385 N   0  0  0  0  0  0  0  0  0  0  0  0
    9.0531  -17.8124   23.2726 C   0  0  1  0  0  0  0  0  0  0  0  0
    9.8517  -19.0483   23.0159 C   0  0  0  0  0  0  0  0  0  0  0  0
    9.1655  -19.9579   22.0497 C   0  0  0  0  0  0  0  0  0  0  0  0
    9.9596  -21.2396   21.8163 C   0  0  0  0  0  0  0  0  0  0  0  0
    9.2918  -22.1617   20.8404 C   0  0  0  0  0  0  0  0  0  0  0  0
   10.0810  -23.3597   20.5968 N   0  0  0  0  0  0  0  0  0  0  0  0
    9.5680  -17.1109   24.4583 C   0  0  0  0  0  0  0  0  0  0  0  0
   10.6148  -16.3887   24.3091 O   0  0  0  0  0  0  0  0  0  0  0  0
    9.0301  -17.1366   25.7549 N   0  0  0  0  0  0  0  0  0  0  0  0
    9.7817  -16.6081   26.9081 C   0  0  1  0  0  0  0  0  0  0  0  0
    8.8234  -15.7930   27.7014 C   0  0  0  0  0  0  0  0  0  0  0  0
    7.7545  -15.1653   26.9262 C   0  0  0  0  0  0  0  0  0  0  0  0
    6.6955  -15.8064   26.2620 C   0  0  0  0  0  0  0  0  0  0  0  0
    5.9476  -14.8784   25.6448 N   0  0  0  0  0  0  0  0  0  0  0  0
    6.4468  -13.6582   25.8602 C   0  0  0  0  0  0  0  0  0  0  0  0
    6.0087  -12.4231   25.4414 C   0  0  0  0  0  0  0  0  0  0  0  0
    6.7169  -11.3069   25.8311 C   0  0  0  0  0  0  0  0  0  0  0  0
    7.8502  -11.4035   26.6286 C   0  0  0  0  0  0  0  0  0  0  0  0
    8.2363  -12.6613   27.0127 C   0  0  0  0  0  0  0  0  0  0  0  0
    7.5551  -13.8088   26.6439 C   0  0  0  0  0  0  0  0  0  0  0  0
   10.5503  -17.6249   27.5976 C   0  0  0  0  0  0  0  0  0  0  0  0
   10.4584  -18.8702   27.3422 O   0  0  0  0  0  0  0  0  0  0  0  0
   11.4492  -17.2381   28.6026 O   0  0  0  0  0  0  0  0  0  0  0  0
  2  1  1  6
  2  3  1  0
  3  4  1  0
  4  5  2  0
  4  8  1  0
  5  6  1  0
  6  7  1  0
  8  7  2  0
  9  2  1  0
  9 10  2  0
 11  9  1  0
 12 11  1  0
 12 13  1  6
 13 14  1  0
 14 15  1  0
 16 15  1  0
 17 16  1  0
 18 12  1  0
 19 18  2  0
 20 18  1  0
 21 20  1  0
 21 22  1  1
 22 23  1  0
 23 31  1  0
 24 23  2  0
 24 25  1  0
 25 26  1  0
 26 27  1  0
 27 28  2  0
 29 28  1  0
 30 29  2  0
 31 26  2  0
 31 30  1  0
 32 21  1  0
 32 34  1  0
 33 32  2  0
M  END
$$$$
