HKW.pdb
     RDKit          3D

 34 36  0  0  1  0  0  0  0  0999 V2000
    9.1848  -16.2581   19.2537 N   0  0  0  0  0  0  0  0  0  0  0  0
    8.4090  -15.4742   20.1876 C   0  0  1  0  0  0  0  0  0  0  0  0
    7.2094  -14.8661   19.5244 C   0  0  0  0  0  0  0  0  0  0  0  0
    7.6072  -14.1570   18.2595 C   0  0  0  0  0  0  0  0  0  0  0  0
    8.0598  -12.8508   18.1648 C   0  0  0  0  0  0  0  0  0  0  0  0
    8.3096  -12.5809   16.8896 N   0  0  0  0  0  0  0  0  0  0  0  0
    8.0216  -13.6937   16.1868 C   0  0  0  0  0  0  0  0  0  0  0  0
    7.5953  -14.6537   17.0102 N   0  0  0  0  0  0  0  0  0  0  0  0
    8.1093  -16.2645   21.3965 C   0  0  0  0  0  0  0  0  0  0  0  0
    7.3069  -15.9014   22.2866 O   0  0  0  0  0  0  0  0  0  0  0  0
    8.7644  -17.5134   21.5717 N   0  0  0  0  0  0  0  0  0  0  0  0
    8.6036  -18.2774   22.8297 C   0  0  1  0  0  0  0  0  0  0  0  0
    9.1042  -19.6679   22.6131 C   0  0  0  0  0  0  0  0  0  0  0  0
    8.1363  -20.4858   21.8221 C   0  0  0  0  0  0  0  0  0  0  0  0
    6.9607  -20.9540   22.6746 C   0  0  0  0  0  0  0  0  0  0  0  0
    5.9745  -21.7729   21.8965 C   0  0  0  0  0  0  0  0  0  0  0  0
    6.1764  -23.2002   22.0948 N   0  0  0  0  0  0  0  0  0  0  0  0
    9.4356  -17.5865   23.8265 C   0  0  0  0  0  0  0  0  0  0  0  0
   10.5699  -17.1359   23.4391 O   0  0  0  0  0  0  0  0  0  0  0  0
    9.1204  -17.3538   25.1747 N   0  0  0  0  0  0  0  0  0  0  0  0
   10.0369  -16.6120   26.0601 C   0  0  1  0  0  0  0  0  0  0  0  0
    9.7010  -15.1712   25.9069 C   0  0  0  0  0  0  0  0  0  0  0  0
    8.3164  -14.8215   26.2203 C   0  0  0  0  0  0  0  0  0  0  0  0
    7.2108  -15.6867   26.2720 C   0  0  0  0  0  0  0  0  0  0  0  0
    6.1148  -14.9702   26.5668 N   0  0  0  0  0  0  0  0  0  0  0  0
    6.4270  -13.6797   26.7147 C   0  0  0  0  0  0  0  0  0  0  0  0
    5.6391  -12.5965   27.0287 C   0  0  0  0  0  0  0  0  0  0  0  0
    6.2351  -11.3586   27.1364 C   0  0  0  0  0  0  0  0  0  0  0  0
    7.5988  -11.1854   26.9366 C   0  0  0  0  0  0  0  0  0  0  0  0
    8.3296  -12.3025   26.6259 C   0  0  0  0  0  0  0  0  0  0  0  0
    7.7720  -13.5642   26.5072 C   0  0  0  0  0  0  0  0  0  0  0  0
   10.0997  -17.1618   27.3995 C   0  0  0  0  0  0  0  0  0  0  0  0
   10.8773  -16.7178   28.3065 O   0  0  0  0  0  0  0  0  0  0  0  0
    9.2676  -18.2400   27.7353 O   0  0  0  0  0  0  0  0  0  0  0  0
  2  1  1  6
  2  3  1  0
  3  4  1  0
  4  5  2  0
  4  8  1  0
  5  6  1  0
  6  7  1  0
  8  7  2  0
  9  2  1  0
  9 10  2  0
 11  9  1  0
 12 11  1  0
 12 13  1  6
 13 14  1  0
 14 15  1  0
 16 15  1  0
 17 16  1  0
 18 12  1  0
 19 18  2  0
 20 18  1  0
 21 20  1  0
 21 22  1  1
 22 23  1  0
 23 31  1  0
 24 23  2  0
 24 25  1  0
 25 26  1  0
 26 27  1  0
 27 28  2  0
 29 28  1  0
 30 29  2  0
 31 26  2  0
 31 30  1  0
 32 21  1  0
 32 34  1  0
 33 32  2  0
M  END
$$$$
