HKW.pdb
     RDKit          3D

 34 36  0  0  1  0  0  0  0  0999 V2000
    6.3520  -15.8148   19.8208 N   0  0  0  0  0  0  0  0  0  0  0  0
    7.6230  -15.6303   20.4833 C   0  0  1  0  0  0  0  0  0  0  0  0
    7.9125  -14.1769   20.7124 C   0  0  0  0  0  0  0  0  0  0  0  0
    8.0949  -13.4613   19.4025 C   0  0  0  0  0  0  0  0  0  0  0  0
    8.0622  -14.0419   18.1448 C   0  0  0  0  0  0  0  0  0  0  0  0
    8.2637  -13.0954   17.2364 N   0  0  0  0  0  0  0  0  0  0  0  0
    8.4214  -11.9354   17.9033 C   0  0  0  0  0  0  0  0  0  0  0  0
    8.3204  -12.1489   19.2170 N   0  0  0  0  0  0  0  0  0  0  0  0
    7.6981  -16.4708   21.6931 C   0  0  0  0  0  0  0  0  0  0  0  0
    6.7686  -16.5814   22.5251 O   0  0  0  0  0  0  0  0  0  0  0  0
    8.8912  -17.2026   21.9393 N   0  0  0  0  0  0  0  0  0  0  0  0
    8.9698  -18.1551   23.0701 C   0  0  1  0  0  0  0  0  0  0  0  0
    9.9194  -19.2501   22.7090 C   0  0  0  0  0  0  0  0  0  0  0  0
    9.3799  -20.1088   21.6120 C   0  0  0  0  0  0  0  0  0  0  0  0
   10.3583  -21.2133   21.2238 C   0  0  0  0  0  0  0  0  0  0  0  0
    9.8780  -22.0252   20.0582 C   0  0  0  0  0  0  0  0  0  0  0  0
   10.8046  -23.0957   19.7224 N   0  0  0  0  0  0  0  0  0  0  0  0
    9.4921  -17.3833   24.2079 C   0  0  0  0  0  0  0  0  0  0  0  0
   10.3623  -16.4777   23.9577 O   0  0  0  0  0  0  0  0  0  0  0  0
    9.1346  -17.5224   25.5585 N   0  0  0  0  0  0  0  0  0  0  0  0
    9.8867  -16.8374   26.6258 C   0  0  1  0  0  0  0  0  0  0  0  0
    8.8771  -16.2241   27.5295 C   0  0  0  0  0  0  0  0  0  0  0  0
    7.8434  -15.4367   26.8594 C   0  0  0  0  0  0  0  0  0  0  0  0
    6.6967  -15.9179   26.2057 C   0  0  0  0  0  0  0  0  0  0  0  0
    6.0194  -14.8761   25.6984 N   0  0  0  0  0  0  0  0  0  0  0  0
    6.6480  -13.7307   25.9769 C   0  0  0  0  0  0  0  0  0  0  0  0
    6.3185  -12.4299   25.6737 C   0  0  0  0  0  0  0  0  0  0  0  0
    7.1522  -11.4218   26.1072 C   0  0  0  0  0  0  0  0  0  0  0  0
    8.3043  -11.6903   26.8353 C   0  0  0  0  0  0  0  0  0  0  0  0
    8.5784  -13.0058   27.1050 C   0  0  0  0  0  0  0  0  0  0  0  0
    7.7694  -14.0493   26.6886 C   0  0  0  0  0  0  0  0  0  0  0  0
   10.9181  -17.6678   27.2148 C   0  0  0  0  0  0  0  0  0  0  0  0
   11.0345  -18.9156   26.9826 O   0  0  0  0  0  0  0  0  0  0  0  0
   11.8477  -17.0858   28.0893 O   0  0  0  0  0  0  0  0  0  0  0  0
  2  1  1  1
  2  3  1  0
  3  4  1  0
  4  5  2  0
  4  8  1  0
  5  6  1  0
  6  7  1  0
  8  7  2  0
  9  2  1  0
  9 10  2  0
 11  9  1  0
 12 11  1  0
 12 13  1  6
 13 14  1  0
 14 15  1  0
 16 15  1  0
 17 16  1  0
 18 12  1  0
 19 18  2  0
 20 18  1  0
 21 20  1  0
 21 22  1  1
 22 23  1  0
 23 31  1  0
 24 23  2  0
 24 25  1  0
 25 26  1  0
 26 27  1  0
 27 28  2  0
 29 28  1  0
 30 29  2  0
 31 26  2  0
 31 30  1  0
 32 21  1  0
 32 34  1  0
 33 32  2  0
M  END
$$$$
