ATW.pdb
     RDKit          3D

 27 28  0  0  1  0  0  0  0  0999 V2000
   17.4958  -14.5045  -15.2366 C   0  0  0  0  0  0  0  0  0  0  0  0
   18.1675  -14.4654  -16.5795 C   0  0  2  0  0  0  0  0  0  0  0  0
   18.6222  -15.8013  -16.9081 N   0  0  0  0  0  0  0  0  0  0  0  0
   19.3072  -13.5102  -16.6294 C   0  0  0  0  0  0  0  0  0  0  0  0
   20.4580  -13.8181  -16.2303 O   0  0  0  0  0  0  0  0  0  0  0  0
   20.0874  -11.8853  -19.6941 C   0  0  0  0  0  0  0  0  0  0  0  0
   20.0000  -10.6941  -18.7263 C   0  0  1  0  0  0  0  0  0  0  0  0
   18.7021  -10.1957  -18.9000 O   0  0  0  0  0  0  0  0  0  0  0  0
   20.1865  -11.2654  -17.3634 C   0  0  2  0  0  0  0  0  0  0  0  0
   19.0897  -12.2206  -17.1395 N   0  0  0  0  0  0  0  0  0  0  0  0
   20.2433  -10.2729  -16.2652 C   0  0  0  0  0  0  0  0  0  0  0  0
   19.2145  -10.0282  -15.5881 O   0  0  0  0  0  0  0  0  0  0  0  0
   21.4217   -9.5628  -15.9240 N   0  0  0  0  0  0  0  0  0  0  0  0
   21.4540   -8.5220  -14.8688 C   0  0  1  0  0  0  0  0  0  0  0  0
   22.7781   -8.5222  -14.1953 C   0  0  0  0  0  0  0  0  0  0  0  0
   23.9775   -8.5420  -15.0066 C   0  0  0  0  0  0  0  0  0  0  0  0
   24.3868   -7.5205  -15.8437 C   0  0  0  0  0  0  0  0  0  0  0  0
   25.5183   -7.8963  -16.4562 N   0  0  0  0  0  0  0  0  0  0  0  0
   25.8865   -9.1289  -16.0641 C   0  0  0  0  0  0  0  0  0  0  0  0
   26.9388   -9.9587  -16.3582 C   0  0  0  0  0  0  0  0  0  0  0  0
   27.1045  -11.2032  -15.7924 C   0  0  0  0  0  0  0  0  0  0  0  0
   26.1483  -11.6160  -14.8839 C   0  0  0  0  0  0  0  0  0  0  0  0
   25.0969  -10.7925  -14.5881 C   0  0  0  0  0  0  0  0  0  0  0  0
   24.9114   -9.5412  -15.1444 C   0  0  0  0  0  0  0  0  0  0  0  0
   21.0991   -7.2694  -15.5271 C   0  0  0  0  0  0  0  0  0  0  0  0
   21.0188   -7.1767  -16.8991 O   0  0  0  0  0  0  0  0  0  0  0  0
   20.8585   -6.2446  -14.8524 O   0  0  0  0  0  0  0  0  0  0  0  0
  2  1  1  1
  2  3  1  0
  4  2  1  0
  4  5  2  0
  7  6  1  6
  7  9  1  0
  8  7  1  0
  9 11  1  0
  9 10  1  1
 10  4  1  0
 11 13  1  0
 12 11  2  0
 13 14  1  0
 14 25  1  0
 14 15  1  6
 16 15  1  0
 16 17  2  0
 18 17  1  0
 19 18  1  0
 20 19  2  0
 21 20  1  0
 22 21  2  0
 22 23  1  0
 23 24  2  0
 24 19  1  0
 24 16  1  0
 25 27  2  0
 25 26  1  0
M  END
$$$$
