ATW.pdb
     RDKit          3D

 27 28  0  0  1  0  0  0  0  0999 V2000
   32.8682  -24.6259  -21.4471 C   0  0  0  0  0  0  0  0  0  0  0  0
   32.8103  -25.0420  -20.0051 C   0  0  2  0  0  0  0  0  0  0  0  0
   33.5842  -26.2561  -19.8427 N   0  0  0  0  0  0  0  0  0  0  0  0
   31.4201  -25.2523  -19.5183 C   0  0  0  0  0  0  0  0  0  0  0  0
   30.7440  -26.2623  -19.8366 O   0  0  0  0  0  0  0  0  0  0  0  0
   30.5109  -25.2307  -16.1228 C   0  0  0  0  0  0  0  0  0  0  0  0
   29.5459  -24.1718  -16.6804 C   0  0  1  0  0  0  0  0  0  0  0  0
   30.1662  -22.9480  -16.3966 O   0  0  0  0  0  0  0  0  0  0  0  0
   29.4762  -24.4202  -18.1473 C   0  0  2  0  0  0  0  0  0  0  0  0
   30.8436  -24.2895  -18.6751 N   0  0  0  0  0  0  0  0  0  0  0  0
   28.5454  -23.5414  -18.8929 C   0  0  0  0  0  0  0  0  0  0  0  0
   28.9811  -22.5173  -19.4745 O   0  0  0  0  0  0  0  0  0  0  0  0
   27.1541  -23.7939  -18.9913 N   0  0  0  0  0  0  0  0  0  0  0  0
   26.2262  -22.8994  -19.7237 C   0  0  1  0  0  0  0  0  0  0  0  0
   24.9663  -23.6211  -20.0376 C   0  0  0  0  0  0  0  0  0  0  0  0
   23.8812  -22.8967  -20.6661 C   0  0  0  0  0  0  0  0  0  0  0  0
   23.9759  -22.2006  -21.8569 C   0  0  0  0  0  0  0  0  0  0  0  0
   22.7901  -21.6318  -22.1158 N   0  0  0  0  0  0  0  0  0  0  0  0
   21.9019  -21.9179  -21.1473 C   0  0  0  0  0  0  0  0  0  0  0  0
   20.5821  -21.6123  -20.9304 C   0  0  0  0  0  0  0  0  0  0  0  0
   19.8707  -22.0557  -19.8378 C   0  0  0  0  0  0  0  0  0  0  0  0
   20.5423  -22.8482  -18.9263 C   0  0  0  0  0  0  0  0  0  0  0  0
   21.8585  -23.1549  -19.1380 C   0  0  0  0  0  0  0  0  0  0  0  0
   22.5908  -22.7203  -20.2263 C   0  0  0  0  0  0  0  0  0  0  0  0
   26.0644  -21.7147  -18.8877 C   0  0  0  0  0  0  0  0  0  0  0  0
   25.7525  -20.4885  -19.4324 O   0  0  0  0  0  0  0  0  0  0  0  0
   26.2075  -21.7893  -17.6479 O   0  0  0  0  0  0  0  0  0  0  0  0
  2  1  1  6
  2  3  1  0
  4  2  1  0
  4  5  2  0
  7  6  1  1
  7  9  1  0
  8  7  1  0
  9 11  1  0
  9 10  1  6
 10  4  1  0
 11 13  1  0
 12 11  2  0
 13 14  1  0
 14 25  1  0
 14 15  1  1
 16 15  1  0
 16 17  2  0
 18 17  1  0
 19 18  1  0
 20 19  2  0
 21 20  1  0
 22 21  2  0
 22 23  1  0
 23 24  2  0
 24 19  1  0
 24 16  1  0
 25 27  2  0
 25 26  1  0
M  END
$$$$
