ATW.pdb
     RDKit          3D

 27 28  0  0  1  0  0  0  0  0999 V2000
   23.7579  -17.1949  -16.2864 C   0  0  0  0  0  0  0  0  0  0  0  0
   23.5490  -18.6544  -15.9998 C   0  0  2  0  0  0  0  0  0  0  0  0
   22.3771  -19.1045  -16.7233 N   0  0  0  0  0  0  0  0  0  0  0  0
   23.3968  -18.9436  -14.5482 C   0  0  0  0  0  0  0  0  0  0  0  0
   22.6792  -18.2383  -13.7958 O   0  0  0  0  0  0  0  0  0  0  0  0
   22.0460  -21.7932  -13.3564 C   0  0  0  0  0  0  0  0  0  0  0  0
   23.3909  -21.8535  -12.6141 C   0  0  1  0  0  0  0  0  0  0  0  0
   24.1913  -22.6875  -13.4058 O   0  0  0  0  0  0  0  0  0  0  0  0
   23.9076  -20.4566  -12.5987 C   0  0  2  0  0  0  0  0  0  0  0  0
   24.0783  -20.0416  -14.0001 N   0  0  0  0  0  0  0  0  0  0  0  0
   25.1647  -20.2568  -11.8410 C   0  0  0  0  0  0  0  0  0  0  0  0
   26.2644  -20.2334  -12.4467 O   0  0  0  0  0  0  0  0  0  0  0  0
   25.2018  -20.0865  -10.4343 N   0  0  0  0  0  0  0  0  0  0  0  0
   26.4584  -19.8337   -9.6895 C   0  0  1  0  0  0  0  0  0  0  0  0
   26.1534  -19.2185   -8.3722 C   0  0  0  0  0  0  0  0  0  0  0  0
   27.2441  -18.9267   -7.4652 C   0  0  0  0  0  0  0  0  0  0  0  0
   28.1472  -17.8909   -7.6167 C   0  0  0  0  0  0  0  0  0  0  0  0
   29.0320  -17.9438   -6.6112 N   0  0  0  0  0  0  0  0  0  0  0  0
   28.7597  -18.9730   -5.7896 C   0  0  0  0  0  0  0  0  0  0  0  0
   29.3211  -19.4585   -4.6357 C   0  0  0  0  0  0  0  0  0  0  0  0
   28.8292  -20.5489   -3.9533 C   0  0  0  0  0  0  0  0  0  0  0  0
   27.7112  -21.1698   -4.4773 C   0  0  0  0  0  0  0  0  0  0  0  0
   27.1484  -20.6898   -5.6280 C   0  0  0  0  0  0  0  0  0  0  0  0
   27.6260  -19.5984   -6.3283 C   0  0  0  0  0  0  0  0  0  0  0  0
   27.1528  -21.1150   -9.6239 C   0  0  0  0  0  0  0  0  0  0  0  0
   28.5282  -21.1887   -9.6488 O   0  0  0  0  0  0  0  0  0  0  0  0
   26.5072  -22.1827   -9.5432 O   0  0  0  0  0  0  0  0  0  0  0  0
  2  1  1  1
  2  3  1  0
  4  2  1  0
  4  5  2  0
  7  6  1  6
  7  9  1  0
  8  7  1  0
  9 11  1  0
  9 10  1  6
 10  4  1  0
 11 13  1  0
 12 11  2  0
 13 14  1  0
 14 25  1  0
 14 15  1  1
 16 15  1  0
 16 17  2  0
 18 17  1  0
 19 18  1  0
 20 19  2  0
 21 20  1  0
 22 21  2  0
 22 23  1  0
 23 24  2  0
 24 19  1  0
 24 16  1  0
 25 27  2  0
 25 26  1  0
M  END
$$$$
