ATW.pdb
     RDKit          3D

 27 28  0  0  1  0  0  0  0  0999 V2000
   29.3471  -18.9030  -19.2267 C   0  0  0  0  0  0  0  0  0  0  0  0
   28.3488  -19.7655  -18.5088 C   0  0  2  0  0  0  0  0  0  0  0  0
   27.0365  -19.5207  -19.0721 N   0  0  0  0  0  0  0  0  0  0  0  0
   28.3278  -19.5274  -17.0402 C   0  0  0  0  0  0  0  0  0  0  0  0
   29.3492  -19.6719  -16.3230 O   0  0  0  0  0  0  0  0  0  0  0  0
   27.2742  -16.5260  -15.4709 C   0  0  0  0  0  0  0  0  0  0  0  0
   26.3403  -17.5603  -14.8218 C   0  0  1  0  0  0  0  0  0  0  0  0
   25.1614  -17.4900  -15.5757 O   0  0  0  0  0  0  0  0  0  0  0  0
   27.0163  -18.8770  -14.9889 C   0  0  2  0  0  0  0  0  0  0  0  0
   27.1260  -19.1281  -16.4347 N   0  0  0  0  0  0  0  0  0  0  0  0
   26.3546  -20.0167  -14.3124 C   0  0  0  0  0  0  0  0  0  0  0  0
   25.7052  -20.8539  -14.9863 O   0  0  0  0  0  0  0  0  0  0  0  0
   26.4116  -20.2242  -12.9114 N   0  0  0  0  0  0  0  0  0  0  0  0
   25.7858  -21.3925  -12.2473 C   0  0  1  0  0  0  0  0  0  0  0  0
   26.5826  -21.7877  -11.0575 C   0  0  0  0  0  0  0  0  0  0  0  0
   26.5234  -20.9632   -9.8684 C   0  0  0  0  0  0  0  0  0  0  0  0
   25.4157  -20.2478   -9.4526 C   0  0  0  0  0  0  0  0  0  0  0  0
   25.7327  -19.5793   -8.3349 N   0  0  0  0  0  0  0  0  0  0  0  0
   27.0085  -19.8170   -7.9822 C   0  0  0  0  0  0  0  0  0  0  0  0
   27.8128  -19.4118   -6.9472 C   0  0  0  0  0  0  0  0  0  0  0  0
   29.1181  -19.8234   -6.7950 C   0  0  0  0  0  0  0  0  0  0  0  0
   29.6219  -20.6896   -7.7467 C   0  0  0  0  0  0  0  0  0  0  0  0
   28.8240  -21.0958   -8.7810 C   0  0  0  0  0  0  0  0  0  0  0  0
   27.5128  -20.6947   -8.9527 C   0  0  0  0  0  0  0  0  0  0  0  0
   24.4081  -21.0049  -11.9637 C   0  0  0  0  0  0  0  0  0  0  0  0
   23.4203  -21.9471  -11.7795 O   0  0  0  0  0  0  0  0  0  0  0  0
   24.0933  -19.7977  -11.8818 O   0  0  0  0  0  0  0  0  0  0  0  0
  2  1  1  6
  2  3  1  0
  4  2  1  0
  4  5  2  0
  7  6  1  6
  7  9  1  0
  8  7  1  0
  9 11  1  0
  9 10  1  6
 10  4  1  0
 11 13  1  0
 12 11  2  0
 13 14  1  0
 14 25  1  0
 14 15  1  1
 16 15  1  0
 16 17  2  0
 18 17  1  0
 19 18  1  0
 20 19  2  0
 21 20  1  0
 22 21  2  0
 22 23  1  0
 23 24  2  0
 24 19  1  0
 24 16  1  0
 25 27  2  0
 25 26  1  0
M  END
$$$$
