ATW.pdb
     RDKit          3D

 27 28  0  0  1  0  0  0  0  0999 V2000
   29.2754  -17.8942  -15.2801 C   0  0  0  0  0  0  0  0  0  0  0  0
   28.0865  -18.7274  -15.6650 C   0  0  2  0  0  0  0  0  0  0  0  0
   27.6859  -18.3679  -17.0102 N   0  0  0  0  0  0  0  0  0  0  0  0
   26.9402  -18.5678  -14.7298 C   0  0  0  0  0  0  0  0  0  0  0  0
   26.0528  -17.6947  -14.8998 O   0  0  0  0  0  0  0  0  0  0  0  0
   24.5127  -18.8599  -14.6617 C   0  0  0  0  0  0  0  0  0  0  0  0
   24.4923  -19.6777  -13.3601 C   0  0  1  0  0  0  0  0  0  0  0  0
   24.4987  -21.0128  -13.7848 O   0  0  0  0  0  0  0  0  0  0  0  0
   25.7499  -19.3280  -12.6427 C   0  0  2  0  0  0  0  0  0  0  0  0
   26.8468  -19.4211  -13.6192 N   0  0  0  0  0  0  0  0  0  0  0  0
   26.0459  -20.1532  -11.4486 C   0  0  0  0  0  0  0  0  0  0  0  0
   27.2145  -20.5659  -11.2464 O   0  0  0  0  0  0  0  0  0  0  0  0
   25.0619  -20.5154  -10.4949 N   0  0  0  0  0  0  0  0  0  0  0  0
   25.3997  -21.1142   -9.1814 C   0  0  1  0  0  0  0  0  0  0  0  0
   26.3962  -20.2666   -8.4777 C   0  0  0  0  0  0  0  0  0  0  0  0
   26.7572  -20.5943   -7.1140 C   0  0  0  0  0  0  0  0  0  0  0  0
   26.2153  -21.6305   -6.3764 C   0  0  0  0  0  0  0  0  0  0  0  0
   26.7610  -21.6156   -5.1521 N   0  0  0  0  0  0  0  0  0  0  0  0
   27.6482  -20.6115   -5.0373 C   0  0  0  0  0  0  0  0  0  0  0  0
   28.4749  -20.1669   -4.0367 C   0  0  0  0  0  0  0  0  0  0  0  0
   29.3289  -19.0959   -4.1783 C   0  0  0  0  0  0  0  0  0  0  0  0
   29.3359  -18.4513   -5.4008 C   0  0  0  0  0  0  0  0  0  0  0  0
   28.5128  -18.8905   -6.4012 C   0  0  0  0  0  0  0  0  0  0  0  0
   27.6484  -19.9619   -6.2801 C   0  0  0  0  0  0  0  0  0  0  0  0
   24.1327  -21.2858   -8.4788 C   0  0  0  0  0  0  0  0  0  0  0  0
   23.8227  -22.4630   -7.8341 O   0  0  0  0  0  0  0  0  0  0  0  0
   23.2944  -20.3588   -8.4477 O   0  0  0  0  0  0  0  0  0  0  0  0
  2  1  1  1
  2  3  1  0
  4  2  1  0
  4  5  2  0
  7  6  1  6
  7  9  1  0
  8  7  1  0
  9 11  1  0
  9 10  1  6
 10  4  1  0
 11 13  1  0
 12 11  2  0
 13 14  1  0
 14 25  1  0
 14 15  1  1
 16 15  1  0
 16 17  2  0
 18 17  1  0
 19 18  1  0
 20 19  2  0
 21 20  1  0
 22 21  2  0
 22 23  1  0
 23 24  2  0
 24 19  1  0
 24 16  1  0
 25 27  2  0
 25 26  1  0
M  END
$$$$
