ATW.pdb
     RDKit          3D

 27 28  0  0  1  0  0  0  0  0999 V2000
   24.7561  -19.5823  -16.4070 C   0  0  0  0  0  0  0  0  0  0  0  0
   23.4460  -19.8559  -15.7253 C   0  0  2  0  0  0  0  0  0  0  0  0
   22.3826  -19.2669  -16.5137 N   0  0  0  0  0  0  0  0  0  0  0  0
   23.3984  -19.3357  -14.3320 C   0  0  0  0  0  0  0  0  0  0  0  0
   23.6263  -18.1309  -14.0581 O   0  0  0  0  0  0  0  0  0  0  0  0
   20.7825  -19.2220  -12.1964 C   0  0  0  0  0  0  0  0  0  0  0  0
   21.7374  -20.0611  -11.3319 C   0  0  1  0  0  0  0  0  0  0  0  0
   21.3352  -21.3855  -11.5496 O   0  0  0  0  0  0  0  0  0  0  0  0
   23.1014  -19.8096  -11.8748 C   0  0  2  0  0  0  0  0  0  0  0  0
   23.0889  -20.2210  -13.2876 N   0  0  0  0  0  0  0  0  0  0  0  0
   24.2039  -20.4810  -11.1480 C   0  0  0  0  0  0  0  0  0  0  0  0
   24.6632  -21.5695  -11.5734 O   0  0  0  0  0  0  0  0  0  0  0  0
   24.7869  -19.9542   -9.9683 N   0  0  0  0  0  0  0  0  0  0  0  0
   25.8771  -20.6419   -9.2360 C   0  0  1  0  0  0  0  0  0  0  0  0
   26.8206  -19.6421   -8.6730 C   0  0  0  0  0  0  0  0  0  0  0  0
   27.9198  -20.1013   -7.8494 C   0  0  0  0  0  0  0  0  0  0  0  0
   28.8425  -21.0618   -8.2203 C   0  0  0  0  0  0  0  0  0  0  0  0
   29.6926  -21.2545   -7.2020 N   0  0  0  0  0  0  0  0  0  0  0  0
   29.3790  -20.4619   -6.1619 C   0  0  0  0  0  0  0  0  0  0  0  0
   29.9126  -20.2528   -4.9154 C   0  0  0  0  0  0  0  0  0  0  0  0
   29.4030  -19.3441   -4.0148 C   0  0  0  0  0  0  0  0  0  0  0  0
   28.2961  -18.6168   -4.4097 C   0  0  0  0  0  0  0  0  0  0  0  0
   27.7600  -18.8224   -5.6513 C   0  0  0  0  0  0  0  0  0  0  0  0
   28.2550  -19.7288   -6.5694 C   0  0  0  0  0  0  0  0  0  0  0  0
   25.2242  -21.4953   -8.2492 C   0  0  0  0  0  0  0  0  0  0  0  0
   25.8584  -22.5987   -7.7220 O   0  0  0  0  0  0  0  0  0  0  0  0
   24.0643  -21.2399   -7.8585 O   0  0  0  0  0  0  0  0  0  0  0  0
  2  1  1  6
  2  3  1  0
  4  2  1  0
  4  5  2  0
  7  6  1  6
  7  9  1  0
  8  7  1  0
  9 11  1  0
  9 10  1  6
 10  4  1  0
 11 13  1  0
 12 11  2  0
 13 14  1  0
 14 25  1  0
 14 15  1  1
 16 15  1  0
 16 17  2  0
 18 17  1  0
 19 18  1  0
 20 19  2  0
 21 20  1  0
 22 21  2  0
 22 23  1  0
 23 24  2  0
 24 19  1  0
 24 16  1  0
 25 27  2  0
 25 26  1  0
M  END
$$$$
