ATW.pdb
     RDKit          3D

 27 28  0  0  1  0  0  0  0  0999 V2000
   25.2163  -21.8603  -14.2929 C   0  0  0  0  0  0  0  0  0  0  0  0
   26.1116  -21.3199  -15.3711 C   0  0  2  0  0  0  0  0  0  0  0  0
   25.4529  -20.1909  -15.9963 N   0  0  0  0  0  0  0  0  0  0  0  0
   26.4637  -22.3391  -16.3964 C   0  0  0  0  0  0  0  0  0  0  0  0
   25.5903  -22.9955  -17.0166 O   0  0  0  0  0  0  0  0  0  0  0  0
   28.2985  -21.7106  -19.2743 C   0  0  0  0  0  0  0  0  0  0  0  0
   29.1568  -22.8151  -18.6366 C   0  0  1  0  0  0  0  0  0  0  0  0
   30.1604  -22.1241  -17.9451 O   0  0  0  0  0  0  0  0  0  0  0  0
   28.2525  -23.5416  -17.7022 C   0  0  2  0  0  0  0  0  0  0  0  0
   27.8179  -22.5760  -16.6803 N   0  0  0  0  0  0  0  0  0  0  0  0
   28.8371  -24.7443  -17.0650 C   0  0  0  0  0  0  0  0  0  0  0  0
   29.4478  -24.6405  -15.9727 O   0  0  0  0  0  0  0  0  0  0  0  0
   28.7468  -26.0410  -17.6304 N   0  0  0  0  0  0  0  0  0  0  0  0
   29.3789  -27.2313  -17.0130 C   0  0  1  0  0  0  0  0  0  0  0  0
   28.4092  -28.3558  -16.9678 C   0  0  0  0  0  0  0  0  0  0  0  0
   28.8687  -29.6614  -16.5418 C   0  0  0  0  0  0  0  0  0  0  0  0
   28.4942  -30.2913  -15.3694 C   0  0  0  0  0  0  0  0  0  0  0  0
   29.1359  -31.4656  -15.2905 N   0  0  0  0  0  0  0  0  0  0  0  0
   29.9261  -31.6506  -16.3628 C   0  0  0  0  0  0  0  0  0  0  0  0
   30.7632  -32.6542  -16.7803 C   0  0  0  0  0  0  0  0  0  0  0  0
   31.4676  -32.6116  -17.9628 C   0  0  0  0  0  0  0  0  0  0  0  0
   31.3069  -31.4894  -18.7533 C   0  0  0  0  0  0  0  0  0  0  0  0
   30.4739  -30.4858  -18.3408 C   0  0  0  0  0  0  0  0  0  0  0  0
   29.7588  -30.5080  -17.1586 C   0  0  0  0  0  0  0  0  0  0  0  0
   30.5879  -27.4926  -17.7866 C   0  0  0  0  0  0  0  0  0  0  0  0
   31.7280  -27.9872  -17.1923 O   0  0  0  0  0  0  0  0  0  0  0  0
   30.6139  -27.2703  -19.0167 O   0  0  0  0  0  0  0  0  0  0  0  0
  2  1  1  1
  2  3  1  0
  4  2  1  0
  4  5  2  0
  7  6  1  1
  7  9  1  0
  8  7  1  0
  9 11  1  0
  9 10  1  1
 10  4  1  0
 11 13  1  0
 12 11  2  0
 13 14  1  0
 14 25  1  0
 14 15  1  6
 16 15  1  0
 16 17  2  0
 18 17  1  0
 19 18  1  0
 20 19  2  0
 21 20  1  0
 22 21  2  0
 22 23  1  0
 23 24  2  0
 24 19  1  0
 24 16  1  0
 25 27  2  0
 25 26  1  0
M  END
$$$$
