ATW.pdb
     RDKit          3D

 27 28  0  0  1  0  0  0  0  0999 V2000
   19.4533  -20.7571  -11.6530 C   0  0  0  0  0  0  0  0  0  0  0  0
   20.7665  -21.4667  -11.8194 C   0  0  2  0  0  0  0  0  0  0  0  0
   20.8903  -22.4617  -10.7734 N   0  0  0  0  0  0  0  0  0  0  0  0
   21.9324  -20.5427  -11.7874 C   0  0  0  0  0  0  0  0  0  0  0  0
   21.8198  -19.3323  -11.4701 O   0  0  0  0  0  0  0  0  0  0  0  0
   25.0498  -21.4020  -10.0500 C   0  0  0  0  0  0  0  0  0  0  0  0
   25.4960  -21.0661  -11.4823 C   0  0  1  0  0  0  0  0  0  0  0  0
   25.5637  -22.3074  -12.1286 O   0  0  0  0  0  0  0  0  0  0  0  0
   24.4166  -20.2129  -12.0529 C   0  0  2  0  0  0  0  0  0  0  0  0
   23.2014  -21.0398  -12.1234 N   0  0  0  0  0  0  0  0  0  0  0  0
   24.7162  -19.6159  -13.3751 C   0  0  0  0  0  0  0  0  0  0  0  0
   24.0655  -19.9759  -14.3869 O   0  0  0  0  0  0  0  0  0  0  0  0
   25.7216  -18.6363  -13.5721 N   0  0  0  0  0  0  0  0  0  0  0  0
   26.0283  -18.0577  -14.9020 C   0  0  1  0  0  0  0  0  0  0  0  0
   26.9213  -16.8803  -14.7503 C   0  0  0  0  0  0  0  0  0  0  0  0
   27.4038  -16.2083  -15.9390 C   0  0  0  0  0  0  0  0  0  0  0  0
   26.8614  -15.0547  -16.4743 C   0  0  0  0  0  0  0  0  0  0  0  0
   27.5403  -14.7382  -17.5859 N   0  0  0  0  0  0  0  0  0  0  0  0
   28.5175  -15.6322  -17.8191 C   0  0  0  0  0  0  0  0  0  0  0  0
   29.4863  -15.7708  -18.7806 C   0  0  0  0  0  0  0  0  0  0  0  0
   30.4076  -16.7944  -18.7870 C   0  0  0  0  0  0  0  0  0  0  0  0
   30.3324  -17.7178  -17.7615 C   0  0  0  0  0  0  0  0  0  0  0  0
   29.3676  -17.5842  -16.8010 C   0  0  0  0  0  0  0  0  0  0  0  0
   28.4338  -16.5659  -16.7761 C   0  0  0  0  0  0  0  0  0  0  0  0
   26.5791  -19.1486  -15.6989 C   0  0  0  0  0  0  0  0  0  0  0  0
   26.3681  -19.2228  -17.0582 O   0  0  0  0  0  0  0  0  0  0  0  0
   27.2602  -20.0473  -15.1587 O   0  0  0  0  0  0  0  0  0  0  0  0
  2  1  1  1
  2  3  1  0
  4  2  1  0
  4  5  2  0
  7  6  1  1
  7  9  1  0
  8  7  1  0
  9 11  1  0
  9 10  1  6
 10  4  1  0
 11 13  1  0
 12 11  2  0
 13 14  1  0
 14 25  1  0
 14 15  1  1
 16 15  1  0
 16 17  2  0
 18 17  1  0
 19 18  1  0
 20 19  2  0
 21 20  1  0
 22 21  2  0
 22 23  1  0
 23 24  2  0
 24 19  1  0
 24 16  1  0
 25 27  2  0
 25 26  1  0
M  END
$$$$
