ATW.pdb
     RDKit          3D

 27 28  0  0  1  0  0  0  0  0999 V2000
   15.5576  -10.1667  -18.1318 C   0  0  0  0  0  0  0  0  0  0  0  0
   15.6985   -9.2254  -16.9699 C   0  0  2  0  0  0  0  0  0  0  0  0
   14.4798   -8.4505  -16.8522 N   0  0  0  0  0  0  0  0  0  0  0  0
   16.8711   -8.3186  -17.0979 C   0  0  0  0  0  0  0  0  0  0  0  0
   17.4946   -8.1776  -18.1796 O   0  0  0  0  0  0  0  0  0  0  0  0
   16.6879   -4.9390  -16.4518 C   0  0  0  0  0  0  0  0  0  0  0  0
   17.8390   -5.3230  -15.5079 C   0  0  1  0  0  0  0  0  0  0  0  0
   17.2258   -5.4994  -14.2606 O   0  0  0  0  0  0  0  0  0  0  0  0
   18.3830   -6.6059  -16.0341 C   0  0  2  0  0  0  0  0  0  0  0  0
   17.2962   -7.5960  -15.9720 N   0  0  0  0  0  0  0  0  0  0  0  0
   19.5883   -7.1132  -15.3382 C   0  0  0  0  0  0  0  0  0  0  0  0
   19.5066   -8.1278  -14.6028 O   0  0  0  0  0  0  0  0  0  0  0  0
   20.8632   -6.5049  -15.4553 N   0  0  0  0  0  0  0  0  0  0  0  0
   22.0837   -7.0740  -14.8354 C   0  0  1  0  0  0  0  0  0  0  0  0
   22.3885   -8.3981  -15.4359 C   0  0  0  0  0  0  0  0  0  0  0  0
   23.6578   -9.0281  -15.1369 C   0  0  0  0  0  0  0  0  0  0  0  0
   23.9193   -9.7947  -14.0164 C   0  0  0  0  0  0  0  0  0  0  0  0
   25.2003  -10.1873  -14.0557 N   0  0  0  0  0  0  0  0  0  0  0  0
   25.8103   -9.7161  -15.1577 C   0  0  0  0  0  0  0  0  0  0  0  0
   27.0738   -9.8270  -15.6808 C   0  0  0  0  0  0  0  0  0  0  0  0
   27.4556   -9.2482  -16.8706 C   0  0  0  0  0  0  0  0  0  0  0  0
   26.4990   -8.5229  -17.5555 C   0  0  0  0  0  0  0  0  0  0  0  0
   25.2381   -8.4089  -17.0375 C   0  0  0  0  0  0  0  0  0  0  0  0
   24.8345   -8.9806  -15.8459 C   0  0  0  0  0  0  0  0  0  0  0  0
   23.1271   -6.0681  -15.0023 C   0  0  0  0  0  0  0  0  0  0  0  0
   24.1505   -5.9365  -14.0896 O   0  0  0  0  0  0  0  0  0  0  0  0
   23.1131   -5.2973  -15.9867 O   0  0  0  0  0  0  0  0  0  0  0  0
  2  1  1  6
  2  3  1  0
  4  2  1  0
  4  5  2  0
  7  6  1  6
  7  9  1  0
  8  7  1  0
  9 11  1  0
  9 10  1  1
 10  4  1  0
 11 13  1  0
 12 11  2  0
 13 14  1  0
 14 25  1  0
 14 15  1  6
 16 15  1  0
 16 17  2  0
 18 17  1  0
 19 18  1  0
 20 19  2  0
 21 20  1  0
 22 21  2  0
 22 23  1  0
 23 24  2  0
 24 19  1  0
 24 16  1  0
 25 27  2  0
 25 26  1  0
M  END
$$$$
