YSY.pdb
     RDKit          3D

 31 32  0  0  1  0  0  0  0  0999 V2000
    8.7488  -12.2555   17.5191 O   0  0  0  0  0  0  0  0  0  0  0  0
    8.3316  -12.9636   18.6347 C   0  0  0  0  0  0  0  0  0  0  0  0
    8.4850  -14.3354   18.6192 C   0  0  0  0  0  0  0  0  0  0  0  0
    8.0834  -15.0785   19.7079 C   0  0  0  0  0  0  0  0  0  0  0  0
    7.5205  -14.4869   20.8390 C   0  0  0  0  0  0  0  0  0  0  0  0
    7.0916  -15.2967   22.0060 C   0  0  0  0  0  0  0  0  0  0  0  0
    7.4511  -16.7475   21.7395 C   0  0  2  0  0  0  0  0  0  0  0  0
    6.2869  -17.3755   21.1491 N   0  0  0  0  0  0  0  0  0  0  0  0
    7.8667  -17.4358   22.9918 C   0  0  0  0  0  0  0  0  0  0  0  0
    7.2308  -18.4113   23.4636 O   0  0  0  0  0  0  0  0  0  0  0  0
    7.3935  -13.1136   20.7944 C   0  0  0  0  0  0  0  0  0  0  0  0
    7.7809  -12.3514   19.7331 C   0  0  0  0  0  0  0  0  0  0  0  0
   11.3624  -18.2109   23.5678 O   0  0  0  0  0  0  0  0  0  0  0  0
   10.4146  -18.7848   24.4415 C   0  0  0  0  0  0  0  0  0  0  0  0
    9.5218  -17.6452   24.8890 C   0  0  2  0  0  0  0  0  0  0  0  0
    9.0115  -17.0056   23.7033 N   0  0  0  0  0  0  0  0  0  0  0  0
   10.3407  -16.7369   25.7232 C   0  0  0  0  0  0  0  0  0  0  0  0
   11.2064  -15.9654   25.2444 O   0  0  0  0  0  0  0  0  0  0  0  0
    5.9711  -12.6462   25.3898 O   0  0  0  0  0  0  0  0  0  0  0  0
    6.8884  -13.2710   26.2296 C   0  0  0  0  0  0  0  0  0  0  0  0
    7.9764  -12.5348   26.6462 C   0  0  0  0  0  0  0  0  0  0  0  0
    8.9072  -13.1361   27.4856 C   0  0  0  0  0  0  0  0  0  0  0  0
    8.7789  -14.4361   27.9124 C   0  0  0  0  0  0  0  0  0  0  0  0
    9.8066  -15.0432   28.8169 C   0  0  0  0  0  0  0  0  0  0  0  0
   10.8233  -15.8377   28.0220 C   0  0  2  0  0  0  0  0  0  0  0  0
   10.1333  -16.7433   27.1257 N   0  0  0  0  0  0  0  0  0  0  0  0
   11.6134  -16.6225   29.0312 C   0  0  0  0  0  0  0  0  0  0  0  0
   11.4568  -17.8769   29.0810 O   0  0  0  0  0  0  0  0  0  0  0  0
    7.6800  -15.1532   27.4812 C   0  0  0  0  0  0  0  0  0  0  0  0
    6.7407  -14.5742   26.6450 C   0  0  0  0  0  0  0  0  0  0  0  0
   12.4945  -16.0375   29.8979 O   0  0  0  0  0  0  0  0  0  0  0  0
  2 12  2  0
  2  1  1  0
  3  2  1  0
  4  5  1  0
  4  3  2  0
  5 11  2  0
  6  5  1  0
  7  6  1  0
  7  8  1  1
  9  7  1  0
 10  9  2  0
 11 12  1  0
 13 14  1  0
 15 14  1  6
 15 16  1  0
 16  9  1  0
 17 15  1  0
 17 18  2  0
 20 19  1  0
 21 20  2  0
 22 21  1  0
 23 29  1  0
 23 22  2  0
 24 23  1  0
 25 26  1  0
 25 24  1  1
 26 17  1  0
 27 25  1  0
 28 27  2  0
 29 30  2  0
 30 20  1  0
 31 27  1  0
M  END
$$$$
