YSY.pdb
     RDKit          3D

 31 32  0  0  1  0  0  0  0  0999 V2000
    6.9235  -13.5376   15.2584 O   0  0  0  0  0  0  0  0  0  0  0  0
    7.2599  -13.7564   16.5847 C   0  0  0  0  0  0  0  0  0  0  0  0
    8.1480  -14.7761   16.8623 C   0  0  0  0  0  0  0  0  0  0  0  0
    8.5099  -15.0282   18.1677 C   0  0  0  0  0  0  0  0  0  0  0  0
    8.0047  -14.2807   19.2318 C   0  0  0  0  0  0  0  0  0  0  0  0
    8.4014  -14.5608   20.6340 C   0  0  0  0  0  0  0  0  0  0  0  0
    7.9167  -15.9524   20.9993 C   0  0  2  0  0  0  0  0  0  0  0  0
    6.4761  -15.8820   21.1350 N   0  0  0  0  0  0  0  0  0  0  0  0
    8.5604  -16.4328   22.2522 C   0  0  0  0  0  0  0  0  0  0  0  0
    8.1116  -16.1448   23.3898 O   0  0  0  0  0  0  0  0  0  0  0  0
    7.1221  -13.2764   18.8907 C   0  0  0  0  0  0  0  0  0  0  0  0
    6.7449  -13.0027   17.6099 C   0  0  0  0  0  0  0  0  0  0  0  0
   11.7644  -18.7958   21.7785 O   0  0  0  0  0  0  0  0  0  0  0  0
   11.1874  -18.9116   23.0609 C   0  0  0  0  0  0  0  0  0  0  0  0
   10.5332  -17.5740   23.3421 C   0  0  2  0  0  0  0  0  0  0  0  0
    9.7188  -17.2436   22.2007 N   0  0  0  0  0  0  0  0  0  0  0  0
   11.6130  -16.5897   23.5802 C   0  0  0  0  0  0  0  0  0  0  0  0
   12.1729  -15.9537   22.6551 O   0  0  0  0  0  0  0  0  0  0  0  0
   10.0831  -17.4471   30.5134 O   0  0  0  0  0  0  0  0  0  0  0  0
   10.7152  -16.7149   29.5127 C   0  0  0  0  0  0  0  0  0  0  0  0
    9.9703  -16.3741   28.4044 C   0  0  0  0  0  0  0  0  0  0  0  0
   10.5786  -15.6427   27.3907 C   0  0  0  0  0  0  0  0  0  0  0  0
   11.8936  -15.2496   27.4566 C   0  0  0  0  0  0  0  0  0  0  0  0
   12.5077  -14.4623   26.3404 C   0  0  0  0  0  0  0  0  0  0  0  0
   13.0422  -15.3825   25.2613 C   0  0  2  0  0  0  0  0  0  0  0  0
   12.0293  -16.3593   24.9158 N   0  0  0  0  0  0  0  0  0  0  0  0
   14.2336  -16.0740   25.8621 C   0  0  0  0  0  0  0  0  0  0  0  0
   15.2603  -15.3866   26.1336 O   0  0  0  0  0  0  0  0  0  0  0  0
   12.6193  -15.6033   28.5775 C   0  0  0  0  0  0  0  0  0  0  0  0
   12.0336  -16.3314   29.5990 C   0  0  0  0  0  0  0  0  0  0  0  0
   14.2543  -17.4152   26.1277 O   0  0  0  0  0  0  0  0  0  0  0  0
  2 12  2  0
  2  1  1  0
  3  2  1  0
  4  5  1  0
  4  3  2  0
  5 11  2  0
  6  5  1  0
  7  6  1  0
  7  8  1  1
  9  7  1  0
 10  9  2  0
 11 12  1  0
 13 14  1  0
 15 14  1  6
 15 16  1  0
 16  9  1  0
 17 15  1  0
 17 18  2  0
 20 19  1  0
 21 20  2  0
 22 21  1  0
 23 29  1  0
 23 22  2  0
 24 23  1  0
 25 26  1  0
 25 24  1  1
 26 17  1  0
 27 25  1  0
 28 27  2  0
 29 30  2  0
 30 20  1  0
 31 27  1  0
M  END
$$$$
