YSY.pdb
     RDKit          3D

 31 32  0  0  1  0  0  0  0  0999 V2000
   10.2843  -22.7802   11.1945 O   0  0  0  0  0  0  0  0  0  0  0  0
   10.5618  -22.2523   12.4453 C   0  0  0  0  0  0  0  0  0  0  0  0
   11.8535  -22.3668   12.9187 C   0  0  0  0  0  0  0  0  0  0  0  0
   12.1731  -21.8557   14.1577 C   0  0  0  0  0  0  0  0  0  0  0  0
   11.2266  -21.2189   14.9606 C   0  0  0  0  0  0  0  0  0  0  0  0
   11.5818  -20.6719   16.2935 C   0  0  0  0  0  0  0  0  0  0  0  0
   11.3635  -19.1697   16.2677 C   0  0  2  0  0  0  0  0  0  0  0  0
   12.3087  -18.6160   15.3197 N   0  0  0  0  0  0  0  0  0  0  0  0
   11.5391  -18.5789   17.6223 C   0  0  0  0  0  0  0  0  0  0  0  0
   12.0018  -17.4237   17.7952 O   0  0  0  0  0  0  0  0  0  0  0  0
    9.9543  -21.1356   14.4329 C   0  0  0  0  0  0  0  0  0  0  0  0
    9.6073  -21.6309   13.2116 C   0  0  0  0  0  0  0  0  0  0  0  0
    8.8683  -18.3764   20.1419 O   0  0  0  0  0  0  0  0  0  0  0  0
   10.1041  -17.6955   20.1561 C   0  0  0  0  0  0  0  0  0  0  0  0
   11.1697  -18.7721   20.1140 C   0  0  2  0  0  0  0  0  0  0  0  0
   11.1842  -19.3127   18.7788 N   0  0  0  0  0  0  0  0  0  0  0  0
   10.8240  -19.7835   21.1383 C   0  0  0  0  0  0  0  0  0  0  0  0
    9.8585  -20.5752   21.0170 O   0  0  0  0  0  0  0  0  0  0  0  0
   15.4423  -24.3734   20.0023 O   0  0  0  0  0  0  0  0  0  0  0  0
   14.7458  -23.6608   20.9740 C   0  0  0  0  0  0  0  0  0  0  0  0
   15.0058  -22.3120   21.0850 C   0  0  0  0  0  0  0  0  0  0  0  0
   14.3231  -21.5777   22.0478 C   0  0  0  0  0  0  0  0  0  0  0  0
   13.4005  -22.1502   22.8901 C   0  0  0  0  0  0  0  0  0  0  0  0
   12.6883  -21.3202   23.9132 C   0  0  0  0  0  0  0  0  0  0  0  0
   11.3695  -20.8079   23.3697 C   0  0  2  0  0  0  0  0  0  0  0  0
   11.6234  -19.8561   22.3070 N   0  0  0  0  0  0  0  0  0  0  0  0
   10.6895  -20.1194   24.5193 C   0  0  0  0  0  0  0  0  0  0  0  0
   10.5375  -18.8644   24.4702 O   0  0  0  0  0  0  0  0  0  0  0  0
   13.1573  -23.5036   22.7594 C   0  0  0  0  0  0  0  0  0  0  0  0
   13.8258  -24.2541   21.8072 C   0  0  0  0  0  0  0  0  0  0  0  0
   10.2280  -20.7925   25.6165 O   0  0  0  0  0  0  0  0  0  0  0  0
  2 12  2  0
  2  1  1  0
  3  2  1  0
  4  5  1  0
  4  3  2  0
  5 11  2  0
  6  5  1  0
  7  6  1  0
  7  8  1  6
  9  7  1  0
 10  9  2  0
 11 12  1  0
 13 14  1  0
 15 14  1  6
 15 16  1  0
 16  9  1  0
 17 15  1  0
 17 18  2  0
 20 19  1  0
 21 20  2  0
 22 21  1  0
 23 29  1  0
 23 22  2  0
 24 23  1  0
 25 26  1  0
 25 24  1  1
 26 17  1  0
 27 25  1  0
 28 27  2  0
 29 30  2  0
 30 20  1  0
 31 27  1  0
M  END
$$$$
