YSY.pdb
     RDKit          3D

 31 32  0  0  1  0  0  0  0  0999 V2000
    9.6581  -12.1443   17.2754 O   0  0  0  0  0  0  0  0  0  0  0  0
    8.9179  -12.7612   18.2712 C   0  0  0  0  0  0  0  0  0  0  0  0
    9.5686  -13.0955   19.4418 C   0  0  0  0  0  0  0  0  0  0  0  0
    8.8703  -13.7104   20.4581 C   0  0  0  0  0  0  0  0  0  0  0  0
    7.5127  -14.0109   20.3450 C   0  0  0  0  0  0  0  0  0  0  0  0
    6.7704  -14.6732   21.4459 C   0  0  0  0  0  0  0  0  0  0  0  0
    7.4170  -16.0199   21.7164 C   0  0  2  0  0  0  0  0  0  0  0  0
    7.2703  -16.8145   20.5140 N   0  0  0  0  0  0  0  0  0  0  0  0
    6.7941  -16.6877   22.8915 C   0  0  0  0  0  0  0  0  0  0  0  0
    5.5606  -16.9173   22.9565 O   0  0  0  0  0  0  0  0  0  0  0  0
    6.9187  -13.6525   19.1522 C   0  0  0  0  0  0  0  0  0  0  0  0
    7.5820  -13.0436   18.1290 C   0  0  0  0  0  0  0  0  0  0  0  0
    9.2750  -17.7841   25.9411 O   0  0  0  0  0  0  0  0  0  0  0  0
    8.0820  -18.5290   25.8276 C   0  0  0  0  0  0  0  0  0  0  0  0
    7.0568  -17.5803   25.2402 C   0  0  2  0  0  0  0  0  0  0  0  0
    7.5856  -17.0922   23.9924 N   0  0  0  0  0  0  0  0  0  0  0  0
    6.8290  -16.5012   26.2278 C   0  0  0  0  0  0  0  0  0  0  0  0
    6.3547  -16.7105   27.3701 O   0  0  0  0  0  0  0  0  0  0  0  0
   11.9095  -16.7641   29.7365 O   0  0  0  0  0  0  0  0  0  0  0  0
   11.0156  -15.9101   29.0972 C   0  0  0  0  0  0  0  0  0  0  0  0
   10.9079  -16.0091   27.7268 C   0  0  0  0  0  0  0  0  0  0  0  0
   10.0220  -15.1672   27.0644 C   0  0  0  0  0  0  0  0  0  0  0  0
    9.2524  -14.2425   27.7284 C   0  0  0  0  0  0  0  0  0  0  0  0
    8.3108  -13.3557   26.9736 C   0  0  0  0  0  0  0  0  0  0  0  0
    6.9798  -14.0459   26.7523 C   0  0  2  0  0  0  0  0  0  0  0  0
    7.1639  -15.1732   25.8608 N   0  0  0  0  0  0  0  0  0  0  0  0
    6.0882  -13.0240   26.1049 C   0  0  0  0  0  0  0  0  0  0  0  0
    5.6902  -12.0420   26.7959 O   0  0  0  0  0  0  0  0  0  0  0  0
    9.3783  -14.1623   29.1016 C   0  0  0  0  0  0  0  0  0  0  0  0
   10.2544  -14.9910   29.7816 C   0  0  0  0  0  0  0  0  0  0  0  0
    5.6890  -13.1112   24.7999 O   0  0  0  0  0  0  0  0  0  0  0  0
  2 12  2  0
  2  1  1  0
  3  2  1  0
  4  5  1  0
  4  3  2  0
  5 11  2  0
  6  5  1  0
  7  6  1  0
  7  8  1  6
  9  7  1  0
 10  9  2  0
 11 12  1  0
 13 14  1  0
 15 14  1  1
 15 16  1  0
 16  9  1  0
 17 15  1  0
 17 18  2  0
 20 19  1  0
 21 20  2  0
 22 21  1  0
 23 29  1  0
 23 22  2  0
 24 23  1  0
 25 26  1  0
 25 24  1  6
 26 17  1  0
 27 25  1  0
 28 27  2  0
 29 30  2  0
 30 20  1  0
 31 27  1  0
M  END
$$$$
