YSY.pdb
     RDKit          3D

 31 32  0  0  1  0  0  0  0  0999 V2000
    7.9960  -12.0420   17.2528 O   0  0  0  0  0  0  0  0  0  0  0  0
    7.9483  -12.7673   18.4325 C   0  0  0  0  0  0  0  0  0  0  0  0
    6.7057  -13.1152   18.9229 C   0  0  0  0  0  0  0  0  0  0  0  0
    6.6123  -13.8365   20.0932 C   0  0  0  0  0  0  0  0  0  0  0  0
    7.7423  -14.2326   20.8090 C   0  0  0  0  0  0  0  0  0  0  0  0
    7.6301  -15.0093   22.0683 C   0  0  0  0  0  0  0  0  0  0  0  0
    8.1346  -16.4175   21.8083 C   0  0  2  0  0  0  0  0  0  0  0  0
    7.1879  -17.0533   20.9150 N   0  0  0  0  0  0  0  0  0  0  0  0
    8.2815  -17.1777   23.0792 C   0  0  0  0  0  0  0  0  0  0  0  0
    7.3130  -17.7600   23.6282 O   0  0  0  0  0  0  0  0  0  0  0  0
    8.9545  -13.8552   20.2686 C   0  0  0  0  0  0  0  0  0  0  0  0
    9.0796  -13.1422   19.1138 C   0  0  0  0  0  0  0  0  0  0  0  0
   11.6755  -18.6140   23.9818 O   0  0  0  0  0  0  0  0  0  0  0  0
   10.6672  -19.0194   24.8817 C   0  0  0  0  0  0  0  0  0  0  0  0
    9.7449  -17.8267   25.0337 C   0  0  2  0  0  0  0  0  0  0  0  0
    9.5392  -17.2704   23.7209 N   0  0  0  0  0  0  0  0  0  0  0  0
   10.3939  -16.8757   25.9642 C   0  0  0  0  0  0  0  0  0  0  0  0
   11.3197  -16.1042   25.6157 O   0  0  0  0  0  0  0  0  0  0  0  0
    6.5551  -12.1625   25.0826 O   0  0  0  0  0  0  0  0  0  0  0  0
    7.2906  -12.8603   26.0361 C   0  0  0  0  0  0  0  0  0  0  0  0
    6.8391  -14.1103   26.4007 C   0  0  0  0  0  0  0  0  0  0  0  0
    7.5561  -14.8278   27.3512 C   0  0  0  0  0  0  0  0  0  0  0  0
    8.6964  -14.3338   27.9376 C   0  0  0  0  0  0  0  0  0  0  0  0
    9.4372  -15.1422   28.9576 C   0  0  0  0  0  0  0  0  0  0  0  0
   10.5300  -15.9645   28.3046 C   0  0  2  0  0  0  0  0  0  0  0  0
    9.9449  -16.8393   27.3086 N   0  0  0  0  0  0  0  0  0  0  0  0
   11.1433  -16.7834   29.4054 C   0  0  0  0  0  0  0  0  0  0  0  0
   10.9595  -18.0350   29.4043 O   0  0  0  0  0  0  0  0  0  0  0  0
    9.1288  -13.0787   27.5556 C   0  0  0  0  0  0  0  0  0  0  0  0
    8.4302  -12.3467   26.6108 C   0  0  0  0  0  0  0  0  0  0  0  0
   11.8917  -16.2322   30.4083 O   0  0  0  0  0  0  0  0  0  0  0  0
  2 12  2  0
  2  1  1  0
  3  2  1  0
  4  5  1  0
  4  3  2  0
  5 11  2  0
  6  5  1  0
  7  6  1  0
  7  8  1  6
  9  7  1  0
 10  9  2  0
 11 12  1  0
 13 14  1  0
 15 14  1  6
 15 16  1  0
 16  9  1  0
 17 15  1  0
 17 18  2  0
 20 19  1  0
 21 20  2  0
 22 21  1  0
 23 29  1  0
 23 22  2  0
 24 23  1  0
 25 26  1  0
 25 24  1  1
 26 17  1  0
 27 25  1  0
 28 27  2  0
 29 30  2  0
 30 20  1  0
 31 27  1  0
M  END
$$$$
