YSY.pdb
     RDKit          3D

 31 32  0  0  1  0  0  0  0  0999 V2000
    7.9501  -12.2708   17.1487 O   0  0  0  0  0  0  0  0  0  0  0  0
    7.9658  -12.9533   18.3545 C   0  0  0  0  0  0  0  0  0  0  0  0
    6.7828  -13.5162   18.7895 C   0  0  0  0  0  0  0  0  0  0  0  0
    6.7536  -14.2038   19.9831 C   0  0  0  0  0  0  0  0  0  0  0  0
    7.8906  -14.3533   20.7776 C   0  0  0  0  0  0  0  0  0  0  0  0
    7.8479  -15.0960   22.0614 C   0  0  0  0  0  0  0  0  0  0  0  0
    8.4074  -16.4879   21.8277 C   0  0  2  0  0  0  0  0  0  0  0  0
    7.4719  -17.1869   20.9704 N   0  0  0  0  0  0  0  0  0  0  0  0
    8.6112  -17.2071   23.1145 C   0  0  0  0  0  0  0  0  0  0  0  0
    7.6907  -17.8532   23.6748 O   0  0  0  0  0  0  0  0  0  0  0  0
    9.0414  -13.7688   20.2897 C   0  0  0  0  0  0  0  0  0  0  0  0
    9.1022  -13.0828   19.1136 C   0  0  0  0  0  0  0  0  0  0  0  0
   12.2063  -18.1358   24.1182 O   0  0  0  0  0  0  0  0  0  0  0  0
   11.2377  -18.7265   24.9572 C   0  0  0  0  0  0  0  0  0  0  0  0
   10.1200  -17.7104   25.0773 C   0  0  2  0  0  0  0  0  0  0  0  0
    9.8705  -17.1856   23.7592 N   0  0  0  0  0  0  0  0  0  0  0  0
   10.5619  -16.6709   26.0342 C   0  0  0  0  0  0  0  0  0  0  0  0
   11.3258  -15.7288   25.7138 O   0  0  0  0  0  0  0  0  0  0  0  0
    6.3956  -12.4815   24.9014 O   0  0  0  0  0  0  0  0  0  0  0  0
    7.1411  -13.0909   25.9063 C   0  0  0  0  0  0  0  0  0  0  0  0
    6.7933  -14.3740   26.2696 C   0  0  0  0  0  0  0  0  0  0  0  0
    7.5224  -15.0049   27.2710 C   0  0  0  0  0  0  0  0  0  0  0  0
    8.5752  -14.3938   27.9086 C   0  0  0  0  0  0  0  0  0  0  0  0
    9.3330  -15.1119   28.9823 C   0  0  0  0  0  0  0  0  0  0  0  0
   10.5353  -15.8317   28.4051 C   0  0  2  0  0  0  0  0  0  0  0  0
   10.0979  -16.7484   27.3717 N   0  0  0  0  0  0  0  0  0  0  0  0
   11.1421  -16.6002   29.5451 C   0  0  0  0  0  0  0  0  0  0  0  0
   11.0677  -17.8631   29.5324 O   0  0  0  0  0  0  0  0  0  0  0  0
    8.9044  -13.1078   27.5268 C   0  0  0  0  0  0  0  0  0  0  0  0
    8.1918  -12.4605   26.5319 C   0  0  0  0  0  0  0  0  0  0  0  0
   11.7712  -15.9917   30.5957 O   0  0  0  0  0  0  0  0  0  0  0  0
  2 12  2  0
  2  1  1  0
  3  2  1  0
  4  5  1  0
  4  3  2  0
  5 11  2  0
  6  5  1  0
  7  6  1  0
  7  8  1  6
  9  7  1  0
 10  9  2  0
 11 12  1  0
 13 14  1  0
 15 14  1  6
 15 16  1  0
 16  9  1  0
 17 15  1  0
 17 18  2  0
 20 19  1  0
 21 20  2  0
 22 21  1  0
 23 29  1  0
 23 22  2  0
 24 23  1  0
 25 26  1  0
 25 24  1  1
 26 17  1  0
 27 25  1  0
 28 27  2  0
 29 30  2  0
 30 20  1  0
 31 27  1  0
M  END
$$$$
