YSY.pdb
     RDKit          3D

 31 32  0  0  1  0  0  0  0  0999 V2000
    7.0937  -13.0346   16.2196 O   0  0  0  0  0  0  0  0  0  0  0  0
    7.1074  -13.5942   17.4872 C   0  0  0  0  0  0  0  0  0  0  0  0
    7.5247  -12.7994   18.5358 C   0  0  0  0  0  0  0  0  0  0  0  0
    7.5537  -13.3158   19.8129 C   0  0  0  0  0  0  0  0  0  0  0  0
    7.1718  -14.6292   20.0875 C   0  0  0  0  0  0  0  0  0  0  0  0
    7.2069  -15.1751   21.4668 C   0  0  0  0  0  0  0  0  0  0  0  0
    8.6523  -15.2126   21.9298 C   0  0  2  0  0  0  0  0  0  0  0  0
    9.4025  -15.9474   20.9319 N   0  0  0  0  0  0  0  0  0  0  0  0
    8.7690  -15.8416   23.2735 C   0  0  0  0  0  0  0  0  0  0  0  0
    8.0129  -15.5307   24.2275 O   0  0  0  0  0  0  0  0  0  0  0  0
    6.7648  -15.3731   18.9989 C   0  0  0  0  0  0  0  0  0  0  0  0
    6.7251  -14.8911   17.7247 C   0  0  0  0  0  0  0  0  0  0  0  0
   12.0604  -17.9838   23.9625 O   0  0  0  0  0  0  0  0  0  0  0  0
   10.9482  -18.6022   24.5721 C   0  0  0  0  0  0  0  0  0  0  0  0
    9.9283  -17.5018   24.7842 C   0  0  2  0  0  0  0  0  0  0  0  0
    9.7527  -16.8274   23.5234 N   0  0  0  0  0  0  0  0  0  0  0  0
   10.4481  -16.6090   25.8445 C   0  0  0  0  0  0  0  0  0  0  0  0
   11.3804  -15.7919   25.6522 O   0  0  0  0  0  0  0  0  0  0  0  0
    6.8711  -11.8052   24.7946 O   0  0  0  0  0  0  0  0  0  0  0  0
    7.4704  -12.5782   25.7847 C   0  0  0  0  0  0  0  0  0  0  0  0
    6.8653  -13.7713   26.1161 C   0  0  0  0  0  0  0  0  0  0  0  0
    7.4443  -14.5618   27.1022 C   0  0  0  0  0  0  0  0  0  0  0  0
    8.5961  -14.1945   27.7553 C   0  0  0  0  0  0  0  0  0  0  0  0
    9.1848  -15.0781   28.8116 C   0  0  0  0  0  0  0  0  0  0  0  0
   10.3327  -15.8952   28.2535 C   0  0  2  0  0  0  0  0  0  0  0  0
    9.8623  -16.6849   27.1334 N   0  0  0  0  0  0  0  0  0  0  0  0
   10.7729  -16.8024   29.3678 C   0  0  0  0  0  0  0  0  0  0  0  0
   10.5908  -18.0480   29.2432 O   0  0  0  0  0  0  0  0  0  0  0  0
    9.1837  -12.9944   27.4055 C   0  0  0  0  0  0  0  0  0  0  0  0
    8.6243  -12.1914   26.4263 C   0  0  0  0  0  0  0  0  0  0  0  0
   11.3622  -16.3377   30.5109 O   0  0  0  0  0  0  0  0  0  0  0  0
  2 12  2  0
  2  1  1  0
  3  2  1  0
  4  5  1  0
  4  3  2  0
  5 11  2  0
  6  5  1  0
  7  6  1  0
  7  8  1  6
  9  7  1  0
 10  9  2  0
 11 12  1  0
 13 14  1  0
 15 14  1  6
 15 16  1  0
 16  9  1  0
 17 15  1  0
 17 18  2  0
 20 19  1  0
 21 20  2  0
 22 21  1  0
 23 29  1  0
 23 22  2  0
 24 23  1  0
 25 26  1  0
 25 24  1  1
 26 17  1  0
 27 25  1  0
 28 27  2  0
 29 30  2  0
 30 20  1  0
 31 27  1  0
M  END
$$$$
