YSY.pdb
     RDKit          3D

 31 32  0  0  1  0  0  0  0  0999 V2000
   17.1223  -22.0850   15.8578 O   0  0  0  0  0  0  0  0  0  0  0  0
   16.5342  -21.1043   16.6403 C   0  0  0  0  0  0  0  0  0  0  0  0
   15.4161  -21.4509   17.3720 C   0  0  0  0  0  0  0  0  0  0  0  0
   14.7998  -20.5064   18.1636 C   0  0  0  0  0  0  0  0  0  0  0  0
   15.2710  -19.1964   18.2532 C   0  0  0  0  0  0  0  0  0  0  0  0
   14.5996  -18.1872   19.1090 C   0  0  0  0  0  0  0  0  0  0  0  0
   13.2910  -17.7935   18.4474 C   0  0  2  0  0  0  0  0  0  0  0  0
   13.6239  -17.0640   17.2409 N   0  0  0  0  0  0  0  0  0  0  0  0
   12.4505  -16.9770   19.3648 C   0  0  0  0  0  0  0  0  0  0  0  0
   12.6302  -15.7431   19.5192 O   0  0  0  0  0  0  0  0  0  0  0  0
   16.3909  -18.9114   17.4991 C   0  0  0  0  0  0  0  0  0  0  0  0
   17.0225  -19.8231   16.7071 C   0  0  0  0  0  0  0  0  0  0  0  0
    9.4152  -18.9066   21.1977 O   0  0  0  0  0  0  0  0  0  0  0  0
    9.1707  -17.5417   20.9365 C   0  0  0  0  0  0  0  0  0  0  0  0
   10.5233  -16.8611   20.9941 C   0  0  2  0  0  0  0  0  0  0  0  0
   11.4039  -17.5753   20.1054 N   0  0  0  0  0  0  0  0  0  0  0  0
   10.9801  -16.8932   22.4019 C   0  0  0  0  0  0  0  0  0  0  0  0
   11.7949  -17.7427   22.8358 O   0  0  0  0  0  0  0  0  0  0  0  0
   10.5362  -15.0919   31.0418 O   0  0  0  0  0  0  0  0  0  0  0  0
   10.4219  -15.0215   29.6565 C   0  0  0  0  0  0  0  0  0  0  0  0
    9.2507  -15.4753   29.0892 C   0  0  0  0  0  0  0  0  0  0  0  0
    9.1117  -15.4158   27.7073 C   0  0  0  0  0  0  0  0  0  0  0  0
   10.1001  -14.9212   26.8907 C   0  0  0  0  0  0  0  0  0  0  0  0
    9.9068  -14.8761   25.4063 C   0  0  0  0  0  0  0  0  0  0  0  0
   10.7095  -15.9656   24.7241 C   0  0  2  0  0  0  0  0  0  0  0  0
   10.4707  -15.9176   23.2958 N   0  0  0  0  0  0  0  0  0  0  0  0
   10.2000  -17.2643   25.2830 C   0  0  0  0  0  0  0  0  0  0  0  0
    9.0890  -17.7072   24.8709 O   0  0  0  0  0  0  0  0  0  0  0  0
   11.2645  -14.4725   27.4829 C   0  0  0  0  0  0  0  0  0  0  0  0
   11.4242  -14.5224   28.8572 C   0  0  0  0  0  0  0  0  0  0  0  0
   10.8871  -17.9874   26.2183 O   0  0  0  0  0  0  0  0  0  0  0  0
  2 12  2  0
  2  1  1  0
  3  2  1  0
  4  5  1  0
  4  3  2  0
  5 11  2  0
  6  5  1  0
  7  6  1  0
  7  8  1  6
  9  7  1  0
 10  9  2  0
 11 12  1  0
 13 14  1  0
 15 14  1  1
 15 16  1  0
 16  9  1  0
 17 15  1  0
 17 18  2  0
 20 19  1  0
 21 20  2  0
 22 21  1  0
 23 29  1  0
 23 22  2  0
 24 23  1  0
 25 26  1  0
 25 24  1  1
 26 17  1  0
 27 25  1  0
 28 27  2  0
 29 30  2  0
 30 20  1  0
 31 27  1  0
M  END
$$$$
