FWA.pdb
     RDKit          3D

 31 33  0  0  1  0  0  0  0  0999 V2000
   27.8487  -21.0787   -8.5442 N   0  0  0  0  0  0  0  0  0  0  0  0
   26.6673  -20.3312   -8.2462 C   0  0  1  0  0  0  0  0  0  0  0  0
   26.9995  -19.0963   -7.4327 C   0  0  0  0  0  0  0  0  0  0  0  0
   27.5817  -19.4737   -6.1068 C   0  0  0  0  0  0  0  0  0  0  0  0
   27.7792  -20.8026   -5.8230 C   0  0  0  0  0  0  0  0  0  0  0  0
   28.3157  -21.1567   -4.6030 C   0  0  0  0  0  0  0  0  0  0  0  0
   28.6520  -20.2031   -3.6760 C   0  0  0  0  0  0  0  0  0  0  0  0
   28.4454  -18.8755   -3.9813 C   0  0  0  0  0  0  0  0  0  0  0  0
   27.9114  -18.4921   -5.1916 C   0  0  0  0  0  0  0  0  0  0  0  0
   25.9684  -19.9028   -9.4843 C   0  0  0  0  0  0  0  0  0  0  0  0
   26.0746  -18.7370   -9.9276 O   0  0  0  0  0  0  0  0  0  0  0  0
   25.1586  -20.8346  -10.1869 N   0  0  0  0  0  0  0  0  0  0  0  0
   24.5736  -20.6038  -11.4816 C   0  0  1  0  0  0  0  0  0  0  0  0
   25.1020  -21.5636  -12.5249 C   0  0  0  0  0  0  0  0  0  0  0  0
   26.4592  -21.1975  -12.9692 C   0  0  0  0  0  0  0  0  0  0  0  0
   27.6681  -21.7988  -12.6886 C   0  0  0  0  0  0  0  0  0  0  0  0
   28.6547  -21.1202  -13.3104 N   0  0  0  0  0  0  0  0  0  0  0  0
   28.1618  -20.0865  -13.9983 C   0  0  0  0  0  0  0  0  0  0  0  0
   28.7386  -19.1156  -14.7795 C   0  0  0  0  0  0  0  0  0  0  0  0
   27.9323  -18.1711  -15.3621 C   0  0  0  0  0  0  0  0  0  0  0  0
   26.5702  -18.1942  -15.1686 C   0  0  0  0  0  0  0  0  0  0  0  0
   25.9897  -19.1696  -14.3837 C   0  0  0  0  0  0  0  0  0  0  0  0
   26.7789  -20.1290  -13.7881 C   0  0  0  0  0  0  0  0  0  0  0  0
   23.1073  -20.7418  -11.4495 C   0  0  0  0  0  0  0  0  0  0  0  0
   22.5807  -21.5631  -10.6765 O   0  0  0  0  0  0  0  0  0  0  0  0
   20.3066  -18.9397  -13.1466 C   0  0  0  0  0  0  0  0  0  0  0  0
   20.8600  -19.9801  -12.2268 C   0  0  2  0  0  0  0  0  0  0  0  0
   22.3123  -19.9444  -12.2923 N   0  0  0  0  0  0  0  0  0  0  0  0
   20.3937  -21.3497  -12.5649 C   0  0  0  0  0  0  0  0  0  0  0  0
   21.0481  -22.0646  -13.3660 O   0  0  0  0  0  0  0  0  0  0  0  0
   19.2388  -21.8926  -12.0240 O   0  0  0  0  0  0  0  0  0  0  0  0
  2  1  1  6
  2  3  1  0
  2 10  1  0
  3  4  1  0
  4  5  2  0
  4  9  1  0
  5  6  1  0
  6  7  2  0
  8  7  1  0
  9  8  2  0
 10 11  2  0
 12 10  1  0
 12 13  1  0
 13 14  1  6
 14 15  1  0
 15 16  2  0
 16 17  1  0
 18 17  1  0
 19 18  2  0
 20 19  1  0
 21 22  1  0
 21 20  2  0
 22 23  2  0
 23 15  1  0
 23 18  1  0
 24 13  1  0
 24 25  2  0
 27 26  1  6
 27 29  1  0
 27 28  1  0
 28 24  1  0
 29 31  1  0
 30 29  2  0
M  END
$$$$
