FWA.pdb
     RDKit          3D

 31 33  0  0  1  0  0  0  0  0999 V2000
   14.3340  -12.9777    5.0040 N   0  0  0  0  0  0  0  0  0  0  0  0
   15.6475  -13.4075    5.3692 C   0  0  1  0  0  0  0  0  0  0  0  0
   16.2535  -12.4772    6.4010 C   0  0  0  0  0  0  0  0  0  0  0  0
   17.7360  -12.3787    6.2225 C   0  0  0  0  0  0  0  0  0  0  0  0
   18.5547  -12.7239    7.2695 C   0  0  0  0  0  0  0  0  0  0  0  0
   19.9217  -12.6355    7.1110 C   0  0  0  0  0  0  0  0  0  0  0  0
   20.4693  -12.2097    5.9276 C   0  0  0  0  0  0  0  0  0  0  0  0
   19.6295  -11.8683    4.8900 C   0  0  0  0  0  0  0  0  0  0  0  0
   18.2606  -11.9465    5.0192 C   0  0  0  0  0  0  0  0  0  0  0  0
   15.6332  -14.7827    5.9291 C   0  0  0  0  0  0  0  0  0  0  0  0
   14.7249  -15.1681    6.6994 O   0  0  0  0  0  0  0  0  0  0  0  0
   16.6731  -15.6873    5.5854 N   0  0  0  0  0  0  0  0  0  0  0  0
   16.7569  -17.0527    6.0329 C   0  0  1  0  0  0  0  0  0  0  0  0
   17.5327  -17.9221    5.0679 C   0  0  0  0  0  0  0  0  0  0  0  0
   16.6912  -18.3856    3.9496 C   0  0  0  0  0  0  0  0  0  0  0  0
   15.8816  -17.6615    3.0999 C   0  0  0  0  0  0  0  0  0  0  0  0
   15.2955  -18.5031    2.2232 N   0  0  0  0  0  0  0  0  0  0  0  0
   15.6758  -19.7641    2.4461 C   0  0  0  0  0  0  0  0  0  0  0  0
   15.3697  -20.9595    1.8436 C   0  0  0  0  0  0  0  0  0  0  0  0
   15.9443  -22.1082    2.3251 C   0  0  0  0  0  0  0  0  0  0  0  0
   16.8119  -22.0658    3.3922 C   0  0  0  0  0  0  0  0  0  0  0  0
   17.1201  -20.8649    3.9984 C   0  0  0  0  0  0  0  0  0  0  0  0
   16.5554  -19.6978    3.5325 C   0  0  0  0  0  0  0  0  0  0  0  0
   17.4087  -17.1554    7.3500 C   0  0  0  0  0  0  0  0  0  0  0  0
   18.4523  -16.5152    7.5746 O   0  0  0  0  0  0  0  0  0  0  0  0
   16.3060  -18.2653   10.6654 C   0  0  0  0  0  0  0  0  0  0  0  0
   17.4113  -18.0439    9.6835 C   0  0  2  0  0  0  0  0  0  0  0  0
   16.8475  -17.9762    8.3448 N   0  0  0  0  0  0  0  0  0  0  0  0
   18.4362  -19.1188    9.7233 C   0  0  0  0  0  0  0  0  0  0  0  0
   18.6400  -19.8408    8.7142 O   0  0  0  0  0  0  0  0  0  0  0  0
   19.2004  -19.3710   10.8518 O   0  0  0  0  0  0  0  0  0  0  0  0
  2  1  1  1
  2  3  1  0
  2 10  1  0
  3  4  1  0
  4  5  2  0
  4  9  1  0
  5  6  1  0
  6  7  2  0
  8  7  1  0
  9  8  2  0
 10 11  2  0
 12 10  1  0
 12 13  1  0
 13 14  1  6
 14 15  1  0
 15 16  2  0
 16 17  1  0
 18 17  1  0
 19 18  2  0
 20 19  1  0
 21 22  1  0
 21 20  2  0
 22 23  2  0
 23 15  1  0
 23 18  1  0
 24 13  1  0
 24 25  2  0
 27 26  1  1
 27 29  1  0
 27 28  1  0
 28 24  1  0
 29 31  1  0
 30 29  2  0
M  END
$$$$
