FWA.pdb
     RDKit          3D

 31 33  0  0  1  0  0  0  0  0999 V2000
   27.9816  -20.7262  -15.4683 N   0  0  0  0  0  0  0  0  0  0  0  0
   27.1598  -19.8881  -14.6524 C   0  0  1  0  0  0  0  0  0  0  0  0
   26.2538  -19.0233  -15.5059 C   0  0  0  0  0  0  0  0  0  0  0  0
   27.0547  -18.0598  -16.3242 C   0  0  0  0  0  0  0  0  0  0  0  0
   27.6889  -17.0192  -15.6914 C   0  0  0  0  0  0  0  0  0  0  0  0
   28.4287  -16.1281  -16.4401 C   0  0  0  0  0  0  0  0  0  0  0  0
   28.5376  -16.2685  -17.8003 C   0  0  0  0  0  0  0  0  0  0  0  0
   27.8931  -17.3199  -18.4149 C   0  0  0  0  0  0  0  0  0  0  0  0
   27.1473  -18.2252  -17.6931 C   0  0  0  0  0  0  0  0  0  0  0  0
   26.3130  -20.6879  -13.7316 C   0  0  0  0  0  0  0  0  0  0  0  0
   25.9242  -21.8393  -14.0314 O   0  0  0  0  0  0  0  0  0  0  0  0
   25.9320  -20.1379  -12.4785 N   0  0  0  0  0  0  0  0  0  0  0  0
   25.1802  -20.8354  -11.4685 C   0  0  1  0  0  0  0  0  0  0  0  0
   25.4752  -20.3162  -10.0784 C   0  0  0  0  0  0  0  0  0  0  0  0
   26.8567  -20.6188   -9.6620 C   0  0  0  0  0  0  0  0  0  0  0  0
   27.8784  -21.2138  -10.3719 C   0  0  0  0  0  0  0  0  0  0  0  0
   28.9746  -21.2907   -9.5892 N   0  0  0  0  0  0  0  0  0  0  0  0
   28.7350  -20.7727   -8.3813 C   0  0  0  0  0  0  0  0  0  0  0  0
   29.5048  -20.6171   -7.2549 C   0  0  0  0  0  0  0  0  0  0  0  0
   28.9454  -20.0303   -6.1484 C   0  0  0  0  0  0  0  0  0  0  0  0
   27.6371  -19.6047   -6.1646 C   0  0  0  0  0  0  0  0  0  0  0  0
   26.8627  -19.7607   -7.2962 C   0  0  0  0  0  0  0  0  0  0  0  0
   27.4024  -20.3472   -8.4199 C   0  0  0  0  0  0  0  0  0  0  0  0
   23.7288  -20.7174  -11.6908 C   0  0  0  0  0  0  0  0  0  0  0  0
   23.2099  -19.5913  -11.8004 O   0  0  0  0  0  0  0  0  0  0  0  0
   21.0122  -20.9086  -10.7247 C   0  0  0  0  0  0  0  0  0  0  0  0
   21.4871  -21.8097  -11.8189 C   0  0  2  0  0  0  0  0  0  0  0  0
   22.9391  -21.8781  -11.7779 N   0  0  0  0  0  0  0  0  0  0  0  0
   21.0621  -21.3480  -13.1657 C   0  0  0  0  0  0  0  0  0  0  0  0
   21.9195  -21.0328  -14.0297 O   0  0  0  0  0  0  0  0  0  0  0  0
   19.7275  -21.2453  -13.5255 O   0  0  0  0  0  0  0  0  0  0  0  0
  2  1  1  6
  2  3  1  0
  2 10  1  0
  3  4  1  0
  4  5  2  0
  4  9  1  0
  5  6  1  0
  6  7  2  0
  8  7  1  0
  9  8  2  0
 10 11  2  0
 12 10  1  0
 12 13  1  0
 13 14  1  1
 14 15  1  0
 15 16  2  0
 16 17  1  0
 18 17  1  0
 19 18  2  0
 20 19  1  0
 21 22  1  0
 21 20  2  0
 22 23  2  0
 23 15  1  0
 23 18  1  0
 24 13  1  0
 24 25  2  0
 27 26  1  1
 27 29  1  0
 27 28  1  0
 28 24  1  0
 29 31  1  0
 30 29  2  0
M  END
$$$$
