FWA.pdb
     RDKit          3D

 31 33  0  0  1  0  0  0  0  0999 V2000
   25.7821  -19.9852  -18.6230 N   0  0  0  0  0  0  0  0  0  0  0  0
   25.2619  -19.3617  -17.4466 C   0  0  1  0  0  0  0  0  0  0  0  0
   23.7540  -19.2303  -17.5260 C   0  0  0  0  0  0  0  0  0  0  0  0
   23.3638  -18.1609  -18.4973 C   0  0  0  0  0  0  0  0  0  0  0  0
   23.1955  -18.4940  -19.8187 C   0  0  0  0  0  0  0  0  0  0  0  0
   22.8356  -17.5129  -20.7185 C   0  0  0  0  0  0  0  0  0  0  0  0
   22.6451  -16.2169  -20.3114 C   0  0  0  0  0  0  0  0  0  0  0  0
   22.8193  -15.9045  -18.9807 C   0  0  0  0  0  0  0  0  0  0  0  0
   23.1784  -16.8632  -18.0595 C   0  0  0  0  0  0  0  0  0  0  0  0
   25.6013  -20.1358  -16.2258 C   0  0  0  0  0  0  0  0  0  0  0  0
   25.5900  -21.3875  -16.2185 O   0  0  0  0  0  0  0  0  0  0  0  0
   25.9481  -19.4443  -15.0346 N   0  0  0  0  0  0  0  0  0  0  0  0
   26.2836  -20.0753  -13.7851 C   0  0  1  0  0  0  0  0  0  0  0  0
   27.3292  -19.2975  -13.0167 C   0  0  0  0  0  0  0  0  0  0  0  0
   27.9155  -20.0974  -11.9258 C   0  0  0  0  0  0  0  0  0  0  0  0
   28.8297  -21.1282  -11.9850 C   0  0  0  0  0  0  0  0  0  0  0  0
   29.0807  -21.5693  -10.7349 N   0  0  0  0  0  0  0  0  0  0  0  0
   28.3741  -20.8793   -9.8353 C   0  0  0  0  0  0  0  0  0  0  0  0
   28.2777  -20.9408   -8.4669 C   0  0  0  0  0  0  0  0  0  0  0  0
   27.4379  -20.0672   -7.8239 C   0  0  0  0  0  0  0  0  0  0  0  0
   26.7046  -19.1455   -8.5351 C   0  0  0  0  0  0  0  0  0  0  0  0
   26.8009  -19.0830   -9.9103 C   0  0  0  0  0  0  0  0  0  0  0  0
   27.6376  -19.9500  -10.5784 C   0  0  0  0  0  0  0  0  0  0  0  0
   25.1045  -20.2200  -12.9139 C   0  0  0  0  0  0  0  0  0  0  0  0
   24.3781  -19.2347  -12.6884 O   0  0  0  0  0  0  0  0  0  0  0  0
   24.0723  -20.7771  -10.1655 C   0  0  0  0  0  0  0  0  0  0  0  0
   23.7521  -21.6249  -11.3544 C   0  0  2  0  0  0  0  0  0  0  0  0
   24.8076  -21.4706  -12.3428 N   0  0  0  0  0  0  0  0  0  0  0  0
   22.4505  -21.2699  -11.9769 C   0  0  0  0  0  0  0  0  0  0  0  0
   21.3769  -21.4333  -11.3431 O   0  0  0  0  0  0  0  0  0  0  0  0
   22.3606  -20.7523  -13.2595 O   0  0  0  0  0  0  0  0  0  0  0  0
  2  1  1  6
  2  3  1  0
  2 10  1  0
  3  4  1  0
  4  5  2  0
  4  9  1  0
  5  6  1  0
  6  7  2  0
  8  7  1  0
  9  8  2  0
 10 11  2  0
 12 10  1  0
 12 13  1  0
 13 14  1  1
 14 15  1  0
 15 16  2  0
 16 17  1  0
 18 17  1  0
 19 18  2  0
 20 19  1  0
 21 22  1  0
 21 20  2  0
 22 23  2  0
 23 15  1  0
 23 18  1  0
 24 13  1  0
 24 25  2  0
 27 26  1  1
 27 29  1  0
 27 28  1  0
 28 24  1  0
 29 31  1  0
 30 29  2  0
M  END
$$$$
