WRF.pdb
     RDKit          3D

 37 39  0  0  1  0  0  0  0  0999 V2000
    5.9511  -18.4129   23.9606 N   0  0  0  0  0  0  0  0  0  0  0  0
    6.8326  -17.3166   24.1005 C   0  0  1  0  0  0  0  0  0  0  0  0
    7.3457  -17.0491   25.4927 C   0  0  0  0  0  0  0  0  0  0  0  0
    6.7274  -15.8261   26.0386 C   0  0  0  0  0  0  0  0  0  0  0  0
    5.6209  -15.7892   26.8839 C   0  0  0  0  0  0  0  0  0  0  0  0
    5.3428  -14.5191   27.2014 N   0  0  0  0  0  0  0  0  0  0  0  0
    6.2210  -13.7067   26.5999 C   0  0  0  0  0  0  0  0  0  0  0  0
    6.3597  -12.3241   26.6009 C   0  0  0  0  0  0  0  0  0  0  0  0
    7.3777  -11.7842   25.8616 C   0  0  0  0  0  0  0  0  0  0  0  0
    8.2568  -12.5675   25.1253 C   0  0  0  0  0  0  0  0  0  0  0  0
    8.1108  -13.9333   25.1314 C   0  0  0  0  0  0  0  0  0  0  0  0
    7.0965  -14.5114   25.8661 C   0  0  0  0  0  0  0  0  0  0  0  0
    7.9892  -17.3751   23.1580 C   0  0  0  0  0  0  0  0  0  0  0  0
    8.4481  -18.5199   22.8375 O   0  0  0  0  0  0  0  0  0  0  0  0
    8.5206  -12.6396   16.3208 N   0  0  0  0  0  0  0  0  0  0  0  0
    8.4271  -14.0480   16.3797 C   0  0  0  0  0  0  0  0  0  0  0  0
    8.3956  -14.7271   15.2718 N   0  0  0  0  0  0  0  0  0  0  0  0
    8.3696  -14.7081   17.6257 N   0  0  0  0  0  0  0  0  0  0  0  0
    8.4307  -13.9613   18.8522 C   0  0  0  0  0  0  0  0  0  0  0  0
    8.2964  -14.9080   20.0070 C   0  0  0  0  0  0  0  0  0  0  0  0
    9.5902  -15.0312   20.7598 C   0  0  0  0  0  0  0  0  0  0  0  0
    9.6014  -16.1386   21.7524 C   0  0  2  0  0  0  0  0  0  0  0  0
    8.5082  -16.1569   22.6743 N   0  0  0  0  0  0  0  0  0  0  0  0
   10.8812  -16.1162   22.5569 C   0  0  0  0  0  0  0  0  0  0  0  0
   12.0107  -15.9527   22.0473 O   0  0  0  0  0  0  0  0  0  0  0  0
    8.3679  -15.7554   15.2702 N   0  0  0  0  0  0  0  0  0  0  0  0
   10.8556  -16.2860   23.9781 C   0  0  1  0  0  0  0  0  0  0  0  0
   12.0555  -16.3701   24.7854 C   0  0  0  0  0  0  0  0  0  0  0  0
   11.7528  -16.7720   26.2064 C   0  0  0  0  0  0  0  0  0  0  0  0
   10.7452  -15.9281   26.8472 C   0  0  0  0  0  0  0  0  0  0  0  0
    9.6671  -16.3562   27.5632 C   0  0  0  0  0  0  0  0  0  0  0  0
    8.7569  -15.5082   28.1398 C   0  0  0  0  0  0  0  0  0  0  0  0
    8.9471  -14.1355   27.9834 C   0  0  0  0  0  0  0  0  0  0  0  0
   10.0132  -13.6618   27.2744 C   0  0  0  0  0  0  0  0  0  0  0  0
   10.8957  -14.5432   26.7167 C   0  0  0  0  0  0  0  0  0  0  0  0
   13.0881  -17.2260   24.1518 O   0  0  0  0  0  0  0  0  0  0  0  0
   14.2863  -16.9097   24.2770 O   0  0  0  0  0  0  0  0  0  0  0  0
  2 13  1  0
  2  1  1  1
  3  2  1  0
  4  3  1  0
  4  5  2  0
  6  5  1  0
  7 12  2  0
  7  6  1  0
  8  7  1  0
  9 10  1  0
  9  8  2  0
 10 11  2  0
 11 12  1  0
 12  4  1  0
 13 14  2  0
 16 15  1  0
 16 18  1  0
 17 16  2  0
 19 18  1  0
 19 20  1  0
 21 20  1  0
 22 21  1  6
 23 22  1  0
 23 13  1  0
 24 25  2  0
 24 22  1  0
 26 24  1  0
 27 35  1  0
 27 26  1  0
 27 28  1  6
 29 28  1  0
 30 29  2  0
 31 30  1  0
 32 31  2  0
 32 33  1  0
 33 34  2  0
 34 29  1  0
 35 37  1  0
 36 35  2  0
M  END
$$$$
