WRF.pdb
     RDKit          3D

 37 39  0  0  1  0  0  0  0  0999 V2000
    6.9215  -16.5200   21.2336 N   0  0  0  0  0  0  0  0  0  0  0  0
    8.0885  -15.8714   21.6978 C   0  0  1  0  0  0  0  0  0  0  0  0
    7.9492  -14.4068   22.0273 C   0  0  0  0  0  0  0  0  0  0  0  0
    7.7682  -13.6205   20.7924 C   0  0  0  0  0  0  0  0  0  0  0  0
    7.5655  -12.2436   20.7346 C   0  0  0  0  0  0  0  0  0  0  0  0
    7.4629  -11.8600   19.4564 N   0  0  0  0  0  0  0  0  0  0  0  0
    7.5889  -12.9283   18.6589 C   0  0  0  0  0  0  0  0  0  0  0  0
    7.5515  -13.0656   17.2767 C   0  0  0  0  0  0  0  0  0  0  0  0
    7.7079  -14.3220   16.7557 C   0  0  0  0  0  0  0  0  0  0  0  0
    7.8985  -15.4398   17.5574 C   0  0  0  0  0  0  0  0  0  0  0  0
    7.9340  -15.2927   18.9227 C   0  0  0  0  0  0  0  0  0  0  0  0
    7.7807  -14.0410   19.4819 C   0  0  0  0  0  0  0  0  0  0  0  0
    8.7241  -16.5722   22.8530 C   0  0  0  0  0  0  0  0  0  0  0  0
    7.9866  -16.8982   23.8398 O   0  0  0  0  0  0  0  0  0  0  0  0
   16.1501  -15.1182   22.7540 N   0  0  0  0  0  0  0  0  0  0  0  0
   15.6588  -15.3926   21.4581 C   0  0  0  0  0  0  0  0  0  0  0  0
   16.0102  -14.6223   20.4719 N   0  0  0  0  0  0  0  0  0  0  0  0
   14.7985  -16.4895   21.2383 N   0  0  0  0  0  0  0  0  0  0  0  0
   14.2865  -17.2502   22.3450 C   0  0  0  0  0  0  0  0  0  0  0  0
   12.8803  -16.8136   22.6280 C   0  0  0  0  0  0  0  0  0  0  0  0
   12.2497  -17.6711   23.6877 C   0  0  0  0  0  0  0  0  0  0  0  0
   10.8055  -17.3897   23.9035 C   0  0  2  0  0  0  0  0  0  0  0  0
   10.1074  -16.8346   22.7853 N   0  0  0  0  0  0  0  0  0  0  0  0
   10.6175  -16.4522   25.0745 C   0  0  0  0  0  0  0  0  0  0  0  0
   11.0761  -15.2899   25.1051 O   0  0  0  0  0  0  0  0  0  0  0  0
   15.6967  -14.8023   19.5088 N   0  0  0  0  0  0  0  0  0  0  0  0
    9.8853  -16.8655   26.2332 C   0  0  1  0  0  0  0  0  0  0  0  0
    9.9254  -16.1477   27.4908 C   0  0  0  0  0  0  0  0  0  0  0  0
    8.5644  -15.6418   27.8956 C   0  0  0  0  0  0  0  0  0  0  0  0
    8.1222  -14.4813   27.1236 C   0  0  0  0  0  0  0  0  0  0  0  0
    8.6832  -13.2390   27.1360 C   0  0  0  0  0  0  0  0  0  0  0  0
    8.2168  -12.1910   26.3849 C   0  0  0  0  0  0  0  0  0  0  0  0
    7.1098  -12.4110   25.5659 C   0  0  0  0  0  0  0  0  0  0  0  0
    6.5160  -13.6394   25.5218 C   0  0  0  0  0  0  0  0  0  0  0  0
    7.0140  -14.6557   26.2874 C   0  0  0  0  0  0  0  0  0  0  0  0
   10.5870  -16.9389   28.5569 O   0  0  0  0  0  0  0  0  0  0  0  0
   10.8934  -18.1228   28.3203 O   0  0  0  0  0  0  0  0  0  0  0  0
  2 13  1  0
  2  1  1  1
  3  2  1  0
  4  3  1  0
  4  5  2  0
  6  5  1  0
  7 12  2  0
  7  6  1  0
  8  7  1  0
  9 10  1  0
  9  8  2  0
 10 11  2  0
 11 12  1  0
 12  4  1  0
 13 14  2  0
 16 15  1  0
 16 18  1  0
 17 16  2  0
 19 18  1  0
 19 20  1  0
 21 20  1  0
 22 21  1  6
 23 22  1  0
 23 13  1  0
 24 25  2  0
 24 22  1  0
 26 24  1  0
 27 35  1  0
 27 26  1  0
 27 28  1  1
 29 28  1  0
 30 29  2  0
 31 30  1  0
 32 31  2  0
 32 33  1  0
 33 34  2  0
 34 29  1  0
 35 37  1  0
 36 35  2  0
M  END
$$$$
