WRF.pdb
     RDKit          3D

 37 39  0  0  1  0  0  0  0  0999 V2000
    6.7762  -19.6033   25.5167 N   0  0  0  0  0  0  0  0  0  0  0  0
    7.0400  -18.3515   24.9151 C   0  0  1  0  0  0  0  0  0  0  0  0
    7.8909  -17.3961   25.7127 C   0  0  0  0  0  0  0  0  0  0  0  0
    7.1110  -16.1973   26.0740 C   0  0  0  0  0  0  0  0  0  0  0  0
    5.7211  -16.1257   26.1320 C   0  0  0  0  0  0  0  0  0  0  0  0
    5.3522  -14.8970   26.5137 N   0  0  0  0  0  0  0  0  0  0  0  0
    6.4426  -14.1456   26.7122 C   0  0  0  0  0  0  0  0  0  0  0  0
    6.6002  -12.8212   27.1020 C   0  0  0  0  0  0  0  0  0  0  0  0
    7.8755  -12.3346   27.2081 C   0  0  0  0  0  0  0  0  0  0  0  0
    8.9926  -13.1151   26.9410 C   0  0  0  0  0  0  0  0  0  0  0  0
    8.8254  -14.4232   26.5565 C   0  0  0  0  0  0  0  0  0  0  0  0
    7.5546  -14.9468   26.4401 C   0  0  0  0  0  0  0  0  0  0  0  0
    7.6053  -18.4744   23.5386 C   0  0  0  0  0  0  0  0  0  0  0  0
    8.5324  -19.3263   23.3417 O   0  0  0  0  0  0  0  0  0  0  0  0
    9.4107  -16.3178   16.7059 N   0  0  0  0  0  0  0  0  0  0  0  0
    8.1097  -15.9592   16.2881 C   0  0  0  0  0  0  0  0  0  0  0  0
    7.9393  -14.8520   15.6289 N   0  0  0  0  0  0  0  0  0  0  0  0
    7.0101  -16.7934   16.5825 N   0  0  0  0  0  0  0  0  0  0  0  0
    6.9526  -17.5166   17.8232 C   0  0  0  0  0  0  0  0  0  0  0  0
    7.6292  -16.7093   18.8901 C   0  0  0  0  0  0  0  0  0  0  0  0
    6.9097  -16.8347   20.2026 C   0  0  0  0  0  0  0  0  0  0  0  0
    7.6681  -17.5972   21.2298 C   0  0  2  0  0  0  0  0  0  0  0  0
    7.0788  -17.6393   22.5323 N   0  0  0  0  0  0  0  0  0  0  0  0
    9.0670  -17.0428   21.3756 C   0  0  0  0  0  0  0  0  0  0  0  0
   10.0194  -17.3773   20.6385 O   0  0  0  0  0  0  0  0  0  0  0  0
    7.0037  -14.5309   15.3466 N   0  0  0  0  0  0  0  0  0  0  0  0
    9.3718  -16.0829   22.3931 C   0  0  1  0  0  0  0  0  0  0  0  0
   10.6410  -15.3889   22.4697 C   0  0  0  0  0  0  0  0  0  0  0  0
   10.4675  -13.8916   22.4540 C   0  0  0  0  0  0  0  0  0  0  0  0
    9.7940  -13.3968   21.2541 C   0  0  0  0  0  0  0  0  0  0  0  0
   10.3891  -13.0396   20.0808 C   0  0  0  0  0  0  0  0  0  0  0  0
    9.6960  -12.5813   18.9901 C   0  0  0  0  0  0  0  0  0  0  0  0
    8.3090  -12.4764   19.0897 C   0  0  0  0  0  0  0  0  0  0  0  0
    7.6709  -12.8231   20.2455 C   0  0  0  0  0  0  0  0  0  0  0  0
    8.4013  -13.2751   21.3081 C   0  0  0  0  0  0  0  0  0  0  0  0
   11.4607  -15.8623   23.6118 O   0  0  0  0  0  0  0  0  0  0  0  0
   12.6167  -15.4175   23.7433 O   0  0  0  0  0  0  0  0  0  0  0  0
  2 13  1  0
  2  1  1  1
  3  2  1  0
  4  3  1  0
  4  5  2  0
  6  5  1  0
  7 12  2  0
  7  6  1  0
  8  7  1  0
  9 10  1  0
  9  8  2  0
 10 11  2  0
 11 12  1  0
 12  4  1  0
 13 14  2  0
 16 15  1  0
 16 18  1  0
 17 16  2  0
 19 18  1  0
 19 20  1  0
 21 20  1  0
 22 21  1  6
 23 22  1  0
 23 13  1  0
 24 25  2  0
 24 22  1  0
 26 24  1  0
 27 35  1  0
 27 26  1  0
 27 28  1  6
 29 28  1  0
 30 29  2  0
 31 30  1  0
 32 31  2  0
 32 33  1  0
 33 34  2  0
 34 29  1  0
 35 37  1  0
 36 35  2  0
M  END
$$$$
