WRF.pdb
     RDKit          3D

 37 39  0  0  1  0  0  0  0  0999 V2000
    5.8983  -17.8125   24.5973 N   0  0  0  0  0  0  0  0  0  0  0  0
    7.1035  -17.1049   24.3845 C   0  0  1  0  0  0  0  0  0  0  0  0
    7.6406  -16.3357   25.5647 C   0  0  0  0  0  0  0  0  0  0  0  0
    6.7303  -15.2271   25.9088 C   0  0  0  0  0  0  0  0  0  0  0  0
    5.7141  -15.2826   26.8599 C   0  0  0  0  0  0  0  0  0  0  0  0
    5.1013  -14.0947   26.9294 N   0  0  0  0  0  0  0  0  0  0  0  0
    5.6693  -13.2486   26.0608 C   0  0  0  0  0  0  0  0  0  0  0  0
    5.4029  -11.9215   25.7468 C   0  0  0  0  0  0  0  0  0  0  0  0
    6.1745  -11.3258   24.7855 C   0  0  0  0  0  0  0  0  0  0  0  0
    7.1956  -12.0008   24.1294 C   0  0  0  0  0  0  0  0  0  0  0  0
    7.4505  -13.3125   24.4476 C   0  0  0  0  0  0  0  0  0  0  0  0
    6.6931  -13.9440   25.4121 C   0  0  0  0  0  0  0  0  0  0  0  0
    8.1912  -17.9618   23.8258 C   0  0  0  0  0  0  0  0  0  0  0  0
    7.9767  -19.2132   23.7169 O   0  0  0  0  0  0  0  0  0  0  0  0
    9.6939  -13.8312   17.8184 N   0  0  0  0  0  0  0  0  0  0  0  0
    8.8050  -13.2960   18.7771 C   0  0  0  0  0  0  0  0  0  0  0  0
    8.7464  -12.0072   18.9359 N   0  0  0  0  0  0  0  0  0  0  0  0
    7.9910  -14.1503   19.5511 N   0  0  0  0  0  0  0  0  0  0  0  0
    8.2614  -15.5605   19.6119 C   0  0  0  0  0  0  0  0  0  0  0  0
    9.0474  -15.8533   20.8547 C   0  0  0  0  0  0  0  0  0  0  0  0
    9.3375  -17.3218   20.9789 C   0  0  0  0  0  0  0  0  0  0  0  0
   10.0561  -17.6857   22.2290 C   0  0  2  0  0  0  0  0  0  0  0  0
    9.3964  -17.3353   23.4486 N   0  0  0  0  0  0  0  0  0  0  0  0
   11.4306  -17.0565   22.2523 C   0  0  0  0  0  0  0  0  0  0  0  0
   11.8205  -16.2252   21.4044 O   0  0  0  0  0  0  0  0  0  0  0  0
    8.1678  -11.5802   19.6715 N   0  0  0  0  0  0  0  0  0  0  0  0
   12.3732  -17.3943   23.2754 C   0  0  1  0  0  0  0  0  0  0  0  0
   12.2937  -16.8751   24.6255 C   0  0  0  0  0  0  0  0  0  0  0  0
   10.8946  -16.4425   24.9824 C   0  0  0  0  0  0  0  0  0  0  0  0
   10.7923  -15.8456   26.3135 C   0  0  0  0  0  0  0  0  0  0  0  0
   10.7566  -14.5141   26.6031 C   0  0  0  0  0  0  0  0  0  0  0  0
   10.6598  -14.0198   27.8784 C   0  0  0  0  0  0  0  0  0  0  0  0
   10.5944  -14.9303   28.9327 C   0  0  0  0  0  0  0  0  0  0  0  0
   10.6268  -16.2731   28.6892 C   0  0  0  0  0  0  0  0  0  0  0  0
   10.7240  -16.7217   27.4022 C   0  0  0  0  0  0  0  0  0  0  0  0
   12.8761  -17.8157   25.6136 O   0  0  0  0  0  0  0  0  0  0  0  0
   12.5214  -19.0094   25.5842 O   0  0  0  0  0  0  0  0  0  0  0  0
  2 13  1  0
  2  1  1  1
  3  2  1  0
  4  3  1  0
  4  5  2  0
  6  5  1  0
  7 12  2  0
  7  6  1  0
  8  7  1  0
  9 10  1  0
  9  8  2  0
 10 11  2  0
 11 12  1  0
 12  4  1  0
 13 14  2  0
 16 15  1  0
 16 18  1  0
 17 16  2  0
 19 18  1  0
 19 20  1  0
 21 20  1  0
 22 21  1  6
 23 22  1  0
 23 13  1  0
 24 25  2  0
 24 22  1  0
 26 24  1  0
 27 35  1  0
 27 26  1  0
 27 28  1  1
 29 28  1  0
 30 29  2  0
 31 30  1  0
 32 31  2  0
 32 33  1  0
 33 34  2  0
 34 29  1  0
 35 37  1  0
 36 35  2  0
M  END
$$$$
