WRF.pdb
     RDKit          3D

 37 39  0  0  1  0  0  0  0  0999 V2000
    5.8565  -18.4020   24.5678 N   0  0  0  0  0  0  0  0  0  0  0  0
    6.9025  -17.4934   24.2876 C   0  0  1  0  0  0  0  0  0  0  0  0
    7.4782  -16.7564   25.4702 C   0  0  0  0  0  0  0  0  0  0  0  0
    6.8127  -15.4498   25.6310 C   0  0  0  0  0  0  0  0  0  0  0  0
    5.7905  -15.1703   26.5350 C   0  0  0  0  0  0  0  0  0  0  0  0
    5.4373  -13.8839   26.4270 N   0  0  0  0  0  0  0  0  0  0  0  0
    6.1842  -13.2941   25.4850 C   0  0  0  0  0  0  0  0  0  0  0  0
    6.2055  -11.9941   24.9949 C   0  0  0  0  0  0  0  0  0  0  0  0
    7.1011  -11.7010   24.0017 C   0  0  0  0  0  0  0  0  0  0  0  0
    7.9707  -12.6509   23.4821 C   0  0  0  0  0  0  0  0  0  0  0  0
    7.9413  -13.9331   23.9740 C   0  0  0  0  0  0  0  0  0  0  0  0
    7.0521  -14.2634   24.9755 C   0  0  0  0  0  0  0  0  0  0  0  0
    8.0170  -18.1104   23.5087 C   0  0  0  0  0  0  0  0  0  0  0  0
    8.4588  -19.2451   23.8844 O   0  0  0  0  0  0  0  0  0  0  0  0
    7.1353  -14.5379   18.2042 N   0  0  0  0  0  0  0  0  0  0  0  0
    8.3682  -13.8575   18.3176 C   0  0  0  0  0  0  0  0  0  0  0  0
    8.3674  -12.5907   18.6086 N   0  0  0  0  0  0  0  0  0  0  0  0
    9.5841  -14.5454   18.1181 N   0  0  0  0  0  0  0  0  0  0  0  0
    9.6988  -15.9389   18.4509 C   0  0  0  0  0  0  0  0  0  0  0  0
    9.6232  -16.0925   19.9404 C   0  0  0  0  0  0  0  0  0  0  0  0
    9.8998  -17.5098   20.3536 C   0  0  0  0  0  0  0  0  0  0  0  0
    9.7800  -17.7400   21.8179 C   0  0  2  0  0  0  0  0  0  0  0  0
    8.5177  -17.4007   22.3983 N   0  0  0  0  0  0  0  0  0  0  0  0
   10.8496  -16.9750   22.5638 C   0  0  0  0  0  0  0  0  0  0  0  0
   11.2240  -15.8266   22.2424 O   0  0  0  0  0  0  0  0  0  0  0  0
    9.2398  -12.0818   18.8043 N   0  0  0  0  0  0  0  0  0  0  0  0
   11.4996  -17.5479   23.7034 C   0  0  1  0  0  0  0  0  0  0  0  0
   11.6543  -16.8454   24.9608 C   0  0  0  0  0  0  0  0  0  0  0  0
   10.3767  -16.1715   25.3918 C   0  0  0  0  0  0  0  0  0  0  0  0
   10.5412  -15.3049   26.5581 C   0  0  0  0  0  0  0  0  0  0  0  0
   10.6879  -13.9497   26.5455 C   0  0  0  0  0  0  0  0  0  0  0  0
   10.8388  -13.1947   27.6800 C   0  0  0  0  0  0  0  0  0  0  0  0
   10.8417  -13.8511   28.9104 C   0  0  0  0  0  0  0  0  0  0  0  0
   10.6976  -15.2072   28.9706 C   0  0  0  0  0  0  0  0  0  0  0  0
   10.5502  -15.9204   27.8145 C   0  0  0  0  0  0  0  0  0  0  0  0
   12.2293  -17.7181   26.0134 O   0  0  0  0  0  0  0  0  0  0  0  0
   11.6522  -18.7882   26.2843 O   0  0  0  0  0  0  0  0  0  0  0  0
  2 13  1  0
  2  1  1  1
  3  2  1  0
  4  3  1  0
  4  5  2  0
  6  5  1  0
  7 12  2  0
  7  6  1  0
  8  7  1  0
  9 10  1  0
  9  8  2  0
 10 11  2  0
 11 12  1  0
 12  4  1  0
 13 14  2  0
 16 15  1  0
 16 18  1  0
 17 16  2  0
 19 18  1  0
 19 20  1  0
 21 20  1  0
 22 21  1  6
 23 22  1  0
 23 13  1  0
 24 25  2  0
 24 22  1  0
 26 24  1  0
 27 35  1  0
 27 26  1  0
 27 28  1  1
 29 28  1  0
 30 29  2  0
 31 30  1  0
 32 31  2  0
 32 33  1  0
 33 34  2  0
 34 29  1  0
 35 37  1  0
 36 35  2  0
M  END
$$$$
