WRF.pdb
     RDKit          3D

 37 39  0  0  1  0  0  0  0  0999 V2000
    6.1036  -18.0808   24.6028 N   0  0  0  0  0  0  0  0  0  0  0  0
    7.1585  -17.1544   24.4381 C   0  0  1  0  0  0  0  0  0  0  0  0
    7.7807  -16.6226   25.7042 C   0  0  0  0  0  0  0  0  0  0  0  0
    7.0476  -15.4310   26.1720 C   0  0  0  0  0  0  0  0  0  0  0  0
    5.8582  -15.4479   26.8968 C   0  0  0  0  0  0  0  0  0  0  0  0
    5.4846  -14.1926   27.1724 N   0  0  0  0  0  0  0  0  0  0  0  0
    6.3788  -13.3384   26.6589 C   0  0  0  0  0  0  0  0  0  0  0  0
    6.4467  -11.9505   26.6624 C   0  0  0  0  0  0  0  0  0  0  0  0
    7.5078  -11.3618   26.0287 C   0  0  0  0  0  0  0  0  0  0  0  0
    8.4977  -12.1015   25.3951 C   0  0  0  0  0  0  0  0  0  0  0  0
    8.4210  -13.4730   25.3977 C   0  0  0  0  0  0  0  0  0  0  0  0
    7.3658  -14.0997   26.0275 C   0  0  0  0  0  0  0  0  0  0  0  0
    8.2391  -17.6561   23.5380 C   0  0  0  0  0  0  0  0  0  0  0  0
    8.4956  -18.9044   23.5421 O   0  0  0  0  0  0  0  0  0  0  0  0
    6.9829  -14.0668   17.7927 N   0  0  0  0  0  0  0  0  0  0  0  0
    8.3506  -13.8437   17.5180 C   0  0  0  0  0  0  0  0  0  0  0  0
    8.7038  -12.7510   16.9089 N   0  0  0  0  0  0  0  0  0  0  0  0
    9.3201  -14.7949   17.9012 N   0  0  0  0  0  0  0  0  0  0  0  0
    8.9261  -16.0355   18.5106 C   0  0  0  0  0  0  0  0  0  0  0  0
    9.1190  -15.9332   19.9939 C   0  0  0  0  0  0  0  0  0  0  0  0
    9.9407  -17.0780   20.5136 C   0  0  0  0  0  0  0  0  0  0  0  0
   10.0825  -17.0888   21.9940 C   0  0  2  0  0  0  0  0  0  0  0  0
    8.9150  -16.7176   22.7320 N   0  0  0  0  0  0  0  0  0  0  0  0
   11.2084  -16.1765   22.4250 C   0  0  0  0  0  0  0  0  0  0  0  0
   11.2605  -14.9628   22.1314 O   0  0  0  0  0  0  0  0  0  0  0  0
    9.6873  -12.5553   16.6794 N   0  0  0  0  0  0  0  0  0  0  0  0
   12.2957  -16.6764   23.2108 C   0  0  1  0  0  0  0  0  0  0  0  0
   12.3575  -16.5396   24.6516 C   0  0  0  0  0  0  0  0  0  0  0  0
   11.0879  -17.0050   25.3178 C   0  0  0  0  0  0  0  0  0  0  0  0
   10.5342  -16.0317   26.2582 C   0  0  0  0  0  0  0  0  0  0  0  0
   10.0755  -14.7841   25.9558 C   0  0  0  0  0  0  0  0  0  0  0  0
    9.5671  -13.9182   26.8896 C   0  0  0  0  0  0  0  0  0  0  0  0
    9.5181  -14.3395   28.2181 C   0  0  0  0  0  0  0  0  0  0  0  0
    9.9664  -15.5808   28.5666 C   0  0  0  0  0  0  0  0  0  0  0  0
   10.4654  -16.4112   27.6031 C   0  0  0  0  0  0  0  0  0  0  0  0
   13.5718  -17.1785   25.2150 O   0  0  0  0  0  0  0  0  0  0  0  0
   13.9541  -18.2629   24.7359 O   0  0  0  0  0  0  0  0  0  0  0  0
  2 13  1  0
  2  1  1  1
  3  2  1  0
  4  3  1  0
  4  5  2  0
  6  5  1  0
  7 12  2  0
  7  6  1  0
  8  7  1  0
  9 10  1  0
  9  8  2  0
 10 11  2  0
 11 12  1  0
 12  4  1  0
 13 14  2  0
 16 15  1  0
 16 18  1  0
 17 16  2  0
 19 18  1  0
 19 20  1  0
 21 20  1  0
 22 21  1  6
 23 22  1  0
 23 13  1  0
 24 25  2  0
 24 22  1  0
 26 24  1  0
 27 35  1  0
 27 26  1  0
 27 28  1  1
 29 28  1  0
 30 29  2  0
 31 30  1  0
 32 31  2  0
 32 33  1  0
 33 34  2  0
 34 29  1  0
 35 37  1  0
 36 35  2  0
M  END
$$$$
