WRF.pdb
     RDKit          3D

 37 39  0  0  1  0  0  0  0  0999 V2000
    7.0054  -18.3190   21.6068 N   0  0  0  0  0  0  0  0  0  0  0  0
    7.9222  -17.3469   22.0681 C   0  0  1  0  0  0  0  0  0  0  0  0
    7.3246  -16.0745   22.6130 C   0  0  0  0  0  0  0  0  0  0  0  0
    6.9274  -15.1824   21.5073 C   0  0  0  0  0  0  0  0  0  0  0  0
    5.7273  -15.2537   20.8039 C   0  0  0  0  0  0  0  0  0  0  0  0
    5.6888  -14.2809   19.8854 N   0  0  0  0  0  0  0  0  0  0  0  0
    6.8176  -13.5633   19.9485 C   0  0  0  0  0  0  0  0  0  0  0  0
    7.2648  -12.4685   19.2190 C   0  0  0  0  0  0  0  0  0  0  0  0
    8.4968  -11.9567   19.5267 C   0  0  0  0  0  0  0  0  0  0  0  0
    9.2946  -12.4933   20.5287 C   0  0  0  0  0  0  0  0  0  0  0  0
    8.8427  -13.5756   21.2438 C   0  0  0  0  0  0  0  0  0  0  0  0
    7.6057  -14.1165   20.9611 C   0  0  0  0  0  0  0  0  0  0  0  0
    8.8977  -17.8902   23.0594 C   0  0  0  0  0  0  0  0  0  0  0  0
    8.5059  -18.8118   23.8476 O   0  0  0  0  0  0  0  0  0  0  0  0
   13.5077  -17.2117   19.1183 N   0  0  0  0  0  0  0  0  0  0  0  0
   13.6709  -18.6125   19.0344 C   0  0  0  0  0  0  0  0  0  0  0  0
   13.6711  -19.1807   17.8654 N   0  0  0  0  0  0  0  0  0  0  0  0
   13.8327  -19.3837   20.2052 N   0  0  0  0  0  0  0  0  0  0  0  0
   13.8981  -18.7512   21.4940 C   0  0  0  0  0  0  0  0  0  0  0  0
   12.5108  -18.6314   22.0497 C   0  0  0  0  0  0  0  0  0  0  0  0
   12.5320  -18.0755   23.4449 C   0  0  0  0  0  0  0  0  0  0  0  0
   11.1796  -17.8089   24.0030 C   0  0  2  0  0  0  0  0  0  0  0  0
   10.2005  -17.3518   23.0660 N   0  0  0  0  0  0  0  0  0  0  0  0
   11.2580  -16.7922   25.1191 C   0  0  0  0  0  0  0  0  0  0  0  0
   11.3033  -15.5586   24.9233 O   0  0  0  0  0  0  0  0  0  0  0  0
   13.8499  -20.1877   17.7552 N   0  0  0  0  0  0  0  0  0  0  0  0
   11.2847  -17.2088   26.4885 C   0  0  2  0  0  0  0  0  0  0  0  0
   10.4475  -16.6157   27.5112 C   0  0  0  0  0  0  0  0  0  0  0  0
    9.0187  -16.4666   27.0546 C   0  0  0  0  0  0  0  0  0  0  0  0
    8.6158  -15.0759   26.8496 C   0  0  0  0  0  0  0  0  0  0  0  0
    9.3406  -13.9672   27.1715 C   0  0  0  0  0  0  0  0  0  0  0  0
    8.9021  -12.6868   26.9519 C   0  0  0  0  0  0  0  0  0  0  0  0
    7.6477  -12.5131   26.3680 C   0  0  0  0  0  0  0  0  0  0  0  0
    6.8873  -13.5950   26.0291 C   0  0  0  0  0  0  0  0  0  0  0  0
    7.3638  -14.8535   26.2662 C   0  0  0  0  0  0  0  0  0  0  0  0
   10.5675  -17.3302   28.8055 O   0  0  0  0  0  0  0  0  0  0  0  0
   10.5582  -18.5758   28.8042 O   0  0  0  0  0  0  0  0  0  0  0  0
  2 13  1  0
  2  1  1  1
  3  2  1  0
  4  3  1  0
  4  5  2  0
  6  5  1  0
  7 12  2  0
  7  6  1  0
  8  7  1  0
  9 10  1  0
  9  8  2  0
 10 11  2  0
 11 12  1  0
 12  4  1  0
 13 14  2  0
 16 15  1  0
 16 18  1  0
 17 16  2  0
 19 18  1  0
 19 20  1  0
 21 20  1  0
 22 21  1  6
 23 22  1  0
 23 13  1  0
 24 25  2  0
 24 22  1  0
 26 24  1  0
 27 35  1  0
 27 26  1  0
 27 28  1  6
 29 28  1  0
 30 29  2  0
 31 30  1  0
 32 31  2  0
 32 33  1  0
 33 34  2  0
 34 29  1  0
 35 37  1  0
 36 35  2  0
M  END
$$$$
