KIN.pdb
     RDKit          3D

 26 25  0  0  1  0  0  0  0  0999 V2000
    7.8140  -13.1918   19.8807 N   0  0  0  0  0  0  0  0  0  0  0  0
    7.1574  -14.0038   20.8276 C   0  0  1  0  0  0  0  0  0  0  0  0
    6.9470  -15.4286   20.4040 C   0  0  0  0  0  0  0  0  0  0  0  0
    7.2308  -15.7530   18.9917 C   0  0  0  0  0  0  0  0  0  0  0  0
    6.9583  -17.1494   18.5505 C   0  0  0  0  0  0  0  0  0  0  0  0
    7.2055  -17.4365   17.1121 C   0  0  0  0  0  0  0  0  0  0  0  0
    6.8743  -18.7505   16.6758 N   0  0  0  0  0  0  0  0  0  0  0  0
    7.8580  -14.0508   22.1628 C   0  0  0  0  0  0  0  0  0  0  0  0
    9.1191  -13.9610   22.1042 O   0  0  0  0  0  0  0  0  0  0  0  0
    5.7445  -11.3339   26.2877 C   0  0  0  0  0  0  0  0  0  0  0  0
    6.7239  -11.9403   25.2971 C   0  0  0  0  0  0  0  0  0  0  0  0
    7.1239  -13.3337   25.6871 C   0  0  2  0  0  0  0  0  0  0  0  0
    7.8071  -13.3001   27.0126 C   0  0  0  0  0  0  0  0  0  0  0  0
    7.9136  -14.0501   24.6264 C   0  0  2  0  0  0  0  0  0  0  0  0
    7.1711  -14.1855   23.3933 N   0  0  0  0  0  0  0  0  0  0  0  0
    8.2919  -15.4401   25.0279 C   0  0  0  0  0  0  0  0  0  0  0  0
    7.4340  -16.3529   25.2341 O   0  0  0  0  0  0  0  0  0  0  0  0
   10.9900  -18.4204   22.7913 N   0  0  0  0  0  0  0  0  0  0  0  0
   11.4860  -17.4217   23.6733 C   0  0  0  0  0  0  0  0  0  0  0  0
   12.0105  -16.4228   23.1317 O   0  0  0  0  0  0  0  0  0  0  0  0
   11.4012  -17.5293   25.1375 C   0  0  0  0  0  0  0  0  0  0  0  0
   10.0360  -17.1777   25.6084 C   0  0  2  0  0  0  0  0  0  0  0  0
    9.6326  -15.8420   25.2079 N   0  0  0  0  0  0  0  0  0  0  0  0
   10.0495  -17.1390   27.1046 C   0  0  0  0  0  0  0  0  0  0  0  0
   10.1738  -18.3592   27.7838 O   0  0  0  0  0  0  0  0  0  0  0  0
    9.9593  -16.1139   27.8022 O   0  0  0  0  0  0  0  0  0  0  0  0
  2  1  1  6
  3  2  1  0
  4  5  1  0
  4  3  1  0
  5  6  1  0
  6  7  1  0
  8  9  2  0
  8  2  1  0
 11 10  1  0
 11 12  1  0
 12 14  1  0
 12 13  1  1
 14 15  1  6
 15  8  1  0
 16 14  1  0
 16 17  2  0
 19 21  1  0
 19 18  1  0
 20 19  2  0
 22 23  1  0
 22 21  1  6
 23 16  1  0
 24 22  1  0
 25 24  1  0
 26 24  2  0
M  END
$$$$
