KIN.pdb
     RDKit          3D

 26 25  0  0  1  0  0  0  0  0999 V2000
    6.3662  -15.6013   21.7257 N   0  0  0  0  0  0  0  0  0  0  0  0
    7.6645  -15.0533   21.7605 C   0  0  1  0  0  0  0  0  0  0  0  0
    7.9229  -13.9704   20.7533 C   0  0  0  0  0  0  0  0  0  0  0  0
    7.6572  -14.2988   19.3384 C   0  0  0  0  0  0  0  0  0  0  0  0
    7.9312  -13.2337   18.3338 C   0  0  0  0  0  0  0  0  0  0  0  0
    7.5482  -13.5488   16.9315 C   0  0  0  0  0  0  0  0  0  0  0  0
    7.8875  -12.5654   15.9597 N   0  0  0  0  0  0  0  0  0  0  0  0
    8.0379  -14.4860   23.1075 C   0  0  0  0  0  0  0  0  0  0  0  0
    8.0116  -13.2225   23.1774 O   0  0  0  0  0  0  0  0  0  0  0  0
    5.8977  -11.9210   25.6141 C   0  0  0  0  0  0  0  0  0  0  0  0
    7.1269  -12.6682   25.1255 C   0  0  0  0  0  0  0  0  0  0  0  0
    7.4117  -13.8833   25.9599 C   0  0  2  0  0  0  0  0  0  0  0  0
    7.4770  -13.4925   27.3978 C   0  0  0  0  0  0  0  0  0  0  0  0
    8.6135  -14.6603   25.4973 C   0  0  2  0  0  0  0  0  0  0  0  0
    8.3929  -15.2921   24.2158 N   0  0  0  0  0  0  0  0  0  0  0  0
    8.9844  -15.7637   26.4361 C   0  0  0  0  0  0  0  0  0  0  0  0
    9.3699  -15.5517   27.6269 O   0  0  0  0  0  0  0  0  0  0  0  0
    6.4312  -19.3182   25.2713 N   0  0  0  0  0  0  0  0  0  0  0  0
    7.1345  -19.2339   26.5040 C   0  0  0  0  0  0  0  0  0  0  0  0
    6.4493  -18.9331   27.5071 O   0  0  0  0  0  0  0  0  0  0  0  0
    8.5794  -19.4804   26.6228 C   0  0  0  0  0  0  0  0  0  0  0  0
    9.2986  -18.2209   26.9477 C   0  0  2  0  0  0  0  0  0  0  0  0
    8.9336  -17.1252   26.0682 N   0  0  0  0  0  0  0  0  0  0  0  0
   10.7594  -18.4361   26.7022 C   0  0  0  0  0  0  0  0  0  0  0  0
   11.4024  -19.4332   27.4490 O   0  0  0  0  0  0  0  0  0  0  0  0
   11.4567  -17.8043   25.8897 O   0  0  0  0  0  0  0  0  0  0  0  0
  2  1  1  1
  3  2  1  0
  4  5  1  0
  4  3  1  0
  5  6  1  0
  6  7  1  0
  8  9  2  0
  8  2  1  0
 11 10  1  0
 11 12  1  0
 12 14  1  0
 12 13  1  1
 14 15  1  6
 15  8  1  0
 16 14  1  0
 16 17  2  0
 19 21  1  0
 19 18  1  0
 20 19  2  0
 22 23  1  0
 22 21  1  6
 23 16  1  0
 24 22  1  0
 25 24  1  0
 26 24  2  0
M  END
$$$$
