KIN.pdb
     RDKit          3D

 26 25  0  0  1  0  0  0  0  0999 V2000
    7.4806  -14.3983   20.1874 N   0  0  0  0  0  0  0  0  0  0  0  0
    7.0588  -15.0860   21.3433 C   0  0  1  0  0  0  0  0  0  0  0  0
    7.1763  -16.5809   21.2702 C   0  0  0  0  0  0  0  0  0  0  0  0
    6.5529  -17.2424   20.1065 C   0  0  0  0  0  0  0  0  0  0  0  0
    6.6034  -18.7306   20.0672 C   0  0  0  0  0  0  0  0  0  0  0  0
    5.9362  -19.3730   18.9033 C   0  0  0  0  0  0  0  0  0  0  0  0
    5.9248  -20.7966   18.9026 N   0  0  0  0  0  0  0  0  0  0  0  0
    7.7875  -14.6577   22.5928 C   0  0  0  0  0  0  0  0  0  0  0  0
    9.0332  -14.4860   22.4486 O   0  0  0  0  0  0  0  0  0  0  0  0
    5.6980  -11.3581   26.4140 C   0  0  0  0  0  0  0  0  0  0  0  0
    6.6187  -12.0608   25.4308 C   0  0  0  0  0  0  0  0  0  0  0  0
    7.1900  -13.3250   26.0044 C   0  0  2  0  0  0  0  0  0  0  0  0
    7.9883  -13.0001   27.2217 C   0  0  0  0  0  0  0  0  0  0  0  0
    7.9434  -14.1527   24.9998 C   0  0  2  0  0  0  0  0  0  0  0  0
    7.1414  -14.4604   23.8369 N   0  0  0  0  0  0  0  0  0  0  0  0
    8.3828  -15.4716   25.5511 C   0  0  0  0  0  0  0  0  0  0  0  0
    7.5640  -16.3634   25.9331 O   0  0  0  0  0  0  0  0  0  0  0  0
   12.5062  -16.5156   23.5455 N   0  0  0  0  0  0  0  0  0  0  0  0
   11.6218  -17.3816   24.2450 C   0  0  0  0  0  0  0  0  0  0  0  0
   10.8773  -18.0949   23.5358 O   0  0  0  0  0  0  0  0  0  0  0  0
   11.5639  -17.4555   25.7126 C   0  0  0  0  0  0  0  0  0  0  0  0
   10.2051  -17.1015   26.1997 C   0  0  2  0  0  0  0  0  0  0  0  0
    9.7423  -15.8243   25.6881 N   0  0  0  0  0  0  0  0  0  0  0  0
   10.2703  -16.9165   27.6836 C   0  0  0  0  0  0  0  0  0  0  0  0
   10.5458  -18.0464   28.4665 O   0  0  0  0  0  0  0  0  0  0  0  0
   10.1003  -15.8426   28.2865 O   0  0  0  0  0  0  0  0  0  0  0  0
  2  1  1  6
  3  2  1  0
  4  5  1  0
  4  3  1  0
  5  6  1  0
  6  7  1  0
  8  9  2  0
  8  2  1  0
 11 10  1  0
 11 12  1  0
 12 14  1  0
 12 13  1  1
 14 15  1  6
 15  8  1  0
 16 14  1  0
 16 17  2  0
 19 21  1  0
 19 18  1  0
 20 19  2  0
 22 23  1  0
 22 21  1  6
 23 16  1  0
 24 22  1  0
 25 24  1  0
 26 24  2  0
M  END
$$$$
