KIN.pdb
     RDKit          3D

 26 25  0  0  1  0  0  0  0  0999 V2000
    7.9033  -13.4084   19.8876 N   0  0  0  0  0  0  0  0  0  0  0  0
    7.6183  -14.5400   20.6785 C   0  0  1  0  0  0  0  0  0  0  0  0
    8.1194  -15.8427   20.1255 C   0  0  0  0  0  0  0  0  0  0  0  0
    7.5575  -16.2776   18.8311 C   0  0  0  0  0  0  0  0  0  0  0  0
    7.9351  -17.6366   18.3522 C   0  0  0  0  0  0  0  0  0  0  0  0
    7.2699  -18.0935   17.1027 C   0  0  0  0  0  0  0  0  0  0  0  0
    7.5117  -19.4459   16.7299 N   0  0  0  0  0  0  0  0  0  0  0  0
    8.1527  -14.4358   22.0854 C   0  0  0  0  0  0  0  0  0  0  0  0
    9.4067  -14.2851   22.1673 O   0  0  0  0  0  0  0  0  0  0  0  0
    5.5397  -11.6081   25.8985 C   0  0  0  0  0  0  0  0  0  0  0  0
    6.5734  -12.2438   24.9844 C   0  0  0  0  0  0  0  0  0  0  0  0
    7.0087  -13.5911   25.4834 C   0  0  2  0  0  0  0  0  0  0  0  0
    7.5674  -13.4528   26.8595 C   0  0  0  0  0  0  0  0  0  0  0  0
    7.9267  -14.3136   24.5362 C   0  0  2  0  0  0  0  0  0  0  0  0
    7.3275  -14.5007   23.2339 N   0  0  0  0  0  0  0  0  0  0  0  0
    8.2913  -15.6822   25.0164 C   0  0  0  0  0  0  0  0  0  0  0  0
    7.4340  -16.6046   25.1773 O   0  0  0  0  0  0  0  0  0  0  0  0
   12.8216  -16.6952   23.5899 N   0  0  0  0  0  0  0  0  0  0  0  0
   11.6912  -17.4316   24.0386 C   0  0  0  0  0  0  0  0  0  0  0  0
   10.9204  -17.8512   23.1464 O   0  0  0  0  0  0  0  0  0  0  0  0
   11.4192  -17.6995   25.4587 C   0  0  0  0  0  0  0  0  0  0  0  0
   10.0085  -17.3702   25.7910 C   0  0  2  0  0  0  0  0  0  0  0  0
    9.6174  -16.0515   25.3270 N   0  0  0  0  0  0  0  0  0  0  0  0
    9.8788  -17.3039   27.2807 C   0  0  0  0  0  0  0  0  0  0  0  0
   10.0929  -18.4858   28.0036 O   0  0  0  0  0  0  0  0  0  0  0  0
    9.5959  -16.2867   27.9372 O   0  0  0  0  0  0  0  0  0  0  0  0
  2  1  1  6
  3  2  1  0
  4  5  1  0
  4  3  1  0
  5  6  1  0
  6  7  1  0
  8  9  2  0
  8  2  1  0
 11 10  1  0
 11 12  1  0
 12 14  1  0
 12 13  1  1
 14 15  1  6
 15  8  1  0
 16 14  1  0
 16 17  2  0
 19 21  1  0
 19 18  1  0
 20 19  2  0
 22 23  1  0
 22 21  1  1
 23 16  1  0
 24 22  1  0
 25 24  1  0
 26 24  2  0
M  END
$$$$
