KIN.pdb
     RDKit          3D

 26 25  0  0  1  0  0  0  0  0999 V2000
    8.1512  -15.0377   20.2572 N   0  0  0  0  0  0  0  0  0  0  0  0
    7.4657  -15.5253   21.3882 C   0  0  1  0  0  0  0  0  0  0  0  0
    7.2886  -17.0156   21.4288 C   0  0  0  0  0  0  0  0  0  0  0  0
    6.6362  -17.6414   20.2613 C   0  0  0  0  0  0  0  0  0  0  0  0
    5.2484  -18.1475   20.4526 C   0  0  0  0  0  0  0  0  0  0  0  0
    4.6375  -18.8285   19.2797 C   0  0  0  0  0  0  0  0  0  0  0  0
    4.5836  -20.2495   19.3460 N   0  0  0  0  0  0  0  0  0  0  0  0
    8.1118  -15.1331   22.6938 C   0  0  0  0  0  0  0  0  0  0  0  0
    9.3766  -15.1813   22.6959 O   0  0  0  0  0  0  0  0  0  0  0  0
    5.8351  -11.4862   26.1766 C   0  0  0  0  0  0  0  0  0  0  0  0
    6.8435  -12.2331   25.3202 C   0  0  0  0  0  0  0  0  0  0  0  0
    7.2717  -13.5234   25.9569 C   0  0  2  0  0  0  0  0  0  0  0  0
    7.9422  -13.2353   27.2577 C   0  0  0  0  0  0  0  0  0  0  0  0
    8.0870  -14.4000   25.0463 C   0  0  2  0  0  0  0  0  0  0  0  0
    7.3734  -14.7404   23.8360 N   0  0  0  0  0  0  0  0  0  0  0  0
    8.4586  -15.7029   25.6793 C   0  0  0  0  0  0  0  0  0  0  0  0
    7.6225  -16.6405   25.8629 O   0  0  0  0  0  0  0  0  0  0  0  0
   13.3110  -19.1911   25.9083 N   0  0  0  0  0  0  0  0  0  0  0  0
   11.9665  -18.9457   25.5166 C   0  0  0  0  0  0  0  0  0  0  0  0
   11.2492  -19.9581   25.3531 O   0  0  0  0  0  0  0  0  0  0  0  0
   11.4242  -17.5946   25.3091 C   0  0  0  0  0  0  0  0  0  0  0  0
   10.3086  -17.3291   26.2547 C   0  0  2  0  0  0  0  0  0  0  0  0
    9.7683  -15.9885   26.1205 N   0  0  0  0  0  0  0  0  0  0  0  0
   10.8502  -17.3838   27.6490 C   0  0  0  0  0  0  0  0  0  0  0  0
   10.8125  -16.2044   28.4060 O   0  0  0  0  0  0  0  0  0  0  0  0
   11.3338  -18.3890   28.1980 O   0  0  0  0  0  0  0  0  0  0  0  0
  2  1  1  6
  3  2  1  0
  4  5  1  0
  4  3  1  0
  5  6  1  0
  6  7  1  0
  8  9  2  0
  8  2  1  0
 11 10  1  0
 11 12  1  0
 12 14  1  0
 12 13  1  1
 14 15  1  6
 15  8  1  0
 16 14  1  0
 16 17  2  0
 19 21  1  0
 19 18  1  0
 20 19  2  0
 22 23  1  0
 22 21  1  6
 23 16  1  0
 24 22  1  0
 25 24  1  0
 26 24  2  0
M  END
$$$$
