TAR.pdb
     RDKit          3D

 24 23  0  0  1  0  0  0  0  0999 V2000
   23.9717  -22.8373  -16.4655 C   0  0  0  0  0  0  0  0  0  0  0  0
   25.1465  -22.1740  -15.8309 C   0  0  1  0  0  0  0  0  0  0  0  0
   26.3049  -22.7848  -16.3332 O   0  0  0  0  0  0  0  0  0  0  0  0
   25.1766  -20.6823  -16.0365 C   0  0  2  0  0  0  0  0  0  0  0  0
   26.4303  -20.1788  -15.5094 N   0  0  0  0  0  0  0  0  0  0  0  0
   24.0094  -20.0049  -15.4323 C   0  0  0  0  0  0  0  0  0  0  0  0
   23.8778  -19.9555  -14.1850 O   0  0  0  0  0  0  0  0  0  0  0  0
   21.2288  -17.9390  -16.8405 C   0  0  0  0  0  0  0  0  0  0  0  0
   21.7749  -18.8358  -15.7470 C   0  0  2  0  0  0  0  0  0  0  0  0
   23.0088  -19.3944  -16.2312 N   0  0  0  0  0  0  0  0  0  0  0  0
   20.8089  -19.8411  -15.3024 C   0  0  0  0  0  0  0  0  0  0  0  0
   20.8551  -20.9904  -15.7993 O   0  0  0  0  0  0  0  0  0  0  0  0
   18.1824  -24.8574  -10.7425 N   0  0  0  0  0  0  0  0  0  0  0  0
   18.6992  -24.0361   -9.7144 C   0  0  0  0  0  0  0  0  0  0  0  0
   19.4042  -24.6123   -8.7813 N   0  0  0  0  0  0  0  0  0  0  0  0
   18.4906  -22.6496   -9.6497 N   0  0  0  0  0  0  0  0  0  0  0  0
   17.7171  -21.9474  -10.6416 C   0  0  0  0  0  0  0  0  0  0  0  0
   18.4744  -22.0658  -11.9706 C   0  0  0  0  0  0  0  0  0  0  0  0
   18.8355  -20.7097  -12.4969 C   0  0  0  0  0  0  0  0  0  0  0  0
   18.7827  -20.5676  -13.9847 C   0  0  2  0  0  0  0  0  0  0  0  0
   19.8160  -19.5734  -14.3286 N   0  0  0  0  0  0  0  0  0  0  0  0
   17.4422  -20.0472  -14.3710 C   0  0  0  0  0  0  0  0  0  0  0  0
   16.5826  -20.8829  -14.7495 O   0  0  0  0  0  0  0  0  0  0  0  0
   17.0662  -18.7317  -14.3493 O   0  0  0  0  0  0  0  0  0  0  0  0
  2  1  1  6
  2  3  1  0
  4  5  1  1
  4  2  1  0
  6  7  2  0
  6  4  1  0
  9  8  1  6
  9 11  1  0
  9 10  1  0
 10  6  1  0
 11 21  1  0
 12 11  2  0
 13 14  1  0
 14 15  2  0
 16 14  1  0
 16 17  1  0
 18 17  1  0
 19 18  1  0
 20 19  1  1
 21 20  1  0
 22 24  1  0
 22 20  1  0
 23 22  2  0
M  END
$$$$
