TAR.pdb
     RDKit          3D

 24 23  0  0  1  0  0  0  0  0999 V2000
   18.8508  -10.3378  -18.4465 C   0  0  0  0  0  0  0  0  0  0  0  0
   18.1141  -11.1396  -17.4282 C   0  0  1  0  0  0  0  0  0  0  0  0
   17.3015  -12.0558  -18.1119 O   0  0  0  0  0  0  0  0  0  0  0  0
   19.0174  -11.8328  -16.4422 C   0  0  2  0  0  0  0  0  0  0  0  0
   18.2135  -12.7556  -15.6643 N   0  0  0  0  0  0  0  0  0  0  0  0
   19.7541  -10.8803  -15.5843 C   0  0  0  0  0  0  0  0  0  0  0  0
   19.1368  -10.0056  -14.9290 O   0  0  0  0  0  0  0  0  0  0  0  0
   23.4079  -10.4558  -14.8223 C   0  0  0  0  0  0  0  0  0  0  0  0
   21.9855   -9.9316  -14.8228 C   0  0  2  0  0  0  0  0  0  0  0  0
   21.1676  -10.9205  -15.4726 N   0  0  0  0  0  0  0  0  0  0  0  0
   21.8730   -8.5967  -15.4115 C   0  0  0  0  0  0  0  0  0  0  0  0
   21.7751   -8.4869  -16.6558 O   0  0  0  0  0  0  0  0  0  0  0  0
   18.4162   -1.6481  -13.6949 N   0  0  0  0  0  0  0  0  0  0  0  0
   18.1994   -1.6105  -15.0914 C   0  0  0  0  0  0  0  0  0  0  0  0
   18.0233   -0.4417  -15.6416 N   0  0  0  0  0  0  0  0  0  0  0  0
   18.1627   -2.7556  -15.9024 N   0  0  0  0  0  0  0  0  0  0  0  0
   18.4292   -4.0706  -15.3782 C   0  0  0  0  0  0  0  0  0  0  0  0
   19.9373   -4.3148  -15.5189 C   0  0  0  0  0  0  0  0  0  0  0  0
   20.2954   -5.6952  -15.0579 C   0  0  0  0  0  0  0  0  0  0  0  0
   21.7267   -6.0820  -15.2526 C   0  0  2  0  0  0  0  0  0  0  0  0
   21.8694   -7.4129  -14.6339 N   0  0  0  0  0  0  0  0  0  0  0  0
   22.5912   -5.1041  -14.5361 C   0  0  0  0  0  0  0  0  0  0  0  0
   22.8526   -5.3368  -13.3287 O   0  0  0  0  0  0  0  0  0  0  0  0
   23.1261   -3.9695  -15.0829 O   0  0  0  0  0  0  0  0  0  0  0  0
  2  1  1  6
  2  3  1  0
  4  5  1  1
  4  2  1  0
  6  7  2  0
  6  4  1  0
  9  8  1  6
  9 11  1  0
  9 10  1  0
 10  6  1  0
 11 21  1  0
 12 11  2  0
 13 14  1  0
 14 15  2  0
 16 14  1  0
 16 17  1  0
 18 17  1  0
 19 18  1  0
 20 19  1  1
 21 20  1  0
 22 24  1  0
 22 20  1  0
 23 22  2  0
M  END
$$$$
