TAR.pdb
     RDKit          3D

 24 23  0  0  1  0  0  0  0  0999 V2000
   17.6623  -19.4660    2.7534 C   0  0  0  0  0  0  0  0  0  0  0  0
   17.0203  -20.7226    2.2721 C   0  0  1  0  0  0  0  0  0  0  0  0
   17.0456  -21.6465    3.3271 O   0  0  0  0  0  0  0  0  0  0  0  0
   15.6221  -20.5201    1.7501 C   0  0  2  0  0  0  0  0  0  0  0  0
   14.7882  -20.0785    2.8514 N   0  0  0  0  0  0  0  0  0  0  0  0
   15.0818  -21.7315    1.0969 C   0  0  0  0  0  0  0  0  0  0  0  0
   14.6682  -22.6953    1.7865 O   0  0  0  0  0  0  0  0  0  0  0  0
   14.5410  -22.6326   -2.5100 C   0  0  0  0  0  0  0  0  0  0  0  0
   14.5710  -23.0067   -1.0412 C   0  0  2  0  0  0  0  0  0  0  0  0
   15.0127  -21.8462   -0.3152 N   0  0  0  0  0  0  0  0  0  0  0  0
   15.3692  -24.2044   -0.7770 C   0  0  0  0  0  0  0  0  0  0  0  0
   16.5935  -24.0796   -0.5415 O   0  0  0  0  0  0  0  0  0  0  0  0
   11.7401  -29.5829    3.9550 N   0  0  0  0  0  0  0  0  0  0  0  0
   13.0872  -29.1974    4.1433 C   0  0  0  0  0  0  0  0  0  0  0  0
   13.4715  -28.9286    5.3597 N   0  0  0  0  0  0  0  0  0  0  0  0
   14.0172  -29.0894    3.0975 N   0  0  0  0  0  0  0  0  0  0  0  0
   13.7119  -28.3927    1.8741 C   0  0  0  0  0  0  0  0  0  0  0  0
   14.9022  -28.5996    0.9286 C   0  0  0  0  0  0  0  0  0  0  0  0
   14.7054  -27.8351   -0.3455 C   0  0  0  0  0  0  0  0  0  0  0  0
   15.6574  -26.7027   -0.5640 C   0  0  2  0  0  0  0  0  0  0  0  0
   14.8178  -25.5090   -0.7749 N   0  0  0  0  0  0  0  0  0  0  0  0
   16.4547  -26.9744   -1.7919 C   0  0  0  0  0  0  0  0  0  0  0  0
   16.0419  -26.4816   -2.8723 O   0  0  0  0  0  0  0  0  0  0  0  0
   17.6020  -27.7182   -1.8435 O   0  0  0  0  0  0  0  0  0  0  0  0
  2  1  1  1
  2  3  1  0
  4  5  1  1
  4  2  1  0
  6  7  2  0
  6  4  1  0
  9  8  1  6
  9 11  1  0
  9 10  1  0
 10  6  1  0
 11 21  1  0
 12 11  2  0
 13 14  1  0
 14 15  2  0
 16 14  1  0
 16 17  1  0
 18 17  1  0
 19 18  1  0
 20 19  1  6
 21 20  1  0
 22 24  1  0
 22 20  1  0
 23 22  2  0
M  END
$$$$
