TAR.pdb
     RDKit          3D

 24 23  0  0  1  0  0  0  0  0999 V2000
   21.1453   -9.3081  -17.8830 C   0  0  0  0  0  0  0  0  0  0  0  0
   22.0078  -10.2633  -17.1305 C   0  0  1  0  0  0  0  0  0  0  0  0
   22.7221  -11.0238  -18.0679 O   0  0  0  0  0  0  0  0  0  0  0  0
   22.9306   -9.5919  -16.1474 C   0  0  2  0  0  0  0  0  0  0  0  0
   23.8297  -10.5965  -15.6131 N   0  0  0  0  0  0  0  0  0  0  0  0
   22.1970   -8.8800  -15.0792 C   0  0  0  0  0  0  0  0  0  0  0  0
   21.4024   -9.5002  -14.3312 O   0  0  0  0  0  0  0  0  0  0  0  0
   22.2864   -5.3191  -13.8904 C   0  0  0  0  0  0  0  0  0  0  0  0
   21.6675   -6.7029  -13.8798 C   0  0  2  0  0  0  0  0  0  0  0  0
   22.3629   -7.4878  -14.8643 N   0  0  0  0  0  0  0  0  0  0  0  0
   20.2163   -6.6769  -14.0668 C   0  0  0  0  0  0  0  0  0  0  0  0
   19.7544   -6.5591  -15.2255 O   0  0  0  0  0  0  0  0  0  0  0  0
   13.5929   -9.1785   -8.4730 N   0  0  0  0  0  0  0  0  0  0  0  0
   13.0776   -8.8983   -9.7593 C   0  0  0  0  0  0  0  0  0  0  0  0
   11.8122   -9.1355   -9.9652 N   0  0  0  0  0  0  0  0  0  0  0  0
   13.8529   -8.3864  -10.8115 N   0  0  0  0  0  0  0  0  0  0  0  0
   15.2588   -8.1117  -10.6597 C   0  0  0  0  0  0  0  0  0  0  0  0
   15.7663   -7.5974  -12.0130 C   0  0  0  0  0  0  0  0  0  0  0  0
   17.2549   -7.4249  -11.9895 C   0  0  0  0  0  0  0  0  0  0  0  0
   17.8444   -6.7987  -13.2128 C   0  0  2  0  0  0  0  0  0  0  0  0
   19.3020   -6.7797  -12.9900 N   0  0  0  0  0  0  0  0  0  0  0  0
   17.3400   -5.4026  -13.3294 C   0  0  0  0  0  0  0  0  0  0  0  0
   17.9832   -4.5018  -12.7335 O   0  0  0  0  0  0  0  0  0  0  0  0
   16.2313   -5.0166  -14.0324 O   0  0  0  0  0  0  0  0  0  0  0  0
  2  1  1  6
  2  3  1  0
  4  5  1  1
  4  2  1  0
  6  7  2  0
  6  4  1  0
  9  8  1  6
  9 11  1  0
  9 10  1  0
 10  6  1  0
 11 21  1  0
 12 11  2  0
 13 14  1  0
 14 15  2  0
 16 14  1  0
 16 17  1  0
 18 17  1  0
 19 18  1  0
 20 19  1  1
 21 20  1  0
 22 24  1  0
 22 20  1  0
 23 22  2  0
M  END
$$$$
