MQW.pdb
     RDKit          3D

 32 33  0  0  1  0  0  0  0  0999 V2000
    8.3333  -11.5807   20.9268 C   0  0  0  0  0  0  0  0  0  0  0  0
    7.0966  -12.3583   19.8980 S   0  0  0  0  0  0  0  0  0  0  0  0
    7.3747  -14.0505   19.4730 C   0  0  0  0  0  0  0  0  0  0  0  0
    8.0788  -14.8629   20.4910 C   0  0  0  0  0  0  0  0  0  0  0  0
    8.2483  -16.2895   20.1476 C   0  0  2  0  0  0  0  0  0  0  0  0
    6.9618  -16.9390   19.8924 N   0  0  0  0  0  0  0  0  0  0  0  0
    8.7812  -17.0203   21.3702 C   0  0  0  0  0  0  0  0  0  0  0  0
    8.3565  -18.2139   21.5415 O   0  0  0  0  0  0  0  0  0  0  0  0
   13.8575  -18.9411   19.7400 N   0  0  0  0  0  0  0  0  0  0  0  0
   13.2706  -18.7978   21.0125 C   0  0  0  0  0  0  0  0  0  0  0  0
   13.8379  -19.2987   22.0044 O   0  0  0  0  0  0  0  0  0  0  0  0
   12.0184  -18.0749   21.1695 C   0  0  0  0  0  0  0  0  0  0  0  0
   11.8776  -17.2277   22.3692 C   0  0  0  0  0  0  0  0  0  0  0  0
   10.5260  -17.2902   23.0666 C   0  0  2  0  0  0  0  0  0  0  0  0
    9.6865  -16.3921   22.2399 N   0  0  0  0  0  0  0  0  0  0  0  0
   10.5545  -16.6734   24.4115 C   0  0  0  0  0  0  0  0  0  0  0  0
   11.1293  -15.5495   24.6392 O   0  0  0  0  0  0  0  0  0  0  0  0
    9.9596  -17.2421   25.5782 N   0  0  0  0  0  0  0  0  0  0  0  0
   10.1704  -16.7175   26.9103 C   0  0  1  0  0  0  0  0  0  0  0  0
    8.8824  -16.4673   27.6514 C   0  0  0  0  0  0  0  0  0  0  0  0
    7.9191  -15.7839   26.8001 C   0  0  0  0  0  0  0  0  0  0  0  0
    6.9815  -16.4114   25.9969 C   0  0  0  0  0  0  0  0  0  0  0  0
    6.3173  -15.4582   25.3638 N   0  0  0  0  0  0  0  0  0  0  0  0
    6.7738  -14.2535   25.7149 C   0  0  0  0  0  0  0  0  0  0  0  0
    6.4027  -12.9847   25.3441 C   0  0  0  0  0  0  0  0  0  0  0  0
    7.0453  -11.8647   25.8825 C   0  0  0  0  0  0  0  0  0  0  0  0
    8.0425  -12.0912   26.7797 C   0  0  0  0  0  0  0  0  0  0  0  0
    8.4299  -13.3531   27.1636 C   0  0  0  0  0  0  0  0  0  0  0  0
    7.7770  -14.4372   26.6140 C   0  0  0  0  0  0  0  0  0  0  0  0
   11.0684  -17.6363   27.6271 C   0  0  0  0  0  0  0  0  0  0  0  0
   11.3461  -18.7504   27.1242 O   0  0  0  0  0  0  0  0  0  0  0  0
   11.6212  -17.3116   28.8452 O   0  0  0  0  0  0  0  0  0  0  0  0
  2  1  1  0
  3  2  1  0
  4  3  1  0
  4  5  1  0
  5  7  1  0
  5  6  1  1
  7  8  2  0
 10 12  1  0
 10  9  1  0
 11 10  2  0
 14 13  1  6
 13 12  1  0
 15 14  1  0
 15  7  1  0
 16 17  2  0
 16 14  1  0
 18 16  1  0
 19 30  1  0
 19 18  1  0
 19 20  1  1
 21 29  1  0
 21 20  1  0
 22 21  2  0
 23 22  1  0
 23 24  1  0
 24 29  2  0
 25 24  1  0
 25 26  2  0
 26 27  1  0
 27 28  2  0
 29 28  1  0
 30 32  1  0
 31 30  2  0
M  END
$$$$
