MQW.pdb
     RDKit          3D

 32 33  0  0  1  0  0  0  0  0999 V2000
    9.4146  -11.9620   19.2852 C   0  0  0  0  0  0  0  0  0  0  0  0
    7.8097  -11.9392   20.0702 S   0  0  0  0  0  0  0  0  0  0  0  0
    6.9575  -13.4839   20.1681 C   0  0  0  0  0  0  0  0  0  0  0  0
    7.5021  -14.4593   21.1397 C   0  0  0  0  0  0  0  0  0  0  0  0
    7.8061  -15.7941   20.5850 C   0  0  2  0  0  0  0  0  0  0  0  0
    6.5874  -16.5120   20.2091 N   0  0  0  0  0  0  0  0  0  0  0  0
    8.3998  -16.6527   21.6910 C   0  0  0  0  0  0  0  0  0  0  0  0
    7.5625  -17.2539   22.4472 O   0  0  0  0  0  0  0  0  0  0  0  0
   14.0237  -19.0856   20.5720 N   0  0  0  0  0  0  0  0  0  0  0  0
   13.2607  -17.9036   20.5030 C   0  0  0  0  0  0  0  0  0  0  0  0
   13.7863  -16.8651   20.0538 O   0  0  0  0  0  0  0  0  0  0  0  0
   11.8767  -17.8926   20.9498 C   0  0  0  0  0  0  0  0  0  0  0  0
   11.6335  -18.1091   22.3889 C   0  0  0  0  0  0  0  0  0  0  0  0
   10.2618  -17.6884   22.8974 C   0  0  2  0  0  0  0  0  0  0  0  0
    9.7911  -16.7580   21.8449 N   0  0  0  0  0  0  0  0  0  0  0  0
   10.3408  -16.8769   24.1323 C   0  0  0  0  0  0  0  0  0  0  0  0
   10.8498  -15.6996   24.1487 O   0  0  0  0  0  0  0  0  0  0  0  0
    9.8702  -17.2990   25.4125 N   0  0  0  0  0  0  0  0  0  0  0  0
   10.1283  -16.5646   26.6325 C   0  0  1  0  0  0  0  0  0  0  0  0
    8.8962  -16.3898   27.4822 C   0  0  0  0  0  0  0  0  0  0  0  0
    7.8028  -15.8302   26.7006 C   0  0  0  0  0  0  0  0  0  0  0  0
    6.8590  -16.5708   26.0087 C   0  0  0  0  0  0  0  0  0  0  0  0
    6.0570  -15.7072   25.4076 N   0  0  0  0  0  0  0  0  0  0  0  0
    6.4308  -14.4534   25.6742 C   0  0  0  0  0  0  0  0  0  0  0  0
    5.9139  -13.2389   25.2964 C   0  0  0  0  0  0  0  0  0  0  0  0
    6.4965  -12.0450   25.7352 C   0  0  0  0  0  0  0  0  0  0  0  0
    7.5858  -12.1450   26.5440 C   0  0  0  0  0  0  0  0  0  0  0  0
    8.1194  -13.3508   26.9331 C   0  0  0  0  0  0  0  0  0  0  0  0
    7.5223  -14.5101   26.4828 C   0  0  0  0  0  0  0  0  0  0  0  0
   11.2215  -17.2390   27.3498 C   0  0  0  0  0  0  0  0  0  0  0  0
   12.4047  -17.0812   26.9672 O   0  0  0  0  0  0  0  0  0  0  0  0
   10.9879  -18.0467   28.4397 O   0  0  0  0  0  0  0  0  0  0  0  0
  2  1  1  0
  3  2  1  0
  4  3  1  0
  4  5  1  0
  5  7  1  0
  5  6  1  1
  7  8  2  0
 10 12  1  0
 10  9  1  0
 11 10  2  0
 14 13  1  6
 13 12  1  0
 15 14  1  0
 15  7  1  0
 16 17  2  0
 16 14  1  0
 18 16  1  0
 19 30  1  0
 19 18  1  0
 19 20  1  1
 21 29  1  0
 21 20  1  0
 22 21  2  0
 23 22  1  0
 23 24  1  0
 24 29  2  0
 25 24  1  0
 25 26  2  0
 26 27  1  0
 27 28  2  0
 29 28  1  0
 30 32  1  0
 31 30  2  0
M  END
$$$$
