MQW.pdb
     RDKit          3D

 32 33  0  0  1  0  0  0  0  0999 V2000
    7.6440  -11.5451   19.8009 C   0  0  0  0  0  0  0  0  0  0  0  0
    8.4044  -12.6619   20.9701 S   0  0  0  0  0  0  0  0  0  0  0  0
    7.3157  -13.5099   22.0735 C   0  0  0  0  0  0  0  0  0  0  0  0
    6.4712  -14.5616   21.4631 C   0  0  0  0  0  0  0  0  0  0  0  0
    7.2119  -15.6702   20.8273 C   0  0  2  0  0  0  0  0  0  0  0  0
    6.3071  -16.6259   20.1871 N   0  0  0  0  0  0  0  0  0  0  0  0
    7.8840  -16.4899   21.9179 C   0  0  0  0  0  0  0  0  0  0  0  0
    7.1051  -17.0331   22.7738 O   0  0  0  0  0  0  0  0  0  0  0  0
   13.0674  -19.7033   20.9218 N   0  0  0  0  0  0  0  0  0  0  0  0
   12.9739  -19.7336   22.3270 C   0  0  0  0  0  0  0  0  0  0  0  0
   13.8749  -20.2920   22.9851 O   0  0  0  0  0  0  0  0  0  0  0  0
   11.8413  -19.1217   23.0038 C   0  0  0  0  0  0  0  0  0  0  0  0
   11.0609  -18.1275   22.2426 C   0  0  0  0  0  0  0  0  0  0  0  0
    9.8187  -17.5897   22.9389 C   0  0  2  0  0  0  0  0  0  0  0  0
    9.2810  -16.6228   21.9535 N   0  0  0  0  0  0  0  0  0  0  0  0
   10.1453  -16.7873   24.1385 C   0  0  0  0  0  0  0  0  0  0  0  0
   10.8316  -15.7055   24.0748 O   0  0  0  0  0  0  0  0  0  0  0  0
    9.7430  -17.1151   25.4687 N   0  0  0  0  0  0  0  0  0  0  0  0
   10.4347  -16.6356   26.6459 C   0  0  1  0  0  0  0  0  0  0  0  0
    9.5700  -15.7621   27.5177 C   0  0  0  0  0  0  0  0  0  0  0  0
    8.3743  -15.3387   26.8031 C   0  0  0  0  0  0  0  0  0  0  0  0
    7.4243  -16.1917   26.2665 C   0  0  0  0  0  0  0  0  0  0  0  0
    6.5137  -15.4328   25.6788 N   0  0  0  0  0  0  0  0  0  0  0  0
    6.8236  -14.1404   25.8077 C   0  0  0  0  0  0  0  0  0  0  0  0
    6.1925  -12.9962   25.3862 C   0  0  0  0  0  0  0  0  0  0  0  0
    6.7297  -11.7362   25.6707 C   0  0  0  0  0  0  0  0  0  0  0  0
    7.8924  -11.7004   26.3760 C   0  0  0  0  0  0  0  0  0  0  0  0
    8.5404  -12.8339   26.8064 C   0  0  0  0  0  0  0  0  0  0  0  0
    7.9855  -14.0616   26.5093 C   0  0  0  0  0  0  0  0  0  0  0  0
   10.9736  -17.7999   27.3659 C   0  0  0  0  0  0  0  0  0  0  0  0
   10.6624  -18.9564   26.9960 O   0  0  0  0  0  0  0  0  0  0  0  0
   11.8179  -17.6622   28.4443 O   0  0  0  0  0  0  0  0  0  0  0  0
  2  1  1  0
  3  2  1  0
  4  3  1  0
  4  5  1  0
  5  7  1  0
  5  6  1  1
  7  8  2  0
 10 12  1  0
 10  9  1  0
 11 10  2  0
 14 13  1  6
 13 12  1  0
 15 14  1  0
 15  7  1  0
 16 17  2  0
 16 14  1  0
 18 16  1  0
 19 30  1  0
 19 18  1  0
 19 20  1  1
 21 29  1  0
 21 20  1  0
 22 21  2  0
 23 22  1  0
 23 24  1  0
 24 29  2  0
 25 24  1  0
 25 26  2  0
 26 27  1  0
 27 28  2  0
 29 28  1  0
 30 32  1  0
 31 30  2  0
M  END
$$$$
