MQW.pdb
     RDKit          3D

 32 33  0  0  1  0  0  0  0  0999 V2000
    7.6690  -11.7883   20.0338 C   0  0  0  0  0  0  0  0  0  0  0  0
    8.1173  -12.7300   21.4845 S   0  0  0  0  0  0  0  0  0  0  0  0
    7.1564  -14.1755   21.8147 C   0  0  0  0  0  0  0  0  0  0  0  0
    6.9324  -15.0770   20.6618 C   0  0  0  0  0  0  0  0  0  0  0  0
    8.0979  -15.8958   20.2702 C   0  0  2  0  0  0  0  0  0  0  0  0
    7.8019  -16.7333   19.1071 N   0  0  0  0  0  0  0  0  0  0  0  0
    8.3732  -16.9035   21.3754 C   0  0  0  0  0  0  0  0  0  0  0  0
    7.7585  -18.0207   21.2837 O   0  0  0  0  0  0  0  0  0  0  0  0
   13.7480  -16.9901   20.9354 N   0  0  0  0  0  0  0  0  0  0  0  0
   13.5799  -18.2732   21.4918 C   0  0  0  0  0  0  0  0  0  0  0  0
   14.5762  -19.0108   21.6331 O   0  0  0  0  0  0  0  0  0  0  0  0
   12.2612  -18.7340   21.8969 C   0  0  0  0  0  0  0  0  0  0  0  0
   11.1332  -17.8048   21.6939 C   0  0  0  0  0  0  0  0  0  0  0  0
   10.1588  -17.6851   22.8572 C   0  0  2  0  0  0  0  0  0  0  0  0
    9.2570  -16.5936   22.4210 N   0  0  0  0  0  0  0  0  0  0  0  0
   10.8086  -17.1885   24.0905 C   0  0  0  0  0  0  0  0  0  0  0  0
   11.8866  -17.7062   24.5546 O   0  0  0  0  0  0  0  0  0  0  0  0
   10.3245  -16.1039   24.8828 N   0  0  0  0  0  0  0  0  0  0  0  0
   10.0795  -16.2102   26.3052 C   0  0  1  0  0  0  0  0  0  0  0  0
    8.6982  -16.7207   26.6246 C   0  0  0  0  0  0  0  0  0  0  0  0
    7.6858  -15.7414   26.2559 C   0  0  0  0  0  0  0  0  0  0  0  0
    6.4227  -16.0452   25.7759 C   0  0  0  0  0  0  0  0  0  0  0  0
    5.8163  -14.8947   25.5330 N   0  0  0  0  0  0  0  0  0  0  0  0
    6.6171  -13.8684   25.8302 C   0  0  0  0  0  0  0  0  0  0  0  0
    6.4356  -12.5093   25.7610 C   0  0  0  0  0  0  0  0  0  0  0  0
    7.4499  -11.6305   26.1560 C   0  0  0  0  0  0  0  0  0  0  0  0
    8.6095  -12.1811   26.6063 C   0  0  0  0  0  0  0  0  0  0  0  0
    8.8118  -13.5388   26.6825 C   0  0  0  0  0  0  0  0  0  0  0  0
    7.7924  -14.3790   26.2848 C   0  0  0  0  0  0  0  0  0  0  0  0
   11.1418  -17.0422   26.8915 C   0  0  0  0  0  0  0  0  0  0  0  0
   11.3179  -17.0394   28.1325 O   0  0  0  0  0  0  0  0  0  0  0  0
   11.9585  -17.8335   26.1159 O   0  0  0  0  0  0  0  0  0  0  0  0
  2  1  1  0
  3  2  1  0
  4  3  1  0
  4  5  1  0
  5  7  1  0
  5  6  1  6
  7  8  2  0
 10 12  1  0
 10  9  1  0
 11 10  2  0
 14 13  1  6
 13 12  1  0
 15 14  1  0
 15  7  1  0
 16 17  2  0
 16 14  1  0
 18 16  1  0
 19 30  1  0
 19 18  1  0
 19 20  1  6
 21 29  1  0
 21 20  1  0
 22 21  2  0
 23 22  1  0
 23 24  1  0
 24 29  2  0
 25 24  1  0
 25 26  2  0
 26 27  1  0
 27 28  2  0
 29 28  1  0
 30 32  1  0
 31 30  2  0
M  END
$$$$
