WNS.pdb
     RDKit          3D

 29 30  0  0  1  0  0  0  0  0999 V2000
   15.6471  -23.7325   -4.1711 N   0  0  0  0  0  0  0  0  0  0  0  0
   14.6642  -23.0430   -3.3112 C   0  0  1  0  0  0  0  0  0  0  0  0
   13.3293  -23.4750   -3.7759 C   0  0  0  0  0  0  0  0  0  0  0  0
   13.0163  -23.0560   -5.1501 C   0  0  0  0  0  0  0  0  0  0  0  0
   13.4177  -21.8514   -5.7195 C   0  0  0  0  0  0  0  0  0  0  0  0
   12.9272  -21.8465   -6.9615 N   0  0  0  0  0  0  0  0  0  0  0  0
   12.2369  -22.9849   -7.2130 C   0  0  0  0  0  0  0  0  0  0  0  0
   11.5630  -23.4730   -8.3107 C   0  0  0  0  0  0  0  0  0  0  0  0
   10.9528  -24.7080   -8.2666 C   0  0  0  0  0  0  0  0  0  0  0  0
   10.9846  -25.5092   -7.1340 C   0  0  0  0  0  0  0  0  0  0  0  0
   11.6593  -25.0125   -6.0450 C   0  0  0  0  0  0  0  0  0  0  0  0
   12.2804  -23.7632   -6.0844 C   0  0  0  0  0  0  0  0  0  0  0  0
   15.0225  -23.2710   -1.9232 C   0  0  0  0  0  0  0  0  0  0  0  0
   15.7522  -24.2891   -1.6543 O   0  0  0  0  0  0  0  0  0  0  0  0
   16.1847  -22.8464    3.1987 N   0  0  0  0  0  0  0  0  0  0  0  0
   16.1784  -21.5876    2.5128 C   0  0  0  0  0  0  0  0  0  0  0  0
   16.6469  -20.5532    3.0584 O   0  0  0  0  0  0  0  0  0  0  0  0
   15.6306  -21.4664    1.1607 C   0  0  0  0  0  0  0  0  0  0  0  0
   15.1876  -22.7882    0.5524 C   0  0  2  0  0  0  0  0  0  0  0  0
   14.6654  -22.4960   -0.8036 N   0  0  0  0  0  0  0  0  0  0  0  0
   14.1905  -23.4958    1.3557 C   0  0  0  0  0  0  0  0  0  0  0  0
   12.9850  -23.0359    1.3255 O   0  0  0  0  0  0  0  0  0  0  0  0
   11.8737  -25.1770    4.8456 O   0  0  0  0  0  0  0  0  0  0  0  0
   12.8782  -24.5447    4.1466 C   0  0  0  0  0  0  0  0  0  0  0  0
   13.2223  -25.2806    2.8381 C   0  0  2  0  0  0  0  0  0  0  0  0
   14.3516  -24.6267    2.1719 N   0  0  0  0  0  0  0  0  0  0  0  0
   12.0405  -25.1654    1.9927 C   0  0  0  0  0  0  0  0  0  0  0  0
   11.3099  -26.2609    1.6197 O   0  0  0  0  0  0  0  0  0  0  0  0
   11.6761  -24.0346    1.5945 O   0  0  0  0  0  0  0  0  0  0  0  0
  2  1  1  6
  2 13  1  0
  3  2  1  0
  3  4  1  0
  4 12  1  0
  4  5  2  0
  5  6  1  0
  7  8  2  0
  7  6  1  0
  9  8  1  0
 10  9  2  0
 11 10  1  0
 11 12  2  0
 12  7  1  0
 13 20  1  0
 13 14  2  0
 15 16  1  0
 16 18  1  0
 17 16  2  0
 19 18  1  1
 19 21  1  0
 20 19  1  0
 21 26  1  0
 21 22  2  0
 25 24  1  1
 24 23  1  0
 25 27  1  0
 26 25  1  0
 27 28  1  0
 29 27  2  0
M  END
$$$$
