WNS.pdb
     RDKit          3D

 29 30  0  0  1  0  0  0  0  0999 V2000
   24.8827  -19.4307   -9.0644 N   0  0  0  0  0  0  0  0  0  0  0  0
   26.0413  -20.1609   -9.6169 C   0  0  1  0  0  0  0  0  0  0  0  0
   26.2948  -21.2932   -8.7013 C   0  0  0  0  0  0  0  0  0  0  0  0
   26.6361  -20.8822   -7.3315 C   0  0  0  0  0  0  0  0  0  0  0  0
   25.7065  -20.6379   -6.3253 C   0  0  0  0  0  0  0  0  0  0  0  0
   26.4106  -20.2802   -5.2484 N   0  0  0  0  0  0  0  0  0  0  0  0
   27.7389  -20.2860   -5.5158 C   0  0  0  0  0  0  0  0  0  0  0  0
   28.8662  -20.0166   -4.7717 C   0  0  0  0  0  0  0  0  0  0  0  0
   30.1198  -20.1250   -5.3340 C   0  0  0  0  0  0  0  0  0  0  0  0
   30.3079  -20.5040   -6.6557 C   0  0  0  0  0  0  0  0  0  0  0  0
   29.1767  -20.7702   -7.3886 C   0  0  0  0  0  0  0  0  0  0  0  0
   27.9046  -20.6634   -6.8241 C   0  0  0  0  0  0  0  0  0  0  0  0
   25.7850  -20.4453  -11.0170 C   0  0  0  0  0  0  0  0  0  0  0  0
   24.7391  -19.9310  -11.5491 O   0  0  0  0  0  0  0  0  0  0  0  0
   28.7923  -21.9777  -16.0533 N   0  0  0  0  0  0  0  0  0  0  0  0
   28.0229  -21.0001  -15.3409 C   0  0  0  0  0  0  0  0  0  0  0  0
   27.4141  -20.0847  -15.9562 O   0  0  0  0  0  0  0  0  0  0  0  0
   27.9199  -21.0365  -13.8811 C   0  0  0  0  0  0  0  0  0  0  0  0
   26.4902  -21.0686  -13.3629 C   0  0  2  0  0  0  0  0  0  0  0  0
   26.5587  -21.2318  -11.8913 N   0  0  0  0  0  0  0  0  0  0  0  0
   25.6730  -22.1200  -13.9684 C   0  0  0  0  0  0  0  0  0  0  0  0
   25.9687  -23.3380  -13.6602 O   0  0  0  0  0  0  0  0  0  0  0  0
   21.6744  -22.5742  -14.3469 O   0  0  0  0  0  0  0  0  0  0  0  0
   22.3464  -22.7619  -15.5347 C   0  0  0  0  0  0  0  0  0  0  0  0
   23.8173  -23.1589  -15.3091 C   0  0  2  0  0  0  0  0  0  0  0  0
   24.5897  -22.0003  -14.8534 N   0  0  0  0  0  0  0  0  0  0  0  0
   24.3201  -23.5833  -16.6098 C   0  0  0  0  0  0  0  0  0  0  0  0
   24.3527  -24.9015  -16.9762 O   0  0  0  0  0  0  0  0  0  0  0  0
   24.7335  -22.7224  -17.4209 O   0  0  0  0  0  0  0  0  0  0  0  0
  2  1  1  1
  2 13  1  0
  3  2  1  0
  3  4  1  0
  4 12  1  0
  4  5  2  0
  5  6  1  0
  7  8  2  0
  7  6  1  0
  9  8  1  0
 10  9  2  0
 11 10  1  0
 11 12  2  0
 12  7  1  0
 13 20  1  0
 13 14  2  0
 15 16  1  0
 16 18  1  0
 17 16  2  0
 19 18  1  6
 19 21  1  0
 20 19  1  0
 21 26  1  0
 21 22  2  0
 25 24  1  6
 24 23  1  0
 25 27  1  0
 26 25  1  0
 27 28  1  0
 29 27  2  0
M  END
$$$$
