WNS.pdb
     RDKit          3D

 29 30  0  0  1  0  0  0  0  0999 V2000
   27.1049  -20.0157  -11.4900 N   0  0  0  0  0  0  0  0  0  0  0  0
   26.0756  -20.9449  -10.9820 C   0  0  1  0  0  0  0  0  0  0  0  0
   26.2247  -20.9676   -9.5116 C   0  0  0  0  0  0  0  0  0  0  0  0
   27.6226  -21.0202   -9.0588 C   0  0  0  0  0  0  0  0  0  0  0  0
   28.6678  -21.5820   -9.7858 C   0  0  0  0  0  0  0  0  0  0  0  0
   29.7613  -21.4418   -9.0321 N   0  0  0  0  0  0  0  0  0  0  0  0
   29.4674  -20.8189   -7.8653 C   0  0  0  0  0  0  0  0  0  0  0  0
   30.2120  -20.4302   -6.7737 C   0  0  0  0  0  0  0  0  0  0  0  0
   29.6157  -19.7843   -5.7123 C   0  0  0  0  0  0  0  0  0  0  0  0
   28.2582  -19.4976   -5.6885 C   0  0  0  0  0  0  0  0  0  0  0  0
   27.5250  -19.8898   -6.7823 C   0  0  0  0  0  0  0  0  0  0  0  0
   28.1237  -20.5430   -7.8607 C   0  0  0  0  0  0  0  0  0  0  0  0
   24.7917  -20.5658  -11.5429 C   0  0  0  0  0  0  0  0  0  0  0  0
   24.2517  -19.4835  -11.1207 O   0  0  0  0  0  0  0  0  0  0  0  0
   20.8358  -18.8647  -13.8900 N   0  0  0  0  0  0  0  0  0  0  0  0
   21.8871  -19.2473  -14.7862 C   0  0  0  0  0  0  0  0  0  0  0  0
   21.9660  -18.7464  -15.9395 O   0  0  0  0  0  0  0  0  0  0  0  0
   22.8993  -20.2276  -14.3894 C   0  0  0  0  0  0  0  0  0  0  0  0
   22.7200  -20.7641  -12.9774 C   0  0  2  0  0  0  0  0  0  0  0  0
   24.0434  -21.2499  -12.5195 N   0  0  0  0  0  0  0  0  0  0  0  0
   21.7120  -21.8195  -12.8773 C   0  0  0  0  0  0  0  0  0  0  0  0
   22.0478  -22.9887  -13.3086 O   0  0  0  0  0  0  0  0  0  0  0  0
   17.4939  -23.7389  -11.2891 O   0  0  0  0  0  0  0  0  0  0  0  0
   18.3304  -22.6488  -11.3868 C   0  0  0  0  0  0  0  0  0  0  0  0
   19.5133  -22.9124  -12.3373 C   0  0  2  0  0  0  0  0  0  0  0  0
   20.4050  -21.7503  -12.3695 N   0  0  0  0  0  0  0  0  0  0  0  0
   18.9288  -23.0995  -13.6595 C   0  0  0  0  0  0  0  0  0  0  0  0
   18.5736  -24.3371  -14.1233 O   0  0  0  0  0  0  0  0  0  0  0  0
   18.7415  -22.1037  -14.3965 O   0  0  0  0  0  0  0  0  0  0  0  0
  2  1  1  6
  2 13  1  0
  3  2  1  0
  3  4  1  0
  4 12  1  0
  4  5  2  0
  5  6  1  0
  7  8  2  0
  7  6  1  0
  9  8  1  0
 10  9  2  0
 11 10  1  0
 11 12  2  0
 12  7  1  0
 13 20  1  0
 13 14  2  0
 15 16  1  0
 16 18  1  0
 17 16  2  0
 19 18  1  6
 19 21  1  0
 20 19  1  0
 21 26  1  0
 21 22  2  0
 25 24  1  1
 24 23  1  0
 25 27  1  0
 26 25  1  0
 27 28  1  0
 29 27  2  0
M  END
$$$$
