WNS.pdb
     RDKit          3D

 29 30  0  0  1  0  0  0  0  0999 V2000
   14.7901  -15.0632    5.7570 N   0  0  0  0  0  0  0  0  0  0  0  0
   15.9657  -15.8174    5.2773 C   0  0  1  0  0  0  0  0  0  0  0  0
   17.1342  -15.2683    5.9969 C   0  0  0  0  0  0  0  0  0  0  0  0
   17.8712  -14.2472    5.2377 C   0  0  0  0  0  0  0  0  0  0  0  0
   17.9447  -12.9025    5.5879 C   0  0  0  0  0  0  0  0  0  0  0  0
   18.6879  -12.3143    4.6472 N   0  0  0  0  0  0  0  0  0  0  0  0
   19.0927  -13.2139    3.7184 C   0  0  0  0  0  0  0  0  0  0  0  0
   19.8662  -13.1339    2.5816 C   0  0  0  0  0  0  0  0  0  0  0  0
   20.1210  -14.2582    1.8264 C   0  0  0  0  0  0  0  0  0  0  0  0
   19.6201  -15.5071    2.1659 C   0  0  0  0  0  0  0  0  0  0  0  0
   18.8499  -15.5754    3.3017 C   0  0  0  0  0  0  0  0  0  0  0  0
   18.5897  -14.4404    4.0712 C   0  0  0  0  0  0  0  0  0  0  0  0
   15.6845  -17.2367    5.3927 C   0  0  0  0  0  0  0  0  0  0  0  0
   14.8864  -17.6137    6.3213 O   0  0  0  0  0  0  0  0  0  0  0  0
   15.6146  -19.7899    1.2796 N   0  0  0  0  0  0  0  0  0  0  0  0
   15.1756  -20.1776    2.5880 C   0  0  0  0  0  0  0  0  0  0  0  0
   13.9480  -20.2478    2.8622 O   0  0  0  0  0  0  0  0  0  0  0  0
   16.1374  -20.5045    3.6420 C   0  0  0  0  0  0  0  0  0  0  0  0
   15.9461  -19.7064    4.9227 C   0  0  2  0  0  0  0  0  0  0  0  0
   16.1859  -18.2812    4.5934 N   0  0  0  0  0  0  0  0  0  0  0  0
   16.8119  -20.1431    6.0179 C   0  0  0  0  0  0  0  0  0  0  0  0
   18.0605  -19.8267    5.9352 O   0  0  0  0  0  0  0  0  0  0  0  0
   16.3784  -20.0907   10.0575 O   0  0  0  0  0  0  0  0  0  0  0  0
   16.7855  -21.3161    9.5777 C   0  0  0  0  0  0  0  0  0  0  0  0
   17.4693  -21.1993    8.2026 C   0  0  2  0  0  0  0  0  0  0  0  0
   16.4808  -20.8699    7.1725 N   0  0  0  0  0  0  0  0  0  0  0  0
   18.0277  -22.5160    7.9215 C   0  0  0  0  0  0  0  0  0  0  0  0
   19.0810  -23.0208    8.6347 O   0  0  0  0  0  0  0  0  0  0  0  0
   17.5332  -23.2115    7.0040 O   0  0  0  0  0  0  0  0  0  0  0  0
  2  1  1  1
  2 13  1  0
  3  2  1  0
  3  4  1  0
  4 12  1  0
  4  5  2  0
  5  6  1  0
  7  8  2  0
  7  6  1  0
  9  8  1  0
 10  9  2  0
 11 10  1  0
 11 12  2  0
 12  7  1  0
 13 20  1  0
 13 14  2  0
 15 16  1  0
 16 18  1  0
 17 16  2  0
 19 18  1  6
 19 21  1  0
 20 19  1  0
 21 26  1  0
 21 22  2  0
 25 24  1  1
 24 23  1  0
 25 27  1  0
 26 25  1  0
 27 28  1  0
 29 27  2  0
M  END
$$$$
