WNS.pdb
     RDKit          3D

 29 30  0  0  1  0  0  0  0  0999 V2000
   27.7370  -22.1844  -13.2852 N   0  0  0  0  0  0  0  0  0  0  0  0
   26.6420  -21.6760  -12.4348 C   0  0  1  0  0  0  0  0  0  0  0  0
   27.1478  -20.4413  -11.7989 C   0  0  0  0  0  0  0  0  0  0  0  0
   28.1402  -20.6835  -10.7413 C   0  0  0  0  0  0  0  0  0  0  0  0
   29.4921  -20.9241  -10.9667 C   0  0  0  0  0  0  0  0  0  0  0  0
   30.0425  -21.1045   -9.7634 N   0  0  0  0  0  0  0  0  0  0  0  0
   29.1127  -20.9896   -8.7846 C   0  0  0  0  0  0  0  0  0  0  0  0
   29.1545  -21.0713   -7.4102 C   0  0  0  0  0  0  0  0  0  0  0  0
   28.0114  -20.8903   -6.6620 C   0  0  0  0  0  0  0  0  0  0  0  0
   26.7806  -20.6216   -7.2442 C   0  0  0  0  0  0  0  0  0  0  0  0
   26.7504  -20.5423   -8.6155 C   0  0  0  0  0  0  0  0  0  0  0  0
   27.9052  -20.7233   -9.3783 C   0  0  0  0  0  0  0  0  0  0  0  0
   25.4324  -21.5992  -13.2335 C   0  0  0  0  0  0  0  0  0  0  0  0
   25.5285  -21.1209  -14.4181 O   0  0  0  0  0  0  0  0  0  0  0  0
   24.1477  -24.0032  -15.4670 N   0  0  0  0  0  0  0  0  0  0  0  0
   23.0403  -24.3670  -14.6325 C   0  0  0  0  0  0  0  0  0  0  0  0
   22.6156  -25.5527  -14.6047 O   0  0  0  0  0  0  0  0  0  0  0  0
   22.3722  -23.3751  -13.7883 C   0  0  0  0  0  0  0  0  0  0  0  0
   23.0093  -21.9946  -13.8342 C   0  0  2  0  0  0  0  0  0  0  0  0
   24.1324  -21.9954  -12.8669 N   0  0  0  0  0  0  0  0  0  0  0  0
   22.0720  -20.9089  -13.5467 C   0  0  0  0  0  0  0  0  0  0  0  0
   21.6037  -20.8463  -12.3456 O   0  0  0  0  0  0  0  0  0  0  0  0
   19.3297  -17.0150  -14.7674 O   0  0  0  0  0  0  0  0  0  0  0  0
   20.2808  -17.9456  -15.1239 C   0  0  0  0  0  0  0  0  0  0  0  0
   20.5804  -18.9320  -13.9797 C   0  0  2  0  0  0  0  0  0  0  0  0
   21.5956  -19.9012  -14.4002 N   0  0  0  0  0  0  0  0  0  0  0  0
   19.3301  -19.6354  -13.7215 C   0  0  0  0  0  0  0  0  0  0  0  0
   18.4861  -19.2607  -12.7115 O   0  0  0  0  0  0  0  0  0  0  0  0
   19.0118  -20.6099  -14.4419 O   0  0  0  0  0  0  0  0  0  0  0  0
  2  1  1  6
  2 13  1  0
  3  2  1  0
  3  4  1  0
  4 12  1  0
  4  5  2  0
  5  6  1  0
  7  8  2  0
  7  6  1  0
  9  8  1  0
 10  9  2  0
 11 10  1  0
 11 12  2  0
 12  7  1  0
 13 20  1  0
 13 14  2  0
 15 16  1  0
 16 18  1  0
 17 16  2  0
 19 18  1  1
 19 21  1  0
 20 19  1  0
 21 26  1  0
 21 22  2  0
 25 24  1  6
 24 23  1  0
 25 27  1  0
 26 25  1  0
 27 28  1  0
 29 27  2  0
M  END
$$$$
