WNS.pdb
     RDKit          3D

 29 30  0  0  1  0  0  0  0  0999 V2000
   27.8695  -21.3425  -15.4848 N   0  0  0  0  0  0  0  0  0  0  0  0
   26.8477  -20.3592  -15.0727 C   0  0  1  0  0  0  0  0  0  0  0  0
   26.3120  -19.7691  -16.3176 C   0  0  0  0  0  0  0  0  0  0  0  0
   27.1067  -18.6425  -16.8287 C   0  0  0  0  0  0  0  0  0  0  0  0
   27.9240  -18.6984  -17.9536 C   0  0  0  0  0  0  0  0  0  0  0  0
   28.4743  -17.4876  -18.0729 N   0  0  0  0  0  0  0  0  0  0  0  0
   28.0488  -16.6639  -17.0847 C   0  0  0  0  0  0  0  0  0  0  0  0
   28.2941  -15.3469  -16.7643 C   0  0  0  0  0  0  0  0  0  0  0  0
   27.6851  -14.7657  -15.6731 C   0  0  0  0  0  0  0  0  0  0  0  0
   26.8092  -15.4649  -14.8548 C   0  0  0  0  0  0  0  0  0  0  0  0
   26.5718  -16.7777  -15.1835 C   0  0  0  0  0  0  0  0  0  0  0  0
   27.1845  -17.3712  -16.2883 C   0  0  0  0  0  0  0  0  0  0  0  0
   25.9242  -21.0059  -14.1586 C   0  0  0  0  0  0  0  0  0  0  0  0
   25.7023  -22.2574  -14.3201 O   0  0  0  0  0  0  0  0  0  0  0  0
   26.4326  -22.0110  -10.7653 N   0  0  0  0  0  0  0  0  0  0  0  0
   25.4802  -21.1364  -10.1462 C   0  0  0  0  0  0  0  0  0  0  0  0
   25.6445  -20.7379   -8.9624 O   0  0  0  0  0  0  0  0  0  0  0  0
   24.2921  -20.6796  -10.8691 C   0  0  0  0  0  0  0  0  0  0  0  0
   24.2139  -21.1749  -12.3052 C   0  0  2  0  0  0  0  0  0  0  0  0
   25.2237  -20.4219  -13.0864 N   0  0  0  0  0  0  0  0  0  0  0  0
   22.8840  -21.0372  -12.8988 C   0  0  0  0  0  0  0  0  0  0  0  0
   22.5036  -19.8425  -13.2052 O   0  0  0  0  0  0  0  0  0  0  0  0
   19.1193  -23.2686  -14.9500 O   0  0  0  0  0  0  0  0  0  0  0  0
   20.4359  -22.8638  -14.9619 C   0  0  0  0  0  0  0  0  0  0  0  0
   20.7064  -21.7492  -13.9339 C   0  0  2  0  0  0  0  0  0  0  0  0
   21.9385  -22.0323  -13.1933 N   0  0  0  0  0  0  0  0  0  0  0  0
   19.5796  -21.7767  -13.0097 C   0  0  0  0  0  0  0  0  0  0  0  0
   18.3318  -21.3535  -13.3797 O   0  0  0  0  0  0  0  0  0  0  0  0
   19.7503  -22.2006  -11.8430 O   0  0  0  0  0  0  0  0  0  0  0  0
  2  1  1  6
  2 13  1  0
  3  2  1  0
  3  4  1  0
  4 12  1  0
  4  5  2  0
  5  6  1  0
  7  8  2  0
  7  6  1  0
  9  8  1  0
 10  9  2  0
 11 10  1  0
 11 12  2  0
 12  7  1  0
 13 20  1  0
 13 14  2  0
 15 16  1  0
 16 18  1  0
 17 16  2  0
 19 18  1  1
 19 21  1  0
 20 19  1  0
 21 26  1  0
 21 22  2  0
 25 24  1  6
 24 23  1  0
 25 27  1  0
 26 25  1  0
 27 28  1  0
 29 27  2  0
M  END
$$$$
