WNS.pdb
     RDKit          3D

 29 30  0  0  1  0  0  0  0  0999 V2000
   36.5912  -25.5935    4.7824 N   0  0  0  0  0  0  0  0  0  0  0  0
   35.7441  -24.7574    5.6564 C   0  0  1  0  0  0  0  0  0  0  0  0
   34.4000  -25.3720    5.6449 C   0  0  0  0  0  0  0  0  0  0  0  0
   33.5877  -24.9980    4.4776 C   0  0  0  0  0  0  0  0  0  0  0  0
   33.2942  -25.8470    3.4149 C   0  0  0  0  0  0  0  0  0  0  0  0
   32.5523  -25.1335    2.5640 N   0  0  0  0  0  0  0  0  0  0  0  0
   32.3569  -23.8764    3.0302 C   0  0  0  0  0  0  0  0  0  0  0  0
   31.6740  -22.7765    2.5600 C   0  0  0  0  0  0  0  0  0  0  0  0
   31.6447  -21.6060    3.2869 C   0  0  0  0  0  0  0  0  0  0  0  0
   32.2906  -21.4769    4.5084 C   0  0  0  0  0  0  0  0  0  0  0  0
   32.9687  -22.5800    4.9678 C   0  0  0  0  0  0  0  0  0  0  0  0
   33.0006  -23.7685    4.2367 C   0  0  0  0  0  0  0  0  0  0  0  0
   36.4182  -24.5881    6.9307 C   0  0  0  0  0  0  0  0  0  0  0  0
   37.0934  -25.5775    7.3851 O   0  0  0  0  0  0  0  0  0  0  0  0
   37.6374  -20.8764   11.6315 N   0  0  0  0  0  0  0  0  0  0  0  0
   38.1320  -21.8392   10.6915 C   0  0  0  0  0  0  0  0  0  0  0  0
   39.1262  -22.5611   10.9699 O   0  0  0  0  0  0  0  0  0  0  0  0
   37.4977  -22.0136    9.3837 C   0  0  0  0  0  0  0  0  0  0  0  0
   37.0774  -23.4449    9.0866 C   0  0  2  0  0  0  0  0  0  0  0  0
   36.4294  -23.4460    7.7535 N   0  0  0  0  0  0  0  0  0  0  0  0
   36.1901  -24.0156   10.1000 C   0  0  0  0  0  0  0  0  0  0  0  0
   35.0067  -23.5084   10.1904 O   0  0  0  0  0  0  0  0  0  0  0  0
   37.0253  -27.2357   12.5467 O   0  0  0  0  0  0  0  0  0  0  0  0
   35.6863  -26.9465   12.4018 C   0  0  0  0  0  0  0  0  0  0  0  0
   35.4527  -25.4757   12.0091 C   0  0  2  0  0  0  0  0  0  0  0  0
   36.4378  -25.0566   11.0087 N   0  0  0  0  0  0  0  0  0  0  0  0
   35.6534  -24.7007   13.2272 C   0  0  0  0  0  0  0  0  0  0  0  0
   36.6281  -23.7447   13.3224 O   0  0  0  0  0  0  0  0  0  0  0  0
   34.9151  -24.9087   14.2180 O   0  0  0  0  0  0  0  0  0  0  0  0
  2  1  1  6
  2 13  1  0
  3  2  1  0
  3  4  1  0
  4 12  1  0
  4  5  2  0
  5  6  1  0
  7  8  2  0
  7  6  1  0
  9  8  1  0
 10  9  2  0
 11 10  1  0
 11 12  2  0
 12  7  1  0
 13 20  1  0
 13 14  2  0
 15 16  1  0
 16 18  1  0
 17 16  2  0
 19 18  1  1
 19 21  1  0
 20 19  1  0
 21 26  1  0
 21 22  2  0
 25 24  1  1
 24 23  1  0
 25 27  1  0
 26 25  1  0
 27 28  1  0
 29 27  2  0
M  END
$$$$
