WNS.pdb
     RDKit          3D

 29 30  0  0  1  0  0  0  0  0999 V2000
   25.9265  -19.1052  -10.7412 N   0  0  0  0  0  0  0  0  0  0  0  0
   26.2703  -20.5162  -11.0091 C   0  0  1  0  0  0  0  0  0  0  0  0
   25.9101  -21.2709   -9.7904 C   0  0  0  0  0  0  0  0  0  0  0  0
   26.3758  -20.6426   -8.5453 C   0  0  0  0  0  0  0  0  0  0  0  0
   25.5556  -19.9683   -7.6459 C   0  0  0  0  0  0  0  0  0  0  0  0
   26.3538  -19.5403   -6.6647 N   0  0  0  0  0  0  0  0  0  0  0  0
   27.6380  -19.9083   -6.8912 C   0  0  0  0  0  0  0  0  0  0  0  0
   28.8186  -19.7367   -6.2028 C   0  0  0  0  0  0  0  0  0  0  0  0
   29.9981  -20.2532   -6.6941 C   0  0  0  0  0  0  0  0  0  0  0  0
   30.0566  -20.9600   -7.8869 C   0  0  0  0  0  0  0  0  0  0  0  0
   28.8732  -21.1251   -8.5654 C   0  0  0  0  0  0  0  0  0  0  0  0
   27.6754  -20.6056   -8.0719 C   0  0  0  0  0  0  0  0  0  0  0  0
   25.6689  -20.9082  -12.2706 C   0  0  0  0  0  0  0  0  0  0  0  0
   24.8973  -20.0664  -12.8514 O   0  0  0  0  0  0  0  0  0  0  0  0
   25.0964  -22.6790  -17.0981 N   0  0  0  0  0  0  0  0  0  0  0  0
   25.7824  -23.6848  -16.3412 C   0  0  0  0  0  0  0  0  0  0  0  0
   26.3043  -24.6788  -16.9129 O   0  0  0  0  0  0  0  0  0  0  0  0
   25.8986  -23.5871  -14.8852 C   0  0  0  0  0  0  0  0  0  0  0  0
   25.2251  -22.3589  -14.2924 C   0  0  2  0  0  0  0  0  0  0  0  0
   25.8299  -22.1252  -12.9594 N   0  0  0  0  0  0  0  0  0  0  0  0
   23.7708  -22.4810  -14.1930 C   0  0  0  0  0  0  0  0  0  0  0  0
   23.1195  -22.6055  -15.3003 O   0  0  0  0  0  0  0  0  0  0  0  0
   21.1833  -21.0627  -11.3109 O   0  0  0  0  0  0  0  0  0  0  0  0
   20.8685  -22.3299  -11.7500 C   0  0  0  0  0  0  0  0  0  0  0  0
   21.5037  -22.6409  -13.1183 C   0  0  2  0  0  0  0  0  0  0  0  0
   22.9588  -22.4846  -13.0477 N   0  0  0  0  0  0  0  0  0  0  0  0
   20.9639  -21.6519  -14.0429 C   0  0  0  0  0  0  0  0  0  0  0  0
   21.7451  -20.6668  -14.5835 O   0  0  0  0  0  0  0  0  0  0  0  0
   19.7521  -21.7002  -14.3579 O   0  0  0  0  0  0  0  0  0  0  0  0
  2  1  1  1
  2 13  1  0
  3  2  1  0
  3  4  1  0
  4 12  1  0
  4  5  2  0
  5  6  1  0
  7  8  2  0
  7  6  1  0
  9  8  1  0
 10  9  2  0
 11 10  1  0
 11 12  2  0
 12  7  1  0
 13 20  1  0
 13 14  2  0
 15 16  1  0
 16 18  1  0
 17 16  2  0
 19 18  1  1
 19 21  1  0
 20 19  1  0
 21 26  1  0
 21 22  2  0
 25 24  1  1
 24 23  1  0
 25 27  1  0
 26 25  1  0
 27 28  1  0
 29 27  2  0
M  END
$$$$
