WNS.pdb
     RDKit          3D

 29 30  0  0  1  0  0  0  0  0999 V2000
   25.1907  -21.0629   -9.2986 N   0  0  0  0  0  0  0  0  0  0  0  0
   26.3880  -20.3698   -9.8152 C   0  0  1  0  0  0  0  0  0  0  0  0
   27.5266  -20.8424   -8.9998 C   0  0  0  0  0  0  0  0  0  0  0  0
   27.6754  -20.1309   -7.7216 C   0  0  0  0  0  0  0  0  0  0  0  0
   26.9223  -19.0243   -7.3412 C   0  0  0  0  0  0  0  0  0  0  0  0
   27.3666  -18.6709   -6.1325 N   0  0  0  0  0  0  0  0  0  0  0  0
   28.3610  -19.4953   -5.7231 C   0  0  0  0  0  0  0  0  0  0  0  0
   29.1301  -19.5747   -4.5832 C   0  0  0  0  0  0  0  0  0  0  0  0
   30.0821  -20.5619   -4.4473 C   0  0  0  0  0  0  0  0  0  0  0  0
   30.3115  -21.5099   -5.4344 C   0  0  0  0  0  0  0  0  0  0  0  0
   29.5388  -21.4213   -6.5671 C   0  0  0  0  0  0  0  0  0  0  0  0
   28.5722  -20.4246   -6.7097 C   0  0  0  0  0  0  0  0  0  0  0  0
   26.4434  -20.5508  -11.2543 C   0  0  0  0  0  0  0  0  0  0  0  0
   27.3476  -21.3274  -11.7241 O   0  0  0  0  0  0  0  0  0  0  0  0
   25.6846  -23.3187  -14.3012 N   0  0  0  0  0  0  0  0  0  0  0  0
   24.8555  -23.2765  -13.1324 C   0  0  0  0  0  0  0  0  0  0  0  0
   24.5373  -24.3354  -12.5286 O   0  0  0  0  0  0  0  0  0  0  0  0
   24.3562  -22.0054  -12.6054 C   0  0  0  0  0  0  0  0  0  0  0  0
   24.9510  -20.7796  -13.2815 C   0  0  2  0  0  0  0  0  0  0  0  0
   25.6081  -19.9706  -12.2275 N   0  0  0  0  0  0  0  0  0  0  0  0
   23.9682  -19.9829  -14.0160 C   0  0  0  0  0  0  0  0  0  0  0  0
   22.9502  -19.5538  -13.3486 O   0  0  0  0  0  0  0  0  0  0  0  0
   23.9077  -19.5009  -18.0397 O   0  0  0  0  0  0  0  0  0  0  0  0
   23.2162  -18.4785  -17.4281 C   0  0  0  0  0  0  0  0  0  0  0  0
   22.8944  -18.7988  -15.9564 C   0  0  2  0  0  0  0  0  0  0  0  0
   23.9668  -19.6054  -15.3682 N   0  0  0  0  0  0  0  0  0  0  0  0
   21.6666  -19.5840  -15.9780 C   0  0  0  0  0  0  0  0  0  0  0  0
   20.4489  -19.0132  -16.2317 O   0  0  0  0  0  0  0  0  0  0  0  0
   21.7203  -20.8170  -15.7614 O   0  0  0  0  0  0  0  0  0  0  0  0
  2  1  1  1
  2 13  1  0
  3  2  1  0
  3  4  1  0
  4 12  1  0
  4  5  2  0
  5  6  1  0
  7  8  2  0
  7  6  1  0
  9  8  1  0
 10  9  2  0
 11 10  1  0
 11 12  2  0
 12  7  1  0
 13 20  1  0
 13 14  2  0
 15 16  1  0
 16 18  1  0
 17 16  2  0
 19 18  1  1
 19 21  1  0
 20 19  1  0
 21 26  1  0
 21 22  2  0
 25 24  1  6
 24 23  1  0
 25 27  1  0
 26 25  1  0
 27 28  1  0
 29 27  2  0
M  END
$$$$
