WNS.pdb
     RDKit          3D

 29 30  0  0  1  0  0  0  0  0999 V2000
   24.8958  -21.0438   -9.2016 N   0  0  0  0  0  0  0  0  0  0  0  0
   26.0786  -20.3076   -9.6914 C   0  0  1  0  0  0  0  0  0  0  0  0
   27.2100  -20.7205   -8.8346 C   0  0  0  0  0  0  0  0  0  0  0  0
   26.9580  -20.5471   -7.3964 C   0  0  0  0  0  0  0  0  0  0  0  0
   25.7610  -20.8621   -6.7607 C   0  0  0  0  0  0  0  0  0  0  0  0
   25.9314  -20.5503   -5.4734 N   0  0  0  0  0  0  0  0  0  0  0  0
   27.1739  -20.0555   -5.2564 C   0  0  0  0  0  0  0  0  0  0  0  0
   27.8446  -19.6082   -4.1395 C   0  0  0  0  0  0  0  0  0  0  0  0
   29.1458  -19.1641   -4.2341 C   0  0  0  0  0  0  0  0  0  0  0  0
   29.8355  -19.1445   -5.4382 C   0  0  0  0  0  0  0  0  0  0  0  0
   29.1571  -19.5928   -6.5457 C   0  0  0  0  0  0  0  0  0  0  0  0
   27.8397  -20.0450   -6.4557 C   0  0  0  0  0  0  0  0  0  0  0  0
   26.1864  -20.5053  -11.1253 C   0  0  0  0  0  0  0  0  0  0  0  0
   26.8871  -21.4941  -11.5407 O   0  0  0  0  0  0  0  0  0  0  0  0
   25.7977  -22.6419  -14.8080 N   0  0  0  0  0  0  0  0  0  0  0  0
   24.9180  -22.8293  -13.6917 C   0  0  0  0  0  0  0  0  0  0  0  0
   24.5599  -23.9845  -13.3393 O   0  0  0  0  0  0  0  0  0  0  0  0
   24.4117  -21.6873  -12.9284 C   0  0  0  0  0  0  0  0  0  0  0  0
   25.0007  -20.3505  -13.3522 C   0  0  2  0  0  0  0  0  0  0  0  0
   25.6028  -19.7325  -12.1470 N   0  0  0  0  0  0  0  0  0  0  0  0
   24.0252  -19.4517  -13.9691 C   0  0  0  0  0  0  0  0  0  0  0  0
   22.9123  -19.2786  -13.3386 O   0  0  0  0  0  0  0  0  0  0  0  0
   23.7854  -16.1956  -16.9987 O   0  0  0  0  0  0  0  0  0  0  0  0
   23.3604  -17.4955  -17.1632 C   0  0  0  0  0  0  0  0  0  0  0  0
   22.9507  -18.1423  -15.8268 C   0  0  2  0  0  0  0  0  0  0  0  0
   24.1205  -18.7317  -15.1705 N   0  0  0  0  0  0  0  0  0  0  0  0
   22.0123  -19.2042  -16.1684 C   0  0  0  0  0  0  0  0  0  0  0  0
   20.6826  -19.1207  -15.8559 O   0  0  0  0  0  0  0  0  0  0  0  0
   22.4274  -20.2237  -16.7669 O   0  0  0  0  0  0  0  0  0  0  0  0
  2  1  1  1
  2 13  1  0
  3  2  1  0
  3  4  1  0
  4 12  1  0
  4  5  2  0
  5  6  1  0
  7  8  2  0
  7  6  1  0
  9  8  1  0
 10  9  2  0
 11 10  1  0
 11 12  2  0
 12  7  1  0
 13 20  1  0
 13 14  2  0
 15 16  1  0
 16 18  1  0
 17 16  2  0
 19 18  1  1
 19 21  1  0
 20 19  1  0
 21 26  1  0
 21 22  2  0
 25 24  1  6
 24 23  1  0
 25 27  1  0
 26 25  1  0
 27 28  1  0
 29 27  2  0
M  END
$$$$
