WNS.pdb
     RDKit          3D

 29 30  0  0  1  0  0  0  0  0999 V2000
   24.3787  -16.2947  -17.3197 N   0  0  0  0  0  0  0  0  0  0  0  0
   24.3741  -17.3880  -16.3270 C   0  0  1  0  0  0  0  0  0  0  0  0
   25.3839  -17.0299  -15.3088 C   0  0  0  0  0  0  0  0  0  0  0  0
   26.6788  -16.6250  -15.8756 C   0  0  0  0  0  0  0  0  0  0  0  0
   27.5032  -17.4522  -16.6322 C   0  0  0  0  0  0  0  0  0  0  0  0
   28.5771  -16.7217  -16.9430 N   0  0  0  0  0  0  0  0  0  0  0  0
   28.4784  -15.4732  -16.4259 C   0  0  0  0  0  0  0  0  0  0  0  0
   29.2830  -14.3558  -16.4622 C   0  0  0  0  0  0  0  0  0  0  0  0
   28.8957  -13.1923  -15.8331 C   0  0  0  0  0  0  0  0  0  0  0  0
   27.6966  -13.0882  -15.1424 C   0  0  0  0  0  0  0  0  0  0  0  0
   26.9019  -14.2088  -15.1125 C   0  0  0  0  0  0  0  0  0  0  0  0
   27.2884  -15.3893  -15.7490 C   0  0  0  0  0  0  0  0  0  0  0  0
   23.0070  -17.6177  -15.8970 C   0  0  0  0  0  0  0  0  0  0  0  0
   22.4777  -16.7600  -15.1060 O   0  0  0  0  0  0  0  0  0  0  0  0
   19.5447  -16.4397  -16.6858 N   0  0  0  0  0  0  0  0  0  0  0  0
   19.2789  -17.6634  -17.3835 C   0  0  0  0  0  0  0  0  0  0  0  0
   18.5417  -17.6767  -18.4051 O   0  0  0  0  0  0  0  0  0  0  0  0
   19.8555  -18.9311  -16.9327 C   0  0  0  0  0  0  0  0  0  0  0  0
   20.7779  -18.7978  -15.7305 C   0  0  2  0  0  0  0  0  0  0  0  0
   22.1626  -18.6879  -16.2479 N   0  0  0  0  0  0  0  0  0  0  0  0
   20.6610  -19.9029  -14.7791 C   0  0  0  0  0  0  0  0  0  0  0  0
   21.1437  -21.0419  -15.1471 O   0  0  0  0  0  0  0  0  0  0  0  0
   18.8587  -19.8031  -11.0153 O   0  0  0  0  0  0  0  0  0  0  0  0
   19.8869  -20.7064  -11.1721 C   0  0  0  0  0  0  0  0  0  0  0  0
   20.0859  -21.1039  -12.6468 C   0  0  2  0  0  0  0  0  0  0  0  0
   20.0909  -19.9102  -13.4962 N   0  0  0  0  0  0  0  0  0  0  0  0
   18.9373  -21.9306  -12.9958 C   0  0  0  0  0  0  0  0  0  0  0  0
   18.0060  -21.5228  -13.9120 O   0  0  0  0  0  0  0  0  0  0  0  0
   18.7934  -23.0479  -12.4473 O   0  0  0  0  0  0  0  0  0  0  0  0
  2  1  1  6
  2 13  1  0
  3  2  1  0
  3  4  1  0
  4 12  1  0
  4  5  2  0
  5  6  1  0
  7  8  2  0
  7  6  1  0
  9  8  1  0
 10  9  2  0
 11 10  1  0
 11 12  2  0
 12  7  1  0
 13 20  1  0
 13 14  2  0
 15 16  1  0
 16 18  1  0
 17 16  2  0
 19 18  1  6
 19 21  1  0
 20 19  1  0
 21 26  1  0
 21 22  2  0
 25 24  1  1
 24 23  1  0
 25 27  1  0
 26 25  1  0
 27 28  1  0
 29 27  2  0
M  END
$$$$
