SRM.pdb
     RDKit          3D

 26 25  0  0  1  0  0  0  0  0999 V2000
   10.0210  -11.7965   18.2352 O   0  0  0  0  0  0  0  0  0  0  0  0
    9.2336  -12.4189   19.2180 C   0  0  0  0  0  0  0  0  0  0  0  0
    8.6086  -13.6867   18.6748 C   0  0  2  0  0  0  0  0  0  0  0  0
    7.4359  -13.2485   17.9055 N   0  0  0  0  0  0  0  0  0  0  0  0
    8.2109  -14.5570   19.7984 C   0  0  0  0  0  0  0  0  0  0  0  0
    7.1154  -14.3411   20.3704 O   0  0  0  0  0  0  0  0  0  0  0  0
   11.0398  -19.5477   24.6008 N   0  0  0  0  0  0  0  0  0  0  0  0
   10.3045  -20.7471   24.4041 C   0  0  0  0  0  0  0  0  0  0  0  0
   10.2674  -21.5955   25.3673 N   0  0  0  0  0  0  0  0  0  0  0  0
    9.6211  -21.0250   23.1886 N   0  0  0  0  0  0  0  0  0  0  0  0
    9.6288  -20.1231   22.0722 C   0  0  0  0  0  0  0  0  0  0  0  0
    8.9898  -18.8040   22.3579 C   0  0  0  0  0  0  0  0  0  0  0  0
    9.3031  -17.8504   21.2280 C   0  0  0  0  0  0  0  0  0  0  0  0
    8.5875  -16.5439   21.3016 C   0  0  2  0  0  0  0  0  0  0  0  0
    9.0087  -15.6285   20.2638 N   0  0  0  0  0  0  0  0  0  0  0  0
    8.9038  -15.9730   22.6634 C   0  0  0  0  0  0  0  0  0  0  0  0
   10.0550  -15.5086   22.8433 O   0  0  0  0  0  0  0  0  0  0  0  0
    9.7503  -22.4986   25.3093 C   0  0  0  0  0  0  0  0  0  0  0  0
    6.5704  -10.6827   26.8790 S   0  0  0  0  0  0  0  0  0  0  0  0
    6.1106  -12.4323   27.1345 C   0  0  0  0  0  0  0  0  0  0  0  0
    7.3338  -13.5893   26.6317 C   0  0  0  0  0  0  0  0  0  0  0  0
    7.1744  -14.3432   25.3967 C   0  0  2  0  0  0  0  0  0  0  0  0
    8.1968  -15.2764   24.9458 N   0  0  0  0  0  0  0  0  0  0  0  0
    7.9590  -15.9561   23.6964 C   0  0  0  0  0  0  0  0  0  0  0  0
    8.8179  -16.2037   25.8858 O   0  0  0  0  0  0  0  0  0  0  0  0
   10.0255  -15.7780   26.5003 O   0  0  0  0  0  0  0  0  0  0  0  0
  1  2  1  0
  2  3  1  0
  3  4  1  1
  5  3  1  0
  5  6  2  0
  7  8  1  0
  8 10  1  0
  9  8  2  0
 10 11  1  0
 11 12  1  0
 12 13  1  0
 14 15  1  0
 14 13  1  6
 15  5  1  0
 16 14  1  0
 17 16  2  0
 18 19  1  0
 20 21  1  0
 20 19  1  0
 22 21  1  6
 22 24  1  0
 22 23  1  0
 23 16  1  0
 24 25  1  0
 26 24  2  0
M  END
$$$$
