SRM.pdb
     RDKit          3D

 26 25  0  0  1  0  0  0  0  0999 V2000
   11.8315  -19.6397   23.8093 O   0  0  0  0  0  0  0  0  0  0  0  0
   11.1874  -20.0172   22.6194 C   0  0  0  0  0  0  0  0  0  0  0  0
   11.6235  -19.1289   21.4733 C   0  0  2  0  0  0  0  0  0  0  0  0
   13.0921  -19.1766   21.4758 N   0  0  0  0  0  0  0  0  0  0  0  0
   11.1371  -17.7551   21.7059 C   0  0  0  0  0  0  0  0  0  0  0  0
   11.9534  -16.8825   22.0882 O   0  0  0  0  0  0  0  0  0  0  0  0
    7.3335  -12.8872   16.6985 N   0  0  0  0  0  0  0  0  0  0  0  0
    8.3486  -13.7458   17.1985 C   0  0  0  0  0  0  0  0  0  0  0  0
    9.2624  -14.1356   16.3847 N   0  0  0  0  0  0  0  0  0  0  0  0
    8.3766  -14.1757   18.5535 N   0  0  0  0  0  0  0  0  0  0  0  0
    7.3977  -13.7612   19.5177 C   0  0  0  0  0  0  0  0  0  0  0  0
    7.6414  -14.2931   20.8917 C   0  0  0  0  0  0  0  0  0  0  0  0
    8.1598  -15.7089   20.7867 C   0  0  0  0  0  0  0  0  0  0  0  0
    9.3147  -16.0152   21.6793 C   0  0  2  0  0  0  0  0  0  0  0  0
    9.7883  -17.3723   21.5174 N   0  0  0  0  0  0  0  0  0  0  0  0
    8.8192  -15.7982   23.0892 C   0  0  0  0  0  0  0  0  0  0  0  0
    8.1066  -16.6968   23.5972 O   0  0  0  0  0  0  0  0  0  0  0  0
    9.9725  -14.8575   16.6314 C   0  0  0  0  0  0  0  0  0  0  0  0
    5.9753  -10.7358   28.2812 S   0  0  0  0  0  0  0  0  0  0  0  0
    5.9164  -11.6467   26.6987 C   0  0  0  0  0  0  0  0  0  0  0  0
    7.0883  -12.9489   26.5620 C   0  0  0  0  0  0  0  0  0  0  0  0
    7.6174  -13.3333   25.2615 C   0  0  2  0  0  0  0  0  0  0  0  0
    8.6058  -14.3944   25.1334 N   0  0  0  0  0  0  0  0  0  0  0  0
    9.1339  -14.6429   23.8147 C   0  0  0  0  0  0  0  0  0  0  0  0
    8.4183  -15.6668   25.8227 O   0  0  0  0  0  0  0  0  0  0  0  0
    9.1657  -15.8648   27.0140 O   0  0  0  0  0  0  0  0  0  0  0  0
  1  2  1  0
  2  3  1  0
  3  4  1  1
  5  3  1  0
  5  6  2  0
  7  8  1  0
  8 10  1  0
  9  8  2  0
 10 11  1  0
 11 12  1  0
 12 13  1  0
 14 15  1  0
 14 13  1  6
 15  5  1  0
 16 14  1  0
 17 16  2  0
 18 19  1  0
 20 21  1  0
 20 19  1  0
 22 21  1  1
 22 24  1  0
 22 23  1  0
 23 16  1  0
 24 25  1  0
 26 24  2  0
M  END
$$$$
