SRM.pdb
     RDKit          3D

 26 25  0  0  1  0  0  0  0  0999 V2000
   13.7608  -19.4140   22.3249 O   0  0  0  0  0  0  0  0  0  0  0  0
   13.5920  -19.2669   20.9381 C   0  0  0  0  0  0  0  0  0  0  0  0
   13.8545  -17.8356   20.5190 C   0  0  2  0  0  0  0  0  0  0  0  0
   15.2451  -17.5613   20.9063 N   0  0  0  0  0  0  0  0  0  0  0  0
   12.9200  -16.9389   21.2267 C   0  0  0  0  0  0  0  0  0  0  0  0
   13.3584  -16.2278   22.1627 O   0  0  0  0  0  0  0  0  0  0  0  0
    8.1232  -13.3913   16.8032 N   0  0  0  0  0  0  0  0  0  0  0  0
    7.8889  -14.2235   17.9304 C   0  0  0  0  0  0  0  0  0  0  0  0
    8.0427  -15.4902   17.7860 N   0  0  0  0  0  0  0  0  0  0  0  0
    7.4958  -13.6967   19.1912 N   0  0  0  0  0  0  0  0  0  0  0  0
    7.2851  -14.5245   20.3445 C   0  0  0  0  0  0  0  0  0  0  0  0
    8.4751  -14.6243   21.2411 C   0  0  0  0  0  0  0  0  0  0  0  0
    9.4035  -15.6921   20.7099 C   0  0  0  0  0  0  0  0  0  0  0  0
   10.6481  -15.8863   21.5083 C   0  0  2  0  0  0  0  0  0  0  0  0
   11.5473  -16.8415   20.8990 N   0  0  0  0  0  0  0  0  0  0  0  0
   10.1997  -16.3798   22.8633 C   0  0  0  0  0  0  0  0  0  0  0  0
   10.1840  -17.6198   23.0518 O   0  0  0  0  0  0  0  0  0  0  0  0
    7.8857  -16.1730   18.5576 C   0  0  0  0  0  0  0  0  0  0  0  0
   10.8627  -14.1437   30.1453 S   0  0  0  0  0  0  0  0  0  0  0  0
    9.5313  -13.9770   28.9054 C   0  0  0  0  0  0  0  0  0  0  0  0
    9.5121  -15.2374   27.6812 C   0  0  0  0  0  0  0  0  0  0  0  0
    9.6116  -14.8975   26.2692 C   0  0  2  0  0  0  0  0  0  0  0  0
    9.6306  -15.9313   25.2444 N   0  0  0  0  0  0  0  0  0  0  0  0
    9.8125  -15.4994   23.8806 C   0  0  0  0  0  0  0  0  0  0  0  0
    8.6627  -17.0227   25.2770 O   0  0  0  0  0  0  0  0  0  0  0  0
    8.1405  -17.4517   24.0278 O   0  0  0  0  0  0  0  0  0  0  0  0
  1  2  1  0
  2  3  1  0
  3  4  1  1
  5  3  1  0
  5  6  2  0
  7  8  1  0
  8 10  1  0
  9  8  2  0
 10 11  1  0
 11 12  1  0
 12 13  1  0
 14 15  1  0
 14 13  1  6
 15  5  1  0
 16 14  1  0
 17 16  2  0
 18 19  1  0
 20 21  1  0
 20 19  1  0
 22 21  1  1
 22 24  1  0
 22 23  1  0
 23 16  1  0
 24 25  1  0
 26 24  2  0
M  END
$$$$
