SRM.pdb
     RDKit          3D

 26 25  0  0  1  0  0  0  0  0999 V2000
    6.6937  -19.7917   25.8182 O   0  0  0  0  0  0  0  0  0  0  0  0
    5.5532  -19.5676   25.0293 C   0  0  0  0  0  0  0  0  0  0  0  0
    5.8569  -19.8283   23.5689 C   0  0  2  0  0  0  0  0  0  0  0  0
    6.1525  -21.2648   23.4792 N   0  0  0  0  0  0  0  0  0  0  0  0
    7.0220  -19.0203   23.1591 C   0  0  0  0  0  0  0  0  0  0  0  0
    8.1598  -19.5483   23.1802 O   0  0  0  0  0  0  0  0  0  0  0  0
    7.9051  -12.8573   16.9248 N   0  0  0  0  0  0  0  0  0  0  0  0
    8.1034  -12.8489   18.3313 C   0  0  0  0  0  0  0  0  0  0  0  0
    8.2377  -11.7123   18.9137 N   0  0  0  0  0  0  0  0  0  0  0  0
    8.1553  -14.0469   19.0954 N   0  0  0  0  0  0  0  0  0  0  0  0
    6.9835  -14.8085   19.4219 C   0  0  0  0  0  0  0  0  0  0  0  0
    7.2694  -16.0538   20.1949 C   0  0  0  0  0  0  0  0  0  0  0  0
    7.7164  -15.6764   21.5885 C   0  0  0  0  0  0  0  0  0  0  0  0
    8.0621  -16.8330   22.4644 C   0  0  2  0  0  0  0  0  0  0  0  0
    6.9174  -17.6728   22.7413 N   0  0  0  0  0  0  0  0  0  0  0  0
    8.5976  -16.2387   23.7452 C   0  0  0  0  0  0  0  0  0  0  0  0
    7.9536  -15.2923   24.2579 O   0  0  0  0  0  0  0  0  0  0  0  0
    8.4641  -11.6163   19.9265 C   0  0  0  0  0  0  0  0  0  0  0  0
   10.1594  -13.3117   29.8839 S   0  0  0  0  0  0  0  0  0  0  0  0
    9.7908  -13.8475   28.1766 C   0  0  0  0  0  0  0  0  0  0  0  0
    9.5501  -15.5782   27.9908 C   0  0  0  0  0  0  0  0  0  0  0  0
    9.2192  -16.1428   26.6904 C   0  0  2  0  0  0  0  0  0  0  0  0
   10.2172  -16.2409   25.6351 N   0  0  0  0  0  0  0  0  0  0  0  0
    9.7675  -16.7145   24.3494 C   0  0  0  0  0  0  0  0  0  0  0  0
   11.5378  -16.7947   25.9153 O   0  0  0  0  0  0  0  0  0  0  0  0
   12.2385  -16.2480   27.0231 O   0  0  0  0  0  0  0  0  0  0  0  0
  1  2  1  0
  2  3  1  0
  3  4  1  1
  5  3  1  0
  5  6  2  0
  7  8  1  0
  8 10  1  0
  9  8  2  0
 10 11  1  0
 11 12  1  0
 12 13  1  0
 14 15  1  0
 14 13  1  6
 15  5  1  0
 16 14  1  0
 17 16  2  0
 18 19  1  0
 20 21  1  0
 20 19  1  0
 22 21  1  6
 22 24  1  0
 22 23  1  0
 23 16  1  0
 24 25  1  0
 26 24  2  0
M  END
$$$$
