SRM.pdb
     RDKit          3D

 26 25  0  0  1  0  0  0  0  0999 V2000
    9.6089  -11.9616   18.5341 O   0  0  0  0  0  0  0  0  0  0  0  0
    9.2491  -12.7708   19.6245 C   0  0  0  0  0  0  0  0  0  0  0  0
    8.5618  -14.0327   19.1467 C   0  0  2  0  0  0  0  0  0  0  0  0
    7.3621  -13.5794   18.4295 N   0  0  0  0  0  0  0  0  0  0  0  0
    8.2011  -14.8648   20.3110 C   0  0  0  0  0  0  0  0  0  0  0  0
    7.0774  -14.7014   20.8445 O   0  0  0  0  0  0  0  0  0  0  0  0
   13.1190  -19.8696   23.0725 N   0  0  0  0  0  0  0  0  0  0  0  0
   12.2776  -20.1054   21.9526 C   0  0  0  0  0  0  0  0  0  0  0  0
   12.8344  -20.3186   20.8153 N   0  0  0  0  0  0  0  0  0  0  0  0
   10.8597  -20.1113   22.0594 N   0  0  0  0  0  0  0  0  0  0  0  0
   10.1763  -19.9190   23.3066 C   0  0  0  0  0  0  0  0  0  0  0  0
    9.2609  -18.7392   23.3172 C   0  0  0  0  0  0  0  0  0  0  0  0
    9.5992  -17.8431   22.1481 C   0  0  0  0  0  0  0  0  0  0  0  0
    8.7399  -16.6302   22.0262 C   0  0  2  0  0  0  0  0  0  0  0  0
    9.0650  -15.8428   20.8571 N   0  0  0  0  0  0  0  0  0  0  0  0
    8.9765  -15.8255   23.2819 C   0  0  0  0  0  0  0  0  0  0  0  0
   10.0896  -15.2609   23.4066 O   0  0  0  0  0  0  0  0  0  0  0  0
   12.2934  -20.4947   19.9421 C   0  0  0  0  0  0  0  0  0  0  0  0
    5.8914  -10.3998   25.3946 S   0  0  0  0  0  0  0  0  0  0  0  0
    5.9692  -11.5621   26.8019 C   0  0  0  0  0  0  0  0  0  0  0  0
    7.1905  -12.8159   26.6463 C   0  0  0  0  0  0  0  0  0  0  0  0
    7.1263  -13.7788   25.5563 C   0  0  2  0  0  0  0  0  0  0  0  0
    8.1474  -14.8036   25.3945 N   0  0  0  0  0  0  0  0  0  0  0  0
    8.0006  -15.7050   24.2786 C   0  0  0  0  0  0  0  0  0  0  0  0
    8.6389  -15.5467   26.5501 O   0  0  0  0  0  0  0  0  0  0  0  0
    9.4561  -14.8347   27.4678 O   0  0  0  0  0  0  0  0  0  0  0  0
  1  2  1  0
  2  3  1  0
  3  4  1  1
  5  3  1  0
  5  6  2  0
  7  8  1  0
  8 10  1  0
  9  8  2  0
 10 11  1  0
 11 12  1  0
 12 13  1  0
 14 15  1  0
 14 13  1  1
 15  5  1  0
 16 14  1  0
 17 16  2  0
 18 19  1  0
 20 21  1  0
 20 19  1  0
 22 21  1  6
 22 24  1  0
 22 23  1  0
 23 16  1  0
 24 25  1  0
 26 24  2  0
M  END
$$$$
