SRM.pdb
     RDKit          3D

 26 25  0  0  1  0  0  0  0  0999 V2000
    9.1052  -12.1660   19.9710 O   0  0  0  0  0  0  0  0  0  0  0  0
    9.1567  -13.1117   18.9336 C   0  0  0  0  0  0  0  0  0  0  0  0
    7.9820  -14.0631   19.0222 C   0  0  2  0  0  0  0  0  0  0  0  0
    6.7863  -13.2299   18.8348 N   0  0  0  0  0  0  0  0  0  0  0  0
    7.9749  -14.7104   20.3485 C   0  0  0  0  0  0  0  0  0  0  0  0
    7.0668  -14.4115   21.1609 O   0  0  0  0  0  0  0  0  0  0  0  0
   13.1486  -21.1849   23.8870 N   0  0  0  0  0  0  0  0  0  0  0  0
   11.7978  -21.4766   24.2158 C   0  0  0  0  0  0  0  0  0  0  0  0
   11.5457  -22.5998   24.7849 N   0  0  0  0  0  0  0  0  0  0  0  0
   10.7381  -20.5711   23.9352 N   0  0  0  0  0  0  0  0  0  0  0  0
   10.9463  -19.3193   23.2648 C   0  0  0  0  0  0  0  0  0  0  0  0
    9.7287  -18.4567   23.2059 C   0  0  0  0  0  0  0  0  0  0  0  0
    9.7979  -17.5914   21.9687 C   0  0  0  0  0  0  0  0  0  0  0  0
    8.8359  -16.4518   21.9532 C   0  0  2  0  0  0  0  0  0  0  0  0
    8.9469  -15.6565   20.7501 N   0  0  0  0  0  0  0  0  0  0  0  0
    9.1639  -15.6147   23.1664 C   0  0  0  0  0  0  0  0  0  0  0  0
   10.1868  -14.8908   23.1111 O   0  0  0  0  0  0  0  0  0  0  0  0
   10.5853  -22.8914   25.0657 C   0  0  0  0  0  0  0  0  0  0  0  0
    5.2727  -11.6121   26.4050 S   0  0  0  0  0  0  0  0  0  0  0  0
    6.9336  -11.4397   27.1461 C   0  0  0  0  0  0  0  0  0  0  0  0
    8.0074  -12.7998   26.8550 C   0  0  0  0  0  0  0  0  0  0  0  0
    7.7829  -13.6898   25.7251 C   0  0  2  0  0  0  0  0  0  0  0  0
    8.6610  -14.8229   25.4719 N   0  0  0  0  0  0  0  0  0  0  0  0
    8.3668  -15.6352   24.3173 C   0  0  0  0  0  0  0  0  0  0  0  0
    9.0908  -15.6849   26.5680 O   0  0  0  0  0  0  0  0  0  0  0  0
    9.7912  -15.0616   27.6347 O   0  0  0  0  0  0  0  0  0  0  0  0
  1  2  1  0
  2  3  1  0
  3  4  1  1
  5  3  1  0
  5  6  2  0
  7  8  1  0
  8 10  1  0
  9  8  2  0
 10 11  1  0
 11 12  1  0
 12 13  1  0
 14 15  1  0
 14 13  1  6
 15  5  1  0
 16 14  1  0
 17 16  2  0
 18 19  1  0
 20 21  1  0
 20 19  1  0
 22 21  1  6
 22 24  1  0
 22 23  1  0
 23 16  1  0
 24 25  1  0
 26 24  2  0
M  END
$$$$
