SRM.pdb
     RDKit          3D

 26 25  0  0  1  0  0  0  0  0999 V2000
    6.5125  -19.7464   22.2456 O   0  0  0  0  0  0  0  0  0  0  0  0
    5.5908  -19.1134   21.3954 C   0  0  0  0  0  0  0  0  0  0  0  0
    6.2863  -18.5766   20.1620 C   0  0  2  0  0  0  0  0  0  0  0  0
    6.9907  -19.7255   19.5766 N   0  0  0  0  0  0  0  0  0  0  0  0
    7.2352  -17.5175   20.5568 C   0  0  0  0  0  0  0  0  0  0  0  0
    8.4303  -17.8294   20.7766 O   0  0  0  0  0  0  0  0  0  0  0  0
    8.1400  -14.2082   15.1464 N   0  0  0  0  0  0  0  0  0  0  0  0
    8.7913  -14.1600   16.4079 C   0  0  0  0  0  0  0  0  0  0  0  0
    9.4436  -15.1984   16.7888 N   0  0  0  0  0  0  0  0  0  0  0  0
    8.7392  -13.0103   17.2430 N   0  0  0  0  0  0  0  0  0  0  0  0
    8.6394  -13.0953   18.6721 C   0  0  0  0  0  0  0  0  0  0  0  0
    7.3449  -13.6629   19.1538 C   0  0  0  0  0  0  0  0  0  0  0  0
    7.3884  -13.7788   20.6601 C   0  0  0  0  0  0  0  0  0  0  0  0
    7.7615  -15.1304   21.1685 C   0  0  2  0  0  0  0  0  0  0  0  0
    6.8609  -16.1607   20.6996 N   0  0  0  0  0  0  0  0  0  0  0  0
    7.7107  -15.0364   22.6748 C   0  0  0  0  0  0  0  0  0  0  0  0
    6.5807  -14.9456   23.2115 O   0  0  0  0  0  0  0  0  0  0  0  0
    9.9428  -15.2522   17.7021 C   0  0  0  0  0  0  0  0  0  0  0  0
    5.9863  -12.0750   27.0951 S   0  0  0  0  0  0  0  0  0  0  0  0
    7.4232  -13.0764   27.6150 C   0  0  0  0  0  0  0  0  0  0  0  0
    7.4368  -14.7161   26.9835 C   0  0  0  0  0  0  0  0  0  0  0  0
    7.5677  -14.9562   25.5536 C   0  0  2  0  0  0  0  0  0  0  0  0
    8.8466  -14.7977   24.8765 N   0  0  0  0  0  0  0  0  0  0  0  0
    8.8721  -15.0479   23.4566 C   0  0  0  0  0  0  0  0  0  0  0  0
   10.0708  -15.3170   25.4773 O   0  0  0  0  0  0  0  0  0  0  0  0
   10.5543  -16.5544   24.9752 O   0  0  0  0  0  0  0  0  0  0  0  0
  1  2  1  0
  2  3  1  0
  3  4  1  1
  5  3  1  0
  5  6  2  0
  7  8  1  0
  8 10  1  0
  9  8  2  0
 10 11  1  0
 11 12  1  0
 12 13  1  0
 14 15  1  0
 14 13  1  6
 15  5  1  0
 16 14  1  0
 17 16  2  0
 18 19  1  0
 20 21  1  0
 20 19  1  0
 22 21  1  6
 22 24  1  0
 22 23  1  0
 23 16  1  0
 24 25  1  0
 26 24  2  0
M  END
$$$$
