SPK.pdb
     RDKit          3D

 23 23  0  0  1  0  0  0  0  0999 V2000
   28.4432  -17.6975  -17.6807 O   0  0  0  0  0  0  0  0  0  0  0  0
   27.8791  -18.5596  -16.7642 C   0  0  0  0  0  0  0  0  0  0  0  0
   28.6472  -19.8679  -16.5905 C   0  0  2  0  0  0  0  0  0  0  0  0
   28.4024  -20.6110  -17.8445 N   0  0  0  0  0  0  0  0  0  0  0  0
   28.1001  -20.6662  -15.4731 C   0  0  0  0  0  0  0  0  0  0  0  0
   27.2942  -21.6007  -15.7838 O   0  0  0  0  0  0  0  0  0  0  0  0
   28.3903  -20.4870  -14.1100 N   0  0  0  0  0  0  0  0  0  0  0  0
   29.2272  -19.4222  -13.5797 C   0  0  0  0  0  0  0  0  0  0  0  0
   30.0604  -20.1586  -12.5583 C   0  0  0  0  0  0  0  0  0  0  0  0
   29.1911  -21.2691  -12.0657 C   0  0  0  0  0  0  0  0  0  0  0  0
   27.9855  -21.2476  -12.9553 C   0  0  1  0  0  0  0  0  0  0  0  0
   26.8202  -20.5917  -12.2542 C   0  0  0  0  0  0  0  0  0  0  0  0
   26.8162  -19.3347  -12.2297 O   0  0  0  0  0  0  0  0  0  0  0  0
   25.7717  -21.2871  -11.6447 N   0  0  0  0  0  0  0  0  0  0  0  0
   24.5549  -20.6157  -11.1500 C   0  0  1  0  0  0  0  0  0  0  0  0
   23.3722  -21.3091  -11.8129 C   0  0  0  0  0  0  0  0  0  0  0  0
   22.0466  -20.7753  -11.3947 C   0  0  0  0  0  0  0  0  0  0  0  0
   20.8890  -21.4578  -12.0874 C   0  0  0  0  0  0  0  0  0  0  0  0
   19.6236  -20.7262  -11.6410 C   0  0  0  0  0  0  0  0  0  0  0  0
   18.5141  -21.3728  -12.3319 N   0  0  0  0  0  0  0  0  0  0  0  0
   24.4962  -20.6816   -9.6741 C   0  0  0  0  0  0  0  0  0  0  0  0
   23.9336  -19.6576   -8.9339 O   0  0  0  0  0  0  0  0  0  0  0  0
   24.9577  -21.6707   -9.0679 O   0  0  0  0  0  0  0  0  0  0  0  0
  1  2  1  0
  2  3  1  0
  3  5  1  0
  3  4  1  6
  5  6  2  0
  7 11  1  0
  7  5  1  0
  8  7  1  0
  9  8  1  0
  9 10  1  0
 10 11  1  0
 11 12  1  1
 12 13  2  0
 12 14  1  0
 14 15  1  0
 15 21  1  0
 15 16  1  6
 17 16  1  0
 18 19  1  0
 18 17  1  0
 20 19  1  0
 21 23  2  0
 21 22  1  0
M  END
$$$$
