SPK.pdb
     RDKit          3D

 23 23  0  0  1  0  0  0  0  0999 V2000
   27.5109  -21.4770  -17.9952 O   0  0  0  0  0  0  0  0  0  0  0  0
   26.4740  -22.1806  -17.4195 C   0  0  0  0  0  0  0  0  0  0  0  0
   26.8796  -22.9804  -16.1835 C   0  0  2  0  0  0  0  0  0  0  0  0
   27.3005  -24.2943  -16.7137 N   0  0  0  0  0  0  0  0  0  0  0  0
   25.7266  -23.1993  -15.2848 C   0  0  0  0  0  0  0  0  0  0  0  0
   25.0851  -24.2876  -15.4386 O   0  0  0  0  0  0  0  0  0  0  0  0
   25.2811  -22.3203  -14.2832 N   0  0  0  0  0  0  0  0  0  0  0  0
   25.8444  -21.0026  -14.0344 C   0  0  0  0  0  0  0  0  0  0  0  0
   25.9191  -20.9741  -12.5267 C   0  0  0  0  0  0  0  0  0  0  0  0
   24.7880  -21.8301  -12.0586 C   0  0  0  0  0  0  0  0  0  0  0  0
   24.2396  -22.4680  -13.2987 C   0  0  1  0  0  0  0  0  0  0  0  0
   22.9740  -21.7719  -13.7384 C   0  0  0  0  0  0  0  0  0  0  0  0
   23.1167  -20.6800  -14.3452 O   0  0  0  0  0  0  0  0  0  0  0  0
   21.6840  -22.2612  -13.5132 N   0  0  0  0  0  0  0  0  0  0  0  0
   20.4799  -21.6079  -14.0604 C   0  0  1  0  0  0  0  0  0  0  0  0
   19.3358  -22.6015  -13.9090 C   0  0  0  0  0  0  0  0  0  0  0  0
   18.0326  -22.1071  -14.4327 C   0  0  0  0  0  0  0  0  0  0  0  0
   16.9174  -23.1184  -14.2937 C   0  0  0  0  0  0  0  0  0  0  0  0
   15.6646  -22.4661  -14.8775 C   0  0  0  0  0  0  0  0  0  0  0  0
   14.5778  -23.4168  -14.6737 N   0  0  0  0  0  0  0  0  0  0  0  0
   20.2215  -20.3343  -13.3552 C   0  0  0  0  0  0  0  0  0  0  0  0
   19.6577  -19.2549  -14.0110 O   0  0  0  0  0  0  0  0  0  0  0  0
   20.5109  -20.2121  -12.1469 O   0  0  0  0  0  0  0  0  0  0  0  0
  1  2  1  0
  2  3  1  0
  3  5  1  0
  3  4  1  6
  5  6  2  0
  7 11  1  0
  7  5  1  0
  8  7  1  0
  9  8  1  0
  9 10  1  0
 10 11  1  0
 11 12  1  6
 12 13  2  0
 12 14  1  0
 14 15  1  0
 15 21  1  0
 15 16  1  1
 17 16  1  0
 18 19  1  0
 18 17  1  0
 20 19  1  0
 21 23  2  0
 21 22  1  0
M  END
$$$$
