SPK.pdb
     RDKit          3D

 23 23  0  0  1  0  0  0  0  0999 V2000
   16.7973  -10.1452  -17.2251 O   0  0  0  0  0  0  0  0  0  0  0  0
   16.8765   -9.9112  -15.8685 C   0  0  0  0  0  0  0  0  0  0  0  0
   18.0855  -10.5600  -15.1979 C   0  0  2  0  0  0  0  0  0  0  0  0
   17.7545  -11.9998  -15.1497 N   0  0  0  0  0  0  0  0  0  0  0  0
   18.2477  -10.0827  -13.8083 C   0  0  0  0  0  0  0  0  0  0  0  0
   17.7511  -10.8156  -12.8943 O   0  0  0  0  0  0  0  0  0  0  0  0
   18.8978   -8.9021  -13.4109 N   0  0  0  0  0  0  0  0  0  0  0  0
   19.4713   -7.9295  -14.3279 C   0  0  0  0  0  0  0  0  0  0  0  0
   20.7857   -7.6063  -13.6590 C   0  0  0  0  0  0  0  0  0  0  0  0
   20.5366   -7.7751  -12.1958 C   0  0  0  0  0  0  0  0  0  0  0  0
   19.1665   -8.3738  -12.0978 C   0  0  1  0  0  0  0  0  0  0  0  0
   18.1531   -7.3208  -11.7183 C   0  0  0  0  0  0  0  0  0  0  0  0
   17.3814   -6.9307  -12.6310 O   0  0  0  0  0  0  0  0  0  0  0  0
   18.0287   -6.7681  -10.4402 N   0  0  0  0  0  0  0  0  0  0  0  0
   16.7323   -6.3362   -9.8843 C   0  0  1  0  0  0  0  0  0  0  0  0
   15.8744   -7.5874   -9.7513 C   0  0  0  0  0  0  0  0  0  0  0  0
   14.5241   -7.3360   -9.1767 C   0  0  0  0  0  0  0  0  0  0  0  0
   13.6679   -8.5804   -9.1122 C   0  0  0  0  0  0  0  0  0  0  0  0
   12.2730   -8.1259   -8.6840 C   0  0  0  0  0  0  0  0  0  0  0  0
   11.4271   -9.3130   -8.7255 N   0  0  0  0  0  0  0  0  0  0  0  0
   16.9322   -5.6459   -8.5921 C   0  0  0  0  0  0  0  0  0  0  0  0
   16.1898   -4.5285   -8.2555 O   0  0  0  0  0  0  0  0  0  0  0  0
   17.7813   -6.0642   -7.7781 O   0  0  0  0  0  0  0  0  0  0  0  0
  1  2  1  0
  2  3  1  0
  3  5  1  0
  3  4  1  1
  5  6  2  0
  7 11  1  0
  7  5  1  0
  8  7  1  0
  9  8  1  0
  9 10  1  0
 10 11  1  0
 11 12  1  6
 12 13  2  0
 12 14  1  0
 14 15  1  0
 15 21  1  0
 15 16  1  1
 17 16  1  0
 18 19  1  0
 18 17  1  0
 20 19  1  0
 21 23  2  0
 21 22  1  0
M  END
$$$$
