SPK.pdb
     RDKit          3D

 23 23  0  0  1  0  0  0  0  0999 V2000
   25.4645  -22.0198  -16.6768 O   0  0  0  0  0  0  0  0  0  0  0  0
   24.7457  -22.2643  -15.5257 C   0  0  0  0  0  0  0  0  0  0  0  0
   25.5971  -22.7549  -14.3567 C   0  0  2  0  0  0  0  0  0  0  0  0
   25.9814  -24.1324  -14.7304 N   0  0  0  0  0  0  0  0  0  0  0  0
   24.8062  -22.8245  -13.1099 C   0  0  0  0  0  0  0  0  0  0  0  0
   24.3025  -23.9563  -12.8190 O   0  0  0  0  0  0  0  0  0  0  0  0
   24.5649  -21.7607  -12.2241 N   0  0  0  0  0  0  0  0  0  0  0  0
   25.0970  -20.4169  -12.3873 C   0  0  0  0  0  0  0  0  0  0  0  0
   25.5284  -20.0785  -10.9805 C   0  0  0  0  0  0  0  0  0  0  0  0
   24.5915  -20.8261  -10.0892 C   0  0  0  0  0  0  0  0  0  0  0  0
   23.7989  -21.7084  -11.0050 C   0  0  1  0  0  0  0  0  0  0  0  0
   22.4281  -21.1247  -11.2495 C   0  0  0  0  0  0  0  0  0  0  0  0
   22.2429  -20.5775  -12.3662 O   0  0  0  0  0  0  0  0  0  0  0  0
   21.3793  -21.1569  -10.3257 N   0  0  0  0  0  0  0  0  0  0  0  0
   20.1847  -22.0027  -10.5094 C   0  0  1  0  0  0  0  0  0  0  0  0
   19.8732  -22.6208   -9.1529 C   0  0  0  0  0  0  0  0  0  0  0  0
   18.6975  -23.5343   -9.1607 C   0  0  0  0  0  0  0  0  0  0  0  0
   18.4037  -24.1314   -7.8032 C   0  0  0  0  0  0  0  0  0  0  0  0
   17.1662  -25.0118   -7.9748 C   0  0  0  0  0  0  0  0  0  0  0  0
   16.9517  -25.6679   -6.6903 N   0  0  0  0  0  0  0  0  0  0  0  0
   19.0621  -21.1979  -11.0369 C   0  0  0  0  0  0  0  0  0  0  0  0
   18.1477  -21.7392  -11.9222 O   0  0  0  0  0  0  0  0  0  0  0  0
   18.9211  -20.0073  -10.6888 O   0  0  0  0  0  0  0  0  0  0  0  0
  1  2  1  0
  2  3  1  0
  3  5  1  0
  3  4  1  6
  5  6  2  0
  7 11  1  0
  7  5  1  0
  8  7  1  0
  9  8  1  0
  9 10  1  0
 10 11  1  0
 11 12  1  6
 12 13  2  0
 12 14  1  0
 14 15  1  0
 15 21  1  0
 15 16  1  1
 17 16  1  0
 18 19  1  0
 18 17  1  0
 20 19  1  0
 21 23  2  0
 21 22  1  0
M  END
$$$$
