SPK.pdb
     RDKit          3D

 23 23  0  0  1  0  0  0  0  0999 V2000
   26.6125  -17.3376  -17.9691 O   0  0  0  0  0  0  0  0  0  0  0  0
   26.2526  -18.3543  -17.1098 C   0  0  0  0  0  0  0  0  0  0  0  0
   27.2231  -19.5334  -17.1050 C   0  0  2  0  0  0  0  0  0  0  0  0
   26.8092  -20.3590  -18.2591 N   0  0  0  0  0  0  0  0  0  0  0  0
   27.0689  -20.3492  -15.8820 C   0  0  0  0  0  0  0  0  0  0  0  0
   26.2714  -21.3381  -15.9556 O   0  0  0  0  0  0  0  0  0  0  0  0
   27.7210  -20.1322  -14.6564 N   0  0  0  0  0  0  0  0  0  0  0  0
   28.6066  -19.0113  -14.3824 C   0  0  0  0  0  0  0  0  0  0  0  0
   29.7381  -19.6810  -13.6404 C   0  0  0  0  0  0  0  0  0  0  0  0
   29.1136  -20.8337  -12.9242 C   0  0  0  0  0  0  0  0  0  0  0  0
   27.7068  -20.8977  -13.4360 C   0  0  1  0  0  0  0  0  0  0  0  0
   26.7492  -20.3019  -12.4323 C   0  0  0  0  0  0  0  0  0  0  0  0
   26.6717  -19.0472  -12.4079 O   0  0  0  0  0  0  0  0  0  0  0  0
   25.9639  -21.0490  -11.5494 N   0  0  0  0  0  0  0  0  0  0  0  0
   24.8077  -20.4756  -10.8349 C   0  0  1  0  0  0  0  0  0  0  0  0
   23.5609  -20.9424  -11.5743 C   0  0  0  0  0  0  0  0  0  0  0  0
   22.2909  -20.3934  -11.0243 C   0  0  0  0  0  0  0  0  0  0  0  0
   21.0643  -20.9052  -11.7449 C   0  0  0  0  0  0  0  0  0  0  0  0
   20.9239  -20.0647  -13.0136 C   0  0  0  0  0  0  0  0  0  0  0  0
   19.6907  -20.5018  -13.6574 N   0  0  0  0  0  0  0  0  0  0  0  0
   24.8182  -20.8988   -9.4182 C   0  0  0  0  0  0  0  0  0  0  0  0
   24.2613  -20.1066   -8.4307 O   0  0  0  0  0  0  0  0  0  0  0  0
   25.3344  -21.9866   -9.0886 O   0  0  0  0  0  0  0  0  0  0  0  0
  1  2  1  0
  2  3  1  0
  3  5  1  0
  3  4  1  6
  5  6  2  0
  7 11  1  0
  7  5  1  0
  8  7  1  0
  9  8  1  0
  9 10  1  0
 10 11  1  0
 11 12  1  1
 12 13  2  0
 12 14  1  0
 14 15  1  0
 15 21  1  0
 15 16  1  6
 17 16  1  0
 18 19  1  0
 18 17  1  0
 20 19  1  0
 21 23  2  0
 21 22  1  0
M  END
$$$$
