SPK.pdb
     RDKit          3D

 23 23  0  0  1  0  0  0  0  0999 V2000
   16.9644   -8.3248  -15.8257 O   0  0  0  0  0  0  0  0  0  0  0  0
   18.2705   -8.2870  -16.2662 C   0  0  0  0  0  0  0  0  0  0  0  0
   19.2057   -9.2300  -15.5123 C   0  0  2  0  0  0  0  0  0  0  0  0
   18.7768  -10.5837  -15.9223 N   0  0  0  0  0  0  0  0  0  0  0  0
   19.0179   -9.1152  -14.0506 C   0  0  0  0  0  0  0  0  0  0  0  0
   18.3778  -10.0581  -13.4844 O   0  0  0  0  0  0  0  0  0  0  0  0
   19.4813   -8.0669  -13.2378 N   0  0  0  0  0  0  0  0  0  0  0  0
   20.0736   -6.8367  -13.7393 C   0  0  0  0  0  0  0  0  0  0  0  0
   21.2418   -6.6473  -12.8017 C   0  0  0  0  0  0  0  0  0  0  0  0
   20.8102   -7.2514  -11.5054 C   0  0  0  0  0  0  0  0  0  0  0  0
   19.5088   -7.9315  -11.8037 C   0  0  1  0  0  0  0  0  0  0  0  0
   18.3495   -7.0969  -11.3148 C   0  0  0  0  0  0  0  0  0  0  0  0
   18.0125   -6.1263  -12.0395 O   0  0  0  0  0  0  0  0  0  0  0  0
   17.6477   -7.3365  -10.1296 N   0  0  0  0  0  0  0  0  0  0  0  0
   16.3503   -6.7007   -9.8324 C   0  0  1  0  0  0  0  0  0  0  0  0
   15.4472   -7.7906   -9.2705 C   0  0  0  0  0  0  0  0  0  0  0  0
   14.0925   -7.3116   -8.8806 C   0  0  0  0  0  0  0  0  0  0  0  0
   13.2508   -8.3849   -8.2285 C   0  0  0  0  0  0  0  0  0  0  0  0
   11.8575   -7.7870   -8.0362 C   0  0  0  0  0  0  0  0  0  0  0  0
   11.0280   -8.8544   -7.4895 N   0  0  0  0  0  0  0  0  0  0  0  0
   16.5337   -5.5753   -8.8910 C   0  0  0  0  0  0  0  0  0  0  0  0
   15.7681   -4.4277   -8.9899 O   0  0  0  0  0  0  0  0  0  0  0  0
   17.3898   -5.6440   -7.9849 O   0  0  0  0  0  0  0  0  0  0  0  0
  1  2  1  0
  2  3  1  0
  3  5  1  0
  3  4  1  6
  5  6  2  0
  7 11  1  0
  7  5  1  0
  8  7  1  0
  9  8  1  0
  9 10  1  0
 10 11  1  0
 11 12  1  6
 12 13  2  0
 12 14  1  0
 14 15  1  0
 15 21  1  0
 15 16  1  1
 17 16  1  0
 18 19  1  0
 18 17  1  0
 20 19  1  0
 21 23  2  0
 21 22  1  0
M  END
$$$$
