SPK.pdb
     RDKit          3D

 23 23  0  0  1  0  0  0  0  0999 V2000
   15.9641  -10.4936  -14.5885 O   0  0  0  0  0  0  0  0  0  0  0  0
   16.2764   -9.6966  -13.5074 C   0  0  0  0  0  0  0  0  0  0  0  0
   17.4960  -10.1710  -12.7203 C   0  0  2  0  0  0  0  0  0  0  0  0
   17.0658  -11.4421  -12.1005 N   0  0  0  0  0  0  0  0  0  0  0  0
   17.8342   -9.2260  -11.6351 C   0  0  0  0  0  0  0  0  0  0  0  0
   17.4251   -9.5299  -10.4691 O   0  0  0  0  0  0  0  0  0  0  0  0
   18.5628   -8.0328  -11.7759 N   0  0  0  0  0  0  0  0  0  0  0  0
   19.1685   -7.5799  -13.0183 C   0  0  0  0  0  0  0  0  0  0  0  0
   20.5166   -7.0889  -12.5481 C   0  0  0  0  0  0  0  0  0  0  0  0
   20.2962   -6.6050  -11.1522 C   0  0  0  0  0  0  0  0  0  0  0  0
   18.8962   -7.0161  -10.8111 C   0  0  1  0  0  0  0  0  0  0  0  0
   17.9568   -5.8387  -10.9163 C   0  0  0  0  0  0  0  0  0  0  0  0
   17.5433   -5.5528  -12.0687 O   0  0  0  0  0  0  0  0  0  0  0  0
   17.5324   -5.0670   -9.8306 N   0  0  0  0  0  0  0  0  0  0  0  0
   16.2147   -4.4050   -9.7935 C   0  0  1  0  0  0  0  0  0  0  0  0
   15.4170   -5.0795   -8.6855 C   0  0  0  0  0  0  0  0  0  0  0  0
   14.1082   -4.4291   -8.4011 C   0  0  0  0  0  0  0  0  0  0  0  0
   13.4025   -5.0198   -7.2016 C   0  0  0  0  0  0  0  0  0  0  0  0
   12.1537   -4.1696   -6.9705 C   0  0  0  0  0  0  0  0  0  0  0  0
   11.4535   -4.7725   -5.8423 N   0  0  0  0  0  0  0  0  0  0  0  0
   16.3762   -2.9520   -9.5718 C   0  0  0  0  0  0  0  0  0  0  0  0
   15.4906   -2.0418  -10.1197 O   0  0  0  0  0  0  0  0  0  0  0  0
   17.3224   -2.5206   -8.8810 O   0  0  0  0  0  0  0  0  0  0  0  0
  1  2  1  0
  2  3  1  0
  3  5  1  0
  3  4  1  1
  5  6  2  0
  7 11  1  0
  7  5  1  0
  8  7  1  0
  9  8  1  0
  9 10  1  0
 10 11  1  0
 11 12  1  6
 12 13  2  0
 12 14  1  0
 14 15  1  0
 15 21  1  0
 15 16  1  1
 17 16  1  0
 18 19  1  0
 18 17  1  0
 20 19  1  0
 21 23  2  0
 21 22  1  0
M  END
$$$$
