MDV.pdb
     RDKit          3D

 24 23  0  0  1  0  0  0  0  0999 V2000
    8.2273  -11.7157   20.4135 C   0  0  0  0  0  0  0  0  0  0  0  0
    7.4254  -12.6336   19.0911 S   0  0  0  0  0  0  0  0  0  0  0  0
    7.9217  -14.3294   18.9427 C   0  0  0  0  0  0  0  0  0  0  0  0
    8.6714  -14.9581   20.0468 C   0  0  0  0  0  0  0  0  0  0  0  0
    9.0884  -16.3844   19.9009 C   0  0  2  0  0  0  0  0  0  0  0  0
    8.0582  -17.0766   19.1238 N   0  0  0  0  0  0  0  0  0  0  0  0
    9.0621  -16.9909   21.2873 C   0  0  0  0  0  0  0  0  0  0  0  0
    8.7676  -18.2047   21.4347 O   0  0  0  0  0  0  0  0  0  0  0  0
    9.3588  -16.2389   22.4186 N   0  0  0  0  0  0  0  0  0  0  0  0
    9.6825  -16.8915   23.6976 C   0  0  1  0  0  0  0  0  0  0  0  0
   11.0099  -17.5589   23.4598 C   0  0  0  0  0  0  0  0  0  0  0  0
   11.6440  -18.1674   24.6199 C   0  0  0  0  0  0  0  0  0  0  0  0
   11.0472  -18.7524   25.5311 O   0  0  0  0  0  0  0  0  0  0  0  0
    9.9034  -15.8071   24.7344 C   0  0  0  0  0  0  0  0  0  0  0  0
   10.8991  -15.0514   24.6312 O   0  0  0  0  0  0  0  0  0  0  0  0
   13.0356  -18.0766   24.6986 O   0  0  0  0  0  0  0  0  0  0  0  0
    7.8824  -12.5894   27.6899 C   0  0  0  0  0  0  0  0  0  0  0  0
    7.6126  -13.8864   26.8930 C   0  0  1  0  0  0  0  0  0  0  0  0
    7.0648  -13.4058   25.5592 C   0  0  0  0  0  0  0  0  0  0  0  0
    8.9725  -14.5405   26.7417 C   0  0  2  0  0  0  0  0  0  0  0  0
    9.0234  -15.6266   25.8076 N   0  0  0  0  0  0  0  0  0  0  0  0
    9.4638  -14.9364   28.0570 C   0  0  0  0  0  0  0  0  0  0  0  0
    9.7068  -16.2407   28.4021 O   0  0  0  0  0  0  0  0  0  0  0  0
    9.6974  -14.0737   28.9744 O   0  0  0  0  0  0  0  0  0  0  0  0
  2  1  1  0
  3  2  1  0
  4  3  1  0
  5  4  1  0
  5  7  1  0
  5  6  1  6
  7  8  2  0
  9 10  1  0
  9  7  1  0
 10 14  1  0
 10 11  1  6
 12 11  1  0
 13 12  2  0
 14 15  2  0
 16 12  1  0
 18 17  1  1
 18 19  1  0
 18 20  1  0
 20 22  1  0
 20 21  1  6
 21 14  1  0
 22 24  2  0
 22 23  1  0
M  END
$$$$
