MDV.pdb
     RDKit          3D

 24 23  0  0  1  0  0  0  0  0999 V2000
    8.1224  -11.4219   20.3638 C   0  0  0  0  0  0  0  0  0  0  0  0
    7.3986  -12.3350   18.9938 S   0  0  0  0  0  0  0  0  0  0  0  0
    7.7130  -14.0800   19.0019 C   0  0  0  0  0  0  0  0  0  0  0  0
    8.1098  -14.7330   20.2639 C   0  0  0  0  0  0  0  0  0  0  0  0
    8.4452  -16.1878   20.2364 C   0  0  2  0  0  0  0  0  0  0  0  0
    7.2497  -16.9166   19.8077 N   0  0  0  0  0  0  0  0  0  0  0  0
    8.7117  -16.6014   21.6676 C   0  0  0  0  0  0  0  0  0  0  0  0
    7.7532  -16.9252   22.4149 O   0  0  0  0  0  0  0  0  0  0  0  0
   10.0000  -16.6368   22.1892 N   0  0  0  0  0  0  0  0  0  0  0  0
   10.2464  -17.0938   23.5666 C   0  0  1  0  0  0  0  0  0  0  0  0
   11.6567  -17.6181   23.5477 C   0  0  0  0  0  0  0  0  0  0  0  0
   11.8557  -18.9135   22.9147 C   0  0  0  0  0  0  0  0  0  0  0  0
   12.8733  -19.2563   22.3017 O   0  0  0  0  0  0  0  0  0  0  0  0
   10.2304  -15.8785   24.4736 C   0  0  0  0  0  0  0  0  0  0  0  0
   11.1442  -15.0251   24.3744 O   0  0  0  0  0  0  0  0  0  0  0  0
   10.8084  -19.8322   23.0144 O   0  0  0  0  0  0  0  0  0  0  0  0
    7.8624  -12.7604   27.3540 C   0  0  0  0  0  0  0  0  0  0  0  0
    7.6992  -13.9920   26.4341 C   0  0  1  0  0  0  0  0  0  0  0  0
    7.2716  -13.4126   25.0956 C   0  0  0  0  0  0  0  0  0  0  0  0
    9.0815  -14.6121   26.3647 C   0  0  2  0  0  0  0  0  0  0  0  0
    9.2200  -15.6831   25.4221 N   0  0  0  0  0  0  0  0  0  0  0  0
    9.4945  -15.0155   27.7044 C   0  0  0  0  0  0  0  0  0  0  0  0
   10.1601  -14.1804   28.5641 O   0  0  0  0  0  0  0  0  0  0  0  0
    9.2545  -16.1896   28.1563 O   0  0  0  0  0  0  0  0  0  0  0  0
  2  1  1  0
  3  2  1  0
  4  3  1  0
  5  4  1  0
  5  7  1  0
  5  6  1  1
  7  8  2  0
  9 10  1  0
  9  7  1  0
 10 14  1  0
 10 11  1  6
 12 11  1  0
 13 12  2  0
 14 15  2  0
 16 12  1  0
 18 17  1  1
 18 19  1  0
 18 20  1  0
 20 22  1  0
 20 21  1  6
 21 14  1  0
 22 24  2  0
 22 23  1  0
M  END
$$$$
