MDV.pdb
     RDKit          3D

 24 23  0  0  1  0  0  0  0  0999 V2000
    5.9670  -12.4362   19.2270 C   0  0  0  0  0  0  0  0  0  0  0  0
    7.4616  -12.6923   18.2599 S   0  0  0  0  0  0  0  0  0  0  0  0
    8.6899  -13.7146   19.0281 C   0  0  0  0  0  0  0  0  0  0  0  0
    9.7518  -13.0809   19.8325 C   0  0  0  0  0  0  0  0  0  0  0  0
   10.7567  -13.9597   20.5016 C   0  0  2  0  0  0  0  0  0  0  0  0
   11.1226  -15.0208   19.5612 N   0  0  0  0  0  0  0  0  0  0  0  0
   10.0473  -14.6333   21.6564 C   0  0  0  0  0  0  0  0  0  0  0  0
    9.2187  -13.9857   22.3462 O   0  0  0  0  0  0  0  0  0  0  0  0
   10.2847  -15.9639   21.9824 N   0  0  0  0  0  0  0  0  0  0  0  0
    9.5364  -16.6228   23.0653 C   0  0  1  0  0  0  0  0  0  0  0  0
   10.3008  -17.8891   23.3412 C   0  0  0  0  0  0  0  0  0  0  0  0
    9.7215  -18.7920   24.3247 C   0  0  0  0  0  0  0  0  0  0  0  0
    8.6698  -18.5900   24.9426 O   0  0  0  0  0  0  0  0  0  0  0  0
    9.6424  -15.7543   24.3040 C   0  0  0  0  0  0  0  0  0  0  0  0
   10.7758  -15.4515   24.7475 O   0  0  0  0  0  0  0  0  0  0  0  0
   10.4174  -19.9755   24.5819 O   0  0  0  0  0  0  0  0  0  0  0  0
    7.4420  -12.6600   27.4437 C   0  0  0  0  0  0  0  0  0  0  0  0
    7.1907  -13.5850   26.2309 C   0  0  1  0  0  0  0  0  0  0  0  0
    7.0550  -12.6363   25.0511 C   0  0  0  0  0  0  0  0  0  0  0  0
    8.4395  -14.4391   26.1271 C   0  0  2  0  0  0  0  0  0  0  0  0
    8.5054  -15.2804   24.9684 N   0  0  0  0  0  0  0  0  0  0  0  0
    8.6021  -15.2035   27.3589 C   0  0  0  0  0  0  0  0  0  0  0  0
    8.4808  -16.5680   27.4129 O   0  0  0  0  0  0  0  0  0  0  0  0
    8.8702  -14.6322   28.4735 O   0  0  0  0  0  0  0  0  0  0  0  0
  2  1  1  0
  3  2  1  0
  4  3  1  0
  5  4  1  0
  5  7  1  0
  5  6  1  6
  7  8  2  0
  9 10  1  0
  9  7  1  0
 10 14  1  0
 10 11  1  1
 12 11  1  0
 13 12  2  0
 14 15  2  0
 16 12  1  0
 18 17  1  1
 18 19  1  0
 18 20  1  0
 20 22  1  0
 20 21  1  6
 21 14  1  0
 22 24  2  0
 22 23  1  0
M  END
$$$$
