MDV.pdb
     RDKit          3D

 24 23  0  0  1  0  0  0  0  0999 V2000
    8.8482  -11.7610   20.2824 C   0  0  0  0  0  0  0  0  0  0  0  0
    7.2931  -12.5074   19.7731 S   0  0  0  0  0  0  0  0  0  0  0  0
    7.0919  -14.2106   20.2233 C   0  0  0  0  0  0  0  0  0  0  0  0
    8.0996  -15.1941   19.7834 C   0  0  0  0  0  0  0  0  0  0  0  0
    7.8770  -16.6341   20.1100 C   0  0  2  0  0  0  0  0  0  0  0  0
    6.5284  -16.9923   19.6659 N   0  0  0  0  0  0  0  0  0  0  0  0
    7.8769  -16.7445   21.6194 C   0  0  0  0  0  0  0  0  0  0  0  0
    6.7917  -16.6814   22.2521 O   0  0  0  0  0  0  0  0  0  0  0  0
    9.0542  -16.9172   22.3385 N   0  0  0  0  0  0  0  0  0  0  0  0
    9.0274  -17.1259   23.7954 C   0  0  1  0  0  0  0  0  0  0  0  0
   10.2521  -17.9507   24.0850 C   0  0  0  0  0  0  0  0  0  0  0  0
   10.4594  -18.3337   25.4737 C   0  0  0  0  0  0  0  0  0  0  0  0
    9.5996  -18.2834   26.3609 O   0  0  0  0  0  0  0  0  0  0  0  0
    9.2229  -15.7796   24.4654 C   0  0  0  0  0  0  0  0  0  0  0  0
   10.1653  -15.0394   24.0950 O   0  0  0  0  0  0  0  0  0  0  0  0
   11.7329  -18.7921   25.8186 O   0  0  0  0  0  0  0  0  0  0  0  0
    7.3510  -12.1328   27.1659 C   0  0  0  0  0  0  0  0  0  0  0  0
    7.0471  -13.5015   26.5147 C   0  0  1  0  0  0  0  0  0  0  0  0
    6.2654  -13.1588   25.2571 C   0  0  0  0  0  0  0  0  0  0  0  0
    8.4072  -14.0893   26.1910 C   0  0  2  0  0  0  0  0  0  0  0  0
    8.3773  -15.3393   25.4901 N   0  0  0  0  0  0  0  0  0  0  0  0
    9.1965  -14.1755   27.4147 C   0  0  0  0  0  0  0  0  0  0  0  0
    9.8932  -13.1134   27.9307 O   0  0  0  0  0  0  0  0  0  0  0  0
    9.2832  -15.2648   28.0828 O   0  0  0  0  0  0  0  0  0  0  0  0
  2  1  1  0
  3  2  1  0
  4  3  1  0
  5  4  1  0
  5  7  1  0
  5  6  1  1
  7  8  2  0
  9 10  1  0
  9  7  1  0
 10 14  1  0
 10 11  1  6
 12 11  1  0
 13 12  2  0
 14 15  2  0
 16 12  1  0
 18 17  1  1
 18 19  1  0
 18 20  1  0
 20 22  1  0
 20 21  1  1
 21 14  1  0
 22 24  2  0
 22 23  1  0
M  END
$$$$
