MDV.pdb
     RDKit          3D

 24 23  0  0  1  0  0  0  0  0999 V2000
    7.1817  -11.7036   18.7763 C   0  0  0  0  0  0  0  0  0  0  0  0
    7.5749  -12.1822   20.4648 S   0  0  0  0  0  0  0  0  0  0  0  0
    8.3510  -13.7671   20.6372 C   0  0  0  0  0  0  0  0  0  0  0  0
    7.6019  -14.9795   20.2560 C   0  0  0  0  0  0  0  0  0  0  0  0
    8.2516  -16.3088   20.4570 C   0  0  2  0  0  0  0  0  0  0  0  0
    7.3398  -17.3360   19.9493 N   0  0  0  0  0  0  0  0  0  0  0  0
    8.3530  -16.5236   21.9517 C   0  0  0  0  0  0  0  0  0  0  0  0
    7.3110  -16.7181   22.6287 O   0  0  0  0  0  0  0  0  0  0  0  0
    9.5782  -16.5140   22.6089 N   0  0  0  0  0  0  0  0  0  0  0  0
    9.6661  -16.8006   24.0501 C   0  0  1  0  0  0  0  0  0  0  0  0
   10.9769  -17.5205   24.2162 C   0  0  0  0  0  0  0  0  0  0  0  0
   11.1206  -18.7756   23.4936 C   0  0  0  0  0  0  0  0  0  0  0  0
   10.3696  -19.7513   23.6072 O   0  0  0  0  0  0  0  0  0  0  0  0
    9.7824  -15.4789   24.7845 C   0  0  0  0  0  0  0  0  0  0  0  0
   10.7617  -14.7304   24.5522 O   0  0  0  0  0  0  0  0  0  0  0  0
   12.1943  -18.8733   22.6056 O   0  0  0  0  0  0  0  0  0  0  0  0
    7.5992  -12.4813   25.3105 C   0  0  0  0  0  0  0  0  0  0  0  0
    7.7006  -13.0912   26.7274 C   0  0  1  0  0  0  0  0  0  0  0  0
    6.4086  -13.8734   26.8977 C   0  0  0  0  0  0  0  0  0  0  0  0
    8.9100  -14.0046   26.6727 C   0  0  2  0  0  0  0  0  0  0  0  0
    8.8233  -15.0706   25.7184 N   0  0  0  0  0  0  0  0  0  0  0  0
    9.1965  -14.5026   28.0136 C   0  0  0  0  0  0  0  0  0  0  0  0
    9.6479  -13.6989   29.0284 O   0  0  0  0  0  0  0  0  0  0  0  0
    9.0401  -15.7365   28.3195 O   0  0  0  0  0  0  0  0  0  0  0  0
  2  1  1  0
  3  2  1  0
  4  3  1  0
  5  4  1  0
  5  7  1  0
  5  6  1  6
  7  8  2  0
  9 10  1  0
  9  7  1  0
 10 14  1  0
 10 11  1  6
 12 11  1  0
 13 12  2  0
 14 15  2  0
 16 12  1  0
 18 17  1  6
 18 19  1  0
 18 20  1  0
 20 22  1  0
 20 21  1  6
 21 14  1  0
 22 24  2  0
 22 23  1  0
M  END
$$$$
