MDV.pdb
     RDKit          3D

 24 23  0  0  1  0  0  0  0  0999 V2000
    7.3849  -11.6107   19.5681 C   0  0  0  0  0  0  0  0  0  0  0  0
    7.8524  -13.0516   18.5986 S   0  0  0  0  0  0  0  0  0  0  0  0
    9.1189  -14.0639   19.3164 C   0  0  0  0  0  0  0  0  0  0  0  0
    9.9933  -13.4908   20.3573 C   0  0  0  0  0  0  0  0  0  0  0  0
   11.1147  -14.3256   20.8820 C   0  0  2  0  0  0  0  0  0  0  0  0
   11.4065  -15.3615   19.8891 N   0  0  0  0  0  0  0  0  0  0  0  0
   10.5900  -15.0404   22.1085 C   0  0  0  0  0  0  0  0  0  0  0  0
    9.7688  -14.4633   22.8666 O   0  0  0  0  0  0  0  0  0  0  0  0
   10.9911  -16.3328   22.4275 N   0  0  0  0  0  0  0  0  0  0  0  0
   10.3563  -17.0716   23.5312 C   0  0  1  0  0  0  0  0  0  0  0  0
   10.9784  -18.4407   23.4809 C   0  0  0  0  0  0  0  0  0  0  0  0
   10.6522  -19.2561   22.3203 C   0  0  0  0  0  0  0  0  0  0  0  0
    9.5878  -19.2065   21.6931 O   0  0  0  0  0  0  0  0  0  0  0  0
   10.7882  -16.4287   24.8350 C   0  0  0  0  0  0  0  0  0  0  0  0
   12.0102  -16.2605   25.0625 O   0  0  0  0  0  0  0  0  0  0  0  0
   11.6255  -20.1614   21.8914 O   0  0  0  0  0  0  0  0  0  0  0  0
    9.6550  -13.7738   28.7989 C   0  0  0  0  0  0  0  0  0  0  0  0
    9.0452  -14.4471   27.5481 C   0  0  1  0  0  0  0  0  0  0  0  0
    8.8477  -13.3079   26.5615 C   0  0  0  0  0  0  0  0  0  0  0  0
   10.1045  -15.4246   27.0765 C   0  0  2  0  0  0  0  0  0  0  0  0
    9.8567  -16.0171   25.7950 N   0  0  0  0  0  0  0  0  0  0  0  0
   10.3175  -16.4355   28.1064 C   0  0  0  0  0  0  0  0  0  0  0  0
   11.0963  -16.2209   29.2141 O   0  0  0  0  0  0  0  0  0  0  0  0
    9.7809  -17.5959   28.0297 O   0  0  0  0  0  0  0  0  0  0  0  0
  2  1  1  0
  3  2  1  0
  4  3  1  0
  5  4  1  0
  5  7  1  0
  5  6  1  6
  7  8  2  0
  9 10  1  0
  9  7  1  0
 10 14  1  0
 10 11  1  1
 12 11  1  0
 13 12  2  0
 14 15  2  0
 16 12  1  0
 18 17  1  1
 18 19  1  0
 18 20  1  0
 20 22  1  0
 20 21  1  6
 21 14  1  0
 22 24  2  0
 22 23  1  0
M  END
$$$$
