MDV.pdb
     RDKit          3D

 24 23  0  0  1  0  0  0  0  0999 V2000
    8.5912  -11.7924   20.6950 C   0  0  0  0  0  0  0  0  0  0  0  0
    8.0397  -12.8858   19.3779 S   0  0  0  0  0  0  0  0  0  0  0  0
    6.8804  -14.1337   19.8707 C   0  0  0  0  0  0  0  0  0  0  0  0
    7.1193  -14.8845   21.1179 C   0  0  0  0  0  0  0  0  0  0  0  0
    7.6316  -16.2835   21.0181 C   0  0  2  0  0  0  0  0  0  0  0  0
    6.5419  -17.1267   20.5222 N   0  0  0  0  0  0  0  0  0  0  0  0
    7.9236  -16.7432   22.4301 C   0  0  0  0  0  0  0  0  0  0  0  0
    6.9848  -16.8526   23.2601 O   0  0  0  0  0  0  0  0  0  0  0  0
    9.2139  -17.0542   22.8443 N   0  0  0  0  0  0  0  0  0  0  0  0
    9.4799  -17.4988   24.2221 C   0  0  1  0  0  0  0  0  0  0  0  0
   10.6391  -18.4501   24.0985 C   0  0  0  0  0  0  0  0  0  0  0  0
   11.1286  -19.0362   25.3375 C   0  0  0  0  0  0  0  0  0  0  0  0
   10.4999  -19.0776   26.4014 O   0  0  0  0  0  0  0  0  0  0  0  0
    9.9637  -16.3007   25.0160 C   0  0  0  0  0  0  0  0  0  0  0  0
   10.9632  -15.6589   24.6130 O   0  0  0  0  0  0  0  0  0  0  0  0
   12.4099  -19.5917   25.3098 O   0  0  0  0  0  0  0  0  0  0  0  0
    9.1062  -12.6928   28.1532 C   0  0  0  0  0  0  0  0  0  0  0  0
    8.4758  -13.8875   27.4015 C   0  0  1  0  0  0  0  0  0  0  0  0
    7.8347  -13.2667   26.1711 C   0  0  0  0  0  0  0  0  0  0  0  0
    9.6464  -14.7805   27.0380 C   0  0  2  0  0  0  0  0  0  0  0  0
    9.3232  -15.8907   26.1909 N   0  0  0  0  0  0  0  0  0  0  0  0
   10.3191  -15.2109   28.2588 C   0  0  0  0  0  0  0  0  0  0  0  0
   11.2777  -14.4597   28.8881 O   0  0  0  0  0  0  0  0  0  0  0  0
   10.0468  -16.3313   28.8164 O   0  0  0  0  0  0  0  0  0  0  0  0
  2  1  1  0
  3  2  1  0
  4  3  1  0
  5  4  1  0
  5  7  1  0
  5  6  1  1
  7  8  2  0
  9 10  1  0
  9  7  1  0
 10 14  1  0
 10 11  1  6
 12 11  1  0
 13 12  2  0
 14 15  2  0
 16 12  1  0
 18 17  1  1
 18 19  1  0
 18 20  1  0
 20 22  1  0
 20 21  1  1
 21 14  1  0
 22 24  2  0
 22 23  1  0
M  END
$$$$
