KLL.pdb
     RDKit          3D

 26 25  0  0  1  0  0  0  0  0999 V2000
   19.6435  -13.8914  -16.5820 N   0  0  0  0  0  0  0  0  0  0  0  0
   19.5661  -12.4642  -16.6603 C   0  0  1  0  0  0  0  0  0  0  0  0
   18.1150  -12.0642  -16.4732 C   0  0  0  0  0  0  0  0  0  0  0  0
   17.3377  -12.7223  -17.5945 C   0  0  0  0  0  0  0  0  0  0  0  0
   15.8802  -12.4038  -17.5662 C   0  0  0  0  0  0  0  0  0  0  0  0
   15.1607  -13.0422  -18.7404 C   0  0  0  0  0  0  0  0  0  0  0  0
   13.7741  -12.6513  -18.7950 N   0  0  0  0  0  0  0  0  0  0  0  0
   20.4616  -11.7937  -15.6794 C   0  0  0  0  0  0  0  0  0  0  0  0
   20.2970  -11.8316  -14.4539 O   0  0  0  0  0  0  0  0  0  0  0  0
   25.8152  -11.6094  -16.5477 C   0  0  0  0  0  0  0  0  0  0  0  0
   24.4059  -11.7363  -15.9727 C   0  0  1  0  0  0  0  0  0  0  0  0
   24.5902  -12.3934  -14.5996 C   0  0  0  0  0  0  0  0  0  0  0  0
   23.8778  -10.3562  -15.7886 C   0  0  0  0  0  0  0  0  0  0  0  0
   22.4419  -10.3224  -15.3183 C   0  0  2  0  0  0  0  0  0  0  0  0
   21.5654  -11.0716  -16.1904 N   0  0  0  0  0  0  0  0  0  0  0  0
   22.0096   -8.9039  -15.3442 C   0  0  0  0  0  0  0  0  0  0  0  0
   22.6090   -8.0846  -14.5871 O   0  0  0  0  0  0  0  0  0  0  0  0
   18.6293   -5.3536  -18.4142 C   0  0  0  0  0  0  0  0  0  0  0  0
   20.0572   -5.1619  -17.8002 C   0  0  1  0  0  0  0  0  0  0  0  0
   19.8590   -4.2111  -16.6608 C   0  0  0  0  0  0  0  0  0  0  0  0
   20.5019   -6.5290  -17.4650 C   0  0  0  0  0  0  0  0  0  0  0  0
   20.5199   -6.9982  -16.0627 C   0  0  2  0  0  0  0  0  0  0  0  0
   20.9774   -8.4161  -16.1563 N   0  0  0  0  0  0  0  0  0  0  0  0
   19.2428   -7.0545  -15.3623 C   0  0  0  0  0  0  0  0  0  0  0  0
   18.4357   -8.1705  -15.4368 O   0  0  0  0  0  0  0  0  0  0  0  0
   18.8375   -6.0982  -14.6741 O   0  0  0  0  0  0  0  0  0  0  0  0
  2  1  1  1
  3  2  1  0
  4  5  1  0
  4  3  1  0
  5  6  1  0
  6  7  1  0
  8  2  1  0
  8 15  1  0
  9  8  2  0
 11 10  1  1
 12 11  1  0
 14 13  1  6
 13 11  1  0
 14 15  1  0
 16 14  1  0
 17 16  2  0
 19 18  1  1
 20 19  1  0
 21 19  1  0
 22 21  1  6
 22 24  1  0
 22 23  1  0
 23 16  1  0
 24 25  1  0
 26 24  2  0
M  END
$$$$
