KLL.pdb
     RDKit          3D

 26 25  0  0  1  0  0  0  0  0999 V2000
   21.5887  -26.2977  -14.0207 N   0  0  0  0  0  0  0  0  0  0  0  0
   21.4195  -24.9865  -14.5695 C   0  0  1  0  0  0  0  0  0  0  0  0
   19.9914  -24.8694  -15.0672 C   0  0  0  0  0  0  0  0  0  0  0  0
   19.8112  -25.9444  -16.1190 C   0  0  0  0  0  0  0  0  0  0  0  0
   20.4738  -25.6166  -17.4152 C   0  0  0  0  0  0  0  0  0  0  0  0
   20.1513  -26.6591  -18.4703 C   0  0  0  0  0  0  0  0  0  0  0  0
   20.7768  -26.3542  -19.7328 N   0  0  0  0  0  0  0  0  0  0  0  0
   21.7611  -23.9159  -13.5944 C   0  0  0  0  0  0  0  0  0  0  0  0
   21.3703  -23.8989  -12.4207 O   0  0  0  0  0  0  0  0  0  0  0  0
   26.7387  -21.8220  -13.6531 C   0  0  0  0  0  0  0  0  0  0  0  0
   25.3627  -22.4285  -13.3857 C   0  0  1  0  0  0  0  0  0  0  0  0
   25.4468  -23.0050  -11.9673 C   0  0  0  0  0  0  0  0  0  0  0  0
   24.3769  -21.3125  -13.4034 C   0  0  0  0  0  0  0  0  0  0  0  0
   22.9539  -21.7671  -13.1744 C   0  0  2  0  0  0  0  0  0  0  0  0
   22.5833  -22.8580  -14.0477 N   0  0  0  0  0  0  0  0  0  0  0  0
   22.0742  -20.6140  -13.4846 C   0  0  0  0  0  0  0  0  0  0  0  0
   22.2381  -19.5454  -12.8250 O   0  0  0  0  0  0  0  0  0  0  0  0
   20.2413  -19.2810  -18.5247 C   0  0  0  0  0  0  0  0  0  0  0  0
   20.9430  -19.1160  -17.1343 C   0  0  1  0  0  0  0  0  0  0  0  0
   21.4161  -17.6957  -17.1110 C   0  0  0  0  0  0  0  0  0  0  0  0
   19.9094  -19.4962  -16.1513 C   0  0  0  0  0  0  0  0  0  0  0  0
   20.1912  -19.4547  -14.7001 C   0  0  2  0  0  0  0  0  0  0  0  0
   21.0726  -20.6362  -14.4639 N   0  0  0  0  0  0  0  0  0  0  0  0
   19.0617  -19.6341  -13.7965 C   0  0  0  0  0  0  0  0  0  0  0  0
   18.2950  -18.5621  -13.3897 O   0  0  0  0  0  0  0  0  0  0  0  0
   18.7510  -20.7595  -13.3615 O   0  0  0  0  0  0  0  0  0  0  0  0
  2  1  1  1
  3  2  1  0
  4  5  1  0
  4  3  1  0
  5  6  1  0
  6  7  1  0
  8  2  1  0
  8 15  1  0
  9  8  2  0
 11 10  1  1
 12 11  1  0
 14 13  1  6
 13 11  1  0
 14 15  1  0
 16 14  1  0
 17 16  2  0
 19 18  1  6
 20 19  1  0
 21 19  1  0
 22 21  1  6
 22 24  1  0
 22 23  1  0
 23 16  1  0
 24 25  1  0
 26 24  2  0
M  END
$$$$
