KLL.pdb
     RDKit          3D

 26 25  0  0  1  0  0  0  0  0999 V2000
   25.4335  -17.5451  -15.3723 N   0  0  0  0  0  0  0  0  0  0  0  0
   24.9266  -18.8360  -15.7271 C   0  0  1  0  0  0  0  0  0  0  0  0
   24.9578  -18.9503  -17.2393 C   0  0  0  0  0  0  0  0  0  0  0  0
   24.0553  -17.8573  -17.7737 C   0  0  0  0  0  0  0  0  0  0  0  0
   22.7446  -18.3675  -18.2721 C   0  0  0  0  0  0  0  0  0  0  0  0
   21.9336  -17.2536  -18.9088 C   0  0  0  0  0  0  0  0  0  0  0  0
   20.6259  -17.7070  -19.3120 N   0  0  0  0  0  0  0  0  0  0  0  0
   25.6756  -19.9395  -15.0676 C   0  0  0  0  0  0  0  0  0  0  0  0
   25.5325  -21.1361  -15.3468 O   0  0  0  0  0  0  0  0  0  0  0  0
   30.0324  -21.9776  -12.9237 C   0  0  0  0  0  0  0  0  0  0  0  0
   29.3405  -21.0717  -11.9071 C   0  0  1  0  0  0  0  0  0  0  0  0
   30.4779  -20.3826  -11.1438 C   0  0  0  0  0  0  0  0  0  0  0  0
   28.5756  -20.0500  -12.6742 C   0  0  0  0  0  0  0  0  0  0  0  0
   27.3188  -20.5965  -13.3112 C   0  0  2  0  0  0  0  0  0  0  0  0
   26.6053  -19.5874  -14.0615 N   0  0  0  0  0  0  0  0  0  0  0  0
   26.4379  -21.0557  -12.2099 C   0  0  0  0  0  0  0  0  0  0  0  0
   26.4543  -22.2853  -11.9074 O   0  0  0  0  0  0  0  0  0  0  0  0
   26.5429  -19.1755   -7.4668 C   0  0  0  0  0  0  0  0  0  0  0  0
   26.4176  -20.2704   -8.5794 C   0  0  1  0  0  0  0  0  0  0  0  0
   26.5951  -21.5704   -7.8583 C   0  0  0  0  0  0  0  0  0  0  0  0
   25.1010  -20.0195   -9.1982 C   0  0  0  0  0  0  0  0  0  0  0  0
   24.6871  -20.7427  -10.4200 C   0  0  2  0  0  0  0  0  0  0  0  0
   25.5885  -20.2103  -11.4842 N   0  0  0  0  0  0  0  0  0  0  0  0
   23.3352  -20.5041  -10.9099 C   0  0  0  0  0  0  0  0  0  0  0  0
   23.1132  -19.8572  -12.1077 O   0  0  0  0  0  0  0  0  0  0  0  0
   22.3362  -20.8753  -10.2646 O   0  0  0  0  0  0  0  0  0  0  0  0
  2  1  1  6
  3  2  1  0
  4  5  1  0
  4  3  1  0
  5  6  1  0
  6  7  1  0
  8  2  1  0
  8 15  1  0
  9  8  2  0
 11 10  1  6
 12 11  1  0
 14 13  1  1
 13 11  1  0
 14 15  1  0
 16 14  1  0
 17 16  2  0
 19 18  1  1
 20 19  1  0
 21 19  1  0
 22 21  1  1
 22 24  1  0
 22 23  1  0
 23 16  1  0
 24 25  1  0
 26 24  2  0
M  END
$$$$
