KLL.pdb
     RDKit          3D

 26 25  0  0  1  0  0  0  0  0999 V2000
   21.1369  -13.5906  -16.1467 N   0  0  0  0  0  0  0  0  0  0  0  0
   21.3179  -12.2905  -16.7176 C   0  0  1  0  0  0  0  0  0  0  0  0
   19.9608  -11.7860  -17.1698 C   0  0  0  0  0  0  0  0  0  0  0  0
   19.4617  -12.7649  -18.2125 C   0  0  0  0  0  0  0  0  0  0  0  0
   18.0502  -13.1943  -17.9888 C   0  0  0  0  0  0  0  0  0  0  0  0
   17.5405  -14.0187  -19.1569 C   0  0  0  0  0  0  0  0  0  0  0  0
   16.1718  -14.4288  -18.9656 N   0  0  0  0  0  0  0  0  0  0  0  0
   21.9804  -11.3463  -15.7778 C   0  0  0  0  0  0  0  0  0  0  0  0
   21.7091  -11.2646  -14.5736 O   0  0  0  0  0  0  0  0  0  0  0  0
   27.2379  -10.1012  -16.5682 C   0  0  0  0  0  0  0  0  0  0  0  0
   25.8643  -10.4997  -16.0322 C   0  0  1  0  0  0  0  0  0  0  0  0
   26.1290  -11.0690  -14.6332 C   0  0  0  0  0  0  0  0  0  0  0  0
   25.0591   -9.2531  -15.9096 C   0  0  0  0  0  0  0  0  0  0  0  0
   23.6317   -9.5021  -15.4796 C   0  0  2  0  0  0  0  0  0  0  0  0
   22.9800  -10.4950  -16.3040 N   0  0  0  0  0  0  0  0  0  0  0  0
   22.8999   -8.2222  -15.6405 C   0  0  0  0  0  0  0  0  0  0  0  0
   23.2800   -7.2284  -14.9537 O   0  0  0  0  0  0  0  0  0  0  0  0
   20.7891   -4.4003  -18.7471 C   0  0  0  0  0  0  0  0  0  0  0  0
   19.7890   -5.5779  -18.4905 C   0  0  1  0  0  0  0  0  0  0  0  0
   19.0836   -5.7719  -19.7968 C   0  0  0  0  0  0  0  0  0  0  0  0
   20.6387   -6.6871  -18.0144 C   0  0  0  0  0  0  0  0  0  0  0  0
   21.1080   -6.7353  -16.6128 C   0  0  2  0  0  0  0  0  0  0  0  0
   21.8131   -8.0469  -16.5071 N   0  0  0  0  0  0  0  0  0  0  0  0
   20.0902   -6.7636  -15.5698 C   0  0  0  0  0  0  0  0  0  0  0  0
   19.8222   -5.6491  -14.8026 O   0  0  0  0  0  0  0  0  0  0  0  0
   19.4293   -7.7935  -15.3359 O   0  0  0  0  0  0  0  0  0  0  0  0
  2  1  1  1
  3  2  1  0
  4  5  1  0
  4  3  1  0
  5  6  1  0
  6  7  1  0
  8  2  1  0
  8 15  1  0
  9  8  2  0
 11 10  1  1
 12 11  1  0
 14 13  1  6
 13 11  1  0
 14 15  1  0
 16 14  1  0
 17 16  2  0
 19 18  1  6
 20 19  1  0
 21 19  1  0
 22 21  1  6
 22 24  1  0
 22 23  1  0
 23 16  1  0
 24 25  1  0
 26 24  2  0
M  END
$$$$
