KLL.pdb
     RDKit          3D

 26 25  0  0  1  0  0  0  0  0999 V2000
   29.1270  -19.9715  -16.3356 N   0  0  0  0  0  0  0  0  0  0  0  0
   28.0674  -20.9331  -16.2930 C   0  0  1  0  0  0  0  0  0  0  0  0
   28.3908  -22.0287  -17.2909 C   0  0  0  0  0  0  0  0  0  0  0  0
   28.5110  -21.3585  -18.6441 C   0  0  0  0  0  0  0  0  0  0  0  0
   27.2132  -20.8293  -19.1563 C   0  0  0  0  0  0  0  0  0  0  0  0
   27.3779  -20.2320  -20.5419 C   0  0  0  0  0  0  0  0  0  0  0  0
   26.1351  -19.7060  -21.0490 N   0  0  0  0  0  0  0  0  0  0  0  0
   27.8461  -21.4717  -14.9239 C   0  0  0  0  0  0  0  0  0  0  0  0
   27.0864  -22.4132  -14.6654 O   0  0  0  0  0  0  0  0  0  0  0  0
   31.8010  -20.9100  -10.9197 C   0  0  0  0  0  0  0  0  0  0  0  0
   30.7615  -21.4951  -11.8735 C   0  0  1  0  0  0  0  0  0  0  0  0
   30.6548  -22.9763  -11.4916 C   0  0  0  0  0  0  0  0  0  0  0  0
   29.4663  -20.8199  -11.5838 C   0  0  0  0  0  0  0  0  0  0  0  0
   28.3419  -21.2679  -12.4889 C   0  0  2  0  0  0  0  0  0  0  0  0
   28.5524  -20.8625  -13.8605 N   0  0  0  0  0  0  0  0  0  0  0  0
   27.1045  -20.6105  -12.0026 C   0  0  0  0  0  0  0  0  0  0  0  0
   26.9836  -19.3625  -12.1807 O   0  0  0  0  0  0  0  0  0  0  0  0
   22.3611  -21.7622  -13.5362 C   0  0  0  0  0  0  0  0  0  0  0  0
   23.5107  -20.8086  -13.0654 C   0  0  1  0  0  0  0  0  0  0  0  0
   22.9991  -19.4286  -13.3398 C   0  0  0  0  0  0  0  0  0  0  0  0
   23.7376  -21.1727  -11.6529 C   0  0  0  0  0  0  0  0  0  0  0  0
   24.8442  -20.5662  -10.8818 C   0  0  2  0  0  0  0  0  0  0  0  0
   26.0613  -21.2878  -11.3578 N   0  0  0  0  0  0  0  0  0  0  0  0
   24.8301  -20.7533   -9.4363 C   0  0  0  0  0  0  0  0  0  0  0  0
   24.0712  -19.9425   -8.6183 O   0  0  0  0  0  0  0  0  0  0  0  0
   25.5020  -21.6499   -8.8915 O   0  0  0  0  0  0  0  0  0  0  0  0
  2  1  1  1
  3  2  1  0
  4  5  1  0
  4  3  1  0
  5  6  1  0
  6  7  1  0
  8  2  1  0
  8 15  1  0
  9  8  2  0
 11 10  1  1
 12 11  1  0
 14 13  1  1
 13 11  1  0
 14 15  1  0
 16 14  1  0
 17 16  2  0
 19 18  1  1
 20 19  1  0
 21 19  1  0
 22 21  1  6
 22 24  1  0
 22 23  1  0
 23 16  1  0
 24 25  1  0
 26 24  2  0
M  END
$$$$
