KLL.pdb
     RDKit          3D

 26 25  0  0  1  0  0  0  0  0999 V2000
   22.6454  -22.5640  -13.8308 N   0  0  0  0  0  0  0  0  0  0  0  0
   22.6874  -21.2501  -14.3974 C   0  0  1  0  0  0  0  0  0  0  0  0
   21.3087  -20.9332  -14.9445 C   0  0  0  0  0  0  0  0  0  0  0  0
   21.1080  -21.8247  -16.1526 C   0  0  0  0  0  0  0  0  0  0  0  0
   21.7510  -21.2930  -17.3898 C   0  0  0  0  0  0  0  0  0  0  0  0
   21.4506  -22.1808  -18.5838 C   0  0  0  0  0  0  0  0  0  0  0  0
   22.1685  -23.4291  -18.5164 N   0  0  0  0  0  0  0  0  0  0  0  0
   23.1503  -20.2270  -13.4214 C   0  0  0  0  0  0  0  0  0  0  0  0
   23.0548  -19.0067  -13.6009 O   0  0  0  0  0  0  0  0  0  0  0  0
   22.8950  -21.4713   -8.2131 C   0  0  0  0  0  0  0  0  0  0  0  0
   22.9700  -21.1039   -9.6937 C   0  0  1  0  0  0  0  0  0  0  0  0
   21.6485  -20.3879   -9.9971 C   0  0  0  0  0  0  0  0  0  0  0  0
   24.0960  -20.1428   -9.8540 C   0  0  0  0  0  0  0  0  0  0  0  0
   24.3716  -19.7782  -11.2945 C   0  0  2  0  0  0  0  0  0  0  0  0
   23.7335  -20.6889  -12.2184 N   0  0  0  0  0  0  0  0  0  0  0  0
   25.8379  -19.8765  -11.4948 C   0  0  0  0  0  0  0  0  0  0  0  0
   26.5929  -19.2859  -10.6671 O   0  0  0  0  0  0  0  0  0  0  0  0
   30.6535  -19.8647  -11.8839 C   0  0  0  0  0  0  0  0  0  0  0  0
   30.1070  -21.3044  -12.1694 C   0  0  1  0  0  0  0  0  0  0  0  0
   30.8208  -22.1851  -11.1915 C   0  0  0  0  0  0  0  0  0  0  0  0
   28.6437  -21.1808  -12.0188 C   0  0  0  0  0  0  0  0  0  0  0  0
   27.8555  -20.3335  -12.9396 C   0  0  2  0  0  0  0  0  0  0  0  0
   26.4377  -20.5837  -12.5449 N   0  0  0  0  0  0  0  0  0  0  0  0
   27.9190  -20.6547  -14.3599 C   0  0  0  0  0  0  0  0  0  0  0  0
   26.9786  -21.4733  -14.9500 O   0  0  0  0  0  0  0  0  0  0  0  0
   28.8231  -20.2019  -15.0878 O   0  0  0  0  0  0  0  0  0  0  0  0
  2  1  1  1
  3  2  1  0
  4  5  1  0
  4  3  1  0
  5  6  1  0
  6  7  1  0
  8  2  1  0
  8 15  1  0
  9  8  2  0
 11 10  1  1
 12 11  1  0
 14 13  1  1
 13 11  1  0
 14 15  1  0
 16 14  1  0
 17 16  2  0
 19 18  1  1
 20 19  1  0
 21 19  1  0
 22 21  1  1
 22 24  1  0
 22 23  1  0
 23 16  1  0
 24 25  1  0
 26 24  2  0
M  END
$$$$
