KLL.pdb
     RDKit          3D

 26 25  0  0  1  0  0  0  0  0999 V2000
   26.2609  -24.4995  -15.6835 N   0  0  0  0  0  0  0  0  0  0  0  0
   25.2318  -23.5283  -15.9003 C   0  0  1  0  0  0  0  0  0  0  0  0
   23.9148  -24.2672  -16.0421 C   0  0  0  0  0  0  0  0  0  0  0  0
   24.1049  -25.2792  -17.1531 C   0  0  0  0  0  0  0  0  0  0  0  0
   22.8312  -25.9260  -17.5844 C   0  0  0  0  0  0  0  0  0  0  0  0
   23.0694  -26.8792  -18.7413 C   0  0  0  0  0  0  0  0  0  0  0  0
   21.8537  -27.5360  -19.1526 N   0  0  0  0  0  0  0  0  0  0  0  0
   25.1844  -22.5032  -14.8231 C   0  0  0  0  0  0  0  0  0  0  0  0
   25.2769  -22.7624  -13.6169 O   0  0  0  0  0  0  0  0  0  0  0  0
   27.7410  -17.9779  -15.9587 C   0  0  0  0  0  0  0  0  0  0  0  0
   27.1226  -19.2635  -15.4130 C   0  0  1  0  0  0  0  0  0  0  0  0
   28.1156  -19.7716  -14.3609 C   0  0  0  0  0  0  0  0  0  0  0  0
   25.8465  -18.8900  -14.7424 C   0  0  0  0  0  0  0  0  0  0  0  0
   25.0613  -20.0812  -14.2438 C   0  0  2  0  0  0  0  0  0  0  0  0
   25.0234  -21.1531  -15.2132 N   0  0  0  0  0  0  0  0  0  0  0  0
   23.6699  -19.6203  -14.0170 C   0  0  0  0  0  0  0  0  0  0  0  0
   23.4706  -18.7449  -13.1239 O   0  0  0  0  0  0  0  0  0  0  0  0
   19.9857  -17.1320  -17.0669 C   0  0  0  0  0  0  0  0  0  0  0  0
   20.6780  -17.4491  -15.6983 C   0  0  1  0  0  0  0  0  0  0  0  0
   19.8179  -16.7808  -14.6710 C   0  0  0  0  0  0  0  0  0  0  0  0
   20.7541  -18.9227  -15.6554 C   0  0  0  0  0  0  0  0  0  0  0  0
   21.1799  -19.6245  -14.4253 C   0  0  2  0  0  0  0  0  0  0  0  0
   22.5628  -20.0956  -14.7320 N   0  0  0  0  0  0  0  0  0  0  0  0
   20.4413  -20.8247  -14.0532 C   0  0  0  0  0  0  0  0  0  0  0  0
   19.2433  -20.7446  -13.3743 O   0  0  0  0  0  0  0  0  0  0  0  0
   20.8661  -21.9616  -14.3349 O   0  0  0  0  0  0  0  0  0  0  0  0
  2  1  1  1
  3  2  1  0
  4  5  1  0
  4  3  1  0
  5  6  1  0
  6  7  1  0
  8  2  1  0
  8 15  1  0
  9  8  2  0
 11 10  1  1
 12 11  1  0
 14 13  1  6
 13 11  1  0
 14 15  1  0
 16 14  1  0
 17 16  2  0
 19 18  1  6
 20 19  1  0
 21 19  1  0
 22 21  1  6
 22 24  1  0
 22 23  1  0
 23 16  1  0
 24 25  1  0
 26 24  2  0
M  END
$$$$
