KLL.pdb
     RDKit          3D

 26 25  0  0  1  0  0  0  0  0999 V2000
   28.0932  -21.5058  -15.8580 N   0  0  0  0  0  0  0  0  0  0  0  0
   27.2549  -20.4719  -15.3312 C   0  0  1  0  0  0  0  0  0  0  0  0
   26.7901  -19.6115  -16.4907 C   0  0  0  0  0  0  0  0  0  0  0  0
   28.0293  -18.9599  -17.0689 C   0  0  0  0  0  0  0  0  0  0  0  0
   28.6982  -19.7901  -18.1130 C   0  0  0  0  0  0  0  0  0  0  0  0
   29.8476  -19.0347  -18.7551 C   0  0  0  0  0  0  0  0  0  0  0  0
   30.6237  -19.8812  -19.6265 N   0  0  0  0  0  0  0  0  0  0  0  0
   26.1140  -21.0134  -14.5446 C   0  0  0  0  0  0  0  0  0  0  0  0
   25.4645  -22.0153  -14.8680 O   0  0  0  0  0  0  0  0  0  0  0  0
   26.1202  -20.0434   -9.0161 C   0  0  0  0  0  0  0  0  0  0  0  0
   26.1327  -20.6726  -10.4078 C   0  0  1  0  0  0  0  0  0  0  0  0
   26.1459  -22.1864  -10.1639 C   0  0  0  0  0  0  0  0  0  0  0  0
   24.8562  -20.2948  -11.0750 C   0  0  0  0  0  0  0  0  0  0  0  0
   24.7294  -20.8418  -12.4782 C   0  0  2  0  0  0  0  0  0  0  0  0
   25.7592  -20.3332  -13.3562 N   0  0  0  0  0  0  0  0  0  0  0  0
   23.4174  -20.3914  -13.0031 C   0  0  0  0  0  0  0  0  0  0  0  0
   23.2801  -19.1659  -13.2913 O   0  0  0  0  0  0  0  0  0  0  0  0
   21.1736  -22.0159  -17.3808 C   0  0  0  0  0  0  0  0  0  0  0  0
   21.3412  -20.8697  -16.3268 C   0  0  1  0  0  0  0  0  0  0  0  0
   20.5232  -19.7356  -16.8618 C   0  0  0  0  0  0  0  0  0  0  0  0
   20.9024  -21.4723  -15.0526 C   0  0  0  0  0  0  0  0  0  0  0  0
   21.0407  -20.7354  -13.7779 C   0  0  2  0  0  0  0  0  0  0  0  0
   22.3207  -21.2409  -13.1993 N   0  0  0  0  0  0  0  0  0  0  0  0
   20.0343  -20.9823  -12.7528 C   0  0  0  0  0  0  0  0  0  0  0  0
   18.8800  -20.2300  -12.6890 O   0  0  0  0  0  0  0  0  0  0  0  0
   20.1823  -21.8793  -11.9009 O   0  0  0  0  0  0  0  0  0  0  0  0
  2  1  1  6
  3  2  1  0
  4  5  1  0
  4  3  1  0
  5  6  1  0
  6  7  1  0
  8  2  1  0
  8 15  1  0
  9  8  2  0
 11 10  1  1
 12 11  1  0
 14 13  1  1
 13 11  1  0
 14 15  1  0
 16 14  1  0
 17 16  2  0
 19 18  1  6
 20 19  1  0
 21 19  1  0
 22 21  1  6
 22 24  1  0
 22 23  1  0
 23 16  1  0
 24 25  1  0
 26 24  2  0
M  END
$$$$
