KLL.pdb
     RDKit          3D

 26 25  0  0  1  0  0  0  0  0999 V2000
   23.0584  -18.6695  -14.2745 N   0  0  0  0  0  0  0  0  0  0  0  0
   22.9027  -20.0841  -14.4289 C   0  0  1  0  0  0  0  0  0  0  0  0
   22.2626  -20.3387  -15.7802 C   0  0  0  0  0  0  0  0  0  0  0  0
   20.9085  -19.6605  -15.7513 C   0  0  0  0  0  0  0  0  0  0  0  0
   19.9153  -20.3657  -14.8892 C   0  0  0  0  0  0  0  0  0  0  0  0
   18.5410  -19.7333  -15.0132 C   0  0  0  0  0  0  0  0  0  0  0  0
   18.1102  -19.1417  -13.7712 N   0  0  0  0  0  0  0  0  0  0  0  0
   24.1887  -20.8159  -14.2728 C   0  0  0  0  0  0  0  0  0  0  0  0
   24.3312  -22.0221  -14.5079 O   0  0  0  0  0  0  0  0  0  0  0  0
   28.7860  -18.5011  -15.8826 C   0  0  0  0  0  0  0  0  0  0  0  0
   27.6039  -19.4137  -15.5621 C   0  0  1  0  0  0  0  0  0  0  0  0
   27.7960  -20.6472  -16.4525 C   0  0  0  0  0  0  0  0  0  0  0  0
   27.7306  -19.8158  -14.1339 C   0  0  0  0  0  0  0  0  0  0  0  0
   26.6028  -20.7029  -13.6594 C   0  0  2  0  0  0  0  0  0  0  0  0
   25.3102  -20.0776  -13.8279 N   0  0  0  0  0  0  0  0  0  0  0  0
   26.8131  -20.9349  -12.2097 C   0  0  0  0  0  0  0  0  0  0  0  0
   27.7459  -21.7171  -11.8608 O   0  0  0  0  0  0  0  0  0  0  0  0
   28.1372  -20.7122   -7.4027 C   0  0  0  0  0  0  0  0  0  0  0  0
   26.9117  -19.7556   -7.5920 C   0  0  1  0  0  0  0  0  0  0  0  0
   27.3050  -18.4885   -6.8983 C   0  0  0  0  0  0  0  0  0  0  0  0
   26.7172  -19.6890   -9.0538 C   0  0  0  0  0  0  0  0  0  0  0  0
   26.1073  -20.8174   -9.7899 C   0  0  2  0  0  0  0  0  0  0  0  0
   26.0412  -20.3403  -11.2030 N   0  0  0  0  0  0  0  0  0  0  0  0
   24.7378  -21.1766   -9.4436 C   0  0  0  0  0  0  0  0  0  0  0  0
   23.6796  -20.8232  -10.2547 O   0  0  0  0  0  0  0  0  0  0  0  0
   24.4769  -21.8134   -8.4051 O   0  0  0  0  0  0  0  0  0  0  0  0
  2  1  1  6
  3  2  1  0
  4  5  1  0
  4  3  1  0
  5  6  1  0
  6  7  1  0
  8  2  1  0
  8 15  1  0
  9  8  2  0
 11 10  1  6
 12 11  1  0
 14 13  1  1
 13 11  1  0
 14 15  1  0
 16 14  1  0
 17 16  2  0
 19 18  1  6
 20 19  1  0
 21 19  1  0
 22 21  1  1
 22 24  1  0
 22 23  1  0
 23 16  1  0
 24 25  1  0
 26 24  2  0
M  END
$$$$
