KLL.pdb
     RDKit          3D

 26 25  0  0  1  0  0  0  0  0999 V2000
   20.7938  -23.2987  -13.0862 N   0  0  0  0  0  0  0  0  0  0  0  0
   20.1209  -22.0524  -13.2940 C   0  0  1  0  0  0  0  0  0  0  0  0
   18.8835  -22.0380  -12.4169 C   0  0  0  0  0  0  0  0  0  0  0  0
   18.3436  -23.4533  -12.4085 C   0  0  0  0  0  0  0  0  0  0  0  0
   18.6836  -24.2055  -11.1654 C   0  0  0  0  0  0  0  0  0  0  0  0
   18.0340  -25.5773  -11.1646 C   0  0  0  0  0  0  0  0  0  0  0  0
   18.4889  -26.3842  -10.0600 N   0  0  0  0  0  0  0  0  0  0  0  0
   21.0029  -20.8825  -13.0355 C   0  0  0  0  0  0  0  0  0  0  0  0
   20.6198  -19.7067  -13.0683 O   0  0  0  0  0  0  0  0  0  0  0  0
   24.8959  -21.1917   -9.3591 C   0  0  0  0  0  0  0  0  0  0  0  0
   23.7479  -20.9164  -10.3282 C   0  0  1  0  0  0  0  0  0  0  0  0
   22.8642  -19.8823   -9.6204 C   0  0  0  0  0  0  0  0  0  0  0  0
   24.3382  -20.3026  -11.5497 C   0  0  0  0  0  0  0  0  0  0  0  0
   23.3295  -20.0725  -12.6514 C   0  0  2  0  0  0  0  0  0  0  0  0
   22.3605  -21.1421  -12.7348 N   0  0  0  0  0  0  0  0  0  0  0  0
   24.0821  -20.0366  -13.9289 C   0  0  0  0  0  0  0  0  0  0  0  0
   25.0367  -19.2112  -14.0349 O   0  0  0  0  0  0  0  0  0  0  0  0
   27.2303  -21.5441  -17.6482 C   0  0  0  0  0  0  0  0  0  0  0  0
   25.8820  -22.3281  -17.7900 C   0  0  1  0  0  0  0  0  0  0  0  0
   26.2892  -23.7498  -18.0237 C   0  0  0  0  0  0  0  0  0  0  0  0
   25.1510  -22.0351  -16.5414 C   0  0  0  0  0  0  0  0  0  0  0  0
   24.5308  -20.7111  -16.3186 C   0  0  2  0  0  0  0  0  0  0  0  0
   23.8000  -20.8615  -15.0256 N   0  0  0  0  0  0  0  0  0  0  0  0
   23.5234  -20.2771  -17.2785 C   0  0  0  0  0  0  0  0  0  0  0  0
   23.8555  -19.4710  -18.3473 O   0  0  0  0  0  0  0  0  0  0  0  0
   22.3305  -20.6185  -17.1663 O   0  0  0  0  0  0  0  0  0  0  0  0
  2  1  1  1
  3  2  1  0
  4  5  1  0
  4  3  1  0
  5  6  1  0
  6  7  1  0
  8  2  1  0
  8 15  1  0
  9  8  2  0
 11 10  1  1
 12 11  1  0
 14 13  1  1
 13 11  1  0
 14 15  1  0
 16 14  1  0
 17 16  2  0
 19 18  1  1
 20 19  1  0
 21 19  1  0
 22 21  1  6
 22 24  1  0
 22 23  1  0
 23 16  1  0
 24 25  1  0
 26 24  2  0
M  END
$$$$
