GTP.pdb
     RDKit          3D

 19 19  0  0  1  0  0  0  0  0999 V2000
    8.3315  -13.6590   15.9345 N   0  0  0  0  0  0  0  0  0  0  0  0
    9.0811  -14.3386   16.9456 C   0  0  0  0  0  0  0  0  0  0  0  0
    8.2939  -14.4728   18.1954 C   0  0  0  0  0  0  0  0  0  0  0  0
    7.4023  -13.6475   18.4362 O   0  0  0  0  0  0  0  0  0  0  0  0
    6.3369  -17.3434   19.3787 C   0  0  0  0  0  0  0  0  0  0  0  0
    7.3499  -17.0699   20.4832 C   0  0  1  0  0  0  0  0  0  0  0  0
    8.4656  -17.8867   20.3113 O   0  0  0  0  0  0  0  0  0  0  0  0
    7.8510  -15.6227   20.3912 C   0  0  2  0  0  0  0  0  0  0  0  0
    8.5398  -15.5209   19.1150 N   0  0  0  0  0  0  0  0  0  0  0  0
    8.7969  -15.4136   21.5055 C   0  0  0  0  0  0  0  0  0  0  0  0
   10.0304  -15.4752   21.2531 O   0  0  0  0  0  0  0  0  0  0  0  0
    8.3897  -15.1484   22.8352 N   0  0  0  0  0  0  0  0  0  0  0  0
    7.0514  -15.0728   23.3894 C   0  0  0  0  0  0  0  0  0  0  0  0
    7.1552  -14.0222   24.5014 C   0  0  0  0  0  0  0  0  0  0  0  0
    8.6137  -13.7184   24.6487 C   0  0  0  0  0  0  0  0  0  0  0  0
    9.2639  -14.8867   23.9671 C   0  0  1  0  0  0  0  0  0  0  0  0
    9.2966  -16.0216   24.9102 C   0  0  0  0  0  0  0  0  0  0  0  0
   10.2351  -15.9759   25.9315 O   0  0  0  0  0  0  0  0  0  0  0  0
    8.5489  -17.0177   24.8629 O   0  0  0  0  0  0  0  0  0  0  0  0
  1  2  1  0
  2  3  1  0
  3  4  2  0
  3  9  1  0
  6  5  1  6
  6  7  1  0
  8  6  1  0
  8  9  1  6
 10 11  2  0
 10  8  1  0
 12 10  1  0
 13 12  1  0
 14 15  1  0
 14 13  1  0
 15 16  1  0
 16 12  1  0
 16 17  1  1
 18 17  1  0
 19 17  2  0
M  END
$$$$
