GTP.pdb
     RDKit          3D

 19 19  0  0  1  0  0  0  0  0999 V2000
    9.1104  -13.0129   18.0740 N   0  0  0  0  0  0  0  0  0  0  0  0
    9.6343  -13.5583   19.2881 C   0  0  0  0  0  0  0  0  0  0  0  0
    8.6949  -13.3505   20.4167 C   0  0  0  0  0  0  0  0  0  0  0  0
    7.8937  -12.4073   20.3666 O   0  0  0  0  0  0  0  0  0  0  0  0
    6.0588  -15.2646   21.2965 C   0  0  0  0  0  0  0  0  0  0  0  0
    6.8353  -15.2544   22.6072 C   0  0  1  0  0  0  0  0  0  0  0  0
    7.6489  -16.3833   22.6810 O   0  0  0  0  0  0  0  0  0  0  0  0
    7.7707  -14.0393   22.6554 C   0  0  2  0  0  0  0  0  0  0  0  0
    8.6952  -14.2049   21.5458 N   0  0  0  0  0  0  0  0  0  0  0  0
    8.4942  -14.0925   23.9414 C   0  0  0  0  0  0  0  0  0  0  0  0
    9.7129  -14.4139   23.9209 O   0  0  0  0  0  0  0  0  0  0  0  0
    7.8910  -13.8017   25.1886 N   0  0  0  0  0  0  0  0  0  0  0  0
    6.5069  -13.4892   25.4902 C   0  0  0  0  0  0  0  0  0  0  0  0
    6.5819  -12.5191   26.6752 C   0  0  0  0  0  0  0  0  0  0  0  0
    8.0141  -12.5080   27.1109 C   0  0  0  0  0  0  0  0  0  0  0  0
    8.5604  -13.7545   26.4784 C   0  0  1  0  0  0  0  0  0  0  0  0
    8.2010  -14.9075   27.3269 C   0  0  0  0  0  0  0  0  0  0  0  0
    8.8599  -15.0362   28.5414 O   0  0  0  0  0  0  0  0  0  0  0  0
    7.3530  -15.7748   27.0399 O   0  0  0  0  0  0  0  0  0  0  0  0
  1  2  1  0
  2  3  1  0
  3  4  2  0
  3  9  1  0
  6  5  1  6
  6  7  1  0
  8  6  1  0
  8  9  1  6
 10 11  2  0
 10  8  1  0
 12 10  1  0
 13 12  1  0
 14 15  1  0
 14 13  1  0
 15 16  1  0
 16 12  1  0
 16 17  1  1
 18 17  1  0
 19 17  2  0
M  END
$$$$
