GTP.pdb
     RDKit          3D

 19 19  0  0  1  0  0  0  0  0999 V2000
   12.8595  -17.6940   22.9367 N   0  0  0  0  0  0  0  0  0  0  0  0
   11.4771  -17.7497   23.2998 C   0  0  0  0  0  0  0  0  0  0  0  0
   10.8939  -16.3893   23.3944 C   0  0  0  0  0  0  0  0  0  0  0  0
   11.6277  -15.4404   23.7032 O   0  0  0  0  0  0  0  0  0  0  0  0
    6.6715  -15.7625   22.6283 C   0  0  0  0  0  0  0  0  0  0  0  0
    7.7716  -14.7531   22.3254 C   0  0  1  0  0  0  0  0  0  0  0  0
    7.2639  -13.4593   22.4261 O   0  0  0  0  0  0  0  0  0  0  0  0
    8.8902  -14.8647   23.3694 C   0  0  2  0  0  0  0  0  0  0  0  0
    9.5211  -16.1541   23.1399 N   0  0  0  0  0  0  0  0  0  0  0  0
    8.2532  -14.8323   24.7011 C   0  0  0  0  0  0  0  0  0  0  0  0
    8.2127  -15.9043   25.3630 O   0  0  0  0  0  0  0  0  0  0  0  0
    7.6895  -13.6641   25.2681 N   0  0  0  0  0  0  0  0  0  0  0  0
    7.4600  -12.3663   24.6622 C   0  0  0  0  0  0  0  0  0  0  0  0
    7.6427  -11.3683   25.8118 C   0  0  0  0  0  0  0  0  0  0  0  0
    7.7576  -12.1894   27.0583 C   0  0  0  0  0  0  0  0  0  0  0  0
    7.2034  -13.5168   26.6304 C   0  0  1  0  0  0  0  0  0  0  0  0
    5.7299  -13.4494   26.6841 C   0  0  0  0  0  0  0  0  0  0  0  0
    5.1421  -13.3187   27.9343 O   0  0  0  0  0  0  0  0  0  0  0  0
    4.9714  -13.5005   25.6963 O   0  0  0  0  0  0  0  0  0  0  0  0
  1  2  1  0
  2  3  1  0
  3  4  2  0
  3  9  1  0
  6  5  1  1
  6  7  1  0
  8  6  1  0
  8  9  1  6
 10 11  2  0
 10  8  1  0
 12 10  1  0
 13 12  1  0
 14 15  1  0
 14 13  1  0
 15 16  1  0
 16 12  1  0
 16 17  1  6
 18 17  1  0
 19 17  2  0
M  END
$$$$
