GTP.pdb
     RDKit          3D

 19 19  0  0  1  0  0  0  0  0999 V2000
   13.4804  -16.6421   16.4381 N   0  0  0  0  0  0  0  0  0  0  0  0
   12.1279  -16.9089   16.8197 C   0  0  0  0  0  0  0  0  0  0  0  0
   11.5528  -15.7727   17.5799 C   0  0  0  0  0  0  0  0  0  0  0  0
   12.3152  -15.0062   18.1845 O   0  0  0  0  0  0  0  0  0  0  0  0
    7.4406  -13.2475   18.7394 C   0  0  0  0  0  0  0  0  0  0  0  0
    8.0787  -14.4774   18.1059 C   0  0  1  0  0  0  0  0  0  0  0  0
    8.0828  -14.3437   16.7189 O   0  0  0  0  0  0  0  0  0  0  0  0
    9.5467  -14.5898   18.5372 C   0  0  2  0  0  0  0  0  0  0  0  0
   10.1559  -15.5471   17.6285 N   0  0  0  0  0  0  0  0  0  0  0  0
    9.5601  -15.1102   19.9189 C   0  0  0  0  0  0  0  0  0  0  0  0
   10.2764  -16.1181   20.1639 O   0  0  0  0  0  0  0  0  0  0  0  0
    8.8134  -14.5365   20.9760 N   0  0  0  0  0  0  0  0  0  0  0  0
    7.8471  -13.4553   20.9382 C   0  0  0  0  0  0  0  0  0  0  0  0
    8.0065  -12.7508   22.2907 C   0  0  0  0  0  0  0  0  0  0  0  0
    8.9169  -13.6173   23.1040 C   0  0  0  0  0  0  0  0  0  0  0  0
    8.8616  -14.9281   22.3753 C   0  0  1  0  0  0  0  0  0  0  0  0
    7.6384  -15.6434   22.7884 C   0  0  0  0  0  0  0  0  0  0  0  0
    7.6251  -16.2049   24.0574 O   0  0  0  0  0  0  0  0  0  0  0  0
    6.6164  -15.7834   22.0888 O   0  0  0  0  0  0  0  0  0  0  0  0
  1  2  1  0
  2  3  1  0
  3  4  2  0
  3  9  1  0
  6  5  1  1
  6  7  1  0
  8  6  1  0
  8  9  1  6
 10 11  2  0
 10  8  1  0
 12 10  1  0
 13 12  1  0
 14 15  1  0
 14 13  1  0
 15 16  1  0
 16 12  1  0
 16 17  1  1
 18 17  1  0
 19 17  2  0
M  END
$$$$
