GTP.pdb
     RDKit          3D

 19 19  0  0  1  0  0  0  0  0999 V2000
   11.9328  -13.7578   19.1953 N   0  0  0  0  0  0  0  0  0  0  0  0
   11.4002  -14.5991   20.2223 C   0  0  0  0  0  0  0  0  0  0  0  0
   10.2794  -13.9343   20.9303 C   0  0  0  0  0  0  0  0  0  0  0  0
   10.1288  -12.7114   20.8038 O   0  0  0  0  0  0  0  0  0  0  0  0
    6.6852  -14.4746   20.8266 C   0  0  0  0  0  0  0  0  0  0  0  0
    7.0592  -14.7061   22.2851 C   0  0  1  0  0  0  0  0  0  0  0  0
    7.2460  -16.0682   22.5125 O   0  0  0  0  0  0  0  0  0  0  0  0
    8.3969  -14.0242   22.6001 C   0  0  2  0  0  0  0  0  0  0  0  0
    9.3815  -14.6661   21.7447 N   0  0  0  0  0  0  0  0  0  0  0  0
    8.6998  -14.2864   24.0213 C   0  0  0  0  0  0  0  0  0  0  0  0
    9.7332  -14.9559   24.2916 O   0  0  0  0  0  0  0  0  0  0  0  0
    7.8925  -13.8258   25.0890 N   0  0  0  0  0  0  0  0  0  0  0  0
    6.5725  -13.2254   25.0512 C   0  0  0  0  0  0  0  0  0  0  0  0
    6.5649  -12.2410   26.2268 C   0  0  0  0  0  0  0  0  0  0  0  0
    7.8232  -12.5031   26.9942 C   0  0  0  0  0  0  0  0  0  0  0  0
    8.2322  -13.8606   26.5023 C   0  0  1  0  0  0  0  0  0  0  0  0
    7.4504  -14.8788   27.2306 C   0  0  0  0  0  0  0  0  0  0  0  0
    7.7904  -15.1180   28.5546 O   0  0  0  0  0  0  0  0  0  0  0  0
    6.5093  -15.5411   26.7517 O   0  0  0  0  0  0  0  0  0  0  0  0
  1  2  1  0
  2  3  1  0
  3  4  2  0
  3  9  1  0
  6  5  1  6
  6  7  1  0
  8  6  1  0
  8  9  1  6
 10 11  2  0
 10  8  1  0
 12 10  1  0
 13 12  1  0
 14 15  1  0
 14 13  1  0
 15 16  1  0
 16 12  1  0
 16 17  1  1
 18 17  1  0
 19 17  2  0
M  END
$$$$
