GTP.pdb
     RDKit          3D

 19 19  0  0  1  0  0  0  0  0999 V2000
    8.8013  -18.4364   16.5001 N   0  0  0  0  0  0  0  0  0  0  0  0
    8.1143  -18.5021   17.7530 C   0  0  0  0  0  0  0  0  0  0  0  0
    8.7462  -17.6118   18.7567 C   0  0  0  0  0  0  0  0  0  0  0  0
    9.9752  -17.4589   18.7361 O   0  0  0  0  0  0  0  0  0  0  0  0
    6.3050  -15.6571   21.7279 C   0  0  0  0  0  0  0  0  0  0  0  0
    7.5121  -15.0096   21.0612 C   0  0  1  0  0  0  0  0  0  0  0  0
    8.1088  -14.1088   21.9412 O   0  0  0  0  0  0  0  0  0  0  0  0
    8.5707  -16.0732   20.7422 C   0  0  2  0  0  0  0  0  0  0  0  0
    7.9765  -16.9357   19.7340 N   0  0  0  0  0  0  0  0  0  0  0  0
    8.8216  -16.8300   21.9850 C   0  0  0  0  0  0  0  0  0  0  0  0
    8.2096  -17.9201   22.1468 O   0  0  0  0  0  0  0  0  0  0  0  0
    9.7103  -16.3950   22.9974 N   0  0  0  0  0  0  0  0  0  0  0  0
   10.3830  -15.1183   23.1443 C   0  0  0  0  0  0  0  0  0  0  0  0
   11.7187  -15.4631   23.8138 C   0  0  0  0  0  0  0  0  0  0  0  0
   11.6272  -16.9063   24.2007 C   0  0  0  0  0  0  0  0  0  0  0  0
   10.1506  -17.1687   24.1470 C   0  0  1  0  0  0  0  0  0  0  0  0
    9.5419  -16.6845   25.4013 C   0  0  0  0  0  0  0  0  0  0  0  0
    9.8644  -17.3602   26.5697 O   0  0  0  0  0  0  0  0  0  0  0  0
    8.7614  -15.7172   25.4952 O   0  0  0  0  0  0  0  0  0  0  0  0
  1  2  1  0
  2  3  1  0
  3  4  2  0
  3  9  1  0
  6  5  1  1
  6  7  1  0
  8  6  1  0
  8  9  1  6
 10 11  2  0
 10  8  1  0
 12 10  1  0
 13 12  1  0
 14 15  1  0
 14 13  1  0
 15 16  1  0
 16 12  1  0
 16 17  1  1
 18 17  1  0
 19 17  2  0
M  END
$$$$
