GTP.pdb
     RDKit          3D

 19 19  0  0  1  0  0  0  0  0999 V2000
    9.1900  -13.4122   18.0621 N   0  0  0  0  0  0  0  0  0  0  0  0
    9.7812  -13.3366   19.3625 C   0  0  0  0  0  0  0  0  0  0  0  0
    8.7437  -13.2141   20.4151 C   0  0  0  0  0  0  0  0  0  0  0  0
    7.8909  -12.3210   20.3181 O   0  0  0  0  0  0  0  0  0  0  0  0
    6.1125  -15.2801   21.1970 C   0  0  0  0  0  0  0  0  0  0  0  0
    6.8674  -15.2370   22.5196 C   0  0  1  0  0  0  0  0  0  0  0  0
    7.7439  -16.3176   22.5964 O   0  0  0  0  0  0  0  0  0  0  0  0
    7.7299  -13.9703   22.5924 C   0  0  2  0  0  0  0  0  0  0  0  0
    8.7082  -14.0935   21.5242 N   0  0  0  0  0  0  0  0  0  0  0  0
    8.4003  -13.9703   23.9079 C   0  0  0  0  0  0  0  0  0  0  0  0
    9.6336  -14.2290   23.9427 O   0  0  0  0  0  0  0  0  0  0  0  0
    7.7312  -13.6952   25.1247 N   0  0  0  0  0  0  0  0  0  0  0  0
    6.3121  -13.5323   25.3773 C   0  0  0  0  0  0  0  0  0  0  0  0
    6.2400  -12.5072   26.5153 C   0  0  0  0  0  0  0  0  0  0  0  0
    7.6480  -12.3100   26.9843 C   0  0  0  0  0  0  0  0  0  0  0  0
    8.3523  -13.5120   26.4264 C   0  0  1  0  0  0  0  0  0  0  0  0
    8.1029  -14.6592   27.3209 C   0  0  0  0  0  0  0  0  0  0  0  0
    7.3270  -15.6977   26.8258 O   0  0  0  0  0  0  0  0  0  0  0  0
    8.5334  -14.7699   28.4854 O   0  0  0  0  0  0  0  0  0  0  0  0
  1  2  1  0
  2  3  1  0
  3  4  2  0
  3  9  1  0
  6  5  1  6
  6  7  1  0
  8  6  1  0
  8  9  1  6
 10 11  2  0
 10  8  1  0
 12 10  1  0
 13 12  1  0
 14 15  1  0
 14 13  1  0
 15 16  1  0
 16 12  1  0
 16 17  1  1
 18 17  1  0
 19 17  2  0
M  END
$$$$
