GTP.pdb
     RDKit          3D

 19 19  0  0  1  0  0  0  0  0999 V2000
   12.1016  -17.2758   18.2151 N   0  0  0  0  0  0  0  0  0  0  0  0
   10.7465  -17.3489   18.6669 C   0  0  0  0  0  0  0  0  0  0  0  0
   10.4633  -16.3029   19.6795 C   0  0  0  0  0  0  0  0  0  0  0  0
   11.3922  -15.8752   20.3784 O   0  0  0  0  0  0  0  0  0  0  0  0
    7.6341  -13.2834   19.6004 C   0  0  0  0  0  0  0  0  0  0  0  0
    7.4380  -14.3466   20.6737 C   0  0  1  0  0  0  0  0  0  0  0  0
    6.6231  -15.3653   20.1838 O   0  0  0  0  0  0  0  0  0  0  0  0
    8.7834  -14.9953   21.0241 C   0  0  2  0  0  0  0  0  0  0  0  0
    9.1583  -15.7853   19.8627 N   0  0  0  0  0  0  0  0  0  0  0  0
    8.5584  -15.8704   22.1919 C   0  0  0  0  0  0  0  0  0  0  0  0
    8.8692  -17.0875   22.0870 O   0  0  0  0  0  0  0  0  0  0  0  0
    8.0146  -15.4131   23.4163 N   0  0  0  0  0  0  0  0  0  0  0  0
    7.4531  -14.1169   23.7461 C   0  0  0  0  0  0  0  0  0  0  0  0
    7.8018  -13.9126   25.2252 C   0  0  0  0  0  0  0  0  0  0  0  0
    8.3626  -15.2162   25.7020 C   0  0  0  0  0  0  0  0  0  0  0  0
    7.9010  -16.1787   24.6471 C   0  0  1  0  0  0  0  0  0  0  0  0
    6.5027  -16.5542   24.9338 C   0  0  0  0  0  0  0  0  0  0  0  0
    6.2693  -17.3370   26.0557 O   0  0  0  0  0  0  0  0  0  0  0  0
    5.5148  -16.2244   24.2491 O   0  0  0  0  0  0  0  0  0  0  0  0
  1  2  1  0
  2  3  1  0
  3  4  2  0
  3  9  1  0
  6  5  1  6
  6  7  1  0
  8  6  1  0
  8  9  1  6
 10 11  2  0
 10  8  1  0
 12 10  1  0
 13 12  1  0
 14 15  1  0
 14 13  1  0
 15 16  1  0
 16 12  1  0
 16 17  1  1
 18 17  1  0
 19 17  2  0
M  END
$$$$
