GTP.pdb
     RDKit          3D

 19 19  0  0  1  0  0  0  0  0999 V2000
   12.6748  -16.9120   20.5692 N   0  0  0  0  0  0  0  0  0  0  0  0
   11.2957  -17.1529   20.8626 C   0  0  0  0  0  0  0  0  0  0  0  0
   10.6953  -16.0070   21.5879 C   0  0  0  0  0  0  0  0  0  0  0  0
   11.4306  -15.2629   22.2510 O   0  0  0  0  0  0  0  0  0  0  0  0
    7.4294  -13.7734   20.4460 C   0  0  0  0  0  0  0  0  0  0  0  0
    7.2788  -14.5104   21.7708 C   0  0  1  0  0  0  0  0  0  0  0  0
    6.7078  -15.7623   21.5506 O   0  0  0  0  0  0  0  0  0  0  0  0
    8.6585  -14.7639   22.3919 C   0  0  2  0  0  0  0  0  0  0  0  0
    9.3043  -15.7475   21.5381 N   0  0  0  0  0  0  0  0  0  0  0  0
    8.4372  -15.3194   23.7420 C   0  0  0  0  0  0  0  0  0  0  0  0
    8.9968  -16.4115   24.0307 O   0  0  0  0  0  0  0  0  0  0  0  0
    7.6330  -14.6902   24.7224 N   0  0  0  0  0  0  0  0  0  0  0  0
    6.7848  -13.5195   24.6031 C   0  0  0  0  0  0  0  0  0  0  0  0
    6.8555  -12.8523   25.9819 C   0  0  0  0  0  0  0  0  0  0  0  0
    7.5806  -13.8143   26.8705 C   0  0  0  0  0  0  0  0  0  0  0  0
    7.4840  -15.1035   26.1084 C   0  0  1  0  0  0  0  0  0  0  0  0
    6.1591  -15.7017   26.3641 C   0  0  0  0  0  0  0  0  0  0  0  0
    5.9593  -16.3069   27.5969 O   0  0  0  0  0  0  0  0  0  0  0  0
    5.2054  -15.7069   25.5616 O   0  0  0  0  0  0  0  0  0  0  0  0
  1  2  1  0
  2  3  1  0
  3  4  2  0
  3  9  1  0
  6  5  1  6
  6  7  1  0
  8  6  1  0
  8  9  1  6
 10 11  2  0
 10  8  1  0
 12 10  1  0
 13 12  1  0
 14 15  1  0
 14 13  1  0
 15 16  1  0
 16 12  1  0
 16 17  1  6
 18 17  1  0
 19 17  2  0
M  END
$$$$
