GTP.pdb
     RDKit          3D

 19 19  0  0  1  0  0  0  0  0999 V2000
   11.7812  -17.5382   18.1102 N   0  0  0  0  0  0  0  0  0  0  0  0
   10.4347  -17.5572   18.5923 C   0  0  0  0  0  0  0  0  0  0  0  0
   10.2261  -16.5249   19.6365 C   0  0  0  0  0  0  0  0  0  0  0  0
   11.2039  -16.1023   20.2685 O   0  0  0  0  0  0  0  0  0  0  0  0
    7.4082  -13.5170   19.7343 C   0  0  0  0  0  0  0  0  0  0  0  0
    7.2932  -14.5529   20.8454 C   0  0  1  0  0  0  0  0  0  0  0  0
    6.4334  -15.5751   20.4486 O   0  0  0  0  0  0  0  0  0  0  0  0
    8.6581  -15.2057   21.0998 C   0  0  2  0  0  0  0  0  0  0  0  0
    8.9372  -16.0145   19.9245 N   0  0  0  0  0  0  0  0  0  0  0  0
    8.5195  -16.0627   22.2942 C   0  0  0  0  0  0  0  0  0  0  0  0
    8.8185  -17.2823   22.1843 O   0  0  0  0  0  0  0  0  0  0  0  0
    8.0707  -15.5854   23.5491 N   0  0  0  0  0  0  0  0  0  0  0  0
    7.5644  -14.2739   23.9066 C   0  0  0  0  0  0  0  0  0  0  0  0
    8.0168  -14.0703   25.3575 C   0  0  0  0  0  0  0  0  0  0  0  0
    8.5766  -15.3848   25.8047 C   0  0  0  0  0  0  0  0  0  0  0  0
    8.0217  -16.3413   24.7901 C   0  0  1  0  0  0  0  0  0  0  0  0
    6.6372  -16.6804   25.1729 C   0  0  0  0  0  0  0  0  0  0  0  0
    6.4644  -17.5280   26.2580 O   0  0  0  0  0  0  0  0  0  0  0  0
    5.6108  -16.2666   24.5995 O   0  0  0  0  0  0  0  0  0  0  0  0
  1  2  1  0
  2  3  1  0
  3  4  2  0
  3  9  1  0
  6  5  1  6
  6  7  1  0
  8  6  1  0
  8  9  1  6
 10 11  2  0
 10  8  1  0
 12 10  1  0
 13 12  1  0
 14 15  1  0
 14 13  1  0
 15 16  1  0
 16 12  1  0
 16 17  1  1
 18 17  1  0
 19 17  2  0
M  END
$$$$
