TKR.pdb
     RDKit          3D

 28 27  0  0  1  0  0  0  0  0999 V2000
   13.9968  -13.8929  -18.4029 C   0  0  0  0  0  0  0  0  0  0  0  0
   13.6446  -14.6497  -17.1546 C   0  0  1  0  0  0  0  0  0  0  0  0
   12.3589  -15.1665  -17.3057 O   0  0  0  0  0  0  0  0  0  0  0  0
   14.5825  -15.7957  -16.8755 C   0  0  2  0  0  0  0  0  0  0  0  0
   14.0679  -16.4840  -15.7064 N   0  0  0  0  0  0  0  0  0  0  0  0
   15.9671  -15.3446  -16.6200 C   0  0  0  0  0  0  0  0  0  0  0  0
   16.2784  -14.5739  -15.6782 O   0  0  0  0  0  0  0  0  0  0  0  0
   17.0289  -15.7824  -17.4594 N   0  0  0  0  0  0  0  0  0  0  0  0
   18.4089  -15.3018  -17.2166 C   0  0  1  0  0  0  0  0  0  0  0  0
   19.3812  -16.2373  -17.8799 C   0  0  0  0  0  0  0  0  0  0  0  0
   19.5029  -17.5080  -17.0941 C   0  0  0  0  0  0  0  0  0  0  0  0
   20.5252  -18.4401  -17.7357 C   0  0  0  0  0  0  0  0  0  0  0  0
   20.4682  -19.7594  -17.0373 C   0  0  0  0  0  0  0  0  0  0  0  0
   21.4705  -20.6876  -17.5058 N   0  0  0  0  0  0  0  0  0  0  0  0
   18.5413  -13.9213  -17.7629 C   0  0  0  0  0  0  0  0  0  0  0  0
   17.9908  -13.5906  -18.8410 O   0  0  0  0  0  0  0  0  0  0  0  0
   22.2022   -7.0563  -15.7040 N   0  0  0  0  0  0  0  0  0  0  0  0
   21.3337   -6.3521  -16.6084 C   0  0  0  0  0  0  0  0  0  0  0  0
   21.8065   -5.3205  -17.2117 N   0  0  0  0  0  0  0  0  0  0  0  0
   20.0253   -6.8108  -16.7937 N   0  0  0  0  0  0  0  0  0  0  0  0
   19.6127   -8.0844  -16.1129 C   0  0  0  0  0  0  0  0  0  0  0  0
   19.6956   -9.1892  -17.0781 C   0  0  0  0  0  0  0  0  0  0  0  0
   19.3753  -10.5734  -16.7472 C   0  0  0  0  0  0  0  0  0  0  0  0
   19.4930  -11.6208  -17.7785 C   0  0  2  0  0  0  0  0  0  0  0  0
   19.2893  -12.9432  -17.0850 N   0  0  0  0  0  0  0  0  0  0  0  0
   20.8337  -11.7982  -18.4021 C   0  0  0  0  0  0  0  0  0  0  0  0
   21.7384  -12.7868  -18.2491 O   0  0  0  0  0  0  0  0  0  0  0  0
   21.2041  -10.8585  -19.2213 O   0  0  0  0  0  0  0  0  0  0  0  0
  2  1  1  6
  2  4  1  0
  3  2  1  0
  4  6  1  0
  4  5  1  1
  6  7  2  0
  8  6  1  0
  8  9  1  0
  9 10  1  6
 10 11  1  0
 11 12  1  0
 12 13  1  0
 13 14  1  0
 15  9  1  0
 15 25  1  0
 16 15  2  0
 17 18  1  0
 18 20  1  0
 19 18  2  0
 21 20  1  0
 21 22  1  0
 22 23  1  0
 24 25  1  0
 24 23  1  1
 26 24  1  0
 27 26  1  0
 28 26  2  0
M  END
$$$$
