TKR.pdb
     RDKit          3D

 28 27  0  0  1  0  0  0  0  0999 V2000
   23.5993  -13.9134  -14.1489 C   0  0  0  0  0  0  0  0  0  0  0  0
   23.2731  -13.2397  -15.4507 C   0  0  1  0  0  0  0  0  0  0  0  0
   23.3646  -11.8614  -15.2637 O   0  0  0  0  0  0  0  0  0  0  0  0
   24.2101  -13.6264  -16.5658 C   0  0  2  0  0  0  0  0  0  0  0  0
   23.8028  -12.8724  -17.7367 N   0  0  0  0  0  0  0  0  0  0  0  0
   24.1676  -15.0738  -16.8644 C   0  0  0  0  0  0  0  0  0  0  0  0
   23.1568  -15.6508  -17.3369 O   0  0  0  0  0  0  0  0  0  0  0  0
   25.3072  -15.8891  -16.6190 N   0  0  0  0  0  0  0  0  0  0  0  0
   25.2562  -17.3393  -16.9168 C   0  0  1  0  0  0  0  0  0  0  0  0
   26.6425  -17.8271  -17.2339 C   0  0  0  0  0  0  0  0  0  0  0  0
   27.0008  -17.4982  -18.6518 C   0  0  0  0  0  0  0  0  0  0  0  0
   28.3456  -18.1146  -19.0224 C   0  0  0  0  0  0  0  0  0  0  0  0
   28.6305  -17.8046  -20.4557 C   0  0  0  0  0  0  0  0  0  0  0  0
   29.9388  -18.2473  -20.8776 N   0  0  0  0  0  0  0  0  0  0  0  0
   24.6977  -18.0545  -15.7343 C   0  0  0  0  0  0  0  0  0  0  0  0
   25.0622  -17.7702  -14.5677 O   0  0  0  0  0  0  0  0  0  0  0  0
   17.7942  -22.5626  -12.6113 N   0  0  0  0  0  0  0  0  0  0  0  0
   17.8899  -21.2034  -12.1513 C   0  0  0  0  0  0  0  0  0  0  0  0
   17.1991  -20.8701  -11.1201 N   0  0  0  0  0  0  0  0  0  0  0  0
   18.7197  -20.3087  -12.8349 N   0  0  0  0  0  0  0  0  0  0  0  0
   19.4690  -20.8072  -14.0375 C   0  0  0  0  0  0  0  0  0  0  0  0
   20.8992  -20.5204  -13.8605 C   0  0  0  0  0  0  0  0  0  0  0  0
   21.7301  -19.9036  -14.8887 C   0  0  0  0  0  0  0  0  0  0  0  0
   23.1658  -19.6814  -14.6366 C   0  0  2  0  0  0  0  0  0  0  0  0
   23.7415  -19.0730  -15.8895 N   0  0  0  0  0  0  0  0  0  0  0  0
   24.0104  -20.8956  -14.4623 C   0  0  0  0  0  0  0  0  0  0  0  0
   24.2658  -21.6239  -13.3561 O   0  0  0  0  0  0  0  0  0  0  0  0
   24.6029  -21.3300  -15.5354 O   0  0  0  0  0  0  0  0  0  0  0  0
  2  1  1  1
  2  4  1  0
  3  2  1  0
  4  6  1  0
  4  5  1  6
  6  7  2  0
  8  6  1  0
  8  9  1  0
  9 10  1  1
 10 11  1  0
 11 12  1  0
 12 13  1  0
 13 14  1  0
 15  9  1  0
 15 25  1  0
 16 15  2  0
 17 18  1  0
 18 20  1  0
 19 18  2  0
 21 20  1  0
 21 22  1  0
 22 23  1  0
 24 25  1  0
 24 23  1  6
 26 24  1  0
 27 26  1  0
 28 26  2  0
M  END
$$$$
