TKR.pdb
     RDKit          3D

 28 27  0  0  1  0  0  0  0  0999 V2000
   17.6773  -20.7824  -18.1528 C   0  0  0  0  0  0  0  0  0  0  0  0
   17.8893  -19.3171  -18.4037 C   0  0  1  0  0  0  0  0  0  0  0  0
   18.0529  -18.6828  -17.1733 O   0  0  0  0  0  0  0  0  0  0  0  0
   19.1069  -19.0330  -19.2450 C   0  0  2  0  0  0  0  0  0  0  0  0
   18.8338  -19.5587  -20.5696 N   0  0  0  0  0  0  0  0  0  0  0  0
   20.3298  -19.6611  -18.7010 C   0  0  0  0  0  0  0  0  0  0  0  0
   20.5913  -20.8833  -18.8263 O   0  0  0  0  0  0  0  0  0  0  0  0
   21.2833  -18.8771  -17.9939 N   0  0  0  0  0  0  0  0  0  0  0  0
   22.5248  -19.5050  -17.4853 C   0  0  1  0  0  0  0  0  0  0  0  0
   23.6534  -18.5165  -17.5824 C   0  0  0  0  0  0  0  0  0  0  0  0
   24.9480  -19.1607  -17.1876 C   0  0  0  0  0  0  0  0  0  0  0  0
   26.0731  -18.1316  -17.1598 C   0  0  0  0  0  0  0  0  0  0  0  0
   27.3518  -18.8354  -16.8418 C   0  0  0  0  0  0  0  0  0  0  0  0
   28.4498  -17.9276  -16.6054 N   0  0  0  0  0  0  0  0  0  0  0  0
   22.3071  -19.9274  -16.0726 C   0  0  0  0  0  0  0  0  0  0  0  0
   21.7277  -19.1782  -15.2494 O   0  0  0  0  0  0  0  0  0  0  0  0
   23.6053  -26.8149  -14.9068 N   0  0  0  0  0  0  0  0  0  0  0  0
   22.1746  -26.9187  -14.8051 C   0  0  0  0  0  0  0  0  0  0  0  0
   21.6797  -28.0512  -14.4526 N   0  0  0  0  0  0  0  0  0  0  0  0
   21.3873  -25.7982  -15.0904 N   0  0  0  0  0  0  0  0  0  0  0  0
   22.0749  -24.4821  -15.3165 C   0  0  0  0  0  0  0  0  0  0  0  0
   22.6788  -24.0367  -14.0531 C   0  0  0  0  0  0  0  0  0  0  0  0
   23.3031  -22.7303  -13.8756 C   0  0  0  0  0  0  0  0  0  0  0  0
   22.5342  -21.5045  -14.1596 C   0  0  2  0  0  0  0  0  0  0  0  0
   22.7452  -21.1828  -15.6166 N   0  0  0  0  0  0  0  0  0  0  0  0
   22.9966  -20.2552  -13.4936 C   0  0  0  0  0  0  0  0  0  0  0  0
   23.8192  -19.2853  -13.9428 O   0  0  0  0  0  0  0  0  0  0  0  0
   22.5476  -20.0582  -12.2891 O   0  0  0  0  0  0  0  0  0  0  0  0
  2  1  1  1
  2  4  1  0
  3  2  1  0
  4  6  1  0
  4  5  1  6
  6  7  2  0
  8  6  1  0
  8  9  1  0
  9 10  1  1
 10 11  1  0
 11 12  1  0
 12 13  1  0
 13 14  1  0
 15  9  1  0
 15 25  1  0
 16 15  2  0
 17 18  1  0
 18 20  1  0
 19 18  2  0
 21 20  1  0
 21 22  1  0
 22 23  1  0
 24 25  1  0
 24 23  1  1
 26 24  1  0
 27 26  1  0
 28 26  2  0
M  END
$$$$
