TKR.pdb
     RDKit          3D

 28 27  0  0  1  0  0  0  0  0999 V2000
   27.6531  -25.2800  -18.9567 C   0  0  0  0  0  0  0  0  0  0  0  0
   27.0154  -24.0224  -18.4403 C   0  0  1  0  0  0  0  0  0  0  0  0
   26.0736  -24.3751  -17.4751 O   0  0  0  0  0  0  0  0  0  0  0  0
   28.0040  -23.0761  -17.8092 C   0  0  2  0  0  0  0  0  0  0  0  0
   28.6440  -23.7988  -16.7259 N   0  0  0  0  0  0  0  0  0  0  0  0
   27.3604  -21.8538  -17.2822 C   0  0  0  0  0  0  0  0  0  0  0  0
   27.0042  -21.7238  -16.0847 O   0  0  0  0  0  0  0  0  0  0  0  0
   27.1146  -20.7470  -18.1415 N   0  0  0  0  0  0  0  0  0  0  0  0
   26.4972  -19.5142  -17.6000 C   0  0  1  0  0  0  0  0  0  0  0  0
   26.9116  -18.3422  -18.4457 C   0  0  0  0  0  0  0  0  0  0  0  0
   26.3420  -17.0709  -17.8924 C   0  0  0  0  0  0  0  0  0  0  0  0
   26.6789  -15.8922  -18.7996 C   0  0  0  0  0  0  0  0  0  0  0  0
   26.1550  -14.6434  -18.1689 C   0  0  0  0  0  0  0  0  0  0  0  0
   26.5178  -13.4505  -18.8975 N   0  0  0  0  0  0  0  0  0  0  0  0
   25.0155  -19.6758  -17.6037 C   0  0  0  0  0  0  0  0  0  0  0  0
   24.4161  -20.1763  -18.5861 O   0  0  0  0  0  0  0  0  0  0  0  0
   19.7570  -22.5193  -11.9793 N   0  0  0  0  0  0  0  0  0  0  0  0
   18.7556  -22.0256  -12.8858 C   0  0  0  0  0  0  0  0  0  0  0  0
   17.6553  -22.6832  -12.9787 N   0  0  0  0  0  0  0  0  0  0  0  0
   19.0145  -20.8646  -13.6218 N   0  0  0  0  0  0  0  0  0  0  0  0
   20.3844  -20.2548  -13.5337 C   0  0  0  0  0  0  0  0  0  0  0  0
   20.9737  -20.2106  -14.8790 C   0  0  0  0  0  0  0  0  0  0  0  0
   22.2930  -19.6564  -15.1624 C   0  0  0  0  0  0  0  0  0  0  0  0
   22.7601  -19.5493  -16.5569 C   0  0  2  0  0  0  0  0  0  0  0  0
   24.2404  -19.2717  -16.5029 N   0  0  0  0  0  0  0  0  0  0  0  0
   22.2536  -18.3916  -17.3451 C   0  0  0  0  0  0  0  0  0  0  0  0
   21.1425  -18.2754  -18.1007 O   0  0  0  0  0  0  0  0  0  0  0  0
   22.9901  -17.3202  -17.3114 O   0  0  0  0  0  0  0  0  0  0  0  0
  2  1  1  1
  2  4  1  0
  3  2  1  0
  4  6  1  0
  4  5  1  1
  6  7  2  0
  8  6  1  0
  8  9  1  0
  9 10  1  6
 10 11  1  0
 11 12  1  0
 12 13  1  0
 13 14  1  0
 15  9  1  0
 15 25  1  0
 16 15  2  0
 17 18  1  0
 18 20  1  0
 19 18  2  0
 21 20  1  0
 21 22  1  0
 22 23  1  0
 24 25  1  0
 24 23  1  1
 26 24  1  0
 27 26  1  0
 28 26  2  0
M  END
$$$$
