TKR.pdb
     RDKit          3D

 28 27  0  0  1  0  0  0  0  0999 V2000
   26.2631  -21.4228   -7.0229 C   0  0  0  0  0  0  0  0  0  0  0  0
   25.8216  -21.2398   -8.4465 C   0  0  1  0  0  0  0  0  0  0  0  0
   24.4468  -21.0100   -8.4510 O   0  0  0  0  0  0  0  0  0  0  0  0
   26.4952  -20.0766   -9.1279 C   0  0  2  0  0  0  0  0  0  0  0  0
   26.0826  -18.8791   -8.4200 N   0  0  0  0  0  0  0  0  0  0  0  0
   26.1255  -19.9652  -10.5551 C   0  0  0  0  0  0  0  0  0  0  0  0
   25.1434  -19.2964  -10.9626 O   0  0  0  0  0  0  0  0  0  0  0  0
   26.8945  -20.6334  -11.5480 N   0  0  0  0  0  0  0  0  0  0  0  0
   26.5584  -20.4643  -12.9807 C   0  0  1  0  0  0  0  0  0  0  0  0
   27.7330  -20.8905  -13.8168 C   0  0  0  0  0  0  0  0  0  0  0  0
   27.4044  -20.7790  -15.2751 C   0  0  0  0  0  0  0  0  0  0  0  0
   27.6474  -19.3582  -15.7730 C   0  0  0  0  0  0  0  0  0  0  0  0
   27.2258  -19.2785  -17.2040 C   0  0  0  0  0  0  0  0  0  0  0  0
   27.3682  -17.9531  -17.7593 N   0  0  0  0  0  0  0  0  0  0  0  0
   25.3556  -21.2871  -13.2937 C   0  0  0  0  0  0  0  0  0  0  0  0
   25.3020  -22.5046  -12.9943 O   0  0  0  0  0  0  0  0  0  0  0  0
   16.7071  -22.0192  -13.0158 N   0  0  0  0  0  0  0  0  0  0  0  0
   17.6198  -22.2929  -11.9387 C   0  0  0  0  0  0  0  0  0  0  0  0
   17.1768  -22.9587  -10.9326 N   0  0  0  0  0  0  0  0  0  0  0  0
   18.9368  -21.8297  -12.0263 N   0  0  0  0  0  0  0  0  0  0  0  0
   19.3378  -21.0456  -13.2430 C   0  0  0  0  0  0  0  0  0  0  0  0
   20.5742  -21.6184  -13.7929 C   0  0  0  0  0  0  0  0  0  0  0  0
   21.8984  -21.0549  -13.5542 C   0  0  0  0  0  0  0  0  0  0  0  0
   23.0748  -21.6328  -14.2299 C   0  0  2  0  0  0  0  0  0  0  0  0
   24.2397  -20.7231  -13.9358 N   0  0  0  0  0  0  0  0  0  0  0  0
   23.0536  -21.6420  -15.7191 C   0  0  0  0  0  0  0  0  0  0  0  0
   23.5328  -20.7397  -16.5996 O   0  0  0  0  0  0  0  0  0  0  0  0
   22.4838  -22.6734  -16.2692 O   0  0  0  0  0  0  0  0  0  0  0  0
  2  1  1  1
  2  4  1  0
  3  2  1  0
  4  6  1  0
  4  5  1  1
  6  7  2  0
  8  6  1  0
  8  9  1  0
  9 10  1  6
 10 11  1  0
 11 12  1  0
 12 13  1  0
 13 14  1  0
 15  9  1  0
 15 25  1  0
 16 15  2  0
 17 18  1  0
 18 20  1  0
 19 18  2  0
 21 20  1  0
 21 22  1  0
 22 23  1  0
 24 25  1  0
 24 23  1  1
 26 24  1  0
 27 26  1  0
 28 26  2  0
M  END
$$$$
