TKR.pdb
     RDKit          3D

 28 27  0  0  1  0  0  0  0  0999 V2000
   27.8698  -14.6378  -18.4954 C   0  0  0  0  0  0  0  0  0  0  0  0
   27.1733  -15.7783  -17.8105 C   0  0  1  0  0  0  0  0  0  0  0  0
   26.2579  -16.3310  -18.7047 O   0  0  0  0  0  0  0  0  0  0  0  0
   28.1176  -16.8673  -17.3708 C   0  0  2  0  0  0  0  0  0  0  0  0
   28.7594  -17.3754  -18.5688 N   0  0  0  0  0  0  0  0  0  0  0  0
   27.4240  -17.9692  -16.6705 C   0  0  0  0  0  0  0  0  0  0  0  0
   27.1573  -19.0707  -17.2123 O   0  0  0  0  0  0  0  0  0  0  0  0
   27.0218  -17.8149  -15.3147 N   0  0  0  0  0  0  0  0  0  0  0  0
   26.3618  -18.9367  -14.6074 C   0  0  1  0  0  0  0  0  0  0  0  0
   26.6282  -18.8153  -13.1327 C   0  0  0  0  0  0  0  0  0  0  0  0
   25.9366  -19.9147  -12.3844 C   0  0  0  0  0  0  0  0  0  0  0  0
   26.1056  -19.7291  -10.8802 C   0  0  0  0  0  0  0  0  0  0  0  0
   25.4309  -20.8652  -10.1833 C   0  0  0  0  0  0  0  0  0  0  0  0
   25.4598  -20.7396   -8.7449 N   0  0  0  0  0  0  0  0  0  0  0  0
   24.8990  -18.8901  -14.8898 C   0  0  0  0  0  0  0  0  0  0  0  0
   24.2623  -17.8093  -14.8576 O   0  0  0  0  0  0  0  0  0  0  0  0
   22.8529  -25.4573  -14.8614 N   0  0  0  0  0  0  0  0  0  0  0  0
   21.4892  -25.3318  -14.4225 C   0  0  0  0  0  0  0  0  0  0  0  0
   21.1054  -26.0682  -13.4416 N   0  0  0  0  0  0  0  0  0  0  0  0
   20.6443  -24.4254  -15.0716 N   0  0  0  0  0  0  0  0  0  0  0  0
   21.2416  -23.4972  -16.0903 C   0  0  0  0  0  0  0  0  0  0  0  0
   21.6805  -22.2680  -15.4155 C   0  0  0  0  0  0  0  0  0  0  0  0
   22.2420  -21.1198  -16.1187 C   0  0  0  0  0  0  0  0  0  0  0  0
   22.6903  -19.9397  -15.3568 C   0  0  2  0  0  0  0  0  0  0  0  0
   24.1845  -20.0595  -15.2025 N   0  0  0  0  0  0  0  0  0  0  0  0
   22.2365  -19.8451  -13.9414 C   0  0  0  0  0  0  0  0  0  0  0  0
   21.1840  -19.1908  -13.4091 O   0  0  0  0  0  0  0  0  0  0  0  0
   22.9614  -20.4856  -13.0722 O   0  0  0  0  0  0  0  0  0  0  0  0
  2  1  1  6
  2  4  1  0
  3  2  1  0
  4  6  1  0
  4  5  1  6
  6  7  2  0
  8  6  1  0
  8  9  1  0
  9 10  1  1
 10 11  1  0
 11 12  1  0
 12 13  1  0
 13 14  1  0
 15  9  1  0
 15 25  1  0
 16 15  2  0
 17 18  1  0
 18 20  1  0
 19 18  2  0
 21 20  1  0
 21 22  1  0
 22 23  1  0
 24 25  1  0
 24 23  1  1
 26 24  1  0
 27 26  1  0
 28 26  2  0
M  END
$$$$
