TKR.pdb
     RDKit          3D

 28 27  0  0  1  0  0  0  0  0999 V2000
   19.9319  -11.1793  -18.9297 C   0  0  0  0  0  0  0  0  0  0  0  0
   20.9620  -12.0475  -18.2662 C   0  0  1  0  0  0  0  0  0  0  0  0
   21.3256  -13.0537  -19.1597 O   0  0  0  0  0  0  0  0  0  0  0  0
   22.2066  -11.2926  -17.8761 C   0  0  2  0  0  0  0  0  0  0  0  0
   23.1186  -12.2592  -17.2938 N   0  0  0  0  0  0  0  0  0  0  0  0
   21.9327  -10.2147  -16.9019 C   0  0  0  0  0  0  0  0  0  0  0  0
   21.5203  -10.4288  -15.7348 O   0  0  0  0  0  0  0  0  0  0  0  0
   22.1335   -8.8539  -17.2646 N   0  0  0  0  0  0  0  0  0  0  0  0
   21.6341   -7.7729  -16.3835 C   0  0  1  0  0  0  0  0  0  0  0  0
   22.1958   -6.4581  -16.8486 C   0  0  0  0  0  0  0  0  0  0  0  0
   21.6940   -5.3405  -15.9848 C   0  0  0  0  0  0  0  0  0  0  0  0
   22.2785   -4.0072  -16.4391 C   0  0  0  0  0  0  0  0  0  0  0  0
   21.8285   -2.9444  -15.4905 C   0  0  0  0  0  0  0  0  0  0  0  0
   22.3003   -1.6289  -15.8547 N   0  0  0  0  0  0  0  0  0  0  0  0
   20.1444   -7.7622  -16.4311 C   0  0  0  0  0  0  0  0  0  0  0  0
   19.5257   -7.8488  -17.5194 O   0  0  0  0  0  0  0  0  0  0  0  0
   13.8496  -12.3318  -12.7121 N   0  0  0  0  0  0  0  0  0  0  0  0
   13.2374  -11.5184  -13.7280 C   0  0  0  0  0  0  0  0  0  0  0  0
   12.0431  -11.8180  -14.0962 N   0  0  0  0  0  0  0  0  0  0  0  0
   13.9561  -10.4472  -14.2691 N   0  0  0  0  0  0  0  0  0  0  0  0
   15.4548  -10.5394  -14.3053 C   0  0  0  0  0  0  0  0  0  0  0  0
   15.9980   -9.2728  -14.8149 C   0  0  0  0  0  0  0  0  0  0  0  0
   17.4259   -8.9956  -14.9258 C   0  0  0  0  0  0  0  0  0  0  0  0
   17.8829   -7.6740  -15.3938 C   0  0  2  0  0  0  0  0  0  0  0  0
   19.3833   -7.6547  -15.2543 N   0  0  0  0  0  0  0  0  0  0  0  0
   17.4777   -6.4975  -14.5755 C   0  0  0  0  0  0  0  0  0  0  0  0
   16.4152   -5.6764  -14.7022 O   0  0  0  0  0  0  0  0  0  0  0  0
   18.2644   -6.2024  -13.5829 O   0  0  0  0  0  0  0  0  0  0  0  0
  2  1  1  6
  2  4  1  0
  3  2  1  0
  4  6  1  0
  4  5  1  1
  6  7  2  0
  8  6  1  0
  8  9  1  0
  9 10  1  6
 10 11  1  0
 11 12  1  0
 12 13  1  0
 13 14  1  0
 15  9  1  0
 15 25  1  0
 16 15  2  0
 17 18  1  0
 18 20  1  0
 19 18  2  0
 21 20  1  0
 21 22  1  0
 22 23  1  0
 24 25  1  0
 24 23  1  1
 26 24  1  0
 27 26  1  0
 28 26  2  0
M  END
$$$$
