III.pdb
     RDKit          3D

 25 24  0  0  1  0  0  0  0  0999 V2000
   26.5131  -21.8081  -16.8472 C   0  0  0  0  0  0  0  0  0  0  0  0
   26.7263  -22.3770  -15.4449 C   0  0  0  0  0  0  0  0  0  0  0  0
   26.7287  -21.3036  -14.4124 C   0  0  2  0  0  0  0  0  0  0  0  0
   27.6388  -20.1615  -14.7207 C   0  0  0  0  0  0  0  0  0  0  0  0
   26.9492  -21.9212  -13.0450 C   0  0  2  0  0  0  0  0  0  0  0  0
   26.0224  -23.0555  -13.0133 N   0  0  0  0  0  0  0  0  0  0  0  0
   26.6656  -20.9928  -11.9252 C   0  0  0  0  0  0  0  0  0  0  0  0
   27.0801  -19.7784  -11.9590 O   0  0  0  0  0  0  0  0  0  0  0  0
   21.9455  -19.8584  -10.4104 C   0  0  0  0  0  0  0  0  0  0  0  0
   23.4267  -19.8065  -10.7391 C   0  0  0  0  0  0  0  0  0  0  0  0
   24.1611  -20.2683   -9.4921 C   0  0  2  0  0  0  0  0  0  0  0  0
   23.8164  -19.3935   -8.3025 C   0  0  0  0  0  0  0  0  0  0  0  0
   25.6625  -20.3208   -9.7162 C   0  0  2  0  0  0  0  0  0  0  0  0
   25.9404  -21.3245  -10.7550 N   0  0  0  0  0  0  0  0  0  0  0  0
   26.2890  -20.7164   -8.4325 C   0  0  0  0  0  0  0  0  0  0  0  0
   25.9509  -21.8136   -7.8955 O   0  0  0  0  0  0  0  0  0  0  0  0
   31.4041  -21.0475   -7.3978 C   0  0  0  0  0  0  0  0  0  0  0  0
   29.8945  -21.2489   -7.2862 C   0  0  0  0  0  0  0  0  0  0  0  0
   29.2736  -20.2043   -6.4000 C   0  0  2  0  0  0  0  0  0  0  0  0
   29.8929  -20.1811   -5.0271 C   0  0  0  0  0  0  0  0  0  0  0  0
   27.7994  -20.3176   -6.4282 C   0  0  2  0  0  0  0  0  0  0  0  0
   27.2534  -19.9474   -7.7495 N   0  0  0  0  0  0  0  0  0  0  0  0
   27.1248  -19.4526   -5.4623 C   0  0  0  0  0  0  0  0  0  0  0  0
   26.8006  -19.9233   -4.2051 O   0  0  0  0  0  0  0  0  0  0  0  0
   26.8189  -18.2772   -5.7257 O   0  0  0  0  0  0  0  0  0  0  0  0
  2  1  1  0
  3  2  1  0
  3  4  1  6
  5  7  1  0
  5  3  1  0
  5  6  1  1
  7  8  2  0
 10  9  1  0
 11 10  1  0
 11 13  1  0
 11 12  1  1
 13 14  1  6
 14  7  1  0
 15 16  2  0
 15 13  1  0
 17 18  1  0
 18 19  1  0
 19 21  1  0
 19 20  1  1
 21 22  1  6
 21 23  1  0
 22 15  1  0
 23 24  1  0
 25 23  2  0
M  END
$$$$
