III.pdb
     RDKit          3D

 25 24  0  0  1  0  0  0  0  0999 V2000
   19.3243  -15.8332  -16.4186 C   0  0  0  0  0  0  0  0  0  0  0  0
   18.0900  -15.4589  -15.5990 C   0  0  0  0  0  0  0  0  0  0  0  0
   17.6999  -14.0375  -15.8134 C   0  0  2  0  0  0  0  0  0  0  0  0
   18.8356  -13.0728  -15.7267 C   0  0  0  0  0  0  0  0  0  0  0  0
   16.5263  -13.6968  -14.9155 C   0  0  2  0  0  0  0  0  0  0  0  0
   15.5380  -14.7370  -15.2117 N   0  0  0  0  0  0  0  0  0  0  0  0
   15.9547  -12.3543  -15.1749 C   0  0  0  0  0  0  0  0  0  0  0  0
   15.6212  -12.0019  -16.3632 O   0  0  0  0  0  0  0  0  0  0  0  0
   11.6661  -10.4187  -13.2338 C   0  0  0  0  0  0  0  0  0  0  0  0
   12.8357  -10.7176  -14.1543 C   0  0  0  0  0  0  0  0  0  0  0  0
   13.9510   -9.7660  -13.7567 C   0  0  2  0  0  0  0  0  0  0  0  0
   13.5092   -8.3221  -13.8951 C   0  0  0  0  0  0  0  0  0  0  0  0
   15.2185  -10.0291  -14.5513 C   0  0  2  0  0  0  0  0  0  0  0  0
   15.7222  -11.3632  -14.1906 N   0  0  0  0  0  0  0  0  0  0  0  0
   16.2017   -8.9852  -14.1764 C   0  0  0  0  0  0  0  0  0  0  0  0
   16.7290   -9.0222  -13.0244 O   0  0  0  0  0  0  0  0  0  0  0  0
   19.6731   -6.7841  -17.9084 C   0  0  0  0  0  0  0  0  0  0  0  0
   18.4642   -6.7146  -16.9780 C   0  0  0  0  0  0  0  0  0  0  0  0
   18.8371   -7.1123  -15.5763 C   0  0  2  0  0  0  0  0  0  0  0  0
   19.5335   -8.4471  -15.5293 C   0  0  0  0  0  0  0  0  0  0  0  0
   17.6718   -6.9736  -14.6762 C   0  0  2  0  0  0  0  0  0  0  0  0
   16.6029   -7.9318  -15.0233 N   0  0  0  0  0  0  0  0  0  0  0  0
   17.0504   -5.6514  -14.7188 C   0  0  0  0  0  0  0  0  0  0  0  0
   17.6757   -4.5631  -14.1428 O   0  0  0  0  0  0  0  0  0  0  0  0
   15.9519   -5.4528  -15.2652 O   0  0  0  0  0  0  0  0  0  0  0  0
  2  1  1  0
  3  2  1  0
  3  4  1  1
  5  7  1  0
  5  3  1  0
  5  6  1  6
  7  8  2  0
 10  9  1  0
 11 10  1  0
 11 13  1  0
 11 12  1  6
 13 14  1  1
 14  7  1  0
 15 16  2  0
 15 13  1  0
 17 18  1  0
 18 19  1  0
 19 21  1  0
 19 20  1  6
 21 22  1  6
 21 23  1  0
 22 15  1  0
 23 24  1  0
 25 23  2  0
M  END
$$$$
