III.pdb
     RDKit          3D

 25 24  0  0  1  0  0  0  0  0999 V2000
   20.8531  -18.5575  -15.5979 C   0  0  0  0  0  0  0  0  0  0  0  0
   21.8397  -18.0590  -14.5426 C   0  0  0  0  0  0  0  0  0  0  0  0
   22.5415  -19.1882  -13.8713 C   0  0  2  0  0  0  0  0  0  0  0  0
   21.6327  -20.2624  -13.3732 C   0  0  0  0  0  0  0  0  0  0  0  0
   23.4878  -18.6395  -12.8209 C   0  0  2  0  0  0  0  0  0  0  0  0
   24.3764  -17.7497  -13.5728 N   0  0  0  0  0  0  0  0  0  0  0  0
   24.2739  -19.6881  -12.1289 C   0  0  0  0  0  0  0  0  0  0  0  0
   23.6880  -20.6762  -11.5561 O   0  0  0  0  0  0  0  0  0  0  0  0
   28.7741  -21.9159  -13.9562 C   0  0  0  0  0  0  0  0  0  0  0  0
   27.4134  -21.6505  -13.3377 C   0  0  0  0  0  0  0  0  0  0  0  0
   27.6727  -21.1031  -11.9446 C   0  0  2  0  0  0  0  0  0  0  0  0
   28.4934  -22.0769  -11.1215 C   0  0  0  0  0  0  0  0  0  0  0  0
   26.3778  -20.7436  -11.2366 C   0  0  2  0  0  0  0  0  0  0  0  0
   25.6862  -19.7164  -12.0304 N   0  0  0  0  0  0  0  0  0  0  0  0
   26.7360  -20.2117   -9.9002 C   0  0  0  0  0  0  0  0  0  0  0  0
   27.6704  -19.3603   -9.8073 O   0  0  0  0  0  0  0  0  0  0  0  0
   27.4965  -17.2334   -6.2519 C   0  0  0  0  0  0  0  0  0  0  0  0
   27.4228  -18.4235   -7.2060 C   0  0  0  0  0  0  0  0  0  0  0  0
   26.7316  -19.5926   -6.5597 C   0  0  2  0  0  0  0  0  0  0  0  0
   27.1694  -19.7952   -5.1328 C   0  0  0  0  0  0  0  0  0  0  0  0
   26.8245  -20.7871   -7.4266 C   0  0  2  0  0  0  0  0  0  0  0  0
   26.1016  -20.5897   -8.6992 N   0  0  0  0  0  0  0  0  0  0  0  0
   26.2555  -21.9932   -6.8285 C   0  0  0  0  0  0  0  0  0  0  0  0
   26.8946  -22.6254   -5.7801 O   0  0  0  0  0  0  0  0  0  0  0  0
   25.1911  -22.4933   -7.2303 O   0  0  0  0  0  0  0  0  0  0  0  0
  2  1  1  0
  3  2  1  0
  3  4  1  1
  5  7  1  0
  5  3  1  0
  5  6  1  6
  7  8  2  0
 10  9  1  0
 11 10  1  0
 11 13  1  0
 11 12  1  1
 13 14  1  6
 14  7  1  0
 15 16  2  0
 15 13  1  0
 17 18  1  0
 18 19  1  0
 19 21  1  0
 19 20  1  1
 21 22  1  6
 21 23  1  0
 22 15  1  0
 23 24  1  0
 25 23  2  0
M  END
$$$$
