III.pdb
     RDKit          3D

 25 24  0  0  1  0  0  0  0  0999 V2000
   18.7491  -22.4046  -11.5001 C   0  0  0  0  0  0  0  0  0  0  0  0
   19.5844  -22.1037  -12.7439 C   0  0  0  0  0  0  0  0  0  0  0  0
   20.7288  -21.2032  -12.4310 C   0  0  2  0  0  0  0  0  0  0  0  0
   20.3640  -20.0178  -11.6007 C   0  0  0  0  0  0  0  0  0  0  0  0
   21.4646  -20.8608  -13.7121 C   0  0  2  0  0  0  0  0  0  0  0  0
   21.7473  -22.1640  -14.3192 N   0  0  0  0  0  0  0  0  0  0  0  0
   22.7242  -20.1129  -13.4876 C   0  0  0  0  0  0  0  0  0  0  0  0
   22.7063  -18.9387  -12.9694 O   0  0  0  0  0  0  0  0  0  0  0  0
   27.0527  -22.1986  -11.3294 C   0  0  0  0  0  0  0  0  0  0  0  0
   25.9046  -21.2926  -11.7365 C   0  0  0  0  0  0  0  0  0  0  0  0
   26.3212  -20.6271  -13.0369 C   0  0  2  0  0  0  0  0  0  0  0  0
   27.6037  -19.8382  -12.8576 C   0  0  0  0  0  0  0  0  0  0  0  0
   25.2131  -19.7509  -13.5950 C   0  0  2  0  0  0  0  0  0  0  0  0
   24.0209  -20.5876  -13.8010 N   0  0  0  0  0  0  0  0  0  0  0  0
   25.6900  -19.2015  -14.8865 C   0  0  0  0  0  0  0  0  0  0  0  0
   25.6867  -19.9477  -15.9110 O   0  0  0  0  0  0  0  0  0  0  0  0
   25.2767  -13.9510  -15.0313 C   0  0  0  0  0  0  0  0  0  0  0  0
   25.0837  -15.2898  -15.7400 C   0  0  0  0  0  0  0  0  0  0  0  0
   26.3822  -15.7927  -16.3086 C   0  0  2  0  0  0  0  0  0  0  0  0
   26.7616  -15.0791  -17.5796 C   0  0  0  0  0  0  0  0  0  0  0  0
   26.3689  -17.2692  -16.3907 C   0  0  2  0  0  0  0  0  0  0  0  0
   26.1569  -17.8831  -15.0644 N   0  0  0  0  0  0  0  0  0  0  0  0
   27.6141  -17.8409  -16.8994 C   0  0  0  0  0  0  0  0  0  0  0  0
   28.7563  -17.8381  -16.1232 O   0  0  0  0  0  0  0  0  0  0  0  0
   27.6977  -18.3449  -18.0324 O   0  0  0  0  0  0  0  0  0  0  0  0
  2  1  1  0
  3  2  1  0
  3  4  1  6
  5  7  1  0
  5  3  1  0
  5  6  1  1
  7  8  2  0
 10  9  1  0
 11 10  1  0
 11 13  1  0
 11 12  1  1
 13 14  1  6
 14  7  1  0
 15 16  2  0
 15 13  1  0
 17 18  1  0
 18 19  1  0
 19 21  1  0
 19 20  1  6
 21 22  1  1
 21 23  1  0
 22 15  1  0
 23 24  1  0
 25 23  2  0
M  END
$$$$
