III.pdb
     RDKit          3D

 25 24  0  0  1  0  0  0  0  0999 V2000
   27.0621  -14.6695  -16.4559 C   0  0  0  0  0  0  0  0  0  0  0  0
   26.3590  -16.0056  -16.6921 C   0  0  0  0  0  0  0  0  0  0  0  0
   26.1231  -16.7344  -15.4147 C   0  0  2  0  0  0  0  0  0  0  0  0
   27.3453  -16.9074  -14.5757 C   0  0  0  0  0  0  0  0  0  0  0  0
   25.3793  -18.0245  -15.7013 C   0  0  2  0  0  0  0  0  0  0  0  0
   24.2294  -17.6013  -16.5047 N   0  0  0  0  0  0  0  0  0  0  0  0
   24.9231  -18.7270  -14.4788 C   0  0  0  0  0  0  0  0  0  0  0  0
   23.9201  -18.2905  -13.8072 O   0  0  0  0  0  0  0  0  0  0  0  0
   23.3447  -23.5460  -14.5291 C   0  0  0  0  0  0  0  0  0  0  0  0
   23.4959  -22.0817  -14.1579 C   0  0  0  0  0  0  0  0  0  0  0  0
   24.6246  -22.0086  -13.1439 C   0  0  2  0  0  0  0  0  0  0  0  0
   24.3068  -22.8387  -11.9154 C   0  0  0  0  0  0  0  0  0  0  0  0
   24.9434  -20.5723  -12.7665 C   0  0  2  0  0  0  0  0  0  0  0  0
   25.5111  -19.8994  -13.9449 N   0  0  0  0  0  0  0  0  0  0  0  0
   25.9345  -20.6125  -11.6652 C   0  0  0  0  0  0  0  0  0  0  0  0
   27.1321  -20.9349  -11.9269 O   0  0  0  0  0  0  0  0  0  0  0  0
   26.7247  -16.8301   -8.1996 C   0  0  0  0  0  0  0  0  0  0  0  0
   26.9687  -18.0721   -9.0540 C   0  0  0  0  0  0  0  0  0  0  0  0
   26.6038  -19.3241   -8.3047 C   0  0  2  0  0  0  0  0  0  0  0  0
   27.4132  -19.4903   -7.0454 C   0  0  0  0  0  0  0  0  0  0  0  0
   26.6062  -20.4876   -9.2176 C   0  0  2  0  0  0  0  0  0  0  0  0
   25.6388  -20.3127  -10.3197 N   0  0  0  0  0  0  0  0  0  0  0  0
   26.2453  -21.7457   -8.5671 C   0  0  0  0  0  0  0  0  0  0  0  0
   27.2211  -22.5678   -8.0386 O   0  0  0  0  0  0  0  0  0  0  0  0
   25.0659  -22.1237   -8.4634 O   0  0  0  0  0  0  0  0  0  0  0  0
  2  1  1  0
  3  2  1  0
  3  4  1  6
  5  7  1  0
  5  3  1  0
  5  6  1  6
  7  8  2  0
 10  9  1  0
 11 10  1  0
 11 13  1  0
 11 12  1  1
 13 14  1  6
 14  7  1  0
 15 16  2  0
 15 13  1  0
 17 18  1  0
 18 19  1  0
 19 21  1  0
 19 20  1  1
 21 22  1  6
 21 23  1  0
 22 15  1  0
 23 24  1  0
 25 23  2  0
M  END
$$$$
