III.pdb
     RDKit          3D

 25 24  0  0  1  0  0  0  0  0999 V2000
   29.9655  -21.2786  -16.8980 C   0  0  0  0  0  0  0  0  0  0  0  0
   28.4376  -21.3002  -16.9248 C   0  0  0  0  0  0  0  0  0  0  0  0
   27.8594  -20.7413  -15.6712 C   0  0  2  0  0  0  0  0  0  0  0  0
   28.4455  -21.3099  -14.4218 C   0  0  0  0  0  0  0  0  0  0  0  0
   26.3462  -20.8173  -15.7374 C   0  0  2  0  0  0  0  0  0  0  0  0
   26.0021  -20.0301  -16.9242 N   0  0  0  0  0  0  0  0  0  0  0  0
   25.6742  -20.2626  -14.5385 C   0  0  0  0  0  0  0  0  0  0  0  0
   25.6505  -18.9969  -14.3267 O   0  0  0  0  0  0  0  0  0  0  0  0
   20.8012  -20.2330  -13.8212 C   0  0  0  0  0  0  0  0  0  0  0  0
   22.2947  -19.9608  -13.8092 C   0  0  0  0  0  0  0  0  0  0  0  0
   22.8421  -20.6170  -12.5533 C   0  0  2  0  0  0  0  0  0  0  0  0
   22.0952  -20.1427  -11.3219 C   0  0  0  0  0  0  0  0  0  0  0  0
   24.3366  -20.3866  -12.4096 C   0  0  2  0  0  0  0  0  0  0  0  0
   25.0151  -21.0280  -13.5462 N   0  0  0  0  0  0  0  0  0  0  0  0
   24.7609  -21.0103  -11.1337 C   0  0  0  0  0  0  0  0  0  0  0  0
   24.8830  -22.2706  -11.0759 O   0  0  0  0  0  0  0  0  0  0  0  0
   28.5486  -18.9109   -7.9058 C   0  0  0  0  0  0  0  0  0  0  0  0
   27.6532  -19.9246   -8.6148 C   0  0  0  0  0  0  0  0  0  0  0  0
   26.3425  -20.0850   -7.8949 C   0  0  2  0  0  0  0  0  0  0  0  0
   26.5288  -20.4937   -6.4572 C   0  0  0  0  0  0  0  0  0  0  0  0
   25.4255  -20.9373   -8.6821 C   0  0  2  0  0  0  0  0  0  0  0  0
   25.0449  -20.2915   -9.9545 N   0  0  0  0  0  0  0  0  0  0  0  0
   24.1697  -21.2385   -7.9974 C   0  0  0  0  0  0  0  0  0  0  0  0
   24.0711  -22.3336   -7.1618 O   0  0  0  0  0  0  0  0  0  0  0  0
   23.1545  -20.5350   -8.1352 O   0  0  0  0  0  0  0  0  0  0  0  0
  2  1  1  0
  3  2  1  0
  3  4  1  1
  5  7  1  0
  5  3  1  0
  5  6  1  6
  7  8  2  0
 10  9  1  0
 11 10  1  0
 11 13  1  0
 11 12  1  1
 13 14  1  6
 14  7  1  0
 15 16  2  0
 15 13  1  0
 17 18  1  0
 18 19  1  0
 19 21  1  0
 19 20  1  1
 21 22  1  6
 21 23  1  0
 22 15  1  0
 23 24  1  0
 25 23  2  0
M  END
$$$$
