III.pdb
     RDKit          3D

 25 24  0  0  1  0  0  0  0  0999 V2000
   26.7273  -17.6722  -18.2721 C   0  0  0  0  0  0  0  0  0  0  0  0
   27.9148  -18.4673  -17.7308 C   0  0  0  0  0  0  0  0  0  0  0  0
   27.5414  -19.2575  -16.5247 C   0  0  2  0  0  0  0  0  0  0  0  0
   26.7731  -18.4867  -15.5033 C   0  0  0  0  0  0  0  0  0  0  0  0
   28.7725  -19.9550  -15.9791 C   0  0  2  0  0  0  0  0  0  0  0  0
   29.1493  -20.8931  -17.0397 N   0  0  0  0  0  0  0  0  0  0  0  0
   28.5259  -20.6824  -14.7116 C   0  0  0  0  0  0  0  0  0  0  0  0
   27.8268  -21.7588  -14.6985 O   0  0  0  0  0  0  0  0  0  0  0  0
   32.0600  -21.3733  -10.6698 C   0  0  0  0  0  0  0  0  0  0  0  0
   30.9755  -21.6278  -11.7011 C   0  0  0  0  0  0  0  0  0  0  0  0
   29.7341  -20.9041  -11.2084 C   0  0  2  0  0  0  0  0  0  0  0  0
   29.3031  -21.4256   -9.8513 C   0  0  0  0  0  0  0  0  0  0  0  0
   28.5998  -20.9938  -12.2147 C   0  0  2  0  0  0  0  0  0  0  0  0
   29.0119  -20.2922  -13.4401 N   0  0  0  0  0  0  0  0  0  0  0  0
   27.4184  -20.3326  -11.6114 C   0  0  0  0  0  0  0  0  0  0  0  0
   27.4225  -19.0726  -11.4731 O   0  0  0  0  0  0  0  0  0  0  0  0
   21.6277  -19.6527  -12.1795 C   0  0  0  0  0  0  0  0  0  0  0  0
   22.7777  -19.5919  -11.1766 C   0  0  0  0  0  0  0  0  0  0  0  0
   23.9395  -20.4301  -11.6345 C   0  0  2  0  0  0  0  0  0  0  0  0
   23.5233  -21.8325  -11.9934 C   0  0  0  0  0  0  0  0  0  0  0  0
   25.0573  -20.3277  -10.6717 C   0  0  2  0  0  0  0  0  0  0  0  0
   26.2658  -21.0146  -11.1706 N   0  0  0  0  0  0  0  0  0  0  0  0
   24.7684  -20.9259   -9.3698 C   0  0  0  0  0  0  0  0  0  0  0  0
   23.9064  -20.3045   -8.4876 O   0  0  0  0  0  0  0  0  0  0  0  0
   25.2768  -22.0002   -9.0066 O   0  0  0  0  0  0  0  0  0  0  0  0
  2  1  1  0
  3  2  1  0
  3  4  1  1
  5  7  1  0
  5  3  1  0
  5  6  1  6
  7  8  2  0
 10  9  1  0
 11 10  1  0
 11 13  1  0
 11 12  1  1
 13 14  1  6
 14  7  1  0
 15 16  2  0
 15 13  1  0
 17 18  1  0
 18 19  1  0
 19 21  1  0
 19 20  1  1
 21 22  1  6
 21 23  1  0
 22 15  1  0
 23 24  1  0
 25 23  2  0
M  END
$$$$
