III.pdb
     RDKit          3D

 25 24  0  0  1  0  0  0  0  0999 V2000
   11.8034  -25.5783  -12.6009 C   0  0  0  0  0  0  0  0  0  0  0  0
   12.0404  -24.7827  -11.3178 C   0  0  0  0  0  0  0  0  0  0  0  0
   13.0251  -25.4584  -10.4278 C   0  0  2  0  0  0  0  0  0  0  0  0
   12.6857  -26.8759  -10.1064 C   0  0  0  0  0  0  0  0  0  0  0  0
   13.2820  -24.5906   -9.2109 C   0  0  2  0  0  0  0  0  0  0  0  0
   14.0033  -23.4328   -9.7456 N   0  0  0  0  0  0  0  0  0  0  0  0
   14.0896  -25.2632   -8.1660 C   0  0  0  0  0  0  0  0  0  0  0  0
   13.7444  -26.4116   -7.7082 O   0  0  0  0  0  0  0  0  0  0  0  0
   19.4160  -24.3342   -7.7761 C   0  0  0  0  0  0  0  0  0  0  0  0
   18.1187  -25.1183   -7.8586 C   0  0  0  0  0  0  0  0  0  0  0  0
   17.4336  -24.9605   -6.5120 C   0  0  2  0  0  0  0  0  0  0  0  0
   18.2320  -25.6348   -5.4132 C   0  0  0  0  0  0  0  0  0  0  0  0
   16.0062  -25.4787   -6.5482 C   0  0  2  0  0  0  0  0  0  0  0  0
   15.2727  -24.7416   -7.5886 N   0  0  0  0  0  0  0  0  0  0  0  0
   15.4088  -25.2262   -5.2154 C   0  0  0  0  0  0  0  0  0  0  0  0
   15.1659  -24.0321   -4.8665 O   0  0  0  0  0  0  0  0  0  0  0  0
   11.3071  -28.0790   -3.5291 C   0  0  0  0  0  0  0  0  0  0  0  0
   12.3759  -27.0239   -3.8057 C   0  0  0  0  0  0  0  0  0  0  0  0
   13.3854  -26.9720   -2.6921 C   0  0  2  0  0  0  0  0  0  0  0  0
   12.7351  -26.8442   -1.3395 C   0  0  0  0  0  0  0  0  0  0  0  0
   14.4282  -25.9669   -2.9912 C   0  0  2  0  0  0  0  0  0  0  0  0
   15.0835  -26.2361   -4.2870 N   0  0  0  0  0  0  0  0  0  0  0  0
   15.5039  -25.9240   -2.0026 C   0  0  0  0  0  0  0  0  0  0  0  0
   15.4555  -25.0302   -0.9509 O   0  0  0  0  0  0  0  0  0  0  0  0
   16.4912  -26.6763   -2.0645 O   0  0  0  0  0  0  0  0  0  0  0  0
  2  1  1  0
  3  2  1  0
  3  4  1  1
  5  7  1  0
  5  3  1  0
  5  6  1  6
  7  8  2  0
 10  9  1  0
 11 10  1  0
 11 13  1  0
 11 12  1  1
 13 14  1  6
 14  7  1  0
 15 16  2  0
 15 13  1  0
 17 18  1  0
 18 19  1  0
 19 21  1  0
 19 20  1  1
 21 22  1  6
 21 23  1  0
 22 15  1  0
 23 24  1  0
 25 23  2  0
M  END
$$$$
