FVR.pdb
     RDKit          3D

 30 30  0  0  1  0  0  0  0  0999 V2000
   10.3846  -15.5269   22.0796 N   0  0  0  0  0  0  0  0  0  0  0  0
    9.5583  -14.9265   23.1075 C   0  0  1  0  0  0  0  0  0  0  0  0
    8.1129  -15.2030   22.7703 C   0  0  0  0  0  0  0  0  0  0  0  0
    7.7559  -14.4222   21.5351 C   0  0  0  0  0  0  0  0  0  0  0  0
    7.7884  -13.0530   21.6047 C   0  0  0  0  0  0  0  0  0  0  0  0
    7.4668  -12.3084   20.4871 C   0  0  0  0  0  0  0  0  0  0  0  0
    7.1090  -12.8839   19.2863 C   0  0  0  0  0  0  0  0  0  0  0  0
    7.0902  -14.2649   19.2642 C   0  0  0  0  0  0  0  0  0  0  0  0
    7.4045  -15.0380   20.3581 C   0  0  0  0  0  0  0  0  0  0  0  0
    9.9644  -15.4703   24.4017 C   0  0  0  0  0  0  0  0  0  0  0  0
   10.6212  -16.5372   24.4553 O   0  0  0  0  0  0  0  0  0  0  0  0
    8.6553  -14.2801   28.4909 C   0  0  0  0  0  0  0  0  0  0  0  0
   10.0727  -14.3278   27.9811 C   0  0  2  0  0  0  0  0  0  0  0  0
   10.5585  -12.9246   27.6861 C   0  0  0  0  0  0  0  0  0  0  0  0
   10.3237  -15.3128   26.8947 C   0  0  2  0  0  0  0  0  0  0  0  0
    9.6586  -14.8578   25.6538 N   0  0  0  0  0  0  0  0  0  0  0  0
    9.8875  -16.6833   27.1957 C   0  0  0  0  0  0  0  0  0  0  0  0
    8.6559  -17.0293   27.1511 O   0  0  0  0  0  0  0  0  0  0  0  0
   14.0697  -21.4207   23.2767 N   0  0  0  0  0  0  0  0  0  0  0  0
   13.2824  -20.3582   22.7733 C   0  0  0  0  0  0  0  0  0  0  0  0
   13.1064  -20.1131   21.5412 N   0  0  0  0  0  0  0  0  0  0  0  0
   12.6539  -19.5192   23.7413 N   0  0  0  0  0  0  0  0  0  0  0  0
   12.6400  -19.8558   25.1695 C   0  0  0  0  0  0  0  0  0  0  0  0
   11.2256  -19.8310   25.6521 C   0  0  0  0  0  0  0  0  0  0  0  0
   11.0004  -20.0872   27.0903 C   0  0  0  0  0  0  0  0  0  0  0  0
   10.3350  -19.0194   27.8970 C   0  0  2  0  0  0  0  0  0  0  0  0
   10.8090  -17.6929   27.5442 N   0  0  0  0  0  0  0  0  0  0  0  0
   10.6680  -19.3254   29.3303 C   0  0  0  0  0  0  0  0  0  0  0  0
   10.2293  -20.4155   29.7777 O   0  0  0  0  0  0  0  0  0  0  0  0
   11.3966  -18.5167   30.1551 O   0  0  0  0  0  0  0  0  0  0  0  0
  2 10  1  0
  2  1  1  6
  3  2  1  0
  4  3  1  0
  4  5  2  0
  6  5  1  0
  7  6  2  0
  8  9  2  0
  8  7  1  0
  9  4  1  0
 10 11  2  0
 13 12  1  6
 13 15  1  0
 14 13  1  0
 15 16  1  6
 16 10  1  0
 17 18  2  0
 17 15  1  0
 20 19  1  0
 21 20  2  0
 22 20  1  0
 22 23  1  0
 23 24  1  0
 24 25  1  0
 26 25  1  6
 26 28  1  0
 26 27  1  0
 27 17  1  0
 28 30  1  0
 29 28  2  0
M  END
$$$$
