FVR.pdb
     RDKit          3D

 30 30  0  0  1  0  0  0  0  0999 V2000
    5.5181  -18.0663   24.6244 N   0  0  0  0  0  0  0  0  0  0  0  0
    5.9591  -16.6949   24.7811 C   0  0  1  0  0  0  0  0  0  0  0  0
    6.4340  -16.5130   26.2025 C   0  0  0  0  0  0  0  0  0  0  0  0
    6.6511  -15.0446   26.4463 C   0  0  0  0  0  0  0  0  0  0  0  0
    5.5503  -14.2282   26.4938 C   0  0  0  0  0  0  0  0  0  0  0  0
    5.7171  -12.8757   26.7170 C   0  0  0  0  0  0  0  0  0  0  0  0
    6.9559  -12.2976   26.8970 C   0  0  0  0  0  0  0  0  0  0  0  0
    8.0344  -13.1589   26.8407 C   0  0  0  0  0  0  0  0  0  0  0  0
    7.9052  -14.5109   26.6203 C   0  0  0  0  0  0  0  0  0  0  0  0
    6.9956  -16.4273   23.7862 C   0  0  0  0  0  0  0  0  0  0  0  0
    7.8589  -17.3000   23.5300 O   0  0  0  0  0  0  0  0  0  0  0  0
    6.4363  -14.0394   20.4246 C   0  0  0  0  0  0  0  0  0  0  0  0
    7.7650  -13.9064   21.1232 C   0  0  2  0  0  0  0  0  0  0  0  0
    8.8319  -13.5120   20.1243 C   0  0  0  0  0  0  0  0  0  0  0  0
    8.1334  -15.0442   22.0083 C   0  0  2  0  0  0  0  0  0  0  0  0
    7.1043  -15.2042   23.0592 N   0  0  0  0  0  0  0  0  0  0  0  0
    9.4522  -14.9246   22.6451 C   0  0  0  0  0  0  0  0  0  0  0  0
    9.6430  -14.1961   23.6802 O   0  0  0  0  0  0  0  0  0  0  0  0
   11.4122  -20.2644   28.2255 N   0  0  0  0  0  0  0  0  0  0  0  0
   10.8935  -18.9510   28.1353 C   0  0  0  0  0  0  0  0  0  0  0  0
   10.0027  -18.4741   28.9022 N   0  0  0  0  0  0  0  0  0  0  0  0
   11.4275  -18.1268   27.1003 N   0  0  0  0  0  0  0  0  0  0  0  0
   11.9005  -18.6852   25.8284 C   0  0  0  0  0  0  0  0  0  0  0  0
   12.3004  -17.5584   24.9316 C   0  0  0  0  0  0  0  0  0  0  0  0
   11.2571  -16.9997   24.0461 C   0  0  0  0  0  0  0  0  0  0  0  0
   11.6658  -15.9688   23.0443 C   0  0  2  0  0  0  0  0  0  0  0  0
   10.5781  -15.6151   22.1496 N   0  0  0  0  0  0  0  0  0  0  0  0
   12.7977  -16.5817   22.2684 C   0  0  0  0  0  0  0  0  0  0  0  0
   12.5065  -17.0325   21.1314 O   0  0  0  0  0  0  0  0  0  0  0  0
   14.0872  -16.6779   22.7081 O   0  0  0  0  0  0  0  0  0  0  0  0
  2 10  1  0
  2  1  1  1
  3  2  1  0
  4  3  1  0
  4  5  2  0
  6  5  1  0
  7  6  2  0
  8  9  2  0
  8  7  1  0
  9  4  1  0
 10 11  2  0
 13 12  1  6
 13 15  1  0
 14 13  1  0
 15 16  1  1
 16 10  1  0
 17 18  2  0
 17 15  1  0
 20 19  1  0
 21 20  2  0
 22 20  1  0
 22 23  1  0
 23 24  1  0
 24 25  1  0
 26 25  1  1
 26 28  1  0
 26 27  1  0
 27 17  1  0
 28 30  1  0
 29 28  2  0
M  END
$$$$
