FVR.pdb
     RDKit          3D

 30 30  0  0  1  0  0  0  0  0999 V2000
    5.5478  -17.8482   25.0505 N   0  0  0  0  0  0  0  0  0  0  0  0
    6.0344  -16.4835   25.0295 C   0  0  1  0  0  0  0  0  0  0  0  0
    6.5756  -16.1559   26.4002 C   0  0  0  0  0  0  0  0  0  0  0  0
    6.7752  -14.6675   26.4885 C   0  0  0  0  0  0  0  0  0  0  0  0
    5.6624  -13.8660   26.4957 C   0  0  0  0  0  0  0  0  0  0  0  0
    5.8131  -12.4958   26.5769 C   0  0  0  0  0  0  0  0  0  0  0  0
    7.0471  -11.8852   26.6523 C   0  0  0  0  0  0  0  0  0  0  0  0
    8.1380  -12.7325   26.6417 C   0  0  0  0  0  0  0  0  0  0  0  0
    8.0250  -14.1015   26.5618 C   0  0  0  0  0  0  0  0  0  0  0  0
    7.0342  -16.3667   23.9699 C   0  0  0  0  0  0  0  0  0  0  0  0
    7.8958  -17.2653   23.8191 O   0  0  0  0  0  0  0  0  0  0  0  0
    6.5277  -14.0655   20.4575 C   0  0  0  0  0  0  0  0  0  0  0  0
    7.8908  -14.0828   21.1001 C   0  0  2  0  0  0  0  0  0  0  0  0
    8.9561  -13.8605   20.0477 C   0  0  0  0  0  0  0  0  0  0  0  0
    8.1484  -15.2301   22.0115 C   0  0  2  0  0  0  0  0  0  0  0  0
    7.1073  -15.2681   23.0622 N   0  0  0  0  0  0  0  0  0  0  0  0
    9.4717  -15.2219   22.6501 C   0  0  0  0  0  0  0  0  0  0  0  0
    9.7987  -14.3456   23.5239 O   0  0  0  0  0  0  0  0  0  0  0  0
   10.5906  -18.7152   28.5449 N   0  0  0  0  0  0  0  0  0  0  0  0
   11.6194  -19.3313   27.7938 C   0  0  0  0  0  0  0  0  0  0  0  0
   12.4950  -20.1120   28.2765 N   0  0  0  0  0  0  0  0  0  0  0  0
   11.6508  -19.0364   26.3982 N   0  0  0  0  0  0  0  0  0  0  0  0
   12.9091  -18.9688   25.6464 C   0  0  0  0  0  0  0  0  0  0  0  0
   12.8984  -17.7314   24.8080 C   0  0  0  0  0  0  0  0  0  0  0  0
   11.6685  -17.4506   24.0378 C   0  0  0  0  0  0  0  0  0  0  0  0
   11.6692  -16.2702   23.1212 C   0  0  2  0  0  0  0  0  0  0  0  0
   10.4506  -16.1878   22.3357 N   0  0  0  0  0  0  0  0  0  0  0  0
   12.8567  -16.4564   22.2189 C   0  0  0  0  0  0  0  0  0  0  0  0
   12.5999  -16.7268   21.0182 O   0  0  0  0  0  0  0  0  0  0  0  0
   14.1612  -16.3537   22.6099 O   0  0  0  0  0  0  0  0  0  0  0  0
  2 10  1  0
  2  1  1  1
  3  2  1  0
  4  3  1  0
  4  5  2  0
  6  5  1  0
  7  6  2  0
  8  9  2  0
  8  7  1  0
  9  4  1  0
 10 11  2  0
 13 12  1  6
 13 15  1  0
 14 13  1  0
 15 16  1  1
 16 10  1  0
 17 18  2  0
 17 15  1  0
 20 19  1  0
 21 20  2  0
 22 20  1  0
 22 23  1  0
 23 24  1  0
 24 25  1  0
 26 25  1  1
 26 28  1  0
 26 27  1  0
 27 17  1  0
 28 30  1  0
 29 28  2  0
M  END
$$$$
