FVR.pdb
     RDKit          3D

 30 30  0  0  1  0  0  0  0  0999 V2000
    5.9729  -17.1909   25.2726 N   0  0  0  0  0  0  0  0  0  0  0  0
    6.4808  -15.8811   24.9172 C   0  0  1  0  0  0  0  0  0  0  0  0
    7.3678  -15.3999   26.0401 C   0  0  0  0  0  0  0  0  0  0  0  0
    6.8502  -14.0707   26.5177 C   0  0  0  0  0  0  0  0  0  0  0  0
    7.6925  -13.2758   27.2523 C   0  0  0  0  0  0  0  0  0  0  0  0
    7.2467  -12.0494   27.7040 C   0  0  0  0  0  0  0  0  0  0  0  0
    5.9762  -11.5783   27.4483 C   0  0  0  0  0  0  0  0  0  0  0  0
    5.1645  -12.4130   26.7053 C   0  0  0  0  0  0  0  0  0  0  0  0
    5.5753  -13.6408   26.2393 C   0  0  0  0  0  0  0  0  0  0  0  0
    7.1761  -15.9881   23.6363 C   0  0  0  0  0  0  0  0  0  0  0  0
    7.5930  -17.1026   23.2404 O   0  0  0  0  0  0  0  0  0  0  0  0
    6.5416  -13.3677   20.4017 C   0  0  0  0  0  0  0  0  0  0  0  0
    7.9505  -13.8437   20.6459 C   0  0  2  0  0  0  0  0  0  0  0  0
    8.7180  -13.8634   19.3411 C   0  0  0  0  0  0  0  0  0  0  0  0
    8.0693  -15.0866   21.4549 C   0  0  2  0  0  0  0  0  0  0  0  0
    7.4263  -14.8809   22.7715 N   0  0  0  0  0  0  0  0  0  0  0  0
    9.4466  -15.5541   21.6637 C   0  0  0  0  0  0  0  0  0  0  0  0
   10.2196  -15.0225   22.5345 O   0  0  0  0  0  0  0  0  0  0  0  0
   14.5631  -23.2989   20.1374 N   0  0  0  0  0  0  0  0  0  0  0  0
   13.7702  -22.2048   19.7173 C   0  0  0  0  0  0  0  0  0  0  0  0
   12.7104  -22.3062   19.0276 N   0  0  0  0  0  0  0  0  0  0  0  0
   14.2170  -20.9082   20.1109 N   0  0  0  0  0  0  0  0  0  0  0  0
   13.4468  -19.6961   19.8094 C   0  0  0  0  0  0  0  0  0  0  0  0
   12.7011  -19.2864   21.0382 C   0  0  0  0  0  0  0  0  0  0  0  0
   11.3986  -18.6154   20.8430 C   0  0  0  0  0  0  0  0  0  0  0  0
   11.2679  -17.1947   21.2880 C   0  0  2  0  0  0  0  0  0  0  0  0
    9.9867  -16.6214   20.9159 N   0  0  0  0  0  0  0  0  0  0  0  0
   12.3853  -16.4519   20.6109 C   0  0  0  0  0  0  0  0  0  0  0  0
   12.1446  -16.0315   19.4506 O   0  0  0  0  0  0  0  0  0  0  0  0
   13.6122  -16.2114   21.1606 O   0  0  0  0  0  0  0  0  0  0  0  0
  2 10  1  0
  2  1  1  1
  3  2  1  0
  4  3  1  0
  4  5  2  0
  6  5  1  0
  7  6  2  0
  8  9  2  0
  8  7  1  0
  9  4  1  0
 10 11  2  0
 13 12  1  6
 13 15  1  0
 14 13  1  0
 15 16  1  1
 16 10  1  0
 17 18  2  0
 17 15  1  0
 20 19  1  0
 21 20  2  0
 22 20  1  0
 22 23  1  0
 23 24  1  0
 24 25  1  0
 26 25  1  6
 26 28  1  0
 26 27  1  0
 27 17  1  0
 28 30  1  0
 29 28  2  0
M  END
$$$$
