FVR.pdb
     RDKit          3D

 30 30  0  0  1  0  0  0  0  0999 V2000
    8.4865  -15.5625   27.2747 N   0  0  0  0  0  0  0  0  0  0  0  0
    7.6970  -15.7263   26.0708 C   0  0  1  0  0  0  0  0  0  0  0  0
    7.7702  -14.4412   25.2818 C   0  0  0  0  0  0  0  0  0  0  0  0
    7.1980  -13.3339   26.1240 C   0  0  0  0  0  0  0  0  0  0  0  0
    8.0193  -12.2885   26.4610 C   0  0  0  0  0  0  0  0  0  0  0  0
    7.5229  -11.2564   27.2324 C   0  0  0  0  0  0  0  0  0  0  0  0
    6.2215  -11.2256   27.6872 C   0  0  0  0  0  0  0  0  0  0  0  0
    5.4325  -12.2992   27.3229 C   0  0  0  0  0  0  0  0  0  0  0  0
    5.8937  -13.3443   26.5558 C   0  0  0  0  0  0  0  0  0  0  0  0
    8.2067  -16.8840   25.3389 C   0  0  0  0  0  0  0  0  0  0  0  0
    9.4027  -17.2355   25.4760 O   0  0  0  0  0  0  0  0  0  0  0  0
    6.3783  -20.3927   24.9344 C   0  0  0  0  0  0  0  0  0  0  0  0
    6.9726  -19.9107   23.6360 C   0  0  2  0  0  0  0  0  0  0  0  0
    7.3898  -21.0964   22.7922 C   0  0  0  0  0  0  0  0  0  0  0  0
    8.0052  -18.8476   23.7666 C   0  0  2  0  0  0  0  0  0  0  0  0
    7.4190  -17.6723   24.4477 N   0  0  0  0  0  0  0  0  0  0  0  0
    8.6044  -18.4144   22.4968 C   0  0  0  0  0  0  0  0  0  0  0  0
    7.9028  -18.2330   21.4417 O   0  0  0  0  0  0  0  0  0  0  0  0
    7.0047  -13.7742   18.6800 N   0  0  0  0  0  0  0  0  0  0  0  0
    8.1156  -13.5930   17.8225 C   0  0  0  0  0  0  0  0  0  0  0  0
    8.0381  -13.4431   16.5652 N   0  0  0  0  0  0  0  0  0  0  0  0
    9.4010  -13.5823   18.4416 N   0  0  0  0  0  0  0  0  0  0  0  0
    9.5812  -13.8962   19.8636 C   0  0  0  0  0  0  0  0  0  0  0  0
   10.2526  -15.2268   19.9775 C   0  0  0  0  0  0  0  0  0  0  0  0
    9.9087  -16.0562   21.1516 C   0  0  0  0  0  0  0  0  0  0  0  0
   10.5000  -17.4259   21.2400 C   0  0  2  0  0  0  0  0  0  0  0  0
    9.9885  -18.1692   22.3778 N   0  0  0  0  0  0  0  0  0  0  0  0
   11.9825  -17.2209   21.3778 C   0  0  0  0  0  0  0  0  0  0  0  0
   12.4717  -17.4754   22.5077 O   0  0  0  0  0  0  0  0  0  0  0  0
   12.8093  -16.7874   20.3810 O   0  0  0  0  0  0  0  0  0  0  0  0
  2 10  1  0
  2  1  1  1
  3  2  1  0
  4  3  1  0
  4  5  2  0
  6  5  1  0
  7  6  2  0
  8  9  2  0
  8  7  1  0
  9  4  1  0
 10 11  2  0
 13 12  1  1
 13 15  1  0
 14 13  1  0
 15 16  1  6
 16 10  1  0
 17 18  2  0
 17 15  1  0
 20 19  1  0
 21 20  2  0
 22 20  1  0
 22 23  1  0
 23 24  1  0
 24 25  1  0
 26 25  1  1
 26 28  1  0
 26 27  1  0
 27 17  1  0
 28 30  1  0
 29 28  2  0
M  END
$$$$
