SMH.pdb
     RDKit          3D

 25 25  0  0  1  0  0  0  0  0999 V2000
   12.8425   -6.4764  -16.2622 O   0  0  0  0  0  0  0  0  0  0  0  0
   13.3599   -6.3755  -14.9873 C   0  0  0  0  0  0  0  0  0  0  0  0
   13.7659   -7.7338  -14.4583 C   0  0  2  0  0  0  0  0  0  0  0  0
   12.6327   -8.5808  -14.1885 N   0  0  0  0  0  0  0  0  0  0  0  0
   14.6096   -7.6151  -13.2493 C   0  0  0  0  0  0  0  0  0  0  0  0
   14.2468   -6.9596  -12.2554 O   0  0  0  0  0  0  0  0  0  0  0  0
   15.1733  -13.1353  -10.2320 C   0  0  0  0  0  0  0  0  0  0  0  0
   16.5490  -12.0116  -10.5647 S   0  0  0  0  0  0  0  0  0  0  0  0
   15.8752  -10.4050  -11.1028 C   0  0  0  0  0  0  0  0  0  0  0  0
   17.0514   -9.5507  -11.4930 C   0  0  0  0  0  0  0  0  0  0  0  0
   16.6757   -8.2068  -12.0281 C   0  0  2  0  0  0  0  0  0  0  0  0
   15.8831   -8.2728  -13.2200 N   0  0  0  0  0  0  0  0  0  0  0  0
   17.8863   -7.3618  -12.3491 C   0  0  0  0  0  0  0  0  0  0  0  0
   18.6887   -6.9670  -11.4900 O   0  0  0  0  0  0  0  0  0  0  0  0
   18.1285   -6.9882  -13.7149 N   0  0  0  0  0  0  0  0  0  0  0  0
   19.2311   -6.1251  -14.1056 C   0  0  1  0  0  0  0  0  0  0  0  0
   20.0906   -6.7932  -15.1551 C   0  0  0  0  0  0  0  0  0  0  0  0
   20.8307   -7.9717  -14.6145 C   0  0  0  0  0  0  0  0  0  0  0  0
   21.0419   -8.3747  -13.3355 C   0  0  0  0  0  0  0  0  0  0  0  0
   21.7902   -9.5006  -13.3032 N   0  0  0  0  0  0  0  0  0  0  0  0
   22.0506   -9.8043  -14.5683 C   0  0  0  0  0  0  0  0  0  0  0  0
   21.4750   -8.8857  -15.4133 N   0  0  0  0  0  0  0  0  0  0  0  0
   18.7238   -4.8236  -14.6056 C   0  0  0  0  0  0  0  0  0  0  0  0
   19.5470   -3.9299  -14.9072 O   0  0  0  0  0  0  0  0  0  0  0  0
   17.3840   -4.5506  -14.7524 O   0  0  0  0  0  0  0  0  0  0  0  0
  2  1  1  0
  2  3  1  0
  3  4  1  1
  5  3  1  0
  5  6  2  0
  7  8  1  0
  8  9  1  0
  9 10  1  0
 11 10  1  6
 11 12  1  0
 11 13  1  0
 12  5  1  0
 13 15  1  0
 13 14  2  0
 15 16  1  0
 16 23  1  0
 17 18  1  0
 16 17  1  6
 18 19  2  0
 19 20  1  0
 21 20  1  0
 22 18  1  0
 22 21  2  0
 23 24  2  0
 23 25  1  0
M  END
$$$$
