SMH.pdb
     RDKit          3D

 25 25  0  0  1  0  0  0  0  0999 V2000
   29.4122  -22.0084  -15.2864 O   0  0  0  0  0  0  0  0  0  0  0  0
   28.3680  -21.5262  -16.0483 C   0  0  0  0  0  0  0  0  0  0  0  0
   27.6224  -20.4324  -15.3152 C   0  0  2  0  0  0  0  0  0  0  0  0
   28.5093  -19.4837  -14.6924 N   0  0  0  0  0  0  0  0  0  0  0  0
   26.6903  -20.9901  -14.3113 C   0  0  0  0  0  0  0  0  0  0  0  0
   25.7935  -21.7953  -14.6218 O   0  0  0  0  0  0  0  0  0  0  0  0
   27.6289  -20.3901   -8.1166 C   0  0  0  0  0  0  0  0  0  0  0  0
   25.8727  -20.7725   -7.9279 S   0  0  0  0  0  0  0  0  0  0  0  0
   25.1748  -21.1438   -9.5710 C   0  0  0  0  0  0  0  0  0  0  0  0
   26.2598  -20.8637  -10.5758 C   0  0  0  0  0  0  0  0  0  0  0  0
   25.8189  -20.9915  -11.9982 C   0  0  2  0  0  0  0  0  0  0  0  0
   26.8217  -20.5919  -12.9404 N   0  0  0  0  0  0  0  0  0  0  0  0
   24.5861  -20.1681  -12.2894 C   0  0  0  0  0  0  0  0  0  0  0  0
   24.6199  -18.9510  -12.5251 O   0  0  0  0  0  0  0  0  0  0  0  0
   23.3043  -20.8166  -12.2934 N   0  0  0  0  0  0  0  0  0  0  0  0
   22.1737  -20.3090  -13.0533 C   0  0  1  0  0  0  0  0  0  0  0  0
   22.5316  -20.1613  -14.5150 C   0  0  0  0  0  0  0  0  0  0  0  0
   21.3756  -19.6952  -15.3367 C   0  0  0  0  0  0  0  0  0  0  0  0
   20.0885  -19.4382  -14.9899 C   0  0  0  0  0  0  0  0  0  0  0  0
   19.3683  -19.0505  -16.0668 N   0  0  0  0  0  0  0  0  0  0  0  0
   20.2078  -19.0658  -17.0942 C   0  0  0  0  0  0  0  0  0  0  0  0
   21.4610  -19.4574  -16.6876 N   0  0  0  0  0  0  0  0  0  0  0  0
   20.9973  -21.1996  -12.8971 C   0  0  0  0  0  0  0  0  0  0  0  0
   21.1622  -22.4380  -12.9777 O   0  0  0  0  0  0  0  0  0  0  0  0
   19.7268  -20.7257  -12.6685 O   0  0  0  0  0  0  0  0  0  0  0  0
  2  1  1  0
  2  3  1  0
  3  4  1  1
  5  3  1  0
  5  6  2  0
  7  8  1  0
  8  9  1  0
  9 10  1  0
 11 10  1  1
 11 12  1  0
 11 13  1  0
 12  5  1  0
 13 15  1  0
 13 14  2  0
 15 16  1  0
 16 23  1  0
 17 18  1  0
 16 17  1  6
 18 19  2  0
 19 20  1  0
 21 20  1  0
 22 18  1  0
 22 21  2  0
 23 24  2  0
 23 25  1  0
M  END
$$$$
