SMH.pdb
     RDKit          3D

 25 25  0  0  1  0  0  0  0  0999 V2000
   26.9433  -18.6909  -15.5371 O   0  0  0  0  0  0  0  0  0  0  0  0
   27.8804  -18.9500  -14.5583 C   0  0  0  0  0  0  0  0  0  0  0  0
   27.9354  -20.4279  -14.2384 C   0  0  2  0  0  0  0  0  0  0  0  0
   28.2337  -21.2310  -15.3962 N   0  0  0  0  0  0  0  0  0  0  0  0
   26.6812  -20.8934  -13.6077 C   0  0  0  0  0  0  0  0  0  0  0  0
   25.9121  -21.6874  -14.1798 O   0  0  0  0  0  0  0  0  0  0  0  0
   27.0531  -19.4951   -7.3500 C   0  0  0  0  0  0  0  0  0  0  0  0
   25.7090  -20.6687   -7.6367 S   0  0  0  0  0  0  0  0  0  0  0  0
   25.8899  -21.3680   -9.3109 C   0  0  0  0  0  0  0  0  0  0  0  0
   25.0460  -20.5228  -10.2269 C   0  0  0  0  0  0  0  0  0  0  0  0
   25.1477  -20.9018  -11.6690 C   0  0  2  0  0  0  0  0  0  0  0  0
   26.3392  -20.4164  -12.2998 N   0  0  0  0  0  0  0  0  0  0  0  0
   23.9795  -20.3880  -12.4776 C   0  0  0  0  0  0  0  0  0  0  0  0
   23.9213  -19.2368  -12.9350 O   0  0  0  0  0  0  0  0  0  0  0  0
   22.8730  -21.2678  -12.7334 N   0  0  0  0  0  0  0  0  0  0  0  0
   21.6695  -20.8308  -13.4217 C   0  0  1  0  0  0  0  0  0  0  0  0
   21.4410  -21.6461  -14.6745 C   0  0  0  0  0  0  0  0  0  0  0  0
   22.3245  -21.2166  -15.7986 C   0  0  0  0  0  0  0  0  0  0  0  0
   23.2117  -20.1929  -15.8868 C   0  0  0  0  0  0  0  0  0  0  0  0
   23.7880  -20.1597  -17.1097 N   0  0  0  0  0  0  0  0  0  0  0  0
   23.2587  -21.1670  -17.7920 C   0  0  0  0  0  0  0  0  0  0  0  0
   22.3493  -21.8485  -17.0188 N   0  0  0  0  0  0  0  0  0  0  0  0
   20.4918  -20.9224  -12.5239 C   0  0  0  0  0  0  0  0  0  0  0  0
   20.5252  -21.7252  -11.5638 O   0  0  0  0  0  0  0  0  0  0  0  0
   19.3581  -20.1640  -12.6990 O   0  0  0  0  0  0  0  0  0  0  0  0
  2  1  1  0
  2  3  1  0
  3  4  1  6
  5  3  1  0
  5  6  2  0
  7  8  1  0
  8  9  1  0
  9 10  1  0
 11 10  1  1
 11 12  1  0
 11 13  1  0
 12  5  1  0
 13 15  1  0
 13 14  2  0
 15 16  1  0
 16 23  1  0
 17 18  1  0
 16 17  1  6
 18 19  2  0
 19 20  1  0
 21 20  1  0
 22 18  1  0
 22 21  2  0
 23 24  2  0
 23 25  1  0
M  END
$$$$
