SMH.pdb
     RDKit          3D

 25 25  0  0  1  0  0  0  0  0999 V2000
   26.0900  -24.1977  -17.8801 O   0  0  0  0  0  0  0  0  0  0  0  0
   27.2907  -24.6040  -17.3355 C   0  0  0  0  0  0  0  0  0  0  0  0
   28.1784  -23.4162  -17.0342 C   0  0  2  0  0  0  0  0  0  0  0  0
   29.4688  -23.8076  -16.5282 N   0  0  0  0  0  0  0  0  0  0  0  0
   27.5283  -22.4777  -16.0939 C   0  0  0  0  0  0  0  0  0  0  0  0
   27.5753  -22.6431  -14.8612 O   0  0  0  0  0  0  0  0  0  0  0  0
   28.0049  -16.5642  -16.6379 C   0  0  0  0  0  0  0  0  0  0  0  0
   27.1328  -16.5414  -15.0552 S   0  0  0  0  0  0  0  0  0  0  0  0
   26.6970  -18.2531  -14.6024 C   0  0  0  0  0  0  0  0  0  0  0  0
   26.5711  -19.0229  -15.8896 C   0  0  0  0  0  0  0  0  0  0  0  0
   26.1678  -20.4505  -15.7072 C   0  0  2  0  0  0  0  0  0  0  0  0
   26.8220  -21.3446  -16.6159 N   0  0  0  0  0  0  0  0  0  0  0  0
   24.6809  -20.6504  -15.8847 C   0  0  0  0  0  0  0  0  0  0  0  0
   24.1195  -20.6414  -16.9905 O   0  0  0  0  0  0  0  0  0  0  0  0
   23.8656  -20.8594  -14.7205 N   0  0  0  0  0  0  0  0  0  0  0  0
   22.4154  -20.9370  -14.7852 C   0  0  1  0  0  0  0  0  0  0  0  0
   21.8857  -21.9373  -13.7827 C   0  0  0  0  0  0  0  0  0  0  0  0
   22.3079  -23.3339  -14.0990 C   0  0  0  0  0  0  0  0  0  0  0  0
   23.0230  -23.8287  -15.1414 C   0  0  0  0  0  0  0  0  0  0  0  0
   23.1587  -25.1702  -15.0382 N   0  0  0  0  0  0  0  0  0  0  0  0
   22.5243  -25.5184  -13.9261 C   0  0  0  0  0  0  0  0  0  0  0  0
   21.9842  -24.4133  -13.3125 N   0  0  0  0  0  0  0  0  0  0  0  0
   21.8101  -19.6025  -14.5526 C   0  0  0  0  0  0  0  0  0  0  0  0
   22.4761  -18.7349  -13.9434 O   0  0  0  0  0  0  0  0  0  0  0  0
   20.5438  -19.2726  -14.9754 O   0  0  0  0  0  0  0  0  0  0  0  0
  2  1  1  0
  2  3  1  0
  3  4  1  1
  5  3  1  0
  5  6  2  0
  7  8  1  0
  8  9  1  0
  9 10  1  0
 11 10  1  6
 11 12  1  0
 11 13  1  0
 12  5  1  0
 13 15  1  0
 13 14  2  0
 15 16  1  0
 16 23  1  0
 17 18  1  0
 16 17  1  1
 18 19  2  0
 19 20  1  0
 21 20  1  0
 22 18  1  0
 22 21  2  0
 23 24  2  0
 23 25  1  0
M  END
$$$$
