SMH.pdb
     RDKit          3D

 25 25  0  0  1  0  0  0  0  0999 V2000
   26.6700  -20.1361  -17.6158 O   0  0  0  0  0  0  0  0  0  0  0  0
   27.8438  -19.9908  -16.9056 C   0  0  0  0  0  0  0  0  0  0  0  0
   28.1856  -21.2614  -16.1583 C   0  0  2  0  0  0  0  0  0  0  0  0
   28.4406  -22.3689  -17.0430 N   0  0  0  0  0  0  0  0  0  0  0  0
   27.1291  -21.6205  -15.1875 C   0  0  0  0  0  0  0  0  0  0  0  0
   26.5254  -22.7075  -15.2440 O   0  0  0  0  0  0  0  0  0  0  0  0
   25.0335  -20.9266   -7.7212 C   0  0  0  0  0  0  0  0  0  0  0  0
   26.1023  -20.4294   -9.0911 S   0  0  0  0  0  0  0  0  0  0  0  0
   25.3605  -21.0099  -10.6524 C   0  0  0  0  0  0  0  0  0  0  0  0
   26.3286  -20.6566  -11.7495 C   0  0  0  0  0  0  0  0  0  0  0  0
   25.8958  -21.1023  -13.1089 C   0  0  2  0  0  0  0  0  0  0  0  0
   26.7885  -20.6903  -14.1512 N   0  0  0  0  0  0  0  0  0  0  0  0
   24.5245  -20.5813  -13.4704 C   0  0  0  0  0  0  0  0  0  0  0  0
   24.3205  -19.4302  -13.8844 O   0  0  0  0  0  0  0  0  0  0  0  0
   23.3919  -21.4535  -13.3287 N   0  0  0  0  0  0  0  0  0  0  0  0
   22.0376  -21.0350  -13.6512 C   0  0  1  0  0  0  0  0  0  0  0  0
   21.1937  -22.2193  -14.0657 C   0  0  0  0  0  0  0  0  0  0  0  0
   21.5105  -22.6839  -15.4487 C   0  0  0  0  0  0  0  0  0  0  0  0
   22.3253  -22.1541  -16.3965 C   0  0  0  0  0  0  0  0  0  0  0  0
   22.3001  -22.9000  -17.5242 N   0  0  0  0  0  0  0  0  0  0  0  0
   21.4644  -23.9019  -17.2826 C   0  0  0  0  0  0  0  0  0  0  0  0
   20.9539  -23.8082  -16.0098 N   0  0  0  0  0  0  0  0  0  0  0  0
   21.4177  -20.3376  -12.4977 C   0  0  0  0  0  0  0  0  0  0  0  0
   21.7521  -20.6723  -11.3386 O   0  0  0  0  0  0  0  0  0  0  0  0
   20.4862  -19.3364  -12.6428 O   0  0  0  0  0  0  0  0  0  0  0  0
  2  1  1  0
  2  3  1  0
  3  4  1  6
  5  3  1  0
  5  6  2  0
  7  8  1  0
  8  9  1  0
  9 10  1  0
 11 10  1  1
 11 12  1  0
 11 13  1  0
 12  5  1  0
 13 15  1  0
 13 14  2  0
 15 16  1  0
 16 23  1  0
 17 18  1  0
 16 17  1  1
 18 19  2  0
 19 20  1  0
 21 20  1  0
 22 18  1  0
 22 21  2  0
 23 24  2  0
 23 25  1  0
M  END
$$$$
