SMH.pdb
     RDKit          3D

 25 25  0  0  1  0  0  0  0  0999 V2000
   29.0661  -22.6816  -14.7993 O   0  0  0  0  0  0  0  0  0  0  0  0
   28.0401  -22.1380  -15.5445 C   0  0  0  0  0  0  0  0  0  0  0  0
   27.4952  -20.8892  -14.8862 C   0  0  2  0  0  0  0  0  0  0  0  0
   28.5211  -19.9131  -14.6232 N   0  0  0  0  0  0  0  0  0  0  0  0
   26.7662  -21.2073  -13.6393 C   0  0  0  0  0  0  0  0  0  0  0  0
   25.7683  -21.9511  -13.6319 O   0  0  0  0  0  0  0  0  0  0  0  0
   26.5451  -20.1348   -5.7981 C   0  0  0  0  0  0  0  0  0  0  0  0
   27.5021  -20.1478   -7.3311 S   0  0  0  0  0  0  0  0  0  0  0  0
   26.3914  -20.5810   -8.7107 C   0  0  0  0  0  0  0  0  0  0  0  0
   27.2348  -20.5969   -9.9572 C   0  0  0  0  0  0  0  0  0  0  0  0
   26.4667  -20.8819  -11.2073 C   0  0  2  0  0  0  0  0  0  0  0  0
   27.2203  -20.6426  -12.4023 N   0  0  0  0  0  0  0  0  0  0  0  0
   25.2082  -20.0519  -11.3053 C   0  0  0  0  0  0  0  0  0  0  0  0
   25.2093  -18.8427  -11.5806 O   0  0  0  0  0  0  0  0  0  0  0  0
   23.9405  -20.6840  -11.0666 N   0  0  0  0  0  0  0  0  0  0  0  0
   22.7138  -20.2440  -11.7107 C   0  0  1  0  0  0  0  0  0  0  0  0
   22.8459  -20.3043  -13.2158 C   0  0  0  0  0  0  0  0  0  0  0  0
   21.5893  -19.8964  -13.9112 C   0  0  0  0  0  0  0  0  0  0  0  0
   20.3887  -19.5041  -13.4138 C   0  0  0  0  0  0  0  0  0  0  0  0
   19.5162  -19.2421  -14.4133 N   0  0  0  0  0  0  0  0  0  0  0  0
   20.1728  -19.4725  -15.5430 C   0  0  0  0  0  0  0  0  0  0  0  0
   21.4594  -19.8780  -15.2793 N   0  0  0  0  0  0  0  0  0  0  0  0
   21.5634  -21.0654  -11.2599 C   0  0  0  0  0  0  0  0  0  0  0  0
   21.7043  -22.3064  -11.1734 O   0  0  0  0  0  0  0  0  0  0  0  0
   20.3421  -20.5248  -10.9327 O   0  0  0  0  0  0  0  0  0  0  0  0
  2  1  1  0
  2  3  1  0
  3  4  1  1
  5  3  1  0
  5  6  2  0
  7  8  1  0
  8  9  1  0
  9 10  1  0
 11 10  1  1
 11 12  1  0
 11 13  1  0
 12  5  1  0
 13 15  1  0
 13 14  2  0
 15 16  1  0
 16 23  1  0
 17 18  1  0
 16 17  1  6
 18 19  2  0
 19 20  1  0
 21 20  1  0
 22 18  1  0
 22 21  2  0
 23 24  2  0
 23 25  1  0
M  END
$$$$
