SMH.pdb
     RDKit          3D

 25 25  0  0  1  0  0  0  0  0999 V2000
   21.6164   -2.0926  -14.5358 O   0  0  0  0  0  0  0  0  0  0  0  0
   20.9355   -3.2867  -14.6537 C   0  0  0  0  0  0  0  0  0  0  0  0
   21.4403   -4.0836  -15.8368 C   0  0  2  0  0  0  0  0  0  0  0  0
   21.0458   -3.5081  -17.0969 N   0  0  0  0  0  0  0  0  0  0  0  0
   21.0048   -5.4953  -15.7655 C   0  0  0  0  0  0  0  0  0  0  0  0
   19.9705   -5.8943  -16.3312 O   0  0  0  0  0  0  0  0  0  0  0  0
   23.1916  -12.9461  -14.7557 C   0  0  0  0  0  0  0  0  0  0  0  0
   23.6256  -11.2010  -14.9358 S   0  0  0  0  0  0  0  0  0  0  0  0
   22.0947  -10.2110  -14.9044 C   0  0  0  0  0  0  0  0  0  0  0  0
   22.5060   -8.7722  -15.0655 C   0  0  0  0  0  0  0  0  0  0  0  0
   21.3755   -7.8008  -14.9546 C   0  0  2  0  0  0  0  0  0  0  0  0
   21.7955   -6.4325  -15.0227 N   0  0  0  0  0  0  0  0  0  0  0  0
   20.6081   -7.9634  -13.6635 C   0  0  0  0  0  0  0  0  0  0  0  0
   20.9798   -7.4783  -12.5844 O   0  0  0  0  0  0  0  0  0  0  0  0
   19.3862   -8.7188  -13.6737 N   0  0  0  0  0  0  0  0  0  0  0  0
   18.4690   -8.7372  -12.5460 C   0  0  1  0  0  0  0  0  0  0  0  0
   18.1499   -7.3313  -12.0900 C   0  0  0  0  0  0  0  0  0  0  0  0
   17.1043   -7.3051  -11.0247 C   0  0  0  0  0  0  0  0  0  0  0  0
   17.0017   -8.0058   -9.8665 C   0  0  0  0  0  0  0  0  0  0  0  0
   15.8698   -7.6767   -9.2038 N   0  0  0  0  0  0  0  0  0  0  0  0
   15.2591   -6.7660   -9.9508 C   0  0  0  0  0  0  0  0  0  0  0  0
   15.9886   -6.5051  -11.0862 N   0  0  0  0  0  0  0  0  0  0  0  0
   17.2228   -9.4613  -12.8981 C   0  0  0  0  0  0  0  0  0  0  0  0
   16.7362   -9.3059  -14.0410 O   0  0  0  0  0  0  0  0  0  0  0  0
   16.5724  -10.2985  -12.0222 O   0  0  0  0  0  0  0  0  0  0  0  0
  2  1  1  0
  2  3  1  0
  3  4  1  6
  5  3  1  0
  5  6  2  0
  7  8  1  0
  8  9  1  0
  9 10  1  0
 11 10  1  1
 11 12  1  0
 11 13  1  0
 12  5  1  0
 13 15  1  0
 13 14  2  0
 15 16  1  0
 16 23  1  0
 17 18  1  0
 16 17  1  6
 18 19  2  0
 19 20  1  0
 21 20  1  0
 22 18  1  0
 22 21  2  0
 23 24  2  0
 23 25  1  0
M  END
$$$$
