SMH.pdb
     RDKit          3D

 25 25  0  0  1  0  0  0  0  0999 V2000
   26.3341  -19.2315  -14.2003 O   0  0  0  0  0  0  0  0  0  0  0  0
   27.6530  -19.5884  -14.0096 C   0  0  0  0  0  0  0  0  0  0  0  0
   27.7622  -21.0130  -13.5115 C   0  0  2  0  0  0  0  0  0  0  0  0
   27.3290  -21.9741  -14.4929 N   0  0  0  0  0  0  0  0  0  0  0  0
   27.0154  -21.2051  -12.2494 C   0  0  0  0  0  0  0  0  0  0  0  0
   26.0044  -21.9283  -12.1864 O   0  0  0  0  0  0  0  0  0  0  0  0
   26.9268  -20.1122   -4.4371 C   0  0  0  0  0  0  0  0  0  0  0  0
   27.7305  -19.7597   -6.0169 S   0  0  0  0  0  0  0  0  0  0  0  0
   26.6447  -20.3305   -7.3660 C   0  0  0  0  0  0  0  0  0  0  0  0
   27.4356  -20.2062   -8.6405 C   0  0  0  0  0  0  0  0  0  0  0  0
   26.6984  -20.6576   -9.8598 C   0  0  2  0  0  0  0  0  0  0  0  0
   27.4671  -20.5387  -11.0632 N   0  0  0  0  0  0  0  0  0  0  0  0
   25.4203  -19.8811  -10.0738 C   0  0  0  0  0  0  0  0  0  0  0  0
   25.3815  -18.7720  -10.6273 O   0  0  0  0  0  0  0  0  0  0  0  0
   24.1814  -20.4449   -9.6144 N   0  0  0  0  0  0  0  0  0  0  0  0
   22.9490  -20.3526  -10.3798 C   0  0  1  0  0  0  0  0  0  0  0  0
   23.1122  -20.9925  -11.7401 C   0  0  0  0  0  0  0  0  0  0  0  0
   21.8612  -20.9239  -12.5519 C   0  0  0  0  0  0  0  0  0  0  0  0
   20.6517  -20.3752  -12.2711 C   0  0  0  0  0  0  0  0  0  0  0  0
   19.7896  -20.5605  -13.2963 N   0  0  0  0  0  0  0  0  0  0  0  0
   20.4615  -21.2298  -14.2241 C   0  0  0  0  0  0  0  0  0  0  0  0
   21.7478  -21.4746  -13.8060 N   0  0  0  0  0  0  0  0  0  0  0  0
   21.8276  -20.9854   -9.6427 C   0  0  0  0  0  0  0  0  0  0  0  0
   20.6651  -20.5604   -9.8304 O   0  0  0  0  0  0  0  0  0  0  0  0
   22.0065  -22.0216   -8.7564 O   0  0  0  0  0  0  0  0  0  0  0  0
  2  1  1  0
  2  3  1  0
  3  4  1  6
  5  3  1  0
  5  6  2  0
  7  8  1  0
  8  9  1  0
  9 10  1  0
 11 10  1  1
 11 12  1  0
 11 13  1  0
 12  5  1  0
 13 15  1  0
 13 14  2  0
 15 16  1  0
 16 23  1  0
 17 18  1  0
 16 17  1  6
 18 19  2  0
 19 20  1  0
 21 20  1  0
 22 18  1  0
 22 21  2  0
 23 24  2  0
 23 25  1  0
M  END
$$$$
