SMH.pdb
     RDKit          3D

 25 25  0  0  1  0  0  0  0  0999 V2000
   19.1547  -11.6612  -16.6423 O   0  0  0  0  0  0  0  0  0  0  0  0
   19.3164  -12.1654  -15.3683 C   0  0  0  0  0  0  0  0  0  0  0  0
   17.9847  -12.5636  -14.7702 C   0  0  2  0  0  0  0  0  0  0  0  0
   17.2170  -13.4079  -15.6489 N   0  0  0  0  0  0  0  0  0  0  0  0
   17.1887  -11.3791  -14.3817 C   0  0  0  0  0  0  0  0  0  0  0  0
   16.3270  -10.8894  -15.1345 O   0  0  0  0  0  0  0  0  0  0  0  0
   12.3786  -11.0696   -9.9263 C   0  0  0  0  0  0  0  0  0  0  0  0
   13.9570  -10.1897   -9.9065 S   0  0  0  0  0  0  0  0  0  0  0  0
   14.6817  -10.2502  -11.5786 C   0  0  0  0  0  0  0  0  0  0  0  0
   16.0212   -9.5689  -11.4950 C   0  0  0  0  0  0  0  0  0  0  0  0
   16.7682   -9.5359  -12.7891 C   0  0  2  0  0  0  0  0  0  0  0  0
   17.4158  -10.7754  -13.1013 N   0  0  0  0  0  0  0  0  0  0  0  0
   17.8335   -8.4648  -12.8058 C   0  0  0  0  0  0  0  0  0  0  0  0
   18.9951   -8.6531  -12.4144 O   0  0  0  0  0  0  0  0  0  0  0  0
   17.4944   -7.1573  -13.2949 N   0  0  0  0  0  0  0  0  0  0  0  0
   18.4873   -6.1135  -13.4894 C   0  0  1  0  0  0  0  0  0  0  0  0
   19.6370   -6.6162  -14.3332 C   0  0  0  0  0  0  0  0  0  0  0  0
   20.6919   -5.5780  -14.5290 C   0  0  0  0  0  0  0  0  0  0  0  0
   20.8033   -4.3221  -14.0259 C   0  0  0  0  0  0  0  0  0  0  0  0
   21.9224   -3.7175  -14.4847 N   0  0  0  0  0  0  0  0  0  0  0  0
   22.5151   -4.5982  -15.2806 C   0  0  0  0  0  0  0  0  0  0  0  0
   21.7888   -5.7639  -15.3359 N   0  0  0  0  0  0  0  0  0  0  0  0
   17.8719   -4.9172  -14.1151 C   0  0  0  0  0  0  0  0  0  0  0  0
   16.7600   -5.0345  -14.6783 O   0  0  0  0  0  0  0  0  0  0  0  0
   18.4699   -3.6789  -14.1069 O   0  0  0  0  0  0  0  0  0  0  0  0
  2  1  1  0
  2  3  1  0
  3  4  1  6
  5  3  1  0
  5  6  2  0
  7  8  1  0
  8  9  1  0
  9 10  1  0
 11 10  1  1
 11 12  1  0
 11 13  1  0
 12  5  1  0
 13 15  1  0
 13 14  2  0
 15 16  1  0
 16 23  1  0
 17 18  1  0
 16 17  1  6
 18 19  2  0
 19 20  1  0
 21 20  1  0
 22 18  1  0
 22 21  2  0
 23 24  2  0
 23 25  1  0
M  END
$$$$
