SMH.pdb
     RDKit          3D

 25 25  0  0  1  0  0  0  0  0999 V2000
   26.3748   -7.3226  -19.2282 O   0  0  0  0  0  0  0  0  0  0  0  0
   26.9329   -8.5421  -18.9047 C   0  0  0  0  0  0  0  0  0  0  0  0
   26.0416   -9.6810  -19.3500 C   0  0  2  0  0  0  0  0  0  0  0  0
   25.8263   -9.6872  -20.7741 N   0  0  0  0  0  0  0  0  0  0  0  0
   24.7437   -9.6632  -18.6409 C   0  0  0  0  0  0  0  0  0  0  0  0
   23.7090   -9.2213  -19.1732 O   0  0  0  0  0  0  0  0  0  0  0  0
   20.4303  -13.1438  -13.1019 C   0  0  0  0  0  0  0  0  0  0  0  0
   22.0018  -12.9927  -13.9814 S   0  0  0  0  0  0  0  0  0  0  0  0
   21.9539  -11.4886  -15.0111 C   0  0  0  0  0  0  0  0  0  0  0  0
   23.2615  -11.4306  -15.7543 C   0  0  0  0  0  0  0  0  0  0  0  0
   23.4006  -10.2405  -16.6477 C   0  0  2  0  0  0  0  0  0  0  0  0
   24.6738  -10.1683  -17.3011 N   0  0  0  0  0  0  0  0  0  0  0  0
   23.2136   -8.9411  -15.9002 C   0  0  0  0  0  0  0  0  0  0  0  0
   24.1573   -8.2329  -15.5183 O   0  0  0  0  0  0  0  0  0  0  0  0
   21.8796   -8.4947  -15.6087 N   0  0  0  0  0  0  0  0  0  0  0  0
   21.5943   -7.1631  -15.1002 C   0  0  1  0  0  0  0  0  0  0  0  0
   22.2607   -6.1078  -15.9539 C   0  0  0  0  0  0  0  0  0  0  0  0
   22.0506   -4.7303  -15.4181 C   0  0  0  0  0  0  0  0  0  0  0  0
   21.9812   -4.2778  -14.1401 C   0  0  0  0  0  0  0  0  0  0  0  0
   21.7588   -2.9442  -14.1133 N   0  0  0  0  0  0  0  0  0  0  0  0
   21.6870   -2.5588  -15.3809 C   0  0  0  0  0  0  0  0  0  0  0  0
   21.8633   -3.6315  -16.2220 N   0  0  0  0  0  0  0  0  0  0  0  0
   20.1304   -6.9296  -15.0396 C   0  0  0  0  0  0  0  0  0  0  0  0
   19.3913   -7.5098  -15.8670 O   0  0  0  0  0  0  0  0  0  0  0  0
   19.5440   -6.0996  -14.1132 O   0  0  0  0  0  0  0  0  0  0  0  0
  2  1  1  0
  2  3  1  0
  3  4  1  6
  5  3  1  0
  5  6  2  0
  7  8  1  0
  8  9  1  0
  9 10  1  0
 11 10  1  1
 11 12  1  0
 11 13  1  0
 12  5  1  0
 13 15  1  0
 13 14  2  0
 15 16  1  0
 16 23  1  0
 17 18  1  0
 16 17  1  6
 18 19  2  0
 19 20  1  0
 21 20  1  0
 22 18  1  0
 22 21  2  0
 23 24  2  0
 23 25  1  0
M  END
$$$$
