SMH.pdb
     RDKit          3D

 25 25  0  0  1  0  0  0  0  0999 V2000
   10.8847  -10.1881   -9.5569 O   0  0  0  0  0  0  0  0  0  0  0  0
   12.1636   -9.6865   -9.6845 C   0  0  0  0  0  0  0  0  0  0  0  0
   12.9124  -10.3883  -10.7964 C   0  0  2  0  0  0  0  0  0  0  0  0
   12.9862  -11.8128  -10.5968 N   0  0  0  0  0  0  0  0  0  0  0  0
   14.2706   -9.8298  -10.9725 C   0  0  0  0  0  0  0  0  0  0  0  0
   15.2044  -10.1145  -10.2006 O   0  0  0  0  0  0  0  0  0  0  0  0
   18.5431  -12.3627  -14.6871 C   0  0  0  0  0  0  0  0  0  0  0  0
   17.9264  -10.6675  -14.7976 S   0  0  0  0  0  0  0  0  0  0  0  0
   17.0707  -10.2535  -13.2416 C   0  0  0  0  0  0  0  0  0  0  0  0
   16.5776   -8.8384  -13.3818 C   0  0  0  0  0  0  0  0  0  0  0  0
   15.8173   -8.3393  -12.1957 C   0  0  2  0  0  0  0  0  0  0  0  0
   14.5202   -8.9334  -12.0631 N   0  0  0  0  0  0  0  0  0  0  0  0
   15.6155   -6.8426  -12.2360 C   0  0  0  0  0  0  0  0  0  0  0  0
   14.8447   -6.2802  -13.0282 O   0  0  0  0  0  0  0  0  0  0  0  0
   16.3504   -6.0190  -11.3166 N   0  0  0  0  0  0  0  0  0  0  0  0
   16.2286   -4.5706  -11.2952 C   0  0  1  0  0  0  0  0  0  0  0  0
   16.3023   -4.0461   -9.8788 C   0  0  0  0  0  0  0  0  0  0  0  0
   15.0609   -4.3369   -9.1021 C   0  0  0  0  0  0  0  0  0  0  0  0
   13.8892   -4.9057   -9.4846 C   0  0  0  0  0  0  0  0  0  0  0  0
   13.0199   -4.9588   -8.4502 N   0  0  0  0  0  0  0  0  0  0  0  0
   13.6492   -4.4194   -7.4142 C   0  0  0  0  0  0  0  0  0  0  0  0
   14.9154   -4.0221   -7.7723 N   0  0  0  0  0  0  0  0  0  0  0  0
   17.2815   -3.9453  -12.1328 C   0  0  0  0  0  0  0  0  0  0  0  0
   17.2412   -2.7099  -12.3314 O   0  0  0  0  0  0  0  0  0  0  0  0
   18.3046   -4.6635  -12.7061 O   0  0  0  0  0  0  0  0  0  0  0  0
  2  1  1  0
  2  3  1  0
  3  4  1  1
  5  3  1  0
  5  6  2  0
  7  8  1  0
  8  9  1  0
  9 10  1  0
 11 10  1  6
 11 12  1  0
 11 13  1  0
 12  5  1  0
 13 15  1  0
 13 14  2  0
 15 16  1  0
 16 23  1  0
 17 18  1  0
 16 17  1  1
 18 19  2  0
 19 20  1  0
 21 20  1  0
 22 18  1  0
 22 21  2  0
 23 24  2  0
 23 25  1  0
M  END
$$$$
