YSW.pdb
     RDKit          3D

 33 35  0  0  1  0  0  0  0  0999 V2000
   26.9786  -33.5389   -9.9467 O   0  0  0  0  0  0  0  0  0  0  0  0
   25.9481  -33.1377   -9.1019 C   0  0  0  0  0  0  0  0  0  0  0  0
   25.8584  -33.5611   -7.7988 C   0  0  0  0  0  0  0  0  0  0  0  0
   24.8137  -33.1237   -7.0245 C   0  0  0  0  0  0  0  0  0  0  0  0
   23.8291  -32.2645   -7.4943 C   0  0  0  0  0  0  0  0  0  0  0  0
   22.7124  -31.8011   -6.6543 C   0  0  0  0  0  0  0  0  0  0  0  0
   21.7323  -32.9159   -6.3471 C   0  0  2  0  0  0  0  0  0  0  0  0
   20.9199  -33.0691   -7.5651 N   0  0  0  0  0  0  0  0  0  0  0  0
   20.8079  -32.5708   -5.2660 C   0  0  0  0  0  0  0  0  0  0  0  0
   19.8241  -31.7988   -5.5329 O   0  0  0  0  0  0  0  0  0  0  0  0
   23.9343  -31.8527   -8.7952 C   0  0  0  0  0  0  0  0  0  0  0  0
   24.9862  -32.2892   -9.5853 C   0  0  0  0  0  0  0  0  0  0  0  0
   20.7305  -34.2913   -1.4558 O   0  0  0  0  0  0  0  0  0  0  0  0
   19.5680  -33.7012   -1.9685 C   0  0  0  0  0  0  0  0  0  0  0  0
   20.0068  -32.5780   -2.8718 C   0  0  2  0  0  0  0  0  0  0  0  0
   20.8896  -33.0111   -3.9263 N   0  0  0  0  0  0  0  0  0  0  0  0
   20.5532  -31.4194   -2.1271 C   0  0  0  0  0  0  0  0  0  0  0  0
   21.7786  -31.1617   -2.1554 O   0  0  0  0  0  0  0  0  0  0  0  0
   19.6839  -30.6074   -1.3855 N   0  0  0  0  0  0  0  0  0  0  0  0
   20.1160  -29.5297   -0.5213 C   0  0  1  0  0  0  0  0  0  0  0  0
   19.5816  -28.2290   -1.0633 C   0  0  0  0  0  0  0  0  0  0  0  0
   19.8748  -27.0588   -0.2384 C   0  0  0  0  0  0  0  0  0  0  0  0
   21.1089  -26.4581   -0.1170 C   0  0  0  0  0  0  0  0  0  0  0  0
   20.9965  -25.4208    0.7208 N   0  0  0  0  0  0  0  0  0  0  0  0
   19.7128  -25.3447    1.1393 C   0  0  0  0  0  0  0  0  0  0  0  0
   19.0652  -24.4807    1.9929 C   0  0  0  0  0  0  0  0  0  0  0  0
   17.7005  -24.6180    2.2688 C   0  0  0  0  0  0  0  0  0  0  0  0
   17.0223  -25.6459    1.6593 C   0  0  0  0  0  0  0  0  0  0  0  0
   17.6381  -26.5271    0.8012 C   0  0  0  0  0  0  0  0  0  0  0  0
   18.9826  -26.3612    0.5534 C   0  0  0  0  0  0  0  0  0  0  0  0
   19.7498  -29.7522    0.8869 C   0  0  0  0  0  0  0  0  0  0  0  0
   18.6426  -30.5478    1.1468 O   0  0  0  0  0  0  0  0  0  0  0  0
   20.3639  -29.2761    1.8708 O   0  0  0  0  0  0  0  0  0  0  0  0
  2 12  2  0
  2  1  1  0
  3  2  1  0
  4  3  2  0
  5  4  1  0
  5 11  2  0
  6  5  1  0
  7  6  1  0
  7  9  1  0
  7  8  1  6
  9 10  2  0
 11 12  1  0
 13 14  1  0
 15 14  1  1
 16  9  1  0
 16 15  1  0
 17 15  1  0
 17 18  2  0
 19 17  1  0
 20 19  1  0
 20 21  1  6
 22 21  1  0
 22 30  1  0
 23 22  2  0
 24 23  1  0
 24 25  1  0
 25 26  1  0
 25 30  2  0
 26 27  2  0
 27 28  1  0
 29 28  2  0
 30 29  1  0
 31 32  1  0
 31 20  1  0
 33 31  2  0
M  END
$$$$
