YSW.pdb
     RDKit          3D

 33 35  0  0  1  0  0  0  0  0999 V2000
   28.8730  -19.2345   -4.0879 O   0  0  0  0  0  0  0  0  0  0  0  0
   28.5521  -19.6251   -5.3844 C   0  0  0  0  0  0  0  0  0  0  0  0
   27.7628  -18.8614   -6.2086 C   0  0  0  0  0  0  0  0  0  0  0  0
   27.4885  -19.3108   -7.4754 C   0  0  0  0  0  0  0  0  0  0  0  0
   27.9725  -20.5124   -7.9755 C   0  0  0  0  0  0  0  0  0  0  0  0
   27.6719  -20.9848   -9.3371 C   0  0  0  0  0  0  0  0  0  0  0  0
   26.5520  -20.1906   -9.9794 C   0  0  2  0  0  0  0  0  0  0  0  0
   25.3161  -20.6677   -9.3375 N   0  0  0  0  0  0  0  0  0  0  0  0
   26.4155  -20.4659  -11.4105 C   0  0  0  0  0  0  0  0  0  0  0  0
   25.4692  -21.2368  -11.7919 O   0  0  0  0  0  0  0  0  0  0  0  0
   28.7573  -21.2605   -7.1405 C   0  0  0  0  0  0  0  0  0  0  0  0
   29.0402  -20.8149   -5.8588 C   0  0  0  0  0  0  0  0  0  0  0  0
   28.9630  -19.6214  -14.4952 O   0  0  0  0  0  0  0  0  0  0  0  0
   27.8099  -18.8278  -14.5500 C   0  0  0  0  0  0  0  0  0  0  0  0
   26.7569  -19.5249  -13.7283 C   0  0  2  0  0  0  0  0  0  0  0  0
   27.2384  -19.9576  -12.4399 N   0  0  0  0  0  0  0  0  0  0  0  0
   26.0790  -20.6164  -14.4660 C   0  0  0  0  0  0  0  0  0  0  0  0
   26.5653  -21.7704  -14.4894 O   0  0  0  0  0  0  0  0  0  0  0  0
   24.8810  -20.3478  -15.1426 N   0  0  0  0  0  0  0  0  0  0  0  0
   24.1243  -21.3362  -15.8810 C   0  0  1  0  0  0  0  0  0  0  0  0
   23.0890  -21.9378  -14.9659 C   0  0  0  0  0  0  0  0  0  0  0  0
   22.1979  -20.9677  -14.3329 C   0  0  0  0  0  0  0  0  0  0  0  0
   21.3383  -20.1217  -14.9991 C   0  0  0  0  0  0  0  0  0  0  0  0
   20.6875  -19.3791  -14.0962 N   0  0  0  0  0  0  0  0  0  0  0  0
   21.1135  -19.7331  -12.8624 C   0  0  0  0  0  0  0  0  0  0  0  0
   20.7775  -19.2913  -11.6029 C   0  0  0  0  0  0  0  0  0  0  0  0
   21.3763  -19.8309  -10.4594 C   0  0  0  0  0  0  0  0  0  0  0  0
   22.3146  -20.8199  -10.6317 C   0  0  0  0  0  0  0  0  0  0  0  0
   22.6739  -21.2847  -11.8754 C   0  0  0  0  0  0  0  0  0  0  0  0
   22.0635  -20.7300  -12.9783 C   0  0  0  0  0  0  0  0  0  0  0  0
   23.5424  -20.7941  -17.1196 C   0  0  0  0  0  0  0  0  0  0  0  0
   23.0264  -21.6975  -18.0383 O   0  0  0  0  0  0  0  0  0  0  0  0
   23.4779  -19.5756  -17.4076 O   0  0  0  0  0  0  0  0  0  0  0  0
  2 12  2  0
  2  1  1  0
  3  2  1  0
  4  3  2  0
  5  4  1  0
  5 11  2  0
  6  5  1  0
  7  6  1  0
  7  9  1  0
  7  8  1  1
  9 10  2  0
 11 12  1  0
 13 14  1  0
 15 14  1  6
 16  9  1  0
 16 15  1  0
 17 15  1  0
 17 18  2  0
 19 17  1  0
 20 19  1  0
 20 21  1  1
 22 21  1  0
 22 30  1  0
 23 22  2  0
 24 23  1  0
 24 25  1  0
 25 26  1  0
 25 30  2  0
 26 27  2  0
 27 28  1  0
 29 28  2  0
 30 29  1  0
 31 32  1  0
 31 20  1  0
 33 31  2  0
M  END
$$$$
