YSW.pdb
     RDKit          3D

 33 35  0  0  1  0  0  0  0  0999 V2000
   10.9898  -14.8289  -21.3653 O   0  0  0  0  0  0  0  0  0  0  0  0
   12.1541  -14.2288  -20.8952 C   0  0  0  0  0  0  0  0  0  0  0  0
   12.6881  -13.1048  -21.4754 C   0  0  0  0  0  0  0  0  0  0  0  0
   13.8395  -12.5681  -20.9572 C   0  0  0  0  0  0  0  0  0  0  0  0
   14.5025  -13.1079  -19.8630 C   0  0  0  0  0  0  0  0  0  0  0  0
   15.7375  -12.5234  -19.3149 C   0  0  0  0  0  0  0  0  0  0  0  0
   16.9227  -12.7336  -20.2361 C   0  0  2  0  0  0  0  0  0  0  0  0
   17.3164  -14.1401  -20.0523 N   0  0  0  0  0  0  0  0  0  0  0  0
   18.0800  -11.9206  -19.8592 C   0  0  0  0  0  0  0  0  0  0  0  0
   18.8250  -12.3322  -18.9049 O   0  0  0  0  0  0  0  0  0  0  0  0
   13.9561  -14.2279  -19.2974 C   0  0  0  0  0  0  0  0  0  0  0  0
   12.7931  -14.7775  -19.8138 C   0  0  0  0  0  0  0  0  0  0  0  0
   18.9635   -8.0898  -21.3475 O   0  0  0  0  0  0  0  0  0  0  0  0
   20.0559   -8.9178  -21.0588 C   0  0  0  0  0  0  0  0  0  0  0  0
   19.5951   -9.9075  -20.0204 C   0  0  2  0  0  0  0  0  0  0  0  0
   18.4705  -10.6996  -20.4526 N   0  0  0  0  0  0  0  0  0  0  0  0
   19.3641   -9.2867  -18.6950 C   0  0  0  0  0  0  0  0  0  0  0  0
   18.2007   -9.1128  -18.2647 O   0  0  0  0  0  0  0  0  0  0  0  0
   20.4635   -8.8925  -17.9198 N   0  0  0  0  0  0  0  0  0  0  0  0
   20.3634   -8.1238  -16.6976 C   0  0  1  0  0  0  0  0  0  0  0  0
   21.7358   -8.0024  -16.0869 C   0  0  0  0  0  0  0  0  0  0  0  0
   21.8135   -7.1046  -14.9362 C   0  0  0  0  0  0  0  0  0  0  0  0
   21.6978   -7.4871  -13.6176 C   0  0  0  0  0  0  0  0  0  0  0  0
   21.8182   -6.3998  -12.8472 N   0  0  0  0  0  0  0  0  0  0  0  0
   22.0091   -5.3263  -13.6473 C   0  0  0  0  0  0  0  0  0  0  0  0
   22.1879   -3.9885  -13.3774 C   0  0  0  0  0  0  0  0  0  0  0  0
   22.3684   -3.0572  -14.4058 C   0  0  0  0  0  0  0  0  0  0  0  0
   22.3620   -3.5198  -15.6996 C   0  0  0  0  0  0  0  0  0  0  0  0
   22.1861   -4.8495  -16.0048 C   0  0  0  0  0  0  0  0  0  0  0  0
   22.0112   -5.7373  -14.9666 C   0  0  0  0  0  0  0  0  0  0  0  0
   19.7143   -6.8186  -16.9016 C   0  0  0  0  0  0  0  0  0  0  0  0
   19.9795   -6.1451  -18.0859 O   0  0  0  0  0  0  0  0  0  0  0  0
   18.9386   -6.2685  -16.0845 O   0  0  0  0  0  0  0  0  0  0  0  0
  2 12  2  0
  2  1  1  0
  3  2  1  0
  4  3  2  0
  5  4  1  0
  5 11  2  0
  6  5  1  0
  7  6  1  0
  7  9  1  0
  7  8  1  1
  9 10  2  0
 11 12  1  0
 13 14  1  0
 15 14  1  6
 16  9  1  0
 16 15  1  0
 17 15  1  0
 17 18  2  0
 19 17  1  0
 20 19  1  0
 20 21  1  6
 22 21  1  0
 22 30  1  0
 23 22  2  0
 24 23  1  0
 24 25  1  0
 25 26  1  0
 25 30  2  0
 26 27  2  0
 27 28  1  0
 29 28  2  0
 30 29  1  0
 31 32  1  0
 31 20  1  0
 33 31  2  0
M  END
$$$$
