YSW.pdb
     RDKit          3D

 33 35  0  0  1  0  0  0  0  0999 V2000
   18.5690  -15.6853  -16.9028 O   0  0  0  0  0  0  0  0  0  0  0  0
   19.2150  -16.5343  -16.0092 C   0  0  0  0  0  0  0  0  0  0  0  0
   18.5294  -17.3653  -15.1578 C   0  0  0  0  0  0  0  0  0  0  0  0
   19.2338  -18.1754  -14.3037 C   0  0  0  0  0  0  0  0  0  0  0  0
   20.6213  -18.2004  -14.2533 C   0  0  0  0  0  0  0  0  0  0  0  0
   21.3672  -19.0742  -13.3326 C   0  0  0  0  0  0  0  0  0  0  0  0
   22.1155  -20.1678  -14.0687 C   0  0  2  0  0  0  0  0  0  0  0  0
   21.0896  -21.1479  -14.4610 N   0  0  0  0  0  0  0  0  0  0  0  0
   23.0663  -20.8755  -13.2101 C   0  0  0  0  0  0  0  0  0  0  0  0
   22.6309  -21.4040  -12.1302 O   0  0  0  0  0  0  0  0  0  0  0  0
   21.2881  -17.3658  -15.1087 C   0  0  0  0  0  0  0  0  0  0  0  0
   20.5852  -16.5436  -15.9754 C   0  0  0  0  0  0  0  0  0  0  0  0
   27.1903  -21.0893  -13.8945 O   0  0  0  0  0  0  0  0  0  0  0  0
   26.6286  -22.1424  -13.1611 C   0  0  0  0  0  0  0  0  0  0  0  0
   25.3791  -21.6078  -12.5108 C   0  0  2  0  0  0  0  0  0  0  0  0
   24.4478  -21.0405  -13.4541 N   0  0  0  0  0  0  0  0  0  0  0  0
   25.6636  -20.6873  -11.3851 C   0  0  0  0  0  0  0  0  0  0  0  0
   25.3383  -19.4795  -11.4493 O   0  0  0  0  0  0  0  0  0  0  0  0
   26.3037  -21.1801  -10.2395 N   0  0  0  0  0  0  0  0  0  0  0  0
   27.1685  -20.3915   -9.3880 C   0  0  1  0  0  0  0  0  0  0  0  0
   26.4719  -20.1578   -8.0721 C   0  0  0  0  0  0  0  0  0  0  0  0
   27.2508  -19.3971   -7.0971 C   0  0  0  0  0  0  0  0  0  0  0  0
   27.3509  -18.0236   -7.0538 C   0  0  0  0  0  0  0  0  0  0  0  0
   28.1469  -17.6870   -6.0324 N   0  0  0  0  0  0  0  0  0  0  0  0
   28.5596  -18.8195   -5.4190 C   0  0  0  0  0  0  0  0  0  0  0  0
   29.3773  -19.0418   -4.3344 C   0  0  0  0  0  0  0  0  0  0  0  0
   29.6557  -20.3379   -3.8873 C   0  0  0  0  0  0  0  0  0  0  0  0
   29.0858  -21.3878   -4.5664 C   0  0  0  0  0  0  0  0  0  0  0  0
   28.2642  -21.2016   -5.6538 C   0  0  0  0  0  0  0  0  0  0  0  0
   28.0127  -19.9117   -6.0654 C   0  0  0  0  0  0  0  0  0  0  0  0
   28.5031  -20.9909   -9.2263 C   0  0  0  0  0  0  0  0  0  0  0  0
   29.5628  -20.1389   -8.9481 O   0  0  0  0  0  0  0  0  0  0  0  0
   28.7549  -22.2154   -9.3214 O   0  0  0  0  0  0  0  0  0  0  0  0
  2 12  2  0
  2  1  1  0
  3  2  1  0
  4  3  2  0
  5  4  1  0
  5 11  2  0
  6  5  1  0
  7  6  1  0
  7  9  1  0
  7  8  1  1
  9 10  2  0
 11 12  1  0
 13 14  1  0
 15 14  1  6
 16  9  1  0
 16 15  1  0
 17 15  1  0
 17 18  2  0
 19 17  1  0
 20 19  1  0
 20 21  1  1
 22 21  1  0
 22 30  1  0
 23 22  2  0
 24 23  1  0
 24 25  1  0
 25 26  1  0
 25 30  2  0
 26 27  2  0
 27 28  1  0
 29 28  2  0
 30 29  1  0
 31 32  1  0
 31 20  1  0
 33 31  2  0
M  END
$$$$
