YSW.pdb
     RDKit          3D

 33 35  0  0  1  0  0  0  0  0999 V2000
   18.6890  -15.4689  -16.9861 O   0  0  0  0  0  0  0  0  0  0  0  0
   19.3412  -16.2728  -16.0561 C   0  0  0  0  0  0  0  0  0  0  0  0
   20.6014  -16.7735  -16.2722 C   0  0  0  0  0  0  0  0  0  0  0  0
   21.1821  -17.5597  -15.3095 C   0  0  0  0  0  0  0  0  0  0  0  0
   20.5556  -17.8804  -14.1125 C   0  0  0  0  0  0  0  0  0  0  0  0
   21.1885  -18.7250  -13.0860 C   0  0  0  0  0  0  0  0  0  0  0  0
   21.2922  -20.1718  -13.5259 C   0  0  2  0  0  0  0  0  0  0  0  0
   19.9704  -20.7593  -13.2530 N   0  0  0  0  0  0  0  0  0  0  0  0
   22.2614  -20.9324  -12.7357 C   0  0  0  0  0  0  0  0  0  0  0  0
   21.9414  -21.2690  -11.5443 O   0  0  0  0  0  0  0  0  0  0  0  0
   19.3002  -17.3729  -13.9140 C   0  0  0  0  0  0  0  0  0  0  0  0
   18.7051  -16.5776  -14.8808 C   0  0  0  0  0  0  0  0  0  0  0  0
   26.1800  -22.1527  -13.9462 O   0  0  0  0  0  0  0  0  0  0  0  0
   25.4586  -22.8811  -12.9915 C   0  0  0  0  0  0  0  0  0  0  0  0
   24.5478  -21.9066  -12.2910 C   0  0  2  0  0  0  0  0  0  0  0  0
   23.5443  -21.3441  -13.1602 N   0  0  0  0  0  0  0  0  0  0  0  0
   25.2867  -20.8628  -11.5428 C   0  0  0  0  0  0  0  0  0  0  0  0
   25.4701  -19.7282  -12.0409 O   0  0  0  0  0  0  0  0  0  0  0  0
   25.7827  -21.1547  -10.2646 N   0  0  0  0  0  0  0  0  0  0  0  0
   26.7145  -20.3152   -9.5422 C   0  0  1  0  0  0  0  0  0  0  0  0
   26.4955  -20.5079   -8.0636 C   0  0  0  0  0  0  0  0  0  0  0  0
   27.3369  -19.6726   -7.2091 C   0  0  0  0  0  0  0  0  0  0  0  0
   27.5924  -18.3331   -7.4067 C   0  0  0  0  0  0  0  0  0  0  0  0
   28.4016  -17.9059   -6.4305 N   0  0  0  0  0  0  0  0  0  0  0  0
   28.6701  -18.9467   -5.6097 C   0  0  0  0  0  0  0  0  0  0  0  0
   29.4357  -19.0565   -4.4712 C   0  0  0  0  0  0  0  0  0  0  0  0
   29.5554  -20.2727   -3.7901 C   0  0  0  0  0  0  0  0  0  0  0  0
   28.8827  -21.3598   -4.2939 C   0  0  0  0  0  0  0  0  0  0  0  0
   28.1092  -21.2853   -5.4289 C   0  0  0  0  0  0  0  0  0  0  0  0
   28.0148  -20.0717   -6.0730 C   0  0  0  0  0  0  0  0  0  0  0  0
   28.1117  -20.5439   -9.9447 C   0  0  0  0  0  0  0  0  0  0  0  0
   28.5250  -21.8573  -10.1201 O   0  0  0  0  0  0  0  0  0  0  0  0
   28.9579  -19.6400  -10.1413 O   0  0  0  0  0  0  0  0  0  0  0  0
  2 12  2  0
  2  1  1  0
  3  2  1  0
  4  3  2  0
  5  4  1  0
  5 11  2  0
  6  5  1  0
  7  6  1  0
  7  9  1  0
  7  8  1  1
  9 10  2  0
 11 12  1  0
 13 14  1  0
 15 14  1  6
 16  9  1  0
 16 15  1  0
 17 15  1  0
 17 18  2  0
 19 17  1  0
 20 19  1  0
 20 21  1  1
 22 21  1  0
 22 30  1  0
 23 22  2  0
 24 23  1  0
 24 25  1  0
 25 26  1  0
 25 30  2  0
 26 27  2  0
 27 28  1  0
 29 28  2  0
 30 29  1  0
 31 32  1  0
 31 20  1  0
 33 31  2  0
M  END
$$$$
