YSW.pdb
     RDKit          3D

 33 35  0  0  1  0  0  0  0  0999 V2000
   17.1353  -14.1109  -18.1028 O   0  0  0  0  0  0  0  0  0  0  0  0
   17.1759  -15.5015  -18.1343 C   0  0  0  0  0  0  0  0  0  0  0  0
   18.3006  -16.1963  -18.5054 C   0  0  0  0  0  0  0  0  0  0  0  0
   18.2668  -17.5678  -18.5126 C   0  0  0  0  0  0  0  0  0  0  0  0
   17.1412  -18.3006  -18.1599 C   0  0  0  0  0  0  0  0  0  0  0  0
   17.1162  -19.7726  -18.1709 C   0  0  0  0  0  0  0  0  0  0  0  0
   16.8572  -20.3464  -16.7920 C   0  0  2  0  0  0  0  0  0  0  0  0
   18.0985  -20.1185  -16.0341 N   0  0  0  0  0  0  0  0  0  0  0  0
   16.6392  -21.7935  -16.8161 C   0  0  0  0  0  0  0  0  0  0  0  0
   17.6622  -22.5607  -16.8154 O   0  0  0  0  0  0  0  0  0  0  0  0
   16.0295  -17.5919  -17.7928 C   0  0  0  0  0  0  0  0  0  0  0  0
   16.0540  -16.2060  -17.7824 C   0  0  0  0  0  0  0  0  0  0  0  0
   13.0677  -23.1790  -16.2985 O   0  0  0  0  0  0  0  0  0  0  0  0
   13.7887  -24.3130  -16.6941 C   0  0  0  0  0  0  0  0  0  0  0  0
   15.2186  -23.8794  -16.8877 C   0  0  2  0  0  0  0  0  0  0  0  0
   15.3878  -22.4483  -16.8408 N   0  0  0  0  0  0  0  0  0  0  0  0
   15.8441  -24.4762  -18.0910 C   0  0  0  0  0  0  0  0  0  0  0  0
   16.4029  -23.7521  -18.9467 O   0  0  0  0  0  0  0  0  0  0  0  0
   15.8065  -25.8664  -18.2672 N   0  0  0  0  0  0  0  0  0  0  0  0
   16.3019  -26.5513  -19.4420 C   0  0  1  0  0  0  0  0  0  0  0  0
   17.7381  -26.1532  -19.6663 C   0  0  0  0  0  0  0  0  0  0  0  0
   18.3879  -26.8240  -20.7904 C   0  0  0  0  0  0  0  0  0  0  0  0
   19.6060  -27.4660  -20.7396 C   0  0  0  0  0  0  0  0  0  0  0  0
   19.8791  -27.9570  -21.9539 N   0  0  0  0  0  0  0  0  0  0  0  0
   18.8584  -27.6421  -22.7834 C   0  0  0  0  0  0  0  0  0  0  0  0
   18.6341  -27.8983  -24.1170 C   0  0  0  0  0  0  0  0  0  0  0  0
   17.4726  -27.4534  -24.7574 C   0  0  0  0  0  0  0  0  0  0  0  0
   16.5576  -26.7496  -24.0121 C   0  0  0  0  0  0  0  0  0  0  0  0
   16.7499  -26.4760  -22.6779 C   0  0  0  0  0  0  0  0  0  0  0  0
   17.9051  -26.9297  -22.0809 C   0  0  0  0  0  0  0  0  0  0  0  0
   16.1216  -28.0101  -19.3647 C   0  0  0  0  0  0  0  0  0  0  0  0
   15.8075  -28.5559  -18.1279 O   0  0  0  0  0  0  0  0  0  0  0  0
   16.2308  -28.7979  -20.3338 O   0  0  0  0  0  0  0  0  0  0  0  0
  2 12  2  0
  2  1  1  0
  3  2  1  0
  4  3  2  0
  5  4  1  0
  5 11  2  0
  6  5  1  0
  7  6  1  0
  7  9  1  0
  7  8  1  1
  9 10  2  0
 11 12  1  0
 13 14  1  0
 15 14  1  6
 16  9  1  0
 16 15  1  0
 17 15  1  0
 17 18  2  0
 19 17  1  0
 20 19  1  0
 20 21  1  1
 22 21  1  0
 22 30  1  0
 23 22  2  0
 24 23  1  0
 24 25  1  0
 25 26  1  0
 25 30  2  0
 26 27  2  0
 27 28  1  0
 29 28  2  0
 30 29  1  0
 31 32  1  0
 31 20  1  0
 33 31  2  0
M  END
$$$$
