YSW.pdb
     RDKit          3D

 33 35  0  0  1  0  0  0  0  0999 V2000
   83.6576  -60.9953  -47.8227 O   0  0  0  0  0  0  0  0  0  0  0  0
   83.7306  -61.0148  -46.4331 C   0  0  0  0  0  0  0  0  0  0  0  0
   83.6598  -59.8710  -45.6768 C   0  0  0  0  0  0  0  0  0  0  0  0
   83.7389  -59.9674  -44.3106 C   0  0  0  0  0  0  0  0  0  0  0  0
   83.8887  -61.1756  -43.6428 C   0  0  0  0  0  0  0  0  0  0  0  0
   83.9722  -61.2674  -42.1758 C   0  0  0  0  0  0  0  0  0  0  0  0
   85.0274  -62.2593  -41.7280 C   0  0  2  0  0  0  0  0  0  0  0  0
   84.2828  -63.4499  -41.2864 N   0  0  0  0  0  0  0  0  0  0  0  0
   85.7892  -61.7869  -40.5710 C   0  0  0  0  0  0  0  0  0  0  0  0
   86.5640  -62.6129  -39.9771 O   0  0  0  0  0  0  0  0  0  0  0  0
   83.9575  -62.3052  -44.4123 C   0  0  0  0  0  0  0  0  0  0  0  0
   83.8785  -62.2180  -45.7934 C   0  0  0  0  0  0  0  0  0  0  0  0
   83.3744  -61.7273  -39.6601 O   0  0  0  0  0  0  0  0  0  0  0  0
   83.4207  -60.3839  -39.2655 C   0  0  0  0  0  0  0  0  0  0  0  0
   84.8639  -60.0593  -38.9794 C   0  0  2  0  0  0  0  0  0  0  0  0
   85.7584  -60.4833  -40.0277 N   0  0  0  0  0  0  0  0  0  0  0  0
   85.3063  -60.5271  -37.6450 C   0  0  0  0  0  0  0  0  0  0  0  0
   86.1803  -59.8985  -37.0047 O   0  0  0  0  0  0  0  0  0  0  0  0
   84.7367  -61.6858  -37.0993 N   0  0  0  0  0  0  0  0  0  0  0  0
   83.8104  -62.5464  -37.8038 C   0  0  1  0  0  0  0  0  0  0  0  0
   82.7389  -62.9952  -36.8437 C   0  0  0  0  0  0  0  0  0  0  0  0
   81.7868  -61.9537  -36.4631 C   0  0  0  0  0  0  0  0  0  0  0  0
   82.0809  -60.6140  -36.3324 C   0  0  0  0  0  0  0  0  0  0  0  0
   80.9669  -59.9673  -35.9703 N   0  0  0  0  0  0  0  0  0  0  0  0
   79.9630  -60.8675  -35.8661 C   0  0  0  0  0  0  0  0  0  0  0  0
   78.6344  -60.7403  -35.5300 C   0  0  0  0  0  0  0  0  0  0  0  0
   77.7843  -61.8509  -35.4935 C   0  0  0  0  0  0  0  0  0  0  0  0
   78.3176  -63.0785  -35.8046 C   0  0  0  0  0  0  0  0  0  0  0  0
   79.6404  -63.2413  -36.1447 C   0  0  0  0  0  0  0  0  0  0  0  0
   80.4473  -62.1256  -36.1701 C   0  0  0  0  0  0  0  0  0  0  0  0
   83.2610  -61.9154  -39.0148 C   0  0  0  0  0  0  0  0  0  0  0  0
   83.6851  -60.6297  -39.3204 O   0  0  0  0  0  0  0  0  0  0  0  0
   82.4373  -62.4530  -39.7921 O   0  0  0  0  0  0  0  0  0  0  0  0
  2 12  2  0
  2  1  1  0
  3  2  1  0
  4  3  2  0
  5  4  1  0
  5 11  2  0
  6  5  1  0
  7  6  1  0
  7  9  1  0
  7  8  1  1
  9 10  2  0
 11 12  1  0
 13 14  1  0
 15 14  1  6
 16  9  1  0
 16 15  1  0
 17 15  1  0
 17 18  2  0
 19 17  1  0
 20 19  1  0
 20 21  1  1
 22 21  1  0
 22 30  1  0
 23 22  2  0
 24 23  1  0
 24 25  1  0
 25 26  1  0
 25 30  2  0
 26 27  2  0
 27 28  1  0
 29 28  2  0
 30 29  1  0
 31 32  1  0
 31 20  1  0
 33 31  2  0
M  END
$$$$
