YSW.pdb
     RDKit          3D

 33 35  0  0  1  0  0  0  0  0999 V2000
   24.4182  -20.3893  -19.8161 O   0  0  0  0  0  0  0  0  0  0  0  0
   24.9146  -21.2614  -18.8519 C   0  0  0  0  0  0  0  0  0  0  0  0
   26.0803  -21.9654  -19.0273 C   0  0  0  0  0  0  0  0  0  0  0  0
   26.5085  -22.8075  -18.0325 C   0  0  0  0  0  0  0  0  0  0  0  0
   25.8169  -22.9884  -16.8419 C   0  0  0  0  0  0  0  0  0  0  0  0
   26.2859  -23.8946  -15.7806 C   0  0  0  0  0  0  0  0  0  0  0  0
   25.8470  -25.3254  -16.0207 C   0  0  2  0  0  0  0  0  0  0  0  0
   26.4150  -25.6948  -17.3276 N   0  0  0  0  0  0  0  0  0  0  0  0
   24.3942  -25.4558  -16.1419 C   0  0  0  0  0  0  0  0  0  0  0  0
   23.8802  -25.4457  -17.3128 O   0  0  0  0  0  0  0  0  0  0  0  0
   24.6574  -22.2789  -16.6842 C   0  0  0  0  0  0  0  0  0  0  0  0
   24.2166  -21.4256  -17.6837 C   0  0  0  0  0  0  0  0  0  0  0  0
   21.6625  -25.4909  -12.9444 O   0  0  0  0  0  0  0  0  0  0  0  0
   21.3589  -26.3039  -14.0440 C   0  0  0  0  0  0  0  0  0  0  0  0
   22.0487  -25.7011  -15.2402 C   0  0  2  0  0  0  0  0  0  0  0  0
   23.4774  -25.5950  -15.0764 N   0  0  0  0  0  0  0  0  0  0  0  0
   21.4400  -24.4212  -15.6722 C   0  0  0  0  0  0  0  0  0  0  0  0
   21.8374  -23.3322  -15.1979 O   0  0  0  0  0  0  0  0  0  0  0  0
   20.4093  -24.4366  -16.6222 N   0  0  0  0  0  0  0  0  0  0  0  0
   19.6626  -23.2662  -17.0316 C   0  0  1  0  0  0  0  0  0  0  0  0
   18.8212  -23.6221  -18.2302 C   0  0  0  0  0  0  0  0  0  0  0  0
   18.0905  -22.5004  -18.8164 C   0  0  0  0  0  0  0  0  0  0  0  0
   18.6546  -21.4728  -19.5405 C   0  0  0  0  0  0  0  0  0  0  0  0
   17.6831  -20.6318  -19.9133 N   0  0  0  0  0  0  0  0  0  0  0  0
   16.5054  -21.1008  -19.4417 C   0  0  0  0  0  0  0  0  0  0  0  0
   15.2154  -20.6302  -19.5351 C   0  0  0  0  0  0  0  0  0  0  0  0
   14.1472  -21.3151  -18.9458 C   0  0  0  0  0  0  0  0  0  0  0  0
   14.4254  -22.4774  -18.2676 C   0  0  0  0  0  0  0  0  0  0  0  0
   15.7025  -22.9759  -18.1550 C   0  0  0  0  0  0  0  0  0  0  0  0
   16.7289  -22.2748  -18.7478 C   0  0  0  0  0  0  0  0  0  0  0  0
   18.8720  -22.6868  -15.9336 C   0  0  0  0  0  0  0  0  0  0  0  0
   18.7064  -21.3088  -15.9162 O   0  0  0  0  0  0  0  0  0  0  0  0
   18.3360  -23.3455  -15.0112 O   0  0  0  0  0  0  0  0  0  0  0  0
  2 12  2  0
  2  1  1  0
  3  2  1  0
  4  3  2  0
  5  4  1  0
  5 11  2  0
  6  5  1  0
  7  6  1  0
  7  9  1  0
  7  8  1  6
  9 10  2  0
 11 12  1  0
 13 14  1  0
 15 14  1  1
 16  9  1  0
 16 15  1  0
 17 15  1  0
 17 18  2  0
 19 17  1  0
 20 19  1  0
 20 21  1  6
 22 21  1  0
 22 30  1  0
 23 22  2  0
 24 23  1  0
 24 25  1  0
 25 26  1  0
 25 30  2  0
 26 27  2  0
 27 28  1  0
 29 28  2  0
 30 29  1  0
 31 32  1  0
 31 20  1  0
 33 31  2  0
M  END
$$$$
