YSW.pdb
     RDKit          3D

 33 35  0  0  1  0  0  0  0  0999 V2000
   24.9441  -15.1266  -24.2206 O   0  0  0  0  0  0  0  0  0  0  0  0
   24.4197  -13.9966  -23.6004 C   0  0  0  0  0  0  0  0  0  0  0  0
   23.9855  -14.0073  -22.2978 C   0  0  0  0  0  0  0  0  0  0  0  0
   23.4799  -12.8544  -21.7525 C   0  0  0  0  0  0  0  0  0  0  0  0
   23.3823  -11.6615  -22.4566 C   0  0  0  0  0  0  0  0  0  0  0  0
   22.8382  -10.4299  -21.8613 C   0  0  0  0  0  0  0  0  0  0  0  0
   21.3884  -10.5909  -21.4491 C   0  0  2  0  0  0  0  0  0  0  0  0
   20.6355  -10.7156  -22.7078 N   0  0  0  0  0  0  0  0  0  0  0  0
   20.8643   -9.4101  -20.7610 C   0  0  0  0  0  0  0  0  0  0  0  0
   20.1790   -8.5687  -21.4375 O   0  0  0  0  0  0  0  0  0  0  0  0
   23.8196  -11.6691  -23.7534 C   0  0  0  0  0  0  0  0  0  0  0  0
   24.3321  -12.8291  -24.3131 C   0  0  0  0  0  0  0  0  0  0  0  0
   18.3875   -8.9144  -18.0050 O   0  0  0  0  0  0  0  0  0  0  0  0
   18.9085   -7.9686  -18.8974 C   0  0  0  0  0  0  0  0  0  0  0  0
   20.4057   -7.9834  -18.7292 C   0  0  2  0  0  0  0  0  0  0  0  0
   21.0395   -9.0939  -19.3955 N   0  0  0  0  0  0  0  0  0  0  0  0
   20.8279   -7.8672  -17.3137 C   0  0  0  0  0  0  0  0  0  0  0  0
   20.7720   -8.8559  -16.5468 O   0  0  0  0  0  0  0  0  0  0  0  0
   21.2939   -6.6350  -16.8346 N   0  0  0  0  0  0  0  0  0  0  0  0
   21.7507   -6.4089  -15.4800 C   0  0  1  0  0  0  0  0  0  0  0  0
   23.1606   -5.8785  -15.5254 C   0  0  0  0  0  0  0  0  0  0  0  0
   24.1387   -6.7967  -16.1050 C   0  0  0  0  0  0  0  0  0  0  0  0
   24.9647   -6.5129  -17.1707 C   0  0  0  0  0  0  0  0  0  0  0  0
   25.7197   -7.5885  -17.4221 N   0  0  0  0  0  0  0  0  0  0  0  0
   25.3935   -8.5577  -16.5370 C   0  0  0  0  0  0  0  0  0  0  0  0
   25.8565   -9.8410  -16.3544 C   0  0  0  0  0  0  0  0  0  0  0  0
   25.3436  -10.6620  -15.3443 C   0  0  0  0  0  0  0  0  0  0  0  0
   24.3592  -10.1468  -14.5358 C   0  0  0  0  0  0  0  0  0  0  0  0
   23.8737   -8.8692  -14.6905 C   0  0  0  0  0  0  0  0  0  0  0  0
   24.4022   -8.0899  -15.6955 C   0  0  0  0  0  0  0  0  0  0  0  0
   20.8413   -5.5417  -14.7135 C   0  0  0  0  0  0  0  0  0  0  0  0
   20.9936   -5.5072  -13.3344 O   0  0  0  0  0  0  0  0  0  0  0  0
   19.9378   -4.8308  -15.2137 O   0  0  0  0  0  0  0  0  0  0  0  0
  2 12  2  0
  2  1  1  0
  3  2  1  0
  4  3  2  0
  5  4  1  0
  5 11  2  0
  6  5  1  0
  7  6  1  0
  7  9  1  0
  7  8  1  6
  9 10  2  0
 11 12  1  0
 13 14  1  0
 15 14  1  1
 16  9  1  0
 16 15  1  0
 17 15  1  0
 17 18  2  0
 19 17  1  0
 20 19  1  0
 20 21  1  6
 22 21  1  0
 22 30  1  0
 23 22  2  0
 24 23  1  0
 24 25  1  0
 25 26  1  0
 25 30  2  0
 26 27  2  0
 27 28  1  0
 29 28  2  0
 30 29  1  0
 31 32  1  0
 31 20  1  0
 33 31  2  0
M  END
$$$$
