VPS.pdb
     RDKit          3D

 21 21  0  0  1  0  0  0  0  0999 V2000
    3.5793  -18.5101   20.4069 C   0  0  0  0  0  0  0  0  0  0  0  0
    5.0009  -18.1198   20.7876 C   0  0  2  0  0  0  0  0  0  0  0  0
    4.8831  -17.1984   21.9807 C   0  0  0  0  0  0  0  0  0  0  0  0
    5.6804  -17.4226   19.5949 C   0  0  2  0  0  0  0  0  0  0  0  0
    5.5597  -18.2705   18.4987 N   0  0  0  0  0  0  0  0  0  0  0  0
    7.0007  -16.9079   19.9456 C   0  0  0  0  0  0  0  0  0  0  0  0
    7.9406  -17.7505   19.9868 O   0  0  0  0  0  0  0  0  0  0  0  0
    7.3160  -15.5328   20.2447 N   0  0  0  0  0  0  0  0  0  0  0  0
    6.4299  -14.4098   20.2100 C   0  0  0  0  0  0  0  0  0  0  0  0
    7.0770  -13.3621   21.0733 C   0  0  0  0  0  0  0  0  0  0  0  0
    8.5425  -13.5534   20.6477 C   0  0  0  0  0  0  0  0  0  0  0  0
    8.6276  -15.0609   20.6277 C   0  0  1  0  0  0  0  0  0  0  0  0
    9.0796  -15.6161   21.9200 C   0  0  0  0  0  0  0  0  0  0  0  0
    8.2784  -15.5553   22.8915 O   0  0  0  0  0  0  0  0  0  0  0  0
   11.4976  -18.5930   22.3377 O   0  0  0  0  0  0  0  0  0  0  0  0
   10.8369  -18.1419   23.4802 C   0  0  0  0  0  0  0  0  0  0  0  0
   10.7993  -16.6167   23.4796 C   0  0  2  0  0  0  0  0  0  0  0  0
   10.3386  -16.2159   22.1724 N   0  0  0  0  0  0  0  0  0  0  0  0
   12.1780  -16.1546   23.7619 C   0  0  0  0  0  0  0  0  0  0  0  0
   12.6972  -16.4687   25.0115 O   0  0  0  0  0  0  0  0  0  0  0  0
   12.8688  -15.5063   22.9276 O   0  0  0  0  0  0  0  0  0  0  0  0
  2  3  1  1
  2  1  1  0
  4  2  1  0
  4  5  1  6
  6  8  1  0
  6  4  1  0
  7  6  2  0
  8 12  1  0
  9 10  1  0
  9  8  1  0
 10 11  1  0
 11 12  1  0
 12 13  1  1
 13 18  1  0
 14 13  2  0
 16 15  1  0
 17 19  1  0
 17 16  1  6
 18 17  1  0
 19 20  1  0
 21 19  2  0
M  END
$$$$
