VPS.pdb
     RDKit          3D

 21 21  0  0  1  0  0  0  0  0999 V2000
    7.9023  -12.7860   27.1281 C   0  0  0  0  0  0  0  0  0  0  0  0
    7.0314  -12.3489   25.9583 C   0  0  2  0  0  0  0  0  0  0  0  0
    6.1560  -11.2297   26.4756 C   0  0  0  0  0  0  0  0  0  0  0  0
    6.1953  -13.5435   25.4641 C   0  0  2  0  0  0  0  0  0  0  0  0
    5.3856  -13.9452   26.5216 N   0  0  0  0  0  0  0  0  0  0  0  0
    7.0189  -14.5417   24.7887 C   0  0  0  0  0  0  0  0  0  0  0  0
    7.4195  -15.5108   25.4927 O   0  0  0  0  0  0  0  0  0  0  0  0
    7.4073  -14.5127   23.4001 N   0  0  0  0  0  0  0  0  0  0  0  0
    7.0093  -13.5645   22.4051 C   0  0  0  0  0  0  0  0  0  0  0  0
    8.0507  -13.6573   21.3240 C   0  0  0  0  0  0  0  0  0  0  0  0
    8.2519  -15.1819   21.2969 C   0  0  0  0  0  0  0  0  0  0  0  0
    8.2811  -15.4809   22.7767 C   0  0  1  0  0  0  0  0  0  0  0  0
    9.6510  -15.4533   23.3293 C   0  0  0  0  0  0  0  0  0  0  0  0
    9.9130  -14.5716   24.1914 O   0  0  0  0  0  0  0  0  0  0  0  0
   11.8435  -18.0444   25.9511 O   0  0  0  0  0  0  0  0  0  0  0  0
   10.9410  -17.5697   24.9995 C   0  0  0  0  0  0  0  0  0  0  0  0
   11.6977  -16.8201   23.9072 C   0  0  2  0  0  0  0  0  0  0  0  0
   10.7065  -16.3320   22.9794 N   0  0  0  0  0  0  0  0  0  0  0  0
   12.6268  -17.7922   23.2860 C   0  0  0  0  0  0  0  0  0  0  0  0
   13.8907  -17.8964   23.8528 O   0  0  0  0  0  0  0  0  0  0  0  0
   12.3121  -18.5029   22.2913 O   0  0  0  0  0  0  0  0  0  0  0  0
  2  3  1  1
  2  1  1  0
  4  2  1  0
  4  5  1  1
  6  8  1  0
  6  4  1  0
  7  6  2  0
  8 12  1  0
  9 10  1  0
  9  8  1  0
 10 11  1  0
 11 12  1  0
 12 13  1  1
 13 18  1  0
 14 13  2  0
 16 15  1  0
 17 19  1  0
 17 16  1  1
 18 17  1  0
 19 20  1  0
 21 19  2  0
M  END
$$$$
