VPS.pdb
     RDKit          3D

 21 21  0  0  1  0  0  0  0  0999 V2000
    7.4713  -16.2023   22.0546 C   0  0  0  0  0  0  0  0  0  0  0  0
    6.7672  -14.8527   22.0821 C   0  0  2  0  0  0  0  0  0  0  0  0
    6.0552  -14.7181   20.7548 C   0  0  0  0  0  0  0  0  0  0  0  0
    7.8053  -13.7343   22.2870 C   0  0  2  0  0  0  0  0  0  0  0  0
    8.6207  -13.7175   21.1600 N   0  0  0  0  0  0  0  0  0  0  0  0
    8.4274  -13.8044   23.6057 C   0  0  0  0  0  0  0  0  0  0  0  0
    9.5856  -14.3056   23.6560 O   0  0  0  0  0  0  0  0  0  0  0  0
    7.8352  -13.3531   24.8409 N   0  0  0  0  0  0  0  0  0  0  0  0
    6.5884  -12.6715   25.0098 C   0  0  0  0  0  0  0  0  0  0  0  0
    6.2022  -12.8931   26.4463 C   0  0  0  0  0  0  0  0  0  0  0  0
    7.5818  -12.7320   27.1069 C   0  0  0  0  0  0  0  0  0  0  0  0
    8.4402  -13.5164   26.1435 C   0  0  1  0  0  0  0  0  0  0  0  0
    8.5759  -14.9340   26.5368 C   0  0  0  0  0  0  0  0  0  0  0  0
    7.5631  -15.6733   26.4068 O   0  0  0  0  0  0  0  0  0  0  0  0
   11.0662  -18.9093   26.9879 O   0  0  0  0  0  0  0  0  0  0  0  0
   10.9140  -17.5745   26.6130 C   0  0  0  0  0  0  0  0  0  0  0  0
    9.8264  -16.9259   27.4639 C   0  0  2  0  0  0  0  0  0  0  0  0
    9.7467  -15.5462   27.0497 N   0  0  0  0  0  0  0  0  0  0  0  0
   10.2453  -17.0710   28.8773 C   0  0  0  0  0  0  0  0  0  0  0  0
   10.2495  -18.3592   29.3971 O   0  0  0  0  0  0  0  0  0  0  0  0
   10.5863  -16.0909   29.5960 O   0  0  0  0  0  0  0  0  0  0  0  0
  2  3  1  6
  2  1  1  0
  4  2  1  0
  4  5  1  6
  6  8  1  0
  6  4  1  0
  7  6  2  0
  8 12  1  0
  9 10  1  0
  9  8  1  0
 10 11  1  0
 11 12  1  0
 12 13  1  1
 13 18  1  0
 14 13  2  0
 16 15  1  0
 17 19  1  0
 17 16  1  6
 18 17  1  0
 19 20  1  0
 21 19  2  0
M  END
$$$$
