VPS.pdb
     RDKit          3D

 21 21  0  0  1  0  0  0  0  0999 V2000
    8.2256  -13.0929   27.2097 C   0  0  0  0  0  0  0  0  0  0  0  0
    7.2568  -12.5142   26.1878 C   0  0  2  0  0  0  0  0  0  0  0  0
    6.5286  -11.3866   26.8841 C   0  0  0  0  0  0  0  0  0  0  0  0
    6.2868  -13.6135   25.7177 C   0  0  2  0  0  0  0  0  0  0  0  0
    5.5934  -14.0581   26.8388 N   0  0  0  0  0  0  0  0  0  0  0  0
    6.9492  -14.5949   24.8639 C   0  0  0  0  0  0  0  0  0  0  0  0
    7.2150  -15.7114   25.3910 O   0  0  0  0  0  0  0  0  0  0  0  0
    7.3199  -14.3967   23.4843 N   0  0  0  0  0  0  0  0  0  0  0  0
    7.0092  -13.2744   22.6527 C   0  0  0  0  0  0  0  0  0  0  0  0
    8.0206  -13.3079   21.5402 C   0  0  0  0  0  0  0  0  0  0  0  0
    8.0622  -14.8235   21.2817 C   0  0  0  0  0  0  0  0  0  0  0  0
    8.0801  -15.3431   22.6994 C   0  0  1  0  0  0  0  0  0  0  0  0
    9.4526  -15.5368   23.2103 C   0  0  0  0  0  0  0  0  0  0  0  0
   10.0733  -14.5160   23.6127 O   0  0  0  0  0  0  0  0  0  0  0  0
   10.6034  -19.0267   24.4613 O   0  0  0  0  0  0  0  0  0  0  0  0
   11.4485  -17.9929   24.8644 C   0  0  0  0  0  0  0  0  0  0  0  0
   11.4916  -16.9174   23.7832 C   0  0  2  0  0  0  0  0  0  0  0  0
   10.1428  -16.7721   23.2920 N   0  0  0  0  0  0  0  0  0  0  0  0
   12.4271  -17.3969   22.7396 C   0  0  0  0  0  0  0  0  0  0  0  0
   11.9035  -17.5693   21.4646 O   0  0  0  0  0  0  0  0  0  0  0  0
   13.6434  -17.6442   22.9697 O   0  0  0  0  0  0  0  0  0  0  0  0
  2  3  1  1
  2  1  1  0
  4  2  1  0
  4  5  1  1
  6  8  1  0
  6  4  1  0
  7  6  2  0
  8 12  1  0
  9 10  1  0
  9  8  1  0
 10 11  1  0
 11 12  1  0
 12 13  1  1
 13 18  1  0
 14 13  2  0
 16 15  1  0
 17 19  1  0
 17 16  1  1
 18 17  1  0
 19 20  1  0
 21 19  2  0
M  END
$$$$
