VPS.pdb
     RDKit          3D

 21 21  0  0  1  0  0  0  0  0999 V2000
    8.3369  -17.7624   22.1187 C   0  0  0  0  0  0  0  0  0  0  0  0
    7.1238  -16.9101   21.7722 C   0  0  2  0  0  0  0  0  0  0  0  0
    5.9276  -17.6068   22.3808 C   0  0  0  0  0  0  0  0  0  0  0  0
    6.9968  -16.7930   20.2423 C   0  0  2  0  0  0  0  0  0  0  0  0
    6.6965  -18.0611   19.7556 N   0  0  0  0  0  0  0  0  0  0  0  0
    8.1163  -16.0609   19.6579 C   0  0  0  0  0  0  0  0  0  0  0  0
    9.0840  -16.7545   19.2365 O   0  0  0  0  0  0  0  0  0  0  0  0
    8.2065  -14.6278   19.5232 N   0  0  0  0  0  0  0  0  0  0  0  0
    7.1863  -13.6625   19.7969 C   0  0  0  0  0  0  0  0  0  0  0  0
    7.9112  -12.3609   20.0022 C   0  0  0  0  0  0  0  0  0  0  0  0
    8.9678  -12.4818   18.8911 C   0  0  0  0  0  0  0  0  0  0  0  0
    9.3819  -13.9238   19.0623 C   0  0  1  0  0  0  0  0  0  0  0  0
   10.5327  -14.0739   19.9763 C   0  0  0  0  0  0  0  0  0  0  0  0
   10.2907  -14.1305   21.2122 O   0  0  0  0  0  0  0  0  0  0  0  0
   13.7026  -16.4923   21.6769 O   0  0  0  0  0  0  0  0  0  0  0  0
   12.6628  -16.0078   20.8836 C   0  0  0  0  0  0  0  0  0  0  0  0
   12.9617  -14.5694   20.4724 C   0  0  2  0  0  0  0  0  0  0  0  0
   11.8940  -14.1617   19.5917 N   0  0  0  0  0  0  0  0  0  0  0  0
   14.2803  -14.5824   19.7977 C   0  0  0  0  0  0  0  0  0  0  0  0
   14.2771  -14.4084   18.4195 O   0  0  0  0  0  0  0  0  0  0  0  0
   15.3675  -14.7415   20.4191 O   0  0  0  0  0  0  0  0  0  0  0  0
  2  3  1  6
  2  1  1  0
  4  2  1  0
  4  5  1  6
  6  8  1  0
  6  4  1  0
  7  6  2  0
  8 12  1  0
  9 10  1  0
  9  8  1  0
 10 11  1  0
 11 12  1  0
 12 13  1  1
 13 18  1  0
 14 13  2  0
 16 15  1  0
 17 19  1  0
 17 16  1  6
 18 17  1  0
 19 20  1  0
 21 19  2  0
M  END
$$$$
