VPS.pdb
     RDKit          3D

 21 21  0  0  1  0  0  0  0  0999 V2000
    7.9984  -13.1877   27.2184 C   0  0  0  0  0  0  0  0  0  0  0  0
    7.1523  -12.6303   26.0820 C   0  0  2  0  0  0  0  0  0  0  0  0
    6.3360  -11.5034   26.6737 C   0  0  0  0  0  0  0  0  0  0  0  0
    6.2554  -13.7449   25.5131 C   0  0  2  0  0  0  0  0  0  0  0  0
    5.4821  -14.2280   26.5637 N   0  0  0  0  0  0  0  0  0  0  0  0
    7.0138  -14.6929   24.7025 C   0  0  0  0  0  0  0  0  0  0  0  0
    7.3431  -15.7757   25.2631 O   0  0  0  0  0  0  0  0  0  0  0  0
    7.4124  -14.4971   23.3304 N   0  0  0  0  0  0  0  0  0  0  0  0
    7.1949  -13.3393   22.5181 C   0  0  0  0  0  0  0  0  0  0  0  0
    8.2125  -13.4274   21.4143 C   0  0  0  0  0  0  0  0  0  0  0  0
    8.1436  -14.9368   21.1266 C   0  0  0  0  0  0  0  0  0  0  0  0
    8.1081  -15.4827   22.5340 C   0  0  1  0  0  0  0  0  0  0  0  0
    9.4570  -15.7881   23.0532 C   0  0  0  0  0  0  0  0  0  0  0  0
   10.1286  -14.8319   23.5264 O   0  0  0  0  0  0  0  0  0  0  0  0
   10.4899  -19.4822   23.7379 O   0  0  0  0  0  0  0  0  0  0  0  0
   11.4245  -18.6028   24.2842 C   0  0  0  0  0  0  0  0  0  0  0  0
   11.4336  -17.3046   23.4828 C   0  0  2  0  0  0  0  0  0  0  0  0
   10.0720  -17.0649   23.0703 N   0  0  0  0  0  0  0  0  0  0  0  0
   12.3455  -17.5168   22.3349 C   0  0  0  0  0  0  0  0  0  0  0  0
   13.6889  -17.7069   22.6327 O   0  0  0  0  0  0  0  0  0  0  0  0
   11.9488  -17.5290   21.1365 O   0  0  0  0  0  0  0  0  0  0  0  0
  2  3  1  1
  2  1  1  0
  4  2  1  0
  4  5  1  1
  6  8  1  0
  6  4  1  0
  7  6  2  0
  8 12  1  0
  9 10  1  0
  9  8  1  0
 10 11  1  0
 11 12  1  0
 12 13  1  1
 13 18  1  0
 14 13  2  0
 16 15  1  0
 17 19  1  0
 17 16  1  1
 18 17  1  0
 19 20  1  0
 21 19  2  0
M  END
$$$$
