VPS.pdb
     RDKit          3D

 21 21  0  0  1  0  0  0  0  0999 V2000
    7.9735  -11.8095   25.2450 C   0  0  0  0  0  0  0  0  0  0  0  0
    6.9583  -12.3315   26.2524 C   0  0  2  0  0  0  0  0  0  0  0  0
    7.7565  -12.8933   27.4073 C   0  0  0  0  0  0  0  0  0  0  0  0
    6.0816  -13.4092   25.5888 C   0  0  2  0  0  0  0  0  0  0  0  0
    5.1248  -13.7942   26.5224 N   0  0  0  0  0  0  0  0  0  0  0  0
    6.8852  -14.4392   24.9376 C   0  0  0  0  0  0  0  0  0  0  0  0
    7.2002  -15.4378   25.6439 O   0  0  0  0  0  0  0  0  0  0  0  0
    7.3428  -14.4108   23.5702 N   0  0  0  0  0  0  0  0  0  0  0  0
    7.0850  -13.4033   22.5874 C   0  0  0  0  0  0  0  0  0  0  0  0
    8.1652  -13.5662   21.5538 C   0  0  0  0  0  0  0  0  0  0  0  0
    8.2239  -15.1017   21.4891 C   0  0  0  0  0  0  0  0  0  0  0  0
    8.1519  -15.4410   22.9588 C   0  0  1  0  0  0  0  0  0  0  0  0
    9.4892  -15.5582   23.5754 C   0  0  0  0  0  0  0  0  0  0  0  0
   10.0952  -14.4895   23.8584 O   0  0  0  0  0  0  0  0  0  0  0  0
   10.7273  -19.0166   25.0342 O   0  0  0  0  0  0  0  0  0  0  0  0
   11.4760  -17.9314   25.4892 C   0  0  0  0  0  0  0  0  0  0  0  0
   11.4962  -16.8414   24.4220 C   0  0  2  0  0  0  0  0  0  0  0  0
   10.1604  -16.7683   23.8817 N   0  0  0  0  0  0  0  0  0  0  0  0
   12.4963  -17.2522   23.4096 C   0  0  0  0  0  0  0  0  0  0  0  0
   12.0067  -17.6156   22.1614 O   0  0  0  0  0  0  0  0  0  0  0  0
   13.7368  -17.2800   23.6422 O   0  0  0  0  0  0  0  0  0  0  0  0
  2  3  1  1
  2  1  1  0
  4  2  1  0
  4  5  1  1
  6  8  1  0
  6  4  1  0
  7  6  2  0
  8 12  1  0
  9 10  1  0
  9  8  1  0
 10 11  1  0
 11 12  1  0
 12 13  1  1
 13 18  1  0
 14 13  2  0
 16 15  1  0
 17 19  1  0
 17 16  1  1
 18 17  1  0
 19 20  1  0
 21 19  2  0
M  END
$$$$
