VPS.pdb
     RDKit          3D

 21 21  0  0  1  0  0  0  0  0999 V2000
    8.8615  -19.7146   26.6624 C   0  0  0  0  0  0  0  0  0  0  0  0
    7.7313  -18.7401   26.9643 C   0  0  2  0  0  0  0  0  0  0  0  0
    6.9713  -19.3208   28.1354 C   0  0  0  0  0  0  0  0  0  0  0  0
    6.8347  -18.5905   25.7217 C   0  0  2  0  0  0  0  0  0  0  0  0
    6.2534  -19.8312   25.4813 N   0  0  0  0  0  0  0  0  0  0  0  0
    7.5270  -17.9132   24.6295 C   0  0  0  0  0  0  0  0  0  0  0  0
    7.9514  -18.6455   23.6920 O   0  0  0  0  0  0  0  0  0  0  0  0
    7.7628  -16.4937   24.5340 N   0  0  0  0  0  0  0  0  0  0  0  0
    7.2246  -15.4643   25.3697 C   0  0  0  0  0  0  0  0  0  0  0  0
    8.1466  -14.2883   25.2009 C   0  0  0  0  0  0  0  0  0  0  0  0
    8.4016  -14.3820   23.6871 C   0  0  0  0  0  0  0  0  0  0  0  0
    8.6008  -15.8710   23.5342 C   0  0  1  0  0  0  0  0  0  0  0  0
   10.0200  -16.2638   23.6531 C   0  0  0  0  0  0  0  0  0  0  0  0
   10.4548  -16.5323   24.8056 O   0  0  0  0  0  0  0  0  0  0  0  0
   11.8513  -18.0612   20.6924 O   0  0  0  0  0  0  0  0  0  0  0  0
   12.7713  -17.2171   21.3140 C   0  0  0  0  0  0  0  0  0  0  0  0
   12.2874  -16.8823   22.7215 C   0  0  2  0  0  0  0  0  0  0  0  0
   10.9459  -16.3688   22.5853 N   0  0  0  0  0  0  0  0  0  0  0  0
   13.2271  -15.8769   23.2693 C   0  0  0  0  0  0  0  0  0  0  0  0
   12.7266  -14.5955   23.4616 O   0  0  0  0  0  0  0  0  0  0  0  0
   14.4273  -16.1437   23.5557 O   0  0  0  0  0  0  0  0  0  0  0  0
  2  3  1  1
  2  1  1  0
  4  2  1  0
  4  5  1  6
  6  8  1  0
  6  4  1  0
  7  6  2  0
  8 12  1  0
  9 10  1  0
  9  8  1  0
 10 11  1  0
 11 12  1  0
 12 13  1  1
 13 18  1  0
 14 13  2  0
 16 15  1  0
 17 19  1  0
 17 16  1  6
 18 17  1  0
 19 20  1  0
 21 19  2  0
M  END
$$$$
