ALY.pdb
     RDKit          3D

 26 26  0  0  1  0  0  0  0  0999 V2000
    8.2056  -19.0415   18.6397 C   0  0  0  0  0  0  0  0  0  0  0  0
    8.5697  -18.7996   20.0990 C   0  0  2  0  0  0  0  0  0  0  0  0
    7.3657  -18.6821   20.8923 N   0  0  0  0  0  0  0  0  0  0  0  0
    9.2961  -17.5107   20.1690 C   0  0  0  0  0  0  0  0  0  0  0  0
   10.4303  -17.4750   19.5882 O   0  0  0  0  0  0  0  0  0  0  0  0
    8.4818  -13.3434   18.5851 C   0  0  0  0  0  0  0  0  0  0  0  0
    7.6324  -13.8256   19.7796 C   0  0  2  0  0  0  0  0  0  0  0  0
    6.5219  -12.8563   19.9432 C   0  0  0  0  0  0  0  0  0  0  0  0
    8.4853  -14.0542   20.9526 C   0  0  0  0  0  0  0  0  0  0  0  0
    9.4987  -15.1377   20.9075 C   0  0  2  0  0  0  0  0  0  0  0  0
    8.7388  -16.4048   20.8465 N   0  0  0  0  0  0  0  0  0  0  0  0
   10.3262  -15.2516   22.1360 C   0  0  0  0  0  0  0  0  0  0  0  0
   11.3438  -14.4951   22.3378 O   0  0  0  0  0  0  0  0  0  0  0  0
   10.8638  -14.8965   30.8171 O   0  0  0  0  0  0  0  0  0  0  0  0
   10.4870  -15.0911   29.4914 C   0  0  0  0  0  0  0  0  0  0  0  0
   10.3392  -16.3568   29.0125 C   0  0  0  0  0  0  0  0  0  0  0  0
    9.9658  -16.5703   27.6996 C   0  0  0  0  0  0  0  0  0  0  0  0
    9.7398  -15.5239   26.8637 C   0  0  0  0  0  0  0  0  0  0  0  0
    9.3476  -15.7042   25.4526 C   0  0  0  0  0  0  0  0  0  0  0  0
   10.5298  -15.9079   24.5611 C   0  0  2  0  0  0  0  0  0  0  0  0
   10.0946  -16.1692   23.1849 N   0  0  0  0  0  0  0  0  0  0  0  0
   11.3719  -17.0546   24.9676 C   0  0  0  0  0  0  0  0  0  0  0  0
   12.4405  -16.9309   25.8586 O   0  0  0  0  0  0  0  0  0  0  0  0
    9.8905  -14.2269   27.3524 C   0  0  0  0  0  0  0  0  0  0  0  0
   10.2597  -14.0277   28.6516 C   0  0  0  0  0  0  0  0  0  0  0  0
   11.1732  -18.2361   24.5245 O   0  0  0  0  0  0  0  0  0  0  0  0
  2  3  1  0
  2  1  1  6
  4  2  1  0
  5  4  2  0
  7  6  1  6
  7  8  1  0
  9  7  1  0
 10  9  1  1
 10 11  1  0
 11  4  1  0
 12 21  1  0
 12 10  1  0
 13 12  2  0
 15 14  1  0
 16 15  2  0
 17 16  1  0
 18 17  2  0
 18 24  1  0
 19 18  1  0
 20 19  1  1
 20 22  1  0
 20 21  1  0
 22 23  1  0
 24 25  2  0
 25 15  1  0
 26 22  2  0
M  END
$$$$
