ALY.pdb
     RDKit          3D

 26 26  0  0  1  0  0  0  0  0999 V2000
    7.2827  -16.6114   19.8566 C   0  0  0  0  0  0  0  0  0  0  0  0
    7.9958  -16.9506   21.1592 C   0  0  2  0  0  0  0  0  0  0  0  0
    7.1208  -17.7277   22.0098 N   0  0  0  0  0  0  0  0  0  0  0  0
    8.2953  -15.6743   21.8484 C   0  0  0  0  0  0  0  0  0  0  0  0
    9.1722  -14.9320   21.2960 O   0  0  0  0  0  0  0  0  0  0  0  0
    5.5897  -12.6358   26.4376 C   0  0  0  0  0  0  0  0  0  0  0  0
    6.8362  -12.6452   25.5282 C   0  0  2  0  0  0  0  0  0  0  0  0
    6.9989  -11.2692   24.9990 C   0  0  0  0  0  0  0  0  0  0  0  0
    6.7368  -13.7243   24.5378 C   0  0  0  0  0  0  0  0  0  0  0  0
    7.9035  -14.0145   23.6675 C   0  0  2  0  0  0  0  0  0  0  0  0
    7.6319  -15.3282   23.0453 N   0  0  0  0  0  0  0  0  0  0  0  0
    9.1817  -14.2006   24.4014 C   0  0  0  0  0  0  0  0  0  0  0  0
    9.8142  -13.2103   24.9190 O   0  0  0  0  0  0  0  0  0  0  0  0
   12.3185  -17.0335   31.7913 O   0  0  0  0  0  0  0  0  0  0  0  0
   11.6479  -16.7962   30.5949 C   0  0  0  0  0  0  0  0  0  0  0  0
   11.1714  -17.8458   29.8707 C   0  0  0  0  0  0  0  0  0  0  0  0
   10.5033  -17.6305   28.6808 C   0  0  0  0  0  0  0  0  0  0  0  0
   10.3098  -16.3704   28.2119 C   0  0  0  0  0  0  0  0  0  0  0  0
    9.6097  -16.0934   26.9428 C   0  0  0  0  0  0  0  0  0  0  0  0
   10.5576  -15.7460   25.8408 C   0  0  2  0  0  0  0  0  0  0  0  0
    9.8218  -15.4428   24.6086 N   0  0  0  0  0  0  0  0  0  0  0  0
   11.4980  -16.8418   25.5178 C   0  0  0  0  0  0  0  0  0  0  0  0
   11.2533  -17.7770   24.5095 O   0  0  0  0  0  0  0  0  0  0  0  0
   10.7970  -15.2942   28.9523 C   0  0  0  0  0  0  0  0  0  0  0  0
   11.4557  -15.5187   30.1269 C   0  0  0  0  0  0  0  0  0  0  0  0
   12.5985  -17.0020   26.1464 O   0  0  0  0  0  0  0  0  0  0  0  0
  2  3  1  0
  2  1  1  6
  4  2  1  0
  5  4  2  0
  7  6  1  6
  7  8  1  0
  9  7  1  0
 10  9  1  1
 10 11  1  0
 11  4  1  0
 12 21  1  0
 12 10  1  0
 13 12  2  0
 15 14  1  0
 16 15  2  0
 17 16  1  0
 18 17  2  0
 18 24  1  0
 19 18  1  0
 20 19  1  1
 20 22  1  0
 20 21  1  0
 22 23  1  0
 24 25  2  0
 25 15  1  0
 26 22  2  0
M  END
$$$$
