ALY.pdb
     RDKit          3D

 26 26  0  0  1  0  0  0  0  0999 V2000
    8.5973  -19.1438   18.6035 C   0  0  0  0  0  0  0  0  0  0  0  0
    8.9606  -18.9014   20.0629 C   0  0  2  0  0  0  0  0  0  0  0  0
    7.7622  -18.8996   20.8732 N   0  0  0  0  0  0  0  0  0  0  0  0
    9.5791  -17.5585   20.1507 C   0  0  0  0  0  0  0  0  0  0  0  0
   10.7404  -17.4423   19.6379 O   0  0  0  0  0  0  0  0  0  0  0  0
    8.5821  -13.3320   18.4931 C   0  0  0  0  0  0  0  0  0  0  0  0
    7.6852  -13.9721   19.5733 C   0  0  2  0  0  0  0  0  0  0  0  0
    6.4580  -13.1444   19.6662 C   0  0  0  0  0  0  0  0  0  0  0  0
    8.4433  -14.1677   20.8153 C   0  0  0  0  0  0  0  0  0  0  0  0
    9.5449  -15.1621   20.8390 C   0  0  2  0  0  0  0  0  0  0  0  0
    8.8974  -16.4899   20.7720 N   0  0  0  0  0  0  0  0  0  0  0  0
   10.3214  -15.1834   22.1053 C   0  0  0  0  0  0  0  0  0  0  0  0
   11.2442  -14.3238   22.3466 O   0  0  0  0  0  0  0  0  0  0  0  0
   10.7805  -14.8522   30.7949 O   0  0  0  0  0  0  0  0  0  0  0  0
   10.4251  -15.0454   29.4631 C   0  0  0  0  0  0  0  0  0  0  0  0
   10.2636  -16.3102   28.9862 C   0  0  0  0  0  0  0  0  0  0  0  0
    9.9110  -16.5222   27.6673 C   0  0  0  0  0  0  0  0  0  0  0  0
    9.7196  -15.4752   26.8234 C   0  0  0  0  0  0  0  0  0  0  0  0
    9.3508  -15.6541   25.4058 C   0  0  0  0  0  0  0  0  0  0  0  0
   10.5489  -15.8322   24.5303 C   0  0  2  0  0  0  0  0  0  0  0  0
   10.1379  -16.1154   23.1510 N   0  0  0  0  0  0  0  0  0  0  0  0
   11.4167  -16.9526   24.9557 C   0  0  0  0  0  0  0  0  0  0  0  0
   11.2310  -18.2644   24.5132 O   0  0  0  0  0  0  0  0  0  0  0  0
    9.8845  -14.1792   27.3100 C   0  0  0  0  0  0  0  0  0  0  0  0
   10.2329  -13.9814   28.6152 C   0  0  0  0  0  0  0  0  0  0  0  0
   12.3950  -16.7884   25.7605 O   0  0  0  0  0  0  0  0  0  0  0  0
  2  3  1  0
  2  1  1  6
  4  2  1  0
  5  4  2  0
  7  6  1  6
  7  8  1  0
  9  7  1  0
 10  9  1  1
 10 11  1  0
 11  4  1  0
 12 21  1  0
 12 10  1  0
 13 12  2  0
 15 14  1  0
 16 15  2  0
 17 16  1  0
 18 17  2  0
 18 24  1  0
 19 18  1  0
 20 19  1  1
 20 22  1  0
 20 21  1  0
 22 23  1  0
 24 25  2  0
 25 15  1  0
 26 22  2  0
M  END
$$$$
