ALY.pdb
     RDKit          3D

 26 26  0  0  1  0  0  0  0  0999 V2000
   13.9479  -17.3450   18.3929 C   0  0  0  0  0  0  0  0  0  0  0  0
   13.4991  -16.2361   17.4498 C   0  0  2  0  0  0  0  0  0  0  0  0
   14.6540  -15.6074   16.8467 N   0  0  0  0  0  0  0  0  0  0  0  0
   12.7919  -15.2196   18.2623 C   0  0  0  0  0  0  0  0  0  0  0  0
   13.5175  -14.2980   18.7615 O   0  0  0  0  0  0  0  0  0  0  0  0
    8.3707  -13.1442   20.7318 C   0  0  0  0  0  0  0  0  0  0  0  0
    8.4584  -13.0765   19.1927 C   0  0  2  0  0  0  0  0  0  0  0  0
    7.0677  -13.0774   18.6773 C   0  0  0  0  0  0  0  0  0  0  0  0
    9.3494  -14.1277   18.6861 C   0  0  0  0  0  0  0  0  0  0  0  0
   10.7187  -14.2447   19.2465 C   0  0  2  0  0  0  0  0  0  0  0  0
   11.3955  -15.2941   18.4545 N   0  0  0  0  0  0  0  0  0  0  0  0
   10.7653  -14.7385   20.6469 C   0  0  0  0  0  0  0  0  0  0  0  0
   10.3786  -14.0125   21.6327 O   0  0  0  0  0  0  0  0  0  0  0  0
    5.2306  -17.5453   20.0791 O   0  0  0  0  0  0  0  0  0  0  0  0
    6.4966  -17.6164   20.6531 C   0  0  0  0  0  0  0  0  0  0  0  0
    7.5359  -18.1178   19.9308 C   0  0  0  0  0  0  0  0  0  0  0  0
    8.7998  -18.1964   20.4831 C   0  0  0  0  0  0  0  0  0  0  0  0
    9.0288  -17.7762   21.7543 C   0  0  0  0  0  0  0  0  0  0  0  0
   10.3596  -17.8488   22.3878 C   0  0  0  0  0  0  0  0  0  0  0  0
   11.0483  -16.5225   22.4050 C   0  0  2  0  0  0  0  0  0  0  0  0
   11.2209  -16.0171   21.0388 N   0  0  0  0  0  0  0  0  0  0  0  0
   12.3959  -16.5765   23.0135 C   0  0  0  0  0  0  0  0  0  0  0  0
   13.5496  -16.1761   22.3353 O   0  0  0  0  0  0  0  0  0  0  0  0
    7.9657  -17.2622   22.4955 C   0  0  0  0  0  0  0  0  0  0  0  0
    6.7209  -17.1891   21.9395 C   0  0  0  0  0  0  0  0  0  0  0  0
   12.5889  -16.9970   24.2042 O   0  0  0  0  0  0  0  0  0  0  0  0
  2  3  1  0
  2  1  1  1
  4  2  1  0
  5  4  2  0
  7  6  1  1
  7  8  1  0
  9  7  1  0
 10  9  1  6
 10 11  1  0
 11  4  1  0
 12 21  1  0
 12 10  1  0
 13 12  2  0
 15 14  1  0
 16 15  2  0
 17 16  1  0
 18 17  2  0
 18 24  1  0
 19 18  1  0
 20 19  1  6
 20 22  1  0
 20 21  1  0
 22 23  1  0
 24 25  2  0
 25 15  1  0
 26 22  2  0
M  END
$$$$
