ALY.pdb
     RDKit          3D

 26 26  0  0  1  0  0  0  0  0999 V2000
    6.8623  -16.8420   20.2260 C   0  0  0  0  0  0  0  0  0  0  0  0
    6.6310  -15.3507   20.4337 C   0  0  2  0  0  0  0  0  0  0  0  0
    6.9010  -14.6364   19.2050 N   0  0  0  0  0  0  0  0  0  0  0  0
    7.5962  -14.8888   21.4578 C   0  0  0  0  0  0  0  0  0  0  0  0
    8.7791  -14.6521   21.0459 O   0  0  0  0  0  0  0  0  0  0  0  0
    7.1530  -11.4672   24.6786 C   0  0  0  0  0  0  0  0  0  0  0  0
    6.4339  -12.8046   24.9529 C   0  0  2  0  0  0  0  0  0  0  0  0
    5.5841  -12.6037   26.1518 C   0  0  0  0  0  0  0  0  0  0  0  0
    7.4057  -13.9035   25.0111 C   0  0  0  0  0  0  0  0  0  0  0  0
    8.1836  -14.2437   23.7936 C   0  0  2  0  0  0  0  0  0  0  0  0
    7.1992  -14.7298   22.8030 N   0  0  0  0  0  0  0  0  0  0  0  0
    9.1317  -15.3737   23.9706 C   0  0  0  0  0  0  0  0  0  0  0  0
    8.7586  -16.5954   23.8417 O   0  0  0  0  0  0  0  0  0  0  0  0
   11.6573  -16.8004   31.8119 O   0  0  0  0  0  0  0  0  0  0  0  0
   11.2537  -16.4059   30.5396 C   0  0  0  0  0  0  0  0  0  0  0  0
   11.3724  -15.1011   30.1702 C   0  0  0  0  0  0  0  0  0  0  0  0
   10.9774  -14.6902   28.9117 C   0  0  0  0  0  0  0  0  0  0  0  0
   10.4640  -15.5783   28.0213 C   0  0  0  0  0  0  0  0  0  0  0  0
   10.0215  -15.1834   26.6701 C   0  0  0  0  0  0  0  0  0  0  0  0
   11.0285  -15.5341   25.6228 C   0  0  2  0  0  0  0  0  0  0  0  0
   10.5020  -15.2377   24.2862 N   0  0  0  0  0  0  0  0  0  0  0  0
   11.3962  -16.9673   25.6287 C   0  0  0  0  0  0  0  0  0  0  0  0
   12.5447  -17.4517   26.2592 O   0  0  0  0  0  0  0  0  0  0  0  0
   10.3418  -16.9151   28.3978 C   0  0  0  0  0  0  0  0  0  0  0  0
   10.7355  -17.3100   29.6440 C   0  0  0  0  0  0  0  0  0  0  0  0
   10.6820  -17.8558   25.0523 O   0  0  0  0  0  0  0  0  0  0  0  0
  2  3  1  0
  2  1  1  6
  4  2  1  0
  5  4  2  0
  7  6  1  1
  7  8  1  0
  9  7  1  0
 10  9  1  1
 10 11  1  0
 11  4  1  0
 12 21  1  0
 12 10  1  0
 13 12  2  0
 15 14  1  0
 16 15  2  0
 17 16  1  0
 18 17  2  0
 18 24  1  0
 19 18  1  0
 20 19  1  1
 20 22  1  0
 20 21  1  0
 22 23  1  0
 24 25  2  0
 25 15  1  0
 26 22  2  0
M  END
$$$$
