ALY.pdb
     RDKit          3D

 26 26  0  0  1  0  0  0  0  0999 V2000
    9.3441  -19.0746   17.1492 C   0  0  0  0  0  0  0  0  0  0  0  0
    9.0973  -17.5913   16.9055 C   0  0  2  0  0  0  0  0  0  0  0  0
    9.8219  -17.1598   15.7301 N   0  0  0  0  0  0  0  0  0  0  0  0
    9.6309  -16.8532   18.0735 C   0  0  0  0  0  0  0  0  0  0  0  0
   10.8797  -16.5982   18.0518 O   0  0  0  0  0  0  0  0  0  0  0  0
    8.8770  -12.8286   18.9717 C   0  0  0  0  0  0  0  0  0  0  0  0
    7.7839  -13.7968   19.4704 C   0  0  2  0  0  0  0  0  0  0  0  0
    6.5860  -12.9787   19.7789 C   0  0  0  0  0  0  0  0  0  0  0  0
    8.3043  -14.6381   20.5553 C   0  0  0  0  0  0  0  0  0  0  0  0
    9.3318  -15.6629   20.2440 C   0  0  2  0  0  0  0  0  0  0  0  0
    8.7811  -16.4685   19.1329 N   0  0  0  0  0  0  0  0  0  0  0  0
    9.5709  -16.6399   21.3373 C   0  0  0  0  0  0  0  0  0  0  0  0
    8.6357  -16.9963   22.1416 O   0  0  0  0  0  0  0  0  0  0  0  0
   15.7045  -14.5328   17.8800 O   0  0  0  0  0  0  0  0  0  0  0  0
   14.7912  -14.6966   18.9174 C   0  0  0  0  0  0  0  0  0  0  0  0
   15.1629  -15.3681   20.0417 C   0  0  0  0  0  0  0  0  0  0  0  0
   14.2706  -15.5410   21.0822 C   0  0  0  0  0  0  0  0  0  0  0  0
   13.0083  -15.0456   21.0031 C   0  0  0  0  0  0  0  0  0  0  0  0
   12.0194  -15.2133   22.0855 C   0  0  0  0  0  0  0  0  0  0  0  0
   11.8291  -16.6484   22.4571 C   0  0  2  0  0  0  0  0  0  0  0  0
   10.8081  -17.2672   21.6050 N   0  0  0  0  0  0  0  0  0  0  0  0
   11.3851  -16.8310   23.8567 C   0  0  0  0  0  0  0  0  0  0  0  0
   11.7945  -17.9080   24.6464 O   0  0  0  0  0  0  0  0  0  0  0  0
   12.6258  -14.3576   19.8524 C   0  0  0  0  0  0  0  0  0  0  0  0
   13.5159  -14.1926   18.8305 C   0  0  0  0  0  0  0  0  0  0  0  0
   10.5935  -16.0103   24.4325 O   0  0  0  0  0  0  0  0  0  0  0  0
  2  3  1  0
  2  1  1  1
  4  2  1  0
  5  4  2  0
  7  6  1  1
  7  8  1  0
  9  7  1  0
 10  9  1  1
 10 11  1  0
 11  4  1  0
 12 21  1  0
 12 10  1  0
 13 12  2  0
 15 14  1  0
 16 15  2  0
 17 16  1  0
 18 17  2  0
 18 24  1  0
 19 18  1  0
 20 19  1  6
 20 22  1  0
 20 21  1  0
 22 23  1  0
 24 25  2  0
 25 15  1  0
 26 22  2  0
M  END
$$$$
