ALY.pdb
     RDKit          3D

 26 26  0  0  1  0  0  0  0  0999 V2000
    9.4858  -19.8218   20.9262 C   0  0  0  0  0  0  0  0  0  0  0  0
    8.9073  -18.8659   19.8908 C   0  0  2  0  0  0  0  0  0  0  0  0
    9.2676  -19.3064   18.5608 N   0  0  0  0  0  0  0  0  0  0  0  0
    9.5212  -17.5374   20.1192 C   0  0  0  0  0  0  0  0  0  0  0  0
   10.6855  -17.3670   19.6291 O   0  0  0  0  0  0  0  0  0  0  0  0
    8.2694  -13.1861   19.0810 C   0  0  0  0  0  0  0  0  0  0  0  0
    7.4754  -13.8924   20.1998 C   0  0  2  0  0  0  0  0  0  0  0  0
    6.3289  -13.0152   20.5399 C   0  0  0  0  0  0  0  0  0  0  0  0
    8.3699  -14.2646   21.3029 C   0  0  0  0  0  0  0  0  0  0  0  0
    9.4737  -15.2226   21.0447 C   0  0  2  0  0  0  0  0  0  0  0  0
    8.8321  -16.5392   20.8412 N   0  0  0  0  0  0  0  0  0  0  0  0
   10.3908  -15.4226   22.1963 C   0  0  0  0  0  0  0  0  0  0  0  0
   11.3582  -14.6138   22.4382 O   0  0  0  0  0  0  0  0  0  0  0  0
   10.6933  -14.8545   30.7201 O   0  0  0  0  0  0  0  0  0  0  0  0
   10.3868  -15.0924   29.3833 C   0  0  0  0  0  0  0  0  0  0  0  0
   10.2579  -16.3729   28.9399 C   0  0  0  0  0  0  0  0  0  0  0  0
    9.9541  -16.6292   27.6167 C   0  0  0  0  0  0  0  0  0  0  0  0
    9.7790  -15.6107   26.7353 C   0  0  0  0  0  0  0  0  0  0  0  0
    9.4619  -15.8370   25.3120 C   0  0  0  0  0  0  0  0  0  0  0  0
   10.6489  -16.3146   24.5396 C   0  0  2  0  0  0  0  0  0  0  0  0
   10.3044  -16.4846   23.1239 N   0  0  0  0  0  0  0  0  0  0  0  0
   11.1628  -17.6187   25.0134 C   0  0  0  0  0  0  0  0  0  0  0  0
   10.5074  -18.8267   24.7638 O   0  0  0  0  0  0  0  0  0  0  0  0
    9.9105  -14.2985   27.1876 C   0  0  0  0  0  0  0  0  0  0  0  0
   10.2108  -14.0570   28.4974 C   0  0  0  0  0  0  0  0  0  0  0  0
   12.2441  -17.7208   25.6858 O   0  0  0  0  0  0  0  0  0  0  0  0
  2  3  1  0
  2  1  1  1
  4  2  1  0
  5  4  2  0
  7  6  1  6
  7  8  1  0
  9  7  1  0
 10  9  1  1
 10 11  1  0
 11  4  1  0
 12 21  1  0
 12 10  1  0
 13 12  2  0
 15 14  1  0
 16 15  2  0
 17 16  1  0
 18 17  2  0
 18 24  1  0
 19 18  1  0
 20 19  1  1
 20 22  1  0
 20 21  1  0
 22 23  1  0
 24 25  2  0
 25 15  1  0
 26 22  2  0
M  END
$$$$
