GLD.pdb
     RDKit          3D

 21 20  0  0  1  0  0  0  0  0999 V2000
    5.7044  -18.6005   22.0305 N   0  0  0  0  0  0  0  0  0  0  0  0
    5.6645  -17.7381   23.1824 C   0  0  0  0  0  0  0  0  0  0  0  0
    6.7181  -16.6924   23.1372 C   0  0  0  0  0  0  0  0  0  0  0  0
    7.5878  -16.6928   22.2319 O   0  0  0  0  0  0  0  0  0  0  0  0
    5.5146  -12.4738   26.3456 C   0  0  0  0  0  0  0  0  0  0  0  0
    6.7553  -13.2225   26.0671 C   0  0  2  0  0  0  0  0  0  0  0  0
    7.9018  -12.6650   26.9197 C   0  0  0  0  0  0  0  0  0  0  0  0
    7.2062  -13.3920   24.6671 C   0  0  0  0  0  0  0  0  0  0  0  0
    7.7848  -14.6441   24.2022 C   0  0  2  0  0  0  0  0  0  0  0  0
    6.7239  -15.6948   24.1340 N   0  0  0  0  0  0  0  0  0  0  0  0
    8.9118  -15.2835   24.8369 C   0  0  0  0  0  0  0  0  0  0  0  0
    9.9812  -14.6283   25.0144 O   0  0  0  0  0  0  0  0  0  0  0  0
    8.8810  -16.6613   25.2882 N   0  0  0  0  0  0  0  0  0  0  0  0
   10.0630  -17.1948   25.8759 C   0  0  1  0  0  0  0  0  0  0  0  0
    9.7805  -18.2395   26.9355 C   0  0  0  0  0  0  0  0  0  0  0  0
   10.8254  -18.3349   27.9568 C   0  0  0  0  0  0  0  0  0  0  0  0
   11.7559  -17.5097   27.9845 O   0  0  0  0  0  0  0  0  0  0  0  0
   10.8666  -17.8546   24.8212 C   0  0  0  0  0  0  0  0  0  0  0  0
   10.3459  -18.0181   23.5570 O   0  0  0  0  0  0  0  0  0  0  0  0
   10.7815  -19.3409   28.8925 O   0  0  0  0  0  0  0  0  0  0  0  0
   12.0125  -18.2593   25.0838 O   0  0  0  0  0  0  0  0  0  0  0  0
  1  2  1  0
  3  2  1  0
  3  4  2  0
  6  5  1  6
  6  8  1  0
  7  6  1  0
  9  8  1  1
  9 10  1  0
  9 11  1  0
 10  3  1  0
 11 12  2  0
 13 11  1  0
 13 14  1  0
 14 15  1  1
 15 16  1  0
 16 17  2  0
 18 19  1  0
 18 14  1  0
 20 16  1  0
 21 18  2  0
M  END
$$$$
