GLD.pdb
     RDKit          3D

 21 20  0  0  1  0  0  0  0  0999 V2000
    7.1453  -15.0649   20.1787 N   0  0  0  0  0  0  0  0  0  0  0  0
    6.6085  -15.4109   21.4689 C   0  0  0  0  0  0  0  0  0  0  0  0
    7.5351  -15.0591   22.5748 C   0  0  0  0  0  0  0  0  0  0  0  0
    8.7388  -14.7872   22.3450 O   0  0  0  0  0  0  0  0  0  0  0  0
    7.7121  -11.5502   25.4529 C   0  0  0  0  0  0  0  0  0  0  0  0
    6.7089  -12.5791   25.7881 C   0  0  2  0  0  0  0  0  0  0  0  0
    5.8211  -12.0852   26.9370 C   0  0  0  0  0  0  0  0  0  0  0  0
    7.1488  -13.9676   26.0536 C   0  0  0  0  0  0  0  0  0  0  0  0
    7.9061  -14.7256   25.0686 C   0  0  2  0  0  0  0  0  0  0  0  0
    7.0359  -15.0358   23.8936 N   0  0  0  0  0  0  0  0  0  0  0  0
    8.5912  -15.9593   25.3696 C   0  0  0  0  0  0  0  0  0  0  0  0
    7.9227  -17.0272   25.5004 O   0  0  0  0  0  0  0  0  0  0  0  0
   10.0299  -16.0386   25.5329 N   0  0  0  0  0  0  0  0  0  0  0  0
   10.5988  -17.3156   25.8031 C   0  0  1  0  0  0  0  0  0  0  0  0
   12.0425  -17.4289   25.3598 C   0  0  0  0  0  0  0  0  0  0  0  0
   12.2626  -17.0188   23.9714 C   0  0  0  0  0  0  0  0  0  0  0  0
   11.5621  -17.4893   23.0574 O   0  0  0  0  0  0  0  0  0  0  0  0
   10.5753  -17.5509   27.2651 C   0  0  0  0  0  0  0  0  0  0  0  0
   11.0237  -18.7470   27.7794 O   0  0  0  0  0  0  0  0  0  0  0  0
   13.2482  -16.1086   23.6722 O   0  0  0  0  0  0  0  0  0  0  0  0
   10.1491  -16.6632   28.0242 O   0  0  0  0  0  0  0  0  0  0  0  0
  1  2  1  0
  3  2  1  0
  3  4  2  0
  6  5  1  1
  6  8  1  0
  7  6  1  0
  9  8  1  1
  9 10  1  0
  9 11  1  0
 10  3  1  0
 11 12  2  0
 13 11  1  0
 13 14  1  0
 14 15  1  1
 15 16  1  0
 16 17  2  0
 18 19  1  0
 18 14  1  0
 20 16  1  0
 21 18  2  0
M  END
$$$$
