GLD.pdb
     RDKit          3D

 21 20  0  0  1  0  0  0  0  0999 V2000
   11.3864  -17.7889   17.1539 N   0  0  0  0  0  0  0  0  0  0  0  0
   10.3024  -17.6364   18.0889 C   0  0  0  0  0  0  0  0  0  0  0  0
   10.4903  -16.4626   18.9790 C   0  0  0  0  0  0  0  0  0  0  0  0
   11.5086  -15.7352   18.8800 O   0  0  0  0  0  0  0  0  0  0  0  0
    8.4602  -12.4896   19.3035 C   0  0  0  0  0  0  0  0  0  0  0  0
    7.7488  -13.6376   19.8978 C   0  0  2  0  0  0  0  0  0  0  0  0
    6.3091  -13.2361   20.2416 C   0  0  0  0  0  0  0  0  0  0  0  0
    8.3554  -14.3602   21.0389 C   0  0  0  0  0  0  0  0  0  0  0  0
    9.6318  -15.0477   20.9102 C   0  0  2  0  0  0  0  0  0  0  0  0
    9.4996  -16.1787   19.9418 N   0  0  0  0  0  0  0  0  0  0  0  0
   10.3589  -15.5915   22.0316 C   0  0  0  0  0  0  0  0  0  0  0  0
   10.6055  -14.8535   23.0310 O   0  0  0  0  0  0  0  0  0  0  0  0
   10.8295  -16.9626   22.0716 N   0  0  0  0  0  0  0  0  0  0  0  0
   11.5341  -17.3898   23.2328 C   0  0  1  0  0  0  0  0  0  0  0  0
   11.7060  -18.8928   23.3043 C   0  0  0  0  0  0  0  0  0  0  0  0
   10.4463  -19.6186   23.4787 C   0  0  0  0  0  0  0  0  0  0  0  0
   10.4056  -20.8533   23.3326 O   0  0  0  0  0  0  0  0  0  0  0  0
   12.8922  -16.7994   23.2133 C   0  0  0  0  0  0  0  0  0  0  0  0
   13.7725  -17.0580   24.2401 O   0  0  0  0  0  0  0  0  0  0  0  0
    9.2995  -18.9350   23.8058 O   0  0  0  0  0  0  0  0  0  0  0  0
   13.2322  -16.0699   22.2656 O   0  0  0  0  0  0  0  0  0  0  0  0
  1  2  1  0
  3  2  1  0
  3  4  2  0
  6  5  1  1
  6  8  1  0
  7  6  1  0
  9  8  1  1
  9 10  1  0
  9 11  1  0
 10  3  1  0
 11 12  2  0
 13 11  1  0
 13 14  1  0
 14 15  1  6
 15 16  1  0
 16 17  2  0
 18 19  1  0
 18 14  1  0
 20 16  1  0
 21 18  2  0
M  END
$$$$
