GLD.pdb
     RDKit          3D

 21 20  0  0  1  0  0  0  0  0999 V2000
    9.3928  -18.8169   16.3570 N   0  0  0  0  0  0  0  0  0  0  0  0
    8.7194  -18.6784   17.6218 C   0  0  0  0  0  0  0  0  0  0  0  0
    9.2749  -17.5664   18.4344 C   0  0  0  0  0  0  0  0  0  0  0  0
   10.4842  -17.2427   18.3422 O   0  0  0  0  0  0  0  0  0  0  0  0
    6.8678  -12.9351   21.8481 C   0  0  0  0  0  0  0  0  0  0  0  0
    7.9952  -13.5296   21.1045 C   0  0  2  0  0  0  0  0  0  0  0  0
    8.6188  -12.4789   20.1776 C   0  0  0  0  0  0  0  0  0  0  0  0
    7.7941  -14.7965   20.3651 C   0  0  0  0  0  0  0  0  0  0  0  0
    8.8866  -15.7352   20.1560 C   0  0  2  0  0  0  0  0  0  0  0  0
    8.4154  -16.8777   19.3152 N   0  0  0  0  0  0  0  0  0  0  0  0
    9.6333  -16.3392   21.2328 C   0  0  0  0  0  0  0  0  0  0  0  0
    9.2231  -17.4231   21.7440 O   0  0  0  0  0  0  0  0  0  0  0  0
   10.8490  -15.7575   21.7680 N   0  0  0  0  0  0  0  0  0  0  0  0
   11.5671  -16.5017   22.7467 C   0  0  1  0  0  0  0  0  0  0  0  0
   12.9747  -15.9887   22.9686 C   0  0  0  0  0  0  0  0  0  0  0  0
   13.8693  -16.2235   21.8334 C   0  0  0  0  0  0  0  0  0  0  0  0
   13.6601  -17.1686   21.0521 O   0  0  0  0  0  0  0  0  0  0  0  0
   10.8589  -16.3967   24.0431 C   0  0  0  0  0  0  0  0  0  0  0  0
   11.2238  -17.2045   25.0968 O   0  0  0  0  0  0  0  0  0  0  0  0
   14.9478  -15.3969   21.6264 O   0  0  0  0  0  0  0  0  0  0  0  0
    9.9342  -15.5759   24.1741 O   0  0  0  0  0  0  0  0  0  0  0  0
  1  2  1  0
  3  2  1  0
  3  4  2  0
  6  5  1  6
  6  8  1  0
  7  6  1  0
  9  8  1  1
  9 10  1  0
  9 11  1  0
 10  3  1  0
 11 12  2  0
 13 11  1  0
 13 14  1  0
 14 15  1  1
 15 16  1  0
 16 17  2  0
 18 19  1  0
 18 14  1  0
 20 16  1  0
 21 18  2  0
M  END
$$$$
