GLD.pdb
     RDKit          3D

 21 20  0  0  1  0  0  0  0  0999 V2000
    6.8031  -16.0729   20.7657 N   0  0  0  0  0  0  0  0  0  0  0  0
    6.5309  -16.1089   22.1788 C   0  0  0  0  0  0  0  0  0  0  0  0
    7.5209  -15.3256   22.9610 C   0  0  0  0  0  0  0  0  0  0  0  0
    8.4897  -14.7631   22.3946 O   0  0  0  0  0  0  0  0  0  0  0  0
    7.2459  -11.3291   25.2282 C   0  0  0  0  0  0  0  0  0  0  0  0
    6.6112  -12.5029   25.8582 C   0  0  2  0  0  0  0  0  0  0  0  0
    5.7935  -12.0602   27.0778 C   0  0  0  0  0  0  0  0  0  0  0  0
    7.4389  -13.6796   26.2080 C   0  0  0  0  0  0  0  0  0  0  0  0
    8.2376  -14.3708   25.2066 C   0  0  2  0  0  0  0  0  0  0  0  0
    7.3521  -15.2249   24.3575 N   0  0  0  0  0  0  0  0  0  0  0  0
    9.3713  -15.2030   25.5292 C   0  0  0  0  0  0  0  0  0  0  0  0
   10.2864  -14.7466   26.2766 O   0  0  0  0  0  0  0  0  0  0  0  0
    9.5179  -16.5573   25.0318 N   0  0  0  0  0  0  0  0  0  0  0  0
   10.6667  -17.2939   25.4380 C   0  0  1  0  0  0  0  0  0  0  0  0
   10.3368  -18.6911   25.9204 C   0  0  0  0  0  0  0  0  0  0  0  0
   10.0321  -18.7599   27.3510 C   0  0  0  0  0  0  0  0  0  0  0  0
   10.5416  -17.9471   28.1429 O   0  0  0  0  0  0  0  0  0  0  0  0
   11.5766  -17.4399   24.2787 C   0  0  0  0  0  0  0  0  0  0  0  0
   12.8103  -18.0303   24.4392 O   0  0  0  0  0  0  0  0  0  0  0  0
    9.1784  -19.7270   27.8256 O   0  0  0  0  0  0  0  0  0  0  0  0
   11.2205  -17.0269   23.1614 O   0  0  0  0  0  0  0  0  0  0  0  0
  1  2  1  0
  3  2  1  0
  3  4  2  0
  6  5  1  1
  6  8  1  0
  7  6  1  0
  9  8  1  1
  9 10  1  0
  9 11  1  0
 10  3  1  0
 11 12  2  0
 13 11  1  0
 13 14  1  0
 14 15  1  6
 15 16  1  0
 16 17  2  0
 18 19  1  0
 18 14  1  0
 20 16  1  0
 21 18  2  0
M  END
$$$$
