GLD.pdb
     RDKit          3D

 21 20  0  0  1  0  0  0  0  0999 V2000
    7.0397  -19.2432   17.9158 N   0  0  0  0  0  0  0  0  0  0  0  0
    6.8141  -18.5322   19.1470 C   0  0  0  0  0  0  0  0  0  0  0  0
    7.9072  -17.5735   19.4496 C   0  0  0  0  0  0  0  0  0  0  0  0
    8.9796  -17.5922   18.7974 O   0  0  0  0  0  0  0  0  0  0  0  0
    8.1730  -13.0257   19.1230 C   0  0  0  0  0  0  0  0  0  0  0  0
    7.4493  -13.5597   20.2928 C   0  0  2  0  0  0  0  0  0  0  0  0
    6.7220  -12.4212   21.0188 C   0  0  0  0  0  0  0  0  0  0  0  0
    8.1699  -14.4024   21.2739 C   0  0  0  0  0  0  0  0  0  0  0  0
    8.7806  -15.6654   20.8864 C   0  0  2  0  0  0  0  0  0  0  0  0
    7.7177  -16.6377   20.4876 N   0  0  0  0  0  0  0  0  0  0  0  0
    9.6761  -16.4103   21.7380 C   0  0  0  0  0  0  0  0  0  0  0  0
    9.2023  -17.2644   22.5444 O   0  0  0  0  0  0  0  0  0  0  0  0
   11.1143  -16.2263   21.7168 N   0  0  0  0  0  0  0  0  0  0  0  0
   11.9218  -17.2289   22.3251 C   0  0  1  0  0  0  0  0  0  0  0  0
   12.8888  -17.8806   21.3587 C   0  0  0  0  0  0  0  0  0  0  0  0
   13.7610  -18.8759   21.9851 C   0  0  0  0  0  0  0  0  0  0  0  0
   14.0503  -19.9264   21.3848 O   0  0  0  0  0  0  0  0  0  0  0  0
   12.7338  -16.6057   23.3955 C   0  0  0  0  0  0  0  0  0  0  0  0
   13.0545  -17.3239   24.5258 O   0  0  0  0  0  0  0  0  0  0  0  0
   14.2653  -18.6520   23.2441 O   0  0  0  0  0  0  0  0  0  0  0  0
   13.1236  -15.4321   23.2675 O   0  0  0  0  0  0  0  0  0  0  0  0
  1  2  1  0
  3  2  1  0
  3  4  2  0
  6  5  1  6
  6  8  1  0
  7  6  1  0
  9  8  1  1
  9 10  1  0
  9 11  1  0
 10  3  1  0
 11 12  2  0
 13 11  1  0
 13 14  1  0
 14 15  1  6
 15 16  1  0
 16 17  2  0
 18 19  1  0
 18 14  1  0
 20 16  1  0
 21 18  2  0
M  END
$$$$
