HYT.pdb
     RDKit          3D

 30 31  0  0  1  0  0  0  0  0999 V2000
   26.1746  -17.3194  -19.8520 N   0  0  0  0  0  0  0  0  0  0  0  0
   24.9294  -18.0677  -20.0365 C   0  0  1  0  0  0  0  0  0  0  0  0
   24.9858  -18.6873  -21.4091 C   0  0  0  0  0  0  0  0  0  0  0  0
   25.0235  -17.5395  -22.3727 C   0  0  0  0  0  0  0  0  0  0  0  0
   26.0580  -17.3082  -23.2819 C   0  0  0  0  0  0  0  0  0  0  0  0
   25.7414  -16.1979  -23.9597 N   0  0  0  0  0  0  0  0  0  0  0  0
   24.5641  -15.7433  -23.5063 C   0  0  0  0  0  0  0  0  0  0  0  0
   24.1233  -16.5514  -22.5446 N   0  0  0  0  0  0  0  0  0  0  0  0
   24.7870  -19.0246  -18.9532 C   0  0  0  0  0  0  0  0  0  0  0  0
   23.9156  -19.9313  -19.0579 O   0  0  0  0  0  0  0  0  0  0  0  0
   25.7046  -23.3390  -11.2353 O   0  0  0  0  0  0  0  0  0  0  0  0
   25.9262  -22.5841  -12.3588 C   0  0  0  0  0  0  0  0  0  0  0  0
   25.9369  -23.1270  -13.6400 C   0  0  0  0  0  0  0  0  0  0  0  0
   26.1613  -22.3467  -14.7411 C   0  0  0  0  0  0  0  0  0  0  0  0
   26.3912  -20.9686  -14.6382 C   0  0  0  0  0  0  0  0  0  0  0  0
   26.6446  -20.1171  -15.8284 C   0  0  0  0  0  0  0  0  0  0  0  0
   25.3970  -19.9091  -16.6480 C   0  0  2  0  0  0  0  0  0  0  0  0
   25.5512  -19.0424  -17.7586 N   0  0  0  0  0  0  0  0  0  0  0  0
   24.3043  -19.4230  -15.7791 C   0  0  0  0  0  0  0  0  0  0  0  0
   24.4197  -18.2653  -15.2981 O   0  0  0  0  0  0  0  0  0  0  0  0
   26.3743  -20.4597  -13.3608 C   0  0  0  0  0  0  0  0  0  0  0  0
   26.1469  -21.2465  -12.2415 C   0  0  0  0  0  0  0  0  0  0  0  0
   21.2646  -17.8937  -15.8635 C   0  0  0  0  0  0  0  0  0  0  0  0
   20.9431  -19.1568  -15.1105 C   0  0  1  0  0  0  0  0  0  0  0  0
   20.3971  -20.0653  -16.0204 O   0  0  0  0  0  0  0  0  0  0  0  0
   22.1828  -19.7543  -14.4521 C   0  0  2  0  0  0  0  0  0  0  0  0
   23.1430  -20.1562  -15.4517 N   0  0  0  0  0  0  0  0  0  0  0  0
   21.8073  -20.9176  -13.5779 C   0  0  0  0  0  0  0  0  0  0  0  0
   22.1580  -22.0909  -13.8032 O   0  0  0  0  0  0  0  0  0  0  0  0
   21.0218  -20.6727  -12.4489 O   0  0  0  0  0  0  0  0  0  0  0  0
  2  1  1  1
  2  3  1  0
  3  4  1  0
  4  5  2  0
  5  6  1  0
  7  6  1  0
  8  4  1  0
  8  7  2  0
  9  2  1  0
  9 18  1  0
 10  9  2  0
 12 22  2  0
 12 11  1  0
 13 12  1  0
 14 15  1  0
 14 13  2  0
 15 21  2  0
 17 16  1  1
 16 15  1  0
 17 18  1  0
 19 17  1  0
 20 19  2  0
 21 22  1  0
 24 23  1  6
 24 26  1  0
 25 24  1  0
 26 27  1  6
 26 28  1  0
 27 19  1  0
 28 30  1  0
 29 28  2  0
M  END
$$$$
