HYT.pdb
     RDKit          3D

 30 31  0  0  1  0  0  0  0  0999 V2000
   21.5131  -20.9537  -12.4845 N   0  0  0  0  0  0  0  0  0  0  0  0
   21.8432  -20.6354  -13.8753 C   0  0  1  0  0  0  0  0  0  0  0  0
   20.7586  -19.7240  -14.3892 C   0  0  0  0  0  0  0  0  0  0  0  0
   19.6099  -20.6188  -14.7456 C   0  0  0  0  0  0  0  0  0  0  0  0
   19.7306  -21.8007  -15.4797 C   0  0  0  0  0  0  0  0  0  0  0  0
   18.4998  -22.3140  -15.5990 N   0  0  0  0  0  0  0  0  0  0  0  0
   17.6368  -21.5008  -14.9725 C   0  0  0  0  0  0  0  0  0  0  0  0
   18.3026  -20.4717  -14.4531 N   0  0  0  0  0  0  0  0  0  0  0  0
   23.1782  -20.0655  -13.9267 C   0  0  0  0  0  0  0  0  0  0  0  0
   23.3347  -18.8604  -13.5870 O   0  0  0  0  0  0  0  0  0  0  0  0
   25.5599  -20.2248   -7.9510 O   0  0  0  0  0  0  0  0  0  0  0  0
   25.8105  -20.4305   -9.2837 C   0  0  0  0  0  0  0  0  0  0  0  0
   25.4473  -21.5993   -9.9459 C   0  0  0  0  0  0  0  0  0  0  0  0
   25.7117  -21.7741  -11.2767 C   0  0  0  0  0  0  0  0  0  0  0  0
   26.3585  -20.7926  -12.0388 C   0  0  0  0  0  0  0  0  0  0  0  0
   26.6570  -20.9794  -13.4816 C   0  0  0  0  0  0  0  0  0  0  0  0
   25.6781  -20.2425  -14.3593 C   0  0  2  0  0  0  0  0  0  0  0  0
   24.3543  -20.7475  -14.3302 N   0  0  0  0  0  0  0  0  0  0  0  0
   26.1761  -20.2177  -15.7509 C   0  0  0  0  0  0  0  0  0  0  0  0
   26.1258  -21.2939  -16.4023 O   0  0  0  0  0  0  0  0  0  0  0  0
   26.7052  -19.6487  -11.3588 C   0  0  0  0  0  0  0  0  0  0  0  0
   26.4389  -19.4666  -10.0099 C   0  0  0  0  0  0  0  0  0  0  0  0
   25.3645  -17.3899  -18.4468 C   0  0  0  0  0  0  0  0  0  0  0  0
   26.8385  -17.6921  -18.4056 C   0  0  1  0  0  0  0  0  0  0  0  0
   27.4564  -16.6869  -17.6577 O   0  0  0  0  0  0  0  0  0  0  0  0
   27.1195  -19.0566  -17.7840 C   0  0  2  0  0  0  0  0  0  0  0  0
   26.6994  -19.0802  -16.4035 N   0  0  0  0  0  0  0  0  0  0  0  0
   28.5778  -19.4000  -17.9015 C   0  0  0  0  0  0  0  0  0  0  0  0
   29.1509  -19.6129  -18.9862 O   0  0  0  0  0  0  0  0  0  0  0  0
   29.3356  -19.4856  -16.7310 O   0  0  0  0  0  0  0  0  0  0  0  0
  2  1  1  1
  2  3  1  0
  3  4  1  0
  4  5  2  0
  5  6  1  0
  7  6  1  0
  8  4  1  0
  8  7  2  0
  9  2  1  0
  9 18  1  0
 10  9  2  0
 12 22  2  0
 12 11  1  0
 13 12  1  0
 14 15  1  0
 14 13  2  0
 15 21  2  0
 17 16  1  1
 16 15  1  0
 17 18  1  0
 19 17  1  0
 20 19  2  0
 21 22  1  0
 24 23  1  1
 24 26  1  0
 25 24  1  0
 26 27  1  1
 26 28  1  0
 27 19  1  0
 28 30  1  0
 29 28  2  0
M  END
$$$$
