HYT.pdb
     RDKit          3D

 30 31  0  0  1  0  0  0  0  0999 V2000
   27.4796  -18.9601  -19.5631 N   0  0  0  0  0  0  0  0  0  0  0  0
   26.6858  -18.1346  -18.6505 C   0  0  1  0  0  0  0  0  0  0  0  0
   25.4951  -17.6363  -19.4283 C   0  0  0  0  0  0  0  0  0  0  0  0
   26.0010  -16.4983  -20.2627 C   0  0  0  0  0  0  0  0  0  0  0  0
   26.0278  -15.1661  -19.8444 C   0  0  0  0  0  0  0  0  0  0  0  0
   26.5366  -14.4496  -20.8544 N   0  0  0  0  0  0  0  0  0  0  0  0
   26.8206  -15.2824  -21.8665 C   0  0  0  0  0  0  0  0  0  0  0  0
   26.4988  -16.5253  -21.5148 N   0  0  0  0  0  0  0  0  0  0  0  0
   26.3478  -18.9185  -17.4754 C   0  0  0  0  0  0  0  0  0  0  0  0
   25.7957  -20.0417  -17.6361 O   0  0  0  0  0  0  0  0  0  0  0  0
   25.3383  -21.8697   -9.1864 O   0  0  0  0  0  0  0  0  0  0  0  0
   25.7240  -21.1272  -10.2732 C   0  0  0  0  0  0  0  0  0  0  0  0
   25.1386  -19.9069  -10.5968 C   0  0  0  0  0  0  0  0  0  0  0  0
   25.5460  -19.1900  -11.6884 C   0  0  0  0  0  0  0  0  0  0  0  0
   26.5673  -19.6432  -12.5334 C   0  0  0  0  0  0  0  0  0  0  0  0
   27.0083  -18.8747  -13.7253 C   0  0  0  0  0  0  0  0  0  0  0  0
   26.2202  -19.2428  -14.9562 C   0  0  2  0  0  0  0  0  0  0  0  0
   26.5842  -18.5373  -16.1300 N   0  0  0  0  0  0  0  0  0  0  0  0
   24.7756  -19.0707  -14.6938 C   0  0  0  0  0  0  0  0  0  0  0  0
   24.3556  -17.8969  -14.5188 O   0  0  0  0  0  0  0  0  0  0  0  0
   27.1276  -20.8510  -12.1893 C   0  0  0  0  0  0  0  0  0  0  0  0
   26.7183  -21.5813  -11.0835 C   0  0  0  0  0  0  0  0  0  0  0  0
   21.8198  -19.6203  -16.7716 C   0  0  0  0  0  0  0  0  0  0  0  0
   21.5877  -20.4363  -15.5282 C   0  0  1  0  0  0  0  0  0  0  0  0
   21.9160  -21.7616  -15.8238 O   0  0  0  0  0  0  0  0  0  0  0  0
   22.4283  -19.9360  -14.3577 C   0  0  2  0  0  0  0  0  0  0  0  0
   23.8339  -20.1207  -14.6283 N   0  0  0  0  0  0  0  0  0  0  0  0
   22.0352  -20.6371  -13.0878 C   0  0  0  0  0  0  0  0  0  0  0  0
   22.7377  -21.5017  -12.5316 O   0  0  0  0  0  0  0  0  0  0  0  0
   20.8149  -20.3024  -12.4957 O   0  0  0  0  0  0  0  0  0  0  0  0
  2  1  1  6
  2  3  1  0
  3  4  1  0
  4  5  2  0
  5  6  1  0
  7  6  1  0
  8  4  1  0
  8  7  2  0
  9  2  1  0
  9 18  1  0
 10  9  2  0
 12 22  2  0
 12 11  1  0
 13 12  1  0
 14 15  1  0
 14 13  2  0
 15 21  2  0
 17 16  1  1
 16 15  1  0
 17 18  1  0
 19 17  1  0
 20 19  2  0
 21 22  1  0
 24 23  1  6
 24 26  1  0
 25 24  1  0
 26 27  1  6
 26 28  1  0
 27 19  1  0
 28 30  1  0
 29 28  2  0
M  END
$$$$
