HYT.pdb
     RDKit          3D

 30 31  0  0  1  0  0  0  0  0999 V2000
   27.6065  -22.5002  -16.3241 N   0  0  0  0  0  0  0  0  0  0  0  0
   26.4656  -21.5849  -16.3947 C   0  0  1  0  0  0  0  0  0  0  0  0
   25.7068  -21.9213  -17.6526 C   0  0  0  0  0  0  0  0  0  0  0  0
   26.5280  -21.3753  -18.7817 C   0  0  0  0  0  0  0  0  0  0  0  0
   26.9257  -20.0412  -18.8930 C   0  0  0  0  0  0  0  0  0  0  0  0
   27.6325  -19.9374  -20.0252 N   0  0  0  0  0  0  0  0  0  0  0  0
   27.6837  -21.1444  -20.6075 C   0  0  0  0  0  0  0  0  0  0  0  0
   27.0166  -22.0204  -19.8594 N   0  0  0  0  0  0  0  0  0  0  0  0
   25.6859  -21.7048  -15.1752 C   0  0  0  0  0  0  0  0  0  0  0  0
   25.1827  -22.8255  -14.8869 O   0  0  0  0  0  0  0  0  0  0  0  0
   30.3356  -21.6993  -10.1603 O   0  0  0  0  0  0  0  0  0  0  0  0
   29.1163  -21.2575  -10.6066 C   0  0  0  0  0  0  0  0  0  0  0  0
   28.9608  -20.5523  -11.7961 C   0  0  0  0  0  0  0  0  0  0  0  0
   27.7302  -20.1248  -12.2138 C   0  0  0  0  0  0  0  0  0  0  0  0
   26.5686  -20.3721  -11.4710 C   0  0  0  0  0  0  0  0  0  0  0  0
   25.2307  -19.9031  -11.9137 C   0  0  0  0  0  0  0  0  0  0  0  0
   24.6877  -20.7370  -13.0456 C   0  0  2  0  0  0  0  0  0  0  0  0
   25.4285  -20.6601  -14.2512 N   0  0  0  0  0  0  0  0  0  0  0  0
   23.2766  -20.3764  -13.2989 C   0  0  0  0  0  0  0  0  0  0  0  0
   23.0321  -19.1811  -13.6091 O   0  0  0  0  0  0  0  0  0  0  0  0
   26.7520  -21.0710  -10.3010 C   0  0  0  0  0  0  0  0  0  0  0  0
   27.9974  -21.5068   -9.8735 C   0  0  0  0  0  0  0  0  0  0  0  0
   20.9274  -21.7621  -15.8449 C   0  0  0  0  0  0  0  0  0  0  0  0
   20.2045  -21.8412  -14.5269 C   0  0  1  0  0  0  0  0  0  0  0  0
   20.2768  -23.1636  -14.0826 O   0  0  0  0  0  0  0  0  0  0  0  0
   20.8157  -20.9049  -13.4891 C   0  0  2  0  0  0  0  0  0  0  0  0
   22.1862  -21.2701  -13.2224 N   0  0  0  0  0  0  0  0  0  0  0  0
   20.0060  -20.9195  -12.2232 C   0  0  0  0  0  0  0  0  0  0  0  0
   20.4445  -21.3198  -11.1287 O   0  0  0  0  0  0  0  0  0  0  0  0
   18.6880  -20.4589  -12.2733 O   0  0  0  0  0  0  0  0  0  0  0  0
  2  1  1  1
  2  3  1  0
  3  4  1  0
  4  5  2  0
  5  6  1  0
  7  6  1  0
  8  4  1  0
  8  7  2  0
  9  2  1  0
  9 18  1  0
 10  9  2  0
 12 22  2  0
 12 11  1  0
 13 12  1  0
 14 15  1  0
 14 13  2  0
 15 21  2  0
 17 16  1  1
 16 15  1  0
 17 18  1  0
 19 17  1  0
 20 19  2  0
 21 22  1  0
 24 23  1  6
 24 26  1  0
 25 24  1  0
 26 27  1  1
 26 28  1  0
 27 19  1  0
 28 30  1  0
 29 28  2  0
M  END
$$$$
