HYT.pdb
     RDKit          3D

 30 31  0  0  1  0  0  0  0  0999 V2000
   15.4180  -10.5522   -9.9958 N   0  0  0  0  0  0  0  0  0  0  0  0
   14.6676   -9.6921  -10.9132 C   0  0  1  0  0  0  0  0  0  0  0  0
   13.2301   -9.7126  -10.4613 C   0  0  0  0  0  0  0  0  0  0  0  0
   12.7572  -11.1196  -10.6716 C   0  0  0  0  0  0  0  0  0  0  0  0
   12.8642  -11.8143  -11.8783 C   0  0  0  0  0  0  0  0  0  0  0  0
   12.3329  -13.0270  -11.6794 N   0  0  0  0  0  0  0  0  0  0  0  0
   11.9083  -13.1028  -10.4096 C   0  0  0  0  0  0  0  0  0  0  0  0
   12.1622  -11.9506   -9.7931 N   0  0  0  0  0  0  0  0  0  0  0  0
   15.2723   -8.3717  -10.9259 C   0  0  0  0  0  0  0  0  0  0  0  0
   14.7852   -7.4908  -11.6869 O   0  0  0  0  0  0  0  0  0  0  0  0
   11.5338   -4.7465   -7.1676 O   0  0  0  0  0  0  0  0  0  0  0  0
   12.8167   -5.0853   -7.5151 C   0  0  0  0  0  0  0  0  0  0  0  0
   13.4461   -6.2328   -7.0425 C   0  0  0  0  0  0  0  0  0  0  0  0
   14.7275   -6.5428   -7.4079 C   0  0  0  0  0  0  0  0  0  0  0  0
   15.4697   -5.7266   -8.2713 C   0  0  0  0  0  0  0  0  0  0  0  0
   16.8643   -6.0521   -8.6648 C   0  0  0  0  0  0  0  0  0  0  0  0
   16.9335   -6.6607  -10.0419 C   0  0  2  0  0  0  0  0  0  0  0  0
   16.3843   -7.9629  -10.1463 N   0  0  0  0  0  0  0  0  0  0  0  0
   18.3339   -6.6664  -10.5154 C   0  0  0  0  0  0  0  0  0  0  0  0
   19.2379   -6.7704   -9.6454 O   0  0  0  0  0  0  0  0  0  0  0  0
   14.8226   -4.6004   -8.7228 C   0  0  0  0  0  0  0  0  0  0  0  0
   13.5237   -4.2820   -8.3556 C   0  0  0  0  0  0  0  0  0  0  0  0
   20.4984   -9.0338  -12.1736 C   0  0  0  0  0  0  0  0  0  0  0  0
   20.4263   -7.8355  -13.0817 C   0  0  1  0  0  0  0  0  0  0  0  0
   19.4341   -8.0840  -14.0332 O   0  0  0  0  0  0  0  0  0  0  0  0
   20.1055   -6.5592  -12.3101 C   0  0  2  0  0  0  0  0  0  0  0  0
   18.7323   -6.5674  -11.8663 N   0  0  0  0  0  0  0  0  0  0  0  0
   20.3836   -5.3478  -13.1549 C   0  0  0  0  0  0  0  0  0  0  0  0
   19.4987   -4.5693  -13.5566 O   0  0  0  0  0  0  0  0  0  0  0  0
   21.7071   -5.0767  -13.5109 O   0  0  0  0  0  0  0  0  0  0  0  0
  2  1  1  1
  2  3  1  0
  3  4  1  0
  4  5  2  0
  5  6  1  0
  7  6  1  0
  8  4  1  0
  8  7  2  0
  9  2  1  0
  9 18  1  0
 10  9  2  0
 12 22  2  0
 12 11  1  0
 13 12  1  0
 14 15  1  0
 14 13  2  0
 15 21  2  0
 17 16  1  1
 16 15  1  0
 17 18  1  0
 19 17  1  0
 20 19  2  0
 21 22  1  0
 24 23  1  1
 24 26  1  0
 25 24  1  0
 26 27  1  6
 26 28  1  0
 27 19  1  0
 28 30  1  0
 29 28  2  0
M  END
$$$$
