HYT.pdb
     RDKit          3D

 30 31  0  0  1  0  0  0  0  0999 V2000
   21.7058  -12.5238  -16.7627 N   0  0  0  0  0  0  0  0  0  0  0  0
   22.4181  -11.3156  -16.3417 C   0  0  1  0  0  0  0  0  0  0  0  0
   23.6194  -11.1753  -17.2406 C   0  0  0  0  0  0  0  0  0  0  0  0
   24.5325  -12.3081  -16.8797 C   0  0  0  0  0  0  0  0  0  0  0  0
   25.2200  -12.4102  -15.6684 C   0  0  0  0  0  0  0  0  0  0  0  0
   25.9308  -13.5437  -15.7168 N   0  0  0  0  0  0  0  0  0  0  0  0
   25.7082  -14.1357  -16.8994 C   0  0  0  0  0  0  0  0  0  0  0  0
   24.8618  -13.3925  -17.6090 N   0  0  0  0  0  0  0  0  0  0  0  0
   21.5038  -10.1878  -16.3840 C   0  0  0  0  0  0  0  0  0  0  0  0
   20.9195   -9.9235  -17.4708 O   0  0  0  0  0  0  0  0  0  0  0  0
   15.5012  -12.2365  -16.9382 O   0  0  0  0  0  0  0  0  0  0  0  0
   16.3399  -11.3252  -16.3488 C   0  0  0  0  0  0  0  0  0  0  0  0
   16.4028   -9.9933  -16.7468 C   0  0  0  0  0  0  0  0  0  0  0  0
   17.2506   -9.1085  -16.1385 C   0  0  0  0  0  0  0  0  0  0  0  0
   18.0957   -9.4938  -15.0898 C   0  0  0  0  0  0  0  0  0  0  0  0
   19.0252   -8.5410  -14.4311 C   0  0  0  0  0  0  0  0  0  0  0  0
   20.2488   -8.2765  -15.2704 C   0  0  2  0  0  0  0  0  0  0  0  0
   21.1935   -9.3325  -15.2961 N   0  0  0  0  0  0  0  0  0  0  0  0
   20.9018   -7.0286  -14.8214 C   0  0  0  0  0  0  0  0  0  0  0  0
   21.6377   -7.0956  -13.8022 O   0  0  0  0  0  0  0  0  0  0  0  0
   18.0119  -10.8150  -14.7173 C   0  0  0  0  0  0  0  0  0  0  0  0
   17.1538  -11.7155  -15.3306 C   0  0  0  0  0  0  0  0  0  0  0  0
   23.5053   -4.9685  -16.3696 C   0  0  0  0  0  0  0  0  0  0  0  0
   22.3505   -4.0383  -16.1106 C   0  0  1  0  0  0  0  0  0  0  0  0
   21.6415   -3.8999  -17.3063 O   0  0  0  0  0  0  0  0  0  0  0  0
   21.4318   -4.5683  -15.0141 C   0  0  2  0  0  0  0  0  0  0  0  0
   20.7651   -5.7717  -15.4499 N   0  0  0  0  0  0  0  0  0  0  0  0
   20.4306   -3.5218  -14.6128 C   0  0  0  0  0  0  0  0  0  0  0  0
   19.2174   -3.5879  -14.8849 O   0  0  0  0  0  0  0  0  0  0  0  0
   20.8826   -2.4122  -13.8943 O   0  0  0  0  0  0  0  0  0  0  0  0
  2  1  1  6
  2  3  1  0
  3  4  1  0
  4  5  2  0
  5  6  1  0
  7  6  1  0
  8  4  1  0
  8  7  2  0
  9  2  1  0
  9 18  1  0
 10  9  2  0
 12 22  2  0
 12 11  1  0
 13 12  1  0
 14 15  1  0
 14 13  2  0
 15 21  2  0
 17 16  1  1
 16 15  1  0
 17 18  1  0
 19 17  1  0
 20 19  2  0
 21 22  1  0
 24 23  1  6
 24 26  1  0
 25 24  1  0
 26 27  1  6
 26 28  1  0
 27 19  1  0
 28 30  1  0
 29 28  2  0
M  END
$$$$
