WRQ.pdb
     RDKit          3D

 35 36  0  0  1  0  0  0  0  0999 V2000
   25.4535  -19.0373   -9.9555 N   0  0  0  0  0  0  0  0  0  0  0  0
   26.3025  -20.1242  -10.4219 C   0  0  1  0  0  0  0  0  0  0  0  0
   26.2547  -21.2558   -9.3781 C   0  0  0  0  0  0  0  0  0  0  0  0
   26.8898  -20.8230   -8.1319 C   0  0  0  0  0  0  0  0  0  0  0  0
   26.2714  -20.1581   -7.0827 C   0  0  0  0  0  0  0  0  0  0  0  0
   27.1766  -19.9081   -6.1360 N   0  0  0  0  0  0  0  0  0  0  0  0
   28.3887  -20.3817   -6.5087 C   0  0  0  0  0  0  0  0  0  0  0  0
   29.6110  -20.3802   -5.9081 C   0  0  0  0  0  0  0  0  0  0  0  0
   30.6838  -20.9549   -6.5463 C   0  0  0  0  0  0  0  0  0  0  0  0
   30.5004  -21.5289   -7.7986 C   0  0  0  0  0  0  0  0  0  0  0  0
   29.2836  -21.5351   -8.4044 C   0  0  0  0  0  0  0  0  0  0  0  0
   28.1995  -20.9590   -7.7704 C   0  0  0  0  0  0  0  0  0  0  0  0
   25.7243  -20.6486  -11.6956 C   0  0  0  0  0  0  0  0  0  0  0  0
   24.5297  -20.4032  -11.9390 O   0  0  0  0  0  0  0  0  0  0  0  0
   30.5288  -24.4659  -18.1320 N   0  0  0  0  0  0  0  0  0  0  0  0
   30.6580  -23.8325  -16.8544 C   0  0  0  0  0  0  0  0  0  0  0  0
   31.8135  -23.7429  -16.2837 N   0  0  0  0  0  0  0  0  0  0  0  0
   29.5309  -23.2872  -16.1927 N   0  0  0  0  0  0  0  0  0  0  0  0
   28.2374  -23.3344  -16.8224 C   0  0  0  0  0  0  0  0  0  0  0  0
   27.1337  -22.6975  -16.0447 C   0  0  0  0  0  0  0  0  0  0  0  0
   27.4431  -22.3751  -14.6141 C   0  0  0  0  0  0  0  0  0  0  0  0
   26.2307  -21.7468  -13.9232 C   0  0  2  0  0  0  0  0  0  0  0  0
   26.5178  -21.3893  -12.5725 N   0  0  0  0  0  0  0  0  0  0  0  0
   25.0112  -22.5499  -14.0926 C   0  0  0  0  0  0  0  0  0  0  0  0
   25.0263  -23.8109  -13.9351 O   0  0  0  0  0  0  0  0  0  0  0  0
   31.9426  -23.3670  -15.3133 N   0  0  0  0  0  0  0  0  0  0  0  0
   19.7577  -18.8539  -15.1491 C   0  0  0  0  0  0  0  0  0  0  0  0
   19.9248  -19.9325  -14.2503 O   0  0  0  0  0  0  0  0  0  0  0  0
   19.6308  -19.7703  -13.0079 C   0  0  0  0  0  0  0  0  0  0  0  0
   20.4168  -21.2606  -14.6442 C   0  0  0  0  0  0  0  0  0  0  0  0
   21.4607  -21.8766  -13.8149 C   0  0  1  0  0  0  0  0  0  0  0  0
   22.5214  -22.6476  -14.5412 N   0  0  0  0  0  0  0  0  0  0  0  0
   23.7958  -21.9196  -14.4342 C   0  0  0  0  0  0  0  0  0  0  0  0
   22.2725  -23.1131  -15.8878 O   0  0  0  0  0  0  0  0  0  0  0  0
   21.6592  -24.3688  -16.0978 O   0  0  0  0  0  0  0  0  0  0  0  0
  2  1  1  1
  2  3  1  0
  4  5  2  0
  4  3  1  0
  6  5  1  0
  7 12  2  0
  7  6  1  0
  8  7  1  0
  9 10  1  0
  9  8  2  0
 10 11  2  0
 11 12  1  0
 12  4  1  0
 13  2  1  0
 14 13  2  0
 16 18  1  0
 16 15  1  0
 17 16  2  0
 19 18  1  0
 20 19  1  0
 20 21  1  0
 22 21  1  1
 22 23  1  0
 23 13  1  0
 24 22  1  0
 24 25  2  0
 26 27  1  0
 27 28  2  0
 27 29  1  0
 29 30  1  0
 31 30  1  1
 31 32  1  0
 32 24  1  0
 33 34  1  0
 33 31  1  0
 35 33  2  0
M  END
$$$$
