WRQ.pdb
     RDKit          3D

 35 36  0  0  1  0  0  0  0  0999 V2000
   26.1629  -19.6351  -12.1221 N   0  0  0  0  0  0  0  0  0  0  0  0
   26.1250  -21.0885  -12.1989 C   0  0  1  0  0  0  0  0  0  0  0  0
   25.6842  -21.6329  -10.8272 C   0  0  0  0  0  0  0  0  0  0  0  0
   26.5627  -21.1222   -9.7731 C   0  0  0  0  0  0  0  0  0  0  0  0
   26.1785  -20.3493   -8.6867 C   0  0  0  0  0  0  0  0  0  0  0  0
   27.2585  -20.0556   -7.9616 N   0  0  0  0  0  0  0  0  0  0  0  0
   28.3626  -20.6042   -8.5207 C   0  0  0  0  0  0  0  0  0  0  0  0
   29.6794  -20.5990   -8.1736 C   0  0  0  0  0  0  0  0  0  0  0  0
   30.5922  -21.2651   -8.9557 C   0  0  0  0  0  0  0  0  0  0  0  0
   30.1523  -21.9341  -10.0916 C   0  0  0  0  0  0  0  0  0  0  0  0
   28.8396  -21.9446  -10.4444 C   0  0  0  0  0  0  0  0  0  0  0  0
   27.9150  -21.2771   -9.6643 C   0  0  0  0  0  0  0  0  0  0  0  0
   25.0857  -21.4716  -13.2013 C   0  0  0  0  0  0  0  0  0  0  0  0
   24.1219  -20.7031  -13.3655 O   0  0  0  0  0  0  0  0  0  0  0  0
   28.0934  -27.1703  -18.4934 N   0  0  0  0  0  0  0  0  0  0  0  0
   26.7434  -27.3763  -18.0631 C   0  0  0  0  0  0  0  0  0  0  0  0
   26.0501  -28.3587  -18.5355 N   0  0  0  0  0  0  0  0  0  0  0  0
   26.1415  -26.5178  -17.1111 N   0  0  0  0  0  0  0  0  0  0  0  0
   26.9412  -25.5405  -16.4203 C   0  0  0  0  0  0  0  0  0  0  0  0
   26.1994  -24.7038  -15.4312 C   0  0  0  0  0  0  0  0  0  0  0  0
   24.9720  -24.0155  -15.9468 C   0  0  0  0  0  0  0  0  0  0  0  0
   24.2744  -23.2369  -14.8291 C   0  0  2  0  0  0  0  0  0  0  0  0
   25.2115  -22.6601  -13.9216 N   0  0  0  0  0  0  0  0  0  0  0  0
   23.2070  -24.0164  -14.1858 C   0  0  0  0  0  0  0  0  0  0  0  0
   23.4573  -24.8029  -13.2193 O   0  0  0  0  0  0  0  0  0  0  0  0
   25.0724  -28.5702  -18.2204 N   0  0  0  0  0  0  0  0  0  0  0  0
   18.2548  -21.7184  -11.6691 C   0  0  0  0  0  0  0  0  0  0  0  0
   18.0247  -23.1135  -11.6731 O   0  0  0  0  0  0  0  0  0  0  0  0
   17.1173  -23.6057  -10.9045 C   0  0  0  0  0  0  0  0  0  0  0  0
   18.7617  -24.0646  -12.5174 C   0  0  0  0  0  0  0  0  0  0  0  0
   19.9066  -23.5544  -13.2829 C   0  0  2  0  0  0  0  0  0  0  0  0
   20.7457  -24.5763  -13.9892 N   0  0  0  0  0  0  0  0  0  0  0  0
   21.8765  -23.8956  -14.6399 C   0  0  0  0  0  0  0  0  0  0  0  0
   20.1146  -25.5399  -14.8639 O   0  0  0  0  0  0  0  0  0  0  0  0
   19.6866  -26.7847  -14.3500 O   0  0  0  0  0  0  0  0  0  0  0  0
  2  1  1  1
  2  3  1  0
  4  5  2  0
  4  3  1  0
  6  5  1  0
  7 12  2  0
  7  6  1  0
  8  7  1  0
  9 10  1  0
  9  8  2  0
 10 11  2  0
 11 12  1  0
 12  4  1  0
 13  2  1  0
 14 13  2  0
 16 18  1  0
 16 15  1  0
 17 16  2  0
 19 18  1  0
 20 19  1  0
 20 21  1  0
 22 21  1  6
 22 23  1  0
 23 13  1  0
 24 22  1  0
 24 25  2  0
 26 27  1  0
 27 28  2  0
 27 29  1  0
 29 30  1  0
 31 30  1  1
 31 32  1  0
 32 24  1  0
 33 34  1  0
 33 31  1  0
 35 33  2  0
M  END
$$$$
