WRQ.pdb
     RDKit          3D

 35 36  0  0  1  0  0  0  0  0999 V2000
   26.8173  -22.5590  -11.0586 N   0  0  0  0  0  0  0  0  0  0  0  0
   26.0122  -21.3706  -10.8153 C   0  0  1  0  0  0  0  0  0  0  0  0
   26.9456  -20.1454  -10.8241 C   0  0  0  0  0  0  0  0  0  0  0  0
   27.9824  -20.2907   -9.8005 C   0  0  0  0  0  0  0  0  0  0  0  0
   29.2936  -20.6929  -10.0109 C   0  0  0  0  0  0  0  0  0  0  0  0
   29.9273  -20.7313   -8.8383 N   0  0  0  0  0  0  0  0  0  0  0  0
   29.0889  -20.3682   -7.8394 C   0  0  0  0  0  0  0  0  0  0  0  0
   29.2472  -20.2467   -6.4923 C   0  0  0  0  0  0  0  0  0  0  0  0
   28.1873  -19.8440   -5.7159 C   0  0  0  0  0  0  0  0  0  0  0  0
   26.9680  -19.5675   -6.3228 C   0  0  0  0  0  0  0  0  0  0  0  0
   26.8022  -19.6857   -7.6668 C   0  0  0  0  0  0  0  0  0  0  0  0
   27.8622  -20.0906   -8.4551 C   0  0  0  0  0  0  0  0  0  0  0  0
   25.0501  -21.2239  -11.9487 C   0  0  0  0  0  0  0  0  0  0  0  0
   25.4916  -20.8272  -13.0414 O   0  0  0  0  0  0  0  0  0  0  0  0
   19.3779  -24.7946   -8.6977 N   0  0  0  0  0  0  0  0  0  0  0  0
   18.6149  -23.5962   -8.8757 C   0  0  0  0  0  0  0  0  0  0  0  0
   17.8469  -23.1645   -7.9308 N   0  0  0  0  0  0  0  0  0  0  0  0
   18.6877  -22.8566  -10.0813 N   0  0  0  0  0  0  0  0  0  0  0  0
   19.6418  -23.2273  -11.0932 C   0  0  0  0  0  0  0  0  0  0  0  0
   20.6957  -22.2070  -11.3704 C   0  0  0  0  0  0  0  0  0  0  0  0
   21.5860  -22.4882  -12.5428 C   0  0  0  0  0  0  0  0  0  0  0  0
   22.6364  -21.3871  -12.7050 C   0  0  2  0  0  0  0  0  0  0  0  0
   23.7007  -21.5285  -11.7659 N   0  0  0  0  0  0  0  0  0  0  0  0
   22.0386  -20.0448  -12.7476 C   0  0  0  0  0  0  0  0  0  0  0  0
   22.3635  -19.1525  -11.9030 O   0  0  0  0  0  0  0  0  0  0  0  0
   17.3106  -22.2658   -7.9976 N   0  0  0  0  0  0  0  0  0  0  0  0
   24.2174  -16.0417  -14.3798 C   0  0  0  0  0  0  0  0  0  0  0  0
   23.6978  -16.2253  -15.6819 O   0  0  0  0  0  0  0  0  0  0  0  0
   23.9548  -15.3532  -16.5928 C   0  0  0  0  0  0  0  0  0  0  0  0
   22.8696  -17.3723  -16.0810 C   0  0  0  0  0  0  0  0  0  0  0  0
   22.6098  -18.4107  -15.0755 C   0  0  1  0  0  0  0  0  0  0  0  0
   21.1940  -18.5395  -14.5998 N   0  0  0  0  0  0  0  0  0  0  0  0
   21.0873  -19.7298  -13.7410 C   0  0  0  0  0  0  0  0  0  0  0  0
   20.1087  -18.4571  -15.5522 O   0  0  0  0  0  0  0  0  0  0  0  0
   19.4995  -17.2107  -15.8212 O   0  0  0  0  0  0  0  0  0  0  0  0
  2  1  1  6
  2  3  1  0
  4  5  2  0
  4  3  1  0
  6  5  1  0
  7 12  2  0
  7  6  1  0
  8  7  1  0
  9 10  1  0
  9  8  2  0
 10 11  2  0
 11 12  1  0
 12  4  1  0
 13  2  1  0
 14 13  2  0
 16 18  1  0
 16 15  1  0
 17 16  2  0
 19 18  1  0
 20 19  1  0
 20 21  1  0
 22 21  1  1
 22 23  1  0
 23 13  1  0
 24 22  1  0
 24 25  2  0
 26 27  1  0
 27 28  2  0
 27 29  1  0
 29 30  1  0
 31 30  1  1
 31 32  1  0
 32 24  1  0
 33 34  1  0
 33 31  1  0
 35 33  2  0
M  END
$$$$
