WRQ.pdb
     RDKit          3D

 35 36  0  0  1  0  0  0  0  0999 V2000
   26.7600  -19.0182  -11.1134 N   0  0  0  0  0  0  0  0  0  0  0  0
   27.2027  -20.3530  -11.4904 C   0  0  1  0  0  0  0  0  0  0  0  0
   26.5099  -21.3705  -10.5648 C   0  0  0  0  0  0  0  0  0  0  0  0
   26.5394  -20.8977   -9.1794 C   0  0  0  0  0  0  0  0  0  0  0  0
   25.4638  -20.3981   -8.4591 C   0  0  0  0  0  0  0  0  0  0  0  0
   25.8841  -20.0451   -7.2438 N   0  0  0  0  0  0  0  0  0  0  0  0
   27.2095  -20.2889   -7.1163 C   0  0  0  0  0  0  0  0  0  0  0  0
   28.0925  -20.1104   -6.0949 C   0  0  0  0  0  0  0  0  0  0  0  0
   29.4095  -20.4644   -6.2639 C   0  0  0  0  0  0  0  0  0  0  0  0
   29.8175  -21.0000   -7.4797 C   0  0  0  0  0  0  0  0  0  0  0  0
   28.9423  -21.1819   -8.5037 C   0  0  0  0  0  0  0  0  0  0  0  0
   27.6164  -20.8282   -8.3429 C   0  0  0  0  0  0  0  0  0  0  0  0
   26.7434  -20.6150  -12.8876 C   0  0  0  0  0  0  0  0  0  0  0  0
   25.6778  -20.0927  -13.2593 O   0  0  0  0  0  0  0  0  0  0  0  0
   31.7210  -25.0020  -15.2529 N   0  0  0  0  0  0  0  0  0  0  0  0
   30.9438  -24.9535  -16.4543 C   0  0  0  0  0  0  0  0  0  0  0  0
   30.5912  -26.0449  -17.0487 N   0  0  0  0  0  0  0  0  0  0  0  0
   30.5401  -23.7163  -17.0132 N   0  0  0  0  0  0  0  0  0  0  0  0
   30.7988  -22.4908  -16.3040 C   0  0  0  0  0  0  0  0  0  0  0  0
   29.5843  -21.7909  -15.7905 C   0  0  0  0  0  0  0  0  0  0  0  0
   28.3403  -22.6218  -15.6987 C   0  0  0  0  0  0  0  0  0  0  0  0
   27.1970  -21.8224  -15.0695 C   0  0  2  0  0  0  0  0  0  0  0  0
   27.5021  -21.4240  -13.7343 N   0  0  0  0  0  0  0  0  0  0  0  0
   25.8966  -22.4908  -15.2215 C   0  0  0  0  0  0  0  0  0  0  0  0
   25.5896  -23.5020  -14.5156 O   0  0  0  0  0  0  0  0  0  0  0  0
   30.0149  -26.0567  -17.9248 N   0  0  0  0  0  0  0  0  0  0  0  0
   22.4759  -20.7095  -11.8309 C   0  0  0  0  0  0  0  0  0  0  0  0
   21.5034  -21.1380  -12.7635 O   0  0  0  0  0  0  0  0  0  0  0  0
   20.2655  -21.1731  -12.4134 C   0  0  0  0  0  0  0  0  0  0  0  0
   21.8120  -21.5508  -14.1403 C   0  0  0  0  0  0  0  0  0  0  0  0
   23.2205  -21.5445  -14.5563 C   0  0  2  0  0  0  0  0  0  0  0  0
   23.5099  -22.0452  -15.9393 N   0  0  0  0  0  0  0  0  0  0  0  0
   24.9638  -22.0082  -16.1639 C   0  0  0  0  0  0  0  0  0  0  0  0
   22.7723  -21.5110  -17.0629 O   0  0  0  0  0  0  0  0  0  0  0  0
   21.4448  -21.9336  -17.3002 O   0  0  0  0  0  0  0  0  0  0  0  0
  2  1  1  1
  2  3  1  0
  4  5  2  0
  4  3  1  0
  6  5  1  0
  7 12  2  0
  7  6  1  0
  8  7  1  0
  9 10  1  0
  9  8  2  0
 10 11  2  0
 11 12  1  0
 12  4  1  0
 13  2  1  0
 14 13  2  0
 16 18  1  0
 16 15  1  0
 17 16  2  0
 19 18  1  0
 20 19  1  0
 20 21  1  0
 22 21  1  1
 22 23  1  0
 23 13  1  0
 24 22  1  0
 24 25  2  0
 26 27  1  0
 27 28  2  0
 27 29  1  0
 29 30  1  0
 31 30  1  1
 31 32  1  0
 32 24  1  0
 33 34  1  0
 33 31  1  0
 35 33  2  0
M  END
$$$$
