WRQ.pdb
     RDKit          3D

 35 36  0  0  1  0  0  0  0  0999 V2000
   18.2421  -27.0323  -16.2905 N   0  0  0  0  0  0  0  0  0  0  0  0
   19.0967  -26.5405  -17.3618 C   0  0  1  0  0  0  0  0  0  0  0  0
   18.2238  -25.7395  -18.3460 C   0  0  0  0  0  0  0  0  0  0  0  0
   17.3431  -26.6407  -19.0916 C   0  0  0  0  0  0  0  0  0  0  0  0
   16.0275  -26.9496  -18.7770 C   0  0  0  0  0  0  0  0  0  0  0  0
   15.5633  -27.8240  -19.6704 N   0  0  0  0  0  0  0  0  0  0  0  0
   16.5210  -28.1181  -20.5808 C   0  0  0  0  0  0  0  0  0  0  0  0
   16.5470  -28.9348  -21.6703 C   0  0  0  0  0  0  0  0  0  0  0  0
   17.6920  -29.0275  -22.4244 C   0  0  0  0  0  0  0  0  0  0  0  0
   18.8073  -28.2830  -22.0590 C   0  0  0  0  0  0  0  0  0  0  0  0
   18.7890  -27.4651  -20.9735 C   0  0  0  0  0  0  0  0  0  0  0  0
   17.6423  -27.3662  -20.2091 C   0  0  0  0  0  0  0  0  0  0  0  0
   20.0944  -25.6030  -16.7639 C   0  0  0  0  0  0  0  0  0  0  0  0
   19.7032  -24.8199  -15.8807 O   0  0  0  0  0  0  0  0  0  0  0  0
   29.2029  -25.6912  -16.4471 N   0  0  0  0  0  0  0  0  0  0  0  0
   28.7351  -24.3560  -16.6673 C   0  0  0  0  0  0  0  0  0  0  0  0
   29.5492  -23.4366  -17.0682 N   0  0  0  0  0  0  0  0  0  0  0  0
   27.3767  -24.0146  -16.4583 N   0  0  0  0  0  0  0  0  0  0  0  0
   26.3401  -24.9483  -16.8123 C   0  0  0  0  0  0  0  0  0  0  0  0
   24.9471  -24.4460  -16.6228 C   0  0  0  0  0  0  0  0  0  0  0  0
   23.8523  -25.3808  -17.0395 C   0  0  0  0  0  0  0  0  0  0  0  0
   22.4786  -24.7445  -16.8159 C   0  0  2  0  0  0  0  0  0  0  0  0
   21.4206  -25.6219  -17.1972 N   0  0  0  0  0  0  0  0  0  0  0  0
   22.3860  -23.3953  -17.3922 C   0  0  0  0  0  0  0  0  0  0  0  0
   22.5099  -23.2037  -18.6424 O   0  0  0  0  0  0  0  0  0  0  0  0
   29.2545  -22.4424  -17.2243 N   0  0  0  0  0  0  0  0  0  0  0  0
   19.2696  -21.6315  -20.7929 C   0  0  0  0  0  0  0  0  0  0  0  0
   20.3154  -20.6868  -20.6777 O   0  0  0  0  0  0  0  0  0  0  0  0
   20.6356  -19.9721  -21.6988 C   0  0  0  0  0  0  0  0  0  0  0  0
   21.0778  -20.4528  -19.4428 C   0  0  0  0  0  0  0  0  0  0  0  0
   20.7842  -21.3082  -18.2856 C   0  0  2  0  0  0  0  0  0  0  0  0
   21.5615  -21.0284  -17.0348 N   0  0  0  0  0  0  0  0  0  0  0  0
   22.1537  -22.2860  -16.5517 C   0  0  0  0  0  0  0  0  0  0  0  0
   20.9494  -20.2698  -15.9662 O   0  0  0  0  0  0  0  0  0  0  0  0
   20.2179  -19.0977  -16.2628 O   0  0  0  0  0  0  0  0  0  0  0  0
  2  1  1  1
  2  3  1  0
  4  5  2  0
  4  3  1  0
  6  5  1  0
  7 12  2  0
  7  6  1  0
  8  7  1  0
  9 10  1  0
  9  8  2  0
 10 11  2  0
 11 12  1  0
 12  4  1  0
 13  2  1  0
 14 13  2  0
 16 18  1  0
 16 15  1  0
 17 16  2  0
 19 18  1  0
 20 19  1  0
 20 21  1  0
 22 21  1  6
 22 23  1  0
 23 13  1  0
 24 22  1  0
 24 25  2  0
 26 27  1  0
 27 28  2  0
 27 29  1  0
 29 30  1  0
 31 30  1  6
 31 32  1  0
 32 24  1  0
 33 34  1  0
 33 31  1  0
 35 33  2  0
M  END
$$$$
