WRQ.pdb
     RDKit          3D

 35 36  0  0  1  0  0  0  0  0999 V2000
   28.6070  -20.2823   -9.4201 N   0  0  0  0  0  0  0  0  0  0  0  0
   27.2116  -20.6561   -9.2387 C   0  0  1  0  0  0  0  0  0  0  0  0
   26.5328  -19.5800   -8.3706 C   0  0  0  0  0  0  0  0  0  0  0  0
   27.3313  -19.3180   -7.1717 C   0  0  0  0  0  0  0  0  0  0  0  0
   27.9435  -18.1182   -6.8387 C   0  0  0  0  0  0  0  0  0  0  0  0
   28.6018  -18.2731   -5.6894 N   0  0  0  0  0  0  0  0  0  0  0  0
   28.4559  -19.5388   -5.2319 C   0  0  0  0  0  0  0  0  0  0  0  0
   28.9183  -20.1855   -4.1262 C   0  0  0  0  0  0  0  0  0  0  0  0
   28.5927  -21.5051   -3.9235 C   0  0  0  0  0  0  0  0  0  0  0  0
   27.7946  -22.1580   -4.8552 C   0  0  0  0  0  0  0  0  0  0  0  0
   27.3286  -21.5193   -5.9609 C   0  0  0  0  0  0  0  0  0  0  0  0
   27.6514  -20.1927   -6.1732 C   0  0  0  0  0  0  0  0  0  0  0  0
   26.5529  -20.6483  -10.5795 C   0  0  0  0  0  0  0  0  0  0  0  0
   26.6597  -19.6239  -11.2763 O   0  0  0  0  0  0  0  0  0  0  0  0
   22.7889  -24.6258  -16.9354 N   0  0  0  0  0  0  0  0  0  0  0  0
   23.2799  -25.7222  -16.1564 C   0  0  0  0  0  0  0  0  0  0  0  0
   23.6258  -26.8272  -16.7292 N   0  0  0  0  0  0  0  0  0  0  0  0
   23.4034  -25.6205  -14.7492 N   0  0  0  0  0  0  0  0  0  0  0  0
   23.2487  -24.3419  -14.1065 C   0  0  0  0  0  0  0  0  0  0  0  0
   24.4837  -23.5044  -14.0628 C   0  0  0  0  0  0  0  0  0  0  0  0
   25.1424  -23.3797  -12.7223 C   0  0  0  0  0  0  0  0  0  0  0  0
   25.1302  -21.9265  -12.2429 C   0  0  2  0  0  0  0  0  0  0  0  0
   25.8440  -21.7673  -11.0183 N   0  0  0  0  0  0  0  0  0  0  0  0
   23.7780  -21.3501  -12.2368 C   0  0  0  0  0  0  0  0  0  0  0  0
   23.0014  -21.5038  -11.2425 O   0  0  0  0  0  0  0  0  0  0  0  0
   24.0082  -27.6483  -16.2006 N   0  0  0  0  0  0  0  0  0  0  0  0
   22.1407  -16.3281  -15.9846 C   0  0  0  0  0  0  0  0  0  0  0  0
   20.9773  -16.7323  -15.2901 O   0  0  0  0  0  0  0  0  0  0  0  0
   19.8890  -16.0613  -15.4375 C   0  0  0  0  0  0  0  0  0  0  0  0
   20.9189  -17.8963  -14.3942 C   0  0  0  0  0  0  0  0  0  0  0  0
   22.1242  -18.7266  -14.2727 C   0  0  2  0  0  0  0  0  0  0  0  0
   22.0236  -19.9211  -13.3726 N   0  0  0  0  0  0  0  0  0  0  0  0
   23.3241  -20.6093  -13.3487 C   0  0  0  0  0  0  0  0  0  0  0  0
   20.9221  -20.8451  -13.5300 O   0  0  0  0  0  0  0  0  0  0  0  0
   19.6853  -20.5822  -12.8990 O   0  0  0  0  0  0  0  0  0  0  0  0
  2  1  1  6
  2  3  1  0
  4  5  2  0
  4  3  1  0
  6  5  1  0
  7 12  2  0
  7  6  1  0
  8  7  1  0
  9 10  1  0
  9  8  2  0
 10 11  2  0
 11 12  1  0
 12  4  1  0
 13  2  1  0
 14 13  2  0
 16 18  1  0
 16 15  1  0
 17 16  2  0
 19 18  1  0
 20 19  1  0
 20 21  1  0
 22 21  1  1
 22 23  1  0
 23 13  1  0
 24 22  1  0
 24 25  2  0
 26 27  1  0
 27 28  2  0
 27 29  1  0
 29 30  1  0
 31 30  1  1
 31 32  1  0
 32 24  1  0
 33 34  1  0
 33 31  1  0
 35 33  2  0
M  END
$$$$
