WRQ.pdb
     RDKit          3D

 35 36  0  0  1  0  0  0  0  0999 V2000
   27.1321  -21.8791   -9.8818 N   0  0  0  0  0  0  0  0  0  0  0  0
   26.2304  -20.7874   -9.5431 C   0  0  1  0  0  0  0  0  0  0  0  0
   27.0755  -19.6010   -9.0427 C   0  0  0  0  0  0  0  0  0  0  0  0
   28.0643  -20.0598   -8.0651 C   0  0  0  0  0  0  0  0  0  0  0  0
   29.1666  -20.8611   -8.3261 C   0  0  0  0  0  0  0  0  0  0  0  0
   29.8157  -21.0887   -7.1837 N   0  0  0  0  0  0  0  0  0  0  0  0
   29.1898  -20.4678   -6.1564 C   0  0  0  0  0  0  0  0  0  0  0  0
   29.4488  -20.3905   -4.8217 C   0  0  0  0  0  0  0  0  0  0  0  0
   28.6142  -19.6635   -4.0073 C   0  0  0  0  0  0  0  0  0  0  0  0
   27.5161  -19.0183   -4.5636 C   0  0  0  0  0  0  0  0  0  0  0  0
   27.2512  -19.0900   -5.8949 C   0  0  0  0  0  0  0  0  0  0  0  0
   28.0846  -19.8192   -6.7212 C   0  0  0  0  0  0  0  0  0  0  0  0
   25.5322  -20.3599  -10.7928 C   0  0  0  0  0  0  0  0  0  0  0  0
   24.7801  -19.3715  -10.7322 O   0  0  0  0  0  0  0  0  0  0  0  0
   29.6010  -21.8345  -15.7236 N   0  0  0  0  0  0  0  0  0  0  0  0
   28.5189  -21.9583  -16.6530 C   0  0  0  0  0  0  0  0  0  0  0  0
   28.3927  -23.0254  -17.3701 N   0  0  0  0  0  0  0  0  0  0  0  0
   27.5637  -20.9236  -16.8033 N   0  0  0  0  0  0  0  0  0  0  0  0
   27.6584  -19.7373  -15.9938 C   0  0  0  0  0  0  0  0  0  0  0  0
   26.7156  -19.6859  -14.8374 C   0  0  0  0  0  0  0  0  0  0  0  0
   26.1528  -21.0021  -14.3934 C   0  0  0  0  0  0  0  0  0  0  0  0
   25.1459  -20.8082  -13.2574 C   0  0  2  0  0  0  0  0  0  0  0  0
   25.7318  -21.0622  -11.9819 N   0  0  0  0  0  0  0  0  0  0  0  0
   23.8844  -21.5229  -13.4992 C   0  0  0  0  0  0  0  0  0  0  0  0
   23.6440  -22.6404  -12.9437 O   0  0  0  0  0  0  0  0  0  0  0  0
   27.5840  -23.1845  -18.0184 N   0  0  0  0  0  0  0  0  0  0  0  0
   19.6366  -23.0335  -10.8746 C   0  0  0  0  0  0  0  0  0  0  0  0
   19.5561  -21.6243  -10.9569 O   0  0  0  0  0  0  0  0  0  0  0  0
   19.2229  -20.9491   -9.9132 C   0  0  0  0  0  0  0  0  0  0  0  0
   19.8386  -20.8559  -12.1779 C   0  0  0  0  0  0  0  0  0  0  0  0
   21.2325  -20.7873  -12.6353 C   0  0  2  0  0  0  0  0  0  0  0  0
   21.4699  -21.0455  -14.0927 N   0  0  0  0  0  0  0  0  0  0  0  0
   22.9148  -20.9667  -14.3604 C   0  0  0  0  0  0  0  0  0  0  0  0
   20.6938  -20.3306  -15.0819 O   0  0  0  0  0  0  0  0  0  0  0  0
   19.4979  -20.8935  -15.5817 O   0  0  0  0  0  0  0  0  0  0  0  0
  2  1  1  6
  2  3  1  0
  4  5  2  0
  4  3  1  0
  6  5  1  0
  7 12  2  0
  7  6  1  0
  8  7  1  0
  9 10  1  0
  9  8  2  0
 10 11  2  0
 11 12  1  0
 12  4  1  0
 13  2  1  0
 14 13  2  0
 16 18  1  0
 16 15  1  0
 17 16  2  0
 19 18  1  0
 20 19  1  0
 20 21  1  0
 22 21  1  6
 22 23  1  0
 23 13  1  0
 24 22  1  0
 24 25  2  0
 26 27  1  0
 27 28  2  0
 27 29  1  0
 29 30  1  0
 31 30  1  1
 31 32  1  0
 32 24  1  0
 33 34  1  0
 33 31  1  0
 35 33  2  0
M  END
$$$$
