WRQ.pdb
     RDKit          3D

 35 36  0  0  1  0  0  0  0  0999 V2000
   25.0133  -20.3840  -17.1705 N   0  0  0  0  0  0  0  0  0  0  0  0
   25.7863  -19.4899  -16.3204 C   0  0  1  0  0  0  0  0  0  0  0  0
   24.8809  -18.3146  -15.9067 C   0  0  0  0  0  0  0  0  0  0  0  0
   24.7478  -17.3638  -17.0122 C   0  0  0  0  0  0  0  0  0  0  0  0
   23.5694  -17.0096  -17.6534 C   0  0  0  0  0  0  0  0  0  0  0  0
   23.8503  -16.1401  -18.6246 N   0  0  0  0  0  0  0  0  0  0  0  0
   25.1807  -15.8930  -18.6631 C   0  0  0  0  0  0  0  0  0  0  0  0
   25.9548  -15.0967  -19.4513 C   0  0  0  0  0  0  0  0  0  0  0  0
   27.3126  -15.0484  -19.2452 C   0  0  0  0  0  0  0  0  0  0  0  0
   27.8728  -15.8171  -18.2319 C   0  0  0  0  0  0  0  0  0  0  0  0
   27.1069  -16.6137  -17.4404 C   0  0  0  0  0  0  0  0  0  0  0  0
   25.7410  -16.6690  -17.6409 C   0  0  0  0  0  0  0  0  0  0  0  0
   26.1623  -20.2384  -15.0834 C   0  0  0  0  0  0  0  0  0  0  0  0
   25.4001  -21.1397  -14.6922 O   0  0  0  0  0  0  0  0  0  0  0  0
   31.2042  -22.3923   -9.1629 N   0  0  0  0  0  0  0  0  0  0  0  0
   32.0372  -22.3812  -10.3274 C   0  0  0  0  0  0  0  0  0  0  0  0
   32.8610  -23.3510  -10.5503 N   0  0  0  0  0  0  0  0  0  0  0  0
   31.9744  -21.3170  -11.2598 N   0  0  0  0  0  0  0  0  0  0  0  0
   31.0210  -20.2551  -11.0726 C   0  0  0  0  0  0  0  0  0  0  0  0
   29.6272  -20.5765  -11.4999 C   0  0  0  0  0  0  0  0  0  0  0  0
   29.1764  -19.9511  -12.7851 C   0  0  0  0  0  0  0  0  0  0  0  0
   27.7201  -20.3132  -13.0854 C   0  0  2  0  0  0  0  0  0  0  0  0
   27.3379  -19.9203  -14.4022 N   0  0  0  0  0  0  0  0  0  0  0  0
   26.8024  -19.8657  -12.0278 C   0  0  0  0  0  0  0  0  0  0  0  0
   26.3870  -18.6655  -11.9812 O   0  0  0  0  0  0  0  0  0  0  0  0
   33.5090  -23.3707  -11.3747 N   0  0  0  0  0  0  0  0  0  0  0  0
   21.4163  -22.2629  -13.3319 C   0  0  0  0  0  0  0  0  0  0  0  0
   21.7171  -21.0567  -12.6582 O   0  0  0  0  0  0  0  0  0  0  0  0
   21.1712  -19.9602  -13.0529 C   0  0  0  0  0  0  0  0  0  0  0  0
   22.6266  -20.9643  -11.5070 C   0  0  0  0  0  0  0  0  0  0  0  0
   24.0687  -20.9029  -11.7783 C   0  0  2  0  0  0  0  0  0  0  0  0
   24.9709  -20.8485  -10.5823 N   0  0  0  0  0  0  0  0  0  0  0  0
   26.3668  -20.7771  -11.0426 C   0  0  0  0  0  0  0  0  0  0  0  0
   24.7994  -21.8064   -9.5123 O   0  0  0  0  0  0  0  0  0  0  0  0
   23.9068  -21.5278   -8.4527 O   0  0  0  0  0  0  0  0  0  0  0  0
  2  1  1  6
  2  3  1  0
  4  5  2  0
  4  3  1  0
  6  5  1  0
  7 12  2  0
  7  6  1  0
  8  7  1  0
  9 10  1  0
  9  8  2  0
 10 11  2  0
 11 12  1  0
 12  4  1  0
 13  2  1  0
 14 13  2  0
 16 18  1  0
 16 15  1  0
 17 16  2  0
 19 18  1  0
 20 19  1  0
 20 21  1  0
 22 21  1  1
 22 23  1  0
 23 13  1  0
 24 22  1  0
 24 25  2  0
 26 27  1  0
 27 28  2  0
 27 29  1  0
 29 30  1  0
 31 30  1  6
 31 32  1  0
 32 24  1  0
 33 34  1  0
 33 31  1  0
 35 33  2  0
M  END
$$$$
