WRQ.pdb
     RDKit          3D

 35 36  0  0  1  0  0  0  0  0999 V2000
   25.4287  -27.2583  -17.3573 N   0  0  0  0  0  0  0  0  0  0  0  0
   25.3237  -25.9731  -18.0333 C   0  0  1  0  0  0  0  0  0  0  0  0
   23.8942  -25.8360  -18.5899 C   0  0  0  0  0  0  0  0  0  0  0  0
   23.8561  -26.2448  -19.9954 C   0  0  0  0  0  0  0  0  0  0  0  0
   23.9620  -27.5419  -20.4765 C   0  0  0  0  0  0  0  0  0  0  0  0
   23.9111  -27.5142  -21.8088 N   0  0  0  0  0  0  0  0  0  0  0  0
   23.7740  -26.2407  -22.2469 C   0  0  0  0  0  0  0  0  0  0  0  0
   23.6748  -25.6918  -23.4893 C   0  0  0  0  0  0  0  0  0  0  0  0
   23.5373  -24.3311  -23.6233 C   0  0  0  0  0  0  0  0  0  0  0  0
   23.5025  -23.5371  -22.4832 C   0  0  0  0  0  0  0  0  0  0  0  0
   23.6001  -24.0774  -21.2397 C   0  0  0  0  0  0  0  0  0  0  0  0
   23.7393  -25.4445  -21.0955 C   0  0  0  0  0  0  0  0  0  0  0  0
   25.5263  -24.8978  -17.0162 C   0  0  0  0  0  0  0  0  0  0  0  0
   25.1018  -25.0965  -15.8644 O   0  0  0  0  0  0  0  0  0  0  0  0
   31.5721  -23.8911  -14.9868 N   0  0  0  0  0  0  0  0  0  0  0  0
   31.5487  -24.3876  -16.3296 C   0  0  0  0  0  0  0  0  0  0  0  0
   31.8788  -25.6113  -16.5793 N   0  0  0  0  0  0  0  0  0  0  0  0
   31.1600  -23.5566  -17.4085 N   0  0  0  0  0  0  0  0  0  0  0  0
   30.1890  -22.5152  -17.1977 C   0  0  0  0  0  0  0  0  0  0  0  0
   28.8087  -22.9929  -16.8891 C   0  0  0  0  0  0  0  0  0  0  0  0
   27.7545  -21.9316  -16.7974 C   0  0  0  0  0  0  0  0  0  0  0  0
   26.3755  -22.5528  -16.5641 C   0  0  2  0  0  0  0  0  0  0  0  0
   26.1752  -23.7137  -17.3683 N   0  0  0  0  0  0  0  0  0  0  0  0
   25.2933  -21.5616  -16.6486 C   0  0  0  0  0  0  0  0  0  0  0  0
   25.0364  -20.9587  -17.7375 O   0  0  0  0  0  0  0  0  0  0  0  0
   31.8801  -26.0156  -17.5470 N   0  0  0  0  0  0  0  0  0  0  0  0
   20.7101  -19.0347  -12.7445 C   0  0  0  0  0  0  0  0  0  0  0  0
   20.9685  -20.4035  -12.9872 O   0  0  0  0  0  0  0  0  0  0  0  0
   20.0833  -21.2799  -12.6638 C   0  0  0  0  0  0  0  0  0  0  0  0
   22.2038  -20.9091  -13.6030 C   0  0  0  0  0  0  0  0  0  0  0  0
   23.2463  -19.9328  -13.9452 C   0  0  2  0  0  0  0  0  0  0  0  0
   23.7908  -19.9994  -15.3402 N   0  0  0  0  0  0  0  0  0  0  0  0
   24.5179  -21.2679  -15.5068 C   0  0  0  0  0  0  0  0  0  0  0  0
   24.5278  -18.8758  -15.8753 O   0  0  0  0  0  0  0  0  0  0  0  0
   23.8448  -17.8477  -16.5635 O   0  0  0  0  0  0  0  0  0  0  0  0
  2  1  1  1
  2  3  1  0
  4  5  2  0
  4  3  1  0
  6  5  1  0
  7 12  2  0
  7  6  1  0
  8  7  1  0
  9 10  1  0
  9  8  2  0
 10 11  2  0
 11 12  1  0
 12  4  1  0
 13  2  1  0
 14 13  2  0
 16 18  1  0
 16 15  1  0
 17 16  2  0
 19 18  1  0
 20 19  1  0
 20 21  1  0
 22 21  1  6
 22 23  1  0
 23 13  1  0
 24 22  1  0
 24 25  2  0
 26 27  1  0
 27 28  2  0
 27 29  1  0
 29 30  1  0
 31 30  1  6
 31 32  1  0
 32 24  1  0
 33 34  1  0
 33 31  1  0
 35 33  2  0
M  END
$$$$
