SEM.pdb
     RDKit          3D

 24 23  0  0  1  0  0  0  0  0999 V2000
   17.2266  -13.3186  -14.6415 O   0  0  0  0  0  0  0  0  0  0  0  0
   17.9336  -12.2499  -15.1568 C   0  0  0  0  0  0  0  0  0  0  0  0
   17.0528  -11.2838  -15.9053 C   0  0  2  0  0  0  0  0  0  0  0  0
   16.5153  -11.8568  -17.1038 N   0  0  0  0  0  0  0  0  0  0  0  0
   17.8717  -10.0591  -16.2063 C   0  0  0  0  0  0  0  0  0  0  0  0
   18.8866  -10.2173  -16.9191 O   0  0  0  0  0  0  0  0  0  0  0  0
   17.5204   -8.7962  -15.7147 N   0  0  0  0  0  0  0  0  0  0  0  0
   18.3466   -7.6065  -15.9928 C   0  0  1  0  0  0  0  0  0  0  0  0
   17.4826   -6.4268  -15.7530 C   0  0  0  0  0  0  0  0  0  0  0  0
   18.0885   -5.0812  -15.7427 C   0  0  0  0  0  0  0  0  0  0  0  0
   17.1195   -3.9759  -15.5366 C   0  0  0  0  0  0  0  0  0  0  0  0
   15.9029   -4.2042  -15.3514 O   0  0  0  0  0  0  0  0  0  0  0  0
   19.6083   -7.6819  -15.2580 C   0  0  0  0  0  0  0  0  0  0  0  0
   19.5663   -8.0838  -14.0323 O   0  0  0  0  0  0  0  0  0  0  0  0
   17.5207   -2.6377  -15.5402 O   0  0  0  0  0  0  0  0  0  0  0  0
   27.1280   -9.9072  -14.9416 C   0  0  0  0  0  0  0  0  0  0  0  0
   25.6329   -9.5237  -15.8078 S   0  0  0  0  0  0  0  0  0  0  0  0
   24.4109   -8.5540  -14.9454 C   0  0  0  0  0  0  0  0  0  0  0  0
   23.0975   -8.3917  -15.6249 C   0  0  0  0  0  0  0  0  0  0  0  0
   22.0971   -7.5122  -14.9377 C   0  0  2  0  0  0  0  0  0  0  0  0
   20.8889   -7.3612  -15.7496 N   0  0  0  0  0  0  0  0  0  0  0  0
   22.6299   -6.2054  -14.5293 C   0  0  0  0  0  0  0  0  0  0  0  0
   23.2539   -5.8815  -13.3597 O   0  0  0  0  0  0  0  0  0  0  0  0
   22.4967   -5.2412  -15.3741 O   0  0  0  0  0  0  0  0  0  0  0  0
  2  3  1  0
  2  1  1  0
  3  4  1  6
  5  6  2  0
  5  3  1  0
  7  5  1  0
  8  7  1  0
  8 13  1  0
  8  9  1  1
 10 11  1  0
 10  9  1  0
 11 15  1  0
 12 11  2  0
 13 21  1  0
 14 13  2  0
 17 16  1  0
 18 17  1  0
 20 19  1  6
 19 18  1  0
 20 22  1  0
 21 20  1  0
 22 24  2  0
 22 23  1  0
M  END
$$$$
