SEM.pdb
     RDKit          3D

 24 23  0  0  1  0  0  0  0  0999 V2000
   18.2519  -12.6810  -14.2465 O   0  0  0  0  0  0  0  0  0  0  0  0
   17.1444  -11.9810  -14.6835 C   0  0  0  0  0  0  0  0  0  0  0  0
   17.1505  -11.7657  -16.1745 C   0  0  2  0  0  0  0  0  0  0  0  0
   17.5267  -12.9481  -16.8916 N   0  0  0  0  0  0  0  0  0  0  0  0
   18.0899  -10.6286  -16.4674 C   0  0  0  0  0  0  0  0  0  0  0  0
   19.2108  -10.9258  -16.9347 O   0  0  0  0  0  0  0  0  0  0  0  0
   17.7331   -9.2957  -16.2304 N   0  0  0  0  0  0  0  0  0  0  0  0
   18.5939   -8.1807  -16.6676 C   0  0  1  0  0  0  0  0  0  0  0  0
   17.7117   -6.9995  -16.8167 C   0  0  0  0  0  0  0  0  0  0  0  0
   18.3142   -5.6825  -17.1001 C   0  0  0  0  0  0  0  0  0  0  0  0
   17.3333   -4.5758  -17.2263 C   0  0  0  0  0  0  0  0  0  0  0  0
   16.7673   -4.0911  -16.2206 O   0  0  0  0  0  0  0  0  0  0  0  0
   19.7500   -8.0545  -15.7815 C   0  0  0  0  0  0  0  0  0  0  0  0
   19.5578   -8.2219  -14.5163 O   0  0  0  0  0  0  0  0  0  0  0  0
   16.9996   -4.0283  -18.4676 O   0  0  0  0  0  0  0  0  0  0  0  0
   26.5829  -10.9934  -14.8409 C   0  0  0  0  0  0  0  0  0  0  0  0
   25.7465   -9.6714  -15.6688 S   0  0  0  0  0  0  0  0  0  0  0  0
   24.1424   -9.2006  -15.0500 C   0  0  0  0  0  0  0  0  0  0  0  0
   23.4614   -8.0861  -15.7621 C   0  0  0  0  0  0  0  0  0  0  0  0
   22.1558   -7.6276  -15.1860 C   0  0  2  0  0  0  0  0  0  0  0  0
   21.0753   -7.7678  -16.1630 N   0  0  0  0  0  0  0  0  0  0  0  0
   22.1929   -6.2701  -14.6256 C   0  0  0  0  0  0  0  0  0  0  0  0
   22.5903   -5.8877  -13.3772 O   0  0  0  0  0  0  0  0  0  0  0  0
   21.8053   -5.3172  -15.4019 O   0  0  0  0  0  0  0  0  0  0  0  0
  2  3  1  0
  2  1  1  0
  3  4  1  6
  5  6  2  0
  5  3  1  0
  7  5  1  0
  8  7  1  0
  8 13  1  0
  8  9  1  1
 10 11  1  0
 10  9  1  0
 11 15  1  0
 12 11  2  0
 13 21  1  0
 14 13  2  0
 17 16  1  0
 18 17  1  0
 20 19  1  6
 19 18  1  0
 20 22  1  0
 21 20  1  0
 22 24  2  0
 22 23  1  0
M  END
$$$$
