SEM.pdb
     RDKit          3D

 24 23  0  0  1  0  0  0  0  0999 V2000
   15.0510   -9.7219  -14.6998 O   0  0  0  0  0  0  0  0  0  0  0  0
   16.1761   -9.8595  -15.4889 C   0  0  0  0  0  0  0  0  0  0  0  0
   17.2775  -10.6172  -14.7944 C   0  0  2  0  0  0  0  0  0  0  0  0
   16.9116  -11.9752  -14.5194 N   0  0  0  0  0  0  0  0  0  0  0  0
   17.6136   -9.8764  -13.5298 C   0  0  0  0  0  0  0  0  0  0  0  0
   17.2112  -10.3759  -12.4566 O   0  0  0  0  0  0  0  0  0  0  0  0
   18.3433   -8.6816  -13.5450 N   0  0  0  0  0  0  0  0  0  0  0  0
   18.7145   -7.9921  -12.2952 C   0  0  1  0  0  0  0  0  0  0  0  0
   19.8211   -7.0673  -12.6356 C   0  0  0  0  0  0  0  0  0  0  0  0
   20.3125   -6.1254  -11.6114 C   0  0  0  0  0  0  0  0  0  0  0  0
   21.5070   -5.3454  -12.0210 C   0  0  0  0  0  0  0  0  0  0  0  0
   22.6460   -5.6224  -11.5821 O   0  0  0  0  0  0  0  0  0  0  0  0
   17.5281   -7.4226  -11.6582 C   0  0  0  0  0  0  0  0  0  0  0  0
   16.6293   -6.8990  -12.4223 O   0  0  0  0  0  0  0  0  0  0  0  0
   21.4135   -4.2720  -12.9103 O   0  0  0  0  0  0  0  0  0  0  0  0
   11.3972   -7.4066   -6.8395 C   0  0  0  0  0  0  0  0  0  0  0  0
   12.8584   -8.1006   -7.5580 S   0  0  0  0  0  0  0  0  0  0  0  0
   13.9817   -6.9827   -8.3740 C   0  0  0  0  0  0  0  0  0  0  0  0
   15.1481   -7.6022   -9.0584 C   0  0  0  0  0  0  0  0  0  0  0  0
   16.1008   -6.6615   -9.7325 C   0  0  2  0  0  0  0  0  0  0  0  0
   17.2509   -7.3838  -10.2776 N   0  0  0  0  0  0  0  0  0  0  0  0
   16.5299   -5.5381   -8.8886 C   0  0  0  0  0  0  0  0  0  0  0  0
   15.7833   -4.4819   -8.4533 O   0  0  0  0  0  0  0  0  0  0  0  0
   17.7609   -5.5435   -8.5072 O   0  0  0  0  0  0  0  0  0  0  0  0
  2  3  1  0
  2  1  1  0
  3  4  1  1
  5  6  2  0
  5  3  1  0
  7  5  1  0
  8  7  1  0
  8 13  1  0
  8  9  1  6
 10 11  1  0
 10  9  1  0
 11 15  1  0
 12 11  2  0
 13 21  1  0
 14 13  2  0
 17 16  1  0
 18 17  1  0
 20 19  1  1
 19 18  1  0
 20 22  1  0
 21 20  1  0
 22 24  2  0
 22 23  1  0
M  END
$$$$
