SEM.pdb
     RDKit          3D

 24 23  0  0  1  0  0  0  0  0999 V2000
   27.5907  -17.7612  -15.7008 O   0  0  0  0  0  0  0  0  0  0  0  0
   26.6753  -17.6863  -14.6694 C   0  0  0  0  0  0  0  0  0  0  0  0
   25.2838  -18.0641  -15.1057 C   0  0  2  0  0  0  0  0  0  0  0  0
   25.2502  -19.3315  -15.7736 N   0  0  0  0  0  0  0  0  0  0  0  0
   24.7706  -16.9655  -15.9951 C   0  0  0  0  0  0  0  0  0  0  0  0
   24.1242  -17.3118  -17.0077 O   0  0  0  0  0  0  0  0  0  0  0  0
   25.0019  -15.6147  -15.7092 N   0  0  0  0  0  0  0  0  0  0  0  0
   24.3592  -14.5427  -16.4924 C   0  0  1  0  0  0  0  0  0  0  0  0
   22.8977  -14.7666  -16.3950 C   0  0  0  0  0  0  0  0  0  0  0  0
   21.9760  -13.7379  -16.9145 C   0  0  0  0  0  0  0  0  0  0  0  0
   20.5379  -14.0593  -16.7363 C   0  0  0  0  0  0  0  0  0  0  0  0
   19.8260  -14.4117  -17.7036 O   0  0  0  0  0  0  0  0  0  0  0  0
   24.8729  -13.2368  -16.0820 C   0  0  0  0  0  0  0  0  0  0  0  0
   24.9341  -12.9861  -14.8174 O   0  0  0  0  0  0  0  0  0  0  0  0
   19.9179  -13.9831  -15.4867 O   0  0  0  0  0  0  0  0  0  0  0  0
   30.7915  -10.4606  -16.8325 C   0  0  0  0  0  0  0  0  0  0  0  0
   29.5900   -9.2221  -17.2262 S   0  0  0  0  0  0  0  0  0  0  0  0
   27.9345   -9.4599  -16.6094 C   0  0  0  0  0  0  0  0  0  0  0  0
   27.2694  -10.7378  -16.9802 C   0  0  0  0  0  0  0  0  0  0  0  0
   25.9016  -10.9656  -16.4108 C   0  0  2  0  0  0  0  0  0  0  0  0
   25.3191  -12.2039  -16.9295 N   0  0  0  0  0  0  0  0  0  0  0  0
   24.9839   -9.8319  -16.5867 C   0  0  0  0  0  0  0  0  0  0  0  0
   24.9520   -8.6611  -15.8862 O   0  0  0  0  0  0  0  0  0  0  0  0
   24.0976   -9.9488  -17.5150 O   0  0  0  0  0  0  0  0  0  0  0  0
  2  3  1  0
  2  1  1  0
  3  4  1  6
  5  6  2  0
  5  3  1  0
  7  5  1  0
  8  7  1  0
  8 13  1  0
  8  9  1  1
 10 11  1  0
 10  9  1  0
 11 15  1  0
 12 11  2  0
 13 21  1  0
 14 13  2  0
 17 16  1  0
 18 17  1  0
 20 19  1  6
 19 18  1  0
 20 22  1  0
 21 20  1  0
 22 24  2  0
 22 23  1  0
M  END
$$$$
