SEM.pdb
     RDKit          3D

 24 23  0  0  1  0  0  0  0  0999 V2000
   19.1801  -13.0078  -14.3224 O   0  0  0  0  0  0  0  0  0  0  0  0
   20.1386  -12.2411  -14.9556 C   0  0  0  0  0  0  0  0  0  0  0  0
   19.5362  -11.1667  -15.8229 C   0  0  2  0  0  0  0  0  0  0  0  0
   18.8274  -11.7089  -16.9442 N   0  0  0  0  0  0  0  0  0  0  0  0
   20.6513  -10.2617  -16.2687 C   0  0  0  0  0  0  0  0  0  0  0  0
   21.3028  -10.6186  -17.2744 O   0  0  0  0  0  0  0  0  0  0  0  0
   20.9523   -9.0725  -15.5941 N   0  0  0  0  0  0  0  0  0  0  0  0
   22.0363   -8.1831  -16.0513 C   0  0  1  0  0  0  0  0  0  0  0  0
   21.7603   -6.8479  -15.4710 C   0  0  0  0  0  0  0  0  0  0  0  0
   22.7833   -5.7901  -15.5808 C   0  0  0  0  0  0  0  0  0  0  0  0
   22.4590   -4.5463  -14.8385 C   0  0  0  0  0  0  0  0  0  0  0  0
   22.7517   -4.4164  -13.6285 O   0  0  0  0  0  0  0  0  0  0  0  0
   23.3388   -8.7861  -15.7728 C   0  0  0  0  0  0  0  0  0  0  0  0
   23.5619   -9.2060  -14.5730 O   0  0  0  0  0  0  0  0  0  0  0  0
   21.8152   -3.4703  -15.4546 O   0  0  0  0  0  0  0  0  0  0  0  0
   28.0944  -14.3995  -14.9869 C   0  0  0  0  0  0  0  0  0  0  0  0
   26.6762  -13.5256  -15.5850 S   0  0  0  0  0  0  0  0  0  0  0  0
   26.7635  -11.7455  -15.6183 C   0  0  0  0  0  0  0  0  0  0  0  0
   25.5466  -11.0339  -16.0934 C   0  0  0  0  0  0  0  0  0  0  0  0
   25.6765   -9.5540  -16.2930 C   0  0  2  0  0  0  0  0  0  0  0  0
   24.3959   -8.9653  -16.6866 N   0  0  0  0  0  0  0  0  0  0  0  0
   26.7472   -9.1673  -17.2216 C   0  0  0  0  0  0  0  0  0  0  0  0
   28.0864   -9.0854  -16.9717 O   0  0  0  0  0  0  0  0  0  0  0  0
   26.3863   -8.8680  -18.4220 O   0  0  0  0  0  0  0  0  0  0  0  0
  2  3  1  0
  2  1  1  0
  3  4  1  6
  5  6  2  0
  5  3  1  0
  7  5  1  0
  8  7  1  0
  8 13  1  0
  8  9  1  1
 10 11  1  0
 10  9  1  0
 11 15  1  0
 12 11  2  0
 13 21  1  0
 14 13  2  0
 17 16  1  0
 18 17  1  0
 20 19  1  6
 19 18  1  0
 20 22  1  0
 21 20  1  0
 22 24  2  0
 22 23  1  0
M  END
$$$$
