SEM.pdb
     RDKit          3D

 24 23  0  0  1  0  0  0  0  0999 V2000
   17.2295  -12.8012  -13.7217 O   0  0  0  0  0  0  0  0  0  0  0  0
   18.1374  -11.9467  -14.3158 C   0  0  0  0  0  0  0  0  0  0  0  0
   18.0145  -11.9289  -15.8171 C   0  0  2  0  0  0  0  0  0  0  0  0
   18.2810  -13.2115  -16.3983 N   0  0  0  0  0  0  0  0  0  0  0  0
   18.9629  -10.8858  -16.3402 C   0  0  0  0  0  0  0  0  0  0  0  0
   19.9284  -11.2899  -17.0240 O   0  0  0  0  0  0  0  0  0  0  0  0
   18.7799   -9.5228  -16.0778 N   0  0  0  0  0  0  0  0  0  0  0  0
   19.6259   -8.4972  -16.7164 C   0  0  1  0  0  0  0  0  0  0  0  0
   18.8608   -7.2292  -16.6690 C   0  0  0  0  0  0  0  0  0  0  0  0
   19.5123   -5.9789  -17.1049 C   0  0  0  0  0  0  0  0  0  0  0  0
   18.6762   -4.7638  -16.9395 C   0  0  0  0  0  0  0  0  0  0  0  0
   17.9375   -4.3525  -17.8625 O   0  0  0  0  0  0  0  0  0  0  0  0
   20.9634   -8.5033  -16.1260 C   0  0  0  0  0  0  0  0  0  0  0  0
   21.0534   -8.4077  -14.8420 O   0  0  0  0  0  0  0  0  0  0  0  0
   18.6765   -4.0284  -15.7516 O   0  0  0  0  0  0  0  0  0  0  0  0
   28.2875  -11.3701  -15.7080 C   0  0  0  0  0  0  0  0  0  0  0  0
   26.6531  -11.2633  -16.3788 S   0  0  0  0  0  0  0  0  0  0  0  0
   25.6759   -9.8399  -15.9354 C   0  0  0  0  0  0  0  0  0  0  0  0
   24.2899   -9.7973  -16.4741 C   0  0  0  0  0  0  0  0  0  0  0  0
   23.4770   -8.5875  -16.1243 C   0  0  2  0  0  0  0  0  0  0  0  0
   22.1874   -8.6064  -16.8158 N   0  0  0  0  0  0  0  0  0  0  0  0
   24.1768   -7.3138  -16.3393 C   0  0  0  0  0  0  0  0  0  0  0  0
   24.2437   -6.5756  -17.4852 O   0  0  0  0  0  0  0  0  0  0  0  0
   24.8067   -6.8261  -15.3262 O   0  0  0  0  0  0  0  0  0  0  0  0
  2  3  1  0
  2  1  1  0
  3  4  1  6
  5  6  2  0
  5  3  1  0
  7  5  1  0
  8  7  1  0
  8 13  1  0
  8  9  1  1
 10 11  1  0
 10  9  1  0
 11 15  1  0
 12 11  2  0
 13 21  1  0
 14 13  2  0
 17 16  1  0
 18 17  1  0
 20 19  1  6
 19 18  1  0
 20 22  1  0
 21 20  1  0
 22 24  2  0
 22 23  1  0
M  END
$$$$
