SEM.pdb
     RDKit          3D

 24 23  0  0  1  0  0  0  0  0999 V2000
   21.4226  -14.8101  -18.8839 O   0  0  0  0  0  0  0  0  0  0  0  0
   21.2888  -13.4762  -18.5520 C   0  0  0  0  0  0  0  0  0  0  0  0
   20.9710  -12.6145  -19.7461 C   0  0  2  0  0  0  0  0  0  0  0  0
   22.0067  -12.6560  -20.7358 N   0  0  0  0  0  0  0  0  0  0  0  0
   20.7467  -11.2127  -19.2504 C   0  0  0  0  0  0  0  0  0  0  0  0
   21.6094  -10.3598  -19.5532 O   0  0  0  0  0  0  0  0  0  0  0  0
   19.6260  -10.8703  -18.4844 N   0  0  0  0  0  0  0  0  0  0  0  0
   19.4185   -9.4929  -17.9995 C   0  0  1  0  0  0  0  0  0  0  0  0
   17.9529   -9.2863  -17.9289 C   0  0  0  0  0  0  0  0  0  0  0  0
   17.1366   -9.5019  -19.1392 C   0  0  0  0  0  0  0  0  0  0  0  0
   15.6798   -9.3016  -18.9379 C   0  0  0  0  0  0  0  0  0  0  0  0
   15.0913   -8.2992  -19.4022 O   0  0  0  0  0  0  0  0  0  0  0  0
   20.1941   -9.2614  -16.7819 C   0  0  0  0  0  0  0  0  0  0  0  0
   20.3328  -10.2481  -15.9616 O   0  0  0  0  0  0  0  0  0  0  0  0
   14.9042  -10.2188  -18.2245 O   0  0  0  0  0  0  0  0  0  0  0  0
   26.9689  -10.2576  -14.5367 C   0  0  0  0  0  0  0  0  0  0  0  0
   25.5455  -10.1118  -15.5787 S   0  0  0  0  0  0  0  0  0  0  0  0
   24.2373   -9.0306  -15.0336 C   0  0  0  0  0  0  0  0  0  0  0  0
   23.0219   -8.9815  -15.8899 C   0  0  0  0  0  0  0  0  0  0  0  0
   21.9460   -8.0288  -15.4641 C   0  0  2  0  0  0  0  0  0  0  0  0
   20.8207   -8.0592  -16.3992 N   0  0  0  0  0  0  0  0  0  0  0  0
   22.4166   -6.6547  -15.2431 C   0  0  0  0  0  0  0  0  0  0  0  0
   23.0257   -6.1441  -14.1337 O   0  0  0  0  0  0  0  0  0  0  0  0
   22.2370   -5.8233  -16.2113 O   0  0  0  0  0  0  0  0  0  0  0  0
  2  3  1  0
  2  1  1  0
  3  4  1  6
  5  6  2  0
  5  3  1  0
  7  5  1  0
  8  7  1  0
  8 13  1  0
  8  9  1  1
 10 11  1  0
 10  9  1  0
 11 15  1  0
 12 11  2  0
 13 21  1  0
 14 13  2  0
 17 16  1  0
 18 17  1  0
 20 19  1  6
 19 18  1  0
 20 22  1  0
 21 20  1  0
 22 24  2  0
 22 23  1  0
M  END
$$$$
