SEM.pdb
     RDKit          3D

 24 23  0  0  1  0  0  0  0  0999 V2000
   16.7314  -12.6735  -13.7913 O   0  0  0  0  0  0  0  0  0  0  0  0
   17.3918  -11.5362  -14.2129 C   0  0  0  0  0  0  0  0  0  0  0  0
   16.7713  -10.9337  -15.4464 C   0  0  2  0  0  0  0  0  0  0  0  0
   16.8762  -11.7988  -16.5840 N   0  0  0  0  0  0  0  0  0  0  0  0
   17.4483   -9.6152  -15.7000 C   0  0  0  0  0  0  0  0  0  0  0  0
   18.3848   -9.6093  -16.5284 O   0  0  0  0  0  0  0  0  0  0  0  0
   17.0540   -8.4436  -15.0428 N   0  0  0  0  0  0  0  0  0  0  0  0
   17.7298   -7.1570  -15.2945 C   0  0  1  0  0  0  0  0  0  0  0  0
   16.7743   -6.0943  -14.9027 C   0  0  0  0  0  0  0  0  0  0  0  0
   17.2360   -4.6936  -14.8543 C   0  0  0  0  0  0  0  0  0  0  0  0
   16.2054   -3.7253  -14.4032 C   0  0  0  0  0  0  0  0  0  0  0  0
   15.0532   -4.1010  -14.0903 O   0  0  0  0  0  0  0  0  0  0  0  0
   19.0497   -7.1457  -14.6659 C   0  0  0  0  0  0  0  0  0  0  0  0
   19.1393   -7.5685  -13.4498 O   0  0  0  0  0  0  0  0  0  0  0  0
   16.4745   -2.3577  -14.3084 O   0  0  0  0  0  0  0  0  0  0  0  0
   24.5749  -10.3784  -15.9335 C   0  0  0  0  0  0  0  0  0  0  0  0
   25.0664   -8.6986  -15.6696 S   0  0  0  0  0  0  0  0  0  0  0  0
   23.9231   -7.6349  -14.8100 C   0  0  0  0  0  0  0  0  0  0  0  0
   22.5449   -7.5618  -15.3650 C   0  0  0  0  0  0  0  0  0  0  0  0
   21.5389   -6.8055  -14.5509 C   0  0  2  0  0  0  0  0  0  0  0  0
   20.2574   -6.7191  -15.2523 N   0  0  0  0  0  0  0  0  0  0  0  0
   21.9970   -5.4794  -14.1152 C   0  0  0  0  0  0  0  0  0  0  0  0
   22.7685   -5.1715  -13.0324 O   0  0  0  0  0  0  0  0  0  0  0  0
   21.6307   -4.4784  -14.8396 O   0  0  0  0  0  0  0  0  0  0  0  0
  2  3  1  0
  2  1  1  0
  3  4  1  6
  5  6  2  0
  5  3  1  0
  7  5  1  0
  8  7  1  0
  8 13  1  0
  8  9  1  1
 10 11  1  0
 10  9  1  0
 11 15  1  0
 12 11  2  0
 13 21  1  0
 14 13  2  0
 17 16  1  0
 18 17  1  0
 20 19  1  6
 19 18  1  0
 20 22  1  0
 21 20  1  0
 22 24  2  0
 22 23  1  0
M  END
$$$$
