SEM.pdb
     RDKit          3D

 24 23  0  0  1  0  0  0  0  0999 V2000
   27.0883   -9.9896  -16.4898 O   0  0  0  0  0  0  0  0  0  0  0  0
   26.4287  -10.7874  -15.5755 C   0  0  0  0  0  0  0  0  0  0  0  0
   25.2888  -11.5526  -16.1955 C   0  0  2  0  0  0  0  0  0  0  0  0
   25.6982  -12.2927  -17.3524 N   0  0  0  0  0  0  0  0  0  0  0  0
   24.2074  -10.5646  -16.5350 C   0  0  0  0  0  0  0  0  0  0  0  0
   24.1294  -10.1976  -17.7277 O   0  0  0  0  0  0  0  0  0  0  0  0
   23.3244  -10.0735  -15.5659 N   0  0  0  0  0  0  0  0  0  0  0  0
   22.2267   -9.1548  -15.9217 C   0  0  1  0  0  0  0  0  0  0  0  0
   20.9732   -9.7952  -15.4588 C   0  0  0  0  0  0  0  0  0  0  0  0
   19.7065   -9.0431  -15.5449 C   0  0  0  0  0  0  0  0  0  0  0  0
   18.5120   -9.8043  -15.1013 C   0  0  0  0  0  0  0  0  0  0  0  0
   17.8886   -9.4884  -14.0630 O   0  0  0  0  0  0  0  0  0  0  0  0
   22.5167   -7.8061  -15.4373 C   0  0  0  0  0  0  0  0  0  0  0  0
   23.0559   -7.6902  -14.2705 O   0  0  0  0  0  0  0  0  0  0  0  0
   18.0327  -10.9025  -15.8198 O   0  0  0  0  0  0  0  0  0  0  0  0
   23.1272    0.1044  -16.7949 C   0  0  0  0  0  0  0  0  0  0  0  0
   22.8094   -1.5520  -17.3316 S   0  0  0  0  0  0  0  0  0  0  0  0
   22.8775   -2.8401  -16.1012 C   0  0  0  0  0  0  0  0  0  0  0  0
   22.5673   -4.2174  -16.5700 C   0  0  0  0  0  0  0  0  0  0  0  0
   22.5776   -5.2935  -15.5266 C   0  0  2  0  0  0  0  0  0  0  0  0
   22.2706   -6.5970  -16.1169 N   0  0  0  0  0  0  0  0  0  0  0  0
   21.7124   -5.0157  -14.3721 C   0  0  0  0  0  0  0  0  0  0  0  0
   20.4421   -5.4615  -14.1484 O   0  0  0  0  0  0  0  0  0  0  0  0
   22.2065   -4.2599  -13.4526 O   0  0  0  0  0  0  0  0  0  0  0  0
  2  3  1  0
  2  1  1  0
  3  4  1  6
  5  6  2  0
  5  3  1  0
  7  5  1  0
  8  7  1  0
  8 13  1  0
  8  9  1  1
 10 11  1  0
 10  9  1  0
 11 15  1  0
 12 11  2  0
 13 21  1  0
 14 13  2  0
 17 16  1  0
 18 17  1  0
 20 19  1  6
 19 18  1  0
 20 22  1  0
 21 20  1  0
 22 24  2  0
 22 23  1  0
M  END
$$$$
