FEL.pdb
     RDKit          3D

 29 29  0  0  1  0  0  0  0  0999 V2000
    5.7330  -18.2835   23.3856 N   0  0  0  0  0  0  0  0  0  0  0  0
    6.5069  -17.0414   23.5382 C   0  0  1  0  0  0  0  0  0  0  0  0
    5.9323  -16.3832   24.7984 C   0  0  0  0  0  0  0  0  0  0  0  0
    6.6397  -15.1130   25.0904 C   0  0  0  0  0  0  0  0  0  0  0  0
    6.6619  -14.5630   26.3670 C   0  0  0  0  0  0  0  0  0  0  0  0
    7.3224  -13.3859   26.6259 C   0  0  0  0  0  0  0  0  0  0  0  0
    7.9796  -12.7330   25.5954 C   0  0  0  0  0  0  0  0  0  0  0  0
    7.9823  -13.2460   24.3100 C   0  0  0  0  0  0  0  0  0  0  0  0
    7.3084  -14.4293   24.0901 C   0  0  0  0  0  0  0  0  0  0  0  0
    7.9190  -17.4658   23.7926 C   0  0  0  0  0  0  0  0  0  0  0  0
    8.1999  -18.2876   24.7014 O   0  0  0  0  0  0  0  0  0  0  0  0
    8.9962  -16.9518   23.0128 N   0  0  0  0  0  0  0  0  0  0  0  0
   10.4151  -17.2581   23.3766 C   0  0  1  0  0  0  0  0  0  0  0  0
   11.2000  -17.1487   22.1443 C   0  0  0  0  0  0  0  0  0  0  0  0
   12.6459  -17.3835   22.0945 C   0  0  0  0  0  0  0  0  0  0  0  0
   13.2732  -17.3132   20.7636 C   0  0  0  0  0  0  0  0  0  0  0  0
   13.2374  -18.2811   19.9932 O   0  0  0  0  0  0  0  0  0  0  0  0
   10.7695  -16.5702   24.6068 C   0  0  0  0  0  0  0  0  0  0  0  0
   11.0625  -15.3075   24.6031 O   0  0  0  0  0  0  0  0  0  0  0  0
   13.9197  -16.1127   20.3880 O   0  0  0  0  0  0  0  0  0  0  0  0
    8.8231  -13.6550   28.5962 C   0  0  0  0  0  0  0  0  0  0  0  0
   10.1114  -14.4295   28.3881 C   0  0  2  0  0  0  0  0  0  0  0  0
   11.2889  -13.5460   28.5025 C   0  0  0  0  0  0  0  0  0  0  0  0
   10.0655  -15.4255   27.3091 C   0  0  0  0  0  0  0  0  0  0  0  0
   11.2326  -16.3291   27.0881 C   0  0  2  0  0  0  0  0  0  0  0  0
   10.8286  -17.1394   25.9130 N   0  0  0  0  0  0  0  0  0  0  0  0
   11.5021  -17.1696   28.2560 C   0  0  0  0  0  0  0  0  0  0  0  0
   10.6308  -18.1857   28.5817 O   0  0  0  0  0  0  0  0  0  0  0  0
   12.5033  -16.9978   28.9772 O   0  0  0  0  0  0  0  0  0  0  0  0
  2 10  1  0
  2  1  1  1
  3  2  1  0
  3  4  1  0
  4  5  2  0
  4  9  1  0
  5  6  1  0
  6  7  2  0
  8  7  1  0
  9  8  2  0
 10 11  2  0
 12 13  1  0
 12 10  1  0
 13 14  1  6
 14 15  1  0
 16 15  1  0
 16 17  2  0
 18 13  1  0
 18 19  2  0
 20 16  1  0
 22 21  1  6
 22 23  1  0
 22 24  1  0
 25 24  1  1
 25 27  1  0
 25 26  1  0
 26 18  1  0
 27 28  1  0
 29 27  2  0
M  END
$$$$
