FEL.pdb
     RDKit          3D

 29 29  0  0  1  0  0  0  0  0999 V2000
    7.4259  -17.0252   21.3241 N   0  0  0  0  0  0  0  0  0  0  0  0
    8.5128  -16.0965   21.6721 C   0  0  1  0  0  0  0  0  0  0  0  0
    7.7960  -14.8379   22.1757 C   0  0  0  0  0  0  0  0  0  0  0  0
    7.5279  -13.9074   21.0525 C   0  0  0  0  0  0  0  0  0  0  0  0
    8.2368  -12.7216   20.8977 C   0  0  0  0  0  0  0  0  0  0  0  0
    7.9805  -11.8679   19.8515 C   0  0  0  0  0  0  0  0  0  0  0  0
    6.9965  -12.1940   18.9320 C   0  0  0  0  0  0  0  0  0  0  0  0
    6.2674  -13.3645   19.0491 C   0  0  0  0  0  0  0  0  0  0  0  0
    6.5540  -14.1952   20.1123 C   0  0  0  0  0  0  0  0  0  0  0  0
    9.2551  -16.7377   22.8021 C   0  0  0  0  0  0  0  0  0  0  0  0
    8.6690  -17.4795   23.6304 O   0  0  0  0  0  0  0  0  0  0  0  0
   10.6543  -16.5287   22.9790 N   0  0  0  0  0  0  0  0  0  0  0  0
   11.3693  -17.1111   24.1575 C   0  0  1  0  0  0  0  0  0  0  0  0
   12.7309  -17.4214   23.7142 C   0  0  0  0  0  0  0  0  0  0  0  0
   13.0939  -17.5859   22.3038 C   0  0  0  0  0  0  0  0  0  0  0  0
   14.5121  -17.8690   22.0235 C   0  0  0  0  0  0  0  0  0  0  0  0
   15.2918  -16.9590   21.7145 O   0  0  0  0  0  0  0  0  0  0  0  0
   11.0814  -16.3275   25.3471 C   0  0  0  0  0  0  0  0  0  0  0  0
   11.9302  -15.4539   25.7907 O   0  0  0  0  0  0  0  0  0  0  0  0
   14.9608  -19.2071   22.1141 O   0  0  0  0  0  0  0  0  0  0  0  0
    9.1337  -12.7855   26.7781 C   0  0  0  0  0  0  0  0  0  0  0  0
    8.1792  -13.9531   26.6098 C   0  0  2  0  0  0  0  0  0  0  0  0
    6.7859  -13.4860   26.4651 C   0  0  0  0  0  0  0  0  0  0  0  0
    8.4610  -15.1098   27.4707 C   0  0  0  0  0  0  0  0  0  0  0  0
    9.8221  -15.7218   27.4630 C   0  0  2  0  0  0  0  0  0  0  0  0
    9.8974  -16.3880   26.1396 N   0  0  0  0  0  0  0  0  0  0  0  0
    9.9984  -16.6767   28.5584 C   0  0  0  0  0  0  0  0  0  0  0  0
    9.8971  -18.0278   28.3094 O   0  0  0  0  0  0  0  0  0  0  0  0
   10.2392  -16.3087   29.7240 O   0  0  0  0  0  0  0  0  0  0  0  0
  2 10  1  0
  2  1  1  1
  3  2  1  0
  3  4  1  0
  4  5  2  0
  4  9  1  0
  5  6  1  0
  6  7  2  0
  8  7  1  0
  9  8  2  0
 10 11  2  0
 12 13  1  0
 12 10  1  0
 13 14  1  6
 14 15  1  0
 16 15  1  0
 16 17  2  0
 18 13  1  0
 18 19  2  0
 20 16  1  0
 22 21  1  1
 22 23  1  0
 22 24  1  0
 25 24  1  1
 25 27  1  0
 25 26  1  0
 26 18  1  0
 27 28  1  0
 29 27  2  0
M  END
$$$$
