FEL.pdb
     RDKit          3D

 29 29  0  0  1  0  0  0  0  0999 V2000
    7.1950  -17.2787   21.0005 N   0  0  0  0  0  0  0  0  0  0  0  0
    7.5879  -16.1429   21.8494 C   0  0  1  0  0  0  0  0  0  0  0  0
    6.3100  -15.7736   22.6124 C   0  0  0  0  0  0  0  0  0  0  0  0
    6.5413  -14.5866   23.4706 C   0  0  0  0  0  0  0  0  0  0  0  0
    6.3979  -14.6418   24.8523 C   0  0  0  0  0  0  0  0  0  0  0  0
    6.6166  -13.5352   25.6376 C   0  0  0  0  0  0  0  0  0  0  0  0
    6.9874  -12.3402   25.0421 C   0  0  0  0  0  0  0  0  0  0  0  0
    7.1413  -12.2420   23.6702 C   0  0  0  0  0  0  0  0  0  0  0  0
    6.9129  -13.3742   22.9163 C   0  0  0  0  0  0  0  0  0  0  0  0
    8.6070  -16.6777   22.8056 C   0  0  0  0  0  0  0  0  0  0  0  0
    8.3625  -17.6762   23.5289 O   0  0  0  0  0  0  0  0  0  0  0  0
    9.8916  -16.0721   22.9303 N   0  0  0  0  0  0  0  0  0  0  0  0
   11.0240  -16.8110   23.5715 C   0  0  1  0  0  0  0  0  0  0  0  0
   12.1496  -16.7535   22.6354 C   0  0  0  0  0  0  0  0  0  0  0  0
   13.4849  -17.2639   22.9591 C   0  0  0  0  0  0  0  0  0  0  0  0
   14.6120  -16.3495   22.7075 C   0  0  0  0  0  0  0  0  0  0  0  0
   14.7879  -15.8522   21.5879 O   0  0  0  0  0  0  0  0  0  0  0  0
   11.1344  -16.4296   24.9695 C   0  0  0  0  0  0  0  0  0  0  0  0
   11.1571  -15.1818   25.3196 O   0  0  0  0  0  0  0  0  0  0  0  0
   15.4900  -16.0552   23.7763 O   0  0  0  0  0  0  0  0  0  0  0  0
   11.2928  -14.2464   28.9184 C   0  0  0  0  0  0  0  0  0  0  0  0
   10.2736  -14.4038   27.8052 C   0  0  2  0  0  0  0  0  0  0  0  0
    9.1353  -13.4817   27.9903 C   0  0  0  0  0  0  0  0  0  0  0  0
   10.0126  -15.7913   27.3988 C   0  0  0  0  0  0  0  0  0  0  0  0
   11.1077  -16.8022   27.4775 C   0  0  2  0  0  0  0  0  0  0  0  0
   11.2132  -17.3108   26.0879 N   0  0  0  0  0  0  0  0  0  0  0  0
   10.7942  -17.8754   28.4224 C   0  0  0  0  0  0  0  0  0  0  0  0
   11.4674  -17.9471   29.6221 O   0  0  0  0  0  0  0  0  0  0  0  0
    9.9298  -18.7390   28.1790 O   0  0  0  0  0  0  0  0  0  0  0  0
  2 10  1  0
  2  1  1  6
  3  2  1  0
  3  4  1  0
  4  5  2  0
  4  9  1  0
  5  6  1  0
  6  7  2  0
  8  7  1  0
  9  8  2  0
 10 11  2  0
 12 13  1  0
 12 10  1  0
 13 14  1  6
 14 15  1  0
 16 15  1  0
 16 17  2  0
 18 13  1  0
 18 19  2  0
 20 16  1  0
 22 21  1  1
 22 23  1  0
 22 24  1  0
 25 24  1  6
 25 27  1  0
 25 26  1  0
 26 18  1  0
 27 28  1  0
 29 27  2  0
M  END
$$$$
