FEL.pdb
     RDKit          3D

 29 29  0  0  1  0  0  0  0  0999 V2000
    7.1226  -17.6037   20.8933 N   0  0  0  0  0  0  0  0  0  0  0  0
    8.0935  -16.5667   21.2766 C   0  0  1  0  0  0  0  0  0  0  0  0
    7.2316  -15.3842   21.7352 C   0  0  0  0  0  0  0  0  0  0  0  0
    7.3957  -14.2332   20.8147 C   0  0  0  0  0  0  0  0  0  0  0  0
    6.4983  -13.9866   19.7819 C   0  0  0  0  0  0  0  0  0  0  0  0
    6.6599  -12.9155   18.9361 C   0  0  0  0  0  0  0  0  0  0  0  0
    7.7380  -12.0635   19.1147 C   0  0  0  0  0  0  0  0  0  0  0  0
    8.6546  -12.2727   20.1303 C   0  0  0  0  0  0  0  0  0  0  0  0
    8.4582  -13.3582   20.9583 C   0  0  0  0  0  0  0  0  0  0  0  0
    8.8474  -17.1212   22.4442 C   0  0  0  0  0  0  0  0  0  0  0  0
    8.2544  -17.7047   23.3864 O   0  0  0  0  0  0  0  0  0  0  0  0
   10.2660  -17.0061   22.5289 N   0  0  0  0  0  0  0  0  0  0  0  0
   10.9842  -17.3453   23.7972 C   0  0  1  0  0  0  0  0  0  0  0  0
   12.3618  -17.6787   23.4261 C   0  0  0  0  0  0  0  0  0  0  0  0
   12.6986  -18.4986   22.2588 C   0  0  0  0  0  0  0  0  0  0  0  0
   14.0858  -18.4033   21.7726 C   0  0  0  0  0  0  0  0  0  0  0  0
   14.3283  -18.2913   20.5642 O   0  0  0  0  0  0  0  0  0  0  0  0
   10.6525  -16.3756   24.8276 C   0  0  0  0  0  0  0  0  0  0  0  0
   11.2469  -15.2246   24.8749 O   0  0  0  0  0  0  0  0  0  0  0  0
   15.1345  -18.4451   22.7205 O   0  0  0  0  0  0  0  0  0  0  0  0
    6.8820  -12.9461   26.7246 C   0  0  0  0  0  0  0  0  0  0  0  0
    8.1631  -13.5663   27.2508 C   0  0  2  0  0  0  0  0  0  0  0  0
    9.3174  -12.6718   27.0319 C   0  0  0  0  0  0  0  0  0  0  0  0
    8.3093  -15.0031   26.9816 C   0  0  0  0  0  0  0  0  0  0  0  0
    9.6618  -15.6314   27.0399 C   0  0  2  0  0  0  0  0  0  0  0  0
    9.6802  -16.5295   25.8593 N   0  0  0  0  0  0  0  0  0  0  0  0
    9.8669  -16.3731   28.2852 C   0  0  0  0  0  0  0  0  0  0  0  0
    9.3634  -17.6491   28.4107 O   0  0  0  0  0  0  0  0  0  0  0  0
   10.4878  -15.8868   29.2497 O   0  0  0  0  0  0  0  0  0  0  0  0
  2 10  1  0
  2  1  1  1
  3  2  1  0
  3  4  1  0
  4  5  2  0
  4  9  1  0
  5  6  1  0
  6  7  2  0
  8  7  1  0
  9  8  2  0
 10 11  2  0
 12 13  1  0
 12 10  1  0
 13 14  1  6
 14 15  1  0
 16 15  1  0
 16 17  2  0
 18 13  1  0
 18 19  2  0
 20 16  1  0
 22 21  1  6
 22 23  1  0
 22 24  1  0
 25 24  1  1
 25 27  1  0
 25 26  1  0
 26 18  1  0
 27 28  1  0
 29 27  2  0
M  END
$$$$
