FEL.pdb
     RDKit          3D

 29 29  0  0  1  0  0  0  0  0999 V2000
    6.2641  -18.4699   22.8362 N   0  0  0  0  0  0  0  0  0  0  0  0
    6.8256  -17.1259   23.0448 C   0  0  1  0  0  0  0  0  0  0  0  0
    5.9390  -16.5035   24.1302 C   0  0  0  0  0  0  0  0  0  0  0  0
    6.2993  -15.0809   24.3436 C   0  0  0  0  0  0  0  0  0  0  0  0
    6.3271  -14.5141   25.6127 C   0  0  0  0  0  0  0  0  0  0  0  0
    6.6643  -13.1947   25.7982 C   0  0  0  0  0  0  0  0  0  0  0  0
    6.9831  -12.4125   24.6997 C   0  0  0  0  0  0  0  0  0  0  0  0
    6.9678  -12.9371   23.4192 C   0  0  0  0  0  0  0  0  0  0  0  0
    6.6244  -14.2652   23.2740 C   0  0  0  0  0  0  0  0  0  0  0  0
    8.2058  -17.3361   23.5831 C   0  0  0  0  0  0  0  0  0  0  0  0
    8.4260  -18.1515   24.5139 O   0  0  0  0  0  0  0  0  0  0  0  0
    9.3200  -16.6175   23.0589 N   0  0  0  0  0  0  0  0  0  0  0  0
   10.7097  -16.9195   23.5245 C   0  0  1  0  0  0  0  0  0  0  0  0
   11.6154  -16.4939   22.4545 C   0  0  0  0  0  0  0  0  0  0  0  0
   13.0645  -16.7088   22.5016 C   0  0  0  0  0  0  0  0  0  0  0  0
   13.6824  -17.2613   21.2840 C   0  0  0  0  0  0  0  0  0  0  0  0
   13.6985  -16.6126   20.2302 O   0  0  0  0  0  0  0  0  0  0  0  0
   10.8677  -16.5067   24.9090 C   0  0  0  0  0  0  0  0  0  0  0  0
   11.2467  -15.3032   25.2059 O   0  0  0  0  0  0  0  0  0  0  0  0
   14.2552  -18.5528   21.3478 O   0  0  0  0  0  0  0  0  0  0  0  0
   11.2401  -14.0239   28.6609 C   0  0  0  0  0  0  0  0  0  0  0  0
   10.0645  -14.4067   27.7810 C   0  0  2  0  0  0  0  0  0  0  0  0
    8.9330  -13.4768   27.9689 C   0  0  0  0  0  0  0  0  0  0  0  0
    9.7996  -15.8494   27.6979 C   0  0  0  0  0  0  0  0  0  0  0  0
   10.9245  -16.7923   27.4278 C   0  0  2  0  0  0  0  0  0  0  0  0
   10.6310  -17.3046   26.0669 N   0  0  0  0  0  0  0  0  0  0  0  0
   10.9786  -17.8749   28.4117 C   0  0  0  0  0  0  0  0  0  0  0  0
   10.5404  -19.1343   28.0659 O   0  0  0  0  0  0  0  0  0  0  0  0
   11.4112  -17.6978   29.5665 O   0  0  0  0  0  0  0  0  0  0  0  0
  2 10  1  0
  2  1  1  1
  3  2  1  0
  3  4  1  0
  4  5  2  0
  4  9  1  0
  5  6  1  0
  6  7  2  0
  8  7  1  0
  9  8  2  0
 10 11  2  0
 12 13  1  0
 12 10  1  0
 13 14  1  6
 14 15  1  0
 16 15  1  0
 16 17  2  0
 18 13  1  0
 18 19  2  0
 20 16  1  0
 22 21  1  1
 22 23  1  0
 22 24  1  0
 25 24  1  1
 25 27  1  0
 25 26  1  0
 26 18  1  0
 27 28  1  0
 29 27  2  0
M  END
$$$$
