FEL.pdb
     RDKit          3D

 29 29  0  0  1  0  0  0  0  0999 V2000
    6.6643  -18.2126   21.0593 N   0  0  0  0  0  0  0  0  0  0  0  0
    7.4731  -16.9942   21.2218 C   0  0  1  0  0  0  0  0  0  0  0  0
    6.4524  -15.8956   21.5421 C   0  0  0  0  0  0  0  0  0  0  0  0
    7.1133  -14.5687   21.5873 C   0  0  0  0  0  0  0  0  0  0  0  0
    7.2817  -13.8739   22.7796 C   0  0  0  0  0  0  0  0  0  0  0  0
    7.8973  -12.6454   22.8092 C   0  0  0  0  0  0  0  0  0  0  0  0
    8.3599  -12.0870   21.6283 C   0  0  0  0  0  0  0  0  0  0  0  0
    8.2126  -12.7451   20.4198 C   0  0  0  0  0  0  0  0  0  0  0  0
    7.5896  -13.9758   20.4312 C   0  0  0  0  0  0  0  0  0  0  0  0
    8.3433  -17.2347   22.4150 C   0  0  0  0  0  0  0  0  0  0  0  0
    7.8741  -17.7107   23.4796 O   0  0  0  0  0  0  0  0  0  0  0  0
    9.7361  -16.9313   22.3862 N   0  0  0  0  0  0  0  0  0  0  0  0
   10.6061  -17.2296   23.5667 C   0  0  1  0  0  0  0  0  0  0  0  0
   11.9253  -17.5876   23.0392 C   0  0  0  0  0  0  0  0  0  0  0  0
   12.3696  -17.2305   21.6889 C   0  0  0  0  0  0  0  0  0  0  0  0
   13.7515  -17.6002   21.3373 C   0  0  0  0  0  0  0  0  0  0  0  0
   14.7109  -17.1506   21.9768 O   0  0  0  0  0  0  0  0  0  0  0  0
   10.4093  -16.2200   24.5934 C   0  0  0  0  0  0  0  0  0  0  0  0
   11.0261  -15.0815   24.5347 O   0  0  0  0  0  0  0  0  0  0  0  0
   13.9555  -18.4803   20.2493 O   0  0  0  0  0  0  0  0  0  0  0  0
    8.9390  -12.4474   26.5048 C   0  0  0  0  0  0  0  0  0  0  0  0
    7.9629  -13.5973   26.3380 C   0  0  2  0  0  0  0  0  0  0  0  0
    6.5657  -13.1228   26.3941 C   0  0  0  0  0  0  0  0  0  0  0  0
    8.3306  -14.8276   27.0517 C   0  0  0  0  0  0  0  0  0  0  0  0
    9.6999  -15.3971   26.8845 C   0  0  2  0  0  0  0  0  0  0  0  0
    9.5556  -16.3192   25.7313 N   0  0  0  0  0  0  0  0  0  0  0  0
   10.1493  -16.1022   28.0861 C   0  0  0  0  0  0  0  0  0  0  0  0
    9.9886  -17.4674   28.1769 O   0  0  0  0  0  0  0  0  0  0  0  0
   10.6783  -15.5060   29.0435 O   0  0  0  0  0  0  0  0  0  0  0  0
  2 10  1  0
  2  1  1  1
  3  2  1  0
  3  4  1  0
  4  5  2  0
  4  9  1  0
  5  6  1  0
  6  7  2  0
  8  7  1  0
  9  8  2  0
 10 11  2  0
 12 13  1  0
 12 10  1  0
 13 14  1  6
 14 15  1  0
 16 15  1  0
 16 17  2  0
 18 13  1  0
 18 19  2  0
 20 16  1  0
 22 21  1  1
 22 23  1  0
 22 24  1  0
 25 24  1  1
 25 27  1  0
 25 26  1  0
 26 18  1  0
 27 28  1  0
 29 27  2  0
M  END
$$$$
