FEL.pdb
     RDKit          3D

 29 29  0  0  1  0  0  0  0  0999 V2000
    6.0414  -18.1990   23.3640 N   0  0  0  0  0  0  0  0  0  0  0  0
    6.7265  -16.9040   23.5010 C   0  0  1  0  0  0  0  0  0  0  0  0
    5.9504  -16.1738   24.6038 C   0  0  0  0  0  0  0  0  0  0  0  0
    6.4891  -14.8062   24.8007 C   0  0  0  0  0  0  0  0  0  0  0  0
    6.4689  -14.1821   26.0427 C   0  0  0  0  0  0  0  0  0  0  0  0
    6.9727  -12.9148   26.2133 C   0  0  0  0  0  0  0  0  0  0  0  0
    7.5117  -12.2445   25.1269 C   0  0  0  0  0  0  0  0  0  0  0  0
    7.5515  -12.8293   23.8732 C   0  0  0  0  0  0  0  0  0  0  0  0
    7.0362  -14.1021   23.7423 C   0  0  0  0  0  0  0  0  0  0  0  0
    8.1076  -17.2187   23.9829 C   0  0  0  0  0  0  0  0  0  0  0  0
    8.3040  -18.0563   24.8994 O   0  0  0  0  0  0  0  0  0  0  0  0
    9.2499  -16.5783   23.4194 N   0  0  0  0  0  0  0  0  0  0  0  0
   10.6312  -16.9919   23.8198 C   0  0  1  0  0  0  0  0  0  0  0  0
   11.5059  -16.7012   22.6810 C   0  0  0  0  0  0  0  0  0  0  0  0
   12.0112  -17.7379   21.7765 C   0  0  0  0  0  0  0  0  0  0  0  0
   12.8724  -17.2786   20.6733 C   0  0  0  0  0  0  0  0  0  0  0  0
   13.4019  -16.1605   20.7050 O   0  0  0  0  0  0  0  0  0  0  0  0
   10.9109  -16.5373   25.1716 C   0  0  0  0  0  0  0  0  0  0  0  0
   11.1371  -15.2852   25.4196 O   0  0  0  0  0  0  0  0  0  0  0  0
   13.0778  -18.1459   19.5753 O   0  0  0  0  0  0  0  0  0  0  0  0
   11.1116  -13.8089   28.1605 C   0  0  0  0  0  0  0  0  0  0  0  0
    9.8538  -14.5709   27.7861 C   0  0  2  0  0  0  0  0  0  0  0  0
    8.6428  -13.8491   28.2250 C   0  0  0  0  0  0  0  0  0  0  0  0
    9.9316  -16.0248   27.9822 C   0  0  0  0  0  0  0  0  0  0  0  0
   11.2046  -16.7435   27.6817 C   0  0  2  0  0  0  0  0  0  0  0  0
   10.9598  -17.3431   26.3471 N   0  0  0  0  0  0  0  0  0  0  0  0
   11.5054  -17.7657   28.6854 C   0  0  0  0  0  0  0  0  0  0  0  0
   11.1679  -19.0794   28.4445 O   0  0  0  0  0  0  0  0  0  0  0  0
   12.0623  -17.4887   29.7649 O   0  0  0  0  0  0  0  0  0  0  0  0
  2 10  1  0
  2  1  1  1
  3  2  1  0
  3  4  1  0
  4  5  2  0
  4  9  1  0
  5  6  1  0
  6  7  2  0
  8  7  1  0
  9  8  2  0
 10 11  2  0
 12 13  1  0
 12 10  1  0
 13 14  1  6
 14 15  1  0
 16 15  1  0
 16 17  2  0
 18 13  1  0
 18 19  2  0
 20 16  1  0
 22 21  1  1
 22 23  1  0
 22 24  1  0
 25 24  1  1
 25 27  1  0
 25 26  1  0
 26 18  1  0
 27 28  1  0
 29 27  2  0
M  END
$$$$
