KMS.pdb
     RDKit          3D

 24 23  0  0  1  0  0  0  0  0999 V2000
    7.6630  -17.1819   20.8324 N   0  0  0  0  0  0  0  0  0  0  0  0
    9.0166  -16.6996   20.8504 C   0  0  1  0  0  0  0  0  0  0  0  0
    9.4420  -15.9027   19.6803 C   0  0  0  0  0  0  0  0  0  0  0  0
    8.4785  -14.8658   19.1867 C   0  0  0  0  0  0  0  0  0  0  0  0
    8.8487  -14.2167   17.8933 C   0  0  0  0  0  0  0  0  0  0  0  0
    7.6897  -13.2821   17.4929 C   0  0  0  0  0  0  0  0  0  0  0  0
    8.0134  -12.5890   16.2621 N   0  0  0  0  0  0  0  0  0  0  0  0
    9.2640  -16.0195   22.1552 C   0  0  0  0  0  0  0  0  0  0  0  0
   10.4104  -15.5861   22.3537 O   0  0  0  0  0  0  0  0  0  0  0  0
    6.5394  -11.4994   27.9394 C   0  0  0  0  0  0  0  0  0  0  0  0
    6.3593  -12.3253   26.3498 S   0  0  0  0  0  0  0  0  0  0  0  0
    7.6221  -13.6422   26.1360 C   0  0  0  0  0  0  0  0  0  0  0  0
    7.4005  -14.2284   24.7760 C   0  0  0  0  0  0  0  0  0  0  0  0
    8.4124  -15.3086   24.4307 C   0  0  2  0  0  0  0  0  0  0  0  0
    8.2665  -15.8629   23.1306 N   0  0  0  0  0  0  0  0  0  0  0  0
    8.6007  -16.3031   25.4976 C   0  0  0  0  0  0  0  0  0  0  0  0
    7.6309  -17.0584   25.8310 O   0  0  0  0  0  0  0  0  0  0  0  0
   12.2920  -17.6383   26.3055 O   0  0  0  0  0  0  0  0  0  0  0  0
   11.1996  -18.4356   26.6445 C   0  0  0  0  0  0  0  0  0  0  0  0
   10.0865  -17.5277   27.1229 C   0  0  2  0  0  0  0  0  0  0  0  0
    9.8105  -16.4694   26.1809 N   0  0  0  0  0  0  0  0  0  0  0  0
   10.5040  -16.9130   28.4041 C   0  0  0  0  0  0  0  0  0  0  0  0
   10.8207  -17.7313   29.5048 O   0  0  0  0  0  0  0  0  0  0  0  0
   10.6025  -15.6753   28.5971 O   0  0  0  0  0  0  0  0  0  0  0  0
  2  1  1  6
  2  3  1  0
  4  5  1  0
  4  3  1  0
  5  6  1  0
  6  7  1  0
  8  2  1  0
  8  9  2  0
 10 11  1  0
 11 12  1  0
 13 12  1  0
 14 13  1  1
 14 15  1  0
 15  8  1  0
 16 14  1  0
 17 16  2  0
 19 18  1  0
 20 19  1  6
 20 21  1  0
 20 22  1  0
 21 16  1  0
 22 23  1  0
 24 22  2  0
M  END
$$$$
