KMS.pdb
     RDKit          3D

 24 23  0  0  1  0  0  0  0  0999 V2000
    7.4116  -15.4482   19.9369 N   0  0  0  0  0  0  0  0  0  0  0  0
    8.6450  -14.7166   20.0282 C   0  0  1  0  0  0  0  0  0  0  0  0
    8.7303  -13.4770   19.2275 C   0  0  0  0  0  0  0  0  0  0  0  0
    7.9407  -13.4434   17.9538 C   0  0  0  0  0  0  0  0  0  0  0  0
    8.6278  -14.0267   16.7627 C   0  0  0  0  0  0  0  0  0  0  0  0
    7.7116  -13.8068   15.5424 C   0  0  0  0  0  0  0  0  0  0  0  0
    8.3552  -14.3027   14.3425 N   0  0  0  0  0  0  0  0  0  0  0  0
    8.9773  -14.5181   21.4691 C   0  0  0  0  0  0  0  0  0  0  0  0
   10.1379  -14.1657   21.7343 O   0  0  0  0  0  0  0  0  0  0  0  0
    6.8134  -11.9204   28.4788 C   0  0  0  0  0  0  0  0  0  0  0  0
    6.4702  -12.2688   26.7461 S   0  0  0  0  0  0  0  0  0  0  0  0
    7.6428  -13.5114   26.0711 C   0  0  0  0  0  0  0  0  0  0  0  0
    7.3177  -13.6583   24.6168 C   0  0  0  0  0  0  0  0  0  0  0  0
    8.2642  -14.6046   23.8966 C   0  0  2  0  0  0  0  0  0  0  0  0
    8.0417  -14.7134   22.4976 N   0  0  0  0  0  0  0  0  0  0  0  0
    8.4482  -15.8913   24.5846 C   0  0  0  0  0  0  0  0  0  0  0  0
    7.4398  -16.6389   24.7996 O   0  0  0  0  0  0  0  0  0  0  0  0
   11.9856  -17.7000   24.4803 O   0  0  0  0  0  0  0  0  0  0  0  0
   10.8808  -18.4844   24.8093 C   0  0  0  0  0  0  0  0  0  0  0  0
    9.9324  -17.6376   25.6315 C   0  0  2  0  0  0  0  0  0  0  0  0
    9.6948  -16.3495   25.0251 N   0  0  0  0  0  0  0  0  0  0  0  0
   10.5385  -17.4195   26.9651 C   0  0  0  0  0  0  0  0  0  0  0  0
   10.8521  -18.5220   27.7823 O   0  0  0  0  0  0  0  0  0  0  0  0
   10.8060  -16.2897   27.4454 O   0  0  0  0  0  0  0  0  0  0  0  0
  2  1  1  1
  2  3  1  0
  4  5  1  0
  4  3  1  0
  5  6  1  0
  6  7  1  0
  8  2  1  0
  8  9  2  0
 10 11  1  0
 11 12  1  0
 13 12  1  0
 14 13  1  1
 14 15  1  0
 15  8  1  0
 16 14  1  0
 17 16  2  0
 19 18  1  0
 20 19  1  6
 20 21  1  0
 20 22  1  0
 21 16  1  0
 22 23  1  0
 24 22  2  0
M  END
$$$$
