KMS.pdb
     RDKit          3D

 24 23  0  0  1  0  0  0  0  0999 V2000
    6.6346  -14.7076   19.9902 N   0  0  0  0  0  0  0  0  0  0  0  0
    7.5286  -15.7251   20.4704 C   0  0  1  0  0  0  0  0  0  0  0  0
    8.4970  -16.2599   19.4900 C   0  0  0  0  0  0  0  0  0  0  0  0
    7.9450  -17.1452   18.4137 C   0  0  0  0  0  0  0  0  0  0  0  0
    8.9611  -17.7389   17.4937 C   0  0  0  0  0  0  0  0  0  0  0  0
    8.2058  -18.5861   16.4502 C   0  0  0  0  0  0  0  0  0  0  0  0
    9.1495  -19.2735   15.5918 N   0  0  0  0  0  0  0  0  0  0  0  0
    8.1632  -15.2463   21.7330 C   0  0  0  0  0  0  0  0  0  0  0  0
    9.3768  -14.9883   21.6885 O   0  0  0  0  0  0  0  0  0  0  0  0
    7.0871  -10.5914   26.7486 C   0  0  0  0  0  0  0  0  0  0  0  0
    6.5461  -12.2636   27.1393 S   0  0  0  0  0  0  0  0  0  0  0  0
    7.6508  -13.5171   26.3758 C   0  0  0  0  0  0  0  0  0  0  0  0
    7.0712  -13.8340   25.0319 C   0  0  0  0  0  0  0  0  0  0  0  0
    7.9666  -14.7430   24.2062 C   0  0  2  0  0  0  0  0  0  0  0  0
    7.4462  -15.0860   22.9294 N   0  0  0  0  0  0  0  0  0  0  0  0
    8.5141  -15.8782   24.9641 C   0  0  0  0  0  0  0  0  0  0  0  0
    7.7257  -16.7694   25.4183 O   0  0  0  0  0  0  0  0  0  0  0  0
   12.0073  -17.3307   24.0735 O   0  0  0  0  0  0  0  0  0  0  0  0
   11.9246  -17.3687   25.4648 C   0  0  0  0  0  0  0  0  0  0  0  0
   10.4721  -17.1911   25.8535 C   0  0  2  0  0  0  0  0  0  0  0  0
    9.8807  -16.0372   25.2193 N   0  0  0  0  0  0  0  0  0  0  0  0
   10.4016  -17.0029   27.3209 C   0  0  0  0  0  0  0  0  0  0  0  0
    9.8479  -15.8222   27.8512 O   0  0  0  0  0  0  0  0  0  0  0  0
   10.8102  -17.8410   28.1631 O   0  0  0  0  0  0  0  0  0  0  0  0
  2  1  1  6
  2  3  1  0
  4  5  1  0
  4  3  1  0
  5  6  1  0
  6  7  1  0
  8  2  1  0
  8  9  2  0
 10 11  1  0
 11 12  1  0
 13 12  1  0
 14 13  1  1
 14 15  1  0
 15  8  1  0
 16 14  1  0
 17 16  2  0
 19 18  1  0
 20 19  1  6
 20 21  1  0
 20 22  1  0
 21 16  1  0
 22 23  1  0
 24 22  2  0
M  END
$$$$
