KMS.pdb
     RDKit          3D

 24 23  0  0  1  0  0  0  0  0999 V2000
    9.3319  -15.7839   19.7172 N   0  0  0  0  0  0  0  0  0  0  0  0
    8.1760  -15.7930   20.5708 C   0  0  1  0  0  0  0  0  0  0  0  0
    7.2968  -16.9768   20.4677 C   0  0  0  0  0  0  0  0  0  0  0  0
    7.3889  -17.7746   19.2020 C   0  0  0  0  0  0  0  0  0  0  0  0
    8.4128  -18.8621   19.2074 C   0  0  0  0  0  0  0  0  0  0  0  0
    8.2050  -19.7038   17.9326 C   0  0  0  0  0  0  0  0  0  0  0  0
    9.1091  -20.8363   17.9325 N   0  0  0  0  0  0  0  0  0  0  0  0
    8.6106  -15.4945   21.9666 C   0  0  0  0  0  0  0  0  0  0  0  0
    9.8154  -15.6482   22.2245 O   0  0  0  0  0  0  0  0  0  0  0  0
    7.2272  -10.6699   27.2181 C   0  0  0  0  0  0  0  0  0  0  0  0
    6.3394  -12.2249   27.0306 S   0  0  0  0  0  0  0  0  0  0  0  0
    7.4518  -13.5598   26.4345 C   0  0  0  0  0  0  0  0  0  0  0  0
    7.0896  -13.8090   25.0031 C   0  0  0  0  0  0  0  0  0  0  0  0
    8.0136  -14.8103   24.3297 C   0  0  2  0  0  0  0  0  0  0  0  0
    7.7211  -15.0592   22.9618 N   0  0  0  0  0  0  0  0  0  0  0  0
    8.2547  -16.0207   25.1295 C   0  0  0  0  0  0  0  0  0  0  0  0
    7.2753  -16.7717   25.4437 O   0  0  0  0  0  0  0  0  0  0  0  0
   11.9132  -17.6569   25.1957 O   0  0  0  0  0  0  0  0  0  0  0  0
   10.8357  -18.4734   25.5365 C   0  0  0  0  0  0  0  0  0  0  0  0
    9.8211  -17.6271   26.2760 C   0  0  2  0  0  0  0  0  0  0  0  0
    9.5260  -16.4012   25.5734 N   0  0  0  0  0  0  0  0  0  0  0  0
   10.3812  -17.2800   27.6024 C   0  0  0  0  0  0  0  0  0  0  0  0
   10.5110  -15.9295   27.9778 O   0  0  0  0  0  0  0  0  0  0  0  0
   10.7645  -18.1225   28.4520 O   0  0  0  0  0  0  0  0  0  0  0  0
  2  1  1  6
  2  3  1  0
  4  5  1  0
  4  3  1  0
  5  6  1  0
  6  7  1  0
  8  2  1  0
  8  9  2  0
 10 11  1  0
 11 12  1  0
 13 12  1  0
 14 13  1  1
 14 15  1  0
 15  8  1  0
 16 14  1  0
 17 16  2  0
 19 18  1  0
 20 19  1  6
 20 21  1  0
 20 22  1  0
 21 16  1  0
 22 23  1  0
 24 22  2  0
M  END
$$$$
