KMS.pdb
     RDKit          3D

 24 23  0  0  1  0  0  0  0  0999 V2000
    9.4420  -15.3754   19.0128 N   0  0  0  0  0  0  0  0  0  0  0  0
    8.7581  -16.1882   19.9806 C   0  0  1  0  0  0  0  0  0  0  0  0
    8.8941  -17.6512   19.8182 C   0  0  0  0  0  0  0  0  0  0  0  0
    7.8595  -18.3332   18.9747 C   0  0  0  0  0  0  0  0  0  0  0  0
    7.9756  -19.8207   18.9030 C   0  0  0  0  0  0  0  0  0  0  0  0
    6.7860  -20.3411   18.0718 C   0  0  0  0  0  0  0  0  0  0  0  0
    6.7291  -21.7876   18.1379 N   0  0  0  0  0  0  0  0  0  0  0  0
    9.1142  -15.7057   21.3468 C   0  0  0  0  0  0  0  0  0  0  0  0
   10.3192  -15.7059   21.6459 O   0  0  0  0  0  0  0  0  0  0  0  0
    6.5064  -11.7455   27.7528 C   0  0  0  0  0  0  0  0  0  0  0  0
    6.2977  -12.3069   26.0549 S   0  0  0  0  0  0  0  0  0  0  0  0
    7.5902  -13.5279   25.5930 C   0  0  0  0  0  0  0  0  0  0  0  0
    7.3718  -13.8535   24.1477 C   0  0  0  0  0  0  0  0  0  0  0  0
    8.3712  -14.8683   23.6174 C   0  0  2  0  0  0  0  0  0  0  0  0
    8.1530  -15.2664   22.2710 N   0  0  0  0  0  0  0  0  0  0  0  0
    8.6321  -15.9793   24.5449 C   0  0  0  0  0  0  0  0  0  0  0  0
    7.7203  -16.8406   24.7661 O   0  0  0  0  0  0  0  0  0  0  0  0
   12.4518  -16.9333   25.3559 O   0  0  0  0  0  0  0  0  0  0  0  0
   11.4979  -17.9412   25.4905 C   0  0  0  0  0  0  0  0  0  0  0  0
   10.2143  -17.3093   25.9859 C   0  0  2  0  0  0  0  0  0  0  0  0
    9.8510  -16.1466   25.2115 N   0  0  0  0  0  0  0  0  0  0  0  0
   10.4139  -16.8882   27.3917 C   0  0  0  0  0  0  0  0  0  0  0  0
   10.8110  -17.8323   28.3574 O   0  0  0  0  0  0  0  0  0  0  0  0
   10.2520  -15.7143   27.8094 O   0  0  0  0  0  0  0  0  0  0  0  0
  2  1  1  6
  2  3  1  0
  4  5  1  0
  4  3  1  0
  5  6  1  0
  6  7  1  0
  8  2  1  0
  8  9  2  0
 10 11  1  0
 11 12  1  0
 13 12  1  0
 14 13  1  1
 14 15  1  0
 15  8  1  0
 16 14  1  0
 17 16  2  0
 19 18  1  0
 20 19  1  6
 20 21  1  0
 20 22  1  0
 21 16  1  0
 22 23  1  0
 24 22  2  0
M  END
$$$$
