EDI.pdb
     RDKit          3D

 26 25  0  0  1  0  0  0  0  0999 V2000
   12.7891  -10.2405  -10.2533 N   0  0  0  0  0  0  0  0  0  0  0  0
   14.2176  -10.1719  -10.0193 C   0  0  1  0  0  0  0  0  0  0  0  0
   14.9031  -11.2069  -10.8476 C   0  0  0  0  0  0  0  0  0  0  0  0
   14.5910  -12.6162  -10.4506 C   0  0  0  0  0  0  0  0  0  0  0  0
   15.4043  -13.5309  -11.3303 C   0  0  0  0  0  0  0  0  0  0  0  0
   16.5282  -13.1653  -11.7568 O   0  0  0  0  0  0  0  0  0  0  0  0
   14.6667   -8.7942  -10.2366 C   0  0  0  0  0  0  0  0  0  0  0  0
   14.2891   -8.0884  -11.2196 O   0  0  0  0  0  0  0  0  0  0  0  0
   14.9405  -14.7840  -11.6881 O   0  0  0  0  0  0  0  0  0  0  0  0
   15.5798   -8.1247   -9.3459 N   0  0  0  0  0  0  0  0  0  0  0  0
   16.0530   -6.7984   -9.5333 C   0  0  1  0  0  0  0  0  0  0  0  0
   15.7022   -5.8329   -8.4384 C   0  0  0  0  0  0  0  0  0  0  0  0
   16.1003   -4.4386   -8.7690 C   0  0  0  0  0  0  0  0  0  0  0  0
   16.0847   -3.5632   -7.8936 O   0  0  0  0  0  0  0  0  0  0  0  0
   17.4875   -6.7264   -9.9137 C   0  0  0  0  0  0  0  0  0  0  0  0
   18.4179   -6.9530   -9.0627 O   0  0  0  0  0  0  0  0  0  0  0  0
   16.4912   -4.1099  -10.0585 O   0  0  0  0  0  0  0  0  0  0  0  0
   21.5347   -9.4015  -12.7336 C   0  0  0  0  0  0  0  0  0  0  0  0
   21.1756   -7.9649  -12.4529 C   0  0  0  0  0  0  0  0  0  0  0  0
   19.7695   -7.8244  -12.0072 C   0  0  2  0  0  0  0  0  0  0  0  0
   18.8287   -8.3497  -13.0876 C   0  0  0  0  0  0  0  0  0  0  0  0
   19.3101   -6.4566  -11.6409 C   0  0  2  0  0  0  0  0  0  0  0  0
   17.9291   -6.4094  -11.2153 N   0  0  0  0  0  0  0  0  0  0  0  0
   19.6390   -5.3947  -12.6100 C   0  0  0  0  0  0  0  0  0  0  0  0
   20.9947   -5.1014  -12.8621 O   0  0  0  0  0  0  0  0  0  0  0  0
   18.8078   -4.7227  -13.2367 O   0  0  0  0  0  0  0  0  0  0  0  0
  2  1  1  6
  2  3  1  0
  4  3  1  0
  5  6  2  0
  5  4  1  0
  7  8  2  0
  7  2  1  0
  9  5  1  0
 10  7  1  0
 11 10  1  0
 11 12  1  1
 13 14  2  0
 13 12  1  0
 15 16  2  0
 15 11  1  0
 17 13  1  0
 18 19  1  0
 19 20  1  0
 20 21  1  6
 22 20  1  0
 22 23  1  6
 23 15  1  0
 24 22  1  0
 25 24  1  0
 26 24  2  0
M  END
$$$$
