EDI.pdb
     RDKit          3D

 26 25  0  0  1  0  0  0  0  0999 V2000
   17.0029  -11.6329  -14.6919 N   0  0  0  0  0  0  0  0  0  0  0  0
   17.2470  -10.6246  -15.7039 C   0  0  1  0  0  0  0  0  0  0  0  0
   16.0930  -10.5859  -16.6495 C   0  0  0  0  0  0  0  0  0  0  0  0
   15.8259  -11.8842  -17.3452 C   0  0  0  0  0  0  0  0  0  0  0  0
   16.3017  -11.7474  -18.7690 C   0  0  0  0  0  0  0  0  0  0  0  0
   17.4715  -11.3582  -19.0114 O   0  0  0  0  0  0  0  0  0  0  0  0
   17.5595   -9.3556  -15.0413 C   0  0  0  0  0  0  0  0  0  0  0  0
   18.0340   -8.3520  -15.6533 O   0  0  0  0  0  0  0  0  0  0  0  0
   15.4724  -12.0436  -19.8358 O   0  0  0  0  0  0  0  0  0  0  0  0
   17.3521   -9.1432  -13.6316 N   0  0  0  0  0  0  0  0  0  0  0  0
   17.6036   -7.9160  -12.9616 C   0  0  1  0  0  0  0  0  0  0  0  0
   16.9631   -7.7813  -11.6105 C   0  0  0  0  0  0  0  0  0  0  0  0
   17.3379   -6.5109  -10.9343 C   0  0  0  0  0  0  0  0  0  0  0  0
   17.5828   -5.4987  -11.6039 O   0  0  0  0  0  0  0  0  0  0  0  0
   19.0378   -7.5274  -12.9496 C   0  0  0  0  0  0  0  0  0  0  0  0
   19.8860   -8.1218  -12.1958 O   0  0  0  0  0  0  0  0  0  0  0  0
   17.4156   -6.4513   -9.5508 O   0  0  0  0  0  0  0  0  0  0  0  0
   23.7836   -7.4168  -16.1236 C   0  0  0  0  0  0  0  0  0  0  0  0
   23.1445   -6.5729  -15.0508 C   0  0  0  0  0  0  0  0  0  0  0  0
   21.6992   -6.8655  -14.9062 C   0  0  2  0  0  0  0  0  0  0  0  0
   20.9760   -6.5634  -16.2154 C   0  0  0  0  0  0  0  0  0  0  0  0
   20.9713   -6.1551  -13.8192 C   0  0  2  0  0  0  0  0  0  0  0  0
   19.5675   -6.4946  -13.7510 N   0  0  0  0  0  0  0  0  0  0  0  0
   21.2052   -4.7011  -13.7422 C   0  0  0  0  0  0  0  0  0  0  0  0
   22.5082   -4.2361  -13.4715 O   0  0  0  0  0  0  0  0  0  0  0  0
   20.3355   -3.8325  -13.8988 O   0  0  0  0  0  0  0  0  0  0  0  0
  2  1  1  1
  2  3  1  0
  4  3  1  0
  5  6  2  0
  5  4  1  0
  7  8  2  0
  7  2  1  0
  9  5  1  0
 10  7  1  0
 11 10  1  0
 11 12  1  1
 13 14  2  0
 13 12  1  0
 15 16  2  0
 15 11  1  0
 17 13  1  0
 18 19  1  0
 19 20  1  0
 20 21  1  6
 22 20  1  0
 22 23  1  6
 23 15  1  0
 24 22  1  0
 25 24  1  0
 26 24  2  0
M  END
$$$$
