EDI.pdb
     RDKit          3D

 26 25  0  0  1  0  0  0  0  0999 V2000
   26.6785  -26.4308  -17.4575 N   0  0  0  0  0  0  0  0  0  0  0  0
   25.4168  -26.2192  -16.7767 C   0  0  1  0  0  0  0  0  0  0  0  0
   25.1371  -27.3823  -15.8843 C   0  0  0  0  0  0  0  0  0  0  0  0
   24.9888  -28.6864  -16.6042 C   0  0  0  0  0  0  0  0  0  0  0  0
   26.1133  -29.5861  -16.1591 C   0  0  0  0  0  0  0  0  0  0  0  0
   26.9821  -29.9687  -16.9820 O   0  0  0  0  0  0  0  0  0  0  0  0
   25.4502  -24.9126  -16.1144 C   0  0  0  0  0  0  0  0  0  0  0  0
   25.4651  -24.7737  -14.8545 O   0  0  0  0  0  0  0  0  0  0  0  0
   26.2182  -30.0102  -14.8465 O   0  0  0  0  0  0  0  0  0  0  0  0
   25.4687  -23.6712  -16.8451 N   0  0  0  0  0  0  0  0  0  0  0  0
   25.4783  -22.3861  -16.2396 C   0  0  1  0  0  0  0  0  0  0  0  0
   25.5757  -21.2301  -17.1925 C   0  0  0  0  0  0  0  0  0  0  0  0
   25.7380  -19.9312  -16.4866 C   0  0  0  0  0  0  0  0  0  0  0  0
   25.7379  -19.8917  -15.2491 O   0  0  0  0  0  0  0  0  0  0  0  0
   24.4069  -22.1970  -15.2275 C   0  0  0  0  0  0  0  0  0  0  0  0
   23.2387  -22.6976  -15.3880 O   0  0  0  0  0  0  0  0  0  0  0  0
   25.8903  -18.7569  -17.2087 O   0  0  0  0  0  0  0  0  0  0  0  0
   25.4908  -21.2376   -9.7439 C   0  0  0  0  0  0  0  0  0  0  0  0
   24.8411  -21.8300  -10.9681 C   0  0  0  0  0  0  0  0  0  0  0  0
   24.0681  -20.8189  -11.7266 C   0  0  2  0  0  0  0  0  0  0  0  0
   22.8793  -20.3451  -10.8957 C   0  0  0  0  0  0  0  0  0  0  0  0
   23.5471  -21.2272  -13.0600 C   0  0  2  0  0  0  0  0  0  0  0  0
   24.5879  -21.4663  -14.0347 N   0  0  0  0  0  0  0  0  0  0  0  0
   22.4515  -20.3979  -13.5956 C   0  0  0  0  0  0  0  0  0  0  0  0
   21.1588  -20.5476  -13.0533 O   0  0  0  0  0  0  0  0  0  0  0  0
   22.5715  -19.5613  -14.5016 O   0  0  0  0  0  0  0  0  0  0  0  0
  2  1  1  1
  2  3  1  0
  4  3  1  0
  5  6  2  0
  5  4  1  0
  7  8  2  0
  7  2  1  0
  9  5  1  0
 10  7  1  0
 11 10  1  0
 11 12  1  6
 13 14  2  0
 13 12  1  0
 15 16  2  0
 15 11  1  0
 17 13  1  0
 18 19  1  0
 19 20  1  0
 20 21  1  1
 22 20  1  0
 22 23  1  6
 23 15  1  0
 24 22  1  0
 25 24  1  0
 26 24  2  0
M  END
$$$$
