EDI.pdb
     RDKit          3D

 26 25  0  0  1  0  0  0  0  0999 V2000
   26.3806  -18.7142  -16.9332 N   0  0  0  0  0  0  0  0  0  0  0  0
   26.8331  -19.5391  -15.8310 C   0  0  1  0  0  0  0  0  0  0  0  0
   28.2604  -19.2220  -15.5314 C   0  0  0  0  0  0  0  0  0  0  0  0
   29.2460  -19.9997  -16.3467 C   0  0  0  0  0  0  0  0  0  0  0  0
   28.8591  -21.4545  -16.2678 C   0  0  0  0  0  0  0  0  0  0  0  0
   28.9331  -22.0714  -15.1757 O   0  0  0  0  0  0  0  0  0  0  0  0
   25.9048  -19.3793  -14.7086 C   0  0  0  0  0  0  0  0  0  0  0  0
   25.5687  -18.2497  -14.2418 O   0  0  0  0  0  0  0  0  0  0  0  0
   28.4167  -22.1424  -17.3834 O   0  0  0  0  0  0  0  0  0  0  0  0
   25.2944  -20.4995  -14.0394 N   0  0  0  0  0  0  0  0  0  0  0  0
   24.3911  -20.3852  -12.9489 C   0  0  1  0  0  0  0  0  0  0  0  0
   22.9835  -20.8216  -13.2350 C   0  0  0  0  0  0  0  0  0  0  0  0
   22.0533  -20.4849  -12.1245 C   0  0  0  0  0  0  0  0  0  0  0  0
   22.4417  -19.7882  -11.1776 O   0  0  0  0  0  0  0  0  0  0  0  0
   24.9141  -20.9557  -11.6805 C   0  0  0  0  0  0  0  0  0  0  0  0
   25.1731  -22.2051  -11.5651 O   0  0  0  0  0  0  0  0  0  0  0  0
   20.7463  -20.9486  -12.1420 O   0  0  0  0  0  0  0  0  0  0  0  0
   28.2553  -19.5807   -6.7454 C   0  0  0  0  0  0  0  0  0  0  0  0
   27.1772  -20.4681   -7.3126 C   0  0  0  0  0  0  0  0  0  0  0  0
   26.6125  -19.9175   -8.5670 C   0  0  2  0  0  0  0  0  0  0  0  0
   26.0194  -18.5361   -8.3056 C   0  0  0  0  0  0  0  0  0  0  0  0
   25.5695  -20.7294   -9.2521 C   0  0  2  0  0  0  0  0  0  0  0  0
   25.1617  -20.1826  -10.5270 N   0  0  0  0  0  0  0  0  0  0  0  0
   24.4223  -21.1274   -8.4153 C   0  0  0  0  0  0  0  0  0  0  0  0
   24.6574  -21.9185   -7.2723 O   0  0  0  0  0  0  0  0  0  0  0  0
   23.2424  -20.8194   -8.6346 O   0  0  0  0  0  0  0  0  0  0  0  0
  2  1  1  6
  2  3  1  0
  4  3  1  0
  5  6  2  0
  5  4  1  0
  7  8  2  0
  7  2  1  0
  9  5  1  0
 10  7  1  0
 11 10  1  0
 11 12  1  6
 13 14  2  0
 13 12  1  0
 15 16  2  0
 15 11  1  0
 17 13  1  0
 18 19  1  0
 19 20  1  0
 20 21  1  1
 22 20  1  0
 22 23  1  6
 23 15  1  0
 24 22  1  0
 25 24  1  0
 26 24  2  0
M  END
$$$$
