EDI.pdb
     RDKit          3D

 26 25  0  0  1  0  0  0  0  0999 V2000
   17.4459  -11.6463  -18.3692 N   0  0  0  0  0  0  0  0  0  0  0  0
   18.0767  -11.5043  -17.0722 C   0  0  1  0  0  0  0  0  0  0  0  0
   19.2907  -12.3705  -17.0169 C   0  0  0  0  0  0  0  0  0  0  0  0
   18.9970  -13.8383  -16.9993 C   0  0  0  0  0  0  0  0  0  0  0  0
   18.4280  -14.1755  -15.6448 C   0  0  0  0  0  0  0  0  0  0  0  0
   19.1429  -14.0811  -14.6160 O   0  0  0  0  0  0  0  0  0  0  0  0
   18.3077  -10.0809  -16.8121 C   0  0  0  0  0  0  0  0  0  0  0  0
   18.8719   -9.3067  -17.6423 O   0  0  0  0  0  0  0  0  0  0  0  0
   17.1173  -14.5933  -15.4993 O   0  0  0  0  0  0  0  0  0  0  0  0
   17.9105   -9.4407  -15.5843 N   0  0  0  0  0  0  0  0  0  0  0  0
   18.1026   -8.0617  -15.3020 C   0  0  1  0  0  0  0  0  0  0  0  0
   17.0099   -7.4136  -14.5021 C   0  0  0  0  0  0  0  0  0  0  0  0
   15.6617   -7.6844  -15.0686 C   0  0  0  0  0  0  0  0  0  0  0  0
   14.8702   -8.4210  -14.4654 O   0  0  0  0  0  0  0  0  0  0  0  0
   19.4550   -7.7450  -14.7739 C   0  0  0  0  0  0  0  0  0  0  0  0
   19.9951   -8.4503  -13.8509 O   0  0  0  0  0  0  0  0  0  0  0  0
   15.2825   -7.1145  -16.2748 O   0  0  0  0  0  0  0  0  0  0  0  0
   24.9118   -6.5590  -16.7791 C   0  0  0  0  0  0  0  0  0  0  0  0
   24.0089   -6.3222  -15.5958 C   0  0  0  0  0  0  0  0  0  0  0  0
   22.5890   -6.5922  -15.9222 C   0  0  2  0  0  0  0  0  0  0  0  0
   22.1499   -5.7139  -17.0902 C   0  0  0  0  0  0  0  0  0  0  0  0
   21.5972   -6.4087  -14.8274 C   0  0  2  0  0  0  0  0  0  0  0  0
   20.2347   -6.6651  -15.2379 N   0  0  0  0  0  0  0  0  0  0  0  0
   21.7284   -5.1602  -14.0534 C   0  0  0  0  0  0  0  0  0  0  0  0
   20.6426   -4.2614  -14.0250 O   0  0  0  0  0  0  0  0  0  0  0  0
   22.7333   -4.8253  -13.4106 O   0  0  0  0  0  0  0  0  0  0  0  0
  2  1  1  6
  2  3  1  0
  4  3  1  0
  5  6  2  0
  5  4  1  0
  7  8  2  0
  7  2  1  0
  9  5  1  0
 10  7  1  0
 11 10  1  0
 11 12  1  1
 13 14  2  0
 13 12  1  0
 15 16  2  0
 15 11  1  0
 17 13  1  0
 18 19  1  0
 19 20  1  0
 20 21  1  6
 22 20  1  0
 22 23  1  6
 23 15  1  0
 24 22  1  0
 25 24  1  0
 26 24  2  0
M  END
$$$$
