EDI.pdb
     RDKit          3D

 26 25  0  0  1  0  0  0  0  0999 V2000
   12.9154  -10.3909   -9.7255 N   0  0  0  0  0  0  0  0  0  0  0  0
   14.3440  -10.2936   -9.9486 C   0  0  1  0  0  0  0  0  0  0  0  0
   14.7373  -11.2309  -11.0413 C   0  0  0  0  0  0  0  0  0  0  0  0
   14.6255  -12.6788  -10.6776 C   0  0  0  0  0  0  0  0  0  0  0  0
   14.9518  -13.4867  -11.9076 C   0  0  0  0  0  0  0  0  0  0  0  0
   14.0735  -14.2081  -12.4431 O   0  0  0  0  0  0  0  0  0  0  0  0
   14.6932   -8.8879  -10.1702 C   0  0  0  0  0  0  0  0  0  0  0  0
   14.1381   -8.1659  -11.0519 O   0  0  0  0  0  0  0  0  0  0  0  0
   16.2134  -13.4560  -12.4743 O   0  0  0  0  0  0  0  0  0  0  0  0
   15.7023   -8.2070   -9.3999 N   0  0  0  0  0  0  0  0  0  0  0  0
   16.1851   -6.9024   -9.6885 C   0  0  1  0  0  0  0  0  0  0  0  0
   15.8901   -5.8651   -8.6440 C   0  0  0  0  0  0  0  0  0  0  0  0
   16.4264   -4.5277   -9.0123 C   0  0  0  0  0  0  0  0  0  0  0  0
   16.4805   -4.1851  -10.2008 O   0  0  0  0  0  0  0  0  0  0  0  0
   17.6045   -6.8766  -10.1273 C   0  0  0  0  0  0  0  0  0  0  0  0
   18.5618   -7.1202   -9.3116 O   0  0  0  0  0  0  0  0  0  0  0  0
   16.8689   -3.6563   -8.0282 O   0  0  0  0  0  0  0  0  0  0  0  0
   21.8948   -9.0836  -12.5488 C   0  0  0  0  0  0  0  0  0  0  0  0
   21.1225   -7.9415  -13.1575 C   0  0  0  0  0  0  0  0  0  0  0  0
   19.7450   -7.8572  -12.6180 C   0  0  2  0  0  0  0  0  0  0  0  0
   18.7347   -8.0665  -13.7421 C   0  0  0  0  0  0  0  0  0  0  0  0
   19.3722   -6.6019  -11.9099 C   0  0  2  0  0  0  0  0  0  0  0  0
   18.0016   -6.5876  -11.4495 N   0  0  0  0  0  0  0  0  0  0  0  0
   19.7521   -5.3506  -12.5916 C   0  0  0  0  0  0  0  0  0  0  0  0
   18.7368   -4.4507  -12.9748 O   0  0  0  0  0  0  0  0  0  0  0  0
   20.9132   -5.0136  -12.8626 O   0  0  0  0  0  0  0  0  0  0  0  0
  2  1  1  6
  2  3  1  0
  4  3  1  0
  5  6  2  0
  5  4  1  0
  7  8  2  0
  7  2  1  0
  9  5  1  0
 10  7  1  0
 11 10  1  0
 11 12  1  1
 13 14  2  0
 13 12  1  0
 15 16  2  0
 15 11  1  0
 17 13  1  0
 18 19  1  0
 19 20  1  0
 20 21  1  6
 22 20  1  0
 22 23  1  6
 23 15  1  0
 24 22  1  0
 25 24  1  0
 26 24  2  0
M  END
$$$$
