TVD.pdb
     RDKit          3D

 23 22  0  0  1  0  0  0  0  0999 V2000
    7.9254  -19.3085   19.3874 C   0  0  0  0  0  0  0  0  0  0  0  0
    8.6533  -19.0170   18.0893 C   0  0  1  0  0  0  0  0  0  0  0  0
    8.1312  -19.8646   17.1054 O   0  0  0  0  0  0  0  0  0  0  0  0
    8.3185  -17.5891   17.6799 C   0  0  2  0  0  0  0  0  0  0  0  0
    8.9484  -17.3611   16.3794 N   0  0  0  0  0  0  0  0  0  0  0  0
    8.8904  -16.6132   18.6330 C   0  0  0  0  0  0  0  0  0  0  0  0
   10.1437  -16.4039   18.7024 O   0  0  0  0  0  0  0  0  0  0  0  0
    7.2822  -12.9883   19.8116 C   0  0  0  0  0  0  0  0  0  0  0  0
    7.5401  -13.9581   20.9185 C   0  0  2  0  0  0  0  0  0  0  0  0
    8.1567  -13.2596   22.1289 C   0  0  0  0  0  0  0  0  0  0  0  0
    8.5475  -14.9977   20.4665 C   0  0  2  0  0  0  0  0  0  0  0  0
    8.0164  -15.8959   19.4886 N   0  0  0  0  0  0  0  0  0  0  0  0
    9.0345  -15.8075   21.6210 C   0  0  0  0  0  0  0  0  0  0  0  0
    8.2914  -16.7166   22.1320 O   0  0  0  0  0  0  0  0  0  0  0  0
   10.2981  -15.6516   22.2247 N   0  0  0  0  0  0  0  0  0  0  0  0
   10.7094  -16.4269   23.4147 C   0  0  1  0  0  0  0  0  0  0  0  0
   12.1886  -16.2674   23.6202 C   0  0  0  0  0  0  0  0  0  0  0  0
   12.9394  -16.8742   22.5334 C   0  0  0  0  0  0  0  0  0  0  0  0
   12.6609  -17.9756   22.0515 O   0  0  0  0  0  0  0  0  0  0  0  0
   10.0065  -15.8800   24.5951 C   0  0  0  0  0  0  0  0  0  0  0  0
    9.4092  -14.6200   24.4780 O   0  0  0  0  0  0  0  0  0  0  0  0
   14.0455  -16.1905   21.9857 O   0  0  0  0  0  0  0  0  0  0  0  0
    9.9188  -16.4650   25.6632 O   0  0  0  0  0  0  0  0  0  0  0  0
  2  1  1  1
  2  3  1  0
  4  5  1  6
  4  2  1  0
  6  7  2  0
  6  4  1  0
  9  8  1  6
  9 11  1  0
 10  9  1  0
 11 12  1  6
 11 13  1  0
 12  6  1  0
 13 14  2  0
 13 15  1  0
 15 16  1  0
 16 20  1  0
 16 17  1  1
 18 17  1  0
 18 22  1  0
 19 18  2  0
 20 23  2  0
 20 21  1  0
M  END
$$$$
