TVD.pdb
     RDKit          3D

 23 22  0  0  1  0  0  0  0  0999 V2000
    6.6605  -17.3381   23.1461 C   0  0  0  0  0  0  0  0  0  0  0  0
    7.2939  -16.6884   21.9308 C   0  0  1  0  0  0  0  0  0  0  0  0
    6.6544  -17.1933   20.7927 O   0  0  0  0  0  0  0  0  0  0  0  0
    6.9946  -15.1968   21.9931 C   0  0  2  0  0  0  0  0  0  0  0  0
    7.4509  -14.6186   20.7291 N   0  0  0  0  0  0  0  0  0  0  0  0
    7.7527  -14.5460   23.0839 C   0  0  0  0  0  0  0  0  0  0  0  0
    8.9937  -14.2874   22.9722 O   0  0  0  0  0  0  0  0  0  0  0  0
    6.4055  -11.7346   25.6886 C   0  0  0  0  0  0  0  0  0  0  0  0
    6.9621  -12.9361   26.3807 C   0  0  2  0  0  0  0  0  0  0  0  0
    7.8827  -12.5310   27.5303 C   0  0  0  0  0  0  0  0  0  0  0  0
    7.8130  -13.7374   25.4145 C   0  0  2  0  0  0  0  0  0  0  0  0
    7.0754  -14.2040   24.2817 N   0  0  0  0  0  0  0  0  0  0  0  0
    8.4186  -14.9215   26.0908 C   0  0  0  0  0  0  0  0  0  0  0  0
    7.6776  -15.8860   26.4912 O   0  0  0  0  0  0  0  0  0  0  0  0
    9.7970  -15.0772   26.3380 N   0  0  0  0  0  0  0  0  0  0  0  0
   10.3538  -16.2781   26.9968 C   0  0  1  0  0  0  0  0  0  0  0  0
   11.7990  -16.4246   26.6154 C   0  0  0  0  0  0  0  0  0  0  0  0
   12.0647  -17.7391   26.0547 C   0  0  0  0  0  0  0  0  0  0  0  0
   11.2088  -18.6242   25.9713 O   0  0  0  0  0  0  0  0  0  0  0  0
   10.2680  -16.0903   28.4610 C   0  0  0  0  0  0  0  0  0  0  0  0
   10.1056  -17.2274   29.2603 O   0  0  0  0  0  0  0  0  0  0  0  0
   13.3567  -18.0428   25.5759 O   0  0  0  0  0  0  0  0  0  0  0  0
   10.3307  -15.0015   29.0098 O   0  0  0  0  0  0  0  0  0  0  0  0
  2  1  1  1
  2  3  1  0
  4  5  1  6
  4  2  1  0
  6  7  2  0
  6  4  1  0
  9  8  1  6
  9 11  1  0
 10  9  1  0
 11 12  1  6
 11 13  1  0
 12  6  1  0
 13 14  2  0
 13 15  1  0
 15 16  1  0
 16 20  1  0
 16 17  1  6
 18 17  1  0
 18 22  1  0
 19 18  2  0
 20 23  2  0
 20 21  1  0
M  END
$$$$
