TVD.pdb
     RDKit          3D

 23 22  0  0  1  0  0  0  0  0999 V2000
    6.1380  -16.7442   21.9924 C   0  0  0  0  0  0  0  0  0  0  0  0
    7.1587  -16.0608   21.1029 C   0  0  1  0  0  0  0  0  0  0  0  0
    6.7013  -16.1448   19.7827 O   0  0  0  0  0  0  0  0  0  0  0  0
    7.1876  -14.5854   21.4783 C   0  0  2  0  0  0  0  0  0  0  0  0
    7.9493  -13.8967   20.4364 N   0  0  0  0  0  0  0  0  0  0  0  0
    7.8916  -14.3755   22.7621 C   0  0  0  0  0  0  0  0  0  0  0  0
    9.1607  -14.4234   22.8429 O   0  0  0  0  0  0  0  0  0  0  0  0
    6.3782  -11.8530   25.6189 C   0  0  0  0  0  0  0  0  0  0  0  0
    6.8731  -13.1500   26.1714 C   0  0  2  0  0  0  0  0  0  0  0  0
    7.7099  -12.9279   27.4298 C   0  0  0  0  0  0  0  0  0  0  0  0
    7.7864  -13.8223   25.1646 C   0  0  2  0  0  0  0  0  0  0  0  0
    7.1291  -14.1152   23.9288 N   0  0  0  0  0  0  0  0  0  0  0  0
    8.3353  -15.0982   25.7094 C   0  0  0  0  0  0  0  0  0  0  0  0
    7.5739  -16.1164   25.8618 O   0  0  0  0  0  0  0  0  0  0  0  0
    9.6793  -15.2882   26.0876 N   0  0  0  0  0  0  0  0  0  0  0  0
   10.1843  -16.5807   26.5980 C   0  0  1  0  0  0  0  0  0  0  0  0
   11.4995  -16.8901   25.9422 C   0  0  0  0  0  0  0  0  0  0  0  0
   12.0807  -18.1100   26.4780 C   0  0  0  0  0  0  0  0  0  0  0  0
   11.5661  -19.2227   26.3373 O   0  0  0  0  0  0  0  0  0  0  0  0
   10.4007  -16.4556   28.0554 C   0  0  0  0  0  0  0  0  0  0  0  0
   10.5122  -17.6315   28.8059 O   0  0  0  0  0  0  0  0  0  0  0  0
   13.2920  -18.0449   27.1986 O   0  0  0  0  0  0  0  0  0  0  0  0
   10.4870  -15.3866   28.6388 O   0  0  0  0  0  0  0  0  0  0  0  0
  2  1  1  1
  2  3  1  0
  4  5  1  6
  4  2  1  0
  6  7  2  0
  6  4  1  0
  9  8  1  6
  9 11  1  0
 10  9  1  0
 11 12  1  6
 11 13  1  0
 12  6  1  0
 13 14  2  0
 13 15  1  0
 15 16  1  0
 16 20  1  0
 16 17  1  6
 18 17  1  0
 18 22  1  0
 19 18  2  0
 20 23  2  0
 20 21  1  0
M  END
$$$$
