TVD.pdb
     RDKit          3D

 23 22  0  0  1  0  0  0  0  0999 V2000
    7.6140  -18.9368   18.6461 C   0  0  0  0  0  0  0  0  0  0  0  0
    8.0193  -18.4317   17.2747 C   0  0  1  0  0  0  0  0  0  0  0  0
    7.2838  -19.1445   16.3208 O   0  0  0  0  0  0  0  0  0  0  0  0
    7.5962  -16.9725   17.1739 C   0  0  2  0  0  0  0  0  0  0  0  0
    7.7791  -16.5724   15.7787 N   0  0  0  0  0  0  0  0  0  0  0  0
    8.4612  -16.1078   18.0058 C   0  0  0  0  0  0  0  0  0  0  0  0
    9.6570  -15.8356   17.6662 O   0  0  0  0  0  0  0  0  0  0  0  0
    6.9376  -14.5572   21.6861 C   0  0  0  0  0  0  0  0  0  0  0  0
    7.9396  -13.7835   20.8926 C   0  0  2  0  0  0  0  0  0  0  0  0
    7.2514  -12.8139   19.9338 C   0  0  0  0  0  0  0  0  0  0  0  0
    8.7542  -14.7294   20.0315 C   0  0  2  0  0  0  0  0  0  0  0  0
    7.9405  -15.5717   19.2108 N   0  0  0  0  0  0  0  0  0  0  0  0
    9.6229  -15.6038   20.8722 C   0  0  0  0  0  0  0  0  0  0  0  0
    9.2444  -16.7882   21.1782 O   0  0  0  0  0  0  0  0  0  0  0  0
   10.8800  -15.2219   21.3814 N   0  0  0  0  0  0  0  0  0  0  0  0
   11.7109  -16.1275   22.2035 C   0  0  1  0  0  0  0  0  0  0  0  0
   13.0898  -15.5473   22.3361 C   0  0  0  0  0  0  0  0  0  0  0  0
   13.9607  -16.4285   23.0962 C   0  0  0  0  0  0  0  0  0  0  0  0
   14.0054  -16.4360   24.3294 O   0  0  0  0  0  0  0  0  0  0  0  0
   11.1068  -16.2231   23.5497 C   0  0  0  0  0  0  0  0  0  0  0  0
   11.3195  -17.3959   24.2830 O   0  0  0  0  0  0  0  0  0  0  0  0
   14.8064  -17.3284   22.4137 O   0  0  0  0  0  0  0  0  0  0  0  0
   10.4344  -15.3384   24.0556 O   0  0  0  0  0  0  0  0  0  0  0  0
  2  1  1  1
  2  3  1  0
  4  5  1  6
  4  2  1  0
  6  7  2  0
  6  4  1  0
  9  8  1  6
  9 11  1  0
 10  9  1  0
 11 12  1  1
 11 13  1  0
 12  6  1  0
 13 14  2  0
 13 15  1  0
 15 16  1  0
 16 20  1  0
 16 17  1  1
 18 17  1  0
 18 22  1  0
 19 18  2  0
 20 23  2  0
 20 21  1  0
M  END
$$$$
