TVD.pdb
     RDKit          3D

 23 22  0  0  1  0  0  0  0  0999 V2000
    6.0854  -14.1283   19.4125 C   0  0  0  0  0  0  0  0  0  0  0  0
    6.7761  -14.3944   20.7362 C   0  0  1  0  0  0  0  0  0  0  0  0
    7.8820  -15.2149   20.4853 O   0  0  0  0  0  0  0  0  0  0  0  0
    7.3077  -13.0663   21.2577 C   0  0  2  0  0  0  0  0  0  0  0  0
    8.2550  -12.5669   20.2610 N   0  0  0  0  0  0  0  0  0  0  0  0
    8.0455  -13.2485   22.5266 C   0  0  0  0  0  0  0  0  0  0  0  0
    9.3085  -13.4030   22.5480 O   0  0  0  0  0  0  0  0  0  0  0  0
    5.9027  -13.0394   26.1902 C   0  0  0  0  0  0  0  0  0  0  0  0
    7.3670  -12.7458   26.1487 C   0  0  2  0  0  0  0  0  0  0  0  0
    7.6230  -11.2581   25.9148 C   0  0  0  0  0  0  0  0  0  0  0  0
    8.0049  -13.4770   24.9833 C   0  0  2  0  0  0  0  0  0  0  0  0
    7.3232  -13.2507   23.7467 N   0  0  0  0  0  0  0  0  0  0  0  0
    8.0386  -14.9482   25.2293 C   0  0  0  0  0  0  0  0  0  0  0  0
    7.2820  -15.7333   24.5578 O   0  0  0  0  0  0  0  0  0  0  0  0
    8.8682  -15.5766   26.1792 N   0  0  0  0  0  0  0  0  0  0  0  0
    9.3613  -16.9602   26.0095 C   0  0  1  0  0  0  0  0  0  0  0  0
   10.2598  -17.0197   24.8074 C   0  0  0  0  0  0  0  0  0  0  0  0
   10.7958  -18.3573   24.6167 C   0  0  0  0  0  0  0  0  0  0  0  0
   10.3905  -19.3432   25.2386 O   0  0  0  0  0  0  0  0  0  0  0  0
   10.1485  -17.3263   27.2065 C   0  0  0  0  0  0  0  0  0  0  0  0
    9.9021  -18.5697   27.7993 O   0  0  0  0  0  0  0  0  0  0  0  0
   11.8312  -18.5646   23.6809 O   0  0  0  0  0  0  0  0  0  0  0  0
   10.9988  -16.6059   27.7052 O   0  0  0  0  0  0  0  0  0  0  0  0
  2  1  1  6
  2  3  1  0
  4  5  1  6
  4  2  1  0
  6  7  2  0
  6  4  1  0
  9  8  1  6
  9 11  1  0
 10  9  1  0
 11 12  1  6
 11 13  1  0
 12  6  1  0
 13 14  2  0
 13 15  1  0
 15 16  1  0
 16 20  1  0
 16 17  1  6
 18 17  1  0
 18 22  1  0
 19 18  2  0
 20 23  2  0
 20 21  1  0
M  END
$$$$
