TVD.pdb
     RDKit          3D

 23 22  0  0  1  0  0  0  0  0999 V2000
    7.3296  -19.1239   19.0477 C   0  0  0  0  0  0  0  0  0  0  0  0
    8.1579  -18.9186   17.7939 C   0  0  1  0  0  0  0  0  0  0  0  0
    7.5496  -19.6347   16.7564 O   0  0  0  0  0  0  0  0  0  0  0  0
    8.0865  -17.4426   17.4269 C   0  0  2  0  0  0  0  0  0  0  0  0
    8.8102  -17.2828   16.1656 N   0  0  0  0  0  0  0  0  0  0  0  0
    8.7643  -16.6074   18.4422 C   0  0  0  0  0  0  0  0  0  0  0  0
   10.0329  -16.5667   18.5341 O   0  0  0  0  0  0  0  0  0  0  0  0
    7.4037  -12.9410   19.7235 C   0  0  0  0  0  0  0  0  0  0  0  0
    7.6987  -13.9058   20.8254 C   0  0  2  0  0  0  0  0  0  0  0  0
    8.4504  -13.2237   21.9668 C   0  0  0  0  0  0  0  0  0  0  0  0
    8.6069  -15.0074   20.3143 C   0  0  2  0  0  0  0  0  0  0  0  0
    7.9766  -15.8350   19.3330 N   0  0  0  0  0  0  0  0  0  0  0  0
    9.0655  -15.8836   21.4315 C   0  0  0  0  0  0  0  0  0  0  0  0
    8.2519  -16.7015   21.9871 O   0  0  0  0  0  0  0  0  0  0  0  0
   10.3751  -15.8890   21.9514 N   0  0  0  0  0  0  0  0  0  0  0  0
   10.7851  -16.7795   23.0583 C   0  0  1  0  0  0  0  0  0  0  0  0
   12.2849  -16.8237   23.1262 C   0  0  0  0  0  0  0  0  0  0  0  0
   12.8505  -17.3836   21.9099 C   0  0  0  0  0  0  0  0  0  0  0  0
   12.3962  -18.3862   21.3521 O   0  0  0  0  0  0  0  0  0  0  0  0
   10.2709  -16.2175   24.3256 C   0  0  0  0  0  0  0  0  0  0  0  0
   10.1647  -17.0730   25.4279 O   0  0  0  0  0  0  0  0  0  0  0  0
   13.9746  -16.7690   21.3187 O   0  0  0  0  0  0  0  0  0  0  0  0
    9.9346  -15.0519   24.4633 O   0  0  0  0  0  0  0  0  0  0  0  0
  2  1  1  1
  2  3  1  0
  4  5  1  6
  4  2  1  0
  6  7  2  0
  6  4  1  0
  9  8  1  6
  9 11  1  0
 10  9  1  0
 11 12  1  6
 11 13  1  0
 12  6  1  0
 13 14  2  0
 13 15  1  0
 15 16  1  0
 16 20  1  0
 16 17  1  1
 18 17  1  0
 18 22  1  0
 19 18  2  0
 20 23  2  0
 20 21  1  0
M  END
$$$$
