TVD.pdb
     RDKit          3D

 23 22  0  0  1  0  0  0  0  0999 V2000
    6.9926  -18.9693   19.1191 C   0  0  0  0  0  0  0  0  0  0  0  0
    7.9751  -18.8210   17.9734 C   0  0  1  0  0  0  0  0  0  0  0  0
    7.5146  -19.6056   16.9096 O   0  0  0  0  0  0  0  0  0  0  0  0
    7.9372  -17.3698   17.5143 C   0  0  2  0  0  0  0  0  0  0  0  0
    8.7601  -17.2841   16.3078 N   0  0  0  0  0  0  0  0  0  0  0  0
    8.5335  -16.4738   18.5289 C   0  0  0  0  0  0  0  0  0  0  0  0
    9.7897  -16.4347   18.7291 O   0  0  0  0  0  0  0  0  0  0  0  0
    7.2750  -12.6843   19.4486 C   0  0  0  0  0  0  0  0  0  0  0  0
    7.3343  -13.6050   20.6238 C   0  0  2  0  0  0  0  0  0  0  0  0
    7.9554  -12.9113   21.8347 C   0  0  0  0  0  0  0  0  0  0  0  0
    8.2277  -14.7882   20.3050 C   0  0  2  0  0  0  0  0  0  0  0  0
    7.6802  -15.6400   19.2952 N   0  0  0  0  0  0  0  0  0  0  0  0
    8.4747  -15.6148   21.5223 C   0  0  0  0  0  0  0  0  0  0  0  0
    7.5588  -16.3860   21.9764 O   0  0  0  0  0  0  0  0  0  0  0  0
    9.6825  -15.6206   22.2478 N   0  0  0  0  0  0  0  0  0  0  0  0
   10.0603  -16.7294   23.1500 C   0  0  1  0  0  0  0  0  0  0  0  0
   10.0782  -18.0141   22.3722 C   0  0  0  0  0  0  0  0  0  0  0  0
   10.5333  -19.1218   23.1961 C   0  0  0  0  0  0  0  0  0  0  0  0
   10.1813  -19.2822   24.3680 O   0  0  0  0  0  0  0  0  0  0  0  0
   11.4217  -16.4698   23.6654 C   0  0  0  0  0  0  0  0  0  0  0  0
   11.6907  -16.7914   25.0005 O   0  0  0  0  0  0  0  0  0  0  0  0
   11.4218  -20.0735   22.6525 O   0  0  0  0  0  0  0  0  0  0  0  0
   12.3215  -15.9916   22.9928 O   0  0  0  0  0  0  0  0  0  0  0  0
  2  1  1  1
  2  3  1  0
  4  5  1  6
  4  2  1  0
  6  7  2  0
  6  4  1  0
  9  8  1  6
  9 11  1  0
 10  9  1  0
 11 12  1  6
 11 13  1  0
 12  6  1  0
 13 14  2  0
 13 15  1  0
 15 16  1  0
 16 20  1  0
 16 17  1  6
 18 17  1  0
 18 22  1  0
 19 18  2  0
 20 23  2  0
 20 21  1  0
M  END
$$$$
