TVD.pdb
     RDKit          3D

 23 22  0  0  1  0  0  0  0  0999 V2000
    6.8828  -17.3162   22.9201 C   0  0  0  0  0  0  0  0  0  0  0  0
    7.5278  -16.5456   21.7842 C   0  0  1  0  0  0  0  0  0  0  0  0
    6.9245  -16.9572   20.5901 O   0  0  0  0  0  0  0  0  0  0  0  0
    7.1945  -15.0722   21.9747 C   0  0  2  0  0  0  0  0  0  0  0  0
    7.6574  -14.3733   20.7758 N   0  0  0  0  0  0  0  0  0  0  0  0
    7.9206  -14.5066   23.1326 C   0  0  0  0  0  0  0  0  0  0  0  0
    9.1629  -14.2371   23.0744 O   0  0  0  0  0  0  0  0  0  0  0  0
    6.4867  -11.8665   25.8692 C   0  0  0  0  0  0  0  0  0  0  0  0
    7.0221  -13.1123   26.4964 C   0  0  2  0  0  0  0  0  0  0  0  0
    7.8978  -12.7867   27.7050 C   0  0  0  0  0  0  0  0  0  0  0  0
    7.9116  -13.8432   25.5093 C   0  0  2  0  0  0  0  0  0  0  0  0
    7.2105  -14.2608   24.3350 N   0  0  0  0  0  0  0  0  0  0  0  0
    8.5249  -15.0509   26.1349 C   0  0  0  0  0  0  0  0  0  0  0  0
    7.8013  -16.0674   26.4231 O   0  0  0  0  0  0  0  0  0  0  0  0
    9.8925  -15.1754   26.4501 N   0  0  0  0  0  0  0  0  0  0  0  0
   10.4473  -16.3742   27.1143 C   0  0  1  0  0  0  0  0  0  0  0  0
   11.8847  -16.5405   26.7118 C   0  0  0  0  0  0  0  0  0  0  0  0
   12.0236  -16.5926   25.2658 C   0  0  0  0  0  0  0  0  0  0  0  0
   11.3546  -17.3417   24.5487 O   0  0  0  0  0  0  0  0  0  0  0  0
   10.3870  -16.1684   28.5774 C   0  0  0  0  0  0  0  0  0  0  0  0
   10.6700  -17.2598   29.4062 O   0  0  0  0  0  0  0  0  0  0  0  0
   12.9629  -15.7557   24.6269 O   0  0  0  0  0  0  0  0  0  0  0  0
   10.1045  -15.1022   29.1010 O   0  0  0  0  0  0  0  0  0  0  0  0
  2  1  1  1
  2  3  1  0
  4  5  1  6
  4  2  1  0
  6  7  2  0
  6  4  1  0
  9  8  1  6
  9 11  1  0
 10  9  1  0
 11 12  1  6
 11 13  1  0
 12  6  1  0
 13 14  2  0
 13 15  1  0
 15 16  1  0
 16 20  1  0
 16 17  1  6
 18 17  1  0
 18 22  1  0
 19 18  2  0
 20 23  2  0
 20 21  1  0
M  END
$$$$
