TVD.pdb
     RDKit          3D

 23 22  0  0  1  0  0  0  0  0999 V2000
    7.4440  -17.4110   22.4463 C   0  0  0  0  0  0  0  0  0  0  0  0
    7.8966  -16.4073   21.4033 C   0  0  1  0  0  0  0  0  0  0  0  0
    7.3265  -16.7750   20.1789 O   0  0  0  0  0  0  0  0  0  0  0  0
    7.3177  -15.0510   21.7823 C   0  0  2  0  0  0  0  0  0  0  0  0
    7.5964  -14.1438   20.6690 N   0  0  0  0  0  0  0  0  0  0  0  0
    7.9836  -14.5041   22.9845 C   0  0  0  0  0  0  0  0  0  0  0  0
    9.2388  -14.2968   23.0160 O   0  0  0  0  0  0  0  0  0  0  0  0
    6.3826  -11.8233   25.7160 C   0  0  0  0  0  0  0  0  0  0  0  0
    6.8672  -13.1105   26.2995 C   0  0  2  0  0  0  0  0  0  0  0  0
    7.6462  -12.8697   27.5912 C   0  0  0  0  0  0  0  0  0  0  0  0
    7.8306  -13.7799   25.3385 C   0  0  2  0  0  0  0  0  0  0  0  0
    7.1998  -14.2054   24.1277 N   0  0  0  0  0  0  0  0  0  0  0  0
    8.4725  -14.9707   25.9678 C   0  0  0  0  0  0  0  0  0  0  0  0
    7.8010  -16.0456   26.1508 O   0  0  0  0  0  0  0  0  0  0  0  0
    9.8136  -15.0169   26.3975 N   0  0  0  0  0  0  0  0  0  0  0  0
   10.4149  -16.2304   26.9907 C   0  0  1  0  0  0  0  0  0  0  0  0
   11.7668  -16.4609   26.3785 C   0  0  0  0  0  0  0  0  0  0  0  0
   12.4225  -17.6155   26.9701 C   0  0  0  0  0  0  0  0  0  0  0  0
   11.8440  -18.4166   27.7093 O   0  0  0  0  0  0  0  0  0  0  0  0
   10.5854  -16.0061   28.4423 C   0  0  0  0  0  0  0  0  0  0  0  0
   10.3917  -14.7101   28.9336 O   0  0  0  0  0  0  0  0  0  0  0  0
   13.7871  -17.8535   26.7017 O   0  0  0  0  0  0  0  0  0  0  0  0
   10.8851  -16.8861   29.2338 O   0  0  0  0  0  0  0  0  0  0  0  0
  2  1  1  1
  2  3  1  0
  4  5  1  6
  4  2  1  0
  6  7  2  0
  6  4  1  0
  9  8  1  6
  9 11  1  0
 10  9  1  0
 11 12  1  6
 11 13  1  0
 12  6  1  0
 13 14  2  0
 13 15  1  0
 15 16  1  0
 16 20  1  0
 16 17  1  6
 18 17  1  0
 18 22  1  0
 19 18  2  0
 20 23  2  0
 20 21  1  0
M  END
$$$$
