GYC.pdb
     RDKit          3D

 23 23  0  0  1  0  0  0  0  0999 V2000
    4.1940  -20.1790   22.7216 N   0  0  0  0  0  0  0  0  0  0  0  0
    5.2772  -20.0272   23.6780 C   0  0  0  0  0  0  0  0  0  0  0  0
    5.7527  -18.6024   23.7197 C   0  0  0  0  0  0  0  0  0  0  0  0
    5.2520  -17.7908   22.9308 O   0  0  0  0  0  0  0  0  0  0  0  0
    6.1490  -10.9348   26.5695 O   0  0  0  0  0  0  0  0  0  0  0  0
    6.5190  -12.2778   26.4503 C   0  0  0  0  0  0  0  0  0  0  0  0
    5.6523  -13.2939   26.7982 C   0  0  0  0  0  0  0  0  0  0  0  0
    6.0275  -14.6176   26.6767 C   0  0  0  0  0  0  0  0  0  0  0  0
    7.2721  -14.9800   26.2072 C   0  0  0  0  0  0  0  0  0  0  0  0
    7.6908  -16.4081   26.0707 C   0  0  0  0  0  0  0  0  0  0  0  0
    7.3561  -16.9080   24.7093 C   0  0  2  0  0  0  0  0  0  0  0  0
    6.7517  -18.1934   24.6401 N   0  0  0  0  0  0  0  0  0  0  0  0
    8.4716  -16.7644   23.7209 C   0  0  0  0  0  0  0  0  0  0  0  0
    9.2993  -17.6928   23.6316 O   0  0  0  0  0  0  0  0  0  0  0  0
    8.1309  -13.9603   25.8622 C   0  0  0  0  0  0  0  0  0  0  0  0
    7.7649  -12.6331   25.9802 C   0  0  0  0  0  0  0  0  0  0  0  0
    8.5742  -15.6010   22.9140 N   0  0  0  0  0  0  0  0  0  0  0  0
    9.5198  -15.5831   21.8380 C   0  0  1  0  0  0  0  0  0  0  0  0
    9.3224  -14.4010   20.9111 C   0  0  0  0  0  0  0  0  0  0  0  0
    7.5664  -14.3508   20.4591 S   0  0  0  0  0  0  0  0  0  0  0  0
   10.8992  -15.4738   22.3770 C   0  0  0  0  0  0  0  0  0  0  0  0
   11.1122  -15.3400   23.6216 O   0  0  0  0  0  0  0  0  0  0  0  0
   11.9580  -15.5217   21.4817 O   0  0  0  0  0  0  0  0  0  0  0  0
  2  1  1  0
  3  2  1  0
  3 12  1  0
  4  3  2  0
  6  5  1  0
  6  7  2  0
  8  7  1  0
  9  8  2  0
 10  9  1  0
 11 10  1  1
 11 12  1  0
 13 11  1  0
 13 17  1  0
 14 13  2  0
 15 16  2  0
 15  9  1  0
 16  6  1  0
 17 18  1  0
 18 21  1  0
 19 20  1  0
 18 19  1  6
 21 22  2  0
 21 23  1  0
M  END
$$$$
