GYC.pdb
     RDKit          3D

 23 23  0  0  1  0  0  0  0  0999 V2000
    9.4564  -19.2645   18.8301 N   0  0  0  0  0  0  0  0  0  0  0  0
    8.6380  -18.7382   19.9091 C   0  0  0  0  0  0  0  0  0  0  0  0
    9.4063  -17.7283   20.7138 C   0  0  0  0  0  0  0  0  0  0  0  0
   10.6397  -17.7094   20.6130 O   0  0  0  0  0  0  0  0  0  0  0  0
    7.1811  -12.4202   17.4807 O   0  0  0  0  0  0  0  0  0  0  0  0
    7.5382  -12.9407   18.7281 C   0  0  0  0  0  0  0  0  0  0  0  0
    8.7723  -12.6788   19.2877 C   0  0  0  0  0  0  0  0  0  0  0  0
    9.1154  -13.1978   20.5208 C   0  0  0  0  0  0  0  0  0  0  0  0
    8.2496  -13.9930   21.2411 C   0  0  0  0  0  0  0  0  0  0  0  0
    8.6081  -14.5609   22.5761 C   0  0  0  0  0  0  0  0  0  0  0  0
    9.3501  -15.8393   22.4020 C   0  0  2  0  0  0  0  0  0  0  0  0
    8.7372  -16.8163   21.5700 N   0  0  0  0  0  0  0  0  0  0  0  0
    9.8430  -16.4324   23.6854 C   0  0  0  0  0  0  0  0  0  0  0  0
    9.0163  -16.6214   24.5998 O   0  0  0  0  0  0  0  0  0  0  0  0
    7.0204  -14.2496   20.6759 C   0  0  0  0  0  0  0  0  0  0  0  0
    6.6677  -13.7350   19.4429 C   0  0  0  0  0  0  0  0  0  0  0  0
   11.2134  -16.7662   23.8457 N   0  0  0  0  0  0  0  0  0  0  0  0
   11.6416  -17.3746   25.0700 C   0  0  1  0  0  0  0  0  0  0  0  0
   11.8886  -18.8622   24.9237 C   0  0  0  0  0  0  0  0  0  0  0  0
   10.4118  -19.5868   24.1595 S   0  0  0  0  0  0  0  0  0  0  0  0
   12.9248  -16.7731   25.5134 C   0  0  0  0  0  0  0  0  0  0  0  0
   13.4670  -17.1108   26.6108 O   0  0  0  0  0  0  0  0  0  0  0  0
   13.5221  -15.8261   24.6940 O   0  0  0  0  0  0  0  0  0  0  0  0
  2  1  1  0
  3  2  1  0
  3 12  1  0
  4  3  2  0
  6  5  1  0
  6  7  2  0
  8  7  1  0
  9  8  2  0
 10  9  1  0
 11 10  1  1
 11 12  1  0
 13 11  1  0
 13 17  1  0
 14 13  2  0
 15 16  2  0
 15  9  1  0
 16  6  1  0
 17 18  1  0
 18 21  1  0
 19 20  1  0
 18 19  1  6
 21 22  2  0
 21 23  1  0
M  END
$$$$
