GYC.pdb
     RDKit          3D

 23 23  0  0  1  0  0  0  0  0999 V2000
    7.4208  -14.4536   19.5099 N   0  0  0  0  0  0  0  0  0  0  0  0
    6.7116  -14.5967   20.7700 C   0  0  0  0  0  0  0  0  0  0  0  0
    7.6777  -14.6523   21.9194 C   0  0  0  0  0  0  0  0  0  0  0  0
    8.8846  -14.7659   21.6698 O   0  0  0  0  0  0  0  0  0  0  0  0
   11.0758  -14.8057   30.0204 O   0  0  0  0  0  0  0  0  0  0  0  0
   10.1772  -14.6483   28.9610 C   0  0  0  0  0  0  0  0  0  0  0  0
   10.0186  -13.4312   28.3300 C   0  0  0  0  0  0  0  0  0  0  0  0
    9.1281  -13.2863   27.2842 C   0  0  0  0  0  0  0  0  0  0  0  0
    8.3651  -14.3400   26.8281 C   0  0  0  0  0  0  0  0  0  0  0  0
    7.3980  -14.1969   25.6977 C   0  0  0  0  0  0  0  0  0  0  0  0
    8.0274  -14.6552   24.4292 C   0  0  2  0  0  0  0  0  0  0  0  0
    7.2212  -14.5766   23.2604 N   0  0  0  0  0  0  0  0  0  0  0  0
    8.7178  -15.9792   24.5402 C   0  0  0  0  0  0  0  0  0  0  0  0
    8.0163  -17.0100   24.5193 O   0  0  0  0  0  0  0  0  0  0  0  0
    8.5291  -15.5509   27.4629 C   0  0  0  0  0  0  0  0  0  0  0  0
    9.4174  -15.7061   28.5100 C   0  0  0  0  0  0  0  0  0  0  0  0
   10.1302  -16.0473   24.6651 N   0  0  0  0  0  0  0  0  0  0  0  0
   10.7780  -17.3191   24.5409 C   0  0  1  0  0  0  0  0  0  0  0  0
   11.8679  -17.3151   23.4886 C   0  0  0  0  0  0  0  0  0  0  0  0
   12.5869  -18.9798   23.4432 S   0  0  0  0  0  0  0  0  0  0  0  0
   11.4290  -17.6840   25.8247 C   0  0  0  0  0  0  0  0  0  0  0  0
   11.3444  -18.8599   26.2962 O   0  0  0  0  0  0  0  0  0  0  0  0
   12.1375  -16.7021   26.5022 O   0  0  0  0  0  0  0  0  0  0  0  0
  2  1  1  0
  3  2  1  0
  3 12  1  0
  4  3  2  0
  6  5  1  0
  6  7  2  0
  8  7  1  0
  9  8  2  0
 10  9  1  0
 11 10  1  1
 11 12  1  0
 13 11  1  0
 13 17  1  0
 14 13  2  0
 15 16  2  0
 15  9  1  0
 16  6  1  0
 17 18  1  0
 18 21  1  0
 19 20  1  0
 18 19  1  6
 21 22  2  0
 21 23  1  0
M  END
$$$$
