GYC.pdb
     RDKit          3D

 23 23  0  0  1  0  0  0  0  0999 V2000
    7.7119  -19.4392   20.1705 N   0  0  0  0  0  0  0  0  0  0  0  0
    6.8281  -18.4658   20.7890 C   0  0  0  0  0  0  0  0  0  0  0  0
    7.5756  -17.6311   21.7902 C   0  0  0  0  0  0  0  0  0  0  0  0
    8.7791  -17.8597   21.9667 O   0  0  0  0  0  0  0  0  0  0  0  0
    8.3093  -12.4982   18.0328 O   0  0  0  0  0  0  0  0  0  0  0  0
    8.0281  -12.9391   19.3294 C   0  0  0  0  0  0  0  0  0  0  0  0
    6.8305  -13.5538   19.6338 C   0  0  0  0  0  0  0  0  0  0  0  0
    6.5624  -13.9858   20.9179 C   0  0  0  0  0  0  0  0  0  0  0  0
    7.4696  -13.8241   21.9434 C   0  0  0  0  0  0  0  0  0  0  0  0
    7.1922  -14.2868   23.3371 C   0  0  0  0  0  0  0  0  0  0  0  0
    7.5209  -15.7325   23.4676 C   0  0  2  0  0  0  0  0  0  0  0  0
    6.9208  -16.6043   22.5177 N   0  0  0  0  0  0  0  0  0  0  0  0
    7.3927  -16.2586   24.8636 C   0  0  0  0  0  0  0  0  0  0  0  0
    6.2611  -16.2613   25.3876 O   0  0  0  0  0  0  0  0  0  0  0  0
    8.6620  -13.2098   21.6315 C   0  0  0  0  0  0  0  0  0  0  0  0
    8.9396  -12.7742   20.3499 C   0  0  0  0  0  0  0  0  0  0  0  0
    8.5326  -16.7377   25.5607 N   0  0  0  0  0  0  0  0  0  0  0  0
    8.3440  -17.5209   26.7453 C   0  0  1  0  0  0  0  0  0  0  0  0
    7.5600  -18.7906   26.4832 C   0  0  0  0  0  0  0  0  0  0  0  0
    7.3882  -19.6609   28.0654 S   0  0  0  0  0  0  0  0  0  0  0  0
    9.6600  -17.9400   27.2911 C   0  0  0  0  0  0  0  0  0  0  0  0
   10.6533  -18.1502   26.5286 O   0  0  0  0  0  0  0  0  0  0  0  0
    9.7794  -18.0976   28.6643 O   0  0  0  0  0  0  0  0  0  0  0  0
  2  1  1  0
  3  2  1  0
  3 12  1  0
  4  3  2  0
  6  5  1  0
  6  7  2  0
  8  7  1  0
  9  8  2  0
 10  9  1  0
 11 10  1  1
 11 12  1  0
 13 11  1  0
 13 17  1  0
 14 13  2  0
 15 16  2  0
 15  9  1  0
 16  6  1  0
 17 18  1  0
 18 21  1  0
 19 20  1  0
 18 19  1  6
 21 22  2  0
 21 23  1  0
M  END
$$$$
