IEP.pdb
     RDKit          3D

 25 25  0  0  1  0  0  0  0  0999 V2000
    7.2148  -11.0011   26.8730 C   0  0  0  0  0  0  0  0  0  0  0  0
    6.5985  -12.3708   26.6876 C   0  0  0  0  0  0  0  0  0  0  0  0
    6.6449  -12.7478   25.2321 C   0  0  2  0  0  0  0  0  0  0  0  0
    5.7770  -11.8068   24.4240 C   0  0  0  0  0  0  0  0  0  0  0  0
    6.1542  -14.1493   24.9733 C   0  0  2  0  0  0  0  0  0  0  0  0
    4.9256  -14.3802   25.7246 N   0  0  0  0  0  0  0  0  0  0  0  0
    7.1171  -15.1895   25.3178 C   0  0  0  0  0  0  0  0  0  0  0  0
    7.0893  -15.7153   26.4575 O   0  0  0  0  0  0  0  0  0  0  0  0
    8.1342  -15.6868   24.4351 N   0  0  0  0  0  0  0  0  0  0  0  0
    9.1369  -16.6228   24.8583 C   0  0  1  0  0  0  0  0  0  0  0  0
    9.7399  -17.2270   23.5906 C   0  0  0  0  0  0  0  0  0  0  0  0
   10.6800  -18.3609   23.9593 C   0  0  0  0  0  0  0  0  0  0  0  0
   11.1981  -18.9349   22.6793 C   0  0  0  0  0  0  0  0  0  0  0  0
   10.8292  -20.0580   22.2479 O   0  0  0  0  0  0  0  0  0  0  0  0
   10.2285  -16.1235   25.6765 C   0  0  0  0  0  0  0  0  0  0  0  0
   10.9652  -15.2591   25.0531 O   0  0  0  0  0  0  0  0  0  0  0  0
   12.1175  -18.2352   21.9138 O   0  0  0  0  0  0  0  0  0  0  0  0
   10.5982  -16.4192   26.9873 N   0  0  0  0  0  0  0  0  0  0  0  0
   10.1298  -17.3387   27.9845 C   0  0  0  0  0  0  0  0  0  0  0  0
    9.9470  -16.4159   29.1987 C   0  0  0  0  0  0  0  0  0  0  0  0
   11.2321  -15.6064   29.1215 C   0  0  0  0  0  0  0  0  0  0  0  0
   11.7086  -15.7259   27.6888 C   0  0  1  0  0  0  0  0  0  0  0  0
   12.9071  -16.5688   27.5554 C   0  0  0  0  0  0  0  0  0  0  0  0
   14.0414  -16.1185   27.7911 O   0  0  0  0  0  0  0  0  0  0  0  0
   12.7857  -17.9148   27.1539 O   0  0  0  0  0  0  0  0  0  0  0  0
  2  3  1  0
  2  1  1  0
  3  5  1  0
  3  4  1  6
  5  7  1  0
  5  6  1  1
  7  8  2  0
  9 10  1  0
  9  7  1  0
 10 11  1  6
 11 12  1  0
 13 12  1  0
 13 17  1  0
 14 13  2  0
 15 18  1  0
 15 10  1  0
 16 15  2  0
 18 19  1  0
 20 19  1  0
 21 20  1  0
 22 21  1  0
 22 18  1  0
 22 23  1  1
 24 23  2  0
 25 23  1  0
M  END
$$$$
