IEP.pdb
     RDKit          3D

 25 25  0  0  1  0  0  0  0  0999 V2000
    7.9309  -12.1454   18.3635 C   0  0  0  0  0  0  0  0  0  0  0  0
    8.0325  -13.6130   18.7188 C   0  0  0  0  0  0  0  0  0  0  0  0
    7.6554  -13.8058   20.1623 C   0  0  2  0  0  0  0  0  0  0  0  0
    8.6396  -13.0831   21.0571 C   0  0  0  0  0  0  0  0  0  0  0  0
    7.6470  -15.2547   20.5777 C   0  0  2  0  0  0  0  0  0  0  0  0
    6.6650  -15.9824   19.7818 N   0  0  0  0  0  0  0  0  0  0  0  0
    7.3548  -15.4663   21.9911 C   0  0  0  0  0  0  0  0  0  0  0  0
    6.2177  -15.1864   22.4437 O   0  0  0  0  0  0  0  0  0  0  0  0
    8.2877  -15.9877   22.9496 N   0  0  0  0  0  0  0  0  0  0  0  0
    7.9805  -16.0999   24.3474 C   0  0  1  0  0  0  0  0  0  0  0  0
    8.3892  -17.5083   24.7775 C   0  0  0  0  0  0  0  0  0  0  0  0
    8.0306  -17.7237   26.2371 C   0  0  0  0  0  0  0  0  0  0  0  0
    8.5158  -19.0879   26.6112 C   0  0  0  0  0  0  0  0  0  0  0  0
    7.8203  -20.1214   26.4328 O   0  0  0  0  0  0  0  0  0  0  0  0
    8.6074  -15.1568   25.2573 C   0  0  0  0  0  0  0  0  0  0  0  0
    9.8619  -14.9676   24.9946 O   0  0  0  0  0  0  0  0  0  0  0  0
    9.7695  -19.2601   27.1764 O   0  0  0  0  0  0  0  0  0  0  0  0
    8.0881  -14.4448   26.3370 N   0  0  0  0  0  0  0  0  0  0  0  0
    6.8354  -14.4453   27.0370 C   0  0  0  0  0  0  0  0  0  0  0  0
    6.4783  -12.9514   27.0389 C   0  0  0  0  0  0  0  0  0  0  0  0
    7.8238  -12.3501   27.4141 C   0  0  0  0  0  0  0  0  0  0  0  0
    8.8569  -13.3993   27.0594 C   0  0  1  0  0  0  0  0  0  0  0  0
    9.4550  -14.0336   28.2446 C   0  0  0  0  0  0  0  0  0  0  0  0
   10.2285  -13.4077   28.9894 O   0  0  0  0  0  0  0  0  0  0  0  0
    9.1565  -15.3756   28.5567 O   0  0  0  0  0  0  0  0  0  0  0  0
  2  3  1  0
  2  1  1  0
  3  5  1  0
  3  4  1  1
  5  7  1  0
  5  6  1  6
  7  8  2  0
  9 10  1  0
  9  7  1  0
 10 11  1  1
 11 12  1  0
 13 12  1  0
 13 17  1  0
 14 13  2  0
 15 18  1  0
 15 10  1  0
 16 15  2  0
 18 19  1  0
 20 19  1  0
 21 20  1  0
 22 21  1  0
 22 18  1  0
 22 23  1  1
 24 23  2  0
 25 23  1  0
M  END
$$$$
