IEP.pdb
     RDKit          3D

 25 25  0  0  1  0  0  0  0  0999 V2000
    8.0849  -12.4272   18.2956 C   0  0  0  0  0  0  0  0  0  0  0  0
    8.1807  -13.8700   18.7421 C   0  0  0  0  0  0  0  0  0  0  0  0
    7.6199  -14.0023   20.1317 C   0  0  2  0  0  0  0  0  0  0  0  0
    8.3881  -13.1155   21.0883 C   0  0  0  0  0  0  0  0  0  0  0  0
    7.6948  -15.4110   20.6627 C   0  0  2  0  0  0  0  0  0  0  0  0
    6.9590  -16.3044   19.7752 N   0  0  0  0  0  0  0  0  0  0  0  0
    7.1761  -15.5641   22.0174 C   0  0  0  0  0  0  0  0  0  0  0  0
    5.9709  -15.3085   22.2587 O   0  0  0  0  0  0  0  0  0  0  0  0
    7.9508  -15.9992   23.1451 N   0  0  0  0  0  0  0  0  0  0  0  0
    7.4951  -15.8569   24.4989 C   0  0  1  0  0  0  0  0  0  0  0  0
    7.4582  -17.2606   25.1021 C   0  0  0  0  0  0  0  0  0  0  0  0
    6.7866  -18.2180   24.1338 C   0  0  0  0  0  0  0  0  0  0  0  0
    6.8048  -19.5708   24.7711 C   0  0  0  0  0  0  0  0  0  0  0  0
    6.6805  -19.7309   26.0131 O   0  0  0  0  0  0  0  0  0  0  0  0
    8.2692  -15.0096   25.3895 C   0  0  0  0  0  0  0  0  0  0  0  0
    9.5290  -14.9872   25.0881 O   0  0  0  0  0  0  0  0  0  0  0  0
    6.9619  -20.7116   23.9999 O   0  0  0  0  0  0  0  0  0  0  0  0
    7.8824  -14.2401   26.4853 N   0  0  0  0  0  0  0  0  0  0  0  0
    6.6375  -13.9917   27.1545 C   0  0  0  0  0  0  0  0  0  0  0  0
    6.6138  -12.4569   27.2101 C   0  0  0  0  0  0  0  0  0  0  0  0
    8.0450  -12.1779   27.6421 C   0  0  0  0  0  0  0  0  0  0  0  0
    8.8363  -13.4142   27.2688 C   0  0  1  0  0  0  0  0  0  0  0  0
    9.2434  -14.2054   28.4404 C   0  0  0  0  0  0  0  0  0  0  0  0
   10.0592  -13.7613   29.2664 O   0  0  0  0  0  0  0  0  0  0  0  0
    8.7086  -15.4935   28.6462 O   0  0  0  0  0  0  0  0  0  0  0  0
  2  3  1  0
  2  1  1  0
  3  5  1  0
  3  4  1  1
  5  7  1  0
  5  6  1  6
  7  8  2  0
  9 10  1  0
  9  7  1  0
 10 11  1  1
 11 12  1  0
 13 12  1  0
 13 17  1  0
 14 13  2  0
 15 18  1  0
 15 10  1  0
 16 15  2  0
 18 19  1  0
 20 19  1  0
 21 20  1  0
 22 21  1  0
 22 18  1  0
 22 23  1  1
 24 23  2  0
 25 23  1  0
M  END
$$$$
