IEP.pdb
     RDKit          3D

 25 25  0  0  1  0  0  0  0  0999 V2000
    5.9821  -11.0696   27.8441 C   0  0  0  0  0  0  0  0  0  0  0  0
    6.1469  -12.5555   27.6089 C   0  0  0  0  0  0  0  0  0  0  0  0
    7.0951  -12.7788   26.4627 C   0  0  2  0  0  0  0  0  0  0  0  0
    6.5413  -12.1521   25.2009 C   0  0  0  0  0  0  0  0  0  0  0  0
    7.3333  -14.2391   26.1746 C   0  0  2  0  0  0  0  0  0  0  0  0
    7.6476  -14.9344   27.4176 N   0  0  0  0  0  0  0  0  0  0  0  0
    8.4025  -14.4890   25.2143 C   0  0  0  0  0  0  0  0  0  0  0  0
    9.4739  -13.8387   25.2874 O   0  0  0  0  0  0  0  0  0  0  0  0
    8.3377  -15.4509   24.1506 N   0  0  0  0  0  0  0  0  0  0  0  0
    9.1024  -15.3223   22.9425 C   0  0  1  0  0  0  0  0  0  0  0  0
   10.1166  -16.4656   22.9383 C   0  0  0  0  0  0  0  0  0  0  0  0
   11.0821  -16.2910   21.7795 C   0  0  0  0  0  0  0  0  0  0  0  0
   12.0518  -17.4278   21.8417 C   0  0  0  0  0  0  0  0  0  0  0  0
   12.5572  -17.9380   20.8083 O   0  0  0  0  0  0  0  0  0  0  0  0
    8.3859  -15.3579   21.6793 C   0  0  0  0  0  0  0  0  0  0  0  0
    7.4115  -16.2118   21.6815 O   0  0  0  0  0  0  0  0  0  0  0  0
   12.4314  -17.9651   23.0616 O   0  0  0  0  0  0  0  0  0  0  0  0
    8.5758  -14.6403   20.4997 N   0  0  0  0  0  0  0  0  0  0  0  0
    9.5615  -13.7071   20.0342 C   0  0  0  0  0  0  0  0  0  0  0  0
    8.6843  -12.5483   19.5373 C   0  0  0  0  0  0  0  0  0  0  0  0
    7.6149  -13.3212   18.7810 C   0  0  0  0  0  0  0  0  0  0  0  0
    7.6473  -14.7269   19.3437 C   0  0  1  0  0  0  0  0  0  0  0  0
    8.2101  -15.7056   18.4003 C   0  0  0  0  0  0  0  0  0  0  0  0
    9.3784  -16.1138   18.5154 O   0  0  0  0  0  0  0  0  0  0  0  0
    7.4240  -16.2006   17.3397 O   0  0  0  0  0  0  0  0  0  0  0  0
  2  3  1  0
  2  1  1  0
  3  5  1  0
  3  4  1  6
  5  7  1  0
  5  6  1  1
  7  8  2  0
  9 10  1  0
  9  7  1  0
 10 11  1  6
 11 12  1  0
 13 12  1  0
 13 17  1  0
 14 13  2  0
 15 18  1  0
 15 10  1  0
 16 15  2  0
 18 19  1  0
 20 19  1  0
 21 20  1  0
 22 21  1  0
 22 18  1  0
 22 23  1  6
 24 23  2  0
 25 23  1  0
M  END
$$$$
