IEP.pdb
     RDKit          3D

 25 25  0  0  1  0  0  0  0  0999 V2000
    7.3358  -11.9606   28.7164 C   0  0  0  0  0  0  0  0  0  0  0  0
    7.3883  -13.2781   27.9736 C   0  0  0  0  0  0  0  0  0  0  0  0
    6.7560  -13.1142   26.6185 C   0  0  2  0  0  0  0  0  0  0  0  0
    5.2915  -12.7611   26.7679 C   0  0  0  0  0  0  0  0  0  0  0  0
    6.8359  -14.3636   25.7790 C   0  0  2  0  0  0  0  0  0  0  0  0
    7.3664  -15.4572   26.5852 N   0  0  0  0  0  0  0  0  0  0  0  0
    7.6561  -14.2235   24.5810 C   0  0  0  0  0  0  0  0  0  0  0  0
    7.9366  -13.0801   24.1448 O   0  0  0  0  0  0  0  0  0  0  0  0
    8.1940  -15.3195   23.8256 N   0  0  0  0  0  0  0  0  0  0  0  0
    8.9031  -15.1351   22.5912 C   0  0  1  0  0  0  0  0  0  0  0  0
   10.0329  -16.1641   22.5732 C   0  0  0  0  0  0  0  0  0  0  0  0
   11.2518  -15.6006   23.2820 C   0  0  0  0  0  0  0  0  0  0  0  0
   11.9321  -16.7457   23.9620 C   0  0  0  0  0  0  0  0  0  0  0  0
   11.6490  -17.9447   23.7052 O   0  0  0  0  0  0  0  0  0  0  0  0
    8.1560  -15.2723   21.3529 C   0  0  0  0  0  0  0  0  0  0  0  0
    7.1745  -16.1122   21.4519 O   0  0  0  0  0  0  0  0  0  0  0  0
   12.9137  -16.5185   24.9136 O   0  0  0  0  0  0  0  0  0  0  0  0
    8.3237  -14.6617   20.1113 N   0  0  0  0  0  0  0  0  0  0  0  0
    9.2226  -13.6742   19.5860 C   0  0  0  0  0  0  0  0  0  0  0  0
    8.2487  -12.6803   18.9354 C   0  0  0  0  0  0  0  0  0  0  0  0
    7.3095  -13.6437   18.2265 C   0  0  0  0  0  0  0  0  0  0  0  0
    7.4685  -14.9717   18.9372 C   0  0  1  0  0  0  0  0  0  0  0  0
    8.1814  -15.9705   18.1255 C   0  0  0  0  0  0  0  0  0  0  0  0
    9.3893  -16.2029   18.3039 O   0  0  0  0  0  0  0  0  0  0  0  0
    7.4976  -16.6870   17.1222 O   0  0  0  0  0  0  0  0  0  0  0  0
  2  3  1  0
  2  1  1  0
  3  5  1  0
  3  4  1  1
  5  7  1  0
  5  6  1  1
  7  8  2  0
  9 10  1  0
  9  7  1  0
 10 11  1  6
 11 12  1  0
 13 12  1  0
 13 17  1  0
 14 13  2  0
 15 18  1  0
 15 10  1  0
 16 15  2  0
 18 19  1  0
 20 19  1  0
 21 20  1  0
 22 21  1  0
 22 18  1  0
 22 23  1  6
 24 23  2  0
 25 23  1  0
M  END
$$$$
