IEP.pdb
     RDKit          3D

 25 25  0  0  1  0  0  0  0  0999 V2000
    8.0510  -11.9222   19.6898 C   0  0  0  0  0  0  0  0  0  0  0  0
    7.3186  -13.1974   20.0473 C   0  0  0  0  0  0  0  0  0  0  0  0
    8.2728  -14.3584   19.9802 C   0  0  2  0  0  0  0  0  0  0  0  0
    8.7641  -14.5454   18.5605 C   0  0  0  0  0  0  0  0  0  0  0  0
    7.6466  -15.6582   20.4163 C   0  0  2  0  0  0  0  0  0  0  0  0
    6.4839  -15.9411   19.5824 N   0  0  0  0  0  0  0  0  0  0  0  0
    7.2363  -15.6803   21.8160 C   0  0  0  0  0  0  0  0  0  0  0  0
    6.0853  -15.2950   22.1369 O   0  0  0  0  0  0  0  0  0  0  0  0
    8.0631  -16.1217   22.9034 N   0  0  0  0  0  0  0  0  0  0  0  0
    7.6285  -16.0855   24.2711 C   0  0  1  0  0  0  0  0  0  0  0  0
    7.6536  -17.5261   24.7805 C   0  0  0  0  0  0  0  0  0  0  0  0
    7.1144  -17.5785   26.1990 C   0  0  0  0  0  0  0  0  0  0  0  0
    7.2050  -19.0013   26.6503 C   0  0  0  0  0  0  0  0  0  0  0  0
    6.8141  -19.3724   27.7875 O   0  0  0  0  0  0  0  0  0  0  0  0
    8.3884  -15.2702   25.2028 C   0  0  0  0  0  0  0  0  0  0  0  0
    9.6684  -15.3884   25.0413 O   0  0  0  0  0  0  0  0  0  0  0  0
    7.7320  -19.9738   25.8153 O   0  0  0  0  0  0  0  0  0  0  0  0
    7.9705  -14.4068   26.2139 N   0  0  0  0  0  0  0  0  0  0  0  0
    6.6972  -14.0390   26.7640 C   0  0  0  0  0  0  0  0  0  0  0  0
    6.7703  -12.5053   26.7220 C   0  0  0  0  0  0  0  0  0  0  0  0
    8.1796  -12.2852   27.2496 C   0  0  0  0  0  0  0  0  0  0  0  0
    8.9140  -13.5895   27.0187 C   0  0  1  0  0  0  0  0  0  0  0  0
    9.1776  -14.3235   28.2663 C   0  0  0  0  0  0  0  0  0  0  0  0
    8.5665  -15.3708   28.5394 O   0  0  0  0  0  0  0  0  0  0  0  0
   10.1378  -13.8448   29.1808 O   0  0  0  0  0  0  0  0  0  0  0  0
  2  3  1  0
  2  1  1  0
  3  5  1  0
  3  4  1  6
  5  7  1  0
  5  6  1  6
  7  8  2  0
  9 10  1  0
  9  7  1  0
 10 11  1  1
 11 12  1  0
 13 12  1  0
 13 17  1  0
 14 13  2  0
 15 18  1  0
 15 10  1  0
 16 15  2  0
 18 19  1  0
 20 19  1  0
 21 20  1  0
 22 21  1  0
 22 18  1  0
 22 23  1  1
 24 23  2  0
 25 23  1  0
M  END
$$$$
