IEP.pdb
     RDKit          3D

 25 25  0  0  1  0  0  0  0  0999 V2000
    6.3298  -11.3961   27.6824 C   0  0  0  0  0  0  0  0  0  0  0  0
    6.2213  -12.3755   26.5337 C   0  0  0  0  0  0  0  0  0  0  0  0
    6.7092  -13.7267   26.9801 C   0  0  2  0  0  0  0  0  0  0  0  0
    8.1685  -13.6476   27.3748 C   0  0  0  0  0  0  0  0  0  0  0  0
    6.5879  -14.7780   25.9067 C   0  0  2  0  0  0  0  0  0  0  0  0
    6.9598  -16.0772   26.4552 N   0  0  0  0  0  0  0  0  0  0  0  0
    7.4021  -14.5175   24.7248 C   0  0  0  0  0  0  0  0  0  0  0  0
    7.2804  -13.4308   24.1081 O   0  0  0  0  0  0  0  0  0  0  0  0
    8.3699  -15.4284   24.1817 N   0  0  0  0  0  0  0  0  0  0  0  0
    9.0831  -15.1653   22.9640 C   0  0  1  0  0  0  0  0  0  0  0  0
   10.2554  -16.1446   22.9186 C   0  0  0  0  0  0  0  0  0  0  0  0
   11.3916  -15.6256   23.7819 C   0  0  0  0  0  0  0  0  0  0  0  0
   12.4986  -16.6276   23.6987 C   0  0  0  0  0  0  0  0  0  0  0  0
   12.6839  -17.5004   24.5861 O   0  0  0  0  0  0  0  0  0  0  0  0
    8.3550  -15.2838   21.7125 C   0  0  0  0  0  0  0  0  0  0  0  0
    7.4443  -16.2045   21.7496 O   0  0  0  0  0  0  0  0  0  0  0  0
   13.3712  -16.6266   22.6219 O   0  0  0  0  0  0  0  0  0  0  0  0
    8.4782  -14.5847   20.5131 N   0  0  0  0  0  0  0  0  0  0  0  0
    9.2864  -13.4874   20.0635 C   0  0  0  0  0  0  0  0  0  0  0  0
    8.2310  -12.5498   19.4584 C   0  0  0  0  0  0  0  0  0  0  0  0
    7.3936  -13.5503   18.6771 C   0  0  0  0  0  0  0  0  0  0  0  0
    7.6684  -14.8993   19.3085 C   0  0  1  0  0  0  0  0  0  0  0  0
    8.4803  -15.7756   18.4497 C   0  0  0  0  0  0  0  0  0  0  0  0
    7.9996  -16.3088   17.4350 O   0  0  0  0  0  0  0  0  0  0  0  0
    9.8305  -16.0265   18.7681 O   0  0  0  0  0  0  0  0  0  0  0  0
  2  3  1  0
  2  1  1  0
  3  5  1  0
  3  4  1  6
  5  7  1  0
  5  6  1  1
  7  8  2  0
  9 10  1  0
  9  7  1  0
 10 11  1  6
 11 12  1  0
 13 12  1  0
 13 17  1  0
 14 13  2  0
 15 18  1  0
 15 10  1  0
 16 15  2  0
 18 19  1  0
 20 19  1  0
 21 20  1  0
 22 21  1  0
 22 18  1  0
 22 23  1  6
 24 23  2  0
 25 23  1  0
M  END
$$$$
