SRF.pdb
     RDKit          3D

 29 29  0  0  1  0  0  0  0  0999 V2000
   24.6743  -17.3631  -14.5145 O   0  0  0  0  0  0  0  0  0  0  0  0
   25.8537  -16.6141  -14.4108 C   0  0  0  0  0  0  0  0  0  0  0  0
   26.9896  -17.2618  -15.1958 C   0  0  2  0  0  0  0  0  0  0  0  0
   26.6588  -17.1602  -16.5848 N   0  0  0  0  0  0  0  0  0  0  0  0
   27.0334  -18.7028  -14.7632 C   0  0  0  0  0  0  0  0  0  0  0  0
   26.5611  -19.5776  -15.5290 O   0  0  0  0  0  0  0  0  0  0  0  0
   33.3465  -21.9794  -10.0761 N   0  0  0  0  0  0  0  0  0  0  0  0
   33.0487  -22.8864  -11.1153 C   0  0  0  0  0  0  0  0  0  0  0  0
   33.9265  -23.7646  -11.5171 N   0  0  0  0  0  0  0  0  0  0  0  0
   31.7550  -22.8203  -11.7210 N   0  0  0  0  0  0  0  0  0  0  0  0
   30.8516  -21.7896  -11.2739 C   0  0  0  0  0  0  0  0  0  0  0  0
   29.4887  -21.9240  -11.9835 C   0  0  0  0  0  0  0  0  0  0  0  0
   29.0136  -20.6053  -12.4428 C   0  0  0  0  0  0  0  0  0  0  0  0
   27.7416  -20.5165  -13.1894 C   0  0  2  0  0  0  0  0  0  0  0  0
   27.5839  -19.1000  -13.5339 N   0  0  0  0  0  0  0  0  0  0  0  0
   26.5383  -21.0468  -12.5497 C   0  0  0  0  0  0  0  0  0  0  0  0
   26.3581  -22.2504  -12.2217 O   0  0  0  0  0  0  0  0  0  0  0  0
   33.7118  -24.4045  -12.2892 N   0  0  0  0  0  0  0  0  0  0  0  0
   25.4629  -20.1745  -12.2514 C   0  0  1  0  0  0  0  0  0  0  0  0
   24.2403  -20.6522  -11.6025 C   0  0  0  0  0  0  0  0  0  0  0  0
   23.9244  -19.7304  -10.4444 C   0  0  0  0  0  0  0  0  0  0  0  0
   24.8701  -19.8380   -9.3240 C   0  0  0  0  0  0  0  0  0  0  0  0
   25.7461  -18.7907   -9.0166 C   0  0  0  0  0  0  0  0  0  0  0  0
   26.6176  -18.9083   -7.9629 C   0  0  0  0  0  0  0  0  0  0  0  0
   26.6542  -20.0450   -7.1887 C   0  0  0  0  0  0  0  0  0  0  0  0
   25.7968  -21.1003   -7.4702 C   0  0  0  0  0  0  0  0  0  0  0  0
   24.9207  -20.9696   -8.5375 C   0  0  0  0  0  0  0  0  0  0  0  0
   23.1434  -20.8238  -12.5553 O   0  0  0  0  0  0  0  0  0  0  0  0
   23.2461  -20.5763  -13.9224 O   0  0  0  0  0  0  0  0  0  0  0  0
  2  1  1  0
  3  2  1  0
  3  4  1  6
  5  3  1  0
  6  5  2  0
  7  8  1  0
  8  9  2  0
 10 11  1  0
 10  8  1  0
 12 11  1  0
 12 13  1  0
 14 13  1  1
 14 15  1  0
 15  5  1  0
 16 14  1  0
 17 16  2  0
 18 16  1  0
 19 20  1  6
 19 18  1  0
 20 21  1  0
 21 22  2  0
 22 23  1  0
 24 23  2  0
 25 24  1  0
 26 21  1  0
 26 25  2  0
 27 28  1  0
 27 19  1  0
 29 27  2  0
M  END
$$$$
