SRF.pdb
     RDKit          3D

 29 29  0  0  1  0  0  0  0  0999 V2000
   27.3781  -27.0515  -18.8602 O   0  0  0  0  0  0  0  0  0  0  0  0
   28.6637  -27.6078  -18.8764 C   0  0  0  0  0  0  0  0  0  0  0  0
   29.2470  -27.6903  -17.4697 C   0  0  2  0  0  0  0  0  0  0  0  0
   29.4441  -26.3486  -17.0114 N   0  0  0  0  0  0  0  0  0  0  0  0
   30.5642  -28.4069  -17.6004 C   0  0  0  0  0  0  0  0  0  0  0  0
   31.5954  -27.7347  -17.8447 O   0  0  0  0  0  0  0  0  0  0  0  0
   34.1960  -35.0997  -15.5030 N   0  0  0  0  0  0  0  0  0  0  0  0
   32.7956  -35.2639  -15.5611 C   0  0  0  0  0  0  0  0  0  0  0  0
   32.1071  -35.5711  -14.4958 N   0  0  0  0  0  0  0  0  0  0  0  0
   32.1452  -35.0845  -16.8219 N   0  0  0  0  0  0  0  0  0  0  0  0
   32.6126  -34.0233  -17.6783 C   0  0  0  0  0  0  0  0  0  0  0  0
   32.8968  -32.7516  -16.8529 C   0  0  0  0  0  0  0  0  0  0  0  0
   31.7620  -31.8137  -16.9424 C   0  0  0  0  0  0  0  0  0  0  0  0
   31.9799  -30.4700  -17.5171 C   0  0  2  0  0  0  0  0  0  0  0  0
   30.6773  -29.7994  -17.4585 N   0  0  0  0  0  0  0  0  0  0  0  0
   32.5619  -30.3884  -18.8561 C   0  0  0  0  0  0  0  0  0  0  0  0
   31.9137  -30.4366  -19.9361 O   0  0  0  0  0  0  0  0  0  0  0  0
   31.0988  -35.7475  -14.5566 N   0  0  0  0  0  0  0  0  0  0  0  0
   33.9628  -30.2386  -19.0016 C   0  0  1  0  0  0  0  0  0  0  0  0
   34.5941  -30.1335  -20.3186 C   0  0  0  0  0  0  0  0  0  0  0  0
   33.9549  -28.9808  -21.0624 C   0  0  0  0  0  0  0  0  0  0  0  0
   34.5515  -28.7201  -22.3805 C   0  0  0  0  0  0  0  0  0  0  0  0
   35.3502  -27.5920  -22.6002 C   0  0  0  0  0  0  0  0  0  0  0  0
   35.9029  -27.3694  -23.8365 C   0  0  0  0  0  0  0  0  0  0  0  0
   35.6900  -28.2380  -24.8818 C   0  0  0  0  0  0  0  0  0  0  0  0
   34.9019  -29.3656  -24.6933 C   0  0  0  0  0  0  0  0  0  0  0  0
   34.3488  -29.5798  -23.4394 C   0  0  0  0  0  0  0  0  0  0  0  0
   36.0522  -30.0583  -20.2248 O   0  0  0  0  0  0  0  0  0  0  0  0
   36.7539  -29.8916  -19.0330 O   0  0  0  0  0  0  0  0  0  0  0  0
  2  1  1  0
  3  2  1  0
  3  4  1  6
  5  3  1  0
  6  5  2  0
  7  8  1  0
  8  9  2  0
 10 11  1  0
 10  8  1  0
 12 11  1  0
 12 13  1  0
 14 13  1  6
 14 15  1  0
 15  5  1  0
 16 14  1  0
 17 16  2  0
 18 16  1  0
 19 20  1  1
 19 18  1  0
 20 21  1  0
 21 22  2  0
 22 23  1  0
 24 23  2  0
 25 24  1  0
 26 21  1  0
 26 25  2  0
 27 28  1  0
 27 19  1  0
 29 27  2  0
M  END
$$$$
