SRF.pdb
     RDKit          3D

 29 29  0  0  1  0  0  0  0  0999 V2000
   17.9759  -21.7277  -10.3780 O   0  0  0  0  0  0  0  0  0  0  0  0
   18.1087  -22.0224  -11.7411 C   0  0  0  0  0  0  0  0  0  0  0  0
   19.0449  -23.2060  -11.9612 C   0  0  2  0  0  0  0  0  0  0  0  0
   19.0477  -23.4912  -13.3640 N   0  0  0  0  0  0  0  0  0  0  0  0
   18.4606  -24.3561  -11.1855 C   0  0  0  0  0  0  0  0  0  0  0  0
   17.3145  -24.7679  -11.4880 O   0  0  0  0  0  0  0  0  0  0  0  0
   21.6983  -31.3231  -10.9161 N   0  0  0  0  0  0  0  0  0  0  0  0
   22.1319  -30.0346  -10.5379 C   0  0  0  0  0  0  0  0  0  0  0  0
   23.3695  -29.8148  -10.1867 N   0  0  0  0  0  0  0  0  0  0  0  0
   21.1778  -28.9694  -10.5487 N   0  0  0  0  0  0  0  0  0  0  0  0
   19.8165  -29.2853  -10.9027 C   0  0  0  0  0  0  0  0  0  0  0  0
   18.9297  -28.0270  -10.8060 C   0  0  0  0  0  0  0  0  0  0  0  0
   19.2527  -27.2601   -9.5882 C   0  0  0  0  0  0  0  0  0  0  0  0
   18.5178  -26.0096   -9.3067 C   0  0  2  0  0  0  0  0  0  0  0  0
   19.1539  -24.9821  -10.1370 N   0  0  0  0  0  0  0  0  0  0  0  0
   18.4142  -25.5799   -7.9127 C   0  0  0  0  0  0  0  0  0  0  0  0
   19.1795  -24.7537   -7.3466 O   0  0  0  0  0  0  0  0  0  0  0  0
   23.6773  -28.8758   -9.9124 N   0  0  0  0  0  0  0  0  0  0  0  0
   17.3840  -26.1043   -7.0942 C   0  0  1  0  0  0  0  0  0  0  0  0
   17.2066  -25.6716   -5.7067 C   0  0  0  0  0  0  0  0  0  0  0  0
   17.1588  -24.1591   -5.6818 C   0  0  0  0  0  0  0  0  0  0  0  0
   15.8561  -23.6122   -5.2753 C   0  0  0  0  0  0  0  0  0  0  0  0
   14.9822  -23.0558   -6.2163 C   0  0  0  0  0  0  0  0  0  0  0  0
   13.7680  -22.5556   -5.8175 C   0  0  0  0  0  0  0  0  0  0  0  0
   13.3804  -22.5867   -4.4978 C   0  0  0  0  0  0  0  0  0  0  0  0
   14.2268  -23.1327   -3.5421 C   0  0  0  0  0  0  0  0  0  0  0  0
   15.4513  -23.6350   -3.9573 C   0  0  0  0  0  0  0  0  0  0  0  0
   16.0619  -26.3233   -5.0698 O   0  0  0  0  0  0  0  0  0  0  0  0
   15.0749  -27.0242   -5.7592 O   0  0  0  0  0  0  0  0  0  0  0  0
  2  1  1  0
  3  2  1  0
  3  4  1  6
  5  3  1  0
  6  5  2  0
  7  8  1  0
  8  9  2  0
 10 11  1  0
 10  8  1  0
 12 11  1  0
 12 13  1  0
 14 13  1  1
 14 15  1  0
 15  5  1  0
 16 14  1  0
 17 16  2  0
 18 16  1  0
 19 20  1  1
 19 18  1  0
 20 21  1  0
 21 22  2  0
 22 23  1  0
 24 23  2  0
 25 24  1  0
 26 21  1  0
 26 25  2  0
 27 28  1  0
 27 19  1  0
 29 27  2  0
M  END
$$$$
