SRF.pdb
     RDKit          3D

 29 29  0  0  1  0  0  0  0  0999 V2000
   29.5228  -21.4738  -13.9575 O   0  0  0  0  0  0  0  0  0  0  0  0
   28.6586  -21.9817  -14.9362 C   0  0  0  0  0  0  0  0  0  0  0  0
   27.5787  -20.9676  -15.2988 C   0  0  2  0  0  0  0  0  0  0  0  0
   28.2186  -19.8982  -16.0031 N   0  0  0  0  0  0  0  0  0  0  0  0
   27.0047  -20.4785  -13.9961 C   0  0  0  0  0  0  0  0  0  0  0  0
   27.4718  -19.4314  -13.4860 O   0  0  0  0  0  0  0  0  0  0  0  0
   19.2321  -19.2753  -11.9075 N   0  0  0  0  0  0  0  0  0  0  0  0
   19.9781  -19.5577  -13.0716 C   0  0  0  0  0  0  0  0  0  0  0  0
   19.6283  -19.0731  -14.2317 N   0  0  0  0  0  0  0  0  0  0  0  0
   21.1330  -20.3921  -12.9491 N   0  0  0  0  0  0  0  0  0  0  0  0
   21.4923  -20.8595  -11.6335 C   0  0  0  0  0  0  0  0  0  0  0  0
   22.9270  -20.4177  -11.2789 C   0  0  0  0  0  0  0  0  0  0  0  0
   23.8678  -20.8170  -12.3423 C   0  0  0  0  0  0  0  0  0  0  0  0
   25.3140  -20.5804  -12.1526 C   0  0  2  0  0  0  0  0  0  0  0  0
   25.9663  -21.1534  -13.3342 N   0  0  0  0  0  0  0  0  0  0  0  0
   25.9270  -21.0662  -10.9170 C   0  0  0  0  0  0  0  0  0  0  0  0
   26.2425  -22.2639  -10.6825 O   0  0  0  0  0  0  0  0  0  0  0  0
   20.1874  -19.2649  -15.0697 N   0  0  0  0  0  0  0  0  0  0  0  0
   26.2119  -20.1535   -9.8721 C   0  0  2  0  0  0  0  0  0  0  0  0
   26.7760  -20.5954   -8.5952 C   0  0  0  0  0  0  0  0  0  0  0  0
   28.0127  -19.7707   -8.3101 C   0  0  0  0  0  0  0  0  0  0  0  0
   28.4345  -19.7991   -6.9021 C   0  0  0  0  0  0  0  0  0  0  0  0
   29.3833  -20.7242   -6.4520 C   0  0  0  0  0  0  0  0  0  0  0  0
   29.7681  -20.7308   -5.1346 C   0  0  0  0  0  0  0  0  0  0  0  0
   29.2386  -19.8392   -4.2306 C   0  0  0  0  0  0  0  0  0  0  0  0
   28.2954  -18.9099   -4.6485 C   0  0  0  0  0  0  0  0  0  0  0  0
   27.9144  -18.9130   -5.9822 C   0  0  0  0  0  0  0  0  0  0  0  0
   25.7818  -20.5850   -7.5220 O   0  0  0  0  0  0  0  0  0  0  0  0
   24.6491  -19.7741   -7.5100 O   0  0  0  0  0  0  0  0  0  0  0  0
  2  1  1  0
  3  2  1  0
  3  4  1  1
  5  3  1  0
  6  5  2  0
  7  8  1  0
  8  9  2  0
 10 11  1  0
 10  8  1  0
 12 11  1  0
 12 13  1  0
 14 13  1  1
 14 15  1  0
 15  5  1  0
 16 14  1  0
 17 16  2  0
 18 16  1  0
 19 20  1  6
 19 18  1  0
 20 21  1  0
 21 22  2  0
 22 23  1  0
 24 23  2  0
 25 24  1  0
 26 21  1  0
 26 25  2  0
 27 28  1  0
 27 19  1  0
 29 27  2  0
M  END
$$$$
