SRF.pdb
     RDKit          3D

 29 29  0  0  1  0  0  0  0  0999 V2000
   28.8892  -22.4702  -15.6634 O   0  0  0  0  0  0  0  0  0  0  0  0
   28.3319  -21.6773  -14.6518 C   0  0  0  0  0  0  0  0  0  0  0  0
   27.1081  -20.9196  -15.1557 C   0  0  2  0  0  0  0  0  0  0  0  0
   27.5299  -20.1197  -16.2652 N   0  0  0  0  0  0  0  0  0  0  0  0
   26.6515  -20.0496  -14.0154 C   0  0  0  0  0  0  0  0  0  0  0  0
   26.1870  -18.9124  -14.2723 O   0  0  0  0  0  0  0  0  0  0  0  0
   20.0969  -20.2049  -10.2268 N   0  0  0  0  0  0  0  0  0  0  0  0
   19.8074  -20.7448  -11.4981 C   0  0  0  0  0  0  0  0  0  0  0  0
   18.5859  -20.7751  -11.9564 N   0  0  0  0  0  0  0  0  0  0  0  0
   20.8903  -21.2607  -12.2765 N   0  0  0  0  0  0  0  0  0  0  0  0
   22.1693  -21.4225  -11.6312 C   0  0  0  0  0  0  0  0  0  0  0  0
   23.0913  -20.2299  -11.9578 C   0  0  0  0  0  0  0  0  0  0  0  0
   24.4092  -20.7070  -12.4172 C   0  0  0  0  0  0  0  0  0  0  0  0
   25.6288  -20.2241  -11.7370 C   0  0  2  0  0  0  0  0  0  0  0  0
   26.7277  -20.4671  -12.6768 N   0  0  0  0  0  0  0  0  0  0  0  0
   25.9299  -20.7667  -10.4128 C   0  0  0  0  0  0  0  0  0  0  0  0
   25.8425  -21.9810  -10.0863 O   0  0  0  0  0  0  0  0  0  0  0  0
   18.3877  -21.1346  -12.8962 N   0  0  0  0  0  0  0  0  0  0  0  0
   26.3623  -19.8964   -9.3824 C   0  0  2  0  0  0  0  0  0  0  0  0
   26.9200  -20.4047   -8.1277 C   0  0  0  0  0  0  0  0  0  0  0  0
   27.8348  -19.3464   -7.5498 C   0  0  0  0  0  0  0  0  0  0  0  0
   28.3485  -19.6713   -6.2112 C   0  0  0  0  0  0  0  0  0  0  0  0
   29.4127  -20.5650   -6.0445 C   0  0  0  0  0  0  0  0  0  0  0  0
   29.8816  -20.8508   -4.7868 C   0  0  0  0  0  0  0  0  0  0  0  0
   29.3258  -20.2742   -3.6682 C   0  0  0  0  0  0  0  0  0  0  0  0
   28.2689  -19.3838   -3.8030 C   0  0  0  0  0  0  0  0  0  0  0  0
   27.8037  -19.1028   -5.0791 C   0  0  0  0  0  0  0  0  0  0  0  0
   25.8783  -20.8692   -7.2114 O   0  0  0  0  0  0  0  0  0  0  0  0
   24.5757  -20.3756   -7.1898 O   0  0  0  0  0  0  0  0  0  0  0  0
  2  1  1  0
  3  2  1  0
  3  4  1  6
  5  3  1  0
  6  5  2  0
  7  8  1  0
  8  9  2  0
 10 11  1  0
 10  8  1  0
 12 11  1  0
 12 13  1  0
 14 13  1  6
 14 15  1  0
 15  5  1  0
 16 14  1  0
 17 16  2  0
 18 16  1  0
 19 20  1  6
 19 18  1  0
 20 21  1  0
 21 22  2  0
 22 23  1  0
 24 23  2  0
 25 24  1  0
 26 21  1  0
 26 25  2  0
 27 28  1  0
 27 19  1  0
 29 27  2  0
M  END
$$$$
