SRF.pdb
     RDKit          3D

 29 29  0  0  1  0  0  0  0  0999 V2000
   16.5048  -23.2598    7.0836 O   0  0  0  0  0  0  0  0  0  0  0  0
   15.6113  -23.8855    6.2046 C   0  0  0  0  0  0  0  0  0  0  0  0
   16.3367  -24.4423    4.9841 C   0  0  2  0  0  0  0  0  0  0  0  0
   17.3215  -25.3661    5.4592 N   0  0  0  0  0  0  0  0  0  0  0  0
   16.9914  -23.2667    4.3097 C   0  0  0  0  0  0  0  0  0  0  0  0
   18.2446  -23.2071    4.2829 O   0  0  0  0  0  0  0  0  0  0  0  0
   14.2856  -22.0693   -3.0267 N   0  0  0  0  0  0  0  0  0  0  0  0
   13.2236  -21.9287   -2.1080 C   0  0  0  0  0  0  0  0  0  0  0  0
   11.9823  -21.9017   -2.5101 N   0  0  0  0  0  0  0  0  0  0  0  0
   13.5416  -21.8159   -0.7184 N   0  0  0  0  0  0  0  0  0  0  0  0
   14.9313  -21.8622   -0.3375 C   0  0  0  0  0  0  0  0  0  0  0  0
   15.0983  -21.4481    1.1390 C   0  0  0  0  0  0  0  0  0  0  0  0
   16.5237  -21.4517    1.5180 C   0  0  0  0  0  0  0  0  0  0  0  0
   16.8977  -21.1848    2.9224 C   0  0  2  0  0  0  0  0  0  0  0  0
   16.2482  -22.2366    3.7108 N   0  0  0  0  0  0  0  0  0  0  0  0
   16.6085  -19.8574    3.4634 C   0  0  0  0  0  0  0  0  0  0  0  0
   15.6513  -19.5780    4.2345 O   0  0  0  0  0  0  0  0  0  0  0  0
   11.2132  -21.8582   -1.8331 N   0  0  0  0  0  0  0  0  0  0  0  0
   17.4463  -18.7667    3.1249 C   0  0  2  0  0  0  0  0  0  0  0  0
   17.2886  -17.4512    3.7482 C   0  0  0  0  0  0  0  0  0  0  0  0
   18.6645  -16.9073    4.0672 C   0  0  0  0  0  0  0  0  0  0  0  0
   19.4165  -16.4623    2.8850 C   0  0  0  0  0  0  0  0  0  0  0  0
   20.0697  -17.3826    2.0572 C   0  0  0  0  0  0  0  0  0  0  0  0
   20.7618  -16.9476    0.9549 C   0  0  0  0  0  0  0  0  0  0  0  0
   20.8323  -15.6111    0.6363 C   0  0  0  0  0  0  0  0  0  0  0  0
   20.1940  -14.6751    1.4392 C   0  0  0  0  0  0  0  0  0  0  0  0
   19.4977  -15.1269    2.5505 C   0  0  0  0  0  0  0  0  0  0  0  0
   16.4570  -16.5572    2.9421 O   0  0  0  0  0  0  0  0  0  0  0  0
   16.0259  -16.8412    1.6482 O   0  0  0  0  0  0  0  0  0  0  0  0
  2  1  1  0
  3  2  1  0
  3  4  1  1
  5  3  1  0
  6  5  2  0
  7  8  1  0
  8  9  2  0
 10 11  1  0
 10  8  1  0
 12 11  1  0
 12 13  1  0
 14 13  1  6
 14 15  1  0
 15  5  1  0
 16 14  1  0
 17 16  2  0
 18 16  1  0
 19 20  1  6
 19 18  1  0
 20 21  1  0
 21 22  2  0
 22 23  1  0
 24 23  2  0
 25 24  1  0
 26 21  1  0
 26 25  2  0
 27 28  1  0
 27 19  1  0
 29 27  2  0
M  END
$$$$
