SRF.pdb
     RDKit          3D

 29 29  0  0  1  0  0  0  0  0999 V2000
   26.9947  -18.2707  -16.9744 O   0  0  0  0  0  0  0  0  0  0  0  0
   28.1884  -18.5363  -16.2909 C   0  0  0  0  0  0  0  0  0  0  0  0
   28.4295  -20.0368  -16.1640 C   0  0  2  0  0  0  0  0  0  0  0  0
   28.4151  -20.5834  -17.4869 N   0  0  0  0  0  0  0  0  0  0  0  0
   27.2855  -20.5808  -15.3510 C   0  0  0  0  0  0  0  0  0  0  0  0
   26.4486  -21.3290  -15.9117 O   0  0  0  0  0  0  0  0  0  0  0  0
   22.9851  -20.0456   -8.8208 N   0  0  0  0  0  0  0  0  0  0  0  0
   23.7368  -20.9942   -8.0951 C   0  0  0  0  0  0  0  0  0  0  0  0
   23.1946  -21.6954   -7.1373 N   0  0  0  0  0  0  0  0  0  0  0  0
   25.1144  -21.1698   -8.4361 N   0  0  0  0  0  0  0  0  0  0  0  0
   25.6809  -20.2944   -9.4316 C   0  0  0  0  0  0  0  0  0  0  0  0
   25.1555  -20.6633  -10.8341 C   0  0  0  0  0  0  0  0  0  0  0  0
   26.2307  -20.5425  -11.8364 C   0  0  0  0  0  0  0  0  0  0  0  0
   25.8908  -20.6191  -13.2723 C   0  0  2  0  0  0  0  0  0  0  0  0
   27.1241  -20.2795  -13.9889 N   0  0  0  0  0  0  0  0  0  0  0  0
   24.7610  -19.8217  -13.7480 C   0  0  0  0  0  0  0  0  0  0  0  0
   24.7521  -18.5664  -13.8613 O   0  0  0  0  0  0  0  0  0  0  0  0
   23.7508  -22.3721   -6.6041 N   0  0  0  0  0  0  0  0  0  0  0  0
   23.5593  -20.4685  -14.1274 C   0  0  2  0  0  0  0  0  0  0  0  0
   22.3976  -19.7169  -14.6064 C   0  0  0  0  0  0  0  0  0  0  0  0
   22.5932  -19.4252  -16.0786 C   0  0  0  0  0  0  0  0  0  0  0  0
   21.4471  -18.7543  -16.7090 C   0  0  0  0  0  0  0  0  0  0  0  0
   21.3328  -17.3594  -16.6985 C   0  0  0  0  0  0  0  0  0  0  0  0
   20.2580  -16.7517  -17.2976 C   0  0  0  0  0  0  0  0  0  0  0  0
   19.2747  -17.4874  -17.9178 C   0  0  0  0  0  0  0  0  0  0  0  0
   19.3616  -18.8730  -17.9440 C   0  0  0  0  0  0  0  0  0  0  0  0
   20.4524  -19.4756  -17.3351 C   0  0  0  0  0  0  0  0  0  0  0  0
   21.1380  -20.3883  -14.2852 O   0  0  0  0  0  0  0  0  0  0  0  0
   19.9482  -19.7252  -13.9930 O   0  0  0  0  0  0  0  0  0  0  0  0
  2  1  1  0
  3  2  1  0
  3  4  1  6
  5  3  1  0
  6  5  2  0
  7  8  1  0
  8  9  2  0
 10 11  1  0
 10  8  1  0
 12 11  1  0
 12 13  1  0
 14 13  1  1
 14 15  1  0
 15  5  1  0
 16 14  1  0
 17 16  2  0
 18 16  1  0
 19 20  1  6
 19 18  1  0
 20 21  1  0
 21 22  2  0
 22 23  1  0
 24 23  2  0
 25 24  1  0
 26 21  1  0
 26 25  2  0
 27 28  1  0
 27 19  1  0
 29 27  2  0
M  END
$$$$
