SRF.pdb
     RDKit          3D

 29 29  0  0  1  0  0  0  0  0999 V2000
   29.4666  -21.3831  -14.4144 O   0  0  0  0  0  0  0  0  0  0  0  0
   28.2681  -21.7106  -15.0618 C   0  0  0  0  0  0  0  0  0  0  0  0
   27.3849  -20.4806  -15.2430 C   0  0  2  0  0  0  0  0  0  0  0  0
   28.0698  -19.5921  -16.1322 N   0  0  0  0  0  0  0  0  0  0  0  0
   27.2395  -19.8608  -13.8790 C   0  0  0  0  0  0  0  0  0  0  0  0
   27.3247  -18.6135  -13.7706 O   0  0  0  0  0  0  0  0  0  0  0  0
   21.5624  -18.9083  -14.5061 N   0  0  0  0  0  0  0  0  0  0  0  0
   20.7728  -19.7816  -13.7279 C   0  0  0  0  0  0  0  0  0  0  0  0
   19.5085  -19.5389  -13.5140 N   0  0  0  0  0  0  0  0  0  0  0  0
   21.3945  -20.9453  -13.1763 N   0  0  0  0  0  0  0  0  0  0  0  0
   22.7972  -21.1505  -13.4385 C   0  0  0  0  0  0  0  0  0  0  0  0
   23.6244  -20.9090  -12.1592 C   0  0  0  0  0  0  0  0  0  0  0  0
   24.7658  -20.0190  -12.4429 C   0  0  0  0  0  0  0  0  0  0  0  0
   26.0353  -20.2187  -11.7135 C   0  0  2  0  0  0  0  0  0  0  0  0
   27.0123  -20.6302  -12.7265 N   0  0  0  0  0  0  0  0  0  0  0  0
   26.0292  -21.1362  -10.5748 C   0  0  0  0  0  0  0  0  0  0  0  0
   26.3647  -22.3505  -10.6163 O   0  0  0  0  0  0  0  0  0  0  0  0
   18.9402  -20.1795  -12.9500 N   0  0  0  0  0  0  0  0  0  0  0  0
   25.6251  -20.6668   -9.3010 C   0  0  2  0  0  0  0  0  0  0  0  0
   26.3770  -20.9893   -8.0867 C   0  0  0  0  0  0  0  0  0  0  0  0
   27.6391  -20.1540   -8.0722 C   0  0  0  0  0  0  0  0  0  0  0  0
   28.3177  -20.1251   -6.7684 C   0  0  0  0  0  0  0  0  0  0  0  0
   28.0293  -19.1302   -5.8272 C   0  0  0  0  0  0  0  0  0  0  0  0
   28.6696  -19.1239   -4.6133 C   0  0  0  0  0  0  0  0  0  0  0  0
   29.6014  -20.0834   -4.2914 C   0  0  0  0  0  0  0  0  0  0  0  0
   29.9078  -21.0828   -5.2054 C   0  0  0  0  0  0  0  0  0  0  0  0
   29.2543  -21.0786   -6.4288 C   0  0  0  0  0  0  0  0  0  0  0  0
   25.5558  -20.8648   -6.8823 O   0  0  0  0  0  0  0  0  0  0  0  0
   24.3466  -20.1752   -6.8254 O   0  0  0  0  0  0  0  0  0  0  0  0
  2  1  1  0
  3  2  1  0
  3  4  1  6
  5  3  1  0
  6  5  2  0
  7  8  1  0
  8  9  2  0
 10 11  1  0
 10  8  1  0
 12 11  1  0
 12 13  1  0
 14 13  1  6
 14 15  1  0
 15  5  1  0
 16 14  1  0
 17 16  2  0
 18 16  1  0
 19 20  1  1
 19 18  1  0
 20 21  1  0
 21 22  2  0
 22 23  1  0
 24 23  2  0
 25 24  1  0
 26 21  1  0
 26 25  2  0
 27 28  1  0
 27 19  1  0
 29 27  2  0
M  END
$$$$
