KMV.pdb
     RDKit          3D

 25 24  0  0  1  0  0  0  0  0999 V2000
   28.4727  -21.6089  -15.7898 N   0  0  0  0  0  0  0  0  0  0  0  0
   27.8992  -20.4647  -15.0651 C   0  0  1  0  0  0  0  0  0  0  0  0
   27.1291  -19.5757  -16.0172 C   0  0  0  0  0  0  0  0  0  0  0  0
   27.9898  -18.7315  -16.8920 C   0  0  0  0  0  0  0  0  0  0  0  0
   29.0624  -17.9610  -16.1990 C   0  0  0  0  0  0  0  0  0  0  0  0
   29.8525  -17.1139  -17.1379 C   0  0  0  0  0  0  0  0  0  0  0  0
   29.0565  -16.0853  -17.7177 N   0  0  0  0  0  0  0  0  0  0  0  0
   27.0020  -21.0117  -14.0373 C   0  0  0  0  0  0  0  0  0  0  0  0
   26.2324  -21.9718  -14.3930 O   0  0  0  0  0  0  0  0  0  0  0  0
   27.2107  -19.9952   -7.8107 C   0  0  0  0  0  0  0  0  0  0  0  0
   25.5257  -20.6186   -7.7679 S   0  0  0  0  0  0  0  0  0  0  0  0
   25.0885  -21.1298   -9.4924 C   0  0  0  0  0  0  0  0  0  0  0  0
   26.1231  -20.5586  -10.4188 C   0  0  0  0  0  0  0  0  0  0  0  0
   25.8793  -21.0161  -11.8337 C   0  0  2  0  0  0  0  0  0  0  0  0
   26.9508  -20.5379  -12.7059 N   0  0  0  0  0  0  0  0  0  0  0  0
   24.5726  -20.5014  -12.3040 C   0  0  0  0  0  0  0  0  0  0  0  0
   24.3195  -19.3071  -12.5684 O   0  0  0  0  0  0  0  0  0  0  0  0
   22.7317  -21.5575  -15.3414 C   0  0  0  0  0  0  0  0  0  0  0  0
   21.7338  -21.7286  -14.2211 C   0  0  2  0  0  0  0  0  0  0  0  0
   20.3888  -21.2652  -14.7513 C   0  0  0  0  0  0  0  0  0  0  0  0
   22.1878  -20.9082  -13.0583 C   0  0  2  0  0  0  0  0  0  0  0  0
   23.4470  -21.3877  -12.4983 N   0  0  0  0  0  0  0  0  0  0  0  0
   21.1989  -21.0134  -11.9586 C   0  0  0  0  0  0  0  0  0  0  0  0
   20.1243  -20.1437  -11.9296 O   0  0  0  0  0  0  0  0  0  0  0  0
   21.2715  -21.8574  -11.0301 O   0  0  0  0  0  0  0  0  0  0  0  0
  2  1  1  6
  2  3  1  0
  4  3  1  0
  5  4  1  0
  6  5  1  0
  7  6  1  0
  8  9  2  0
  8  2  1  0
 10 11  1  0
 11 12  1  0
 13 12  1  0
 14 13  1  1
 14 15  1  0
 15  8  1  0
 16 22  1  0
 16 14  1  0
 17 16  2  0
 19 18  1  6
 19 21  1  0
 20 19  1  0
 21 22  1  1
 21 23  1  0
 23 24  1  0
 25 23  2  0
M  END
$$$$
