KMV.pdb
     RDKit          3D

 25 24  0  0  1  0  0  0  0  0999 V2000
   28.1225  -21.9169  -16.2705 N   0  0  0  0  0  0  0  0  0  0  0  0
   27.6897  -20.7227  -15.5289 C   0  0  1  0  0  0  0  0  0  0  0  0
   26.8567  -19.8274  -16.4200 C   0  0  0  0  0  0  0  0  0  0  0  0
   27.6569  -18.9489  -17.3182 C   0  0  0  0  0  0  0  0  0  0  0  0
   29.1382  -19.0656  -17.1900 C   0  0  0  0  0  0  0  0  0  0  0  0
   29.8640  -18.1353  -18.1016 C   0  0  0  0  0  0  0  0  0  0  0  0
   29.7046  -18.5038  -19.4678 N   0  0  0  0  0  0  0  0  0  0  0  0
   26.8928  -21.1909  -14.3859 C   0  0  0  0  0  0  0  0  0  0  0  0
   26.0462  -22.1244  -14.6148 O   0  0  0  0  0  0  0  0  0  0  0  0
   27.6727  -20.3486   -7.9157 C   0  0  0  0  0  0  0  0  0  0  0  0
   25.8993  -20.1164   -8.0926 S   0  0  0  0  0  0  0  0  0  0  0  0
   25.4036  -20.8970   -9.6962 C   0  0  0  0  0  0  0  0  0  0  0  0
   26.3152  -20.3699  -10.7667 C   0  0  0  0  0  0  0  0  0  0  0  0
   25.9640  -20.9674  -12.1048 C   0  0  2  0  0  0  0  0  0  0  0  0
   27.0149  -20.6702  -13.0769 N   0  0  0  0  0  0  0  0  0  0  0  0
   24.6701  -20.4173  -12.5702 C   0  0  0  0  0  0  0  0  0  0  0  0
   24.4695  -19.2321  -12.9098 O   0  0  0  0  0  0  0  0  0  0  0  0
   22.8203  -21.2979  -15.5416 C   0  0  0  0  0  0  0  0  0  0  0  0
   21.8180  -21.5328  -14.4369 C   0  0  2  0  0  0  0  0  0  0  0  0
   20.4684  -21.0725  -14.9580 C   0  0  0  0  0  0  0  0  0  0  0  0
   22.2487  -20.7527  -13.2381 C   0  0  2  0  0  0  0  0  0  0  0  0
   23.4949  -21.2537  -12.6679 N   0  0  0  0  0  0  0  0  0  0  0  0
   21.2365  -20.8919  -12.1637 C   0  0  0  0  0  0  0  0  0  0  0  0
   21.3187  -21.9615  -11.2913 O   0  0  0  0  0  0  0  0  0  0  0  0
   20.2875  -20.0869  -11.9874 O   0  0  0  0  0  0  0  0  0  0  0  0
  2  1  1  6
  2  3  1  0
  4  3  1  0
  5  4  1  0
  6  5  1  0
  7  6  1  0
  8  9  2  0
  8  2  1  0
 10 11  1  0
 11 12  1  0
 13 12  1  0
 14 13  1  1
 14 15  1  0
 15  8  1  0
 16 22  1  0
 16 14  1  0
 17 16  2  0
 19 18  1  6
 19 21  1  0
 20 19  1  0
 21 22  1  1
 21 23  1  0
 23 24  1  0
 25 23  2  0
M  END
$$$$
