KMV.pdb
     RDKit          3D

 25 24  0  0  1  0  0  0  0  0999 V2000
   26.3665  -19.3880  -13.9271 N   0  0  0  0  0  0  0  0  0  0  0  0
   25.6064  -20.6470  -13.9476 C   0  0  1  0  0  0  0  0  0  0  0  0
   26.3497  -21.6933  -14.7491 C   0  0  0  0  0  0  0  0  0  0  0  0
   26.1742  -21.5686  -16.2230 C   0  0  0  0  0  0  0  0  0  0  0  0
   24.8244  -21.1307  -16.6817 C   0  0  0  0  0  0  0  0  0  0  0  0
   24.7169  -21.0787  -18.1680 C   0  0  0  0  0  0  0  0  0  0  0  0
   23.4370  -20.6176  -18.5887 N   0  0  0  0  0  0  0  0  0  0  0  0
   25.4571  -21.0827  -12.5517 C   0  0  0  0  0  0  0  0  0  0  0  0
   25.0218  -22.2720  -12.3605 O   0  0  0  0  0  0  0  0  0  0  0  0
   28.6934  -19.5342   -7.2948 C   0  0  0  0  0  0  0  0  0  0  0  0
   27.0887  -19.6886   -6.5004 S   0  0  0  0  0  0  0  0  0  0  0  0
   25.9711  -20.5594   -7.6916 C   0  0  0  0  0  0  0  0  0  0  0  0
   26.2802  -20.0504   -9.0701 C   0  0  0  0  0  0  0  0  0  0  0  0
   25.4409  -20.7621  -10.0995 C   0  0  2  0  0  0  0  0  0  0  0  0
   25.7644  -20.2684  -11.4371 N   0  0  0  0  0  0  0  0  0  0  0  0
   24.0055  -20.5412   -9.8090 C   0  0  0  0  0  0  0  0  0  0  0  0
   23.3980  -19.4591   -9.9512 O   0  0  0  0  0  0  0  0  0  0  0  0
   21.1811  -21.5171  -11.4879 C   0  0  0  0  0  0  0  0  0  0  0  0
   20.9226  -22.1528  -10.1427 C   0  0  2  0  0  0  0  0  0  0  0  0
   19.4335  -22.0307   -9.8739 C   0  0  0  0  0  0  0  0  0  0  0  0
   21.7355  -21.4310   -9.1182 C   0  0  2  0  0  0  0  0  0  0  0  0
   23.1694  -21.6135   -9.3177 N   0  0  0  0  0  0  0  0  0  0  0  0
   21.4481  -21.9859   -7.7737 C   0  0  0  0  0  0  0  0  0  0  0  0
   22.4061  -22.7564   -7.1408 O   0  0  0  0  0  0  0  0  0  0  0  0
   20.3694  -21.8005   -7.1557 O   0  0  0  0  0  0  0  0  0  0  0  0
  2  1  1  1
  2  3  1  0
  4  3  1  0
  5  4  1  0
  6  5  1  0
  7  6  1  0
  8  9  2  0
  8  2  1  0
 10 11  1  0
 11 12  1  0
 13 12  1  0
 14 13  1  1
 14 15  1  0
 15  8  1  0
 16 22  1  0
 16 14  1  0
 17 16  2  0
 19 18  1  6
 19 21  1  0
 20 19  1  0
 21 22  1  6
 21 23  1  0
 23 24  1  0
 25 23  2  0
M  END
$$$$
