KMV.pdb
     RDKit          3D

 25 24  0  0  1  0  0  0  0  0999 V2000
   28.0737  -21.2436  -15.0185 N   0  0  0  0  0  0  0  0  0  0  0  0
   27.7067  -20.1052  -14.1625 C   0  0  1  0  0  0  0  0  0  0  0  0
   26.8752  -19.1108  -14.9432 C   0  0  0  0  0  0  0  0  0  0  0  0
   27.6447  -18.3388  -15.9584 C   0  0  0  0  0  0  0  0  0  0  0  0
   27.8822  -19.0311  -17.2578 C   0  0  0  0  0  0  0  0  0  0  0  0
   28.5110  -18.1377  -18.2727 C   0  0  0  0  0  0  0  0  0  0  0  0
   29.8896  -18.4408  -18.4608 N   0  0  0  0  0  0  0  0  0  0  0  0
   26.9331  -20.6456  -13.0355 C   0  0  0  0  0  0  0  0  0  0  0  0
   26.0744  -21.5563  -13.3074 O   0  0  0  0  0  0  0  0  0  0  0  0
   27.9011  -19.4645   -6.8994 C   0  0  0  0  0  0  0  0  0  0  0  0
   26.2865  -20.2035   -6.6222 S   0  0  0  0  0  0  0  0  0  0  0  0
   25.6654  -20.7904   -8.2642 C   0  0  0  0  0  0  0  0  0  0  0  0
   26.5366  -20.1883   -9.3287 C   0  0  0  0  0  0  0  0  0  0  0  0
   26.1636  -20.7249  -10.6865 C   0  0  2  0  0  0  0  0  0  0  0  0
   27.0895  -20.2163  -11.6973 N   0  0  0  0  0  0  0  0  0  0  0  0
   24.7776  -20.3207  -11.0167 C   0  0  0  0  0  0  0  0  0  0  0  0
   24.4218  -19.1729  -11.3578 O   0  0  0  0  0  0  0  0  0  0  0  0
   22.8672  -21.1675  -13.7813 C   0  0  0  0  0  0  0  0  0  0  0  0
   21.9617  -21.6362  -12.6674 C   0  0  2  0  0  0  0  0  0  0  0  0
   20.5389  -21.3158  -13.0888 C   0  0  0  0  0  0  0  0  0  0  0  0
   22.3475  -20.9190  -11.4152 C   0  0  2  0  0  0  0  0  0  0  0  0
   23.6898  -21.2716  -10.9644 N   0  0  0  0  0  0  0  0  0  0  0  0
   21.4407  -21.3194  -10.3128 C   0  0  0  0  0  0  0  0  0  0  0  0
   21.9035  -22.1809   -9.3351 O   0  0  0  0  0  0  0  0  0  0  0  0
   20.2536  -20.9213  -10.2031 O   0  0  0  0  0  0  0  0  0  0  0  0
  2  1  1  6
  2  3  1  0
  4  3  1  0
  5  4  1  0
  6  5  1  0
  7  6  1  0
  8  9  2  0
  8  2  1  0
 10 11  1  0
 11 12  1  0
 13 12  1  0
 14 13  1  1
 14 15  1  0
 15  8  1  0
 16 22  1  0
 16 14  1  0
 17 16  2  0
 19 18  1  6
 19 21  1  0
 20 19  1  0
 21 22  1  1
 21 23  1  0
 23 24  1  0
 25 23  2  0
M  END
$$$$
