KMV.pdb
     RDKit          3D

 25 24  0  0  1  0  0  0  0  0999 V2000
   15.6739  -11.9726  -16.0072 N   0  0  0  0  0  0  0  0  0  0  0  0
   16.9585  -11.6459  -15.3699 C   0  0  1  0  0  0  0  0  0  0  0  0
   18.0692  -12.4748  -15.9773 C   0  0  0  0  0  0  0  0  0  0  0  0
   17.9594  -13.9345  -15.7017 C   0  0  0  0  0  0  0  0  0  0  0  0
   18.9658  -14.8011  -16.3801 C   0  0  0  0  0  0  0  0  0  0  0  0
   18.7149  -16.2529  -16.1502 C   0  0  0  0  0  0  0  0  0  0  0  0
   19.5787  -17.0685  -16.9353 N   0  0  0  0  0  0  0  0  0  0  0  0
   17.2027  -10.2151  -15.6017 C   0  0  0  0  0  0  0  0  0  0  0  0
   16.6141   -9.6835  -16.6075 O   0  0  0  0  0  0  0  0  0  0  0  0
   15.3612   -4.5315  -13.2686 C   0  0  0  0  0  0  0  0  0  0  0  0
   15.3565   -5.0371  -14.9932 S   0  0  0  0  0  0  0  0  0  0  0  0
   16.9869   -5.8464  -15.3295 C   0  0  0  0  0  0  0  0  0  0  0  0
   16.8486   -7.3088  -15.0180 C   0  0  0  0  0  0  0  0  0  0  0  0
   18.1848   -7.9996  -15.1083 C   0  0  2  0  0  0  0  0  0  0  0  0
   18.0378   -9.4179  -14.7851 N   0  0  0  0  0  0  0  0  0  0  0  0
   19.1385   -7.3608  -14.1725 C   0  0  0  0  0  0  0  0  0  0  0  0
   19.0417   -7.3659  -12.9272 O   0  0  0  0  0  0  0  0  0  0  0  0
   22.9831   -7.0080  -15.5659 C   0  0  0  0  0  0  0  0  0  0  0  0
   22.6253   -7.2243  -14.1149 C   0  0  2  0  0  0  0  0  0  0  0  0
   22.3235   -8.7028  -13.9488 C   0  0  0  0  0  0  0  0  0  0  0  0
   21.4410   -6.3733  -13.7913 C   0  0  2  0  0  0  0  0  0  0  0  0
   20.3020   -6.6537  -14.6591 N   0  0  0  0  0  0  0  0  0  0  0  0
   21.7747   -4.9474  -14.0227 C   0  0  0  0  0  0  0  0  0  0  0  0
   22.5969   -4.2907  -13.1256 O   0  0  0  0  0  0  0  0  0  0  0  0
   21.3522   -4.2791  -14.9998 O   0  0  0  0  0  0  0  0  0  0  0  0
  2  1  1  6
  2  3  1  0
  4  3  1  0
  5  4  1  0
  6  5  1  0
  7  6  1  0
  8  9  2  0
  8  2  1  0
 10 11  1  0
 11 12  1  0
 13 12  1  0
 14 13  1  1
 14 15  1  0
 15  8  1  0
 16 22  1  0
 16 14  1  0
 17 16  2  0
 19 18  1  6
 19 21  1  0
 20 19  1  0
 21 22  1  6
 21 23  1  0
 23 24  1  0
 25 23  2  0
M  END
$$$$
