KMV.pdb
     RDKit          3D

 25 24  0  0  1  0  0  0  0  0999 V2000
   28.0803  -19.7393  -14.5939 N   0  0  0  0  0  0  0  0  0  0  0  0
   27.4699  -21.0644  -14.7808 C   0  0  1  0  0  0  0  0  0  0  0  0
   28.5270  -22.0778  -15.1618 C   0  0  0  0  0  0  0  0  0  0  0  0
   29.2615  -21.7486  -16.4153 C   0  0  0  0  0  0  0  0  0  0  0  0
   28.5226  -22.0002  -17.6861 C   0  0  0  0  0  0  0  0  0  0  0  0
   29.3239  -21.6419  -18.8915 C   0  0  0  0  0  0  0  0  0  0  0  0
   28.6071  -21.8940  -20.0958 N   0  0  0  0  0  0  0  0  0  0  0  0
   26.8439  -21.4342  -13.5033 C   0  0  0  0  0  0  0  0  0  0  0  0
   26.1403  -22.5045  -13.4925 O   0  0  0  0  0  0  0  0  0  0  0  0
   27.0355  -21.0385   -6.4006 C   0  0  0  0  0  0  0  0  0  0  0  0
   26.2505  -19.7058   -7.3158 S   0  0  0  0  0  0  0  0  0  0  0  0
   25.5298  -20.4479   -8.8508 C   0  0  0  0  0  0  0  0  0  0  0  0
   26.5323  -20.2839   -9.9566 C   0  0  0  0  0  0  0  0  0  0  0  0
   26.0216  -20.9026  -11.2323 C   0  0  2  0  0  0  0  0  0  0  0  0
   26.9793  -20.6805  -12.3145 N   0  0  0  0  0  0  0  0  0  0  0  0
   24.7111  -20.3083  -11.5826 C   0  0  0  0  0  0  0  0  0  0  0  0
   24.4786  -19.0860  -11.6927 O   0  0  0  0  0  0  0  0  0  0  0  0
   21.8848  -22.6043  -13.6105 C   0  0  0  0  0  0  0  0  0  0  0  0
   21.9404  -21.0968  -13.6786 C   0  0  2  0  0  0  0  0  0  0  0  0
   22.9838  -20.7387  -14.7215 C   0  0  0  0  0  0  0  0  0  0  0  0
   22.3034  -20.5785  -12.3254 C   0  0  2  0  0  0  0  0  0  0  0  0
   23.5563  -21.1414  -11.8329 N   0  0  0  0  0  0  0  0  0  0  0  0
   21.2712  -20.9873  -11.3427 C   0  0  0  0  0  0  0  0  0  0  0  0
   20.0443  -20.3497  -11.3453 O   0  0  0  0  0  0  0  0  0  0  0  0
   21.4382  -21.8936  -10.4880 O   0  0  0  0  0  0  0  0  0  0  0  0
  2  1  1  1
  2  3  1  0
  4  3  1  0
  5  4  1  0
  6  5  1  0
  7  6  1  0
  8  9  2  0
  8  2  1  0
 10 11  1  0
 11 12  1  0
 13 12  1  0
 14 13  1  1
 14 15  1  0
 15  8  1  0
 16 22  1  0
 16 14  1  0
 17 16  2  0
 19 18  1  1
 19 21  1  0
 20 19  1  0
 21 22  1  1
 21 23  1  0
 23 24  1  0
 25 23  2  0
M  END
$$$$
