KMV.pdb
     RDKit          3D

 25 24  0  0  1  0  0  0  0  0999 V2000
   22.1147  -21.0634   -9.4297 N   0  0  0  0  0  0  0  0  0  0  0  0
   22.1025  -21.2739  -10.8853 C   0  0  1  0  0  0  0  0  0  0  0  0
   20.8566  -20.6653  -11.4911 C   0  0  0  0  0  0  0  0  0  0  0  0
   20.1458  -21.5594  -12.4472 C   0  0  0  0  0  0  0  0  0  0  0  0
   20.3245  -23.0230  -12.2231 C   0  0  0  0  0  0  0  0  0  0  0  0
   19.6179  -23.8464  -13.2459 C   0  0  0  0  0  0  0  0  0  0  0  0
   18.2530  -24.0597  -12.9006 N   0  0  0  0  0  0  0  0  0  0  0  0
   23.3044  -20.6221  -11.4249 C   0  0  0  0  0  0  0  0  0  0  0  0
   23.5108  -19.4078  -11.0737 O   0  0  0  0  0  0  0  0  0  0  0  0
   30.8085  -20.4564  -12.1731 C   0  0  0  0  0  0  0  0  0  0  0  0
   29.3491  -21.4822  -11.9545 S   0  0  0  0  0  0  0  0  0  0  0  0
   27.8958  -20.4962  -12.5394 C   0  0  0  0  0  0  0  0  0  0  0  0
   26.6526  -21.2795  -12.2300 C   0  0  0  0  0  0  0  0  0  0  0  0
   25.4268  -20.5342  -12.6913 C   0  0  2  0  0  0  0  0  0  0  0  0
   24.2211  -21.2590  -12.2931 N   0  0  0  0  0  0  0  0  0  0  0  0
   25.4645  -20.3795  -14.1637 C   0  0  0  0  0  0  0  0  0  0  0  0
   25.1685  -21.2673  -14.9911 O   0  0  0  0  0  0  0  0  0  0  0  0
   24.0715  -17.1545  -16.0896 C   0  0  0  0  0  0  0  0  0  0  0  0
   25.4703  -17.4870  -16.5509 C   0  0  2  0  0  0  0  0  0  0  0  0
   25.5130  -17.2411  -18.0484 C   0  0  0  0  0  0  0  0  0  0  0  0
   25.7499  -18.9146  -16.2118 C   0  0  2  0  0  0  0  0  0  0  0  0
   25.8653  -19.1313  -14.7735 N   0  0  0  0  0  0  0  0  0  0  0  0
   27.0600  -19.3136  -16.7797 C   0  0  0  0  0  0  0  0  0  0  0  0
   28.2209  -18.9572  -16.1183 O   0  0  0  0  0  0  0  0  0  0  0  0
   27.1914  -19.9679  -17.8448 O   0  0  0  0  0  0  0  0  0  0  0  0
  2  1  1  1
  2  3  1  0
  4  3  1  0
  5  4  1  0
  6  5  1  0
  7  6  1  0
  8  9  2  0
  8  2  1  0
 10 11  1  0
 11 12  1  0
 13 12  1  0
 14 13  1  6
 14 15  1  0
 15  8  1  0
 16 22  1  0
 16 14  1  0
 17 16  2  0
 19 18  1  6
 19 21  1  0
 20 19  1  0
 21 22  1  1
 21 23  1  0
 23 24  1  0
 25 23  2  0
M  END
$$$$
