KMV.pdb
     RDKit          3D

 25 24  0  0  1  0  0  0  0  0999 V2000
   28.2145  -21.8827  -15.9874 N   0  0  0  0  0  0  0  0  0  0  0  0
   28.1047  -20.7280  -15.0829 C   0  0  1  0  0  0  0  0  0  0  0  0
   27.6549  -19.5039  -15.8502 C   0  0  0  0  0  0  0  0  0  0  0  0
   28.2222  -19.4045  -17.2239 C   0  0  0  0  0  0  0  0  0  0  0  0
   27.7794  -18.2276  -18.0259 C   0  0  0  0  0  0  0  0  0  0  0  0
   28.3759  -16.9502  -17.5400 C   0  0  0  0  0  0  0  0  0  0  0  0
   27.9526  -15.8387  -18.3231 N   0  0  0  0  0  0  0  0  0  0  0  0
   27.1151  -21.0792  -14.0544 C   0  0  0  0  0  0  0  0  0  0  0  0
   26.3264  -22.0531  -14.3192 O   0  0  0  0  0  0  0  0  0  0  0  0
   27.4420  -20.6786   -7.5109 C   0  0  0  0  0  0  0  0  0  0  0  0
   25.7462  -20.1789   -7.8339 S   0  0  0  0  0  0  0  0  0  0  0  0
   25.2861  -20.8506   -9.4964 C   0  0  0  0  0  0  0  0  0  0  0  0
   26.2591  -20.3026  -10.5003 C   0  0  0  0  0  0  0  0  0  0  0  0
   25.9711  -20.8521  -11.8736 C   0  0  2  0  0  0  0  0  0  0  0  0
   26.9966  -20.4071  -12.8158 N   0  0  0  0  0  0  0  0  0  0  0  0
   24.6356  -20.3947  -12.3215 C   0  0  0  0  0  0  0  0  0  0  0  0
   24.3217  -19.2103  -12.5640 O   0  0  0  0  0  0  0  0  0  0  0  0
   22.8443  -21.5788  -15.3580 C   0  0  0  0  0  0  0  0  0  0  0  0
   21.8543  -21.7700  -14.2339 C   0  0  2  0  0  0  0  0  0  0  0  0
   20.4918  -21.3698  -14.7708 C   0  0  0  0  0  0  0  0  0  0  0  0
   22.2756  -20.9119  -13.0860 C   0  0  2  0  0  0  0  0  0  0  0  0
   23.5524  -21.3319  -12.5182 N   0  0  0  0  0  0  0  0  0  0  0  0
   21.2912  -21.0362  -11.9843 C   0  0  0  0  0  0  0  0  0  0  0  0
   20.4260  -19.9883  -11.7286 O   0  0  0  0  0  0  0  0  0  0  0  0
   21.1866  -22.0510  -11.2501 O   0  0  0  0  0  0  0  0  0  0  0  0
  2  1  1  6
  2  3  1  0
  4  3  1  0
  5  4  1  0
  6  5  1  0
  7  6  1  0
  8  9  2  0
  8  2  1  0
 10 11  1  0
 11 12  1  0
 13 12  1  0
 14 13  1  1
 14 15  1  0
 15  8  1  0
 16 22  1  0
 16 14  1  0
 17 16  2  0
 19 18  1  6
 19 21  1  0
 20 19  1  0
 21 22  1  1
 21 23  1  0
 23 24  1  0
 25 23  2  0
M  END
$$$$
