RVC.pdb
     RDKit          3D

 25 24  0  0  1  0  0  0  0  0999 V2000
    8.0227  -13.2999   16.8136 N   0  0  0  0  0  0  0  0  0  0  0  0
    8.0109  -14.6070   16.2301 C   0  0  0  0  0  0  0  0  0  0  0  0
    7.5495  -14.7570   15.0331 N   0  0  0  0  0  0  0  0  0  0  0  0
    8.5042  -15.7016   16.9748 N   0  0  0  0  0  0  0  0  0  0  0  0
    8.4364  -15.6217   18.4391 C   0  0  0  0  0  0  0  0  0  0  0  0
    9.4484  -14.6766   18.9778 C   0  0  0  0  0  0  0  0  0  0  0  0
    9.5595  -14.5683   20.4600 C   0  0  0  0  0  0  0  0  0  0  0  0
    8.2638  -14.4249   21.1710 C   0  0  2  0  0  0  0  0  0  0  0  0
    7.3770  -13.5423   20.4250 N   0  0  0  0  0  0  0  0  0  0  0  0
    8.4314  -13.8037   22.5212 C   0  0  0  0  0  0  0  0  0  0  0  0
    8.4258  -12.5589   22.6737 O   0  0  0  0  0  0  0  0  0  0  0  0
    7.5980  -15.6864   14.5643 C   0  0  0  0  0  0  0  0  0  0  0  0
    6.9464  -12.3362   24.2591 C   0  0  2  0  0  0  0  0  0  0  0  0
    7.2930  -13.3564   25.2901 C   0  0  0  0  0  0  0  0  0  0  0  0
    7.1742  -12.8254   26.7014 C   0  0  2  0  0  0  0  0  0  0  0  0
    8.6155  -13.9921   25.0227 N   0  0  0  0  0  0  0  0  0  0  0  0
    8.6083  -14.5915   23.7148 C   0  0  0  0  0  0  0  0  0  0  0  0
    8.8651  -15.0726   26.0176 O   0  0  0  0  0  0  0  0  0  0  0  0
    8.4780  -16.2626   25.8361 N   0  0  0  0  0  0  0  0  0  0  0  0
    9.5600  -14.8163   27.2347 C   0  0  2  0  0  0  0  0  0  0  0  0
   10.6896  -15.6285   27.6689 C   0  0  0  0  0  0  0  0  0  0  0  0
   11.5913  -14.8585   28.6078 S   0  0  0  0  0  0  0  0  0  0  0  0
   10.6401  -14.0314   29.8878 C   0  0  0  0  0  0  0  0  0  0  0  0
   10.1471  -16.7807   28.4318 O   0  0  0  0  0  0  0  0  0  0  0  0
   10.9626  -17.8611   28.8198 O   0  0  0  0  0  0  0  0  0  0  0  0
  2  1  1  0
  3  2  2  0
  4  2  1  0
  5  4  1  0
  6  5  1  0
  7  6  1  0
  8 10  1  0
  8  7  1  0
  8  9  1  6
 10 11  2  0
 10 16  1  0
 13 14  1  6
 13 12  1  0
 15 13  1  0
 15 16  1  1
 17 18  2  0
 17 15  1  0
 19 17  1  0
 20 19  1  0
 20 21  1  1
 21 22  1  0
 23 20  1  0
 24 23  1  0
 25 23  2  0
M  END
$$$$
