RVC.pdb
     RDKit          3D

 25 24  0  0  1  0  0  0  0  0999 V2000
    9.0552  -14.2110   15.6181 N   0  0  0  0  0  0  0  0  0  0  0  0
    7.8045  -14.9020   15.7046 C   0  0  0  0  0  0  0  0  0  0  0  0
    7.4861  -15.7438   14.7781 N   0  0  0  0  0  0  0  0  0  0  0  0
    6.9485  -14.6490   16.7996 N   0  0  0  0  0  0  0  0  0  0  0  0
    7.5620  -14.2534   18.0732 C   0  0  0  0  0  0  0  0  0  0  0  0
    7.1292  -15.1420   19.1826 C   0  0  0  0  0  0  0  0  0  0  0  0
    7.8105  -14.9729   20.4973 C   0  0  0  0  0  0  0  0  0  0  0  0
    7.5955  -13.6531   21.1428 C   0  0  2  0  0  0  0  0  0  0  0  0
    8.2955  -12.6122   20.4021 N   0  0  0  0  0  0  0  0  0  0  0  0
    8.1425  -13.6144   22.5343 C   0  0  0  0  0  0  0  0  0  0  0  0
    9.3728  -13.5028   22.7507 O   0  0  0  0  0  0  0  0  0  0  0  0
    6.6773  -16.3878   14.9093 C   0  0  0  0  0  0  0  0  0  0  0  0
    6.2841  -11.7191   25.4272 C   0  0  1  0  0  0  0  0  0  0  0  0
    6.8036  -13.0197   25.9394 C   0  0  0  0  0  0  0  0  0  0  0  0
    7.2732  -12.9373   27.3749 C   0  0  2  0  0  0  0  0  0  0  0  0
    7.8292  -13.6075   25.0300 N   0  0  0  0  0  0  0  0  0  0  0  0
    7.2961  -13.7028   23.6972 C   0  0  0  0  0  0  0  0  0  0  0  0
    8.1735  -14.9846   25.4826 O   0  0  0  0  0  0  0  0  0  0  0  0
    7.3538  -15.9448   25.4130 N   0  0  0  0  0  0  0  0  0  0  0  0
    9.4565  -15.2911   26.0209 C   0  0  1  0  0  0  0  0  0  0  0  0
    9.8129  -16.6345   26.4597 C   0  0  0  0  0  0  0  0  0  0  0  0
   11.1532  -17.0576   25.9008 S   0  0  0  0  0  0  0  0  0  0  0  0
   11.2062  -16.8522   24.1170 C   0  0  0  0  0  0  0  0  0  0  0  0
    9.9467  -16.6031   27.9379 O   0  0  0  0  0  0  0  0  0  0  0  0
   10.2516  -17.7616   28.6779 O   0  0  0  0  0  0  0  0  0  0  0  0
  2  1  1  0
  3  2  2  0
  4  2  1  0
  5  4  1  0
  6  5  1  0
  7  6  1  0
  8 10  1  0
  8  7  1  0
  8  9  1  6
 10 11  2  0
 10 16  1  0
 13 14  1  6
 13 12  1  0
 15 13  1  0
 15 16  1  6
 17 18  2  0
 17 15  1  0
 19 17  1  0
 20 19  1  0
 20 21  1  1
 21 22  1  0
 23 20  1  0
 24 23  1  0
 25 23  2  0
M  END
$$$$
