RVC.pdb
     RDKit          3D

 25 24  0  0  1  0  0  0  0  0999 V2000
   13.9909  -13.7343   17.3361 N   0  0  0  0  0  0  0  0  0  0  0  0
   14.5829  -14.4220   18.4433 C   0  0  0  0  0  0  0  0  0  0  0  0
   15.5268  -13.8449   19.1098 N   0  0  0  0  0  0  0  0  0  0  0  0
   14.1218  -15.7137   18.7821 N   0  0  0  0  0  0  0  0  0  0  0  0
   12.6829  -15.8900   19.0134 C   0  0  0  0  0  0  0  0  0  0  0  0
   12.1493  -14.8480   19.9283 C   0  0  0  0  0  0  0  0  0  0  0  0
   10.6906  -14.8884   20.2311 C   0  0  0  0  0  0  0  0  0  0  0  0
   10.2119  -16.1691   20.8104 C   0  0  2  0  0  0  0  0  0  0  0  0
    9.4838  -16.9331   19.8062 N   0  0  0  0  0  0  0  0  0  0  0  0
    9.2576  -15.9505   21.9411 C   0  0  0  0  0  0  0  0  0  0  0  0
    8.5607  -14.9106   22.0171 O   0  0  0  0  0  0  0  0  0  0  0  0
   15.9581  -14.3222   19.9297 C   0  0  0  0  0  0  0  0  0  0  0  0
    6.9344  -18.7041   23.5372 C   0  0  1  0  0  0  0  0  0  0  0  0
    7.6503  -17.9552   24.6099 C   0  0  0  0  0  0  0  0  0  0  0  0
    6.8186  -17.7894   25.8623 C   0  0  2  0  0  0  0  0  0  0  0  0
    8.2067  -16.6640   24.1121 N   0  0  0  0  0  0  0  0  0  0  0  0
    9.0848  -16.9125   23.0000 C   0  0  0  0  0  0  0  0  0  0  0  0
    9.0063  -16.0125   25.1873 O   0  0  0  0  0  0  0  0  0  0  0  0
   10.2146  -16.3124   25.4085 N   0  0  0  0  0  0  0  0  0  0  0  0
    8.4437  -15.0087   26.0274 C   0  0  1  0  0  0  0  0  0  0  0  0
    9.2111  -14.3624   27.0845 C   0  0  0  0  0  0  0  0  0  0  0  0
    8.4199  -13.2504   27.7366 S   0  0  0  0  0  0  0  0  0  0  0  0
    7.6351  -12.2044   26.5050 C   0  0  0  0  0  0  0  0  0  0  0  0
    9.4781  -15.3802   28.1319 O   0  0  0  0  0  0  0  0  0  0  0  0
    8.9540  -16.6843   28.0468 O   0  0  0  0  0  0  0  0  0  0  0  0
  2  1  1  0
  3  2  2  0
  4  2  1  0
  5  4  1  0
  6  5  1  0
  7  6  1  0
  8 10  1  0
  8  7  1  0
  8  9  1  6
 10 11  2  0
 10 16  1  0
 13 14  1  6
 13 12  1  0
 15 13  1  0
 15 16  1  6
 17 18  2  0
 17 15  1  0
 19 17  1  0
 20 19  1  0
 20 21  1  1
 21 22  1  0
 23 20  1  0
 24 23  1  0
 25 23  2  0
M  END
$$$$
