RVC.pdb
     RDKit          3D

 25 24  0  0  1  0  0  0  0  0999 V2000
    8.1224  -12.9943   16.6971 N   0  0  0  0  0  0  0  0  0  0  0  0
    8.5869  -13.8435   15.6423 C   0  0  0  0  0  0  0  0  0  0  0  0
    8.3619  -13.5038   14.4167 N   0  0  0  0  0  0  0  0  0  0  0  0
    9.2803  -15.0313   15.9650 N   0  0  0  0  0  0  0  0  0  0  0  0
    8.5010  -16.1608   16.4864 C   0  0  0  0  0  0  0  0  0  0  0  0
    8.1641  -15.9707   17.9209 C   0  0  0  0  0  0  0  0  0  0  0  0
    9.3000  -15.8284   18.8752 C   0  0  0  0  0  0  0  0  0  0  0  0
    9.3442  -16.8566   19.9456 C   0  0  2  0  0  0  0  0  0  0  0  0
    8.0625  -17.5430   20.0355 N   0  0  0  0  0  0  0  0  0  0  0  0
    9.5896  -16.2533   21.2920 C   0  0  0  0  0  0  0  0  0  0  0  0
   10.7406  -15.9144   21.6571 O   0  0  0  0  0  0  0  0  0  0  0  0
    8.6990  -14.1050   13.6349 C   0  0  0  0  0  0  0  0  0  0  0  0
    7.4343  -13.4525   22.8965 C   0  0  1  0  0  0  0  0  0  0  0  0
    7.6354  -14.5431   23.8935 C   0  0  0  0  0  0  0  0  0  0  0  0
    7.7297  -14.0281   25.3125 C   0  0  2  0  0  0  0  0  0  0  0  0
    8.7755  -15.4315   23.5256 N   0  0  0  0  0  0  0  0  0  0  0  0
    8.5280  -16.0287   22.2403 C   0  0  0  0  0  0  0  0  0  0  0  0
    8.8989  -16.5314   24.5229 O   0  0  0  0  0  0  0  0  0  0  0  0
    7.9985  -17.4048   24.6824 N   0  0  0  0  0  0  0  0  0  0  0  0
   10.0493  -16.6556   25.3541 C   0  0  1  0  0  0  0  0  0  0  0  0
   10.2526  -17.8015   26.2314 C   0  0  0  0  0  0  0  0  0  0  0  0
   11.2536  -18.7718   25.6449 S   0  0  0  0  0  0  0  0  0  0  0  0
   12.7625  -17.9295   25.1542 C   0  0  0  0  0  0  0  0  0  0  0  0
   10.8279  -17.2966   27.5034 O   0  0  0  0  0  0  0  0  0  0  0  0
   10.9637  -18.1246   28.6342 O   0  0  0  0  0  0  0  0  0  0  0  0
  2  1  1  0
  3  2  2  0
  4  2  1  0
  5  4  1  0
  6  5  1  0
  7  6  1  0
  8 10  1  0
  8  7  1  0
  8  9  1  1
 10 11  2  0
 10 16  1  0
 13 14  1  1
 13 12  1  0
 15 13  1  0
 15 16  1  6
 17 18  2  0
 17 15  1  0
 19 17  1  0
 20 19  1  0
 20 21  1  1
 21 22  1  0
 23 20  1  0
 24 23  1  0
 25 23  2  0
M  END
$$$$
