RVC.pdb
     RDKit          3D

 25 24  0  0  1  0  0  0  0  0999 V2000
   13.4060  -20.2338   18.4231 N   0  0  0  0  0  0  0  0  0  0  0  0
   13.2982  -20.0167   19.8340 C   0  0  0  0  0  0  0  0  0  0  0  0
   14.3565  -19.7023   20.5042 N   0  0  0  0  0  0  0  0  0  0  0  0
   12.0389  -20.1502   20.4603 N   0  0  0  0  0  0  0  0  0  0  0  0
   10.8958  -20.5420   19.6266 C   0  0  0  0  0  0  0  0  0  0  0  0
   10.2818  -19.3645   18.9605 C   0  0  0  0  0  0  0  0  0  0  0  0
    8.8558  -19.0686   19.2768 C   0  0  0  0  0  0  0  0  0  0  0  0
    8.2744  -17.9320   18.5184 C   0  0  2  0  0  0  0  0  0  0  0  0
    8.6015  -18.0528   17.1040 N   0  0  0  0  0  0  0  0  0  0  0  0
    8.8314  -16.6176   18.9645 C   0  0  0  0  0  0  0  0  0  0  0  0
    9.9061  -16.1703   18.4978 O   0  0  0  0  0  0  0  0  0  0  0  0
   14.3079  -19.5875   21.5389 C   0  0  0  0  0  0  0  0  0  0  0  0
    7.0192  -13.3955   18.7803 C   0  0  1  0  0  0  0  0  0  0  0  0
    7.5405  -13.4966   20.1737 C   0  0  0  0  0  0  0  0  0  0  0  0
    7.8916  -12.1499   20.7660 C   0  0  2  0  0  0  0  0  0  0  0  0
    8.6548  -14.4822   20.2819 N   0  0  0  0  0  0  0  0  0  0  0  0
    8.1725  -15.7959   19.9479 C   0  0  0  0  0  0  0  0  0  0  0  0
    9.1558  -14.5237   21.6844 O   0  0  0  0  0  0  0  0  0  0  0  0
    9.7157  -13.5315   22.2329 N   0  0  0  0  0  0  0  0  0  0  0  0
    9.0269  -15.6949   22.4854 C   0  0  1  0  0  0  0  0  0  0  0  0
    9.5563  -15.7696   23.8413 C   0  0  0  0  0  0  0  0  0  0  0  0
    8.4599  -16.0502   24.8446 S   0  0  0  0  0  0  0  0  0  0  0  0
    7.1140  -14.8717   24.6812 C   0  0  0  0  0  0  0  0  0  0  0  0
   10.4987  -16.9156   23.8926 O   0  0  0  0  0  0  0  0  0  0  0  0
   11.3293  -17.1410   25.0071 O   0  0  0  0  0  0  0  0  0  0  0  0
  2  1  1  0
  3  2  2  0
  4  2  1  0
  5  4  1  0
  6  5  1  0
  7  6  1  0
  8 10  1  0
  8  7  1  0
  8  9  1  6
 10 11  2  0
 10 16  1  0
 13 14  1  6
 13 12  1  0
 15 13  1  0
 15 16  1  6
 17 18  2  0
 17 15  1  0
 19 17  1  0
 20 19  1  0
 20 21  1  1
 21 22  1  0
 23 20  1  0
 24 23  1  0
 25 23  2  0
M  END
$$$$
