RVC.pdb
     RDKit          3D

 25 24  0  0  1  0  0  0  0  0999 V2000
    8.5669  -11.9510   19.1896 N   0  0  0  0  0  0  0  0  0  0  0  0
    8.4766  -13.1850   18.4696 C   0  0  0  0  0  0  0  0  0  0  0  0
    8.4469  -13.1588   17.1787 N   0  0  0  0  0  0  0  0  0  0  0  0
    8.4230  -14.4016   19.1859 N   0  0  0  0  0  0  0  0  0  0  0  0
    7.9414  -15.5941   18.4780 C   0  0  0  0  0  0  0  0  0  0  0  0
    6.7092  -16.1367   19.1062 C   0  0  0  0  0  0  0  0  0  0  0  0
    6.7360  -16.3593   20.5796 C   0  0  0  0  0  0  0  0  0  0  0  0
    7.8573  -17.2063   21.0593 C   0  0  2  0  0  0  0  0  0  0  0  0
    7.6118  -18.6021   20.7226 N   0  0  0  0  0  0  0  0  0  0  0  0
    8.0011  -17.1552   22.5472 C   0  0  0  0  0  0  0  0  0  0  0  0
    7.1965  -17.7505   23.3029 O   0  0  0  0  0  0  0  0  0  0  0  0
    8.3563  -14.0448   16.6375 C   0  0  0  0  0  0  0  0  0  0  0  0
   11.1687  -17.6385   24.7275 C   0  0  2  0  0  0  0  0  0  0  0  0
   10.5284  -16.3403   25.0858 C   0  0  0  0  0  0  0  0  0  0  0  0
   10.6826  -15.9967   26.5507 C   0  0  2  0  0  0  0  0  0  0  0  0
    9.1121  -16.2708   24.6233 N   0  0  0  0  0  0  0  0  0  0  0  0
    9.0621  -16.4254   23.1938 C   0  0  0  0  0  0  0  0  0  0  0  0
    8.5381  -14.9372   24.9577 O   0  0  0  0  0  0  0  0  0  0  0  0
    8.2391  -14.0872   24.0706 N   0  0  0  0  0  0  0  0  0  0  0  0
    8.2944  -14.5500   26.3069 C   0  0  1  0  0  0  0  0  0  0  0  0
    7.6858  -13.2707   26.6490 C   0  0  0  0  0  0  0  0  0  0  0  0
    6.2408  -13.2136   26.2059 S   0  0  0  0  0  0  0  0  0  0  0  0
    5.4451  -11.7090   26.7805 C   0  0  0  0  0  0  0  0  0  0  0  0
    7.6935  -13.1513   28.1288 O   0  0  0  0  0  0  0  0  0  0  0  0
    7.5924  -11.9022   28.7709 O   0  0  0  0  0  0  0  0  0  0  0  0
  2  1  1  0
  3  2  2  0
  4  2  1  0
  5  4  1  0
  6  5  1  0
  7  6  1  0
  8 10  1  0
  8  7  1  0
  8  9  1  1
 10 11  2  0
 10 16  1  0
 13 14  1  1
 13 12  1  0
 15 13  1  0
 15 16  1  1
 17 18  2  0
 17 15  1  0
 19 17  1  0
 20 19  1  0
 20 21  1  1
 21 22  1  0
 23 20  1  0
 24 23  1  0
 25 23  2  0
M  END
$$$$
