RVC.pdb
     RDKit          3D

 25 24  0  0  1  0  0  0  0  0999 V2000
    8.3014  -12.5766   16.5948 N   0  0  0  0  0  0  0  0  0  0  0  0
    8.6120  -13.9732   16.5462 C   0  0  0  0  0  0  0  0  0  0  0  0
    8.8158  -14.5323   15.3999 N   0  0  0  0  0  0  0  0  0  0  0  0
    8.6894  -14.7070   17.7510 N   0  0  0  0  0  0  0  0  0  0  0  0
    7.8763  -15.9238   17.8668 C   0  0  0  0  0  0  0  0  0  0  0  0
    6.7046  -15.7104   18.7550 C   0  0  0  0  0  0  0  0  0  0  0  0
    6.9720  -15.5678   20.2142 C   0  0  0  0  0  0  0  0  0  0  0  0
    7.4485  -16.8055   20.8821 C   0  0  2  0  0  0  0  0  0  0  0  0
    6.5798  -17.9248   20.5434 N   0  0  0  0  0  0  0  0  0  0  0  0
    7.4136  -16.6867   22.3726 C   0  0  0  0  0  0  0  0  0  0  0  0
    6.3452  -16.8238   23.0150 O   0  0  0  0  0  0  0  0  0  0  0  0
    8.8776  -15.5699   15.3254 C   0  0  0  0  0  0  0  0  0  0  0  0
   10.1394  -18.1912   24.8336 C   0  0  2  0  0  0  0  0  0  0  0  0
    9.8509  -16.7647   25.1588 C   0  0  0  0  0  0  0  0  0  0  0  0
    9.9740  -16.4653   26.6363 C   0  0  2  0  0  0  0  0  0  0  0  0
    8.5496  -16.3145   24.5857 N   0  0  0  0  0  0  0  0  0  0  0  0
    8.5943  -16.4096   23.1509 C   0  0  0  0  0  0  0  0  0  0  0  0
    8.3101  -14.8874   24.9405 O   0  0  0  0  0  0  0  0  0  0  0  0
    8.9653  -13.9407   24.4177 N   0  0  0  0  0  0  0  0  0  0  0  0
    7.3204  -14.5149   25.8952 C   0  0  1  0  0  0  0  0  0  0  0  0
    7.1537  -13.1379   26.3428 C   0  0  0  0  0  0  0  0  0  0  0  0
    5.7018  -12.8246   26.6279 S   0  0  0  0  0  0  0  0  0  0  0  0
    5.5278  -11.2232   27.4229 C   0  0  0  0  0  0  0  0  0  0  0  0
    7.8917  -12.9893   27.6224 O   0  0  0  0  0  0  0  0  0  0  0  0
    8.4315  -11.7530   28.0259 O   0  0  0  0  0  0  0  0  0  0  0  0
  2  1  1  0
  3  2  2  0
  4  2  1  0
  5  4  1  0
  6  5  1  0
  7  6  1  0
  8 10  1  0
  8  7  1  0
  8  9  1  1
 10 11  2  0
 10 16  1  0
 13 14  1  1
 13 12  1  0
 15 13  1  0
 15 16  1  1
 17 18  2  0
 17 15  1  0
 19 17  1  0
 20 19  1  0
 20 21  1  1
 21 22  1  0
 23 20  1  0
 24 23  1  0
 25 23  2  0
M  END
$$$$
