RVC.pdb
     RDKit          3D

 25 24  0  0  1  0  0  0  0  0999 V2000
    9.2652  -20.9507   14.2289 N   0  0  0  0  0  0  0  0  0  0  0  0
   10.6673  -20.7171   14.0593 C   0  0  0  0  0  0  0  0  0  0  0  0
   11.4440  -21.7156   13.7988 N   0  0  0  0  0  0  0  0  0  0  0  0
   11.1690  -19.4018   14.1795 N   0  0  0  0  0  0  0  0  0  0  0  0
   10.2467  -18.3544   14.6347 C   0  0  0  0  0  0  0  0  0  0  0  0
    9.8540  -18.5568   16.0532 C   0  0  0  0  0  0  0  0  0  0  0  0
    8.9054  -17.5716   16.6455 C   0  0  0  0  0  0  0  0  0  0  0  0
    8.5540  -17.8247   18.0659 C   0  0  2  0  0  0  0  0  0  0  0  0
    7.1069  -17.8849   18.2218 N   0  0  0  0  0  0  0  0  0  0  0  0
    9.0248  -16.7252   18.9639 C   0  0  0  0  0  0  0  0  0  0  0  0
   10.2441  -16.4590   19.0882 O   0  0  0  0  0  0  0  0  0  0  0  0
   12.4690  -21.5673   13.6832 C   0  0  0  0  0  0  0  0  0  0  0  0
    7.2442  -13.2472   19.3886 C   0  0  1  0  0  0  0  0  0  0  0  0
    7.5801  -13.8043   20.7305 C   0  0  0  0  0  0  0  0  0  0  0  0
    7.9710  -12.7351   21.7264 C   0  0  2  0  0  0  0  0  0  0  0  0
    8.5833  -14.9044   20.6421 N   0  0  0  0  0  0  0  0  0  0  0  0
    8.1138  -15.9150   19.7322 C   0  0  0  0  0  0  0  0  0  0  0  0
    8.7538  -15.5389   21.9793 O   0  0  0  0  0  0  0  0  0  0  0  0
    7.7707  -15.8524   22.7102 N   0  0  0  0  0  0  0  0  0  0  0  0
   10.0458  -15.8276   22.5058 C   0  0  1  0  0  0  0  0  0  0  0  0
   10.2297  -16.4872   23.7924 C   0  0  0  0  0  0  0  0  0  0  0  0
   10.5454  -17.9558   23.6168 S   0  0  0  0  0  0  0  0  0  0  0  0
    9.1852  -18.8214   22.8245 C   0  0  0  0  0  0  0  0  0  0  0  0
   11.4045  -15.8641   24.4524 O   0  0  0  0  0  0  0  0  0  0  0  0
   12.1675  -14.8661   23.8163 O   0  0  0  0  0  0  0  0  0  0  0  0
  2  1  1  0
  3  2  2  0
  4  2  1  0
  5  4  1  0
  6  5  1  0
  7  6  1  0
  8 10  1  0
  8  7  1  0
  8  9  1  6
 10 11  2  0
 10 16  1  0
 13 14  1  6
 13 12  1  0
 15 13  1  0
 15 16  1  6
 17 18  2  0
 17 15  1  0
 19 17  1  0
 20 19  1  0
 20 21  1  1
 21 22  1  0
 23 20  1  0
 24 23  1  0
 25 23  2  0
M  END
$$$$
