MFQ.pdb
     RDKit          3D

 29 29  0  0  1  0  0  0  0  0999 V2000
   26.4844  -16.2550  -16.8179 C   0  0  0  0  0  0  0  0  0  0  0  0
   27.7473  -15.8690  -15.5580 S   0  0  0  0  0  0  0  0  0  0  0  0
   28.5142  -17.4018  -15.0017 C   0  0  0  0  0  0  0  0  0  0  0  0
   27.4491  -18.3588  -14.5193 C   0  0  0  0  0  0  0  0  0  0  0  0
   28.1366  -19.4949  -13.7973 C   0  0  2  0  0  0  0  0  0  0  0  0
   28.9642  -20.1974  -14.7176 N   0  0  0  0  0  0  0  0  0  0  0  0
   27.0968  -20.3080  -13.1634 C   0  0  0  0  0  0  0  0  0  0  0  0
   26.6794  -21.3616  -13.7490 O   0  0  0  0  0  0  0  0  0  0  0  0
   26.5054  -20.0001  -11.9130 N   0  0  0  0  0  0  0  0  0  0  0  0
   25.4583  -20.7005  -11.2644 C   0  0  1  0  0  0  0  0  0  0  0  0
   25.2561  -20.4088   -9.7949 C   0  0  0  0  0  0  0  0  0  0  0  0
   26.5392  -20.4175   -9.0546 C   0  0  0  0  0  0  0  0  0  0  0  0
   26.8791  -19.5674   -8.0486 C   0  0  0  0  0  0  0  0  0  0  0  0
   28.1200  -19.6686   -7.4381 C   0  0  0  0  0  0  0  0  0  0  0  0
   29.0383  -20.6087   -7.8127 C   0  0  0  0  0  0  0  0  0  0  0  0
   28.7050  -21.4718   -8.8268 C   0  0  0  0  0  0  0  0  0  0  0  0
   27.4954  -21.3780   -9.4267 C   0  0  0  0  0  0  0  0  0  0  0  0
   24.1967  -20.7965  -12.0240 C   0  0  0  0  0  0  0  0  0  0  0  0
   23.5408  -19.7757  -12.3846 O   0  0  0  0  0  0  0  0  0  0  0  0
   22.5715  -26.0193  -14.9697 N   0  0  0  0  0  0  0  0  0  0  0  0
   21.4344  -25.2611  -15.2589 C   0  0  0  0  0  0  0  0  0  0  0  0
   20.5077  -25.7204  -15.9584 O   0  0  0  0  0  0  0  0  0  0  0  0
   21.3278  -23.8653  -14.7156 C   0  0  0  0  0  0  0  0  0  0  0  0
   22.5433  -23.5373  -13.8832 C   0  0  0  0  0  0  0  0  0  0  0  0
   22.5084  -22.1380  -13.3320 C   0  0  2  0  0  0  0  0  0  0  0  0
   23.6424  -22.0488  -12.3972 N   0  0  0  0  0  0  0  0  0  0  0  0
   21.2793  -21.8032  -12.6225 C   0  0  0  0  0  0  0  0  0  0  0  0
   20.1927  -21.6001  -13.1991 O   0  0  0  0  0  0  0  0  0  0  0  0
   21.2772  -21.6949  -11.2259 O   0  0  0  0  0  0  0  0  0  0  0  0
  2  1  1  0
  3  2  1  0
  4  3  1  0
  5  4  1  0
  5  6  1  6
  7  5  1  0
  7  8  2  0
  9  7  1  0
 10  9  1  0
 10 11  1  1
 11 12  1  0
 12 13  2  0
 12 17  1  0
 13 14  1  0
 14 15  2  0
 16 15  1  0
 17 16  2  0
 18 10  1  0
 19 18  2  0
 21 20  1  0
 21 22  2  0
 23 24  1  0
 23 21  1  0
 25 24  1  1
 25 27  1  0
 25 26  1  0
 26 18  1  0
 27 29  1  0
 28 27  2  0
M  END
$$$$
