MFQ.pdb
     RDKit          3D

 29 29  0  0  1  0  0  0  0  0999 V2000
   27.8993  -23.9506  -16.6078 C   0  0  0  0  0  0  0  0  0  0  0  0
   28.2560  -22.1805  -16.8743 S   0  0  0  0  0  0  0  0  0  0  0  0
   29.2108  -21.5541  -15.4805 C   0  0  0  0  0  0  0  0  0  0  0  0
   28.6901  -22.1542  -14.1952 C   0  0  0  0  0  0  0  0  0  0  0  0
   28.1671  -21.0275  -13.3339 C   0  0  2  0  0  0  0  0  0  0  0  0
   28.9453  -19.8601  -13.5727 N   0  0  0  0  0  0  0  0  0  0  0  0
   28.1721  -21.4946  -11.9461 C   0  0  0  0  0  0  0  0  0  0  0  0
   27.5433  -22.5616  -11.6404 O   0  0  0  0  0  0  0  0  0  0  0  0
   28.8432  -20.8287  -10.8905 N   0  0  0  0  0  0  0  0  0  0  0  0
   28.3815  -20.6423   -9.5640 C   0  0  1  0  0  0  0  0  0  0  0  0
   29.3899  -20.1297   -8.5610 C   0  0  0  0  0  0  0  0  0  0  0  0
   28.8121  -20.0463   -7.1995 C   0  0  0  0  0  0  0  0  0  0  0  0
   27.9532  -19.0869   -6.7610 C   0  0  0  0  0  0  0  0  0  0  0  0
   27.4883  -19.1100   -5.4548 C   0  0  0  0  0  0  0  0  0  0  0  0
   27.8647  -20.0790   -4.5678 C   0  0  0  0  0  0  0  0  0  0  0  0
   28.7309  -21.0521   -5.0004 C   0  0  0  0  0  0  0  0  0  0  0  0
   29.1884  -21.0349   -6.2741 C   0  0  0  0  0  0  0  0  0  0  0  0
   27.0544  -20.0090   -9.4397 C   0  0  0  0  0  0  0  0  0  0  0  0
   26.8062  -18.8549   -9.8965 O   0  0  0  0  0  0  0  0  0  0  0  0
   23.5614  -21.4682  -12.9232 N   0  0  0  0  0  0  0  0  0  0  0  0
   22.5421  -20.8404  -12.2032 C   0  0  0  0  0  0  0  0  0  0  0  0
   21.4114  -20.6595  -12.7010 O   0  0  0  0  0  0  0  0  0  0  0  0
   22.8155  -20.3749  -10.8021 C   0  0  0  0  0  0  0  0  0  0  0  0
   24.2500  -20.6609  -10.4300 C   0  0  0  0  0  0  0  0  0  0  0  0
   24.5782  -20.2439   -9.0223 C   0  0  2  0  0  0  0  0  0  0  0  0
   25.9714  -20.6632   -8.7963 N   0  0  0  0  0  0  0  0  0  0  0  0
   23.7280  -20.8488   -8.0038 C   0  0  0  0  0  0  0  0  0  0  0  0
   24.1111  -21.7680   -7.2536 O   0  0  0  0  0  0  0  0  0  0  0  0
   22.4114  -20.4043   -7.8278 O   0  0  0  0  0  0  0  0  0  0  0  0
  2  1  1  0
  3  2  1  0
  4  3  1  0
  5  4  1  0
  5  6  1  1
  7  5  1  0
  7  8  2  0
  9  7  1  0
 10  9  1  0
 10 11  1  1
 11 12  1  0
 12 13  2  0
 12 17  1  0
 13 14  1  0
 14 15  2  0
 16 15  1  0
 17 16  2  0
 18 10  1  0
 19 18  2  0
 21 20  1  0
 21 22  2  0
 23 24  1  0
 23 21  1  0
 25 24  1  6
 25 27  1  0
 25 26  1  0
 26 18  1  0
 27 29  1  0
 28 27  2  0
M  END
$$$$
