MFQ.pdb
     RDKit          3D

 29 29  0  0  1  0  0  0  0  0999 V2000
   23.7865  -16.4425  -19.7838 C   0  0  0  0  0  0  0  0  0  0  0  0
   25.3733  -16.0111  -20.5762 S   0  0  0  0  0  0  0  0  0  0  0  0
   26.6521  -17.1362  -19.9881 C   0  0  0  0  0  0  0  0  0  0  0  0
   26.1332  -17.9259  -18.8089 C   0  0  0  0  0  0  0  0  0  0  0  0
   27.2678  -18.7737  -18.2811 C   0  0  2  0  0  0  0  0  0  0  0  0
   27.7300  -19.6302  -19.3195 N   0  0  0  0  0  0  0  0  0  0  0  0
   26.7818  -19.4660  -17.0858 C   0  0  0  0  0  0  0  0  0  0  0  0
   25.9497  -20.4249  -17.2102 O   0  0  0  0  0  0  0  0  0  0  0  0
   27.1803  -19.1385  -15.7660 N   0  0  0  0  0  0  0  0  0  0  0  0
   26.6205  -19.6210  -14.5570 C   0  0  1  0  0  0  0  0  0  0  0  0
   27.4887  -19.5268  -13.3229 C   0  0  0  0  0  0  0  0  0  0  0  0
   26.7588  -19.9567  -12.1076 C   0  0  0  0  0  0  0  0  0  0  0  0
   26.1775  -19.1286  -11.1984 C   0  0  0  0  0  0  0  0  0  0  0  0
   25.5296  -19.6531  -10.0902 C   0  0  0  0  0  0  0  0  0  0  0  0
   25.4479  -20.9988   -9.8672 C   0  0  0  0  0  0  0  0  0  0  0  0
   26.0310  -21.8432  -10.7789 C   0  0  0  0  0  0  0  0  0  0  0  0
   26.6650  -21.3374  -11.8625 C   0  0  0  0  0  0  0  0  0  0  0  0
   25.2141  -19.2437  -14.3169 C   0  0  0  0  0  0  0  0  0  0  0  0
   24.8653  -18.0581  -14.0436 O   0  0  0  0  0  0  0  0  0  0  0  0
   21.0257  -19.5259  -17.6855 N   0  0  0  0  0  0  0  0  0  0  0  0
   21.5199  -20.7927  -17.3655 C   0  0  0  0  0  0  0  0  0  0  0  0
   21.5766  -21.7027  -18.2186 O   0  0  0  0  0  0  0  0  0  0  0  0
   21.9919  -21.0619  -15.9657 C   0  0  0  0  0  0  0  0  0  0  0  0
   21.9565  -19.7914  -15.1518 C   0  0  0  0  0  0  0  0  0  0  0  0
   22.8055  -19.8726  -13.9125 C   0  0  2  0  0  0  0  0  0  0  0  0
   24.1637  -20.1963  -14.3796 N   0  0  0  0  0  0  0  0  0  0  0  0
   22.3765  -20.8870  -12.9569 C   0  0  0  0  0  0  0  0  0  0  0  0
   22.9636  -21.9771  -12.8099 O   0  0  0  0  0  0  0  0  0  0  0  0
   21.2558  -20.6648  -12.1465 O   0  0  0  0  0  0  0  0  0  0  0  0
  2  1  1  0
  3  2  1  0
  4  3  1  0
  5  4  1  0
  5  6  1  6
  7  5  1  0
  7  8  2  0
  9  7  1  0
 10  9  1  0
 10 11  1  1
 11 12  1  0
 12 13  2  0
 12 17  1  0
 13 14  1  0
 14 15  2  0
 16 15  1  0
 17 16  2  0
 18 10  1  0
 19 18  2  0
 21 20  1  0
 21 22  2  0
 23 24  1  0
 23 21  1  0
 25 24  1  6
 25 27  1  0
 25 26  1  0
 26 18  1  0
 27 29  1  0
 28 27  2  0
M  END
$$$$
