MFQ.pdb
     RDKit          3D

 29 29  0  0  1  0  0  0  0  0999 V2000
   31.1074  -21.2018  -20.3544 C   0  0  0  0  0  0  0  0  0  0  0  0
   29.8112  -22.1799  -21.1878 S   0  0  0  0  0  0  0  0  0  0  0  0
   28.7900  -22.9892  -19.9431 C   0  0  0  0  0  0  0  0  0  0  0  0
   28.4752  -22.0162  -18.8308 C   0  0  0  0  0  0  0  0  0  0  0  0
   29.1830  -22.4913  -17.5826 C   0  0  2  0  0  0  0  0  0  0  0  0
   29.6591  -23.8157  -17.7938 N   0  0  0  0  0  0  0  0  0  0  0  0
   28.2492  -22.3463  -16.4641 C   0  0  0  0  0  0  0  0  0  0  0  0
   27.4242  -23.2852  -16.2090 O   0  0  0  0  0  0  0  0  0  0  0  0
   28.1950  -21.2076  -15.6223 N   0  0  0  0  0  0  0  0  0  0  0  0
   27.3441  -21.0055  -14.5076 C   0  0  1  0  0  0  0  0  0  0  0  0
   27.8867  -20.1477  -13.3872 C   0  0  0  0  0  0  0  0  0  0  0  0
   27.0144  -20.1959  -12.1908 C   0  0  0  0  0  0  0  0  0  0  0  0
   26.9837  -21.1993  -11.2729 C   0  0  0  0  0  0  0  0  0  0  0  0
   26.1114  -21.1349  -10.1968 C   0  0  0  0  0  0  0  0  0  0  0  0
   25.2610  -20.0808  -10.0144 C   0  0  0  0  0  0  0  0  0  0  0  0
   25.2844  -19.0628  -10.9349 C   0  0  0  0  0  0  0  0  0  0  0  0
   26.1334  -19.1199  -11.9875 C   0  0  0  0  0  0  0  0  0  0  0  0
   25.9324  -20.7240  -14.8329 C   0  0  0  0  0  0  0  0  0  0  0  0
   25.5930  -19.9049  -15.7363 O   0  0  0  0  0  0  0  0  0  0  0  0
   21.1163  -23.2165  -11.7065 N   0  0  0  0  0  0  0  0  0  0  0  0
   20.4059  -22.5232  -12.6894 C   0  0  0  0  0  0  0  0  0  0  0  0
   19.1587  -22.5599  -12.7373 O   0  0  0  0  0  0  0  0  0  0  0  0
   21.1609  -21.7184  -13.7077 C   0  0  0  0  0  0  0  0  0  0  0  0
   22.6436  -21.7961  -13.4362 C   0  0  0  0  0  0  0  0  0  0  0  0
   23.4601  -21.0543  -14.4590 C   0  0  2  0  0  0  0  0  0  0  0  0
   24.8659  -21.3611  -14.1463 N   0  0  0  0  0  0  0  0  0  0  0  0
   23.2734  -19.6083  -14.4417 C   0  0  0  0  0  0  0  0  0  0  0  0
   23.6889  -18.8780  -13.5206 O   0  0  0  0  0  0  0  0  0  0  0  0
   22.6001  -18.9706  -15.4915 O   0  0  0  0  0  0  0  0  0  0  0  0
  2  1  1  0
  3  2  1  0
  4  3  1  0
  5  4  1  0
  5  6  1  6
  7  5  1  0
  7  8  2  0
  9  7  1  0
 10  9  1  0
 10 11  1  6
 11 12  1  0
 12 13  2  0
 12 17  1  0
 13 14  1  0
 14 15  2  0
 16 15  1  0
 17 16  2  0
 18 10  1  0
 19 18  2  0
 21 20  1  0
 21 22  2  0
 23 24  1  0
 23 21  1  0
 25 24  1  1
 25 27  1  0
 25 26  1  0
 26 18  1  0
 27 29  1  0
 28 27  2  0
M  END
$$$$
