GCA.pdb
     RDKit          3D

 16 15  0  0  1  0  0  0  0  0999 V2000
    8.4195  -13.5592   16.0300 N   0  0  0  0  0  0  0  0  0  0  0  0
    7.4829  -14.0952   17.0010 C   0  0  0  0  0  0  0  0  0  0  0  0
    8.1511  -14.0678   18.3331 C   0  0  0  0  0  0  0  0  0  0  0  0
    9.3981  -13.8274   18.4494 O   0  0  0  0  0  0  0  0  0  0  0  0
    7.4563  -14.3041   19.5494 N   0  0  0  0  0  0  0  0  0  0  0  0
    8.1433  -14.3457   20.8180 C   0  0  1  0  0  0  0  0  0  0  0  0
    7.1179  -14.0604   21.8915 C   0  0  0  0  0  0  0  0  0  0  0  0
    7.8640  -14.3041   23.5221 S   0  0  0  0  0  0  0  0  0  0  0  0
    8.8524  -15.6213   21.0436 C   0  0  0  0  0  0  0  0  0  0  0  0
    8.2359  -16.6879   20.8008 O   0  0  0  0  0  0  0  0  0  0  0  0
   12.3295  -16.7301   21.2896 C   0  0  0  0  0  0  0  0  0  0  0  0
   10.8910  -16.9403   21.7435 C   0  0  2  0  0  0  0  0  0  0  0  0
   10.1809  -15.7082   21.5155 N   0  0  0  0  0  0  0  0  0  0  0  0
   10.8073  -17.4181   23.1240 C   0  0  0  0  0  0  0  0  0  0  0  0
   11.4562  -18.5844   23.4826 O   0  0  0  0  0  0  0  0  0  0  0  0
   10.1643  -16.8070   24.0051 O   0  0  0  0  0  0  0  0  0  0  0  0
  2  1  1  0
  2  3  1  0
  3  4  2  0
  5  3  1  0
  5  6  1  0
  6  7  1  1
  7  8  1  0
  9 13  1  0
  9  6  1  0
 10  9  2  0
 12 11  1  1
 12 14  1  0
 12 13  1  0
 14 15  1  0
 16 14  2  0
M  END
$$$$
