GCA.pdb
     RDKit          3D

 16 15  0  0  1  0  0  0  0  0999 V2000
    4.8929  -19.6188   22.2400 N   0  0  0  0  0  0  0  0  0  0  0  0
    5.1230  -18.8776   23.4667 C   0  0  0  0  0  0  0  0  0  0  0  0
    6.3645  -18.0739   23.2805 C   0  0  0  0  0  0  0  0  0  0  0  0
    7.0922  -18.2012   22.2410 O   0  0  0  0  0  0  0  0  0  0  0  0
    6.8181  -17.1234   24.2337 N   0  0  0  0  0  0  0  0  0  0  0  0
    8.0487  -16.3927   24.0478 C   0  0  1  0  0  0  0  0  0  0  0  0
    7.9105  -15.0861   24.7953 C   0  0  0  0  0  0  0  0  0  0  0  0
    7.0377  -15.3697   26.3550 S   0  0  0  0  0  0  0  0  0  0  0  0
    9.2387  -17.1583   24.4704 C   0  0  0  0  0  0  0  0  0  0  0  0
    9.1367  -17.8914   25.4848 O   0  0  0  0  0  0  0  0  0  0  0  0
   12.5880  -17.8147   22.9173 C   0  0  0  0  0  0  0  0  0  0  0  0
   11.5738  -18.0204   24.0346 C   0  0  2  0  0  0  0  0  0  0  0  0
   10.4809  -17.1122   23.7998 N   0  0  0  0  0  0  0  0  0  0  0  0
   12.1734  -17.8847   25.3625 C   0  0  0  0  0  0  0  0  0  0  0  0
   13.0483  -18.8527   25.8178 O   0  0  0  0  0  0  0  0  0  0  0  0
   11.9240  -16.9162   26.1129 O   0  0  0  0  0  0  0  0  0  0  0  0
  2  1  1  0
  2  3  1  0
  3  4  2  0
  5  3  1  0
  5  6  1  0
  6  7  1  1
  7  8  1  0
  9 13  1  0
  9  6  1  0
 10  9  2  0
 12 11  1  6
 12 14  1  0
 12 13  1  0
 14 15  1  0
 16 14  2  0
M  END
$$$$
