GCA.pdb
     RDKit          3D

 16 15  0  0  1  0  0  0  0  0999 V2000
    7.9030  -15.1696   20.1895 N   0  0  0  0  0  0  0  0  0  0  0  0
    6.9523  -15.0140   21.2753 C   0  0  0  0  0  0  0  0  0  0  0  0
    7.7110  -14.5635   22.4766 C   0  0  0  0  0  0  0  0  0  0  0  0
    8.9861  -14.5478   22.4933 O   0  0  0  0  0  0  0  0  0  0  0  0
    7.0769  -14.1263   23.6701 N   0  0  0  0  0  0  0  0  0  0  0  0
    7.8243  -13.8906   24.8821 C   0  0  1  0  0  0  0  0  0  0  0  0
    6.9822  -12.9927   25.7595 C   0  0  0  0  0  0  0  0  0  0  0  0
    7.8523  -12.6759   27.3143 S   0  0  0  0  0  0  0  0  0  0  0  0
    8.2139  -15.1397   25.5666 C   0  0  0  0  0  0  0  0  0  0  0  0
    7.3052  -15.9497   25.8746 O   0  0  0  0  0  0  0  0  0  0  0  0
   11.2326  -17.1620   25.7564 C   0  0  0  0  0  0  0  0  0  0  0  0
    9.9609  -16.7254   26.4718 C   0  0  2  0  0  0  0  0  0  0  0  0
    9.5471  -15.4730   25.8933 N   0  0  0  0  0  0  0  0  0  0  0  0
   10.1298  -16.6724   27.9243 C   0  0  0  0  0  0  0  0  0  0  0  0
    9.9247  -15.4797   28.5916 O   0  0  0  0  0  0  0  0  0  0  0  0
   10.4565  -17.6747   28.5965 O   0  0  0  0  0  0  0  0  0  0  0  0
  2  1  1  0
  2  3  1  0
  3  4  2  0
  5  3  1  0
  5  6  1  0
  6  7  1  1
  7  8  1  0
  9 13  1  0
  9  6  1  0
 10  9  2  0
 12 11  1  6
 12 14  1  0
 12 13  1  0
 14 15  1  0
 16 14  2  0
M  END
$$$$
