GCA.pdb
     RDKit          3D

 16 15  0  0  1  0  0  0  0  0999 V2000
    7.5238  -14.3035   20.0690 N   0  0  0  0  0  0  0  0  0  0  0  0
    6.5839  -14.1648   21.1665 C   0  0  0  0  0  0  0  0  0  0  0  0
    7.3721  -14.1194   22.4308 C   0  0  0  0  0  0  0  0  0  0  0  0
    8.6226  -14.3691   22.4470 O   0  0  0  0  0  0  0  0  0  0  0  0
    6.7946  -13.7993   23.6886 N   0  0  0  0  0  0  0  0  0  0  0  0
    7.5888  -13.7348   24.8920 C   0  0  1  0  0  0  0  0  0  0  0  0
    6.8263  -12.8892   25.8863 C   0  0  0  0  0  0  0  0  0  0  0  0
    7.7519  -12.7968   27.4386 S   0  0  0  0  0  0  0  0  0  0  0  0
    7.9235  -15.0689   25.4294 C   0  0  0  0  0  0  0  0  0  0  0  0
    6.9766  -15.8442   25.7108 O   0  0  0  0  0  0  0  0  0  0  0  0
   10.6357  -17.4323   25.2965 C   0  0  0  0  0  0  0  0  0  0  0  0
    9.5930  -16.7987   26.2080 C   0  0  2  0  0  0  0  0  0  0  0  0
    9.2447  -15.5201   25.6439 N   0  0  0  0  0  0  0  0  0  0  0  0
   10.0420  -16.7228   27.5986 C   0  0  0  0  0  0  0  0  0  0  0  0
   10.3897  -17.8813   28.2672 O   0  0  0  0  0  0  0  0  0  0  0  0
   10.1254  -15.6388   28.2161 O   0  0  0  0  0  0  0  0  0  0  0  0
  2  1  1  0
  2  3  1  0
  3  4  2  0
  5  3  1  0
  5  6  1  0
  6  7  1  1
  7  8  1  0
  9 13  1  0
  9  6  1  0
 10  9  2  0
 12 11  1  6
 12 14  1  0
 12 13  1  0
 14 15  1  0
 16 14  2  0
M  END
$$$$
