GCA.pdb
     RDKit          3D

 16 15  0  0  1  0  0  0  0  0999 V2000
    7.3325  -18.6766   15.6408 N   0  0  0  0  0  0  0  0  0  0  0  0
    6.5707  -18.0308   16.6943 C   0  0  0  0  0  0  0  0  0  0  0  0
    7.4958  -17.1171   17.4231 C   0  0  0  0  0  0  0  0  0  0  0  0
    8.7615  -17.2109   17.2988 O   0  0  0  0  0  0  0  0  0  0  0  0
    7.0397  -16.0924   18.2948 N   0  0  0  0  0  0  0  0  0  0  0  0
    7.9596  -15.2731   19.0468 C   0  0  1  0  0  0  0  0  0  0  0  0
    7.2505  -13.9750   19.3586 C   0  0  0  0  0  0  0  0  0  0  0  0
    8.4161  -12.8134   20.1114 S   0  0  0  0  0  0  0  0  0  0  0  0
    8.4622  -15.9445   20.2623 C   0  0  0  0  0  0  0  0  0  0  0  0
    7.6196  -16.3662   21.0924 O   0  0  0  0  0  0  0  0  0  0  0  0
   11.1852  -17.9556   21.3042 C   0  0  0  0  0  0  0  0  0  0  0  0
   10.3461  -16.7601   21.7359 C   0  0  2  0  0  0  0  0  0  0  0  0
    9.8330  -16.1380   20.5425 N   0  0  0  0  0  0  0  0  0  0  0  0
   11.0879  -15.8433   22.6020 C   0  0  0  0  0  0  0  0  0  0  0  0
   11.4870  -16.2631   23.8567 O   0  0  0  0  0  0  0  0  0  0  0  0
   11.3799  -14.6797   22.2498 O   0  0  0  0  0  0  0  0  0  0  0  0
  2  1  1  0
  2  3  1  0
  3  4  2  0
  5  3  1  0
  5  6  1  0
  6  7  1  1
  7  8  1  0
  9 13  1  0
  9  6  1  0
 10  9  2  0
 12 11  1  6
 12 14  1  0
 12 13  1  0
 14 15  1  0
 16 14  2  0
M  END
$$$$
