GCA.pdb
     RDKit          3D

 16 15  0  0  1  0  0  0  0  0999 V2000
    7.4628  -14.5876   20.0688 N   0  0  0  0  0  0  0  0  0  0  0  0
    6.5469  -14.2099   21.1298 C   0  0  0  0  0  0  0  0  0  0  0  0
    7.3325  -14.1266   22.3937 C   0  0  0  0  0  0  0  0  0  0  0  0
    8.5801  -14.3895   22.4227 O   0  0  0  0  0  0  0  0  0  0  0  0
    6.7556  -13.7540   23.6373 N   0  0  0  0  0  0  0  0  0  0  0  0
    7.5484  -13.6495   24.8387 C   0  0  1  0  0  0  0  0  0  0  0  0
    6.7797  -12.7805   25.8077 C   0  0  0  0  0  0  0  0  0  0  0  0
    7.6996  -12.6437   27.3601 S   0  0  0  0  0  0  0  0  0  0  0  0
    7.8913  -14.9654   25.4148 C   0  0  0  0  0  0  0  0  0  0  0  0
    6.9504  -15.7491   25.6925 O   0  0  0  0  0  0  0  0  0  0  0  0
   10.6085  -17.2893   25.2693 C   0  0  0  0  0  0  0  0  0  0  0  0
    9.5728  -16.6787   26.2041 C   0  0  2  0  0  0  0  0  0  0  0  0
    9.2140  -15.3901   25.6700 N   0  0  0  0  0  0  0  0  0  0  0  0
   10.0355  -16.6297   27.5914 C   0  0  0  0  0  0  0  0  0  0  0  0
   10.4238  -17.7963   28.2224 O   0  0  0  0  0  0  0  0  0  0  0  0
   10.0950  -15.5618   28.2390 O   0  0  0  0  0  0  0  0  0  0  0  0
  2  1  1  0
  2  3  1  0
  3  4  2  0
  5  3  1  0
  5  6  1  0
  6  7  1  1
  7  8  1  0
  9 13  1  0
  9  6  1  0
 10  9  2  0
 12 11  1  6
 12 14  1  0
 12 13  1  0
 14 15  1  0
 16 14  2  0
M  END
$$$$
