GCA.pdb
     RDKit          3D

 16 15  0  0  1  0  0  0  0  0999 V2000
    4.8697  -19.6882   21.7454 N   0  0  0  0  0  0  0  0  0  0  0  0
    5.3498  -19.5045   23.1030 C   0  0  0  0  0  0  0  0  0  0  0  0
    6.2703  -18.3322   23.0998 C   0  0  0  0  0  0  0  0  0  0  0  0
    6.7952  -17.8988   22.0213 O   0  0  0  0  0  0  0  0  0  0  0  0
    6.6229  -17.6251   24.2804 N   0  0  0  0  0  0  0  0  0  0  0  0
    7.5703  -16.5367   24.2567 C   0  0  1  0  0  0  0  0  0  0  0  0
    7.2916  -15.6746   25.4667 C   0  0  0  0  0  0  0  0  0  0  0  0
    8.4686  -14.3008   25.5160 S   0  0  0  0  0  0  0  0  0  0  0  0
    8.9721  -16.9986   24.2071 C   0  0  0  0  0  0  0  0  0  0  0  0
    9.3253  -17.8938   25.0137 O   0  0  0  0  0  0  0  0  0  0  0  0
   11.8900  -16.3635   21.9379 C   0  0  0  0  0  0  0  0  0  0  0  0
   11.2901  -16.9668   23.2011 C   0  0  2  0  0  0  0  0  0  0  0  0
    9.9345  -16.4916   23.3061 N   0  0  0  0  0  0  0  0  0  0  0  0
   12.1006  -16.6924   24.3881 C   0  0  0  0  0  0  0  0  0  0  0  0
   11.5517  -15.9836   25.4398 O   0  0  0  0  0  0  0  0  0  0  0  0
   13.2855  -17.0776   24.4922 O   0  0  0  0  0  0  0  0  0  0  0  0
  2  1  1  0
  2  3  1  0
  3  4  2  0
  5  3  1  0
  5  6  1  0
  6  7  1  1
  7  8  1  0
  9 13  1  0
  9  6  1  0
 10  9  2  0
 12 11  1  6
 12 14  1  0
 12 13  1  0
 14 15  1  0
 16 14  2  0
M  END
$$$$
