GCA.pdb
     RDKit          3D

 16 15  0  0  1  0  0  0  0  0999 V2000
    7.3909  -14.4624   20.0829 N   0  0  0  0  0  0  0  0  0  0  0  0
    6.4850  -14.2856   21.2033 C   0  0  0  0  0  0  0  0  0  0  0  0
    7.3135  -14.1532   22.4352 C   0  0  0  0  0  0  0  0  0  0  0  0
    8.5744  -14.3433   22.4151 O   0  0  0  0  0  0  0  0  0  0  0  0
    6.7653  -13.8111   23.7003 N   0  0  0  0  0  0  0  0  0  0  0  0
    7.5896  -13.7116   24.8808 C   0  0  1  0  0  0  0  0  0  0  0  0
    6.8515  -12.8380   25.8694 C   0  0  0  0  0  0  0  0  0  0  0  0
    7.8114  -12.7083   27.3980 S   0  0  0  0  0  0  0  0  0  0  0  0
    7.9394  -15.0295   25.4478 C   0  0  0  0  0  0  0  0  0  0  0  0
    7.0015  -15.8101   25.7439 O   0  0  0  0  0  0  0  0  0  0  0  0
   10.7255  -17.3258   25.3617 C   0  0  0  0  0  0  0  0  0  0  0  0
    9.6291  -16.7344   26.2378 C   0  0  2  0  0  0  0  0  0  0  0  0
    9.2655  -15.4595   25.6748 N   0  0  0  0  0  0  0  0  0  0  0  0
   10.0200  -16.6629   27.6461 C   0  0  0  0  0  0  0  0  0  0  0  0
   10.3912  -17.8167   28.3102 O   0  0  0  0  0  0  0  0  0  0  0  0
   10.0324  -15.5870   28.2827 O   0  0  0  0  0  0  0  0  0  0  0  0
  2  1  1  0
  2  3  1  0
  3  4  2  0
  5  3  1  0
  5  6  1  0
  6  7  1  1
  7  8  1  0
  9 13  1  0
  9  6  1  0
 10  9  2  0
 12 11  1  6
 12 14  1  0
 12 13  1  0
 14 15  1  0
 16 14  2  0
M  END
$$$$
