GCA.pdb
     RDKit          3D

 16 15  0  0  1  0  0  0  0  0999 V2000
    5.9131  -19.9574   16.9831 N   0  0  0  0  0  0  0  0  0  0  0  0
    6.2491  -20.1782   18.3779 C   0  0  0  0  0  0  0  0  0  0  0  0
    5.9696  -18.9125   19.1138 C   0  0  0  0  0  0  0  0  0  0  0  0
    6.0734  -17.7745   18.5476 O   0  0  0  0  0  0  0  0  0  0  0  0
    5.5736  -18.8848   20.4778 N   0  0  0  0  0  0  0  0  0  0  0  0
    5.3033  -17.6434   21.1626 C   0  0  1  0  0  0  0  0  0  0  0  0
    4.4626  -17.9749   22.3744 C   0  0  0  0  0  0  0  0  0  0  0  0
    2.9162  -18.7515   21.8451 S   0  0  0  0  0  0  0  0  0  0  0  0
    6.5324  -16.9053   21.5166 C   0  0  0  0  0  0  0  0  0  0  0  0
    7.5560  -17.5723   21.8068 O   0  0  0  0  0  0  0  0  0  0  0  0
    7.5170  -13.2805   21.5238 C   0  0  0  0  0  0  0  0  0  0  0  0
    7.8425  -14.7545   21.7256 C   0  0  2  0  0  0  0  0  0  0  0  0
    6.6207  -15.4959   21.5469 N   0  0  0  0  0  0  0  0  0  0  0  0
    8.4999  -15.0088   23.0079 C   0  0  0  0  0  0  0  0  0  0  0  0
    7.7931  -15.6169   24.0279 O   0  0  0  0  0  0  0  0  0  0  0  0
    9.6909  -14.6947   23.2225 O   0  0  0  0  0  0  0  0  0  0  0  0
  2  1  1  0
  2  3  1  0
  3  4  2  0
  5  3  1  0
  5  6  1  0
  6  7  1  1
  7  8  1  0
  9 13  1  0
  9  6  1  0
 10  9  2  0
 12 11  1  1
 12 14  1  0
 12 13  1  0
 14 15  1  0
 16 14  2  0
M  END
$$$$
