GCA.pdb
     RDKit          3D

 16 15  0  0  1  0  0  0  0  0999 V2000
    8.4413  -16.0961   20.7169 N   0  0  0  0  0  0  0  0  0  0  0  0
    7.4659  -15.9884   21.7866 C   0  0  0  0  0  0  0  0  0  0  0  0
    8.0119  -15.0412   22.7996 C   0  0  0  0  0  0  0  0  0  0  0  0
    9.1802  -14.5427   22.6857 O   0  0  0  0  0  0  0  0  0  0  0  0
    7.2804  -14.6327   23.9468 N   0  0  0  0  0  0  0  0  0  0  0  0
    7.8690  -13.7896   24.9595 C   0  0  1  0  0  0  0  0  0  0  0  0
    6.7430  -13.0178   25.6089 C   0  0  0  0  0  0  0  0  0  0  0  0
    5.7104  -14.1486   26.5732 S   0  0  0  0  0  0  0  0  0  0  0  0
    8.6694  -14.5481   25.9418 C   0  0  0  0  0  0  0  0  0  0  0  0
    8.5489  -15.7979   25.9592 O   0  0  0  0  0  0  0  0  0  0  0  0
   10.8145  -13.6668   28.8743 C   0  0  0  0  0  0  0  0  0  0  0  0
   10.3506  -14.6680   27.8247 C   0  0  2  0  0  0  0  0  0  0  0  0
    9.5600  -13.9483   26.8596 N   0  0  0  0  0  0  0  0  0  0  0  0
    9.6553  -15.8119   28.4156 C   0  0  0  0  0  0  0  0  0  0  0  0
   10.3887  -16.8426   28.9721 O   0  0  0  0  0  0  0  0  0  0  0  0
    8.4081  -15.8972   28.4386 O   0  0  0  0  0  0  0  0  0  0  0  0
  2  1  1  0
  2  3  1  0
  3  4  2  0
  5  3  1  0
  5  6  1  0
  6  7  1  1
  7  8  1  0
  9 13  1  0
  9  6  1  0
 10  9  2  0
 12 11  1  1
 12 14  1  0
 12 13  1  0
 14 15  1  0
 16 14  2  0
M  END
$$$$
