LYF.pdb
     RDKit          3D

 32 33  0  0  1  0  0  0  0  0999 V2000
    9.2175  -13.7435   18.9967 C   0  0  0  0  0  0  0  0  0  0  0  0
    7.7096  -13.8377   18.8341 C   0  0  2  0  0  0  0  0  0  0  0  0
    7.0753  -12.4992   18.6812 C   0  0  0  0  0  0  0  0  0  0  0  0
    7.1597  -14.5632   20.0164 C   0  0  0  0  0  0  0  0  0  0  0  0
    8.1578  -15.5435   20.5465 C   0  0  2  0  0  0  0  0  0  0  0  0
    8.5175  -16.5984   19.6510 N   0  0  0  0  0  0  0  0  0  0  0  0
    7.8526  -16.0172   21.9021 C   0  0  0  0  0  0  0  0  0  0  0  0
    7.3209  -15.2917   22.7881 O   0  0  0  0  0  0  0  0  0  0  0  0
    3.2018  -21.3119   21.1528 O   0  0  0  0  0  0  0  0  0  0  0  0
    4.3702  -20.8335   21.7549 C   0  0  0  0  0  0  0  0  0  0  0  0
    4.4597  -20.6520   23.1066 C   0  0  0  0  0  0  0  0  0  0  0  0
    5.6354  -20.1750   23.6747 C   0  0  0  0  0  0  0  0  0  0  0  0
    6.7554  -19.8642   22.9356 C   0  0  0  0  0  0  0  0  0  0  0  0
    8.0095  -19.3413   23.5348 C   0  0  0  0  0  0  0  0  0  0  0  0
    7.8945  -17.7983   23.6482 C   0  0  2  0  0  0  0  0  0  0  0  0
    8.1581  -17.3556   22.2750 N   0  0  0  0  0  0  0  0  0  0  0  0
    8.9989  -17.4135   24.5465 C   0  0  0  0  0  0  0  0  0  0  0  0
   10.1586  -17.7431   24.1908 O   0  0  0  0  0  0  0  0  0  0  0  0
    6.6504  -20.0568   21.5491 C   0  0  0  0  0  0  0  0  0  0  0  0
    5.4830  -20.5291   20.9850 C   0  0  0  0  0  0  0  0  0  0  0  0
    8.8345  -16.6984   25.7652 N   0  0  0  0  0  0  0  0  0  0  0  0
    9.9614  -16.2782   26.5784 C   0  0  1  0  0  0  0  0  0  0  0  0
   10.1147  -14.7832   26.4226 C   0  0  0  0  0  0  0  0  0  0  0  0
    8.9087  -14.1236   26.9538 C   0  0  0  0  0  0  0  0  0  0  0  0
    7.8318  -13.9385   26.1083 C   0  0  0  0  0  0  0  0  0  0  0  0
    6.6895  -13.3388   26.5689 C   0  0  0  0  0  0  0  0  0  0  0  0
    6.6672  -12.9345   27.9001 C   0  0  0  0  0  0  0  0  0  0  0  0
    7.7238  -13.1116   28.7427 C   0  0  0  0  0  0  0  0  0  0  0  0
    8.8759  -13.7220   28.2620 C   0  0  0  0  0  0  0  0  0  0  0  0
    9.9784  -16.8002   27.9281 C   0  0  0  0  0  0  0  0  0  0  0  0
    9.0351  -17.4301   28.4648 O   0  0  0  0  0  0  0  0  0  0  0  0
   11.1012  -16.6245   28.7596 O   0  0  0  0  0  0  0  0  0  0  0  0
  2  1  1  1
  2  3  1  0
  4  2  1  0
  5  4  1  0
  5  6  1  6
  7  8  2  0
  7  5  1  0
  9 10  1  0
 10 20  2  0
 11 12  2  0
 11 10  1  0
 12 13  1  0
 13 19  2  0
 13 14  1  0
 15 14  1  6
 15 16  1  0
 16  7  1  0
 17 15  1  0
 18 17  2  0
 20 19  1  0
 21 17  1  0
 22 21  1  0
 22 23  1  1
 23 24  1  0
 24 29  2  0
 25 26  2  0
 25 24  1  0
 26 27  1  0
 27 28  2  0
 29 28  1  0
 30 32  1  0
 30 22  1  0
 31 30  2  0
M  END
$$$$
