LYF.pdb
     RDKit          3D

 32 33  0  0  1  0  0  0  0  0999 V2000
    8.5896  -12.9929   18.8740 C   0  0  0  0  0  0  0  0  0  0  0  0
    7.2715  -13.5890   19.3391 C   0  0  2  0  0  0  0  0  0  0  0  0
    6.3385  -12.5528   19.8616 C   0  0  0  0  0  0  0  0  0  0  0  0
    7.5684  -14.6196   20.3765 C   0  0  0  0  0  0  0  0  0  0  0  0
    8.4924  -15.6642   19.8348 C   0  0  2  0  0  0  0  0  0  0  0  0
    7.9197  -16.5490   18.8686 N   0  0  0  0  0  0  0  0  0  0  0  0
    9.2611  -16.3629   20.8720 C   0  0  0  0  0  0  0  0  0  0  0  0
    9.1334  -17.5942   21.1205 O   0  0  0  0  0  0  0  0  0  0  0  0
   14.9674  -14.7985   18.0177 O   0  0  0  0  0  0  0  0  0  0  0  0
   14.2693  -14.9363   19.2220 C   0  0  0  0  0  0  0  0  0  0  0  0
   13.3962  -13.9804   19.6600 C   0  0  0  0  0  0  0  0  0  0  0  0
   12.7173  -14.1471   20.8616 C   0  0  0  0  0  0  0  0  0  0  0  0
   12.8736  -15.2542   21.6661 C   0  0  0  0  0  0  0  0  0  0  0  0
   12.1619  -15.4319   22.9573 C   0  0  0  0  0  0  0  0  0  0  0  0
   10.9361  -16.3529   22.7206 C   0  0  2  0  0  0  0  0  0  0  0  0
   10.2072  -15.6500   21.6597 N   0  0  0  0  0  0  0  0  0  0  0  0
   10.1907  -16.3049   23.9922 C   0  0  0  0  0  0  0  0  0  0  0  0
   10.6973  -15.6243   24.9197 O   0  0  0  0  0  0  0  0  0  0  0  0
   13.7719  -16.2288   21.2036 C   0  0  0  0  0  0  0  0  0  0  0  0
   14.4467  -16.0628   20.0115 C   0  0  0  0  0  0  0  0  0  0  0  0
    8.9520  -16.9644   24.2256 N   0  0  0  0  0  0  0  0  0  0  0  0
    8.3176  -16.9881   25.5313 C   0  0  1  0  0  0  0  0  0  0  0  0
    6.9619  -16.3339   25.4008 C   0  0  0  0  0  0  0  0  0  0  0  0
    7.1053  -14.8887   25.6504 C   0  0  0  0  0  0  0  0  0  0  0  0
    7.3420  -14.0541   24.5751 C   0  0  0  0  0  0  0  0  0  0  0  0
    7.4703  -12.7036   24.7664 C   0  0  0  0  0  0  0  0  0  0  0  0
    7.3530  -12.2243   26.0674 C   0  0  0  0  0  0  0  0  0  0  0  0
    7.1201  -13.0386   27.1354 C   0  0  0  0  0  0  0  0  0  0  0  0
    6.9915  -14.4063   26.9264 C   0  0  0  0  0  0  0  0  0  0  0  0
    8.3662  -18.2605   26.2190 C   0  0  0  0  0  0  0  0  0  0  0  0
    7.8728  -18.4823   27.3513 O   0  0  0  0  0  0  0  0  0  0  0  0
    8.9987  -19.3759   25.6371 O   0  0  0  0  0  0  0  0  0  0  0  0
  2  1  1  1
  2  3  1  0
  4  2  1  0
  5  4  1  0
  5  6  1  1
  7  8  2  0
  7  5  1  0
  9 10  1  0
 10 20  2  0
 11 12  2  0
 11 10  1  0
 12 13  1  0
 13 19  2  0
 13 14  1  0
 15 14  1  1
 15 16  1  0
 16  7  1  0
 17 15  1  0
 18 17  2  0
 20 19  1  0
 21 17  1  0
 22 21  1  0
 22 23  1  6
 23 24  1  0
 24 29  2  0
 25 26  2  0
 25 24  1  0
 26 27  1  0
 27 28  2  0
 29 28  1  0
 30 32  1  0
 30 22  1  0
 31 30  2  0
M  END
$$$$
