LYF.pdb
     RDKit          3D

 32 33  0  0  1  0  0  0  0  0999 V2000
    9.2589  -12.5331   19.4168 C   0  0  0  0  0  0  0  0  0  0  0  0
    8.0010  -13.1923   18.8765 C   0  0  2  0  0  0  0  0  0  0  0  0
    7.0259  -12.1976   18.3502 C   0  0  0  0  0  0  0  0  0  0  0  0
    7.3995  -14.0107   19.9697 C   0  0  0  0  0  0  0  0  0  0  0  0
    8.4464  -14.8344   20.6508 C   0  0  2  0  0  0  0  0  0  0  0  0
    9.2292  -15.6659   19.7906 N   0  0  0  0  0  0  0  0  0  0  0  0
    7.9566  -15.5375   21.8428 C   0  0  0  0  0  0  0  0  0  0  0  0
    7.1227  -15.0394   22.6495 O   0  0  0  0  0  0  0  0  0  0  0  0
    6.3885  -22.2182   27.3625 O   0  0  0  0  0  0  0  0  0  0  0  0
    6.9293  -21.4266   26.3438 C   0  0  0  0  0  0  0  0  0  0  0  0
    8.2710  -21.1798   26.2611 C   0  0  0  0  0  0  0  0  0  0  0  0
    8.7776  -20.3889   25.2361 C   0  0  0  0  0  0  0  0  0  0  0  0
    7.9850  -19.8195   24.2641 C   0  0  0  0  0  0  0  0  0  0  0  0
    8.5182  -18.9626   23.1748 C   0  0  0  0  0  0  0  0  0  0  0  0
    7.9183  -17.5403   23.3295 C   0  0  2  0  0  0  0  0  0  0  0  0
    8.4232  -16.8483   22.1390 N   0  0  0  0  0  0  0  0  0  0  0  0
    8.5464  -17.0086   24.5534 C   0  0  0  0  0  0  0  0  0  0  0  0
    9.7637  -16.7044   24.4782 O   0  0  0  0  0  0  0  0  0  0  0  0
    6.6094  -20.0824   24.3600 C   0  0  0  0  0  0  0  0  0  0  0  0
    6.1064  -20.8664   25.3780 C   0  0  0  0  0  0  0  0  0  0  0  0
    7.8681  -16.8161   25.7889 N   0  0  0  0  0  0  0  0  0  0  0  0
    8.5215  -16.2482   26.9544 C   0  0  1  0  0  0  0  0  0  0  0  0
    7.4618  -15.5881   27.8053 C   0  0  0  0  0  0  0  0  0  0  0  0
    7.1449  -14.2684   27.2315 C   0  0  0  0  0  0  0  0  0  0  0  0
    8.1781  -13.3754   27.0217 C   0  0  0  0  0  0  0  0  0  0  0  0
    7.9239  -12.1429   26.4801 C   0  0  0  0  0  0  0  0  0  0  0  0
    6.6042  -11.8414   26.1585 C   0  0  0  0  0  0  0  0  0  0  0  0
    5.5774  -12.7145   26.3616 C   0  0  0  0  0  0  0  0  0  0  0  0
    5.8499  -13.9613   26.9112 C   0  0  0  0  0  0  0  0  0  0  0  0
    9.4503  -17.1272   27.6319 C   0  0  0  0  0  0  0  0  0  0  0  0
   10.2564  -16.7677   28.5239 O   0  0  0  0  0  0  0  0  0  0  0  0
    9.5118  -18.4985   27.3179 O   0  0  0  0  0  0  0  0  0  0  0  0
  2  1  1  1
  2  3  1  0
  4  2  1  0
  5  4  1  0
  5  6  1  6
  7  8  2  0
  7  5  1  0
  9 10  1  0
 10 20  2  0
 11 12  2  0
 11 10  1  0
 12 13  1  0
 13 19  2  0
 13 14  1  0
 15 14  1  6
 15 16  1  0
 16  7  1  0
 17 15  1  0
 18 17  2  0
 20 19  1  0
 21 17  1  0
 22 21  1  0
 22 23  1  1
 23 24  1  0
 24 29  2  0
 25 26  2  0
 25 24  1  0
 26 27  1  0
 27 28  2  0
 29 28  1  0
 30 32  1  0
 30 22  1  0
 31 30  2  0
M  END
$$$$
