LYF.pdb
     RDKit          3D

 32 33  0  0  1  0  0  0  0  0999 V2000
    9.7569  -13.4086   18.0609 C   0  0  0  0  0  0  0  0  0  0  0  0
    8.2526  -13.5006   18.2545 C   0  0  2  0  0  0  0  0  0  0  0  0
    7.6331  -12.1674   18.4917 C   0  0  0  0  0  0  0  0  0  0  0  0
    7.9868  -14.4287   19.3922 C   0  0  0  0  0  0  0  0  0  0  0  0
    8.6153  -15.7635   19.1437 C   0  0  2  0  0  0  0  0  0  0  0  0
    8.0418  -16.5229   18.0767 N   0  0  0  0  0  0  0  0  0  0  0  0
    8.8232  -16.5510   20.3650 C   0  0  0  0  0  0  0  0  0  0  0  0
    7.8804  -17.0661   21.0283 O   0  0  0  0  0  0  0  0  0  0  0  0
   13.1532  -20.6586   26.8929 O   0  0  0  0  0  0  0  0  0  0  0  0
   12.8174  -19.9177   25.7549 C   0  0  0  0  0  0  0  0  0  0  0  0
   11.5741  -19.3737   25.5925 C   0  0  0  0  0  0  0  0  0  0  0  0
   11.2716  -18.6421   24.4498 C   0  0  0  0  0  0  0  0  0  0  0  0
   12.1778  -18.4223   23.4360 C   0  0  0  0  0  0  0  0  0  0  0  0
   11.8567  -17.6536   22.2067 C   0  0  0  0  0  0  0  0  0  0  0  0
   10.3233  -17.4231   22.1572 C   0  0  2  0  0  0  0  0  0  0  0  0
   10.1398  -16.7657   20.8591 N   0  0  0  0  0  0  0  0  0  0  0  0
   10.0576  -16.4857   23.2642 C   0  0  0  0  0  0  0  0  0  0  0  0
   10.7465  -15.4347   23.2933 O   0  0  0  0  0  0  0  0  0  0  0  0
   13.4511  -18.9851   23.6164 C   0  0  0  0  0  0  0  0  0  0  0  0
   13.7511  -19.7122   24.7501 C   0  0  0  0  0  0  0  0  0  0  0  0
    9.0814  -16.6920   24.2783 N   0  0  0  0  0  0  0  0  0  0  0  0
    8.7630  -15.6793   25.2686 C   0  0  1  0  0  0  0  0  0  0  0  0
    7.7513  -14.7365   24.6599 C   0  0  0  0  0  0  0  0  0  0  0  0
    7.4056  -13.7041   25.6530 C   0  0  0  0  0  0  0  0  0  0  0  0
    6.1379  -13.7158   26.2022 C   0  0  0  0  0  0  0  0  0  0  0  0
    5.7833  -12.7786   27.1364 C   0  0  0  0  0  0  0  0  0  0  0  0
    6.7408  -11.8357   27.4972 C   0  0  0  0  0  0  0  0  0  0  0  0
    7.9940  -11.8147   26.9614 C   0  0  0  0  0  0  0  0  0  0  0  0
    8.3401  -12.7718   26.0154 C   0  0  0  0  0  0  0  0  0  0  0  0
    8.4739  -16.1811   26.5949 C   0  0  0  0  0  0  0  0  0  0  0  0
    8.6218  -15.5279   27.6562 O   0  0  0  0  0  0  0  0  0  0  0  0
    7.9903  -17.4897   26.7859 O   0  0  0  0  0  0  0  0  0  0  0  0
  2  1  1  1
  2  3  1  0
  4  2  1  0
  5  4  1  0
  5  6  1  6
  7  8  2  0
  7  5  1  0
  9 10  1  0
 10 20  2  0
 11 12  2  0
 11 10  1  0
 12 13  1  0
 13 19  2  0
 13 14  1  0
 15 14  1  1
 15 16  1  0
 16  7  1  0
 17 15  1  0
 18 17  2  0
 20 19  1  0
 21 17  1  0
 22 21  1  0
 22 23  1  6
 23 24  1  0
 24 29  2  0
 25 26  2  0
 25 24  1  0
 26 27  1  0
 27 28  2  0
 29 28  1  0
 30 32  1  0
 30 22  1  0
 31 30  2  0
M  END
$$$$
