LYF.pdb
     RDKit          3D

 32 33  0  0  1  0  0  0  0  0999 V2000
    8.1782  -12.6273   18.8576 C   0  0  0  0  0  0  0  0  0  0  0  0
    7.0876  -13.5804   19.3173 C   0  0  2  0  0  0  0  0  0  0  0  0
    5.9060  -12.8603   19.8673 C   0  0  0  0  0  0  0  0  0  0  0  0
    7.6755  -14.5046   20.3305 C   0  0  0  0  0  0  0  0  0  0  0  0
    8.7877  -15.3067   19.7322 C   0  0  2  0  0  0  0  0  0  0  0  0
    8.4485  -16.0442   18.5553 N   0  0  0  0  0  0  0  0  0  0  0  0
    9.5332  -16.1017   20.7158 C   0  0  0  0  0  0  0  0  0  0  0  0
    9.4595  -17.3598   20.7916 O   0  0  0  0  0  0  0  0  0  0  0  0
   15.1498  -15.4497   17.7840 O   0  0  0  0  0  0  0  0  0  0  0  0
   14.4950  -15.4777   19.0197 C   0  0  0  0  0  0  0  0  0  0  0  0
   14.5043  -16.5906   19.8130 C   0  0  0  0  0  0  0  0  0  0  0  0
   13.8439  -16.5865   21.0363 C   0  0  0  0  0  0  0  0  0  0  0  0
   13.1579  -15.4929   21.5166 C   0  0  0  0  0  0  0  0  0  0  0  0
   12.4389  -15.4867   22.8159 C   0  0  0  0  0  0  0  0  0  0  0  0
   11.1068  -16.2632   22.6447 C   0  0  2  0  0  0  0  0  0  0  0  0
   10.3919  -15.4575   21.6493 N   0  0  0  0  0  0  0  0  0  0  0  0
   10.4553  -16.1688   23.9644 C   0  0  0  0  0  0  0  0  0  0  0  0
   11.0320  -15.4640   24.8309 O   0  0  0  0  0  0  0  0  0  0  0  0
   13.1578  -14.3563   20.6928 C   0  0  0  0  0  0  0  0  0  0  0  0
   13.8122  -14.3607   19.4780 C   0  0  0  0  0  0  0  0  0  0  0  0
    9.2324  -16.8096   24.3071 N   0  0  0  0  0  0  0  0  0  0  0  0
    8.7197  -16.8313   25.6652 C   0  0  1  0  0  0  0  0  0  0  0  0
    7.3338  -16.2297   25.6481 C   0  0  0  0  0  0  0  0  0  0  0  0
    7.4511  -14.7628   25.7240 C   0  0  0  0  0  0  0  0  0  0  0  0
    8.1656  -14.2117   26.7702 C   0  0  0  0  0  0  0  0  0  0  0  0
    8.3055  -12.8524   26.8683 C   0  0  0  0  0  0  0  0  0  0  0  0
    7.7065  -12.0715   25.8847 C   0  0  0  0  0  0  0  0  0  0  0  0
    6.9991  -12.6046   24.8487 C   0  0  0  0  0  0  0  0  0  0  0  0
    6.8658  -13.9850   24.7615 C   0  0  0  0  0  0  0  0  0  0  0  0
    8.8787  -18.0874   26.3660 C   0  0  0  0  0  0  0  0  0  0  0  0
    9.3375  -19.1388   25.8571 O   0  0  0  0  0  0  0  0  0  0  0  0
    8.5109  -18.2147   27.7193 O   0  0  0  0  0  0  0  0  0  0  0  0
  2  1  1  1
  2  3  1  0
  4  2  1  0
  5  4  1  0
  5  6  1  6
  7  8  2  0
  7  5  1  0
  9 10  1  0
 10 20  2  0
 11 12  2  0
 11 10  1  0
 12 13  1  0
 13 19  2  0
 13 14  1  0
 15 14  1  1
 15 16  1  0
 16  7  1  0
 17 15  1  0
 18 17  2  0
 20 19  1  0
 21 17  1  0
 22 21  1  0
 22 23  1  6
 23 24  1  0
 24 29  2  0
 25 26  2  0
 25 24  1  0
 26 27  1  0
 27 28  2  0
 29 28  1  0
 30 32  1  0
 30 22  1  0
 31 30  2  0
M  END
$$$$
