LYF.pdb
     RDKit          3D

 32 33  0  0  1  0  0  0  0  0999 V2000
    9.3175  -13.2641   19.7625 C   0  0  0  0  0  0  0  0  0  0  0  0
    8.0914  -13.9710   19.2094 C   0  0  2  0  0  0  0  0  0  0  0  0
    7.2632  -13.0757   18.3550 C   0  0  0  0  0  0  0  0  0  0  0  0
    7.3021  -14.5001   20.3599 C   0  0  0  0  0  0  0  0  0  0  0  0
    8.1928  -15.2090   21.3307 C   0  0  2  0  0  0  0  0  0  0  0  0
    8.9661  -16.2806   20.7849 N   0  0  0  0  0  0  0  0  0  0  0  0
    7.5254  -15.5627   22.5895 C   0  0  0  0  0  0  0  0  0  0  0  0
    6.6447  -14.8412   23.1354 O   0  0  0  0  0  0  0  0  0  0  0  0
    8.2955  -20.9159   19.4934 O   0  0  0  0  0  0  0  0  0  0  0  0
    8.1251  -20.3525   20.7623 C   0  0  0  0  0  0  0  0  0  0  0  0
    9.1902  -20.0554   21.5656 C   0  0  0  0  0  0  0  0  0  0  0  0
    8.9877  -19.4956   22.8219 C   0  0  0  0  0  0  0  0  0  0  0  0
    7.7376  -19.2104   23.3252 C   0  0  0  0  0  0  0  0  0  0  0  0
    7.5138  -18.6254   24.6716 C   0  0  0  0  0  0  0  0  0  0  0  0
    7.1692  -17.1222   24.5037 C   0  0  2  0  0  0  0  0  0  0  0  0
    7.8621  -16.7716   23.2595 N   0  0  0  0  0  0  0  0  0  0  0  0
    7.8054  -16.4686   25.6626 C   0  0  0  0  0  0  0  0  0  0  0  0
    7.4252  -15.3014   25.9330 O   0  0  0  0  0  0  0  0  0  0  0  0
    6.6528  -19.5190   22.4893 C   0  0  0  0  0  0  0  0  0  0  0  0
    6.8538  -20.0758   21.2428 C   0  0  0  0  0  0  0  0  0  0  0  0
    8.7996  -17.0714   26.4822 N   0  0  0  0  0  0  0  0  0  0  0  0
    9.5817  -16.3123   27.4413 C   0  0  1  0  0  0  0  0  0  0  0  0
    8.6211  -15.6256   28.3840 C   0  0  0  0  0  0  0  0  0  0  0  0
    8.0555  -14.4441   27.7091 C   0  0  0  0  0  0  0  0  0  0  0  0
    6.7778  -14.5297   27.1904 C   0  0  0  0  0  0  0  0  0  0  0  0
    6.2142  -13.4487   26.5654 C   0  0  0  0  0  0  0  0  0  0  0  0
    6.9742  -12.2862   26.4808 C   0  0  0  0  0  0  0  0  0  0  0  0
    8.2356  -12.1909   26.9886 C   0  0  0  0  0  0  0  0  0  0  0  0
    8.7944  -13.2952   27.6204 C   0  0  0  0  0  0  0  0  0  0  0  0
   10.6876  -17.0274   28.0412 C   0  0  0  0  0  0  0  0  0  0  0  0
   10.9516  -18.2377   27.8405 O   0  0  0  0  0  0  0  0  0  0  0  0
   11.5729  -16.3834   28.9268 O   0  0  0  0  0  0  0  0  0  0  0  0
  2  1  1  1
  2  3  1  0
  4  2  1  0
  5  4  1  0
  5  6  1  6
  7  8  2  0
  7  5  1  0
  9 10  1  0
 10 20  2  0
 11 12  2  0
 11 10  1  0
 12 13  1  0
 13 19  2  0
 13 14  1  0
 15 14  1  1
 15 16  1  0
 16  7  1  0
 17 15  1  0
 18 17  2  0
 20 19  1  0
 21 17  1  0
 22 21  1  0
 22 23  1  1
 23 24  1  0
 24 29  2  0
 25 26  2  0
 25 24  1  0
 26 27  1  0
 27 28  2  0
 29 28  1  0
 30 32  1  0
 30 22  1  0
 31 30  2  0
M  END
$$$$
