LYF.pdb
     RDKit          3D

 32 33  0  0  1  0  0  0  0  0999 V2000
    9.5739  -13.9369   19.3282 C   0  0  0  0  0  0  0  0  0  0  0  0
    8.3382  -13.6239   18.5012 C   0  0  2  0  0  0  0  0  0  0  0  0
    8.0175  -12.1698   18.4966 C   0  0  0  0  0  0  0  0  0  0  0  0
    7.2019  -14.4251   19.0428 C   0  0  0  0  0  0  0  0  0  0  0  0
    7.5677  -15.8735   19.1246 C   0  0  2  0  0  0  0  0  0  0  0  0
    7.2238  -16.6591   17.9807 N   0  0  0  0  0  0  0  0  0  0  0  0
    7.1853  -16.5047   20.3936 C   0  0  0  0  0  0  0  0  0  0  0  0
    6.0450  -16.3724   20.9194 O   0  0  0  0  0  0  0  0  0  0  0  0
    7.1111  -21.9035   27.2835 O   0  0  0  0  0  0  0  0  0  0  0  0
    7.4189  -21.2738   26.0729 C   0  0  0  0  0  0  0  0  0  0  0  0
    8.7035  -20.9491   25.7379 C   0  0  0  0  0  0  0  0  0  0  0  0
    8.9767  -20.3238   24.5268 C   0  0  0  0  0  0  0  0  0  0  0  0
    8.0003  -20.0006   23.6105 C   0  0  0  0  0  0  0  0  0  0  0  0
    8.2839  -19.3202   22.3214 C   0  0  0  0  0  0  0  0  0  0  0  0
    7.7535  -17.8648   22.4062 C   0  0  2  0  0  0  0  0  0  0  0  0
    8.1203  -17.3133   21.0977 N   0  0  0  0  0  0  0  0  0  0  0  0
    8.5516  -17.2458   23.4808 C   0  0  0  0  0  0  0  0  0  0  0  0
    9.7929  -17.1767   23.2954 O   0  0  0  0  0  0  0  0  0  0  0  0
    6.6858  -20.3411   23.9664 C   0  0  0  0  0  0  0  0  0  0  0  0
    6.4145  -20.9607   25.1691 C   0  0  0  0  0  0  0  0  0  0  0  0
    8.0102  -16.7252   24.6889 N   0  0  0  0  0  0  0  0  0  0  0  0
    8.8442  -16.1636   25.7362 C   0  0  1  0  0  0  0  0  0  0  0  0
    7.9371  -15.5042   26.7487 C   0  0  0  0  0  0  0  0  0  0  0  0
    8.7649  -14.9089   27.8125 C   0  0  0  0  0  0  0  0  0  0  0  0
    9.0549  -15.6720   28.9272 C   0  0  0  0  0  0  0  0  0  0  0  0
    9.8305  -15.1566   29.9321 C   0  0  0  0  0  0  0  0  0  0  0  0
   10.3015  -13.8563   29.7785 C   0  0  0  0  0  0  0  0  0  0  0  0
   10.0212  -13.0947   28.6835 C   0  0  0  0  0  0  0  0  0  0  0  0
    9.2338  -13.6305   27.6717 C   0  0  0  0  0  0  0  0  0  0  0  0
    9.8670  -17.0476   26.2527 C   0  0  0  0  0  0  0  0  0  0  0  0
   11.0991  -16.8111   26.2256 O   0  0  0  0  0  0  0  0  0  0  0  0
    9.5296  -18.2818   26.8408 O   0  0  0  0  0  0  0  0  0  0  0  0
  2  1  1  1
  2  3  1  0
  4  2  1  0
  5  4  1  0
  5  6  1  6
  7  8  2  0
  7  5  1  0
  9 10  1  0
 10 20  2  0
 11 12  2  0
 11 10  1  0
 12 13  1  0
 13 19  2  0
 13 14  1  0
 15 14  1  6
 15 16  1  0
 16  7  1  0
 17 15  1  0
 18 17  2  0
 20 19  1  0
 21 17  1  0
 22 21  1  0
 22 23  1  1
 23 24  1  0
 24 29  2  0
 25 26  2  0
 25 24  1  0
 26 27  1  0
 27 28  2  0
 29 28  1  0
 30 32  1  0
 30 22  1  0
 31 30  2  0
M  END
$$$$
