LYF.pdb
     RDKit          3D

 32 33  0  0  1  0  0  0  0  0999 V2000
    6.5330  -21.6731   21.0720 C   0  0  0  0  0  0  0  0  0  0  0  0
    6.1823  -20.4449   20.2490 C   0  0  2  0  0  0  0  0  0  0  0  0
    6.0294  -20.7618   18.8022 C   0  0  0  0  0  0  0  0  0  0  0  0
    7.2454  -19.4208   20.4673 C   0  0  0  0  0  0  0  0  0  0  0  0
    7.1921  -18.8932   21.8663 C   0  0  2  0  0  0  0  0  0  0  0  0
    5.8818  -18.6269   22.3726 N   0  0  0  0  0  0  0  0  0  0  0  0
    8.1405  -17.8014   22.1185 C   0  0  0  0  0  0  0  0  0  0  0  0
    9.3530  -17.8397   21.7686 O   0  0  0  0  0  0  0  0  0  0  0  0
    8.0734  -13.1812   17.0301 O   0  0  0  0  0  0  0  0  0  0  0  0
    7.9741  -13.4558   18.3981 C   0  0  0  0  0  0  0  0  0  0  0  0
    6.7964  -13.8510   18.9681 C   0  0  0  0  0  0  0  0  0  0  0  0
    6.7305  -14.1168   20.3311 C   0  0  0  0  0  0  0  0  0  0  0  0
    7.8153  -14.0042   21.1724 C   0  0  0  0  0  0  0  0  0  0  0  0
    7.7481  -14.2733   22.6312 C   0  0  0  0  0  0  0  0  0  0  0  0
    8.6411  -15.5021   22.9465 C   0  0  2  0  0  0  0  0  0  0  0  0
    7.7094  -16.6239   22.7903 N   0  0  0  0  0  0  0  0  0  0  0  0
    9.0208  -15.3261   24.3606 C   0  0  0  0  0  0  0  0  0  0  0  0
    8.9073  -14.1684   24.8370 O   0  0  0  0  0  0  0  0  0  0  0  0
    9.0187  -13.5993   20.5736 C   0  0  0  0  0  0  0  0  0  0  0  0
    9.0840  -13.3343   19.2210 C   0  0  0  0  0  0  0  0  0  0  0  0
    9.4919  -16.3700   25.2044 N   0  0  0  0  0  0  0  0  0  0  0  0
    9.2676  -16.3714   26.6388 C   0  0  1  0  0  0  0  0  0  0  0  0
    7.7881  -16.1797   26.8777 C   0  0  0  0  0  0  0  0  0  0  0  0
    7.5007  -14.7362   26.9472 C   0  0  0  0  0  0  0  0  0  0  0  0
    6.3515  -14.2628   26.3437 C   0  0  0  0  0  0  0  0  0  0  0  0
    6.0451  -12.9286   26.3965 C   0  0  0  0  0  0  0  0  0  0  0  0
    6.9280  -12.0922   27.0726 C   0  0  0  0  0  0  0  0  0  0  0  0
    8.0645  -12.5483   27.6710 C   0  0  0  0  0  0  0  0  0  0  0  0
    8.3623  -13.9042   27.6100 C   0  0  0  0  0  0  0  0  0  0  0  0
    9.9136  -17.4441   27.3644 C   0  0  0  0  0  0  0  0  0  0  0  0
    9.9303  -17.5554   28.6142 O   0  0  0  0  0  0  0  0  0  0  0  0
   10.5945  -18.4724   26.6848 O   0  0  0  0  0  0  0  0  0  0  0  0
  2  1  1  1
  2  3  1  0
  4  2  1  0
  5  4  1  0
  5  6  1  6
  7  8  2  0
  7  5  1  0
  9 10  1  0
 10 20  2  0
 11 12  2  0
 11 10  1  0
 12 13  1  0
 13 19  2  0
 13 14  1  0
 15 14  1  1
 15 16  1  0
 16  7  1  0
 17 15  1  0
 18 17  2  0
 20 19  1  0
 21 17  1  0
 22 21  1  0
 22 23  1  6
 23 24  1  0
 24 29  2  0
 25 26  2  0
 25 24  1  0
 26 27  1  0
 27 28  2  0
 29 28  1  0
 30 32  1  0
 30 22  1  0
 31 30  2  0
M  END
$$$$
