LYF.pdb
     RDKit          3D

 32 33  0  0  1  0  0  0  0  0999 V2000
    8.3631  -21.2999   19.9686 C   0  0  0  0  0  0  0  0  0  0  0  0
    7.9911  -20.1113   19.0980 C   0  0  2  0  0  0  0  0  0  0  0  0
    8.1362  -20.4096   17.6464 C   0  0  0  0  0  0  0  0  0  0  0  0
    8.8463  -18.9563   19.4993 C   0  0  0  0  0  0  0  0  0  0  0  0
    8.6430  -18.6244   20.9438 C   0  0  2  0  0  0  0  0  0  0  0  0
    7.3464  -18.9247   21.4661 N   0  0  0  0  0  0  0  0  0  0  0  0
    9.1157  -17.2838   21.3104 C   0  0  0  0  0  0  0  0  0  0  0  0
   10.2719  -16.8561   21.0374 O   0  0  0  0  0  0  0  0  0  0  0  0
    7.9336  -13.1098   16.4574 O   0  0  0  0  0  0  0  0  0  0  0  0
    7.8659  -13.3390   17.8357 C   0  0  0  0  0  0  0  0  0  0  0  0
    8.4479  -12.4901   18.7349 C   0  0  0  0  0  0  0  0  0  0  0  0
    8.3625  -12.7456   20.0987 C   0  0  0  0  0  0  0  0  0  0  0  0
    7.7043  -13.8380   20.6191 C   0  0  0  0  0  0  0  0  0  0  0  0
    7.6213  -14.1240   22.0739 C   0  0  0  0  0  0  0  0  0  0  0  0
    8.7734  -15.0920   22.4514 C   0  0  2  0  0  0  0  0  0  0  0  0
    8.2568  -16.3921   22.0110 N   0  0  0  0  0  0  0  0  0  0  0  0
    8.8419  -15.0239   23.9230 C   0  0  0  0  0  0  0  0  0  0  0  0
    8.0416  -14.2384   24.4909 O   0  0  0  0  0  0  0  0  0  0  0  0
    7.1097  -14.7006   19.6847 C   0  0  0  0  0  0  0  0  0  0  0  0
    7.1955  -14.4476   18.3310 C   0  0  0  0  0  0  0  0  0  0  0  0
    9.7376  -15.7852   24.7241 N   0  0  0  0  0  0  0  0  0  0  0  0
    9.7225  -15.7295   26.1748 C   0  0  1  0  0  0  0  0  0  0  0  0
    8.2847  -15.8280   26.6283 C   0  0  0  0  0  0  0  0  0  0  0  0
    7.7427  -14.4672   26.7897 C   0  0  0  0  0  0  0  0  0  0  0  0
    6.4909  -14.1906   26.2744 C   0  0  0  0  0  0  0  0  0  0  0  0
    5.9494  -12.9400   26.4143 C   0  0  0  0  0  0  0  0  0  0  0  0
    6.7045  -11.9835   27.0858 C   0  0  0  0  0  0  0  0  0  0  0  0
    7.9403  -12.2454   27.5976 C   0  0  0  0  0  0  0  0  0  0  0  0
    8.4770  -13.5185   27.4489 C   0  0  0  0  0  0  0  0  0  0  0  0
   10.6774  -16.5924   26.8365 C   0  0  0  0  0  0  0  0  0  0  0  0
   11.3085  -17.5231   26.2794 O   0  0  0  0  0  0  0  0  0  0  0  0
   10.9688  -16.4368   28.2053 O   0  0  0  0  0  0  0  0  0  0  0  0
  2  1  1  1
  2  3  1  0
  4  2  1  0
  5  4  1  0
  5  6  1  6
  7  8  2  0
  7  5  1  0
  9 10  1  0
 10 20  2  0
 11 12  2  0
 11 10  1  0
 12 13  1  0
 13 19  2  0
 13 14  1  0
 15 14  1  1
 15 16  1  0
 16  7  1  0
 17 15  1  0
 18 17  2  0
 20 19  1  0
 21 17  1  0
 22 21  1  0
 22 23  1  1
 23 24  1  0
 24 29  2  0
 25 26  2  0
 25 24  1  0
 26 27  1  0
 27 28  2  0
 29 28  1  0
 30 32  1  0
 30 22  1  0
 31 30  2  0
M  END
$$$$
