LYF.pdb
     RDKit          3D

 32 33  0  0  1  0  0  0  0  0999 V2000
    1.7063  -18.6856   21.3155 C   0  0  0  0  0  0  0  0  0  0  0  0
    2.3142  -19.3887   22.5175 C   0  0  2  0  0  0  0  0  0  0  0  0
    1.4568  -19.2741   23.7296 C   0  0  0  0  0  0  0  0  0  0  0  0
    3.6682  -18.8098   22.7582 C   0  0  0  0  0  0  0  0  0  0  0  0
    4.5051  -18.8899   21.5207 C   0  0  2  0  0  0  0  0  0  0  0  0
    4.6305  -20.1937   20.9476 N   0  0  0  0  0  0  0  0  0  0  0  0
    5.7872  -18.1835   21.6323 C   0  0  0  0  0  0  0  0  0  0  0  0
    6.8683  -18.7524   21.9510 O   0  0  0  0  0  0  0  0  0  0  0  0
   11.7889  -12.6250   18.8865 O   0  0  0  0  0  0  0  0  0  0  0  0
   10.5694  -13.1188   19.3616 C   0  0  0  0  0  0  0  0  0  0  0  0
    9.4261  -12.3710   19.3201 C   0  0  0  0  0  0  0  0  0  0  0  0
    8.2294  -12.8905   19.8002 C   0  0  0  0  0  0  0  0  0  0  0  0
    8.1192  -14.1561   20.3326 C   0  0  0  0  0  0  0  0  0  0  0  0
    6.8469  -14.7118   20.8597 C   0  0  0  0  0  0  0  0  0  0  0  0
    7.1420  -16.0930   21.5017 C   0  0  2  0  0  0  0  0  0  0  0  0
    5.8552  -16.7856   21.3775 N   0  0  0  0  0  0  0  0  0  0  0  0
    7.4400  -15.7850   22.9129 C   0  0  0  0  0  0  0  0  0  0  0  0
    6.5722  -15.1310   23.5446 O   0  0  0  0  0  0  0  0  0  0  0  0
    9.3004  -14.9138   20.3676 C   0  0  0  0  0  0  0  0  0  0  0  0
   10.4885  -14.3977   19.8922 C   0  0  0  0  0  0  0  0  0  0  0  0
    8.6253  -16.1827   23.5915 N   0  0  0  0  0  0  0  0  0  0  0  0
    8.8240  -15.9500   25.0107 C   0  0  1  0  0  0  0  0  0  0  0  0
    7.4633  -15.8375   25.6578 C   0  0  0  0  0  0  0  0  0  0  0  0
    7.2436  -14.4378   26.0630 C   0  0  0  0  0  0  0  0  0  0  0  0
    8.2898  -13.7477   26.6444 C   0  0  0  0  0  0  0  0  0  0  0  0
    8.1267  -12.4416   27.0244 C   0  0  0  0  0  0  0  0  0  0  0  0
    6.8839  -11.8571   26.8010 C   0  0  0  0  0  0  0  0  0  0  0  0
    5.8450  -12.5287   26.2287 C   0  0  0  0  0  0  0  0  0  0  0  0
    6.0249  -13.8528   25.8476 C   0  0  0  0  0  0  0  0  0  0  0  0
    9.7828  -16.8238   25.6521 C   0  0  0  0  0  0  0  0  0  0  0  0
   10.0033  -16.8624   26.8869 O   0  0  0  0  0  0  0  0  0  0  0  0
   10.5631  -17.7219   24.8987 O   0  0  0  0  0  0  0  0  0  0  0  0
  2  1  1  6
  2  3  1  0
  4  2  1  0
  5  4  1  0
  5  6  1  1
  7  8  2  0
  7  5  1  0
  9 10  1  0
 10 20  2  0
 11 12  2  0
 11 10  1  0
 12 13  1  0
 13 19  2  0
 13 14  1  0
 15 14  1  6
 15 16  1  0
 16  7  1  0
 17 15  1  0
 18 17  2  0
 20 19  1  0
 21 17  1  0
 22 21  1  0
 22 23  1  1
 23 24  1  0
 24 29  2  0
 25 26  2  0
 25 24  1  0
 26 27  1  0
 27 28  2  0
 29 28  1  0
 30 32  1  0
 30 22  1  0
 31 30  2  0
M  END
$$$$
