LYF.pdb
     RDKit          3D

 32 33  0  0  1  0  0  0  0  0999 V2000
    7.4343  -12.8047   21.3117 C   0  0  0  0  0  0  0  0  0  0  0  0
    8.4789  -13.2617   20.3073 C   0  0  2  0  0  0  0  0  0  0  0  0
    8.7129  -12.2509   19.2392 C   0  0  0  0  0  0  0  0  0  0  0  0
    8.0298  -14.5622   19.7297 C   0  0  0  0  0  0  0  0  0  0  0  0
    9.2015  -15.3639   19.2577 C   0  0  2  0  0  0  0  0  0  0  0  0
    8.9244  -16.2989   18.2122 N   0  0  0  0  0  0  0  0  0  0  0  0
    9.9976  -15.9386   20.3490 C   0  0  0  0  0  0  0  0  0  0  0  0
    9.7516  -17.0613   20.8716 O   0  0  0  0  0  0  0  0  0  0  0  0
   15.5210  -15.8081   16.6609 O   0  0  0  0  0  0  0  0  0  0  0  0
   14.9560  -15.5991   17.9233 C   0  0  0  0  0  0  0  0  0  0  0  0
   14.3378  -14.4243   18.2485 C   0  0  0  0  0  0  0  0  0  0  0  0
   13.7856  -14.2476   19.5120 C   0  0  0  0  0  0  0  0  0  0  0  0
   13.8226  -15.2162   20.4907 C   0  0  0  0  0  0  0  0  0  0  0  0
   13.2470  -15.0287   21.8467 C   0  0  0  0  0  0  0  0  0  0  0  0
   11.9213  -15.8299   21.9335 C   0  0  2  0  0  0  0  0  0  0  0  0
   11.1103  -15.2234   20.8726 N   0  0  0  0  0  0  0  0  0  0  0  0
   11.3795  -15.4989   23.2646 C   0  0  0  0  0  0  0  0  0  0  0  0
   11.6406  -14.3540   23.7130 O   0  0  0  0  0  0  0  0  0  0  0  0
   14.4589  -16.4182   20.1430 C   0  0  0  0  0  0  0  0  0  0  0  0
   15.0080  -16.5931   18.8892 C   0  0  0  0  0  0  0  0  0  0  0  0
   10.5875  -16.3785   24.0538 N   0  0  0  0  0  0  0  0  0  0  0  0
    9.5933  -15.8961   24.9954 C   0  0  1  0  0  0  0  0  0  0  0  0
    8.6689  -14.9581   24.2547 C   0  0  0  0  0  0  0  0  0  0  0  0
    7.8214  -14.2544   25.2334 C   0  0  0  0  0  0  0  0  0  0  0  0
    8.4019  -13.2921   26.0370 C   0  0  0  0  0  0  0  0  0  0  0  0
    7.6438  -12.6092   26.9512 C   0  0  0  0  0  0  0  0  0  0  0  0
    6.2909  -12.9250   27.0291 C   0  0  0  0  0  0  0  0  0  0  0  0
    5.7081  -13.8728   26.2418 C   0  0  0  0  0  0  0  0  0  0  0  0
    6.4890  -14.5571   25.3184 C   0  0  0  0  0  0  0  0  0  0  0  0
    8.9722  -16.9147   25.8145 C   0  0  0  0  0  0  0  0  0  0  0  0
    8.5379  -18.0117   25.3870 O   0  0  0  0  0  0  0  0  0  0  0  0
    8.8073  -16.7299   27.2007 O   0  0  0  0  0  0  0  0  0  0  0  0
  2  1  1  1
  2  3  1  0
  4  2  1  0
  5  4  1  0
  5  6  1  6
  7  8  2  0
  7  5  1  0
  9 10  1  0
 10 20  2  0
 11 12  2  0
 11 10  1  0
 12 13  1  0
 13 19  2  0
 13 14  1  0
 15 14  1  1
 15 16  1  0
 16  7  1  0
 17 15  1  0
 18 17  2  0
 20 19  1  0
 21 17  1  0
 22 21  1  0
 22 23  1  6
 23 24  1  0
 24 29  2  0
 25 26  2  0
 25 24  1  0
 26 27  1  0
 27 28  2  0
 29 28  1  0
 30 32  1  0
 30 22  1  0
 31 30  2  0
M  END
$$$$
