LYF.pdb
     RDKit          3D

 32 33  0  0  1  0  0  0  0  0999 V2000
    6.8853  -12.5344   18.6564 C   0  0  0  0  0  0  0  0  0  0  0  0
    7.8649  -13.5131   18.0308 C   0  0  2  0  0  0  0  0  0  0  0  0
    7.4238  -13.9666   16.6828 C   0  0  0  0  0  0  0  0  0  0  0  0
    8.0264  -14.6676   18.9621 C   0  0  0  0  0  0  0  0  0  0  0  0
    8.3653  -14.1924   20.3396 C   0  0  2  0  0  0  0  0  0  0  0  0
    8.9955  -12.9109   20.4093 N   0  0  0  0  0  0  0  0  0  0  0  0
    9.0320  -15.2081   21.1636 C   0  0  0  0  0  0  0  0  0  0  0  0
    8.7335  -16.4345   21.1309 O   0  0  0  0  0  0  0  0  0  0  0  0
   14.6272  -15.8371   17.9193 O   0  0  0  0  0  0  0  0  0  0  0  0
   14.0247  -15.7388   19.1780 C   0  0  0  0  0  0  0  0  0  0  0  0
   13.8380  -16.8348   19.9729 C   0  0  0  0  0  0  0  0  0  0  0  0
   13.2361  -16.7039   21.2192 C   0  0  0  0  0  0  0  0  0  0  0  0
   12.8021  -15.4969   21.7214 C   0  0  0  0  0  0  0  0  0  0  0  0
   12.1461  -15.3525   23.0458 C   0  0  0  0  0  0  0  0  0  0  0  0
   10.6799  -15.8450   22.9248 C   0  0  2  0  0  0  0  0  0  0  0  0
   10.0714  -14.8302   22.0583 N   0  0  0  0  0  0  0  0  0  0  0  0
   10.1479  -15.7529   24.2971 C   0  0  0  0  0  0  0  0  0  0  0  0
   10.6453  -14.8681   25.0386 O   0  0  0  0  0  0  0  0  0  0  0  0
   13.0015  -14.3795   20.8955 C   0  0  0  0  0  0  0  0  0  0  0  0
   13.5978  -14.5095   19.6579 C   0  0  0  0  0  0  0  0  0  0  0  0
    9.1194  -16.5850   24.8203 N   0  0  0  0  0  0  0  0  0  0  0  0
    8.7190  -16.5425   26.2151 C   0  0  1  0  0  0  0  0  0  0  0  0
    7.2503  -16.1915   26.2661 C   0  0  0  0  0  0  0  0  0  0  0  0
    7.1077  -14.7277   26.1740 C   0  0  0  0  0  0  0  0  0  0  0  0
    7.7494  -13.9424   27.1122 C   0  0  0  0  0  0  0  0  0  0  0  0
    7.6490  -12.5774   27.0527 C   0  0  0  0  0  0  0  0  0  0  0  0
    6.8864  -12.0328   26.0241 C   0  0  0  0  0  0  0  0  0  0  0  0
    6.2488  -12.7981   25.0937 C   0  0  0  0  0  0  0  0  0  0  0  0
    6.3600  -14.1813   25.1659 C   0  0  0  0  0  0  0  0  0  0  0  0
    9.1506  -17.6675   27.0167 C   0  0  0  0  0  0  0  0  0  0  0  0
    8.9266  -17.8007   28.2442 O   0  0  0  0  0  0  0  0  0  0  0  0
    9.8819  -18.7268   26.4457 O   0  0  0  0  0  0  0  0  0  0  0  0
  2  1  1  1
  2  3  1  0
  4  2  1  0
  5  4  1  0
  5  6  1  6
  7  8  2  0
  7  5  1  0
  9 10  1  0
 10 20  2  0
 11 12  2  0
 11 10  1  0
 12 13  1  0
 13 19  2  0
 13 14  1  0
 15 14  1  1
 15 16  1  0
 16  7  1  0
 17 15  1  0
 18 17  2  0
 20 19  1  0
 21 17  1  0
 22 21  1  0
 22 23  1  6
 23 24  1  0
 24 29  2  0
 25 26  2  0
 25 24  1  0
 26 27  1  0
 27 28  2  0
 29 28  1  0
 30 32  1  0
 30 22  1  0
 31 30  2  0
M  END
$$$$
