THK.pdb
     RDKit          3D

 27 27  0  0  1  0  0  0  0  0999 V2000
   24.9776  -24.0093  -15.5965 C   0  0  0  0  0  0  0  0  0  0  0  0
   25.9834  -22.9170  -15.8892 C   0  0  1  0  0  0  0  0  0  0  0  0
   26.9980  -23.3447  -16.7308 O   0  0  0  0  0  0  0  0  0  0  0  0
   25.3347  -21.6951  -16.4937 C   0  0  2  0  0  0  0  0  0  0  0  0
   26.2775  -20.7030  -16.9189 N   0  0  0  0  0  0  0  0  0  0  0  0
   24.2765  -21.1352  -15.6139 C   0  0  0  0  0  0  0  0  0  0  0  0
   24.6463  -20.5561  -14.5567 O   0  0  0  0  0  0  0  0  0  0  0  0
   22.9083  -21.2097  -15.8828 N   0  0  0  0  0  0  0  0  0  0  0  0
   21.8795  -20.5432  -15.0035 C   0  0  1  0  0  0  0  0  0  0  0  0
   21.1765  -19.6265  -15.9222 C   0  0  0  0  0  0  0  0  0  0  0  0
   21.7335  -18.3301  -16.2405 C   0  0  0  0  0  0  0  0  0  0  0  0
   22.9869  -17.9768  -15.6830 C   0  0  0  0  0  0  0  0  0  0  0  0
   23.3134  -16.7663  -16.0939 N   0  0  0  0  0  0  0  0  0  0  0  0
   22.3332  -16.3225  -16.8880 C   0  0  0  0  0  0  0  0  0  0  0  0
   21.3909  -17.2771  -16.9645 N   0  0  0  0  0  0  0  0  0  0  0  0
   21.0123  -21.6238  -14.4760 C   0  0  0  0  0  0  0  0  0  0  0  0
   20.7168  -22.5781  -15.2889 O   0  0  0  0  0  0  0  0  0  0  0  0
   20.4793  -21.7283  -13.1870 N   0  0  0  0  0  0  0  0  0  0  0  0
   19.5759  -22.8234  -12.7941 C   0  0  1  0  0  0  0  0  0  0  0  0
   19.6887  -22.9353  -11.2956 C   0  0  0  0  0  0  0  0  0  0  0  0
   18.7722  -23.9340  -10.6693 C   0  0  0  0  0  0  0  0  0  0  0  0
   18.7829  -23.8711   -9.1573 C   0  0  0  0  0  0  0  0  0  0  0  0
   17.9084  -24.9536   -8.5806 C   0  0  0  0  0  0  0  0  0  0  0  0
   17.9709  -24.8907   -7.1286 N   0  0  0  0  0  0  0  0  0  0  0  0
   18.1972  -22.5142  -13.2190 C   0  0  0  0  0  0  0  0  0  0  0  0
   17.2511  -23.4579  -13.5549 O   0  0  0  0  0  0  0  0  0  0  0  0
   17.8367  -21.3064  -13.2886 O   0  0  0  0  0  0  0  0  0  0  0  0
  2  1  1  6
  2  3  1  0
  4  2  1  0
  4  5  1  1
  6  7  2  0
  6  4  1  0
  8  6  1  0
  9  8  1  0
  9 10  1  6
 11 10  1  0
 12 11  2  0
 13 14  1  0
 13 12  1  0
 14 15  2  0
 15 11  1  0
 16  9  1  0
 17 16  2  0
 18 16  1  0
 19 18  1  0
 19 20  1  1
 21 22  1  0
 21 20  1  0
 23 24  1  0
 23 22  1  0
 25 26  1  0
 25 19  1  0
 27 25  2  0
M  END
$$$$
