THK.pdb
     RDKit          3D

 27 27  0  0  1  0  0  0  0  0999 V2000
   22.8977  -13.5677  -17.0235 C   0  0  0  0  0  0  0  0  0  0  0  0
   22.3949  -14.0692  -18.3599 C   0  0  1  0  0  0  0  0  0  0  0  0
   22.3715  -15.4531  -18.4301 O   0  0  0  0  0  0  0  0  0  0  0  0
   21.0163  -13.5440  -18.6813 C   0  0  2  0  0  0  0  0  0  0  0  0
   20.4424  -14.1348  -19.8541 N   0  0  0  0  0  0  0  0  0  0  0  0
   20.9817  -12.0592  -18.7163 C   0  0  0  0  0  0  0  0  0  0  0  0
   21.3718  -11.4938  -19.7737 O   0  0  0  0  0  0  0  0  0  0  0  0
   20.5474  -11.2568  -17.6593 N   0  0  0  0  0  0  0  0  0  0  0  0
   20.4891   -9.7529  -17.7638 C   0  0  1  0  0  0  0  0  0  0  0  0
   19.2956   -9.3941  -16.9729 C   0  0  0  0  0  0  0  0  0  0  0  0
   17.9800   -9.4103  -17.5737 C   0  0  0  0  0  0  0  0  0  0  0  0
   17.8127   -8.8239  -18.8522 C   0  0  0  0  0  0  0  0  0  0  0  0
   16.5505   -8.9433  -19.2173 N   0  0  0  0  0  0  0  0  0  0  0  0
   15.8967   -9.5772  -18.2379 C   0  0  0  0  0  0  0  0  0  0  0  0
   16.7732   -9.8504  -17.2571 N   0  0  0  0  0  0  0  0  0  0  0  0
   21.7534   -9.2408  -17.1829 C   0  0  0  0  0  0  0  0  0  0  0  0
   22.0091   -9.5760  -15.9659 O   0  0  0  0  0  0  0  0  0  0  0  0
   22.7081   -8.4344  -17.8111 N   0  0  0  0  0  0  0  0  0  0  0  0
   23.9474   -8.0100  -17.1376 C   0  0  1  0  0  0  0  0  0  0  0  0
   25.0652   -8.3031  -18.1047 C   0  0  0  0  0  0  0  0  0  0  0  0
   26.4265   -7.9179  -17.6271 C   0  0  0  0  0  0  0  0  0  0  0  0
   27.5162   -8.2752  -18.6146 C   0  0  0  0  0  0  0  0  0  0  0  0
   28.8640   -7.8679  -18.0793 C   0  0  0  0  0  0  0  0  0  0  0  0
   29.8562   -8.0109  -19.1334 N   0  0  0  0  0  0  0  0  0  0  0  0
   23.8721   -6.5745  -16.8048 C   0  0  0  0  0  0  0  0  0  0  0  0
   24.5572   -5.9732  -15.7716 O   0  0  0  0  0  0  0  0  0  0  0  0
   23.1328   -5.8249  -17.5013 O   0  0  0  0  0  0  0  0  0  0  0  0
  2  1  1  1
  2  3  1  0
  4  2  1  0
  4  5  1  6
  6  7  2  0
  6  4  1  0
  8  6  1  0
  9  8  1  0
  9 10  1  1
 11 10  1  0
 12 11  2  0
 13 14  1  0
 13 12  1  0
 14 15  2  0
 15 11  1  0
 16  9  1  0
 17 16  2  0
 18 16  1  0
 19 18  1  0
 19 20  1  6
 21 22  1  0
 21 20  1  0
 23 24  1  0
 23 22  1  0
 25 26  1  0
 25 19  1  0
 27 25  2  0
M  END
$$$$
