THK.pdb
     RDKit          3D

 27 27  0  0  1  0  0  0  0  0999 V2000
   18.7952  -11.9153  -19.5892 C   0  0  0  0  0  0  0  0  0  0  0  0
   18.1279  -13.0188  -18.7972 C   0  0  1  0  0  0  0  0  0  0  0  0
   17.3410  -13.8376  -19.5916 O   0  0  0  0  0  0  0  0  0  0  0  0
   19.1301  -13.8752  -18.0612 C   0  0  2  0  0  0  0  0  0  0  0  0
   18.5409  -15.0102  -17.4143 N   0  0  0  0  0  0  0  0  0  0  0  0
   19.9781  -13.0727  -17.1426 C   0  0  0  0  0  0  0  0  0  0  0  0
   19.4441  -12.6456  -16.0832 O   0  0  0  0  0  0  0  0  0  0  0  0
   21.3196  -12.7641  -17.3774 N   0  0  0  0  0  0  0  0  0  0  0  0
   22.1072  -11.8580  -16.4639 C   0  0  1  0  0  0  0  0  0  0  0  0
   23.5075  -12.2658  -16.6904 C   0  0  0  0  0  0  0  0  0  0  0  0
   24.5961  -11.5434  -16.0698 C   0  0  0  0  0  0  0  0  0  0  0  0
   24.2990  -10.3623  -15.3464 C   0  0  0  0  0  0  0  0  0  0  0  0
   25.4201   -9.8610  -14.8641 N   0  0  0  0  0  0  0  0  0  0  0  0
   26.4242  -10.6601  -15.2406 C   0  0  0  0  0  0  0  0  0  0  0  0
   25.9092  -11.6673  -15.9655 N   0  0  0  0  0  0  0  0  0  0  0  0
   21.8227  -10.4698  -16.8997 C   0  0  0  0  0  0  0  0  0  0  0  0
   21.8606  -10.2412  -18.1666 O   0  0  0  0  0  0  0  0  0  0  0  0
   21.5112   -9.3745  -16.0873 N   0  0  0  0  0  0  0  0  0  0  0  0
   21.1956   -8.0468  -16.6416 C   0  0  1  0  0  0  0  0  0  0  0  0
   19.6935   -7.9318  -16.6103 C   0  0  0  0  0  0  0  0  0  0  0  0
   19.1581   -6.5893  -16.9856 C   0  0  0  0  0  0  0  0  0  0  0  0
   17.6458   -6.5536  -17.0300 C   0  0  0  0  0  0  0  0  0  0  0  0
   17.1623   -5.1604  -17.3371 C   0  0  0  0  0  0  0  0  0  0  0  0
   15.7106   -5.1718  -17.4304 N   0  0  0  0  0  0  0  0  0  0  0  0
   21.8432   -6.9973  -15.8315 C   0  0  0  0  0  0  0  0  0  0  0  0
   22.1107   -5.7200  -16.2738 O   0  0  0  0  0  0  0  0  0  0  0  0
   22.1868   -7.2661  -14.6469 O   0  0  0  0  0  0  0  0  0  0  0  0
  2  1  1  6
  2  3  1  0
  4  2  1  0
  4  5  1  1
  6  7  2  0
  6  4  1  0
  8  6  1  0
  9  8  1  0
  9 10  1  6
 11 10  1  0
 12 11  2  0
 13 14  1  0
 13 12  1  0
 14 15  2  0
 15 11  1  0
 16  9  1  0
 17 16  2  0
 18 16  1  0
 19 18  1  0
 19 20  1  1
 21 22  1  0
 21 20  1  0
 23 24  1  0
 23 22  1  0
 25 26  1  0
 25 19  1  0
 27 25  2  0
M  END
$$$$
