THK.pdb
     RDKit          3D

 27 27  0  0  1  0  0  0  0  0999 V2000
   15.3042  -10.3115  -16.8839 C   0  0  0  0  0  0  0  0  0  0  0  0
   15.8467  -11.7069  -16.6636 C   0  0  1  0  0  0  0  0  0  0  0  0
   15.2981  -12.6313  -17.5383 O   0  0  0  0  0  0  0  0  0  0  0  0
   17.3507  -11.7572  -16.7855 C   0  0  2  0  0  0  0  0  0  0  0  0
   17.8804  -13.0881  -16.7391 N   0  0  0  0  0  0  0  0  0  0  0  0
   18.0171  -10.8450  -15.8205 C   0  0  0  0  0  0  0  0  0  0  0  0
   18.0485  -11.2011  -14.6113 O   0  0  0  0  0  0  0  0  0  0  0  0
   18.6063   -9.6273  -16.1665 N   0  0  0  0  0  0  0  0  0  0  0  0
   19.2829   -8.7442  -15.1476 C   0  0  1  0  0  0  0  0  0  0  0  0
   20.1939   -7.9117  -15.9574 C   0  0  0  0  0  0  0  0  0  0  0  0
   20.9748   -6.8605  -15.3434 C   0  0  0  0  0  0  0  0  0  0  0  0
   20.8471   -6.6494  -13.9484 C   0  0  0  0  0  0  0  0  0  0  0  0
   21.6366   -5.6546  -13.5909 N   0  0  0  0  0  0  0  0  0  0  0  0
   22.2662   -5.2145  -14.6856 C   0  0  0  0  0  0  0  0  0  0  0  0
   21.8553   -5.9522  -15.7306 N   0  0  0  0  0  0  0  0  0  0  0  0
   18.2091   -7.9652  -14.4857 C   0  0  0  0  0  0  0  0  0  0  0  0
   17.2976   -7.4706  -15.2494 O   0  0  0  0  0  0  0  0  0  0  0  0
   18.0696   -7.7088  -13.1178 N   0  0  0  0  0  0  0  0  0  0  0  0
   16.9536   -6.9155  -12.5745 C   0  0  1  0  0  0  0  0  0  0  0  0
   16.6308   -7.5205  -11.2327 C   0  0  0  0  0  0  0  0  0  0  0  0
   15.5112   -6.8594  -10.4984 C   0  0  0  0  0  0  0  0  0  0  0  0
   15.2315   -7.5010   -9.1566 C   0  0  0  0  0  0  0  0  0  0  0  0
   14.1113   -6.7802   -8.4532 C   0  0  0  0  0  0  0  0  0  0  0  0
   13.7900   -7.4880   -7.2237 N   0  0  0  0  0  0  0  0  0  0  0  0
   17.3539   -5.5003  -12.4564 C   0  0  0  0  0  0  0  0  0  0  0  0
   16.5098   -4.4289  -12.6515 O   0  0  0  0  0  0  0  0  0  0  0  0
   18.5497   -5.2276  -12.1578 O   0  0  0  0  0  0  0  0  0  0  0  0
  2  1  1  6
  2  3  1  0
  4  2  1  0
  4  5  1  1
  6  7  2  0
  6  4  1  0
  8  6  1  0
  9  8  1  0
  9 10  1  6
 11 10  1  0
 12 11  2  0
 13 14  1  0
 13 12  1  0
 14 15  2  0
 15 11  1  0
 16  9  1  0
 17 16  2  0
 18 16  1  0
 19 18  1  0
 19 20  1  1
 21 22  1  0
 21 20  1  0
 23 24  1  0
 23 22  1  0
 25 26  1  0
 25 19  1  0
 27 25  2  0
M  END
$$$$
