THK.pdb
     RDKit          3D

 27 27  0  0  1  0  0  0  0  0999 V2000
   37.6555  -32.1064  -17.9894 C   0  0  0  0  0  0  0  0  0  0  0  0
   37.7407  -31.9185  -16.4901 C   0  0  1  0  0  0  0  0  0  0  0  0
   38.8544  -32.5354  -15.9428 O   0  0  0  0  0  0  0  0  0  0  0  0
   37.7537  -30.4599  -16.1005 C   0  0  2  0  0  0  0  0  0  0  0  0
   37.8585  -30.2504  -14.6867 N   0  0  0  0  0  0  0  0  0  0  0  0
   36.6200  -29.7134  -16.7044 C   0  0  0  0  0  0  0  0  0  0  0  0
   35.6140  -29.4959  -15.9760 O   0  0  0  0  0  0  0  0  0  0  0  0
   36.5991  -29.2413  -18.0183 N   0  0  0  0  0  0  0  0  0  0  0  0
   35.4180  -28.4926  -18.5842 C   0  0  1  0  0  0  0  0  0  0  0  0
   35.9505  -27.8815  -19.8177 C   0  0  0  0  0  0  0  0  0  0  0  0
   35.1168  -27.0328  -20.6402 C   0  0  0  0  0  0  0  0  0  0  0  0
   33.7485  -26.8949  -20.3008 C   0  0  0  0  0  0  0  0  0  0  0  0
   33.1708  -26.0855  -21.1680 N   0  0  0  0  0  0  0  0  0  0  0  0
   34.0984  -25.6953  -22.0486 C   0  0  0  0  0  0  0  0  0  0  0  0
   35.2634  -26.2755  -21.7151 N   0  0  0  0  0  0  0  0  0  0  0  0
   34.3618  -29.5015  -18.8381 C   0  0  0  0  0  0  0  0  0  0  0  0
   34.7416  -30.6222  -19.3465 O   0  0  0  0  0  0  0  0  0  0  0  0
   32.9923  -29.3761  -18.5824 N   0  0  0  0  0  0  0  0  0  0  0  0
   32.0422  -30.4762  -18.8207 C   0  0  1  0  0  0  0  0  0  0  0  0
   31.3002  -30.6702  -17.5236 C   0  0  0  0  0  0  0  0  0  0  0  0
   30.2585  -31.7397  -17.5495 C   0  0  0  0  0  0  0  0  0  0  0  0
   29.4393  -31.7901  -16.2780 C   0  0  0  0  0  0  0  0  0  0  0  0
   28.3753  -32.8515  -16.3807 C   0  0  0  0  0  0  0  0  0  0  0  0
   27.5874  -32.8532  -15.1578 N   0  0  0  0  0  0  0  0  0  0  0  0
   31.1314  -30.1228  -19.9263 C   0  0  0  0  0  0  0  0  0  0  0  0
   30.4767  -31.0359  -20.7238 O   0  0  0  0  0  0  0  0  0  0  0  0
   30.9232  -28.9037  -20.1791 O   0  0  0  0  0  0  0  0  0  0  0  0
  2  1  1  6
  2  3  1  0
  4  2  1  0
  4  5  1  1
  6  7  2  0
  6  4  1  0
  8  6  1  0
  9  8  1  0
  9 10  1  6
 11 10  1  0
 12 11  2  0
 13 14  1  0
 13 12  1  0
 14 15  2  0
 15 11  1  0
 16  9  1  0
 17 16  2  0
 18 16  1  0
 19 18  1  0
 19 20  1  1
 21 22  1  0
 21 20  1  0
 23 24  1  0
 23 22  1  0
 25 26  1  0
 25 19  1  0
 27 25  2  0
M  END
$$$$
