THK.pdb
     RDKit          3D

 27 27  0  0  1  0  0  0  0  0999 V2000
   16.0239  -11.0273  -10.7087 C   0  0  0  0  0  0  0  0  0  0  0  0
   14.5409  -10.9703  -10.4128 C   0  0  1  0  0  0  0  0  0  0  0  0
   14.0576  -12.1650   -9.9030 O   0  0  0  0  0  0  0  0  0  0  0  0
   14.1960   -9.8582   -9.4517 C   0  0  2  0  0  0  0  0  0  0  0  0
   12.8095   -9.8292   -9.0903 N   0  0  0  0  0  0  0  0  0  0  0  0
   14.6881   -8.5398   -9.9281 C   0  0  0  0  0  0  0  0  0  0  0  0
   14.0505   -7.9854  -10.8640 O   0  0  0  0  0  0  0  0  0  0  0  0
   15.8042   -7.8814   -9.4079 N   0  0  0  0  0  0  0  0  0  0  0  0
   16.3642   -6.6299  -10.0373 C   0  0  1  0  0  0  0  0  0  0  0  0
   16.5805   -5.7284   -8.8887 C   0  0  0  0  0  0  0  0  0  0  0  0
   17.1889   -4.4295   -9.0745 C   0  0  0  0  0  0  0  0  0  0  0  0
   17.5782   -4.0452  -10.3811 C   0  0  0  0  0  0  0  0  0  0  0  0
   18.1067   -2.8372  -10.3337 N   0  0  0  0  0  0  0  0  0  0  0  0
   18.0773   -2.4245   -9.0620 C   0  0  0  0  0  0  0  0  0  0  0  0
   17.5215   -3.3959   -8.3187 N   0  0  0  0  0  0  0  0  0  0  0  0
   17.6208   -7.0259  -10.7170 C   0  0  0  0  0  0  0  0  0  0  0  0
   18.4558   -7.7248  -10.0292 O   0  0  0  0  0  0  0  0  0  0  0  0
   18.0032   -6.7294  -12.0294 N   0  0  0  0  0  0  0  0  0  0  0  0
   19.2767   -7.1961  -12.6037 C   0  0  1  0  0  0  0  0  0  0  0  0
   18.9426   -7.7281  -13.9734 C   0  0  0  0  0  0  0  0  0  0  0  0
   20.1145   -8.2093  -14.7637 C   0  0  0  0  0  0  0  0  0  0  0  0
   19.7502   -8.5786  -16.1854 C   0  0  0  0  0  0  0  0  0  0  0  0
   20.9402   -9.1684  -16.8961 C   0  0  0  0  0  0  0  0  0  0  0  0
   20.5291   -9.6174  -18.2172 N   0  0  0  0  0  0  0  0  0  0  0  0
   20.2381   -6.0788  -12.6686 C   0  0  0  0  0  0  0  0  0  0  0  0
   19.9414   -4.8166  -13.1348 O   0  0  0  0  0  0  0  0  0  0  0  0
   21.4226   -6.2697  -12.2761 O   0  0  0  0  0  0  0  0  0  0  0  0
  2  1  1  1
  2  3  1  0
  4  2  1  0
  4  5  1  6
  6  7  2  0
  6  4  1  0
  8  6  1  0
  9  8  1  0
  9 10  1  1
 11 10  1  0
 12 11  2  0
 13 14  1  0
 13 12  1  0
 14 15  2  0
 15 11  1  0
 16  9  1  0
 17 16  2  0
 18 16  1  0
 19 18  1  0
 19 20  1  6
 21 22  1  0
 21 20  1  0
 23 24  1  0
 23 22  1  0
 25 26  1  0
 25 19  1  0
 27 25  2  0
M  END
$$$$
