THK.pdb
     RDKit          3D

 27 27  0  0  1  0  0  0  0  0999 V2000
   25.2305   -9.1731  -15.6214 C   0  0  0  0  0  0  0  0  0  0  0  0
   25.3085  -10.4610  -16.4123 C   0  0  1  0  0  0  0  0  0  0  0  0
   26.5150  -11.1190  -16.2329 O   0  0  0  0  0  0  0  0  0  0  0  0
   24.1840  -11.4078  -16.0680 C   0  0  2  0  0  0  0  0  0  0  0  0
   24.2809  -12.6719  -16.7362 N   0  0  0  0  0  0  0  0  0  0  0  0
   22.8515  -10.7735  -16.2398 C   0  0  0  0  0  0  0  0  0  0  0  0
   22.4103  -10.6582  -17.4154 O   0  0  0  0  0  0  0  0  0  0  0  0
   22.0633  -10.3008  -15.1887 N   0  0  0  0  0  0  0  0  0  0  0  0
   20.7450   -9.6057  -15.4228 C   0  0  1  0  0  0  0  0  0  0  0  0
   19.8757  -10.1372  -14.3548 C   0  0  0  0  0  0  0  0  0  0  0  0
   18.9805  -11.2432  -14.6139 C   0  0  0  0  0  0  0  0  0  0  0  0
   18.9642  -11.8109  -15.9116 C   0  0  0  0  0  0  0  0  0  0  0  0
   18.0883  -12.7972  -15.9376 N   0  0  0  0  0  0  0  0  0  0  0  0
   17.5398  -12.8931  -14.7217 C   0  0  0  0  0  0  0  0  0  0  0  0
   18.0890  -11.9498  -13.9384 N   0  0  0  0  0  0  0  0  0  0  0  0
   21.0069   -8.1519  -15.2969 C   0  0  0  0  0  0  0  0  0  0  0  0
   21.7684   -7.7826  -14.3261 O   0  0  0  0  0  0  0  0  0  0  0  0
   20.5223   -7.1301  -16.1200 N   0  0  0  0  0  0  0  0  0  0  0  0
   20.9017   -5.7194  -15.9311 C   0  0  1  0  0  0  0  0  0  0  0  0
   20.9503   -5.1157  -17.3109 C   0  0  0  0  0  0  0  0  0  0  0  0
   21.2369   -3.6507  -17.3461 C   0  0  0  0  0  0  0  0  0  0  0  0
   21.1227   -3.0650  -18.7369 C   0  0  0  0  0  0  0  0  0  0  0  0
   21.4873   -1.6035  -18.7227 C   0  0  0  0  0  0  0  0  0  0  0  0
   21.4017   -1.0800  -20.0772 N   0  0  0  0  0  0  0  0  0  0  0  0
   19.9114   -5.0436  -15.0712 C   0  0  0  0  0  0  0  0  0  0  0  0
   20.1673   -3.9199  -14.3160 O   0  0  0  0  0  0  0  0  0  0  0  0
   18.7406   -5.5110  -15.0056 O   0  0  0  0  0  0  0  0  0  0  0  0
  2  1  1  1
  2  3  1  0
  4  2  1  0
  4  5  1  6
  6  7  2  0
  6  4  1  0
  8  6  1  0
  9  8  1  0
  9 10  1  1
 11 10  1  0
 12 11  2  0
 13 14  1  0
 13 12  1  0
 14 15  2  0
 15 11  1  0
 16  9  1  0
 17 16  2  0
 18 16  1  0
 19 18  1  0
 19 20  1  6
 21 22  1  0
 21 20  1  0
 23 24  1  0
 23 22  1  0
 25 26  1  0
 25 19  1  0
 27 25  2  0
M  END
$$$$
