THK.pdb
     RDKit          3D

 27 27  0  0  1  0  0  0  0  0999 V2000
   20.8061  -12.8880    8.0161 C   0  0  0  0  0  0  0  0  0  0  0  0
   20.2595  -11.7963    7.1218 C   0  0  1  0  0  0  0  0  0  0  0  0
   21.1948  -10.8064    6.8646 O   0  0  0  0  0  0  0  0  0  0  0  0
   19.7542  -12.3393    5.8068 C   0  0  2  0  0  0  0  0  0  0  0  0
   19.3056  -11.3193    4.9056 N   0  0  0  0  0  0  0  0  0  0  0  0
   18.7452  -13.4126    6.0000 C   0  0  0  0  0  0  0  0  0  0  0  0
   17.5332  -13.0683    6.0499 O   0  0  0  0  0  0  0  0  0  0  0  0
   19.0530  -14.7685    6.1287 N   0  0  0  0  0  0  0  0  0  0  0  0
   17.9871  -15.8203    6.3111 C   0  0  1  0  0  0  0  0  0  0  0  0
   18.1158  -16.6605    5.1043 C   0  0  0  0  0  0  0  0  0  0  0  0
   17.6076  -16.2037    3.8295 C   0  0  0  0  0  0  0  0  0  0  0  0
   18.5252  -15.9959    2.7705 C   0  0  0  0  0  0  0  0  0  0  0  0
   17.8647  -15.5843    1.7051 N   0  0  0  0  0  0  0  0  0  0  0  0
   16.5680  -15.5167    2.0249 C   0  0  0  0  0  0  0  0  0  0  0  0
   16.4323  -15.8931    3.3074 N   0  0  0  0  0  0  0  0  0  0  0  0
   18.3156  -16.5403    7.5648 C   0  0  0  0  0  0  0  0  0  0  0  0
   19.5651  -16.6638    7.8514 O   0  0  0  0  0  0  0  0  0  0  0  0
   17.4177  -17.0999    8.4798 N   0  0  0  0  0  0  0  0  0  0  0  0
   17.8631  -17.7477    9.7254 C   0  0  1  0  0  0  0  0  0  0  0  0
   16.8577  -17.3568   10.7775 C   0  0  0  0  0  0  0  0  0  0  0  0
   17.1396  -17.8879   12.1443 C   0  0  0  0  0  0  0  0  0  0  0  0
   16.1138  -17.4482   13.1664 C   0  0  0  0  0  0  0  0  0  0  0  0
   16.4783  -17.9669   14.5328 C   0  0  0  0  0  0  0  0  0  0  0  0
   15.4980  -17.4929   15.4973 N   0  0  0  0  0  0  0  0  0  0  0  0
   17.9210  -19.2101    9.5383 C   0  0  0  0  0  0  0  0  0  0  0  0
   18.6855  -20.0672   10.2995 O   0  0  0  0  0  0  0  0  0  0  0  0
   17.2310  -19.7355    8.6211 O   0  0  0  0  0  0  0  0  0  0  0  0
  2  1  1  1
  2  3  1  0
  4  2  1  0
  4  5  1  6
  6  7  2  0
  6  4  1  0
  8  6  1  0
  9  8  1  0
  9 10  1  6
 11 10  1  0
 12 11  2  0
 13 14  1  0
 13 12  1  0
 14 15  2  0
 15 11  1  0
 16  9  1  0
 17 16  2  0
 18 16  1  0
 19 18  1  0
 19 20  1  1
 21 22  1  0
 21 20  1  0
 23 24  1  0
 23 22  1  0
 25 26  1  0
 25 19  1  0
 27 25  2  0
M  END
$$$$
