THK.pdb
     RDKit          3D

 27 27  0  0  1  0  0  0  0  0999 V2000
   17.7924  -11.5205  -18.3217 C   0  0  0  0  0  0  0  0  0  0  0  0
   17.4616  -12.7569  -17.5141 C   0  0  1  0  0  0  0  0  0  0  0  0
   16.5150  -13.5561  -18.1354 O   0  0  0  0  0  0  0  0  0  0  0  0
   18.6864  -13.5911  -17.2255 C   0  0  2  0  0  0  0  0  0  0  0  0
   18.3857  -14.8434  -16.5967 N   0  0  0  0  0  0  0  0  0  0  0  0
   19.7234  -12.8202  -16.4923 C   0  0  0  0  0  0  0  0  0  0  0  0
   19.4808  -12.5148  -15.2932 O   0  0  0  0  0  0  0  0  0  0  0  0
   20.9407  -12.4159  -17.0440 N   0  0  0  0  0  0  0  0  0  0  0  0
   21.9521  -11.6170  -16.2600 C   0  0  1  0  0  0  0  0  0  0  0  0
   23.2374  -11.9549  -16.9022 C   0  0  0  0  0  0  0  0  0  0  0  0
   24.4509  -11.2581  -16.5364 C   0  0  0  0  0  0  0  0  0  0  0  0
   25.2167  -11.7557  -15.4535 C   0  0  0  0  0  0  0  0  0  0  0  0
   26.2736  -10.9841  -15.2851 N   0  0  0  0  0  0  0  0  0  0  0  0
   26.2267  -10.0147  -16.2051 C   0  0  0  0  0  0  0  0  0  0  0  0
   25.1228  -10.1958  -16.9491 N   0  0  0  0  0  0  0  0  0  0  0  0
   21.5755  -10.1916  -16.4156 C   0  0  0  0  0  0  0  0  0  0  0  0
   21.1938   -9.8180  -17.5876 O   0  0  0  0  0  0  0  0  0  0  0  0
   21.5828   -9.2013  -15.4278 N   0  0  0  0  0  0  0  0  0  0  0  0
   21.2754   -7.7914  -15.7231 C   0  0  1  0  0  0  0  0  0  0  0  0
   19.7724   -7.6987  -15.7797 C   0  0  0  0  0  0  0  0  0  0  0  0
   19.2355   -6.3225  -15.9973 C   0  0  0  0  0  0  0  0  0  0  0  0
   17.7239   -6.2871  -16.0617 C   0  0  0  0  0  0  0  0  0  0  0  0
   17.2429   -4.8871  -16.3402 C   0  0  0  0  0  0  0  0  0  0  0  0
   15.8168   -4.9233  -16.6248 N   0  0  0  0  0  0  0  0  0  0  0  0
   21.8394   -6.9233  -14.6717 C   0  0  0  0  0  0  0  0  0  0  0  0
   22.4000   -7.3781  -13.4980 O   0  0  0  0  0  0  0  0  0  0  0  0
   21.8163   -5.6720  -14.8364 O   0  0  0  0  0  0  0  0  0  0  0  0
  2  1  1  6
  2  3  1  0
  4  2  1  0
  4  5  1  1
  6  7  2  0
  6  4  1  0
  8  6  1  0
  9  8  1  0
  9 10  1  6
 11 10  1  0
 12 11  2  0
 13 14  1  0
 13 12  1  0
 14 15  2  0
 15 11  1  0
 16  9  1  0
 17 16  2  0
 18 16  1  0
 19 18  1  0
 19 20  1  1
 21 22  1  0
 21 20  1  0
 23 24  1  0
 23 22  1  0
 25 26  1  0
 25 19  1  0
 27 25  2  0
M  END
$$$$
