QDQ.pdb
     RDKit          3D

 27 26  0  0  1  0  0  0  0  0999 V2000
   10.4956  -17.9165   15.5276 N   0  0  0  0  0  0  0  0  0  0  0  0
   11.0406  -16.6868   15.9514 C   0  0  0  0  0  0  0  0  0  0  0  0
   12.2826  -16.5481   15.9781 O   0  0  0  0  0  0  0  0  0  0  0  0
   10.1767  -15.5669   16.3618 C   0  0  0  0  0  0  0  0  0  0  0  0
   10.5019  -15.1774   17.7799 C   0  0  0  0  0  0  0  0  0  0  0  0
    9.2527  -14.8527   18.5751 C   0  0  2  0  0  0  0  0  0  0  0  0
    8.7675  -13.5263   18.2487 N   0  0  0  0  0  0  0  0  0  0  0  0
    9.4600  -14.9412   20.0192 C   0  0  0  0  0  0  0  0  0  0  0  0
    9.5639  -13.9030   20.7202 O   0  0  0  0  0  0  0  0  0  0  0  0
    9.5573  -16.1938   20.7243 N   0  0  0  0  0  0  0  0  0  0  0  0
    9.8293  -16.2346   22.1470 C   0  0  1  0  0  0  0  0  0  0  0  0
    9.5799  -17.6520   22.6086 C   0  0  0  0  0  0  0  0  0  0  0  0
    9.8610  -17.7765   24.0480 C   0  0  0  0  0  0  0  0  0  0  0  0
    9.9915  -16.6944   24.7213 O   0  0  0  0  0  0  0  0  0  0  0  0
   11.2606  -15.9383   22.4322 C   0  0  0  0  0  0  0  0  0  0  0  0
   11.6359  -14.9257   23.0762 O   0  0  0  0  0  0  0  0  0  0  0  0
   10.0030  -18.9329   24.7656 O   0  0  0  0  0  0  0  0  0  0  0  0
   16.1338  -14.7322   18.8148 N   0  0  0  0  0  0  0  0  0  0  0  0
   14.6995  -14.5239   18.9097 C   0  0  0  0  0  0  0  0  0  0  0  0
   14.2029  -13.5534   18.3053 O   0  0  0  0  0  0  0  0  0  0  0  0
   13.8724  -15.4409   19.7024 C   0  0  0  0  0  0  0  0  0  0  0  0
   14.0062  -15.3523   21.1617 C   0  0  0  0  0  0  0  0  0  0  0  0
   13.7014  -16.5236   22.0048 C   0  0  2  0  0  0  0  0  0  0  0  0
   12.2621  -16.8246   21.9658 N   0  0  0  0  0  0  0  0  0  0  0  0
   14.2906  -16.6455   23.3198 C   0  0  0  0  0  0  0  0  0  0  0  0
   15.6115  -16.5402   23.6525 O   0  0  0  0  0  0  0  0  0  0  0  0
   13.4781  -16.8797   24.2865 O   0  0  0  0  0  0  0  0  0  0  0  0
  2  1  1  0
  3  2  2  0
  4  2  1  0
  5  4  1  0
  6  5  1  0
  6  7  1  1
  8  6  1  0
  8  9  2  0
 10 11  1  0
 10  8  1  0
 11 12  1  6
 12 13  1  0
 13 17  1  0
 14 13  2  0
 15 11  1  0
 16 15  2  0
 19 18  1  0
 19 21  1  0
 20 19  2  0
 22 21  1  0
 23 22  1  1
 23 24  1  0
 24 15  1  0
 25 26  1  0
 25 23  1  0
 27 25  2  0
M  END
$$$$
