QDQ.pdb
     RDKit          3D

 27 26  0  0  1  0  0  0  0  0999 V2000
    6.6611  -12.4311   18.7992 N   0  0  0  0  0  0  0  0  0  0  0  0
    7.4135  -13.3323   18.0177 C   0  0  0  0  0  0  0  0  0  0  0  0
    6.9778  -13.6784   16.8985 O   0  0  0  0  0  0  0  0  0  0  0  0
    8.6985  -13.8712   18.4942 C   0  0  0  0  0  0  0  0  0  0  0  0
    8.6016  -14.1673   19.9678 C   0  0  0  0  0  0  0  0  0  0  0  0
    9.9656  -14.1855   20.6292 C   0  0  2  0  0  0  0  0  0  0  0  0
   11.0133  -14.3404   19.6395 N   0  0  0  0  0  0  0  0  0  0  0  0
   10.0971  -15.2425   21.6302 C   0  0  0  0  0  0  0  0  0  0  0  0
    9.2390  -15.3804   22.5384 O   0  0  0  0  0  0  0  0  0  0  0  0
   11.1923  -16.1783   21.6465 N   0  0  0  0  0  0  0  0  0  0  0  0
   11.2620  -17.2343   22.6362 C   0  0  1  0  0  0  0  0  0  0  0  0
   12.5055  -18.0412   22.3411 C   0  0  0  0  0  0  0  0  0  0  0  0
   12.5885  -19.1994   23.2455 C   0  0  0  0  0  0  0  0  0  0  0  0
   13.3578  -19.1002   24.2652 O   0  0  0  0  0  0  0  0  0  0  0  0
   11.4290  -16.6791   24.0079 C   0  0  0  0  0  0  0  0  0  0  0  0
   11.8472  -15.5142   24.2297 O   0  0  0  0  0  0  0  0  0  0  0  0
   11.9295  -20.3924   23.1236 O   0  0  0  0  0  0  0  0  0  0  0  0
    8.3121  -13.0743   26.2408 N   0  0  0  0  0  0  0  0  0  0  0  0
    8.7821  -13.9234   27.3213 C   0  0  0  0  0  0  0  0  0  0  0  0
    9.2440  -13.3776   28.3425 O   0  0  0  0  0  0  0  0  0  0  0  0
    8.7092  -15.3837   27.1963 C   0  0  0  0  0  0  0  0  0  0  0  0
    9.4681  -15.9879   26.0944 C   0  0  0  0  0  0  0  0  0  0  0  0
   10.5474  -16.9518   26.3808 C   0  0  2  0  0  0  0  0  0  0  0  0
   11.1079  -17.4830   25.1289 N   0  0  0  0  0  0  0  0  0  0  0  0
   10.3769  -17.9471   27.4159 C   0  0  0  0  0  0  0  0  0  0  0  0
   10.6046  -17.8019   28.7552 O   0  0  0  0  0  0  0  0  0  0  0  0
    9.9637  -19.1008   27.0317 O   0  0  0  0  0  0  0  0  0  0  0  0
  2  1  1  0
  3  2  2  0
  4  2  1  0
  5  4  1  0
  6  5  1  0
  6  7  1  6
  8  6  1  0
  8  9  2  0
 10 11  1  0
 10  8  1  0
 11 12  1  6
 12 13  1  0
 13 17  1  0
 14 13  2  0
 15 11  1  0
 16 15  2  0
 19 18  1  0
 19 21  1  0
 20 19  2  0
 22 21  1  0
 23 22  1  6
 23 24  1  0
 24 15  1  0
 25 26  1  0
 25 23  1  0
 27 25  2  0
M  END
$$$$
