QDQ.pdb
     RDKit          3D

 27 26  0  0  1  0  0  0  0  0999 V2000
   10.0824  -12.6878   19.6569 N   0  0  0  0  0  0  0  0  0  0  0  0
    8.8065  -12.8607   19.0815 C   0  0  0  0  0  0  0  0  0  0  0  0
    8.6842  -12.7915   17.8395 O   0  0  0  0  0  0  0  0  0  0  0  0
    7.6197  -13.1203   19.9139 C   0  0  0  0  0  0  0  0  0  0  0  0
    8.0472  -13.7554   21.2110 C   0  0  0  0  0  0  0  0  0  0  0  0
    8.1815  -15.2601   21.0836 C   0  0  2  0  0  0  0  0  0  0  0  0
    6.9116  -15.8596   20.7244 N   0  0  0  0  0  0  0  0  0  0  0  0
    8.6766  -15.8913   22.3055 C   0  0  0  0  0  0  0  0  0  0  0  0
    7.8805  -16.3812   23.1459 O   0  0  0  0  0  0  0  0  0  0  0  0
   10.0775  -15.9943   22.6252 N   0  0  0  0  0  0  0  0  0  0  0  0
   10.5221  -16.6132   23.8577 C   0  0  1  0  0  0  0  0  0  0  0  0
   11.9157  -17.1447   23.6129 C   0  0  0  0  0  0  0  0  0  0  0  0
   11.9000  -18.1343   22.5236 C   0  0  0  0  0  0  0  0  0  0  0  0
   11.0350  -19.0768   22.5926 O   0  0  0  0  0  0  0  0  0  0  0  0
   10.6335  -15.6127   24.9552 C   0  0  0  0  0  0  0  0  0  0  0  0
   11.4842  -14.6869   24.9550 O   0  0  0  0  0  0  0  0  0  0  0  0
   12.7159  -18.1681   21.4256 O   0  0  0  0  0  0  0  0  0  0  0  0
    6.0497  -12.7366   27.6381 N   0  0  0  0  0  0  0  0  0  0  0  0
    6.5783  -12.9323   26.2996 C   0  0  0  0  0  0  0  0  0  0  0  0
    5.9016  -12.5297   25.3332 O   0  0  0  0  0  0  0  0  0  0  0  0
    7.8759  -13.5905   26.1084 C   0  0  0  0  0  0  0  0  0  0  0  0
    8.6046  -13.9728   27.3242 C   0  0  0  0  0  0  0  0  0  0  0  0
    9.8242  -14.7969   27.2271 C   0  0  2  0  0  0  0  0  0  0  0  0
    9.7504  -15.6889   26.0599 N   0  0  0  0  0  0  0  0  0  0  0  0
   10.3746  -15.4221   28.4092 C   0  0  0  0  0  0  0  0  0  0  0  0
   10.6908  -16.7399   28.5826 O   0  0  0  0  0  0  0  0  0  0  0  0
   10.5912  -14.6492   29.4118 O   0  0  0  0  0  0  0  0  0  0  0  0
  2  1  1  0
  3  2  2  0
  4  2  1  0
  5  4  1  0
  6  5  1  0
  6  7  1  1
  8  6  1  0
  8  9  2  0
 10 11  1  0
 10  8  1  0
 11 12  1  6
 12 13  1  0
 13 17  1  0
 14 13  2  0
 15 11  1  0
 16 15  2  0
 19 18  1  0
 19 21  1  0
 20 19  2  0
 22 21  1  0
 23 22  1  1
 23 24  1  0
 24 15  1  0
 25 26  1  0
 25 23  1  0
 27 25  2  0
M  END
$$$$
