QDQ.pdb
     RDKit          3D

 27 26  0  0  1  0  0  0  0  0999 V2000
    7.2840  -15.1735   16.1656 N   0  0  0  0  0  0  0  0  0  0  0  0
    8.0449  -14.2567   16.9202 C   0  0  0  0  0  0  0  0  0  0  0  0
    9.2895  -14.2576   16.8042 O   0  0  0  0  0  0  0  0  0  0  0  0
    7.4027  -13.3017   17.8390 C   0  0  0  0  0  0  0  0  0  0  0  0
    7.0469  -14.0043   19.1229 C   0  0  0  0  0  0  0  0  0  0  0  0
    8.0334  -13.6878   20.2297 C   0  0  2  0  0  0  0  0  0  0  0  0
    9.2287  -13.0703   19.6901 N   0  0  0  0  0  0  0  0  0  0  0  0
    8.4155  -14.8672   21.0039 C   0  0  0  0  0  0  0  0  0  0  0  0
    7.5472  -15.5647   21.5867 O   0  0  0  0  0  0  0  0  0  0  0  0
    9.7808  -15.3034   21.1501 N   0  0  0  0  0  0  0  0  0  0  0  0
   10.1345  -16.3655   22.0700 C   0  0  1  0  0  0  0  0  0  0  0  0
   11.5104  -16.8543   21.6797 C   0  0  0  0  0  0  0  0  0  0  0  0
   11.9022  -17.9985   22.5186 C   0  0  0  0  0  0  0  0  0  0  0  0
   12.0294  -17.7937   23.7769 O   0  0  0  0  0  0  0  0  0  0  0  0
   10.2419  -15.8579   23.4659 C   0  0  0  0  0  0  0  0  0  0  0  0
   11.1858  -15.1258   23.8583 O   0  0  0  0  0  0  0  0  0  0  0  0
   12.1521  -19.2790   22.1060 O   0  0  0  0  0  0  0  0  0  0  0  0
    7.5484  -11.6783   26.0427 N   0  0  0  0  0  0  0  0  0  0  0  0
    6.6700  -12.8029   26.3129 C   0  0  0  0  0  0  0  0  0  0  0  0
    5.4798  -12.5667   26.5986 O   0  0  0  0  0  0  0  0  0  0  0  0
    7.1874  -14.1746   26.2487 C   0  0  0  0  0  0  0  0  0  0  0  0
    8.5739  -14.3335   25.7930 C   0  0  0  0  0  0  0  0  0  0  0  0
    9.2001  -15.6691   25.7814 C   0  0  2  0  0  0  0  0  0  0  0  0
    9.2459  -16.2035   24.4117 N   0  0  0  0  0  0  0  0  0  0  0  0
    8.8398  -16.6492   26.7816 C   0  0  0  0  0  0  0  0  0  0  0  0
    8.2775  -17.8776   26.5780 O   0  0  0  0  0  0  0  0  0  0  0  0
    9.0756  -16.3278   28.0025 O   0  0  0  0  0  0  0  0  0  0  0  0
  2  1  1  0
  3  2  2  0
  4  2  1  0
  5  4  1  0
  6  5  1  0
  6  7  1  6
  8  6  1  0
  8  9  2  0
 10 11  1  0
 10  8  1  0
 11 12  1  6
 12 13  1  0
 13 17  1  0
 14 13  2  0
 15 11  1  0
 16 15  2  0
 19 18  1  0
 19 21  1  0
 20 19  2  0
 22 21  1  0
 23 22  1  6
 23 24  1  0
 24 15  1  0
 25 26  1  0
 25 23  1  0
 27 25  2  0
M  END
$$$$
