QDQ.pdb
     RDKit          3D

 27 26  0  0  1  0  0  0  0  0999 V2000
   14.9178  -14.5535   18.7636 N   0  0  0  0  0  0  0  0  0  0  0  0
   14.4223  -13.9704   19.9482 C   0  0  0  0  0  0  0  0  0  0  0  0
   15.2125  -13.3699   20.7081 O   0  0  0  0  0  0  0  0  0  0  0  0
   12.9961  -14.0555   20.3054 C   0  0  0  0  0  0  0  0  0  0  0  0
   12.2543  -14.8037   19.2291 C   0  0  0  0  0  0  0  0  0  0  0  0
   10.7667  -14.8706   19.5132 C   0  0  2  0  0  0  0  0  0  0  0  0
   10.1597  -13.5611   19.3789 N   0  0  0  0  0  0  0  0  0  0  0  0
   10.4657  -15.4001   20.8419 C   0  0  0  0  0  0  0  0  0  0  0  0
    9.9280  -14.6762   21.7175 O   0  0  0  0  0  0  0  0  0  0  0  0
   10.7567  -16.7560   21.2324 N   0  0  0  0  0  0  0  0  0  0  0  0
   10.3657  -17.2625   22.5325 C   0  0  1  0  0  0  0  0  0  0  0  0
   10.0186  -18.7229   22.3566 C   0  0  0  0  0  0  0  0  0  0  0  0
    9.6400  -19.3164   23.6492 C   0  0  0  0  0  0  0  0  0  0  0  0
    9.0924  -18.5478   24.5156 O   0  0  0  0  0  0  0  0  0  0  0  0
   11.4987  -17.2062   23.4973 C   0  0  0  0  0  0  0  0  0  0  0  0
   12.3928  -18.0883   23.5568 O   0  0  0  0  0  0  0  0  0  0  0  0
    9.8075  -20.6162   24.0429 O   0  0  0  0  0  0  0  0  0  0  0  0
    9.7380  -13.4564   27.9742 N   0  0  0  0  0  0  0  0  0  0  0  0
    9.9628  -14.6979   28.6936 C   0  0  0  0  0  0  0  0  0  0  0  0
    9.8789  -14.6828   29.9373 O   0  0  0  0  0  0  0  0  0  0  0  0
   10.2812  -15.9280   27.9595 C   0  0  0  0  0  0  0  0  0  0  0  0
   10.4458  -15.8023   26.5061 C   0  0  0  0  0  0  0  0  0  0  0  0
   11.6850  -16.2725   25.8587 C   0  0  2  0  0  0  0  0  0  0  0  0
   11.5930  -16.1179   24.3988 N   0  0  0  0  0  0  0  0  0  0  0  0
   12.2995  -17.5120   26.2796 C   0  0  0  0  0  0  0  0  0  0  0  0
   11.6985  -18.7299   26.4282 O   0  0  0  0  0  0  0  0  0  0  0  0
   13.5553  -17.4621   26.5442 O   0  0  0  0  0  0  0  0  0  0  0  0
  2  1  1  0
  3  2  2  0
  4  2  1  0
  5  4  1  0
  6  5  1  0
  6  7  1  1
  8  6  1  0
  8  9  2  0
 10 11  1  0
 10  8  1  0
 11 12  1  6
 12 13  1  0
 13 17  1  0
 14 13  2  0
 15 11  1  0
 16 15  2  0
 19 18  1  0
 19 21  1  0
 20 19  2  0
 22 21  1  0
 23 22  1  1
 23 24  1  0
 24 15  1  0
 25 26  1  0
 25 23  1  0
 27 25  2  0
M  END
$$$$
