QDQ.pdb
     RDKit          3D

 27 26  0  0  1  0  0  0  0  0999 V2000
    7.4668  -12.2002   18.1999 N   0  0  0  0  0  0  0  0  0  0  0  0
    7.7349  -13.4907   17.6983 C   0  0  0  0  0  0  0  0  0  0  0  0
    7.6389  -13.6985   16.4695 O   0  0  0  0  0  0  0  0  0  0  0  0
    8.1244  -14.5942   18.5924 C   0  0  0  0  0  0  0  0  0  0  0  0
    9.6153  -14.7958   18.5187 C   0  0  0  0  0  0  0  0  0  0  0  0
   10.0829  -15.8875   19.4610 C   0  0  2  0  0  0  0  0  0  0  0  0
    9.4421  -17.1483   19.1432 N   0  0  0  0  0  0  0  0  0  0  0  0
    9.8355  -15.5691   20.8659 C   0  0  0  0  0  0  0  0  0  0  0  0
   10.2177  -14.4766   21.3561 O   0  0  0  0  0  0  0  0  0  0  0  0
    9.1527  -16.4628   21.7662 N   0  0  0  0  0  0  0  0  0  0  0  0
    8.9766  -16.1284   23.1650 C   0  0  1  0  0  0  0  0  0  0  0  0
    7.5365  -16.4232   23.5167 C   0  0  0  0  0  0  0  0  0  0  0  0
    7.1517  -15.6996   24.7392 C   0  0  0  0  0  0  0  0  0  0  0  0
    8.0242  -14.9246   25.2678 O   0  0  0  0  0  0  0  0  0  0  0  0
    9.8153  -16.9960   24.0377 C   0  0  0  0  0  0  0  0  0  0  0  0
    9.6947  -18.2469   24.0797 O   0  0  0  0  0  0  0  0  0  0  0  0
    5.9500  -15.7583   25.3910 O   0  0  0  0  0  0  0  0  0  0  0  0
   10.5728  -13.5562   28.8977 N   0  0  0  0  0  0  0  0  0  0  0  0
   10.4547  -14.8813   29.4803 C   0  0  0  0  0  0  0  0  0  0  0  0
   10.4928  -14.9856   30.7220 O   0  0  0  0  0  0  0  0  0  0  0  0
   10.2972  -16.0558   28.6148 C   0  0  0  0  0  0  0  0  0  0  0  0
   10.3347  -15.8153   27.1670 C   0  0  0  0  0  0  0  0  0  0  0  0
   11.0107  -16.7760   26.2749 C   0  0  2  0  0  0  0  0  0  0  0  0
   10.8004  -16.4060   24.8669 N   0  0  0  0  0  0  0  0  0  0  0  0
   10.9131  -18.1962   26.5290 C   0  0  0  0  0  0  0  0  0  0  0  0
   11.6148  -18.9276   27.4451 O   0  0  0  0  0  0  0  0  0  0  0  0
   10.0691  -18.8449   25.8103 O   0  0  0  0  0  0  0  0  0  0  0  0
  2  1  1  0
  3  2  2  0
  4  2  1  0
  5  4  1  0
  6  5  1  0
  6  7  1  6
  8  6  1  0
  8  9  2  0
 10 11  1  0
 10  8  1  0
 11 12  1  1
 12 13  1  0
 13 17  1  0
 14 13  2  0
 15 11  1  0
 16 15  2  0
 19 18  1  0
 19 21  1  0
 20 19  2  0
 22 21  1  0
 23 22  1  1
 23 24  1  0
 24 15  1  0
 25 26  1  0
 25 23  1  0
 27 25  2  0
M  END
$$$$
