QDQ.pdb
     RDKit          3D

 27 26  0  0  1  0  0  0  0  0999 V2000
   13.7826  -15.4965   16.0742 N   0  0  0  0  0  0  0  0  0  0  0  0
   13.4713  -14.6970   17.1935 C   0  0  0  0  0  0  0  0  0  0  0  0
   13.7232  -13.4732   17.1566 O   0  0  0  0  0  0  0  0  0  0  0  0
   12.8571  -15.2751   18.4007 C   0  0  0  0  0  0  0  0  0  0  0  0
   13.3465  -14.5322   19.6161 C   0  0  0  0  0  0  0  0  0  0  0  0
   13.8305  -15.4785   20.6971 C   0  0  2  0  0  0  0  0  0  0  0  0
   14.4221  -16.6655   20.1122 N   0  0  0  0  0  0  0  0  0  0  0  0
   12.7681  -15.8805   21.6169 C   0  0  0  0  0  0  0  0  0  0  0  0
   12.0526  -15.0208   22.1905 O   0  0  0  0  0  0  0  0  0  0  0  0
   12.4728  -17.2568   21.9237 N   0  0  0  0  0  0  0  0  0  0  0  0
   11.5023  -17.6070   22.9411 C   0  0  1  0  0  0  0  0  0  0  0  0
   11.0781  -19.0342   22.6808 C   0  0  0  0  0  0  0  0  0  0  0  0
   10.0177  -19.4306   23.6215 C   0  0  0  0  0  0  0  0  0  0  0  0
    9.0687  -18.5955   23.8297 O   0  0  0  0  0  0  0  0  0  0  0  0
   12.1115  -17.5838   24.2998 C   0  0  0  0  0  0  0  0  0  0  0  0
   12.7751  -18.5428   24.7699 O   0  0  0  0  0  0  0  0  0  0  0  0
    9.9239  -20.6073   24.3136 O   0  0  0  0  0  0  0  0  0  0  0  0
    9.1609  -13.4761   28.0172 N   0  0  0  0  0  0  0  0  0  0  0  0
    9.8647  -14.2822   28.9992 C   0  0  0  0  0  0  0  0  0  0  0  0
    9.6434  -14.0673   30.2070 O   0  0  0  0  0  0  0  0  0  0  0  0
   10.8095  -15.3169   28.5630 C   0  0  0  0  0  0  0  0  0  0  0  0
   11.0667  -15.4064   27.1204 C   0  0  0  0  0  0  0  0  0  0  0  0
   11.9240  -16.4818   26.5873 C   0  0  2  0  0  0  0  0  0  0  0  0
   11.9484  -16.4388   25.1172 N   0  0  0  0  0  0  0  0  0  0  0  0
   11.8378  -17.8179   27.1336 C   0  0  0  0  0  0  0  0  0  0  0  0
   10.7563  -18.6528   27.1230 O   0  0  0  0  0  0  0  0  0  0  0  0
   12.9007  -18.2722   27.6934 O   0  0  0  0  0  0  0  0  0  0  0  0
  2  1  1  0
  3  2  2  0
  4  2  1  0
  5  4  1  0
  6  5  1  0
  6  7  1  6
  8  6  1  0
  8  9  2  0
 10 11  1  0
 10  8  1  0
 11 12  1  6
 12 13  1  0
 13 17  1  0
 14 13  2  0
 15 11  1  0
 16 15  2  0
 19 18  1  0
 19 21  1  0
 20 19  2  0
 22 21  1  0
 23 22  1  6
 23 24  1  0
 24 15  1  0
 25 26  1  0
 25 23  1  0
 27 25  2  0
M  END
$$$$
