QDQ.pdb
     RDKit          3D

 27 26  0  0  1  0  0  0  0  0999 V2000
    7.3088  -11.9562   19.1495 N   0  0  0  0  0  0  0  0  0  0  0  0
    8.0522  -12.5350   20.1989 C   0  0  0  0  0  0  0  0  0  0  0  0
    8.4362  -11.8124   21.1438 O   0  0  0  0  0  0  0  0  0  0  0  0
    8.3833  -13.9700   20.2021 C   0  0  0  0  0  0  0  0  0  0  0  0
    7.8733  -14.6043   18.9348 C   0  0  0  0  0  0  0  0  0  0  0  0
    8.9068  -14.5580   17.8267 C   0  0  2  0  0  0  0  0  0  0  0  0
    8.4437  -15.2875   16.6628 N   0  0  0  0  0  0  0  0  0  0  0  0
   10.2039  -15.0921   18.2376 C   0  0  0  0  0  0  0  0  0  0  0  0
   10.3240  -16.2927   18.5902 O   0  0  0  0  0  0  0  0  0  0  0  0
   11.4069  -14.3001   18.2667 N   0  0  0  0  0  0  0  0  0  0  0  0
   12.6846  -14.8891   18.6133 C   0  0  1  0  0  0  0  0  0  0  0  0
   13.7544  -14.0685   17.9303 C   0  0  0  0  0  0  0  0  0  0  0  0
   15.0418  -14.7812   17.9620 C   0  0  0  0  0  0  0  0  0  0  0  0
   15.0860  -15.8957   18.5923 O   0  0  0  0  0  0  0  0  0  0  0  0
   12.9437  -14.7951   20.0768 C   0  0  0  0  0  0  0  0  0  0  0  0
   13.1218  -13.7023   20.6726 O   0  0  0  0  0  0  0  0  0  0  0  0
   16.2195  -14.3867   17.3877 O   0  0  0  0  0  0  0  0  0  0  0  0
   10.6152  -18.5820   24.3955 N   0  0  0  0  0  0  0  0  0  0  0  0
   11.6089  -17.8580   25.1688 C   0  0  0  0  0  0  0  0  0  0  0  0
   11.6588  -18.0562   26.3985 O   0  0  0  0  0  0  0  0  0  0  0  0
   12.5207  -16.9202   24.5036 C   0  0  0  0  0  0  0  0  0  0  0  0
   12.3708  -16.7765   23.0502 C   0  0  0  0  0  0  0  0  0  0  0  0
   13.3628  -16.0059   22.2770 C   0  0  2  0  0  0  0  0  0  0  0  0
   12.9961  -15.9788   20.8527 N   0  0  0  0  0  0  0  0  0  0  0  0
   14.7764  -16.1960   22.5150 C   0  0  0  0  0  0  0  0  0  0  0  0
   15.6594  -15.2970   23.0430 O   0  0  0  0  0  0  0  0  0  0  0  0
   15.2574  -17.3425   22.1929 O   0  0  0  0  0  0  0  0  0  0  0  0
  2  1  1  0
  3  2  2  0
  4  2  1  0
  5  4  1  0
  6  5  1  0
  6  7  1  6
  8  6  1  0
  8  9  2  0
 10 11  1  0
 10  8  1  0
 11 12  1  6
 12 13  1  0
 13 17  1  0
 14 13  2  0
 15 11  1  0
 16 15  2  0
 19 18  1  0
 19 21  1  0
 20 19  2  0
 22 21  1  0
 23 22  1  1
 23 24  1  0
 24 15  1  0
 25 26  1  0
 25 23  1  0
 27 25  2  0
M  END
$$$$
