QDQ.pdb
     RDKit          3D

 27 26  0  0  1  0  0  0  0  0999 V2000
    7.1078  -12.7496   17.5873 N   0  0  0  0  0  0  0  0  0  0  0  0
    7.1722  -14.1429   17.3787 C   0  0  0  0  0  0  0  0  0  0  0  0
    6.9970  -14.5948   16.2265 O   0  0  0  0  0  0  0  0  0  0  0  0
    7.4411  -15.0721   18.4892 C   0  0  0  0  0  0  0  0  0  0  0  0
    7.3092  -14.3390   19.7983 C   0  0  0  0  0  0  0  0  0  0  0  0
    8.6497  -14.1684   20.4855 C   0  0  2  0  0  0  0  0  0  0  0  0
    9.7363  -14.3928   19.5526 N   0  0  0  0  0  0  0  0  0  0  0  0
    8.8167  -15.0583   21.6329 C   0  0  0  0  0  0  0  0  0  0  0  0
    7.9456  -15.1141   22.5374 O   0  0  0  0  0  0  0  0  0  0  0  0
    9.9633  -15.9136   21.8043 N   0  0  0  0  0  0  0  0  0  0  0  0
   10.0872  -16.7795   22.9595 C   0  0  1  0  0  0  0  0  0  0  0  0
   11.3056  -17.6463   22.7389 C   0  0  0  0  0  0  0  0  0  0  0  0
   11.4395  -18.6249   23.8301 C   0  0  0  0  0  0  0  0  0  0  0  0
   11.2991  -19.8636   23.5348 O   0  0  0  0  0  0  0  0  0  0  0  0
   10.3411  -15.9938   24.1989 C   0  0  0  0  0  0  0  0  0  0  0  0
   11.0227  -14.9373   24.2132 O   0  0  0  0  0  0  0  0  0  0  0  0
   11.7004  -18.3634   25.1477 O   0  0  0  0  0  0  0  0  0  0  0  0
    6.3729  -12.7948   25.1830 N   0  0  0  0  0  0  0  0  0  0  0  0
    6.9519  -12.5847   26.4983 C   0  0  0  0  0  0  0  0  0  0  0  0
    6.5646  -11.6044   27.1639 O   0  0  0  0  0  0  0  0  0  0  0  0
    7.9666  -13.5111   27.0136 C   0  0  0  0  0  0  0  0  0  0  0  0
    8.4565  -14.5343   26.0817 C   0  0  0  0  0  0  0  0  0  0  0  0
    9.4366  -15.5391   26.5350 C   0  0  2  0  0  0  0  0  0  0  0  0
    9.7992  -16.4390   25.4294 N   0  0  0  0  0  0  0  0  0  0  0  0
    9.2551  -16.2110   27.8026 C   0  0  0  0  0  0  0  0  0  0  0  0
    9.4416  -15.6929   29.0529 O   0  0  0  0  0  0  0  0  0  0  0  0
    8.8747  -17.4364   27.7464 O   0  0  0  0  0  0  0  0  0  0  0  0
  2  1  1  0
  3  2  2  0
  4  2  1  0
  5  4  1  0
  6  5  1  0
  6  7  1  6
  8  6  1  0
  8  9  2  0
 10 11  1  0
 10  8  1  0
 11 12  1  6
 12 13  1  0
 13 17  1  0
 14 13  2  0
 15 11  1  0
 16 15  2  0
 19 18  1  0
 19 21  1  0
 20 19  2  0
 22 21  1  0
 23 22  1  6
 23 24  1  0
 24 15  1  0
 25 26  1  0
 25 23  1  0
 27 25  2  0
M  END
$$$$
