QKD.pdb
     RDKit          3D

 27 26  0  0  1  0  0  0  0  0999 V2000
   26.9357  -10.6521  -15.2753 N   0  0  0  0  0  0  0  0  0  0  0  0
   26.6681  -11.8510  -16.0057 C   0  0  0  0  0  0  0  0  0  0  0  0
   27.6496  -12.5003  -16.4259 O   0  0  0  0  0  0  0  0  0  0  0  0
   25.2915  -12.3134  -16.2616 C   0  0  0  0  0  0  0  0  0  0  0  0
   24.3268  -11.3312  -15.6445 C   0  0  0  0  0  0  0  0  0  0  0  0
   22.8994  -11.7741  -15.8043 C   0  0  2  0  0  0  0  0  0  0  0  0
   22.7519  -12.8265  -16.7842 N   0  0  0  0  0  0  0  0  0  0  0  0
   22.0956  -10.5576  -16.1883 C   0  0  0  0  0  0  0  0  0  0  0  0
   21.9353  -10.3175  -17.3992 O   0  0  0  0  0  0  0  0  0  0  0  0
   21.5871   -9.7865  -15.1236 N   0  0  0  0  0  0  0  0  0  0  0  0
   20.7479   -8.6084  -15.4429 C   0  0  1  0  0  0  0  0  0  0  0  0
   19.4429   -8.8514  -14.7921 C   0  0  0  0  0  0  0  0  0  0  0  0
   19.3998   -8.8864  -13.3029 C   0  0  0  0  0  0  0  0  0  0  0  0
   18.0142   -9.1610  -12.7631 C   0  0  0  0  0  0  0  0  0  0  0  0
   17.9524   -9.1164  -11.2591 C   0  0  0  0  0  0  0  0  0  0  0  0
   16.6645   -9.3780  -10.6992 N   0  0  0  0  0  0  0  0  0  0  0  0
   21.5008   -7.4127  -15.0207 C   0  0  0  0  0  0  0  0  0  0  0  0
   22.3703   -7.5030  -14.0856 O   0  0  0  0  0  0  0  0  0  0  0  0
   21.3117   -6.1399  -15.6124 N   0  0  0  0  0  0  0  0  0  0  0  0
   22.0767   -5.0176  -15.1164 C   0  0  1  0  0  0  0  0  0  0  0  0
   22.2277   -3.9187  -16.1391 C   0  0  0  0  0  0  0  0  0  0  0  0
   22.8775   -4.4820  -17.3511 C   0  0  0  0  0  0  0  0  0  0  0  0
   23.8298   -5.3320  -17.2285 O   0  0  0  0  0  0  0  0  0  0  0  0
   21.6311   -4.5178  -13.8056 C   0  0  0  0  0  0  0  0  0  0  0  0
   22.4212   -3.5830  -13.1533 O   0  0  0  0  0  0  0  0  0  0  0  0
   22.5038   -4.1372  -18.6468 O   0  0  0  0  0  0  0  0  0  0  0  0
   20.5635   -4.9385  -13.3130 O   0  0  0  0  0  0  0  0  0  0  0  0
  2  1  1  0
  3  2  2  0
  4  2  1  0
  5  4  1  0
  6  5  1  0
  6  7  1  6
  8  6  1  0
  8 10  1  0
  9  8  2  0
 11 10  1  0
 11 12  1  1
 13 14  1  0
 13 12  1  0
 15 14  1  0
 16 15  1  0
 17 11  1  0
 18 17  2  0
 19 17  1  0
 20 24  1  0
 20 19  1  0
 21 22  1  0
 20 21  1  6
 22 26  1  0
 23 22  2  0
 24 25  1  0
 27 24  2  0
M  END
$$$$
