QKD.pdb
     RDKit          3D

 27 26  0  0  1  0  0  0  0  0999 V2000
   17.3155   -9.9319  -19.6688 N   0  0  0  0  0  0  0  0  0  0  0  0
   16.0495  -10.4805  -19.2963 C   0  0  0  0  0  0  0  0  0  0  0  0
   15.2395  -10.7335  -20.2135 O   0  0  0  0  0  0  0  0  0  0  0  0
   15.7003  -10.7408  -17.8875 C   0  0  0  0  0  0  0  0  0  0  0  0
   16.8451  -10.2931  -17.0128 C   0  0  0  0  0  0  0  0  0  0  0  0
   17.9346  -11.3263  -16.9457 C   0  0  2  0  0  0  0  0  0  0  0  0
   17.4538  -12.6099  -16.4866 N   0  0  0  0  0  0  0  0  0  0  0  0
   19.0041  -10.7874  -16.0297 C   0  0  0  0  0  0  0  0  0  0  0  0
   18.7495  -10.7046  -14.8139 O   0  0  0  0  0  0  0  0  0  0  0  0
   20.2194  -10.4190  -16.6413 N   0  0  0  0  0  0  0  0  0  0  0  0
   21.2926   -9.8502  -15.7935 C   0  0  1  0  0  0  0  0  0  0  0  0
   22.5386  -10.5315  -16.2047 C   0  0  0  0  0  0  0  0  0  0  0  0
   23.8161  -10.0923  -15.5756 C   0  0  0  0  0  0  0  0  0  0  0  0
   25.0078  -10.8952  -16.0468 C   0  0  0  0  0  0  0  0  0  0  0  0
   26.3083  -10.4107  -15.4624 C   0  0  0  0  0  0  0  0  0  0  0  0
   27.4764  -11.0611  -15.9654 N   0  0  0  0  0  0  0  0  0  0  0  0
   21.2400   -8.3851  -15.9527 C   0  0  0  0  0  0  0  0  0  0  0  0
   21.2355   -7.8700  -17.1246 O   0  0  0  0  0  0  0  0  0  0  0  0
   21.1884   -7.4962  -14.8512 N   0  0  0  0  0  0  0  0  0  0  0  0
   21.2287   -6.0723  -15.0994 C   0  0  1  0  0  0  0  0  0  0  0  0
   19.8544   -5.4699  -15.2571 C   0  0  0  0  0  0  0  0  0  0  0  0
   19.9987   -4.0110  -15.5004 C   0  0  0  0  0  0  0  0  0  0  0  0
   20.3322   -3.5876  -16.6640 O   0  0  0  0  0  0  0  0  0  0  0  0
   22.0748   -5.3209  -14.1581 C   0  0  0  0  0  0  0  0  0  0  0  0
   22.6846   -4.1578  -14.6041 O   0  0  0  0  0  0  0  0  0  0  0  0
   19.7851   -3.0491  -14.5174 O   0  0  0  0  0  0  0  0  0  0  0  0
   22.2243   -5.7389  -12.9909 O   0  0  0  0  0  0  0  0  0  0  0  0
  2  1  1  0
  3  2  2  0
  4  2  1  0
  5  4  1  0
  6  5  1  0
  6  7  1  1
  8  6  1  0
  8 10  1  0
  9  8  2  0
 11 10  1  0
 11 12  1  6
 13 14  1  0
 13 12  1  0
 15 14  1  0
 16 15  1  0
 17 11  1  0
 18 17  2  0
 19 17  1  0
 20 24  1  0
 20 19  1  0
 21 22  1  0
 20 21  1  1
 22 26  1  0
 23 22  2  0
 24 25  1  0
 27 24  2  0
M  END
$$$$
