QKD.pdb
     RDKit          3D

 27 26  0  0  1  0  0  0  0  0999 V2000
   26.5311  -12.8143  -15.0755 N   0  0  0  0  0  0  0  0  0  0  0  0
   26.6452  -14.1564  -15.5530 C   0  0  0  0  0  0  0  0  0  0  0  0
   27.6033  -14.8383  -15.1304 O   0  0  0  0  0  0  0  0  0  0  0  0
   25.6771  -14.7254  -16.5088 C   0  0  0  0  0  0  0  0  0  0  0  0
   24.6023  -13.7017  -16.7787 C   0  0  0  0  0  0  0  0  0  0  0  0
   23.3983  -13.9113  -15.9036 C   0  0  2  0  0  0  0  0  0  0  0  0
   22.9019  -15.2678  -15.9594 N   0  0  0  0  0  0  0  0  0  0  0  0
   22.3458  -12.9288  -16.3509 C   0  0  0  0  0  0  0  0  0  0  0  0
   22.6405  -12.1213  -17.2515 O   0  0  0  0  0  0  0  0  0  0  0  0
   21.0989  -13.0131  -15.6992 N   0  0  0  0  0  0  0  0  0  0  0  0
   20.0215  -12.0847  -16.1133 C   0  0  1  0  0  0  0  0  0  0  0  0
   18.7513  -12.7531  -15.7586 C   0  0  0  0  0  0  0  0  0  0  0  0
   17.4771  -12.0645  -16.1091 C   0  0  0  0  0  0  0  0  0  0  0  0
   16.2533  -12.8468  -15.6884 C   0  0  0  0  0  0  0  0  0  0  0  0
   14.9653  -12.1895  -16.1087 C   0  0  0  0  0  0  0  0  0  0  0  0
   13.7854  -12.9524  -15.8510 N   0  0  0  0  0  0  0  0  0  0  0  0
   20.3011  -10.7845  -15.4763 C   0  0  0  0  0  0  0  0  0  0  0  0
   20.6979  -10.7416  -14.2599 O   0  0  0  0  0  0  0  0  0  0  0  0
   20.1549   -9.5509  -16.1566 N   0  0  0  0  0  0  0  0  0  0  0  0
   20.4298   -8.3228  -15.4445 C   0  0  1  0  0  0  0  0  0  0  0  0
   21.0889   -7.2808  -16.3142 C   0  0  0  0  0  0  0  0  0  0  0  0
   22.5481   -7.5574  -16.3661 C   0  0  0  0  0  0  0  0  0  0  0  0
   23.0418   -8.5146  -15.6701 O   0  0  0  0  0  0  0  0  0  0  0  0
   19.2806   -7.7927  -14.6930 C   0  0  0  0  0  0  0  0  0  0  0  0
   19.5070   -6.7868  -13.7654 O   0  0  0  0  0  0  0  0  0  0  0  0
   23.4360   -6.8239  -17.1478 O   0  0  0  0  0  0  0  0  0  0  0  0
   18.1384   -8.2519  -14.9032 O   0  0  0  0  0  0  0  0  0  0  0  0
  2  1  1  0
  3  2  2  0
  4  2  1  0
  5  4  1  0
  6  5  1  0
  6  7  1  6
  8  6  1  0
  8 10  1  0
  9  8  2  0
 11 10  1  0
 11 12  1  1
 13 14  1  0
 13 12  1  0
 15 14  1  0
 16 15  1  0
 17 11  1  0
 18 17  2  0
 19 17  1  0
 20 24  1  0
 20 19  1  0
 21 22  1  0
 20 21  1  6
 22 26  1  0
 23 22  2  0
 24 25  1  0
 27 24  2  0
M  END
$$$$
