QKD.pdb
     RDKit          3D

 27 26  0  0  1  0  0  0  0  0999 V2000
   28.1565  -23.6589  -16.9840 N   0  0  0  0  0  0  0  0  0  0  0  0
   28.9909  -22.8911  -16.1142 C   0  0  0  0  0  0  0  0  0  0  0  0
   30.0112  -23.4481  -15.6556 O   0  0  0  0  0  0  0  0  0  0  0  0
   28.6700  -21.4955  -15.7624 C   0  0  0  0  0  0  0  0  0  0  0  0
   27.3840  -21.1054  -16.4480 C   0  0  0  0  0  0  0  0  0  0  0  0
   26.9577  -19.7106  -16.0848 C   0  0  2  0  0  0  0  0  0  0  0  0
   27.1186  -19.4309  -14.6758 N   0  0  0  0  0  0  0  0  0  0  0  0
   25.5183  -19.5601  -16.5077 C   0  0  0  0  0  0  0  0  0  0  0  0
   25.2359  -19.7423  -17.7064 O   0  0  0  0  0  0  0  0  0  0  0  0
   24.6032  -19.2213  -15.4906 N   0  0  0  0  0  0  0  0  0  0  0  0
   23.1802  -19.0315  -15.8555 C   0  0  1  0  0  0  0  0  0  0  0  0
   22.3984  -19.7570  -14.8318 C   0  0  0  0  0  0  0  0  0  0  0  0
   20.9125  -19.7384  -14.9434 C   0  0  0  0  0  0  0  0  0  0  0  0
   20.2388  -20.6611  -13.9527 C   0  0  0  0  0  0  0  0  0  0  0  0
   18.7461  -20.7307  -14.1390 C   0  0  0  0  0  0  0  0  0  0  0  0
   18.0560  -21.5451  -13.1898 N   0  0  0  0  0  0  0  0  0  0  0  0
   22.9534  -17.5792  -15.9746 C   0  0  0  0  0  0  0  0  0  0  0  0
   23.4113  -16.7860  -15.0803 O   0  0  0  0  0  0  0  0  0  0  0  0
   22.2425  -17.0009  -17.0546 N   0  0  0  0  0  0  0  0  0  0  0  0
   22.0378  -15.5696  -17.0704 C   0  0  1  0  0  0  0  0  0  0  0  0
   23.1369  -14.8325  -17.7950 C   0  0  0  0  0  0  0  0  0  0  0  0
   22.8693  -13.3733  -17.7083 C   0  0  0  0  0  0  0  0  0  0  0  0
   21.9851  -12.9337  -16.8903 O   0  0  0  0  0  0  0  0  0  0  0  0
   20.6934  -15.1587  -17.5065 C   0  0  0  0  0  0  0  0  0  0  0  0
   19.6927  -15.0582  -16.5515 O   0  0  0  0  0  0  0  0  0  0  0  0
   23.5401  -12.4278  -18.4787 O   0  0  0  0  0  0  0  0  0  0  0  0
   20.4827  -14.9102  -18.7121 O   0  0  0  0  0  0  0  0  0  0  0  0
  2  1  1  0
  3  2  2  0
  4  2  1  0
  5  4  1  0
  6  5  1  0
  6  7  1  1
  8  6  1  0
  8 10  1  0
  9  8  2  0
 11 10  1  0
 11 12  1  1
 13 14  1  0
 13 12  1  0
 15 14  1  0
 16 15  1  0
 17 11  1  0
 18 17  2  0
 19 17  1  0
 20 24  1  0
 20 19  1  0
 21 22  1  0
 20 21  1  6
 22 26  1  0
 23 22  2  0
 24 25  1  0
 27 24  2  0
M  END
$$$$
