QKD.pdb
     RDKit          3D

 27 26  0  0  1  0  0  0  0  0999 V2000
   16.1480  -13.7892  -13.5090 N   0  0  0  0  0  0  0  0  0  0  0  0
   14.7267  -13.8624  -13.3794 C   0  0  0  0  0  0  0  0  0  0  0  0
   14.2148  -14.9986  -13.2867 O   0  0  0  0  0  0  0  0  0  0  0  0
   13.8857  -12.6513  -13.3565 C   0  0  0  0  0  0  0  0  0  0  0  0
   14.7821  -11.4378  -13.3499 C   0  0  0  0  0  0  0  0  0  0  0  0
   15.1302  -11.0076  -11.9525 C   0  0  2  0  0  0  0  0  0  0  0  0
   14.0084  -11.1064  -11.0463 N   0  0  0  0  0  0  0  0  0  0  0  0
   15.6380   -9.5903  -12.0361 C   0  0  0  0  0  0  0  0  0  0  0  0
   15.7211   -9.0612  -13.1599 O   0  0  0  0  0  0  0  0  0  0  0  0
   15.9790   -8.9785  -10.8129 N   0  0  0  0  0  0  0  0  0  0  0  0
   16.3790   -7.5524  -10.8241 C   0  0  1  0  0  0  0  0  0  0  0  0
   16.0903   -7.0392   -9.4680 C   0  0  0  0  0  0  0  0  0  0  0  0
   14.7690   -6.3918   -9.2319 C   0  0  0  0  0  0  0  0  0  0  0  0
   14.5629   -5.9896   -7.7888 C   0  0  0  0  0  0  0  0  0  0  0  0
   13.2659   -5.2582   -7.5643 C   0  0  0  0  0  0  0  0  0  0  0  0
   13.0099   -4.8837   -6.2098 N   0  0  0  0  0  0  0  0  0  0  0  0
   17.7798   -7.4987  -11.2823 C   0  0  0  0  0  0  0  0  0  0  0  0
   18.6984   -8.0671  -10.5954 O   0  0  0  0  0  0  0  0  0  0  0  0
   18.1715   -6.8397  -12.4732 N   0  0  0  0  0  0  0  0  0  0  0  0
   19.5493   -6.9314  -12.9022 C   0  0  1  0  0  0  0  0  0  0  0  0
   19.8499   -8.2228  -13.6221 C   0  0  0  0  0  0  0  0  0  0  0  0
   21.2860   -8.2319  -14.0045 C   0  0  0  0  0  0  0  0  0  0  0  0
   22.0918   -7.3834  -13.4801 O   0  0  0  0  0  0  0  0  0  0  0  0
   20.0327   -5.7476  -13.6311 C   0  0  0  0  0  0  0  0  0  0  0  0
   19.1273   -4.7387  -13.9239 O   0  0  0  0  0  0  0  0  0  0  0  0
   21.8260   -9.1315  -14.9190 O   0  0  0  0  0  0  0  0  0  0  0  0
   21.2335   -5.6747  -13.9664 O   0  0  0  0  0  0  0  0  0  0  0  0
  2  1  1  0
  3  2  2  0
  4  2  1  0
  5  4  1  0
  6  5  1  0
  6  7  1  1
  8  6  1  0
  8 10  1  0
  9  8  2  0
 11 10  1  0
 11 12  1  1
 13 14  1  0
 13 12  1  0
 15 14  1  0
 16 15  1  0
 17 11  1  0
 18 17  2  0
 19 17  1  0
 20 24  1  0
 20 19  1  0
 21 22  1  0
 20 21  1  6
 22 26  1  0
 23 22  2  0
 24 25  1  0
 27 24  2  0
M  END
$$$$
