QKD.pdb
     RDKit          3D

 27 26  0  0  1  0  0  0  0  0999 V2000
   16.6302  -11.0296  -17.8712 N   0  0  0  0  0  0  0  0  0  0  0  0
   17.2126  -12.1505  -17.2028 C   0  0  0  0  0  0  0  0  0  0  0  0
   16.4417  -12.9186  -16.5885 O   0  0  0  0  0  0  0  0  0  0  0  0
   18.6656  -12.4006  -17.2280 C   0  0  0  0  0  0  0  0  0  0  0  0
   19.3377  -11.2823  -17.9854 C   0  0  0  0  0  0  0  0  0  0  0  0
   20.8060  -11.5404  -18.1771 C   0  0  2  0  0  0  0  0  0  0  0  0
   21.1376  -12.9448  -18.0927 N   0  0  0  0  0  0  0  0  0  0  0  0
   21.5391  -10.7449  -17.1268 C   0  0  0  0  0  0  0  0  0  0  0  0
   21.2994  -10.9901  -15.9301 O   0  0  0  0  0  0  0  0  0  0  0  0
   22.4478   -9.7772  -17.6009 N   0  0  0  0  0  0  0  0  0  0  0  0
   23.2692   -9.0372  -16.6153 C   0  0  1  0  0  0  0  0  0  0  0  0
   24.6618   -9.1185  -17.1049 C   0  0  0  0  0  0  0  0  0  0  0  0
   25.5972  -10.0419  -16.4027 C   0  0  0  0  0  0  0  0  0  0  0  0
   26.9817  -10.0477  -17.0109 C   0  0  0  0  0  0  0  0  0  0  0  0
   27.8988  -11.0550  -16.3692 C   0  0  0  0  0  0  0  0  0  0  0  0
   29.2377  -11.0567  -16.8672 N   0  0  0  0  0  0  0  0  0  0  0  0
   22.6782   -7.6927  -16.4808 C   0  0  0  0  0  0  0  0  0  0  0  0
   22.4940   -6.9694  -17.5208 O   0  0  0  0  0  0  0  0  0  0  0  0
   22.2898   -7.1480  -15.2325 N   0  0  0  0  0  0  0  0  0  0  0  0
   21.7449   -5.8092  -15.1930 C   0  0  1  0  0  0  0  0  0  0  0  0
   20.3160   -5.7765  -14.7097 C   0  0  0  0  0  0  0  0  0  0  0  0
   19.4586   -6.4621  -15.7114 C   0  0  0  0  0  0  0  0  0  0  0  0
   19.3116   -5.9550  -16.8800 O   0  0  0  0  0  0  0  0  0  0  0  0
   22.6015   -4.8309  -14.5033 C   0  0  0  0  0  0  0  0  0  0  0  0
   22.2341   -3.4940  -14.5368 O   0  0  0  0  0  0  0  0  0  0  0  0
   18.7897   -7.6551  -15.4536 O   0  0  0  0  0  0  0  0  0  0  0  0
   23.6285   -5.2185  -13.9078 O   0  0  0  0  0  0  0  0  0  0  0  0
  2  1  1  0
  3  2  2  0
  4  2  1  0
  5  4  1  0
  6  5  1  0
  6  7  1  1
  8  6  1  0
  8 10  1  0
  9  8  2  0
 11 10  1  0
 11 12  1  6
 13 14  1  0
 13 12  1  0
 15 14  1  0
 16 15  1  0
 17 11  1  0
 18 17  2  0
 19 17  1  0
 20 24  1  0
 20 19  1  0
 21 22  1  0
 20 21  1  1
 22 26  1  0
 23 22  2  0
 24 25  1  0
 27 24  2  0
M  END
$$$$
