QKD.pdb
     RDKit          3D

 27 26  0  0  1  0  0  0  0  0999 V2000
   22.8490  -20.8102   -9.2137 N   0  0  0  0  0  0  0  0  0  0  0  0
   24.0976  -20.4744   -8.6050 C   0  0  0  0  0  0  0  0  0  0  0  0
   24.0760  -20.1109   -7.4096 O   0  0  0  0  0  0  0  0  0  0  0  0
   25.3688  -20.5483   -9.3487 C   0  0  0  0  0  0  0  0  0  0  0  0
   25.0739  -20.9344  -10.7770 C   0  0  0  0  0  0  0  0  0  0  0  0
   26.3329  -21.1315  -11.5741 C   0  0  2  0  0  0  0  0  0  0  0  0
   27.4812  -20.5026  -10.9614 N   0  0  0  0  0  0  0  0  0  0  0  0
   26.0795  -20.5752  -12.9523 C   0  0  0  0  0  0  0  0  0  0  0  0
   26.2328  -19.3525  -13.1298 O   0  0  0  0  0  0  0  0  0  0  0  0
   25.6853  -21.5048  -13.9358 N   0  0  0  0  0  0  0  0  0  0  0  0
   25.4289  -21.0136  -15.3094 C   0  0  1  0  0  0  0  0  0  0  0  0
   26.1411  -21.9428  -16.2122 C   0  0  0  0  0  0  0  0  0  0  0  0
   27.0390  -21.3599  -17.2490 C   0  0  0  0  0  0  0  0  0  0  0  0
   28.4539  -21.8866  -17.1620 C   0  0  0  0  0  0  0  0  0  0  0  0
   28.6601  -23.1456  -17.9621 C   0  0  0  0  0  0  0  0  0  0  0  0
   29.9997  -23.6413  -17.9741 N   0  0  0  0  0  0  0  0  0  0  0  0
   23.9664  -20.9081  -15.4660 C   0  0  0  0  0  0  0  0  0  0  0  0
   23.1912  -21.5087  -14.6432 O   0  0  0  0  0  0  0  0  0  0  0  0
   23.3590  -20.1555  -16.5008 N   0  0  0  0  0  0  0  0  0  0  0  0
   22.0245  -19.6374  -16.2977 C   0  0  1  0  0  0  0  0  0  0  0  0
   21.8594  -18.9638  -14.9578 C   0  0  0  0  0  0  0  0  0  0  0  0
   20.4168  -18.6788  -14.7425 C   0  0  0  0  0  0  0  0  0  0  0  0
   19.5328  -19.3055  -15.4281 O   0  0  0  0  0  0  0  0  0  0  0  0
   21.5207  -18.8186  -17.4123 C   0  0  0  0  0  0  0  0  0  0  0  0
   21.6973  -19.2861  -18.7060 O   0  0  0  0  0  0  0  0  0  0  0  0
   19.9530  -17.7507  -13.8146 O   0  0  0  0  0  0  0  0  0  0  0  0
   20.9501  -17.7334  -17.1747 O   0  0  0  0  0  0  0  0  0  0  0  0
  2  1  1  0
  3  2  2  0
  4  2  1  0
  5  4  1  0
  6  5  1  0
  6  7  1  1
  8  6  1  0
  8 10  1  0
  9  8  2  0
 11 10  1  0
 11 12  1  6
 13 14  1  0
 13 12  1  0
 15 14  1  0
 16 15  1  0
 17 11  1  0
 18 17  2  0
 19 17  1  0
 20 24  1  0
 20 19  1  0
 21 22  1  0
 20 21  1  1
 22 26  1  0
 23 22  2  0
 24 25  1  0
 27 24  2  0
M  END
$$$$
