QKD.pdb
     RDKit          3D

 27 26  0  0  1  0  0  0  0  0999 V2000
   13.7957  -22.3852   -0.6402 N   0  0  0  0  0  0  0  0  0  0  0  0
   14.8259  -21.4357   -0.9222 C   0  0  0  0  0  0  0  0  0  0  0  0
   14.8811  -20.9736   -2.0819 O   0  0  0  0  0  0  0  0  0  0  0  0
   15.7934  -21.0113    0.1065 C   0  0  0  0  0  0  0  0  0  0  0  0
   15.4714  -21.7210    1.3983 C   0  0  0  0  0  0  0  0  0  0  0  0
   14.9084  -20.7811    2.4272 C   0  0  2  0  0  0  0  0  0  0  0  0
   13.9521  -19.8535    1.8664 N   0  0  0  0  0  0  0  0  0  0  0  0
   16.0724  -20.0519    3.0491 C   0  0  0  0  0  0  0  0  0  0  0  0
   17.1420  -20.6713    3.1981 O   0  0  0  0  0  0  0  0  0  0  0  0
   15.8432  -18.7095    3.4125 N   0  0  0  0  0  0  0  0  0  0  0  0
   16.9282  -17.9677    4.0954 C   0  0  1  0  0  0  0  0  0  0  0  0
   16.7546  -16.5504    3.7121 C   0  0  0  0  0  0  0  0  0  0  0  0
   17.7041  -15.5513    4.2787 C   0  0  0  0  0  0  0  0  0  0  0  0
   17.5051  -14.1649    3.7086 C   0  0  0  0  0  0  0  0  0  0  0  0
   18.5754  -13.1963    4.1376 C   0  0  0  0  0  0  0  0  0  0  0  0
   18.4859  -11.8975    3.5497 N   0  0  0  0  0  0  0  0  0  0  0  0
   16.8400  -18.2946    5.5307 C   0  0  0  0  0  0  0  0  0  0  0  0
   15.6948  -18.3866    6.0953 O   0  0  0  0  0  0  0  0  0  0  0  0
   17.9825  -18.5223    6.3362 N   0  0  0  0  0  0  0  0  0  0  0  0
   17.8012  -18.8101    7.7415 C   0  0  1  0  0  0  0  0  0  0  0  0
   17.6857  -20.2879    8.0227 C   0  0  0  0  0  0  0  0  0  0  0  0
   17.4063  -20.4770    9.4700 C   0  0  0  0  0  0  0  0  0  0  0  0
   17.0772  -19.4708   10.1937 O   0  0  0  0  0  0  0  0  0  0  0  0
   18.7682  -18.1368    8.6235 C   0  0  0  0  0  0  0  0  0  0  0  0
   19.8820  -17.5430    8.0487 O   0  0  0  0  0  0  0  0  0  0  0  0
   17.4781  -21.7133   10.1055 O   0  0  0  0  0  0  0  0  0  0  0  0
   18.5693  -18.1122    9.8561 O   0  0  0  0  0  0  0  0  0  0  0  0
  2  1  1  0
  3  2  2  0
  4  2  1  0
  5  4  1  0
  6  5  1  0
  6  7  1  6
  8  6  1  0
  8 10  1  0
  9  8  2  0
 11 10  1  0
 11 12  1  1
 13 14  1  0
 13 12  1  0
 15 14  1  0
 16 15  1  0
 17 11  1  0
 18 17  2  0
 19 17  1  0
 20 24  1  0
 20 19  1  0
 21 22  1  0
 20 21  1  6
 22 26  1  0
 23 22  2  0
 24 25  1  0
 27 24  2  0
M  END
$$$$
