QKD.pdb
     RDKit          3D

 27 26  0  0  1  0  0  0  0  0999 V2000
   24.5878  -20.7180   -9.9705 N   0  0  0  0  0  0  0  0  0  0  0  0
   25.9690  -21.0047   -9.7419 C   0  0  0  0  0  0  0  0  0  0  0  0
   26.2592  -21.6599   -8.7182 O   0  0  0  0  0  0  0  0  0  0  0  0
   27.0206  -20.5490  -10.6698 C   0  0  0  0  0  0  0  0  0  0  0  0
   26.3761  -19.7679  -11.7882 C   0  0  0  0  0  0  0  0  0  0  0  0
   26.2336  -20.5930  -13.0364 C   0  0  2  0  0  0  0  0  0  0  0  0
   27.4895  -20.7707  -13.7298 N   0  0  0  0  0  0  0  0  0  0  0  0
   25.2213  -19.9019  -13.9143 C   0  0  0  0  0  0  0  0  0  0  0  0
   25.1042  -18.6664  -13.8159 O   0  0  0  0  0  0  0  0  0  0  0  0
   24.4843  -20.7300  -14.7849 N   0  0  0  0  0  0  0  0  0  0  0  0
   23.5033  -20.0990  -15.6978 C   0  0  1  0  0  0  0  0  0  0  0  0
   23.8811  -20.5305  -17.0605 C   0  0  0  0  0  0  0  0  0  0  0  0
   24.9671  -19.7827  -17.7549 C   0  0  0  0  0  0  0  0  0  0  0  0
   25.3062  -20.3648  -19.1088 C   0  0  0  0  0  0  0  0  0  0  0  0
   26.3969  -19.6047  -19.8162 C   0  0  0  0  0  0  0  0  0  0  0  0
   26.7547  -20.1166  -21.1009 N   0  0  0  0  0  0  0  0  0  0  0  0
   22.1605  -20.4756  -15.2183 C   0  0  0  0  0  0  0  0  0  0  0  0
   21.9690  -21.6288  -14.6967 O   0  0  0  0  0  0  0  0  0  0  0  0
   21.0455  -19.6062  -15.3021 N   0  0  0  0  0  0  0  0  0  0  0  0
   19.7730  -20.0485  -14.7766 C   0  0  1  0  0  0  0  0  0  0  0  0
   18.9645  -18.9210  -14.1840 C   0  0  0  0  0  0  0  0  0  0  0  0
   17.6740  -19.4684  -13.6904 C   0  0  0  0  0  0  0  0  0  0  0  0
   17.5306  -20.7345  -13.5471 O   0  0  0  0  0  0  0  0  0  0  0  0
   18.9933  -20.8796  -15.7082 C   0  0  0  0  0  0  0  0  0  0  0  0
   18.3027  -21.9694  -15.1993 O   0  0  0  0  0  0  0  0  0  0  0  0
   16.5827  -18.6695  -13.3617 O   0  0  0  0  0  0  0  0  0  0  0  0
   18.9677  -20.5904  -16.9228 O   0  0  0  0  0  0  0  0  0  0  0  0
  2  1  1  0
  3  2  2  0
  4  2  1  0
  5  4  1  0
  6  5  1  0
  6  7  1  6
  8  6  1  0
  8 10  1  0
  9  8  2  0
 11 10  1  0
 11 12  1  6
 13 14  1  0
 13 12  1  0
 15 14  1  0
 16 15  1  0
 17 11  1  0
 18 17  2  0
 19 17  1  0
 20 24  1  0
 20 19  1  0
 21 22  1  0
 20 21  1  6
 22 26  1  0
 23 22  2  0
 24 25  1  0
 27 24  2  0
M  END
$$$$
