QKD.pdb
     RDKit          3D

 27 26  0  0  1  0  0  0  0  0999 V2000
   25.5030  -25.4907  -14.8870 N   0  0  0  0  0  0  0  0  0  0  0  0
   25.3667  -24.2151  -15.5169 C   0  0  0  0  0  0  0  0  0  0  0  0
   26.3242  -23.8104  -16.2103 O   0  0  0  0  0  0  0  0  0  0  0  0
   24.1492  -23.3981  -15.3606 C   0  0  0  0  0  0  0  0  0  0  0  0
   23.1798  -24.1365  -14.4711 C   0  0  0  0  0  0  0  0  0  0  0  0
   21.9134  -23.3562  -14.2555 C   0  0  2  0  0  0  0  0  0  0  0  0
   22.1411  -22.1122  -13.5555 N   0  0  0  0  0  0  0  0  0  0  0  0
   20.9670  -24.2455  -13.4893 C   0  0  0  0  0  0  0  0  0  0  0  0
   21.2046  -25.4671  -13.4573 O   0  0  0  0  0  0  0  0  0  0  0  0
   19.8781  -23.6039  -12.8653 N   0  0  0  0  0  0  0  0  0  0  0  0
   18.9331  -24.4258  -12.0745 C   0  0  1  0  0  0  0  0  0  0  0  0
   19.3616  -24.2943  -10.6656 C   0  0  0  0  0  0  0  0  0  0  0  0
   18.4972  -24.8979   -9.6125 C   0  0  0  0  0  0  0  0  0  0  0  0
   19.1155  -24.8255   -8.2343 C   0  0  0  0  0  0  0  0  0  0  0  0
   18.2759  -25.4972   -7.1800 C   0  0  0  0  0  0  0  0  0  0  0  0
   18.8133  -25.4476   -5.8574 N   0  0  0  0  0  0  0  0  0  0  0  0
   17.5726  -23.9674  -12.4120 C   0  0  0  0  0  0  0  0  0  0  0  0
   17.3231  -22.7145  -12.4943 O   0  0  0  0  0  0  0  0  0  0  0  0
   16.5026  -24.8614  -12.6605 N   0  0  0  0  0  0  0  0  0  0  0  0
   15.1997  -24.3212  -12.9790 C   0  0  1  0  0  0  0  0  0  0  0  0
   14.2972  -25.3317  -13.6429 C   0  0  0  0  0  0  0  0  0  0  0  0
   13.0233  -24.6619  -14.0131 C   0  0  0  0  0  0  0  0  0  0  0  0
   11.9483  -24.9338  -13.3691 O   0  0  0  0  0  0  0  0  0  0  0  0
   14.5469  -23.6244  -11.8589 C   0  0  0  0  0  0  0  0  0  0  0  0
   13.8887  -22.4316  -12.1185 O   0  0  0  0  0  0  0  0  0  0  0  0
   12.9227  -23.7294  -15.0415 O   0  0  0  0  0  0  0  0  0  0  0  0
   14.5964  -24.1148  -10.7115 O   0  0  0  0  0  0  0  0  0  0  0  0
  2  1  1  0
  3  2  2  0
  4  2  1  0
  5  4  1  0
  6  5  1  0
  6  7  1  1
  8  6  1  0
  8 10  1  0
  9  8  2  0
 11 10  1  0
 11 12  1  1
 13 14  1  0
 13 12  1  0
 15 14  1  0
 16 15  1  0
 17 11  1  0
 18 17  2  0
 19 17  1  0
 20 24  1  0
 20 19  1  0
 21 22  1  0
 20 21  1  1
 22 26  1  0
 23 22  2  0
 24 25  1  0
 27 24  2  0
M  END
$$$$
