NME.pdb
     RDKit          3D

 26 25  0  0  1  0  0  0  0  0999 V2000
    7.9257  -17.6806   17.5726 N   0  0  0  0  0  0  0  0  0  0  0  0
    8.1704  -16.2753   17.3894 C   0  0  0  0  0  0  0  0  0  0  0  0
    8.1466  -15.8096   16.2333 O   0  0  0  0  0  0  0  0  0  0  0  0
    8.4355  -15.4781   18.5987 C   0  0  0  0  0  0  0  0  0  0  0  0
    8.4032  -16.2325   19.8728 C   0  0  2  0  0  0  0  0  0  0  0  0
    6.9972  -16.6658   20.0591 N   0  0  0  0  0  0  0  0  0  0  0  0
    8.7752  -15.5118   21.0872 C   0  0  0  0  0  0  0  0  0  0  0  0
    9.9291  -15.0619   21.2243 O   0  0  0  0  0  0  0  0  0  0  0  0
    6.5893  -11.8748   27.8472 C   0  0  0  0  0  0  0  0  0  0  0  0
    6.0672  -12.7261   26.3386 S   0  0  0  0  0  0  0  0  0  0  0  0
    7.4422  -13.4458   25.4461 C   0  0  0  0  0  0  0  0  0  0  0  0
    7.0573  -14.0618   24.1274 C   0  0  0  0  0  0  0  0  0  0  0  0
    8.2155  -14.6456   23.3963 C   0  0  2  0  0  0  0  0  0  0  0  0
    7.8335  -15.2989   22.1590 N   0  0  0  0  0  0  0  0  0  0  0  0
    8.8267  -15.6916   24.2612 C   0  0  0  0  0  0  0  0  0  0  0  0
    8.2251  -16.7886   24.4804 O   0  0  0  0  0  0  0  0  0  0  0  0
   10.0963  -15.4547   24.8436 N   0  0  0  0  0  0  0  0  0  0  0  0
   10.7391  -16.5195   25.5753 C   0  0  1  0  0  0  0  0  0  0  0  0
   12.2150  -16.6102   25.2527 C   0  0  0  0  0  0  0  0  0  0  0  0
   12.4803  -16.5567   23.7696 C   0  0  0  0  0  0  0  0  0  0  0  0
   13.9162  -16.3556   23.4988 C   0  0  0  0  0  0  0  0  0  0  0  0
   14.7152  -16.1973   24.4402 O   0  0  0  0  0  0  0  0  0  0  0  0
   10.4844  -16.3248   27.0098 C   0  0  0  0  0  0  0  0  0  0  0  0
   10.8825  -17.2845   27.9200 O   0  0  0  0  0  0  0  0  0  0  0  0
   14.3792  -16.3420   22.2030 O   0  0  0  0  0  0  0  0  0  0  0  0
    9.9104  -15.3063   27.4537 O   0  0  0  0  0  0  0  0  0  0  0  0
  2  1  1  0
  3  2  2  0
  4  2  1  0
  5  4  1  0
  5  6  1  1
  7  5  1  0
  7  8  2  0
  9 10  1  0
 11 12  1  0
 11 10  1  0
 13 14  1  0
 13 12  1  1
 14  7  1  0
 15 13  1  0
 16 15  2  0
 17 15  1  0
 18 17  1  0
 19 20  1  0
 18 19  1  1
 20 21  1  0
 21 25  1  0
 21 22  2  0
 23 18  1  0
 23 24  1  0
 26 23  2  0
M  END
$$$$
