NME.pdb
     RDKit          3D

 26 25  0  0  1  0  0  0  0  0999 V2000
    6.5446  -18.0498   18.3550 N   0  0  0  0  0  0  0  0  0  0  0  0
    7.3639  -16.9587   17.9005 C   0  0  0  0  0  0  0  0  0  0  0  0
    7.5039  -16.7860   16.6739 O   0  0  0  0  0  0  0  0  0  0  0  0
    7.9869  -16.1134   18.9329 C   0  0  0  0  0  0  0  0  0  0  0  0
    7.7554  -16.5476   20.3298 C   0  0  2  0  0  0  0  0  0  0  0  0
    6.3251  -16.2774   20.6132 N   0  0  0  0  0  0  0  0  0  0  0  0
    8.5165  -15.8706   21.3762 C   0  0  0  0  0  0  0  0  0  0  0  0
    9.7611  -15.9281   21.3874 O   0  0  0  0  0  0  0  0  0  0  0  0
    6.6404  -11.6569   26.4804 C   0  0  0  0  0  0  0  0  0  0  0  0
    5.8103  -13.2454   26.2342 S   0  0  0  0  0  0  0  0  0  0  0  0
    6.6060  -14.2487   24.9830 C   0  0  0  0  0  0  0  0  0  0  0  0
    7.7873  -13.5832   24.3285 C   0  0  0  0  0  0  0  0  0  0  0  0
    8.6071  -14.5212   23.5131 C   0  0  2  0  0  0  0  0  0  0  0  0
    7.8636  -15.1220   22.4223 N   0  0  0  0  0  0  0  0  0  0  0  0
    9.0469  -15.6360   24.3960 C   0  0  0  0  0  0  0  0  0  0  0  0
    8.4038  -16.7308   24.4319 O   0  0  0  0  0  0  0  0  0  0  0  0
   10.1988  -15.4677   25.2034 N   0  0  0  0  0  0  0  0  0  0  0  0
   11.0941  -16.5848   25.3850 C   0  0  1  0  0  0  0  0  0  0  0  0
   12.4397  -16.3359   24.7383 C   0  0  0  0  0  0  0  0  0  0  0  0
   13.4372  -17.4198   25.0588 C   0  0  0  0  0  0  0  0  0  0  0  0
   14.7282  -17.1601   24.3943 C   0  0  0  0  0  0  0  0  0  0  0  0
   15.0898  -17.8620   23.4319 O   0  0  0  0  0  0  0  0  0  0  0  0
   11.2017  -16.8724   26.8224 C   0  0  0  0  0  0  0  0  0  0  0  0
   11.8187  -18.0312   27.2521 O   0  0  0  0  0  0  0  0  0  0  0  0
   15.5392  -16.1399   24.8359 O   0  0  0  0  0  0  0  0  0  0  0  0
   10.7495  -16.0979   27.6939 O   0  0  0  0  0  0  0  0  0  0  0  0
  2  1  1  0
  3  2  2  0
  4  2  1  0
  5  4  1  0
  5  6  1  1
  7  5  1  0
  7  8  2  0
  9 10  1  0
 11 12  1  0
 11 10  1  0
 13 14  1  0
 13 12  1  1
 14  7  1  0
 15 13  1  0
 16 15  2  0
 17 15  1  0
 18 17  1  0
 19 20  1  0
 18 19  1  1
 20 21  1  0
 21 25  1  0
 21 22  2  0
 23 18  1  0
 23 24  1  0
 26 23  2  0
M  END
$$$$
