NME.pdb
     RDKit          3D

 26 25  0  0  1  0  0  0  0  0999 V2000
    7.5218  -18.1306   17.9152 N   0  0  0  0  0  0  0  0  0  0  0  0
    7.9823  -16.8150   17.5608 C   0  0  0  0  0  0  0  0  0  0  0  0
    8.0277  -16.5017   16.3551 O   0  0  0  0  0  0  0  0  0  0  0  0
    8.3725  -15.9218   18.6645 C   0  0  0  0  0  0  0  0  0  0  0  0
    8.2333  -16.4967   20.0223 C   0  0  2  0  0  0  0  0  0  0  0  0
    6.7861  -16.7591   20.2119 N   0  0  0  0  0  0  0  0  0  0  0  0
    8.6508  -15.6647   21.1476 C   0  0  0  0  0  0  0  0  0  0  0  0
    9.7935  -15.1686   21.1744 O   0  0  0  0  0  0  0  0  0  0  0  0
    6.8093  -11.4480   27.6329 C   0  0  0  0  0  0  0  0  0  0  0  0
    6.2036  -12.5847   26.3624 S   0  0  0  0  0  0  0  0  0  0  0  0
    7.5319  -13.3695   25.4543 C   0  0  0  0  0  0  0  0  0  0  0  0
    7.0908  -14.0210   24.1707 C   0  0  0  0  0  0  0  0  0  0  0  0
    8.2108  -14.6596   23.4261 C   0  0  2  0  0  0  0  0  0  0  0  0
    7.7678  -15.3922   22.2553 N   0  0  0  0  0  0  0  0  0  0  0  0
    8.8599  -15.6490   24.3293 C   0  0  0  0  0  0  0  0  0  0  0  0
    8.2884  -16.7483   24.6091 O   0  0  0  0  0  0  0  0  0  0  0  0
   10.1318  -15.3549   24.8797 N   0  0  0  0  0  0  0  0  0  0  0  0
   10.9923  -16.4449   25.2720 C   0  0  1  0  0  0  0  0  0  0  0  0
   12.4009  -16.2635   24.7490 C   0  0  0  0  0  0  0  0  0  0  0  0
   13.3243  -17.3669   25.1990 C   0  0  0  0  0  0  0  0  0  0  0  0
   14.6780  -17.1793   24.6442 C   0  0  0  0  0  0  0  0  0  0  0  0
   15.4151  -18.1624   24.4444 O   0  0  0  0  0  0  0  0  0  0  0  0
   10.9448  -16.5785   26.7351 C   0  0  0  0  0  0  0  0  0  0  0  0
   11.4266  -17.7221   27.3417 O   0  0  0  0  0  0  0  0  0  0  0  0
   15.1325  -15.9153   24.3448 O   0  0  0  0  0  0  0  0  0  0  0  0
   10.4770  -15.6832   27.4723 O   0  0  0  0  0  0  0  0  0  0  0  0
  2  1  1  0
  3  2  2  0
  4  2  1  0
  5  4  1  0
  5  6  1  1
  7  5  1  0
  7  8  2  0
  9 10  1  0
 11 12  1  0
 11 10  1  0
 13 14  1  0
 13 12  1  1
 14  7  1  0
 15 13  1  0
 16 15  2  0
 17 15  1  0
 18 17  1  0
 19 20  1  0
 18 19  1  1
 20 21  1  0
 21 25  1  0
 21 22  2  0
 23 18  1  0
 23 24  1  0
 26 23  2  0
M  END
$$$$
