NME.pdb
     RDKit          3D

 26 25  0  0  1  0  0  0  0  0999 V2000
    6.2907  -17.3427   18.0824 N   0  0  0  0  0  0  0  0  0  0  0  0
    7.6633  -17.7195   18.2881 C   0  0  0  0  0  0  0  0  0  0  0  0
    8.1440  -18.6334   17.5897 O   0  0  0  0  0  0  0  0  0  0  0  0
    8.4110  -16.9875   19.3242 C   0  0  0  0  0  0  0  0  0  0  0  0
    7.6140  -16.0225   20.1160 C   0  0  2  0  0  0  0  0  0  0  0  0
    7.3215  -14.8872   19.2080 N   0  0  0  0  0  0  0  0  0  0  0  0
    8.2434  -15.4483   21.3020 C   0  0  0  0  0  0  0  0  0  0  0  0
    9.4775  -15.2805   21.3415 O   0  0  0  0  0  0  0  0  0  0  0  0
    5.5523  -11.1227   25.9085 C   0  0  0  0  0  0  0  0  0  0  0  0
    6.5707  -12.3219   26.8018 S   0  0  0  0  0  0  0  0  0  0  0  0
    7.7325  -13.1664   25.7331 C   0  0  0  0  0  0  0  0  0  0  0  0
    7.0939  -13.8299   24.5421 C   0  0  0  0  0  0  0  0  0  0  0  0
    8.0839  -14.4542   23.6220 C   0  0  2  0  0  0  0  0  0  0  0  0
    7.4699  -15.0613   22.4565 N   0  0  0  0  0  0  0  0  0  0  0  0
    8.7738  -15.5474   24.3600 C   0  0  0  0  0  0  0  0  0  0  0  0
    8.2442  -16.6971   24.4657 O   0  0  0  0  0  0  0  0  0  0  0  0
   10.0375  -15.2960   24.9492 N   0  0  0  0  0  0  0  0  0  0  0  0
   10.9229  -16.4065   25.2043 C   0  0  1  0  0  0  0  0  0  0  0  0
   12.3359  -16.1134   24.7483 C   0  0  0  0  0  0  0  0  0  0  0  0
   13.2925  -17.2238   25.1014 C   0  0  0  0  0  0  0  0  0  0  0  0
   14.6542  -16.9168   24.6248 C   0  0  0  0  0  0  0  0  0  0  0  0
   14.8192  -16.2347   23.5966 O   0  0  0  0  0  0  0  0  0  0  0  0
   10.8486  -16.7490   26.6318 C   0  0  0  0  0  0  0  0  0  0  0  0
   10.4195  -15.8083   27.5478 O   0  0  0  0  0  0  0  0  0  0  0  0
   15.7491  -17.3837   25.3154 O   0  0  0  0  0  0  0  0  0  0  0  0
   11.1636  -17.8792   27.0645 O   0  0  0  0  0  0  0  0  0  0  0  0
  2  1  1  0
  3  2  2  0
  4  2  1  0
  5  4  1  0
  5  6  1  6
  7  5  1  0
  7  8  2  0
  9 10  1  0
 11 12  1  0
 11 10  1  0
 13 14  1  0
 13 12  1  1
 14  7  1  0
 15 13  1  0
 16 15  2  0
 17 15  1  0
 18 17  1  0
 19 20  1  0
 18 19  1  1
 20 21  1  0
 21 25  1  0
 21 22  2  0
 23 18  1  0
 23 24  1  0
 26 23  2  0
M  END
$$$$
