NME.pdb
     RDKit          3D

 26 25  0  0  1  0  0  0  0  0999 V2000
    6.8253  -13.0472   17.0985 N   0  0  0  0  0  0  0  0  0  0  0  0
    7.7071  -13.9987   17.7195 C   0  0  0  0  0  0  0  0  0  0  0  0
    7.9813  -15.0490   17.1065 O   0  0  0  0  0  0  0  0  0  0  0  0
    8.2285  -13.6574   19.0536 C   0  0  0  0  0  0  0  0  0  0  0  0
    8.2182  -14.7637   20.0382 C   0  0  2  0  0  0  0  0  0  0  0  0
    6.8039  -15.1923   20.1613 N   0  0  0  0  0  0  0  0  0  0  0  0
    8.6745  -14.4596   21.3917 C   0  0  0  0  0  0  0  0  0  0  0  0
    9.8630  -14.1491   21.6011 O   0  0  0  0  0  0  0  0  0  0  0  0
    5.5579  -13.1381   27.4582 C   0  0  0  0  0  0  0  0  0  0  0  0
    6.2314  -11.7632   26.4943 S   0  0  0  0  0  0  0  0  0  0  0  0
    7.3877  -12.3062   25.2400 C   0  0  0  0  0  0  0  0  0  0  0  0
    7.1392  -13.7069   24.7472 C   0  0  0  0  0  0  0  0  0  0  0  0
    8.2275  -14.2178   23.8691 C   0  0  2  0  0  0  0  0  0  0  0  0
    7.7783  -14.5087   22.5210 N   0  0  0  0  0  0  0  0  0  0  0  0
    8.7184  -15.5008   24.4424 C   0  0  0  0  0  0  0  0  0  0  0  0
    8.0785  -16.5827   24.2600 O   0  0  0  0  0  0  0  0  0  0  0  0
    9.9159  -15.5085   25.1996 N   0  0  0  0  0  0  0  0  0  0  0  0
   10.6527  -16.7425   25.3291 C   0  0  1  0  0  0  0  0  0  0  0  0
   12.0641  -16.6113   24.7988 C   0  0  0  0  0  0  0  0  0  0  0  0
   12.8616  -17.8782   24.9762 C   0  0  0  0  0  0  0  0  0  0  0  0
   14.2497  -17.6956   24.5121 C   0  0  0  0  0  0  0  0  0  0  0  0
   14.5417  -16.7397   23.7701 O   0  0  0  0  0  0  0  0  0  0  0  0
   10.6141  -17.1678   26.7357 C   0  0  0  0  0  0  0  0  0  0  0  0
   11.0289  -18.4378   27.0864 O   0  0  0  0  0  0  0  0  0  0  0  0
   15.2290  -18.5822   24.8979 O   0  0  0  0  0  0  0  0  0  0  0  0
   10.2134  -16.4146   27.6500 O   0  0  0  0  0  0  0  0  0  0  0  0
  2  1  1  0
  3  2  2  0
  4  2  1  0
  5  4  1  0
  5  6  1  1
  7  5  1  0
  7  8  2  0
  9 10  1  0
 11 12  1  0
 11 10  1  0
 13 14  1  0
 13 12  1  1
 14  7  1  0
 15 13  1  0
 16 15  2  0
 17 15  1  0
 18 17  1  0
 19 20  1  0
 18 19  1  1
 20 21  1  0
 21 25  1  0
 21 22  2  0
 23 18  1  0
 23 24  1  0
 26 23  2  0
M  END
$$$$
