NME.pdb
     RDKit          3D

 26 25  0  0  1  0  0  0  0  0999 V2000
    7.3415  -17.7381   17.6367 N   0  0  0  0  0  0  0  0  0  0  0  0
    7.6644  -16.3519   17.4302 C   0  0  0  0  0  0  0  0  0  0  0  0
    7.5600  -15.8778   16.2819 O   0  0  0  0  0  0  0  0  0  0  0  0
    8.1015  -15.5832   18.6076 C   0  0  0  0  0  0  0  0  0  0  0  0
    8.1900  -16.3545   19.8688 C   0  0  2  0  0  0  0  0  0  0  0  0
    6.8054  -16.7760   20.1917 N   0  0  0  0  0  0  0  0  0  0  0  0
    8.6917  -15.6541   21.0480 C   0  0  0  0  0  0  0  0  0  0  0  0
    9.8748  -15.2660   21.0944 O   0  0  0  0  0  0  0  0  0  0  0  0
    7.1347  -11.8728   27.9085 C   0  0  0  0  0  0  0  0  0  0  0  0
    6.4758  -12.7365   26.4618 S   0  0  0  0  0  0  0  0  0  0  0  0
    7.7610  -13.4854   25.4655 C   0  0  0  0  0  0  0  0  0  0  0  0
    7.2617  -14.0891   24.1799 C   0  0  0  0  0  0  0  0  0  0  0  0
    8.3441  -14.7111   23.3687 C   0  0  2  0  0  0  0  0  0  0  0  0
    7.8475  -15.3914   22.1879 N   0  0  0  0  0  0  0  0  0  0  0  0
    9.0134  -15.7432   24.2070 C   0  0  0  0  0  0  0  0  0  0  0  0
    8.4741  -16.8772   24.3978 O   0  0  0  0  0  0  0  0  0  0  0  0
   10.2682  -15.4507   24.7962 N   0  0  0  0  0  0  0  0  0  0  0  0
   11.1296  -16.5417   25.1834 C   0  0  1  0  0  0  0  0  0  0  0  0
   12.5635  -16.3002   24.7638 C   0  0  0  0  0  0  0  0  0  0  0  0
   13.4891  -17.3923   25.2363 C   0  0  0  0  0  0  0  0  0  0  0  0
   14.8856  -17.0954   24.8660 C   0  0  0  0  0  0  0  0  0  0  0  0
   15.1852  -15.9846   24.3906 O   0  0  0  0  0  0  0  0  0  0  0  0
   10.9924  -16.7584   26.6308 C   0  0  0  0  0  0  0  0  0  0  0  0
   11.4198  -17.9437   27.1968 O   0  0  0  0  0  0  0  0  0  0  0  0
   15.8644  -18.0462   25.0446 O   0  0  0  0  0  0  0  0  0  0  0  0
   10.4947  -15.8986   27.3902 O   0  0  0  0  0  0  0  0  0  0  0  0
  2  1  1  0
  3  2  2  0
  4  2  1  0
  5  4  1  0
  5  6  1  1
  7  5  1  0
  7  8  2  0
  9 10  1  0
 11 12  1  0
 11 10  1  0
 13 14  1  0
 13 12  1  1
 14  7  1  0
 15 13  1  0
 16 15  2  0
 17 15  1  0
 18 17  1  0
 19 20  1  0
 18 19  1  1
 20 21  1  0
 21 25  1  0
 21 22  2  0
 23 18  1  0
 23 24  1  0
 26 23  2  0
M  END
$$$$
