NME.pdb
     RDKit          3D

 26 25  0  0  1  0  0  0  0  0999 V2000
    9.7703  -16.0328   16.9545 N   0  0  0  0  0  0  0  0  0  0  0  0
    8.6281  -15.8892   17.8166 C   0  0  0  0  0  0  0  0  0  0  0  0
    7.5180  -16.2846   17.4099 O   0  0  0  0  0  0  0  0  0  0  0  0
    8.8572  -15.2761   19.1357 C   0  0  0  0  0  0  0  0  0  0  0  0
    8.7875  -16.2066   20.2858 C   0  0  2  0  0  0  0  0  0  0  0  0
    7.4152  -16.7687   20.2781 N   0  0  0  0  0  0  0  0  0  0  0  0
    8.9926  -15.6421   21.6170 C   0  0  0  0  0  0  0  0  0  0  0  0
   10.0799  -15.1120   21.9158 O   0  0  0  0  0  0  0  0  0  0  0  0
    7.0597  -10.9207   26.4083 C   0  0  0  0  0  0  0  0  0  0  0  0
    7.4452  -12.6833   26.2758 S   0  0  0  0  0  0  0  0  0  0  0  0
    6.7136  -13.4386   24.8268 C   0  0  0  0  0  0  0  0  0  0  0  0
    6.9539  -14.9214   24.7254 C   0  0  0  0  0  0  0  0  0  0  0  0
    8.2026  -15.2606   23.9889 C   0  0  2  0  0  0  0  0  0  0  0  0
    7.9581  -15.6787   22.6217 N   0  0  0  0  0  0  0  0  0  0  0  0
    8.8468  -16.4114   24.6792 C   0  0  0  0  0  0  0  0  0  0  0  0
    8.2681  -17.5403   24.7417 O   0  0  0  0  0  0  0  0  0  0  0  0
   10.1223  -16.2387   25.2714 N   0  0  0  0  0  0  0  0  0  0  0  0
   10.8705  -17.4059   25.6718 C   0  0  1  0  0  0  0  0  0  0  0  0
   12.3167  -17.3224   25.2337 C   0  0  0  0  0  0  0  0  0  0  0  0
   13.1288  -18.4976   25.7156 C   0  0  0  0  0  0  0  0  0  0  0  0
   14.5485  -18.3430   25.3466 C   0  0  0  0  0  0  0  0  0  0  0  0
   15.4428  -18.6183   26.1676 O   0  0  0  0  0  0  0  0  0  0  0  0
   10.7285  -17.5800   27.1245 C   0  0  0  0  0  0  0  0  0  0  0  0
   10.8617  -18.8343   27.6875 O   0  0  0  0  0  0  0  0  0  0  0  0
   14.8908  -17.8933   24.0918 O   0  0  0  0  0  0  0  0  0  0  0  0
   10.4870  -16.6220   27.8911 O   0  0  0  0  0  0  0  0  0  0  0  0
  2  1  1  0
  3  2  2  0
  4  2  1  0
  5  4  1  0
  5  6  1  1
  7  5  1  0
  7  8  2  0
  9 10  1  0
 11 12  1  0
 11 10  1  0
 13 14  1  0
 13 12  1  1
 14  7  1  0
 15 13  1  0
 16 15  2  0
 17 15  1  0
 18 17  1  0
 19 20  1  0
 18 19  1  1
 20 21  1  0
 21 25  1  0
 21 22  2  0
 23 18  1  0
 23 24  1  0
 26 23  2  0
M  END
$$$$
