NME.pdb
     RDKit          3D

 26 25  0  0  1  0  0  0  0  0999 V2000
    8.6910  -17.3348   16.9568 N   0  0  0  0  0  0  0  0  0  0  0  0
    9.5488  -16.6574   17.8915 C   0  0  0  0  0  0  0  0  0  0  0  0
   10.7830  -16.7307   17.7326 O   0  0  0  0  0  0  0  0  0  0  0  0
    8.8964  -15.9166   18.9842 C   0  0  0  0  0  0  0  0  0  0  0  0
    8.7475  -16.6642   20.2540 C   0  0  2  0  0  0  0  0  0  0  0  0
    7.3059  -16.9906   20.3729 N   0  0  0  0  0  0  0  0  0  0  0  0
    9.1147  -15.9711   21.4859 C   0  0  0  0  0  0  0  0  0  0  0  0
   10.3069  -15.6976   21.7235 O   0  0  0  0  0  0  0  0  0  0  0  0
    7.0640  -11.3919   27.6382 C   0  0  0  0  0  0  0  0  0  0  0  0
    6.5122  -12.3084   26.1792 S   0  0  0  0  0  0  0  0  0  0  0  0
    7.7556  -13.4443   25.5717 C   0  0  0  0  0  0  0  0  0  0  0  0
    7.3735  -14.1384   24.2915 C   0  0  0  0  0  0  0  0  0  0  0  0
    8.4863  -14.9355   23.7059 C   0  0  2  0  0  0  0  0  0  0  0  0
    8.1239  -15.5849   22.4606 N   0  0  0  0  0  0  0  0  0  0  0  0
    8.8337  -16.0177   24.6671 C   0  0  0  0  0  0  0  0  0  0  0  0
    8.0508  -17.0007   24.8519 O   0  0  0  0  0  0  0  0  0  0  0  0
   10.0552  -15.9448   25.3812 N   0  0  0  0  0  0  0  0  0  0  0  0
   10.4521  -17.0629   26.2026 C   0  0  1  0  0  0  0  0  0  0  0  0
   11.8724  -17.4969   25.9108 C   0  0  0  0  0  0  0  0  0  0  0  0
   12.0298  -18.0341   24.5111 C   0  0  0  0  0  0  0  0  0  0  0  0
   13.4319  -18.4069   24.2450 C   0  0  0  0  0  0  0  0  0  0  0  0
   14.0426  -19.1518   25.0335 O   0  0  0  0  0  0  0  0  0  0  0  0
   10.2484  -16.7053   27.6138 C   0  0  0  0  0  0  0  0  0  0  0  0
    9.9130  -15.4104   27.9583 O   0  0  0  0  0  0  0  0  0  0  0  0
   14.0715  -17.9322   23.1228 O   0  0  0  0  0  0  0  0  0  0  0  0
   10.3679  -17.5396   28.5377 O   0  0  0  0  0  0  0  0  0  0  0  0
  2  1  1  0
  3  2  2  0
  4  2  1  0
  5  4  1  0
  5  6  1  1
  7  5  1  0
  7  8  2  0
  9 10  1  0
 11 12  1  0
 11 10  1  0
 13 14  1  0
 13 12  1  1
 14  7  1  0
 15 13  1  0
 16 15  2  0
 17 15  1  0
 18 17  1  0
 19 20  1  0
 18 19  1  1
 20 21  1  0
 21 25  1  0
 21 22  2  0
 23 18  1  0
 23 24  1  0
 26 23  2  0
M  END
$$$$
