NME.pdb
     RDKit          3D

 26 25  0  0  1  0  0  0  0  0999 V2000
    6.9722  -18.6720   19.3774 N   0  0  0  0  0  0  0  0  0  0  0  0
    8.3936  -18.6657   19.5958 C   0  0  0  0  0  0  0  0  0  0  0  0
    9.1349  -19.1636   18.7260 O   0  0  0  0  0  0  0  0  0  0  0  0
    8.8761  -18.0629   20.8497 C   0  0  0  0  0  0  0  0  0  0  0  0
    8.8375  -16.5831   20.8955 C   0  0  2  0  0  0  0  0  0  0  0  0
    9.8696  -16.1145   19.9392 N   0  0  0  0  0  0  0  0  0  0  0  0
    9.1415  -15.9447   22.1733 C   0  0  0  0  0  0  0  0  0  0  0  0
   10.3138  -15.9026   22.5934 O   0  0  0  0  0  0  0  0  0  0  0  0
    7.1217  -10.8024   27.6475 C   0  0  0  0  0  0  0  0  0  0  0  0
    6.3583  -12.1554   26.7201 S   0  0  0  0  0  0  0  0  0  0  0  0
    7.5523  -13.3729   26.1750 C   0  0  0  0  0  0  0  0  0  0  0  0
    7.3074  -13.8851   24.7806 C   0  0  0  0  0  0  0  0  0  0  0  0
    8.3931  -14.7768   24.2879 C   0  0  2  0  0  0  0  0  0  0  0  0
    8.1089  -15.3492   22.9859 N   0  0  0  0  0  0  0  0  0  0  0  0
    8.5204  -15.9162   25.2374 C   0  0  0  0  0  0  0  0  0  0  0  0
    7.6353  -16.8260   25.2852 O   0  0  0  0  0  0  0  0  0  0  0  0
    9.6459  -15.9811   26.0953 N   0  0  0  0  0  0  0  0  0  0  0  0
    9.8029  -17.1284   26.9563 C   0  0  1  0  0  0  0  0  0  0  0  0
   10.6691  -18.1934   26.3191 C   0  0  0  0  0  0  0  0  0  0  0  0
   12.0763  -17.7128   26.0709 C   0  0  0  0  0  0  0  0  0  0  0  0
   12.8848  -18.7633   25.4240 C   0  0  0  0  0  0  0  0  0  0  0  0
   12.3821  -19.8734   25.1697 O   0  0  0  0  0  0  0  0  0  0  0  0
   10.3257  -16.6751   28.2532 C   0  0  0  0  0  0  0  0  0  0  0  0
   10.6412  -15.3441   28.4453 O   0  0  0  0  0  0  0  0  0  0  0  0
   14.1997  -18.5204   25.0986 O   0  0  0  0  0  0  0  0  0  0  0  0
   10.5018  -17.4579   29.2124 O   0  0  0  0  0  0  0  0  0  0  0  0
  2  1  1  0
  3  2  2  0
  4  2  1  0
  5  4  1  0
  5  6  1  6
  7  5  1  0
  7  8  2  0
  9 10  1  0
 11 12  1  0
 11 10  1  0
 13 14  1  0
 13 12  1  1
 14  7  1  0
 15 13  1  0
 16 15  2  0
 17 15  1  0
 18 17  1  0
 19 20  1  0
 18 19  1  6
 20 21  1  0
 21 25  1  0
 21 22  2  0
 23 18  1  0
 23 24  1  0
 26 23  2  0
M  END
$$$$
