NWS.pdb
     RDKit          3D

 29 30  0  0  1  0  0  0  0  0999 V2000
    7.7718  -16.8253   18.8294 N   0  0  0  0  0  0  0  0  0  0  0  0
    7.8267  -15.4587   19.1971 C   0  0  0  0  0  0  0  0  0  0  0  0
    7.2173  -14.6171   18.4945 O   0  0  0  0  0  0  0  0  0  0  0  0
    8.6020  -15.0620   20.3918 C   0  0  0  0  0  0  0  0  0  0  0  0
    9.2769  -16.3261   20.9249 C   0  0  2  0  0  0  0  0  0  0  0  0
    8.1994  -17.3111   21.0239 N   0  0  0  0  0  0  0  0  0  0  0  0
    9.7247  -15.9403   22.3253 C   0  0  0  0  0  0  0  0  0  0  0  0
   10.5300  -14.9970   22.4811 O   0  0  0  0  0  0  0  0  0  0  0  0
    9.2301  -16.6438   23.4361 N   0  0  0  0  0  0  0  0  0  0  0  0
    9.6785  -16.5114   24.7660 C   0  0  1  0  0  0  0  0  0  0  0  0
    8.6165  -16.6322   25.8509 C   0  0  0  0  0  0  0  0  0  0  0  0
    7.5289  -15.6330   25.6968 C   0  0  0  0  0  0  0  0  0  0  0  0
    6.2376  -15.7592   25.2563 C   0  0  0  0  0  0  0  0  0  0  0  0
    5.6200  -14.5802   25.2548 N   0  0  0  0  0  0  0  0  0  0  0  0
    6.5019  -13.6658   25.6966 C   0  0  0  0  0  0  0  0  0  0  0  0
    6.3544  -12.2886   25.8755 C   0  0  0  0  0  0  0  0  0  0  0  0
    7.4310  -11.5650   26.3438 C   0  0  0  0  0  0  0  0  0  0  0  0
    8.6320  -12.1452   26.6377 C   0  0  0  0  0  0  0  0  0  0  0  0
    8.7556  -13.5278   26.4481 C   0  0  0  0  0  0  0  0  0  0  0  0
    7.7071  -14.2869   25.9829 C   0  0  0  0  0  0  0  0  0  0  0  0
   10.8740  -17.3110   25.0264 C   0  0  0  0  0  0  0  0  0  0  0  0
   10.8357  -18.5621   24.6900 O   0  0  0  0  0  0  0  0  0  0  0  0
   14.5387  -16.6442   24.3185 O   0  0  0  0  0  0  0  0  0  0  0  0
   14.4767  -17.0879   25.6381 C   0  0  0  0  0  0  0  0  0  0  0  0
   13.1443  -17.7163   25.8740 C   0  0  2  0  0  0  0  0  0  0  0  0
   12.0549  -16.7992   25.6227 N   0  0  0  0  0  0  0  0  0  0  0  0
   13.0819  -18.1334   27.3148 C   0  0  0  0  0  0  0  0  0  0  0  0
   13.9634  -19.0325   27.8666 O   0  0  0  0  0  0  0  0  0  0  0  0
   12.1817  -17.6322   28.0337 O   0  0  0  0  0  0  0  0  0  0  0  0
  2  1  1  0
  3  2  2  0
  4  5  1  0
  4  2  1  0
  5  6  1  1
  7  8  2  0
  7  5  1  0
  9  7  1  0
 10  9  1  0
 11 12  1  0
 10 11  1  1
 12 13  2  0
 12 20  1  0
 13 14  1  0
 14 15  1  0
 15 16  2  0
 16 17  1  0
 18 17  2  0
 19 18  1  0
 20 19  2  0
 20 15  1  0
 21 22  2  0
 21 10  1  0
 23 24  1  0
 25 26  1  0
 25 24  1  1
 26 21  1  0
 27 25  1  0
 28 27  1  0
 29 27  2  0
M  END
$$$$
