NWS.pdb
     RDKit          3D

 29 30  0  0  1  0  0  0  0  0999 V2000
    9.6574  -17.5004   18.3509 N   0  0  0  0  0  0  0  0  0  0  0  0
    9.5493  -16.1179   18.6386 C   0  0  0  0  0  0  0  0  0  0  0  0
    9.4503  -15.3067   17.6870 O   0  0  0  0  0  0  0  0  0  0  0  0
    9.5613  -15.6695   20.0473 C   0  0  0  0  0  0  0  0  0  0  0  0
    9.8804  -16.8960   20.9027 C   0  0  2  0  0  0  0  0  0  0  0  0
    8.6156  -17.6258   20.9953 N   0  0  0  0  0  0  0  0  0  0  0  0
   10.2174  -16.3149   22.2662 C   0  0  0  0  0  0  0  0  0  0  0  0
   11.0183  -15.3590   22.3523 O   0  0  0  0  0  0  0  0  0  0  0  0
    9.6260  -16.8534   23.4211 N   0  0  0  0  0  0  0  0  0  0  0  0
    9.9453  -16.5108   24.7507 C   0  0  1  0  0  0  0  0  0  0  0  0
    8.7846  -16.4787   25.7362 C   0  0  0  0  0  0  0  0  0  0  0  0
    7.7195  -15.5267   25.3305 C   0  0  0  0  0  0  0  0  0  0  0  0
    6.6783  -15.6531   24.4490 C   0  0  0  0  0  0  0  0  0  0  0  0
    5.9811  -14.5218   24.3736 N   0  0  0  0  0  0  0  0  0  0  0  0
    6.5587  -13.6393   25.2082 C   0  0  0  0  0  0  0  0  0  0  0  0
    6.2182  -12.3148   25.4911 C   0  0  0  0  0  0  0  0  0  0  0  0
    6.9880  -11.6144   26.3959 C   0  0  0  0  0  0  0  0  0  0  0  0
    8.0678  -12.1679   27.0228 C   0  0  0  0  0  0  0  0  0  0  0  0
    8.3903  -13.4974   26.7208 C   0  0  0  0  0  0  0  0  0  0  0  0
    7.6493  -14.2318   25.8245 C   0  0  0  0  0  0  0  0  0  0  0  0
   11.1106  -17.2428   25.2434 C   0  0  0  0  0  0  0  0  0  0  0  0
   11.0256  -18.5355   25.2835 O   0  0  0  0  0  0  0  0  0  0  0  0
   14.5465  -15.4686   26.5513 O   0  0  0  0  0  0  0  0  0  0  0  0
   14.6970  -16.7942   26.1489 C   0  0  0  0  0  0  0  0  0  0  0  0
   13.3657  -17.4662   26.1928 C   0  0  2  0  0  0  0  0  0  0  0  0
   12.3101  -16.6227   25.6777 N   0  0  0  0  0  0  0  0  0  0  0  0
   13.0563  -17.7790   27.6282 C   0  0  0  0  0  0  0  0  0  0  0  0
   13.8752  -18.5568   28.4120 O   0  0  0  0  0  0  0  0  0  0  0  0
   12.0023  -17.3037   28.1197 O   0  0  0  0  0  0  0  0  0  0  0  0
  2  1  1  0
  3  2  2  0
  4  5  1  0
  4  2  1  0
  5  6  1  1
  7  8  2  0
  7  5  1  0
  9  7  1  0
 10  9  1  0
 11 12  1  0
 10 11  1  1
 12 13  2  0
 12 20  1  0
 13 14  1  0
 14 15  1  0
 15 16  2  0
 16 17  1  0
 18 17  2  0
 19 18  1  0
 20 19  2  0
 20 15  1  0
 21 22  2  0
 21 10  1  0
 23 24  1  0
 25 26  1  0
 25 24  1  1
 26 21  1  0
 27 25  1  0
 28 27  1  0
 29 27  2  0
M  END
$$$$
