NWS.pdb
     RDKit          3D

 29 30  0  0  1  0  0  0  0  0999 V2000
   13.2731  -18.4018   17.8381 N   0  0  0  0  0  0  0  0  0  0  0  0
   12.1628  -18.8196   18.6117 C   0  0  0  0  0  0  0  0  0  0  0  0
   11.4330  -19.7419   18.1756 O   0  0  0  0  0  0  0  0  0  0  0  0
   11.8922  -18.1565   19.9050 C   0  0  0  0  0  0  0  0  0  0  0  0
   10.4804  -17.5755   19.8211 C   0  0  2  0  0  0  0  0  0  0  0  0
   10.5448  -16.5933   18.7384 N   0  0  0  0  0  0  0  0  0  0  0  0
   10.3051  -16.8447   21.1423 C   0  0  0  0  0  0  0  0  0  0  0  0
   11.2262  -16.1201   21.5773 O   0  0  0  0  0  0  0  0  0  0  0  0
    9.1093  -16.9858   21.8659 N   0  0  0  0  0  0  0  0  0  0  0  0
    8.8190  -16.3876   23.1089 C   0  0  1  0  0  0  0  0  0  0  0  0
    7.3961  -15.8780   23.2961 C   0  0  0  0  0  0  0  0  0  0  0  0
    7.1489  -15.3713   24.6700 C   0  0  0  0  0  0  0  0  0  0  0  0
    6.6847  -15.9970   25.7971 C   0  0  0  0  0  0  0  0  0  0  0  0
    6.5900  -15.1392   26.8104 N   0  0  0  0  0  0  0  0  0  0  0  0
    6.9935  -13.9387   26.3576 C   0  0  0  0  0  0  0  0  0  0  0  0
    7.0778  -12.7113   27.0185 C   0  0  0  0  0  0  0  0  0  0  0  0
    7.5252  -11.6126   26.3152 C   0  0  0  0  0  0  0  0  0  0  0  0
    7.8873  -11.6818   25.0001 C   0  0  0  0  0  0  0  0  0  0  0  0
    7.7920  -12.9237   24.3588 C   0  0  0  0  0  0  0  0  0  0  0  0
    7.3507  -14.0446   25.0229 C   0  0  0  0  0  0  0  0  0  0  0  0
    9.3064  -17.1862   24.2318 C   0  0  0  0  0  0  0  0  0  0  0  0
    8.9188  -18.4215   24.2936 O   0  0  0  0  0  0  0  0  0  0  0  0
   12.6900  -16.4526   26.0915 O   0  0  0  0  0  0  0  0  0  0  0  0
   12.1429  -17.7276   26.2224 C   0  0  0  0  0  0  0  0  0  0  0  0
   10.6553  -17.6150   26.2402 C   0  0  2  0  0  0  0  0  0  0  0  0
   10.1651  -16.6877   25.2448 N   0  0  0  0  0  0  0  0  0  0  0  0
   10.2494  -17.1068   27.5933 C   0  0  0  0  0  0  0  0  0  0  0  0
   10.5787  -17.7555   28.7597 O   0  0  0  0  0  0  0  0  0  0  0  0
    9.5815  -16.0440   27.6463 O   0  0  0  0  0  0  0  0  0  0  0  0
  2  1  1  0
  3  2  2  0
  4  5  1  0
  4  2  1  0
  5  6  1  6
  7  8  2  0
  7  5  1  0
  9  7  1  0
 10  9  1  0
 11 12  1  0
 10 11  1  1
 12 13  2  0
 12 20  1  0
 13 14  1  0
 14 15  1  0
 15 16  2  0
 16 17  1  0
 18 17  2  0
 19 18  1  0
 20 19  2  0
 20 15  1  0
 21 22  2  0
 21 10  1  0
 23 24  1  0
 25 26  1  0
 25 24  1  1
 26 21  1  0
 27 25  1  0
 28 27  1  0
 29 27  2  0
M  END
$$$$
