NWS.pdb
     RDKit          3D

 29 30  0  0  1  0  0  0  0  0999 V2000
    7.2586  -12.8182   18.5041 N   0  0  0  0  0  0  0  0  0  0  0  0
    8.0887  -13.8523   19.0015 C   0  0  0  0  0  0  0  0  0  0  0  0
    8.6130  -14.6520   18.1897 O   0  0  0  0  0  0  0  0  0  0  0  0
    8.3098  -13.9639   20.4590 C   0  0  0  0  0  0  0  0  0  0  0  0
    8.6163  -15.4329   20.7521 C   0  0  2  0  0  0  0  0  0  0  0  0
    7.3066  -16.0823   20.8136 N   0  0  0  0  0  0  0  0  0  0  0  0
    9.2233  -15.4102   22.1453 C   0  0  0  0  0  0  0  0  0  0  0  0
   10.1715  -14.6351   22.3964 O   0  0  0  0  0  0  0  0  0  0  0  0
    8.7149  -16.2582   23.1433 N   0  0  0  0  0  0  0  0  0  0  0  0
    9.2173  -16.3876   24.4540 C   0  0  1  0  0  0  0  0  0  0  0  0
    8.1829  -16.4436   25.5703 C   0  0  0  0  0  0  0  0  0  0  0  0
    7.1812  -15.3515   25.4736 C   0  0  0  0  0  0  0  0  0  0  0  0
    5.9132  -15.3276   24.9553 C   0  0  0  0  0  0  0  0  0  0  0  0
    5.3833  -14.1108   25.0548 N   0  0  0  0  0  0  0  0  0  0  0  0
    6.3004  -13.3216   25.6422 C   0  0  0  0  0  0  0  0  0  0  0  0
    6.2421  -11.9647   25.9675 C   0  0  0  0  0  0  0  0  0  0  0  0
    7.3377  -11.3828   26.5698 C   0  0  0  0  0  0  0  0  0  0  0  0
    8.4739  -12.0837   26.8583 C   0  0  0  0  0  0  0  0  0  0  0  0
    8.5088  -13.4429   26.5206 C   0  0  0  0  0  0  0  0  0  0  0  0
    7.4384  -14.0626   25.9187 C   0  0  0  0  0  0  0  0  0  0  0  0
   10.2399  -17.4275   24.5518 C   0  0  0  0  0  0  0  0  0  0  0  0
    9.9376  -18.6015   24.0934 O   0  0  0  0  0  0  0  0  0  0  0  0
   13.8812  -17.3683   23.7295 O   0  0  0  0  0  0  0  0  0  0  0  0
   13.8214  -18.0294   24.9548 C   0  0  0  0  0  0  0  0  0  0  0  0
   12.3991  -18.3682   25.2517 C   0  0  2  0  0  0  0  0  0  0  0  0
   11.5248  -17.2242   25.1171 N   0  0  0  0  0  0  0  0  0  0  0  0
   12.3279  -18.8468   26.6729 C   0  0  0  0  0  0  0  0  0  0  0  0
   11.4951  -18.2781   27.6072 O   0  0  0  0  0  0  0  0  0  0  0  0
   13.0655  -19.8071   27.0077 O   0  0  0  0  0  0  0  0  0  0  0  0
  2  1  1  0
  3  2  2  0
  4  5  1  0
  4  2  1  0
  5  6  1  1
  7  8  2  0
  7  5  1  0
  9  7  1  0
 10  9  1  0
 11 12  1  0
 10 11  1  1
 12 13  2  0
 12 20  1  0
 13 14  1  0
 14 15  1  0
 15 16  2  0
 16 17  1  0
 18 17  2  0
 19 18  1  0
 20 19  2  0
 20 15  1  0
 21 22  2  0
 21 10  1  0
 23 24  1  0
 25 26  1  0
 25 24  1  1
 26 21  1  0
 27 25  1  0
 28 27  1  0
 29 27  2  0
M  END
$$$$
