NWS.pdb
     RDKit          3D

 29 30  0  0  1  0  0  0  0  0999 V2000
   13.8520  -16.7362   17.7159 N   0  0  0  0  0  0  0  0  0  0  0  0
   12.4581  -16.6467   17.9495 C   0  0  0  0  0  0  0  0  0  0  0  0
   11.6687  -17.1064   17.0899 O   0  0  0  0  0  0  0  0  0  0  0  0
   11.9728  -16.0117   19.1933 C   0  0  0  0  0  0  0  0  0  0  0  0
   11.3729  -17.1224   20.0560 C   0  0  2  0  0  0  0  0  0  0  0  0
   10.1723  -17.5473   19.3355 N   0  0  0  0  0  0  0  0  0  0  0  0
   10.9576  -16.4111   21.3334 C   0  0  0  0  0  0  0  0  0  0  0  0
   11.8048  -15.7648   21.9870 O   0  0  0  0  0  0  0  0  0  0  0  0
    9.6247  -16.4821   21.7714 N   0  0  0  0  0  0  0  0  0  0  0  0
    9.1196  -15.9485   22.9745 C   0  0  1  0  0  0  0  0  0  0  0  0
    7.6856  -15.4372   22.9359 C   0  0  0  0  0  0  0  0  0  0  0  0
    7.1762  -15.0683   24.2812 C   0  0  0  0  0  0  0  0  0  0  0  0
    6.5664  -15.8141   25.2554 C   0  0  0  0  0  0  0  0  0  0  0  0
    6.2466  -15.0563   26.3019 N   0  0  0  0  0  0  0  0  0  0  0  0
    6.6456  -13.8021   26.0246 C   0  0  0  0  0  0  0  0  0  0  0  0
    6.5389  -12.6364   26.7863 C   0  0  0  0  0  0  0  0  0  0  0  0
    7.0302  -11.4589   26.2629 C   0  0  0  0  0  0  0  0  0  0  0  0
    7.6151  -11.3924   25.0304 C   0  0  0  0  0  0  0  0  0  0  0  0
    7.7086  -12.5748   24.2849 C   0  0  0  0  0  0  0  0  0  0  0  0
    7.2314  -13.7705   24.7692 C   0  0  0  0  0  0  0  0  0  0  0  0
    9.4023  -16.8103   24.1208 C   0  0  0  0  0  0  0  0  0  0  0  0
    9.0070  -18.0425   24.0483 O   0  0  0  0  0  0  0  0  0  0  0  0
   12.6232  -16.5789   26.3693 O   0  0  0  0  0  0  0  0  0  0  0  0
   11.8563  -17.7362   26.2494 C   0  0  0  0  0  0  0  0  0  0  0  0
   10.4119  -17.3647   26.2911 C   0  0  2  0  0  0  0  0  0  0  0  0
   10.0727  -16.3752   25.2926 N   0  0  0  0  0  0  0  0  0  0  0  0
   10.1268  -16.7805   27.6445 C   0  0  0  0  0  0  0  0  0  0  0  0
   10.3286  -17.4779   28.8118 O   0  0  0  0  0  0  0  0  0  0  0  0
    9.6860  -15.6052   27.6967 O   0  0  0  0  0  0  0  0  0  0  0  0
  2  1  1  0
  3  2  2  0
  4  5  1  0
  4  2  1  0
  5  6  1  6
  7  8  2  0
  7  5  1  0
  9  7  1  0
 10  9  1  0
 11 12  1  0
 10 11  1  6
 12 13  2  0
 12 20  1  0
 13 14  1  0
 14 15  1  0
 15 16  2  0
 16 17  1  0
 18 17  2  0
 19 18  1  0
 20 19  2  0
 20 15  1  0
 21 22  2  0
 21 10  1  0
 23 24  1  0
 25 26  1  0
 25 24  1  1
 26 21  1  0
 27 25  1  0
 28 27  1  0
 29 27  2  0
M  END
$$$$
