NWS.pdb
     RDKit          3D

 29 30  0  0  1  0  0  0  0  0999 V2000
    9.9595  -15.6204   18.1100 N   0  0  0  0  0  0  0  0  0  0  0  0
    8.8185  -15.6896   18.9461 C   0  0  0  0  0  0  0  0  0  0  0  0
    7.7014  -15.9292   18.4284 O   0  0  0  0  0  0  0  0  0  0  0  0
    8.9737  -15.4735   20.4004 C   0  0  0  0  0  0  0  0  0  0  0  0
    9.4701  -16.7911   20.9963 C   0  0  2  0  0  0  0  0  0  0  0  0
    8.2617  -17.5945   21.1842 N   0  0  0  0  0  0  0  0  0  0  0  0
   10.0176  -16.3949   22.3577 C   0  0  0  0  0  0  0  0  0  0  0  0
   10.9876  -15.6099   22.4317 O   0  0  0  0  0  0  0  0  0  0  0  0
    9.4300  -16.9110   23.5247 N   0  0  0  0  0  0  0  0  0  0  0  0
    9.8811  -16.6963   24.8429 C   0  0  1  0  0  0  0  0  0  0  0  0
    8.8107  -16.6688   25.9259 C   0  0  0  0  0  0  0  0  0  0  0  0
    7.6963  -15.7424   25.6016 C   0  0  0  0  0  0  0  0  0  0  0  0
    6.4785  -15.9603   25.0128 C   0  0  0  0  0  0  0  0  0  0  0  0
    5.8008  -14.8214   24.8900 N   0  0  0  0  0  0  0  0  0  0  0  0
    6.5688  -13.8418   25.3996 C   0  0  0  0  0  0  0  0  0  0  0  0
    6.3237  -12.4709   25.5051 C   0  0  0  0  0  0  0  0  0  0  0  0
    7.2919  -11.6692   26.0721 C   0  0  0  0  0  0  0  0  0  0  0  0
    8.4779  -12.1662   26.5323 C   0  0  0  0  0  0  0  0  0  0  0  0
    8.7011  -13.5441   26.4135 C   0  0  0  0  0  0  0  0  0  0  0  0
    7.7623  -14.3796   25.8543 C   0  0  0  0  0  0  0  0  0  0  0  0
   11.0288  -17.5378   25.1762 C   0  0  0  0  0  0  0  0  0  0  0  0
   10.8992  -18.8151   24.9986 O   0  0  0  0  0  0  0  0  0  0  0  0
   14.8053  -16.1943   26.1279 O   0  0  0  0  0  0  0  0  0  0  0  0
   14.6536  -17.4902   25.6384 C   0  0  0  0  0  0  0  0  0  0  0  0
   13.2968  -17.9896   26.0064 C   0  0  2  0  0  0  0  0  0  0  0  0
   12.2571  -17.0388   25.6804 N   0  0  0  0  0  0  0  0  0  0  0  0
   13.2769  -18.2139   27.4908 C   0  0  0  0  0  0  0  0  0  0  0  0
   14.1379  -19.0795   28.1226 O   0  0  0  0  0  0  0  0  0  0  0  0
   12.4334  -17.5776   28.1704 O   0  0  0  0  0  0  0  0  0  0  0  0
  2  1  1  0
  3  2  2  0
  4  5  1  0
  4  2  1  0
  5  6  1  1
  7  8  2  0
  7  5  1  0
  9  7  1  0
 10  9  1  0
 11 12  1  0
 10 11  1  1
 12 13  2  0
 12 20  1  0
 13 14  1  0
 14 15  1  0
 15 16  2  0
 16 17  1  0
 18 17  2  0
 19 18  1  0
 20 19  2  0
 20 15  1  0
 21 22  2  0
 21 10  1  0
 23 24  1  0
 25 26  1  0
 25 24  1  1
 26 21  1  0
 27 25  1  0
 28 27  1  0
 29 27  2  0
M  END
$$$$
