NWS.pdb
     RDKit          3D

 29 30  0  0  1  0  0  0  0  0999 V2000
    6.3390  -17.5343   18.7828 N   0  0  0  0  0  0  0  0  0  0  0  0
    7.7275  -17.3729   18.5554 C   0  0  0  0  0  0  0  0  0  0  0  0
    8.2407  -17.9007   17.5398 O   0  0  0  0  0  0  0  0  0  0  0  0
    8.5324  -16.5940   19.5203 C   0  0  0  0  0  0  0  0  0  0  0  0
    7.6027  -16.2165   20.6739 C   0  0  2  0  0  0  0  0  0  0  0  0
    6.8319  -15.0774   20.1746 N   0  0  0  0  0  0  0  0  0  0  0  0
    8.5467  -15.7355   21.7638 C   0  0  0  0  0  0  0  0  0  0  0  0
    9.2296  -14.7043   21.5823 O   0  0  0  0  0  0  0  0  0  0  0  0
    8.6452  -16.4505   22.9690 N   0  0  0  0  0  0  0  0  0  0  0  0
    9.4692  -16.1180   24.0634 C   0  0  1  0  0  0  0  0  0  0  0  0
    8.8171  -16.1693   25.4387 C   0  0  0  0  0  0  0  0  0  0  0  0
    7.5827  -15.3473   25.5146 C   0  0  0  0  0  0  0  0  0  0  0  0
    6.2646  -15.6718   25.3288 C   0  0  0  0  0  0  0  0  0  0  0  0
    5.4884  -14.5995   25.4671 N   0  0  0  0  0  0  0  0  0  0  0  0
    6.2915  -13.5575   25.7471 C   0  0  0  0  0  0  0  0  0  0  0  0
    5.9764  -12.2162   25.9754 C   0  0  0  0  0  0  0  0  0  0  0  0
    7.0020  -11.3333   26.2405 C   0  0  0  0  0  0  0  0  0  0  0  0
    8.3104  -11.7224   26.2874 C   0  0  0  0  0  0  0  0  0  0  0  0
    8.6012  -13.0727   26.0530 C   0  0  0  0  0  0  0  0  0  0  0  0
    7.6087  -13.9865   25.7849 C   0  0  0  0  0  0  0  0  0  0  0  0
   10.7633  -16.7950   24.0042 C   0  0  0  0  0  0  0  0  0  0  0  0
   10.7535  -18.0902   23.9562 O   0  0  0  0  0  0  0  0  0  0  0  0
   14.0527  -15.6294   22.1812 O   0  0  0  0  0  0  0  0  0  0  0  0
   14.3824  -16.1487   23.4316 C   0  0  0  0  0  0  0  0  0  0  0  0
   13.2169  -16.9171   23.9579 C   0  0  2  0  0  0  0  0  0  0  0  0
   12.0109  -16.1202   24.0009 N   0  0  0  0  0  0  0  0  0  0  0  0
   13.5443  -17.3461   25.3588 C   0  0  0  0  0  0  0  0  0  0  0  0
   14.6738  -18.0651   25.6705 O   0  0  0  0  0  0  0  0  0  0  0  0
   12.7440  -17.0280   26.2735 O   0  0  0  0  0  0  0  0  0  0  0  0
  2  1  1  0
  3  2  2  0
  4  5  1  0
  4  2  1  0
  5  6  1  6
  7  8  2  0
  7  5  1  0
  9  7  1  0
 10  9  1  0
 11 12  1  0
 10 11  1  1
 12 13  2  0
 12 20  1  0
 13 14  1  0
 14 15  1  0
 15 16  2  0
 16 17  1  0
 18 17  2  0
 19 18  1  0
 20 19  2  0
 20 15  1  0
 21 22  2  0
 21 10  1  0
 23 24  1  0
 25 26  1  0
 25 24  1  1
 26 21  1  0
 27 25  1  0
 28 27  1  0
 29 27  2  0
M  END
$$$$
