NWS.pdb
     RDKit          3D

 29 30  0  0  1  0  0  0  0  0999 V2000
    7.0375  -12.8134   18.3646 N   0  0  0  0  0  0  0  0  0  0  0  0
    8.1347  -13.6633   18.6467 C   0  0  0  0  0  0  0  0  0  0  0  0
    8.6717  -14.2928   17.7040 O   0  0  0  0  0  0  0  0  0  0  0  0
    8.6122  -13.7891   20.0402 C   0  0  0  0  0  0  0  0  0  0  0  0
    8.8751  -15.2746   20.2888 C   0  0  2  0  0  0  0  0  0  0  0  0
    7.5472  -15.8882   20.3214 N   0  0  0  0  0  0  0  0  0  0  0  0
    9.4723  -15.3128   21.6860 C   0  0  0  0  0  0  0  0  0  0  0  0
   10.5031  -14.6521   21.9383 O   0  0  0  0  0  0  0  0  0  0  0  0
    8.8621  -16.0881   22.6861 N   0  0  0  0  0  0  0  0  0  0  0  0
    9.3015  -16.2128   24.0198 C   0  0  1  0  0  0  0  0  0  0  0  0
    8.2157  -16.3752   25.0752 C   0  0  0  0  0  0  0  0  0  0  0  0
    7.2321  -15.2628   25.0560 C   0  0  0  0  0  0  0  0  0  0  0  0
    6.0441  -15.1145   24.3898 C   0  0  0  0  0  0  0  0  0  0  0  0
    5.5016  -13.9266   24.6470 N   0  0  0  0  0  0  0  0  0  0  0  0
    6.3299  -13.2819   25.4880 C   0  0  0  0  0  0  0  0  0  0  0  0
    6.2243  -12.0091   26.0532 C   0  0  0  0  0  0  0  0  0  0  0  0
    7.2282  -11.5746   26.8929 C   0  0  0  0  0  0  0  0  0  0  0  0
    8.3183  -12.3419   27.1903 C   0  0  0  0  0  0  0  0  0  0  0  0
    8.4024  -13.6140   26.6095 C   0  0  0  0  0  0  0  0  0  0  0  0
    7.4235  -14.0862   25.7664 C   0  0  0  0  0  0  0  0  0  0  0  0
   10.3941  -17.1748   24.1520 C   0  0  0  0  0  0  0  0  0  0  0  0
   10.1966  -18.3653   23.6791 O   0  0  0  0  0  0  0  0  0  0  0  0
   14.2302  -16.2468   24.8793 O   0  0  0  0  0  0  0  0  0  0  0  0
   13.9625  -17.5313   24.4100 C   0  0  0  0  0  0  0  0  0  0  0  0
   12.6095  -17.9458   24.8829 C   0  0  2  0  0  0  0  0  0  0  0  0
   11.6389  -16.8804   24.7651 N   0  0  0  0  0  0  0  0  0  0  0  0
   12.7236  -18.3165   26.3333 C   0  0  0  0  0  0  0  0  0  0  0  0
   13.5711  -19.3006   26.7839 O   0  0  0  0  0  0  0  0  0  0  0  0
   12.0089  -17.6933   27.1575 O   0  0  0  0  0  0  0  0  0  0  0  0
  2  1  1  0
  3  2  2  0
  4  5  1  0
  4  2  1  0
  5  6  1  1
  7  8  2  0
  7  5  1  0
  9  7  1  0
 10  9  1  0
 11 12  1  0
 10 11  1  1
 12 13  2  0
 12 20  1  0
 13 14  1  0
 14 15  1  0
 15 16  2  0
 16 17  1  0
 18 17  2  0
 19 18  1  0
 20 19  2  0
 20 15  1  0
 21 22  2  0
 21 10  1  0
 23 24  1  0
 25 26  1  0
 25 24  1  1
 26 21  1  0
 27 25  1  0
 28 27  1  0
 29 27  2  0
M  END
$$$$
