NWS.pdb
     RDKit          3D

 29 30  0  0  1  0  0  0  0  0999 V2000
    8.4212  -12.5143   18.3497 N   0  0  0  0  0  0  0  0  0  0  0  0
    7.8351  -13.5619   19.1012 C   0  0  0  0  0  0  0  0  0  0  0  0
    7.0300  -14.3382   18.5334 O   0  0  0  0  0  0  0  0  0  0  0  0
    8.1828  -13.7083   20.5307 C   0  0  0  0  0  0  0  0  0  0  0  0
    8.7774  -15.1063   20.7037 C   0  0  2  0  0  0  0  0  0  0  0  0
    7.6218  -16.0037   20.7222 N   0  0  0  0  0  0  0  0  0  0  0  0
    9.3992  -15.0716   22.0902 C   0  0  0  0  0  0  0  0  0  0  0  0
   10.2267  -14.1795   22.3768 O   0  0  0  0  0  0  0  0  0  0  0  0
    9.0396  -16.0402   23.0421 N   0  0  0  0  0  0  0  0  0  0  0  0
    9.5747  -16.1629   24.3405 C   0  0  1  0  0  0  0  0  0  0  0  0
    8.5675  -16.2876   25.4760 C   0  0  0  0  0  0  0  0  0  0  0  0
    7.4954  -15.2627   25.4012 C   0  0  0  0  0  0  0  0  0  0  0  0
    6.2308  -15.3103   24.8762 C   0  0  0  0  0  0  0  0  0  0  0  0
    5.6202  -14.1345   25.0035 N   0  0  0  0  0  0  0  0  0  0  0  0
    6.4800  -13.3012   25.6161 C   0  0  0  0  0  0  0  0  0  0  0  0
    6.3296  -11.9601   25.9754 C   0  0  0  0  0  0  0  0  0  0  0  0
    7.3813  -11.3220   26.5987 C   0  0  0  0  0  0  0  0  0  0  0  0
    8.5607  -11.9526   26.8760 C   0  0  0  0  0  0  0  0  0  0  0  0
    8.6878  -13.2973   26.5041 C   0  0  0  0  0  0  0  0  0  0  0  0
    7.6638  -13.9714   25.8804 C   0  0  0  0  0  0  0  0  0  0  0  0
   10.6503  -17.1507   24.4019 C   0  0  0  0  0  0  0  0  0  0  0  0
   10.4296  -18.3029   23.8508 O   0  0  0  0  0  0  0  0  0  0  0  0
   14.2879  -16.7595   23.7305 O   0  0  0  0  0  0  0  0  0  0  0  0
   14.2490  -17.5665   24.8659 C   0  0  0  0  0  0  0  0  0  0  0  0
   12.8443  -18.0160   25.0908 C   0  0  2  0  0  0  0  0  0  0  0  0
   11.9026  -16.9205   25.0269 N   0  0  0  0  0  0  0  0  0  0  0  0
   12.7690  -18.6182   26.4640 C   0  0  0  0  0  0  0  0  0  0  0  0
   13.5642  -19.6675   26.8594 O   0  0  0  0  0  0  0  0  0  0  0  0
   11.9406  -18.1329   27.2743 O   0  0  0  0  0  0  0  0  0  0  0  0
  2  1  1  0
  3  2  2  0
  4  5  1  0
  4  2  1  0
  5  6  1  1
  7  8  2  0
  7  5  1  0
  9  7  1  0
 10  9  1  0
 11 12  1  0
 10 11  1  1
 12 13  2  0
 12 20  1  0
 13 14  1  0
 14 15  1  0
 15 16  2  0
 16 17  1  0
 18 17  2  0
 19 18  1  0
 20 19  2  0
 20 15  1  0
 21 22  2  0
 21 10  1  0
 23 24  1  0
 25 26  1  0
 25 24  1  1
 26 21  1  0
 27 25  1  0
 28 27  1  0
 29 27  2  0
M  END
$$$$
