RYF.pdb
     RDKit          3D

 35 36  0  0  1  0  0  0  0  0999 V2000
    8.1837  -13.4418   16.4121 N   0  0  0  0  0  0  0  0  0  0  0  0
    8.9778  -13.4334   17.5823 C   0  0  0  0  0  0  0  0  0  0  0  0
    8.8536  -12.5380   18.4758 N   0  0  0  0  0  0  0  0  0  0  0  0
    9.9635  -14.4578   17.7931 N   0  0  0  0  0  0  0  0  0  0  0  0
    9.5365  -15.8322   17.9049 C   0  0  0  0  0  0  0  0  0  0  0  0
    8.2624  -15.8812   18.7060 C   0  0  0  0  0  0  0  0  0  0  0  0
    8.4010  -16.6648   19.9683 C   0  0  0  0  0  0  0  0  0  0  0  0
    9.7122  -16.3586   20.6130 C   0  0  2  0  0  0  0  0  0  0  0  0
   10.7265  -17.2116   20.0045 N   0  0  0  0  0  0  0  0  0  0  0  0
    9.6730  -16.6378   22.0917 C   0  0  0  0  0  0  0  0  0  0  0  0
    8.9650  -17.5684   22.5571 O   0  0  0  0  0  0  0  0  0  0  0  0
    9.4840  -12.4541   19.2941 O   0  0  0  0  0  0  0  0  0  0  0  0
   11.0730  -15.2670   30.8411 C   0  0  0  0  0  0  0  0  0  0  0  0
   11.0752  -15.1969   29.4638 C   0  0  0  0  0  0  0  0  0  0  0  0
   10.6006  -14.1334   28.7629 C   0  0  0  0  0  0  0  0  0  0  0  0
   10.6145  -14.0880   27.3766 C   0  0  0  0  0  0  0  0  0  0  0  0
   11.1214  -15.1431   26.6479 C   0  0  0  0  0  0  0  0  0  0  0  0
   11.1398  -15.0978   25.1912 C   0  0  1  0  0  0  0  0  0  0  0  0
   10.3702  -16.1525   24.4555 N   0  0  0  0  0  0  0  0  0  0  0  0
   10.4233  -15.8733   23.0125 C   0  0  0  0  0  0  0  0  0  0  0  0
    8.9828  -16.3500   24.8874 O   0  0  0  0  0  0  0  0  0  0  0  0
    8.2554  -15.2922   25.0386 C   0  0  0  0  0  0  0  0  0  0  0  0
   11.6058  -16.2294   27.3807 C   0  0  0  0  0  0  0  0  0  0  0  0
   11.5874  -16.2646   28.7539 N   0  0  0  0  0  0  0  0  0  0  0  0
    8.3058  -17.5489   25.1612 C   0  0  1  0  0  0  0  0  0  0  0  0
    7.2169  -17.6351   26.1257 C   0  0  0  0  0  0  0  0  0  0  0  0
    6.0900  -16.8063   25.5626 C   0  0  0  0  0  0  0  0  0  0  0  0
    6.2743  -15.3597   25.7541 C   0  0  0  0  0  0  0  0  0  0  0  0
    6.0449  -14.8467   27.0150 C   0  0  0  0  0  0  0  0  0  0  0  0
    6.2051  -13.4856   27.2501 C   0  0  0  0  0  0  0  0  0  0  0  0
    6.5875  -12.6492   26.2455 C   0  0  0  0  0  0  0  0  0  0  0  0
    6.8221  -13.1206   24.9900 C   0  0  0  0  0  0  0  0  0  0  0  0
    6.6576  -14.4869   24.7691 C   0  0  0  0  0  0  0  0  0  0  0  0
    6.7327  -19.0064   26.2377 O   0  0  0  0  0  0  0  0  0  0  0  0
    7.2261  -19.8662   25.4306 O   0  0  0  0  0  0  0  0  0  0  0  0
  2  3  2  0
  2  1  1  0
  4  2  1  0
  5  4  1  0
  6  7  1  0
  6  5  1  0
  7  8  1  0
  8 10  1  0
  8  9  1  6
 10 19  1  0
 10 11  2  0
 12 13  1  0
 13 14  2  0
 14 15  1  0
 16 17  1  0
 16 15  2  0
 18 17  1  6
 18 20  1  0
 19 18  1  0
 20 21  2  0
 22 16  1  0
 23 22  2  0
 23 13  1  0
 24 20  1  0
 24 25  1  0
 25 33  1  0
 25 26  1  1
 27 26  1  0
 27 32  1  0
 28 27  2  0
 29 28  1  0
 29 30  2  0
 30 31  1  0
 31 32  2  0
 33 35  1  0
 34 33  2  0
M  END
$$$$
