RYF.pdb
     RDKit          3D

 35 36  0  0  1  0  0  0  0  0999 V2000
    9.3425  -13.3898   18.9582 N   0  0  0  0  0  0  0  0  0  0  0  0
    8.3259  -13.5317   17.9853 C   0  0  0  0  0  0  0  0  0  0  0  0
    8.1059  -12.6424   17.1043 N   0  0  0  0  0  0  0  0  0  0  0  0
    7.5012  -14.7086   17.9695 N   0  0  0  0  0  0  0  0  0  0  0  0
    7.6303  -15.6722   19.0366 C   0  0  0  0  0  0  0  0  0  0  0  0
    6.4272  -15.5653   19.9357 C   0  0  0  0  0  0  0  0  0  0  0  0
    6.4525  -16.5490   21.0574 C   0  0  0  0  0  0  0  0  0  0  0  0
    7.7918  -16.5311   21.7166 C   0  0  2  0  0  0  0  0  0  0  0  0
    8.5750  -17.6387   21.1814 N   0  0  0  0  0  0  0  0  0  0  0  0
    7.6702  -16.7041   23.2070 C   0  0  0  0  0  0  0  0  0  0  0  0
    6.8857  -15.9869   23.8809 O   0  0  0  0  0  0  0  0  0  0  0  0
    7.4168  -12.7531   16.3383 O   0  0  0  0  0  0  0  0  0  0  0  0
    4.2148  -22.7876   24.8321 C   0  0  0  0  0  0  0  0  0  0  0  0
    5.2510  -21.9129   25.0835 C   0  0  0  0  0  0  0  0  0  0  0  0
    5.3353  -21.1472   26.2033 C   0  0  0  0  0  0  0  0  0  0  0  0
    6.3891  -20.2747   26.4321 C   0  0  0  0  0  0  0  0  0  0  0  0
    7.4081  -20.1528   25.5112 C   0  0  0  0  0  0  0  0  0  0  0  0
    8.5181  -19.2388   25.7495 C   0  0  2  0  0  0  0  0  0  0  0  0
    8.3266  -17.8021   25.3686 N   0  0  0  0  0  0  0  0  0  0  0  0
    8.4253  -17.6709   23.9070 C   0  0  0  0  0  0  0  0  0  0  0  0
    9.2157  -16.8414   26.0295 O   0  0  0  0  0  0  0  0  0  0  0  0
   10.3874  -16.6687   25.5118 C   0  0  0  0  0  0  0  0  0  0  0  0
    7.3088  -20.9454   24.3651 C   0  0  0  0  0  0  0  0  0  0  0  0
    6.2607  -21.8066   24.1479 N   0  0  0  0  0  0  0  0  0  0  0  0
    8.9753  -16.0540   27.1665 C   0  0  1  0  0  0  0  0  0  0  0  0
    9.9637  -15.1295   27.7068 C   0  0  0  0  0  0  0  0  0  0  0  0
    9.1861  -13.9804   28.2971 C   0  0  0  0  0  0  0  0  0  0  0  0
    8.2331  -13.3730   27.3558 C   0  0  0  0  0  0  0  0  0  0  0  0
    7.0665  -12.8488   27.8753 C   0  0  0  0  0  0  0  0  0  0  0  0
    6.1317  -12.2627   27.0289 C   0  0  0  0  0  0  0  0  0  0  0  0
    6.3555  -12.2001   25.6869 C   0  0  0  0  0  0  0  0  0  0  0  0
    7.4948  -12.7069   25.1403 C   0  0  0  0  0  0  0  0  0  0  0  0
    8.4226  -13.2911   26.0008 C   0  0  0  0  0  0  0  0  0  0  0  0
   10.7126  -15.7503   28.7937 O   0  0  0  0  0  0  0  0  0  0  0  0
   10.3539  -16.9237   29.1525 O   0  0  0  0  0  0  0  0  0  0  0  0
  2  3  2  0
  2  1  1  0
  4  2  1  0
  5  4  1  0
  6  7  1  0
  6  5  1  0
  7  8  1  0
  8 10  1  0
  8  9  1  6
 10 19  1  0
 10 11  2  0
 12 13  1  0
 13 14  2  0
 14 15  1  0
 16 17  1  0
 16 15  2  0
 18 17  1  6
 18 20  1  0
 19 18  1  0
 20 21  2  0
 22 16  1  0
 23 22  2  0
 23 13  1  0
 24 20  1  0
 24 25  1  0
 25 33  1  0
 25 26  1  6
 27 26  1  0
 27 32  1  0
 28 27  2  0
 29 28  1  0
 29 30  2  0
 30 31  1  0
 31 32  2  0
 33 35  1  0
 34 33  2  0
M  END
$$$$
