RYF.pdb
     RDKit          3D

 35 36  0  0  1  0  0  0  0  0999 V2000
    8.8016  -13.4309   19.2240 N   0  0  0  0  0  0  0  0  0  0  0  0
    8.8756  -14.3914   18.1886 C   0  0  0  0  0  0  0  0  0  0  0  0
    9.3416  -14.1109   17.0398 N   0  0  0  0  0  0  0  0  0  0  0  0
    8.4167  -15.7342   18.4156 N   0  0  0  0  0  0  0  0  0  0  0  0
    7.5078  -15.9918   19.5072 C   0  0  0  0  0  0  0  0  0  0  0  0
    6.4142  -16.9066   19.0229 C   0  0  0  0  0  0  0  0  0  0  0  0
    5.3942  -17.1971   20.0726 C   0  0  0  0  0  0  0  0  0  0  0  0
    5.6991  -18.5037   20.7272 C   0  0  2  0  0  0  0  0  0  0  0  0
    4.5483  -19.3808   20.5454 N   0  0  0  0  0  0  0  0  0  0  0  0
    5.9448  -18.3322   22.2024 C   0  0  0  0  0  0  0  0  0  0  0  0
    5.0890  -17.7806   22.9422 O   0  0  0  0  0  0  0  0  0  0  0  0
    9.4258  -14.8014   16.2717 O   0  0  0  0  0  0  0  0  0  0  0  0
   10.1178  -19.2008   30.0942 C   0  0  0  0  0  0  0  0  0  0  0  0
    9.6870  -19.2609   28.7855 C   0  0  0  0  0  0  0  0  0  0  0  0
    8.6808  -18.4946   28.2878 C   0  0  0  0  0  0  0  0  0  0  0  0
    8.2665  -18.5747   26.9664 C   0  0  0  0  0  0  0  0  0  0  0  0
    8.8750  -19.4532   26.0952 C   0  0  0  0  0  0  0  0  0  0  0  0
    8.4439  -19.5382   24.7055 C   0  0  1  0  0  0  0  0  0  0  0  0
    7.3674  -18.5979   24.2553 N   0  0  0  0  0  0  0  0  0  0  0  0
    7.1367  -18.7795   22.8142 C   0  0  0  0  0  0  0  0  0  0  0  0
    7.5860  -17.1810   24.5637 O   0  0  0  0  0  0  0  0  0  0  0  0
    8.5637  -16.5895   23.9596 C   0  0  0  0  0  0  0  0  0  0  0  0
    9.9075  -20.2345   26.6198 C   0  0  0  0  0  0  0  0  0  0  0  0
   10.3103  -20.1477   27.9303 N   0  0  0  0  0  0  0  0  0  0  0  0
    6.8679  -16.3463   25.4345 C   0  0  2  0  0  0  0  0  0  0  0  0
    7.1450  -14.9218   25.5659 C   0  0  0  0  0  0  0  0  0  0  0  0
    5.9586  -14.3270   26.2817 C   0  0  0  0  0  0  0  0  0  0  0  0
    6.1744  -12.9399   26.7209 C   0  0  0  0  0  0  0  0  0  0  0  0
    5.6275  -12.5590   27.9298 C   0  0  0  0  0  0  0  0  0  0  0  0
    5.8022  -11.2591   28.3917 C   0  0  0  0  0  0  0  0  0  0  0  0
    6.5100  -10.3534   27.6611 C   0  0  0  0  0  0  0  0  0  0  0  0
    7.0631  -10.6945   26.4647 C   0  0  0  0  0  0  0  0  0  0  0  0
    6.8799  -12.0007   26.0145 C   0  0  0  0  0  0  0  0  0  0  0  0
    8.3156  -14.6981   26.4069 O   0  0  0  0  0  0  0  0  0  0  0  0
    8.5424  -15.5536   27.3293 O   0  0  0  0  0  0  0  0  0  0  0  0
  2  3  2  0
  2  1  1  0
  4  2  1  0
  5  4  1  0
  6  7  1  0
  6  5  1  0
  7  8  1  0
  8 10  1  0
  8  9  1  1
 10 19  1  0
 10 11  2  0
 12 13  1  0
 13 14  2  0
 14 15  1  0
 16 17  1  0
 16 15  2  0
 18 17  1  1
 18 20  1  0
 19 18  1  0
 20 21  2  0
 22 16  1  0
 23 22  2  0
 23 13  1  0
 24 20  1  0
 24 25  1  0
 25 33  1  0
 25 26  1  1
 27 26  1  0
 27 32  1  0
 28 27  2  0
 29 28  1  0
 29 30  2  0
 30 31  1  0
 31 32  2  0
 33 35  1  0
 34 33  2  0
M  END
$$$$
