RYF.pdb
     RDKit          3D

 35 36  0  0  1  0  0  0  0  0999 V2000
    8.8459  -14.1063   17.9693 N   0  0  0  0  0  0  0  0  0  0  0  0
    8.7742  -13.2388   19.0839 C   0  0  0  0  0  0  0  0  0  0  0  0
    9.4073  -12.1374   19.1238 N   0  0  0  0  0  0  0  0  0  0  0  0
    7.9674  -13.5891   20.2204 N   0  0  0  0  0  0  0  0  0  0  0  0
    7.1182  -14.7543   20.1478 C   0  0  0  0  0  0  0  0  0  0  0  0
    6.2916  -14.8317   21.4040 C   0  0  0  0  0  0  0  0  0  0  0  0
    5.4598  -16.0685   21.4752 C   0  0  0  0  0  0  0  0  0  0  0  0
    6.3336  -17.2529   21.7249 C   0  0  2  0  0  0  0  0  0  0  0  0
    5.6167  -18.4450   21.2872 N   0  0  0  0  0  0  0  0  0  0  0  0
    6.6562  -17.3959   23.1882 C   0  0  0  0  0  0  0  0  0  0  0  0
    5.7505  -17.3393   24.0602 O   0  0  0  0  0  0  0  0  0  0  0  0
    9.3453  -11.4694   19.9137 O   0  0  0  0  0  0  0  0  0  0  0  0
    6.3366  -22.7411   28.8209 C   0  0  0  0  0  0  0  0  0  0  0  0
    6.9771  -21.8649   27.9702 C   0  0  0  0  0  0  0  0  0  0  0  0
    8.0787  -21.1481   28.3169 C   0  0  0  0  0  0  0  0  0  0  0  0
    8.7044  -20.2727   27.4415 C   0  0  0  0  0  0  0  0  0  0  0  0
    8.2192  -20.0971   26.1629 C   0  0  0  0  0  0  0  0  0  0  0  0
    8.8756  -19.1800   25.2396 C   0  0  2  0  0  0  0  0  0  0  0  0
    8.2698  -17.8204   25.0657 N   0  0  0  0  0  0  0  0  0  0  0  0
    7.9787  -17.5980   23.6414 C   0  0  0  0  0  0  0  0  0  0  0  0
    9.0445  -16.7007   25.6103 O   0  0  0  0  0  0  0  0  0  0  0  0
   10.0087  -16.2410   24.8824 C   0  0  0  0  0  0  0  0  0  0  0  0
    7.0868  -20.8398   25.8198 C   0  0  0  0  0  0  0  0  0  0  0  0
    6.4743  -21.7042   26.6944 N   0  0  0  0  0  0  0  0  0  0  0  0
    8.8865  -16.0302   26.8334 C   0  0  2  0  0  0  0  0  0  0  0  0
    9.7466  -14.9277   27.2433 C   0  0  0  0  0  0  0  0  0  0  0  0
    8.9724  -14.1534   28.2800 C   0  0  0  0  0  0  0  0  0  0  0  0
    7.6569  -13.6955   27.8077 C   0  0  0  0  0  0  0  0  0  0  0  0
    6.6668  -13.5106   28.7517 C   0  0  0  0  0  0  0  0  0  0  0  0
    5.4050  -13.0784   28.3585 C   0  0  0  0  0  0  0  0  0  0  0  0
    5.1340  -12.8344   27.0462 C   0  0  0  0  0  0  0  0  0  0  0  0
    6.0863  -13.0061   26.0885 C   0  0  0  0  0  0  0  0  0  0  0  0
    7.3463  -13.4397   26.4974 C   0  0  0  0  0  0  0  0  0  0  0  0
   10.9556  -15.4273   27.8885 O   0  0  0  0  0  0  0  0  0  0  0  0
   11.8204  -14.5606   28.2561 O   0  0  0  0  0  0  0  0  0  0  0  0
  2  3  2  0
  2  1  1  0
  4  2  1  0
  5  4  1  0
  6  7  1  0
  6  5  1  0
  7  8  1  0
  8 10  1  0
  8  9  1  1
 10 19  1  0
 10 11  2  0
 12 13  1  0
 13 14  2  0
 14 15  1  0
 16 17  1  0
 16 15  2  0
 18 17  1  1
 18 20  1  0
 19 18  1  0
 20 21  2  0
 22 16  1  0
 23 22  2  0
 23 13  1  0
 24 20  1  0
 24 25  1  0
 25 33  1  0
 25 26  1  6
 27 26  1  0
 27 32  1  0
 28 27  2  0
 29 28  1  0
 29 30  2  0
 30 31  1  0
 31 32  2  0
 33 35  1  0
 34 33  2  0
M  END
$$$$
