RYF.pdb
     RDKit          3D

 35 36  0  0  1  0  0  0  0  0999 V2000
    9.5274  -14.4654   14.5076 N   0  0  0  0  0  0  0  0  0  0  0  0
    8.2771  -14.6203   15.1500 C   0  0  0  0  0  0  0  0  0  0  0  0
    7.2312  -14.0229   14.7442 N   0  0  0  0  0  0  0  0  0  0  0  0
    8.1573  -15.4741   16.2998 N   0  0  0  0  0  0  0  0  0  0  0  0
    8.9381  -15.1808   17.4781 C   0  0  0  0  0  0  0  0  0  0  0  0
   10.3293  -15.7240   17.2863 C   0  0  0  0  0  0  0  0  0  0  0  0
   11.1850  -15.5674   18.4986 C   0  0  0  0  0  0  0  0  0  0  0  0
   10.7857  -16.5671   19.5330 C   0  0  2  0  0  0  0  0  0  0  0  0
    9.5260  -17.1719   19.1160 N   0  0  0  0  0  0  0  0  0  0  0  0
   10.5853  -15.9152   20.8750 C   0  0  0  0  0  0  0  0  0  0  0  0
   11.5045  -15.2456   21.4141 O   0  0  0  0  0  0  0  0  0  0  0  0
    6.2975  -14.1450   15.1770 O   0  0  0  0  0  0  0  0  0  0  0  0
    7.0268  -11.7979   27.7970 C   0  0  0  0  0  0  0  0  0  0  0  0
    7.2739  -12.4713   26.6192 C   0  0  0  0  0  0  0  0  0  0  0  0
    7.9879  -11.9479   25.5877 C   0  0  0  0  0  0  0  0  0  0  0  0
    8.2222  -12.6471   24.4128 C   0  0  0  0  0  0  0  0  0  0  0  0
    7.7281  -13.9238   24.2489 C   0  0  0  0  0  0  0  0  0  0  0  0
    7.9746  -14.6623   23.0167 C   0  0  2  0  0  0  0  0  0  0  0  0
    9.2231  -15.4877   22.9415 N   0  0  0  0  0  0  0  0  0  0  0  0
    9.3668  -16.0265   21.5806 C   0  0  0  0  0  0  0  0  0  0  0  0
    9.3397  -16.5626   23.9321 O   0  0  0  0  0  0  0  0  0  0  0  0
    8.2434  -17.0046   24.4552 C   0  0  0  0  0  0  0  0  0  0  0  0
    6.9964  -14.4495   25.3165 C   0  0  0  0  0  0  0  0  0  0  0  0
    6.7697  -13.7487   26.4762 N   0  0  0  0  0  0  0  0  0  0  0  0
   10.4944  -17.2062   24.4044 C   0  0  2  0  0  0  0  0  0  0  0  0
   10.9552  -17.0851   25.7815 C   0  0  0  0  0  0  0  0  0  0  0  0
   10.6563  -15.6681   26.2018 C   0  0  0  0  0  0  0  0  0  0  0  0
    9.7720  -15.5789   27.3736 C   0  0  0  0  0  0  0  0  0  0  0  0
   10.0677  -16.3765   28.4608 C   0  0  0  0  0  0  0  0  0  0  0  0
    9.2638  -16.3304   29.5945 C   0  0  0  0  0  0  0  0  0  0  0  0
    8.1829  -15.5033   29.6442 C   0  0  0  0  0  0  0  0  0  0  0  0
    7.8617  -14.7030   28.5907 C   0  0  0  0  0  0  0  0  0  0  0  0
    8.6764  -14.7598   27.4613 C   0  0  0  0  0  0  0  0  0  0  0  0
   10.1959  -17.9675   26.6604 O   0  0  0  0  0  0  0  0  0  0  0  0
   10.6294  -18.1147   27.8539 O   0  0  0  0  0  0  0  0  0  0  0  0
  2  3  2  0
  2  1  1  0
  4  2  1  0
  5  4  1  0
  6  7  1  0
  6  5  1  0
  7  8  1  0
  8 10  1  0
  8  9  1  6
 10 19  1  0
 10 11  2  0
 12 13  1  0
 13 14  2  0
 14 15  1  0
 16 17  1  0
 16 15  2  0
 18 17  1  6
 18 20  1  0
 19 18  1  0
 20 21  2  0
 22 16  1  0
 23 22  2  0
 23 13  1  0
 24 20  1  0
 24 25  1  0
 25 33  1  0
 25 26  1  6
 27 26  1  0
 27 32  1  0
 28 27  2  0
 29 28  1  0
 29 30  2  0
 30 31  1  0
 31 32  2  0
 33 35  1  0
 34 33  2  0
M  END
$$$$
