RYF.pdb
     RDKit          3D

 35 36  0  0  1  0  0  0  0  0999 V2000
    8.1359  -12.8739   20.5455 N   0  0  0  0  0  0  0  0  0  0  0  0
    8.5191  -13.3134   19.2571 C   0  0  0  0  0  0  0  0  0  0  0  0
    9.3685  -12.6817   18.5534 N   0  0  0  0  0  0  0  0  0  0  0  0
    7.9459  -14.5086   18.7020 N   0  0  0  0  0  0  0  0  0  0  0  0
    6.8164  -15.1191   19.3621 C   0  0  0  0  0  0  0  0  0  0  0  0
    7.3159  -15.9319   20.5270 C   0  0  0  0  0  0  0  0  0  0  0  0
    6.9070  -17.3650   20.4515 C   0  0  0  0  0  0  0  0  0  0  0  0
    8.0950  -18.2151   20.1433 C   0  0  2  0  0  0  0  0  0  0  0  0
    7.6460  -19.5981   20.0331 N   0  0  0  0  0  0  0  0  0  0  0  0
    9.1268  -18.1300   21.2360 C   0  0  0  0  0  0  0  0  0  0  0  0
    8.9819  -18.7616   22.3149 O   0  0  0  0  0  0  0  0  0  0  0  0
    9.5946  -12.9264   17.5721 O   0  0  0  0  0  0  0  0  0  0  0  0
   14.8775  -21.1069   18.3802 C   0  0  0  0  0  0  0  0  0  0  0  0
   14.3243  -20.0931   19.1339 C   0  0  0  0  0  0  0  0  0  0  0  0
   13.7272  -18.9960   18.5981 C   0  0  0  0  0  0  0  0  0  0  0  0
   13.1781  -17.9898   19.3793 C   0  0  0  0  0  0  0  0  0  0  0  0
   13.2206  -18.0713   20.7550 C   0  0  0  0  0  0  0  0  0  0  0  0
   12.6424  -17.0171   21.5789 C   0  0  2  0  0  0  0  0  0  0  0  0
   11.2905  -17.2668   22.1753 N   0  0  0  0  0  0  0  0  0  0  0  0
   10.2922  -17.3439   21.0980 C   0  0  0  0  0  0  0  0  0  0  0  0
   10.8598  -16.3151   23.2044 O   0  0  0  0  0  0  0  0  0  0  0  0
   11.7635  -15.5382   23.7051 C   0  0  0  0  0  0  0  0  0  0  0  0
   13.8370  -19.2039   21.2923 C   0  0  0  0  0  0  0  0  0  0  0  0
   14.3780  -20.1950   20.5098 N   0  0  0  0  0  0  0  0  0  0  0  0
    9.5768  -16.1105   23.7361 C   0  0  1  0  0  0  0  0  0  0  0  0
    9.3153  -15.1763   24.8234 C   0  0  0  0  0  0  0  0  0  0  0  0
    7.9823  -14.5401   24.5196 C   0  0  0  0  0  0  0  0  0  0  0  0
    7.4861  -13.6752   25.6009 C   0  0  0  0  0  0  0  0  0  0  0  0
    8.3744  -13.3222   26.5967 C   0  0  0  0  0  0  0  0  0  0  0  0
    7.9566  -12.5059   27.6421 C   0  0  0  0  0  0  0  0  0  0  0  0
    6.6746  -12.0490   27.6945 C   0  0  0  0  0  0  0  0  0  0  0  0
    5.7719  -12.3772   26.7297 C   0  0  0  0  0  0  0  0  0  0  0  0
    6.2049  -13.1959   25.6881 C   0  0  0  0  0  0  0  0  0  0  0  0
    9.1792  -15.8839   26.0916 O   0  0  0  0  0  0  0  0  0  0  0  0
    9.1487  -15.1741   27.1544 O   0  0  0  0  0  0  0  0  0  0  0  0
  2  3  2  0
  2  1  1  0
  4  2  1  0
  5  4  1  0
  6  7  1  0
  6  5  1  0
  7  8  1  0
  8 10  1  0
  8  9  1  1
 10 19  1  0
 10 11  2  0
 12 13  1  0
 13 14  2  0
 14 15  1  0
 16 17  1  0
 16 15  2  0
 18 17  1  6
 18 20  1  0
 19 18  1  0
 20 21  2  0
 22 16  1  0
 23 22  2  0
 23 13  1  0
 24 20  1  0
 24 25  1  0
 25 33  1  0
 25 26  1  1
 27 26  1  0
 27 32  1  0
 28 27  2  0
 29 28  1  0
 29 30  2  0
 30 31  1  0
 31 32  2  0
 33 35  1  0
 34 33  2  0
M  END
$$$$
