RYF.pdb
     RDKit          3D

 35 36  0  0  1  0  0  0  0  0999 V2000
    9.7226  -13.5790   19.8749 N   0  0  0  0  0  0  0  0  0  0  0  0
    8.6360  -13.3086   19.0111 C   0  0  0  0  0  0  0  0  0  0  0  0
    8.5058  -12.1912   18.4196 N   0  0  0  0  0  0  0  0  0  0  0  0
    7.6333  -14.3112   18.7769 N   0  0  0  0  0  0  0  0  0  0  0  0
    7.5361  -15.4331   19.6802 C   0  0  0  0  0  0  0  0  0  0  0  0
    6.4237  -15.1721   20.6608 C   0  0  0  0  0  0  0  0  0  0  0  0
    5.4143  -16.2705   20.6982 C   0  0  0  0  0  0  0  0  0  0  0  0
    6.0804  -17.5586   21.0531 C   0  0  2  0  0  0  0  0  0  0  0  0
    5.1878  -18.6487   20.6769 N   0  0  0  0  0  0  0  0  0  0  0  0
    6.3497  -17.6459   22.5315 C   0  0  0  0  0  0  0  0  0  0  0  0
    5.4938  -17.2609   23.3701 O   0  0  0  0  0  0  0  0  0  0  0  0
    7.7286  -11.9745   17.7692 O   0  0  0  0  0  0  0  0  0  0  0  0
    9.9611  -19.9086   30.3383 C   0  0  0  0  0  0  0  0  0  0  0  0
    9.6209  -19.7851   29.0076 C   0  0  0  0  0  0  0  0  0  0  0  0
   10.5316  -19.6911   28.0029 C   0  0  0  0  0  0  0  0  0  0  0  0
   10.1627  -19.5675   26.6715 C   0  0  0  0  0  0  0  0  0  0  0  0
    8.8310  -19.5355   26.3154 C   0  0  0  0  0  0  0  0  0  0  0  0
    8.4397  -19.4082   24.9171 C   0  0  1  0  0  0  0  0  0  0  0  0
    7.8829  -18.0905   24.4708 N   0  0  0  0  0  0  0  0  0  0  0  0
    7.5646  -18.1596   23.0365 C   0  0  0  0  0  0  0  0  0  0  0  0
    8.7140  -16.9160   24.7542 O   0  0  0  0  0  0  0  0  0  0  0  0
    9.6261  -16.6158   23.8890 C   0  0  0  0  0  0  0  0  0  0  0  0
    7.9059  -19.6330   27.3576 C   0  0  0  0  0  0  0  0  0  0  0  0
    8.2816  -19.7550   28.6734 N   0  0  0  0  0  0  0  0  0  0  0  0
    8.6607  -16.0408   25.8505 C   0  0  2  0  0  0  0  0  0  0  0  0
    9.7687  -15.1673   26.2145 C   0  0  0  0  0  0  0  0  0  0  0  0
    9.4321  -13.8069   25.6579 C   0  0  0  0  0  0  0  0  0  0  0  0
    8.1195  -13.3048   26.0917 C   0  0  0  0  0  0  0  0  0  0  0  0
    7.8077  -11.9923   25.7988 C   0  0  0  0  0  0  0  0  0  0  0  0
    6.5795  -11.4677   26.1862 C   0  0  0  0  0  0  0  0  0  0  0  0
    5.6767  -12.2382   26.8545 C   0  0  0  0  0  0  0  0  0  0  0  0
    5.9508  -13.5363   27.1598 C   0  0  0  0  0  0  0  0  0  0  0  0
    7.1856  -14.0484   26.7653 C   0  0  0  0  0  0  0  0  0  0  0  0
    9.8652  -15.0311   27.6636 O   0  0  0  0  0  0  0  0  0  0  0  0
   10.8443  -14.3479   28.1206 O   0  0  0  0  0  0  0  0  0  0  0  0
  2  3  2  0
  2  1  1  0
  4  2  1  0
  5  4  1  0
  6  7  1  0
  6  5  1  0
  7  8  1  0
  8 10  1  0
  8  9  1  1
 10 19  1  0
 10 11  2  0
 12 13  1  0
 13 14  2  0
 14 15  1  0
 16 17  1  0
 16 15  2  0
 18 17  1  1
 18 20  1  0
 19 18  1  0
 20 21  2  0
 22 16  1  0
 23 22  2  0
 23 13  1  0
 24 20  1  0
 24 25  1  0
 25 33  1  0
 25 26  1  6
 27 26  1  0
 27 32  1  0
 28 27  2  0
 29 28  1  0
 29 30  2  0
 30 31  1  0
 31 32  2  0
 33 35  1  0
 34 33  2  0
M  END
$$$$
