DKC.pdb
     RDKit          3D

 24 23  0  0  1  0  0  0  0  0999 V2000
   21.4269  -20.8446  -13.8620 N   0  0  0  0  0  0  0  0  0  0  0  0
   21.3731  -19.7869  -14.8257 C   0  0  1  0  0  0  0  0  0  0  0  0
   20.1675  -18.9292  -14.5064 C   0  0  0  0  0  0  0  0  0  0  0  0
   18.9453  -19.7548  -14.6889 C   0  0  0  0  0  0  0  0  0  0  0  0
   17.9535  -19.6427  -13.9031 O   0  0  0  0  0  0  0  0  0  0  0  0
   22.6327  -18.9992  -14.7706 C   0  0  0  0  0  0  0  0  0  0  0  0
   23.2173  -18.7480  -13.6775 O   0  0  0  0  0  0  0  0  0  0  0  0
   18.8424  -20.6674  -15.7109 O   0  0  0  0  0  0  0  0  0  0  0  0
   23.2178  -18.5047  -15.9448 N   0  0  0  0  0  0  0  0  0  0  0  0
   24.5967  -17.9681  -15.9849 C   0  0  1  0  0  0  0  0  0  0  0  0
   25.4021  -18.9757  -16.7347 C   0  0  0  0  0  0  0  0  0  0  0  0
   26.2199  -19.9048  -15.8775 C   0  0  0  0  0  0  0  0  0  0  0  0
   27.0613  -20.8262  -16.7688 C   0  0  0  0  0  0  0  0  0  0  0  0
   27.8382  -21.8446  -16.0029 C   0  0  0  0  0  0  0  0  0  0  0  0
   28.5386  -22.6903  -16.9833 N   0  0  0  0  0  0  0  0  0  0  0  0
   24.5449  -16.6162  -16.4693 C   0  0  0  0  0  0  0  0  0  0  0  0
   23.7606  -16.3569  -17.4506 O   0  0  0  0  0  0  0  0  0  0  0  0
   25.2631  -15.5024  -15.9913 N   0  0  0  0  0  0  0  0  0  0  0  0
   25.0522  -14.1886  -16.5543 C   0  0  1  0  0  0  0  0  0  0  0  0
   25.1082  -13.2109  -15.3716 C   0  0  0  0  0  0  0  0  0  0  0  0
   23.7953  -13.5470  -14.1982 S   0  0  0  0  0  0  0  0  0  0  0  0
   26.1213  -13.8201  -17.5121 C   0  0  0  0  0  0  0  0  0  0  0  0
   27.0765  -14.6121  -17.6907 O   0  0  0  0  0  0  0  0  0  0  0  0
   26.0954  -12.6282  -18.2142 O   0  0  0  0  0  0  0  0  0  0  0  0
  2  1  1  1
  2  3  1  0
  3  4  1  0
  4  8  1  0
  4  5  2  0
  6  2  1  0
  7  6  2  0
  9  6  1  0
 10  9  1  0
 10 11  1  6
 11 12  1  0
 12 13  1  0
 13 14  1  0
 14 15  1  0
 16 18  1  0
 16 10  1  0
 17 16  2  0
 19 20  1  1
 19 18  1  0
 21 20  1  0
 22 19  1  0
 22 24  1  0
 23 22  2  0
M  END
$$$$
