DKC.pdb
     RDKit          3D

 24 23  0  0  1  0  0  0  0  0999 V2000
   20.7743  -21.3183  -12.7375 N   0  0  0  0  0  0  0  0  0  0  0  0
   20.9876  -20.5387  -13.9195 C   0  0  1  0  0  0  0  0  0  0  0  0
   20.0090  -19.3842  -13.8967 C   0  0  0  0  0  0  0  0  0  0  0  0
   18.6562  -19.9122  -14.2130 C   0  0  0  0  0  0  0  0  0  0  0  0
   17.6159  -19.4155  -13.6793 O   0  0  0  0  0  0  0  0  0  0  0  0
   22.3947  -20.0602  -13.9526 C   0  0  0  0  0  0  0  0  0  0  0  0
   22.8674  -19.3095  -13.0510 O   0  0  0  0  0  0  0  0  0  0  0  0
   18.4804  -20.9539  -15.0916 O   0  0  0  0  0  0  0  0  0  0  0  0
   23.2512  -20.4321  -14.9985 N   0  0  0  0  0  0  0  0  0  0  0  0
   24.6988  -20.1231  -14.9930 C   0  0  1  0  0  0  0  0  0  0  0  0
   25.3620  -21.2767  -15.6681 C   0  0  0  0  0  0  0  0  0  0  0  0
   26.8493  -21.1373  -15.8557 C   0  0  0  0  0  0  0  0  0  0  0  0
   27.4011  -22.3805  -16.5635 C   0  0  0  0  0  0  0  0  0  0  0  0
   28.8763  -22.3316  -16.7843 C   0  0  0  0  0  0  0  0  0  0  0  0
   29.2863  -23.6475  -17.3012 N   0  0  0  0  0  0  0  0  0  0  0  0
   24.8840  -18.8020  -15.5269 C   0  0  0  0  0  0  0  0  0  0  0  0
   24.1156  -18.4244  -16.4821 O   0  0  0  0  0  0  0  0  0  0  0  0
   25.8267  -17.8353  -15.1249 N   0  0  0  0  0  0  0  0  0  0  0  0
   25.8684  -16.5354  -15.7542 C   0  0  1  0  0  0  0  0  0  0  0  0
   26.6512  -15.6286  -14.7935 C   0  0  0  0  0  0  0  0  0  0  0  0
   26.9070  -14.0048  -15.5084 S   0  0  0  0  0  0  0  0  0  0  0  0
   26.5884  -16.5713  -17.0489 C   0  0  0  0  0  0  0  0  0  0  0  0
   27.5708  -17.3396  -17.1766 O   0  0  0  0  0  0  0  0  0  0  0  0
   26.2079  -15.7821  -18.1196 O   0  0  0  0  0  0  0  0  0  0  0  0
  2  1  1  1
  2  3  1  0
  3  4  1  0
  4  8  1  0
  4  5  2  0
  6  2  1  0
  7  6  2  0
  9  6  1  0
 10  9  1  0
 10 11  1  6
 11 12  1  0
 12 13  1  0
 13 14  1  0
 14 15  1  0
 16 18  1  0
 16 10  1  0
 17 16  2  0
 19 20  1  1
 19 18  1  0
 21 20  1  0
 22 19  1  0
 22 24  1  0
 23 22  2  0
M  END
$$$$
