DKC.pdb
     RDKit          3D

 24 23  0  0  1  0  0  0  0  0999 V2000
   16.8825  -11.2816  -16.0191 N   0  0  0  0  0  0  0  0  0  0  0  0
   18.2668  -11.2633  -15.6535 C   0  0  1  0  0  0  0  0  0  0  0  0
   18.9423  -12.4336  -16.3354 C   0  0  0  0  0  0  0  0  0  0  0  0
   18.6028  -13.6709  -15.5853 C   0  0  0  0  0  0  0  0  0  0  0  0
   17.9741  -13.6189  -14.4827 O   0  0  0  0  0  0  0  0  0  0  0  0
   18.8726   -9.9692  -16.0638 C   0  0  0  0  0  0  0  0  0  0  0  0
   20.1096   -9.7390  -15.9351 O   0  0  0  0  0  0  0  0  0  0  0  0
   18.9550  -14.9133  -16.0546 O   0  0  0  0  0  0  0  0  0  0  0  0
   18.0797   -8.9518  -16.6132 N   0  0  0  0  0  0  0  0  0  0  0  0
   18.6370   -7.6496  -17.0431 C   0  0  1  0  0  0  0  0  0  0  0  0
   17.5467   -6.9738  -17.8052 C   0  0  0  0  0  0  0  0  0  0  0  0
   17.2218   -7.5928  -19.1386 C   0  0  0  0  0  0  0  0  0  0  0  0
   16.0861   -6.8112  -19.8098 C   0  0  0  0  0  0  0  0  0  0  0  0
   15.6631   -7.3873  -21.1200 C   0  0  0  0  0  0  0  0  0  0  0  0
   16.8731   -7.8954  -21.7868 N   0  0  0  0  0  0  0  0  0  0  0  0
   19.1958   -6.9922  -15.8940 C   0  0  0  0  0  0  0  0  0  0  0  0
   18.4925   -6.9502  -14.8220 O   0  0  0  0  0  0  0  0  0  0  0  0
   20.4553   -6.3704  -15.7857 N   0  0  0  0  0  0  0  0  0  0  0  0
   20.7995   -5.5941  -14.6167 C   0  0  1  0  0  0  0  0  0  0  0  0
   22.0916   -6.2146  -14.0659 C   0  0  0  0  0  0  0  0  0  0  0  0
   22.7898   -5.1962  -12.7664 S   0  0  0  0  0  0  0  0  0  0  0  0
   21.0725   -4.1774  -14.9551 C   0  0  0  0  0  0  0  0  0  0  0  0
   21.2606   -3.3564  -14.0267 O   0  0  0  0  0  0  0  0  0  0  0  0
   21.1256   -3.7356  -16.2651 O   0  0  0  0  0  0  0  0  0  0  0  0
  2  1  1  6
  2  3  1  0
  3  4  1  0
  4  8  1  0
  4  5  2  0
  6  2  1  0
  7  6  2  0
  9  6  1  0
 10  9  1  0
 10 11  1  1
 11 12  1  0
 12 13  1  0
 13 14  1  0
 14 15  1  0
 16 18  1  0
 16 10  1  0
 17 16  2  0
 19 20  1  6
 19 18  1  0
 21 20  1  0
 22 19  1  0
 22 24  1  0
 23 22  2  0
M  END
$$$$
