DKC.pdb
     RDKit          3D

 24 23  0  0  1  0  0  0  0  0999 V2000
   22.0420  -17.6603  -17.6941 N   0  0  0  0  0  0  0  0  0  0  0  0
   21.0792  -17.1985  -16.7401 C   0  0  1  0  0  0  0  0  0  0  0  0
   21.0597  -18.1802  -15.5882 C   0  0  0  0  0  0  0  0  0  0  0  0
   20.3765  -19.4196  -16.0420 C   0  0  0  0  0  0  0  0  0  0  0  0
   19.8793  -19.5062  -17.2078 O   0  0  0  0  0  0  0  0  0  0  0  0
   21.4456  -15.8314  -16.2854 C   0  0  0  0  0  0  0  0  0  0  0  0
   20.8874  -15.2853  -15.2905 O   0  0  0  0  0  0  0  0  0  0  0  0
   20.2573  -20.5145  -15.2206 O   0  0  0  0  0  0  0  0  0  0  0  0
   22.4344  -15.0970  -16.9552 N   0  0  0  0  0  0  0  0  0  0  0  0
   22.8592  -13.7476  -16.5196 C   0  0  1  0  0  0  0  0  0  0  0  0
   24.2635  -13.5904  -16.9987 C   0  0  0  0  0  0  0  0  0  0  0  0
   25.3238  -13.8314  -15.9573 C   0  0  0  0  0  0  0  0  0  0  0  0
   25.6697  -15.3243  -15.9058 C   0  0  0  0  0  0  0  0  0  0  0  0
   26.6595  -15.6675  -14.8429 C   0  0  0  0  0  0  0  0  0  0  0  0
   26.8098  -17.1318  -14.8399 N   0  0  0  0  0  0  0  0  0  0  0  0
   21.8669  -12.7991  -16.9443 C   0  0  0  0  0  0  0  0  0  0  0  0
   21.4487  -12.8653  -18.1552 O   0  0  0  0  0  0  0  0  0  0  0  0
   21.2724  -11.7751  -16.1809 N   0  0  0  0  0  0  0  0  0  0  0  0
   20.2921  -10.8896  -16.7661 C   0  0  1  0  0  0  0  0  0  0  0  0
   19.0770  -10.9294  -15.8281 C   0  0  0  0  0  0  0  0  0  0  0  0
   18.3962  -12.5847  -15.7294 S   0  0  0  0  0  0  0  0  0  0  0  0
   20.7807   -9.4922  -16.8337 C   0  0  0  0  0  0  0  0  0  0  0  0
   21.9374   -9.2327  -16.4260 O   0  0  0  0  0  0  0  0  0  0  0  0
   19.9976   -8.4668  -17.3334 O   0  0  0  0  0  0  0  0  0  0  0  0
  2  1  1  6
  2  3  1  0
  3  4  1  0
  4  8  1  0
  4  5  2  0
  6  2  1  0
  7  6  2  0
  9  6  1  0
 10  9  1  0
 10 11  1  6
 11 12  1  0
 12 13  1  0
 13 14  1  0
 14 15  1  0
 16 18  1  0
 16 10  1  0
 17 16  2  0
 19 20  1  1
 19 18  1  0
 21 20  1  0
 22 19  1  0
 22 24  1  0
 23 22  2  0
M  END
$$$$
