DKC.pdb
     RDKit          3D

 24 23  0  0  1  0  0  0  0  0999 V2000
   23.3821  -16.8851  -18.5697 N   0  0  0  0  0  0  0  0  0  0  0  0
   22.6658  -16.8763  -17.3298 C   0  0  1  0  0  0  0  0  0  0  0  0
   21.2912  -16.2996  -17.5921 C   0  0  0  0  0  0  0  0  0  0  0  0
   21.3641  -14.8245  -17.4263 C   0  0  0  0  0  0  0  0  0  0  0  0
   22.4589  -14.2494  -17.1358 O   0  0  0  0  0  0  0  0  0  0  0  0
   22.5832  -18.2603  -16.7932 C   0  0  0  0  0  0  0  0  0  0  0  0
   22.2450  -19.2398  -17.5184 O   0  0  0  0  0  0  0  0  0  0  0  0
   20.2538  -14.0299  -17.5805 O   0  0  0  0  0  0  0  0  0  0  0  0
   22.8820  -18.5241  -15.4490 N   0  0  0  0  0  0  0  0  0  0  0  0
   22.7110  -19.8629  -14.8412 C   0  0  1  0  0  0  0  0  0  0  0  0
   23.5994  -19.8803  -13.6426 C   0  0  0  0  0  0  0  0  0  0  0  0
   23.5837  -21.1635  -12.8552 C   0  0  0  0  0  0  0  0  0  0  0  0
   24.0057  -22.3298  -13.7567 C   0  0  0  0  0  0  0  0  0  0  0  0
   23.9444  -23.6571  -13.0771 C   0  0  0  0  0  0  0  0  0  0  0  0
   24.3471  -24.6736  -14.0628 N   0  0  0  0  0  0  0  0  0  0  0  0
   21.3056  -20.1095  -14.6715 C   0  0  0  0  0  0  0  0  0  0  0  0
   20.5965  -19.1976  -14.1138 O   0  0  0  0  0  0  0  0  0  0  0  0
   20.5807  -21.2562  -15.0513 N   0  0  0  0  0  0  0  0  0  0  0  0
   19.1981  -21.4196  -14.6650 C   0  0  1  0  0  0  0  0  0  0  0  0
   18.4991  -22.0667  -15.8694 C   0  0  0  0  0  0  0  0  0  0  0  0
   16.8105  -22.5143  -15.4675 S   0  0  0  0  0  0  0  0  0  0  0  0
   19.0531  -22.3264  -13.5019 C   0  0  0  0  0  0  0  0  0  0  0  0
   19.8498  -23.2861  -13.3767 O   0  0  0  0  0  0  0  0  0  0  0  0
   18.0645  -22.1442  -12.5513 O   0  0  0  0  0  0  0  0  0  0  0  0
  2  1  1  6
  2  3  1  0
  3  4  1  0
  4  8  1  0
  4  5  2  0
  6  2  1  0
  7  6  2  0
  9  6  1  0
 10  9  1  0
 10 11  1  1
 11 12  1  0
 12 13  1  0
 13 14  1  0
 14 15  1  0
 16 18  1  0
 16 10  1  0
 17 16  2  0
 19 20  1  6
 19 18  1  0
 21 20  1  0
 22 19  1  0
 22 24  1  0
 23 22  2  0
M  END
$$$$
