VTT.pdb
     RDKit          3D

 22 21  0  0  1  0  0  0  0  0999 V2000
    7.2189  -12.6594   19.9964 C   0  0  0  0  0  0  0  0  0  0  0  0
    8.5612  -13.2397   19.6434 C   0  0  2  0  0  0  0  0  0  0  0  0
    9.0398  -12.6731   18.3361 C   0  0  0  0  0  0  0  0  0  0  0  0
    8.5643  -14.7466   19.6539 C   0  0  2  0  0  0  0  0  0  0  0  0
    7.6759  -15.1894   18.6011 N   0  0  0  0  0  0  0  0  0  0  0  0
    8.0996  -15.3100   20.9360 C   0  0  0  0  0  0  0  0  0  0  0  0
    6.8975  -15.6241   21.1319 O   0  0  0  0  0  0  0  0  0  0  0  0
    9.1874  -18.0571   24.7013 C   0  0  0  0  0  0  0  0  0  0  0  0
    9.5446  -17.3480   23.4056 C   0  0  1  0  0  0  0  0  0  0  0  0
    9.2574  -18.2344   22.3713 O   0  0  0  0  0  0  0  0  0  0  0  0
    8.7007  -16.0754   23.2623 C   0  0  2  0  0  0  0  0  0  0  0  0
    9.0285  -15.5045   21.9782 N   0  0  0  0  0  0  0  0  0  0  0  0
    8.9121  -15.1568   24.3765 C   0  0  0  0  0  0  0  0  0  0  0  0
   10.0133  -14.5710   24.5031 O   0  0  0  0  0  0  0  0  0  0  0  0
    6.4610  -12.2450   25.7800 C   0  0  0  0  0  0  0  0  0  0  0  0
    6.8905  -13.2298   26.8330 C   0  0  1  0  0  0  0  0  0  0  0  0
    5.8613  -14.1732   26.9530 O   0  0  0  0  0  0  0  0  0  0  0  0
    8.1616  -13.9414   26.3945 C   0  0  2  0  0  0  0  0  0  0  0  0
    7.9108  -14.8882   25.3445 N   0  0  0  0  0  0  0  0  0  0  0  0
    8.7242  -14.5998   27.6136 C   0  0  0  0  0  0  0  0  0  0  0  0
    8.8590  -15.8286   27.6914 O   0  0  0  0  0  0  0  0  0  0  0  0
    9.0985  -13.7877   28.6751 O   0  0  0  0  0  0  0  0  0  0  0  0
  2  1  1  6
  2  3  1  0
  4  2  1  0
  4  6  1  0
  4  5  1  6
  6  7  2  0
  6 12  1  0
  9 11  1  0
  9  8  1  1
 10  9  1  0
 11 13  1  0
 11 12  1  6
 13 19  1  0
 13 14  2  0
 16 15  1  6
 16 18  1  0
 17 16  1  0
 18 20  1  0
 18 19  1  6
 20 22  1  0
 21 20  2  0
M  END
$$$$
