VTT.pdb
     RDKit          3D

 22 21  0  0  1  0  0  0  0  0999 V2000
    8.6116  -17.2392   20.6783 C   0  0  0  0  0  0  0  0  0  0  0  0
    7.3112  -16.4829   20.6867 C   0  0  2  0  0  0  0  0  0  0  0  0
    6.5943  -16.6763   19.3799 C   0  0  0  0  0  0  0  0  0  0  0  0
    7.4867  -15.0281   21.0378 C   0  0  2  0  0  0  0  0  0  0  0  0
    8.2225  -14.4070   19.9579 N   0  0  0  0  0  0  0  0  0  0  0  0
    8.2317  -14.8299   22.2960 C   0  0  0  0  0  0  0  0  0  0  0  0
    9.4736  -14.6310   22.3135 O   0  0  0  0  0  0  0  0  0  0  0  0
    7.0454  -12.6392   25.3100 C   0  0  0  0  0  0  0  0  0  0  0  0
    7.1948  -14.0853   25.7524 C   0  0  1  0  0  0  0  0  0  0  0  0
    5.9295  -14.6607   25.6754 O   0  0  0  0  0  0  0  0  0  0  0  0
    8.1664  -14.8152   24.8167 C   0  0  2  0  0  0  0  0  0  0  0  0
    7.5343  -14.8636   23.5205 N   0  0  0  0  0  0  0  0  0  0  0  0
    8.5312  -16.1304   25.3335 C   0  0  0  0  0  0  0  0  0  0  0  0
    7.7444  -17.0966   25.1950 O   0  0  0  0  0  0  0  0  0  0  0  0
   11.0377  -18.3852   24.2565 C   0  0  0  0  0  0  0  0  0  0  0  0
   11.3130  -18.2509   25.7293 C   0  0  1  0  0  0  0  0  0  0  0  0
   12.3646  -17.3349   25.8658 O   0  0  0  0  0  0  0  0  0  0  0  0
   10.0861  -17.7013   26.4415 C   0  0  2  0  0  0  0  0  0  0  0  0
    9.7594  -16.3747   25.9996 N   0  0  0  0  0  0  0  0  0  0  0  0
   10.3891  -17.7405   27.9053 C   0  0  0  0  0  0  0  0  0  0  0  0
   10.3854  -16.7170   28.6028 O   0  0  0  0  0  0  0  0  0  0  0  0
   10.6798  -18.9725   28.4747 O   0  0  0  0  0  0  0  0  0  0  0  0
  2  1  1  6
  2  3  1  0
  4  2  1  0
  4  6  1  0
  4  5  1  6
  6  7  2  0
  6 12  1  0
  9 11  1  0
  9  8  1  6
 10  9  1  0
 11 13  1  0
 11 12  1  6
 13 19  1  0
 13 14  2  0
 16 15  1  6
 16 18  1  0
 17 16  1  0
 18 20  1  0
 18 19  1  6
 20 22  1  0
 21 20  2  0
M  END
$$$$
