VTT.pdb
     RDKit          3D

 22 21  0  0  1  0  0  0  0  0999 V2000
    7.8424  -19.1660   16.1337 C   0  0  0  0  0  0  0  0  0  0  0  0
    6.6128  -18.6729   16.8463 C   0  0  2  0  0  0  0  0  0  0  0  0
    6.1915  -17.3429   16.2871 C   0  0  0  0  0  0  0  0  0  0  0  0
    6.7817  -18.6410   18.3433 C   0  0  2  0  0  0  0  0  0  0  0  0
    5.4887  -18.3410   18.9194 N   0  0  0  0  0  0  0  0  0  0  0  0
    7.7486  -17.6188   18.7876 C   0  0  0  0  0  0  0  0  0  0  0  0
    8.9809  -17.7186   18.5563 O   0  0  0  0  0  0  0  0  0  0  0  0
    8.1079  -13.0631   20.7061 C   0  0  0  0  0  0  0  0  0  0  0  0
    7.3786  -14.1459   19.9285 C   0  0  1  0  0  0  0  0  0  0  0  0
    7.3491  -13.7337   18.5992 O   0  0  0  0  0  0  0  0  0  0  0  0
    8.1363  -15.4734   20.0548 C   0  0  2  0  0  0  0  0  0  0  0  0
    7.2816  -16.4921   19.4943 N   0  0  0  0  0  0  0  0  0  0  0  0
    8.5319  -15.7424   21.4336 C   0  0  0  0  0  0  0  0  0  0  0  0
    7.6947  -15.6213   22.3589 O   0  0  0  0  0  0  0  0  0  0  0  0
    9.2352  -18.6923   23.2656 C   0  0  0  0  0  0  0  0  0  0  0  0
   10.4869  -17.8693   23.4033 C   0  0  1  0  0  0  0  0  0  0  0  0
   11.3774  -18.3132   22.4167 O   0  0  0  0  0  0  0  0  0  0  0  0
   10.1751  -16.4004   23.1598 C   0  0  2  0  0  0  0  0  0  0  0  0
    9.8461  -16.1429   21.7860 N   0  0  0  0  0  0  0  0  0  0  0  0
   11.3802  -15.6303   23.5963 C   0  0  0  0  0  0  0  0  0  0  0  0
   12.1414  -15.0884   22.7831 O   0  0  0  0  0  0  0  0  0  0  0  0
   11.6310  -15.5349   24.9582 O   0  0  0  0  0  0  0  0  0  0  0  0
  2  1  1  6
  2  3  1  0
  4  2  1  0
  4  6  1  0
  4  5  1  1
  6  7  2  0
  6 12  1  0
  9 11  1  0
  9  8  1  1
 10  9  1  0
 11 13  1  0
 11 12  1  1
 13 19  1  0
 13 14  2  0
 16 15  1  6
 16 18  1  0
 17 16  1  0
 18 20  1  0
 18 19  1  6
 20 22  1  0
 21 20  2  0
M  END
$$$$
