VTT.pdb
     RDKit          3D

 22 21  0  0  1  0  0  0  0  0999 V2000
    9.4111  -12.3967   19.9445 C   0  0  0  0  0  0  0  0  0  0  0  0
    8.6670  -13.2856   18.9858 C   0  0  2  0  0  0  0  0  0  0  0  0
    7.2395  -12.8312   18.8639 C   0  0  0  0  0  0  0  0  0  0  0  0
    8.7785  -14.7458   19.3406 C   0  0  2  0  0  0  0  0  0  0  0  0
    8.2271  -15.5033   18.2381 N   0  0  0  0  0  0  0  0  0  0  0  0
    8.0418  -15.0928   20.5711 C   0  0  0  0  0  0  0  0  0  0  0  0
    6.7862  -15.1606   20.6020 O   0  0  0  0  0  0  0  0  0  0  0  0
    8.0369  -18.0616   22.0659 C   0  0  0  0  0  0  0  0  0  0  0  0
    8.5336  -17.2201   23.2295 C   0  0  1  0  0  0  0  0  0  0  0  0
    9.9179  -17.3630   23.2653 O   0  0  0  0  0  0  0  0  0  0  0  0
    8.1586  -15.7503   23.0027 C   0  0  2  0  0  0  0  0  0  0  0  0
    8.7633  -15.3576   21.7528 N   0  0  0  0  0  0  0  0  0  0  0  0
    8.5554  -14.9101   24.1282 C   0  0  0  0  0  0  0  0  0  0  0  0
    9.7082  -14.4188   24.1654 O   0  0  0  0  0  0  0  0  0  0  0  0
    6.6327  -11.8486   25.9524 C   0  0  0  0  0  0  0  0  0  0  0  0
    7.0017  -12.9675   26.8877 C   0  0  1  0  0  0  0  0  0  0  0  0
    5.8677  -13.7801   27.0189 O   0  0  0  0  0  0  0  0  0  0  0  0
    8.1326  -13.7932   26.2930 C   0  0  2  0  0  0  0  0  0  0  0  0
    7.6814  -14.6155   25.2058 N   0  0  0  0  0  0  0  0  0  0  0  0
    8.6975  -14.6106   27.4106 C   0  0  0  0  0  0  0  0  0  0  0  0
    8.7420  -15.8474   27.3602 O   0  0  0  0  0  0  0  0  0  0  0  0
    9.1794  -13.9394   28.5259 O   0  0  0  0  0  0  0  0  0  0  0  0
  2  1  1  1
  2  3  1  0
  4  2  1  0
  4  6  1  0
  4  5  1  6
  6  7  2  0
  6 12  1  0
  9 11  1  0
  9  8  1  6
 10  9  1  0
 11 13  1  0
 11 12  1  6
 13 19  1  0
 13 14  2  0
 16 15  1  6
 16 18  1  0
 17 16  1  0
 18 20  1  0
 18 19  1  6
 20 22  1  0
 21 20  2  0
M  END
$$$$
