VTT.pdb
     RDKit          3D

 22 21  0  0  1  0  0  0  0  0999 V2000
   -2.0524  -28.9398   31.2204 C   0  0  0  0  0  0  0  0  0  0  0  0
   -1.1324  -27.9275   30.5942 C   0  0  2  0  0  0  0  0  0  0  0  0
    0.2580  -28.0860   31.1428 C   0  0  0  0  0  0  0  0  0  0  0  0
   -1.6457  -26.5167   30.7239 C   0  0  2  0  0  0  0  0  0  0  0  0
   -1.2827  -26.0426   32.0418 N   0  0  0  0  0  0  0  0  0  0  0  0
   -3.1106  -26.4254   30.5729 C   0  0  0  0  0  0  0  0  0  0  0  0
   -3.7053  -26.8523   29.5500 O   0  0  0  0  0  0  0  0  0  0  0  0
   -5.6622  -27.9537   32.6478 C   0  0  0  0  0  0  0  0  0  0  0  0
   -5.8310  -26.4542   32.8274 C   0  0  1  0  0  0  0  0  0  0  0  0
   -5.0806  -26.0975   33.9445 O   0  0  0  0  0  0  0  0  0  0  0  0
   -5.3109  -25.7221   31.5842 C   0  0  2  0  0  0  0  0  0  0  0  0
   -3.8731  -25.8421   31.6050 N   0  0  0  0  0  0  0  0  0  0  0  0
   -5.7768  -24.3399   31.5349 C   0  0  0  0  0  0  0  0  0  0  0  0
   -5.3372  -23.5025   32.3578 O   0  0  0  0  0  0  0  0  0  0  0  0
   -5.3823  -21.5906   29.1182 C   0  0  0  0  0  0  0  0  0  0  0  0
   -6.8611  -21.8249   29.2638 C   0  0  1  0  0  0  0  0  0  0  0  0
   -7.2450  -22.6717   28.2155 O   0  0  0  0  0  0  0  0  0  0  0  0
   -7.1520  -22.5169   30.5870 C   0  0  2  0  0  0  0  0  0  0  0  0
   -6.7236  -23.8874   30.5806 N   0  0  0  0  0  0  0  0  0  0  0  0
   -8.6246  -22.3962   30.8170 C   0  0  0  0  0  0  0  0  0  0  0  0
   -9.3829  -23.3721   30.7340 O   0  0  0  0  0  0  0  0  0  0  0  0
   -9.1315  -21.1428   31.1312 O   0  0  0  0  0  0  0  0  0  0  0  0
  2  1  1  1
  2  3  1  0
  4  2  1  0
  4  6  1  0
  4  5  1  1
  6  7  2  0
  6 12  1  0
  9 11  1  0
  9  8  1  6
 10  9  1  0
 11 13  1  0
 11 12  1  1
 13 19  1  0
 13 14  2  0
 16 15  1  6
 16 18  1  0
 17 16  1  0
 18 20  1  0
 18 19  1  6
 20 22  1  0
 21 20  2  0
M  END
$$$$
