VTT.pdb
     RDKit          3D

 22 21  0  0  1  0  0  0  0  0999 V2000
    7.1795  -12.5828   19.5610 C   0  0  0  0  0  0  0  0  0  0  0  0
    8.5590  -13.1726   19.4512 C   0  0  2  0  0  0  0  0  0  0  0  0
    9.1875  -12.7737   18.1455 C   0  0  0  0  0  0  0  0  0  0  0  0
    8.5724  -14.6641   19.6653 C   0  0  2  0  0  0  0  0  0  0  0  0
    7.8915  -15.2697   18.5414 N   0  0  0  0  0  0  0  0  0  0  0  0
    7.8895  -15.0690   20.9090 C   0  0  0  0  0  0  0  0  0  0  0  0
    6.6385  -15.1801   20.9792 O   0  0  0  0  0  0  0  0  0  0  0  0
    8.0817  -18.0573   22.4498 C   0  0  0  0  0  0  0  0  0  0  0  0
    8.5465  -17.1687   23.5915 C   0  0  1  0  0  0  0  0  0  0  0  0
    9.9360  -17.2487   23.6215 O   0  0  0  0  0  0  0  0  0  0  0  0
    8.1047  -15.7226   23.3349 C   0  0  2  0  0  0  0  0  0  0  0  0
    8.6588  -15.3414   22.0583 N   0  0  0  0  0  0  0  0  0  0  0  0
    8.4960  -14.8350   24.4254 C   0  0  0  0  0  0  0  0  0  0  0  0
    9.5966  -14.2364   24.3796 O   0  0  0  0  0  0  0  0  0  0  0  0
    6.5231  -11.8119   26.0922 C   0  0  0  0  0  0  0  0  0  0  0  0
    6.9128  -12.8613   27.0972 C   0  0  1  0  0  0  0  0  0  0  0  0
    5.8057  -13.7056   27.2554 O   0  0  0  0  0  0  0  0  0  0  0  0
    8.0835  -13.6783   26.5712 C   0  0  2  0  0  0  0  0  0  0  0  0
    7.6741  -14.6115   25.5596 N   0  0  0  0  0  0  0  0  0  0  0  0
    8.6869  -14.3686   27.7525 C   0  0  0  0  0  0  0  0  0  0  0  0
    9.1318  -13.7395   28.7223 O   0  0  0  0  0  0  0  0  0  0  0  0
    8.7381  -15.7556   27.7369 O   0  0  0  0  0  0  0  0  0  0  0  0
  2  1  1  6
  2  3  1  0
  4  2  1  0
  4  6  1  0
  4  5  1  6
  6  7  2  0
  6 12  1  0
  9 11  1  0
  9  8  1  6
 10  9  1  0
 11 13  1  0
 11 12  1  6
 13 19  1  0
 13 14  2  0
 16 15  1  6
 16 18  1  0
 17 16  1  0
 18 20  1  0
 18 19  1  6
 20 22  1  0
 21 20  2  0
M  END
$$$$
