QPN.pdb
     RDKit          3D

 25 25  0  0  1  0  0  0  0  0999 V2000
    8.5685  -19.3691   21.0387 N   0  0  0  0  0  0  0  0  0  0  0  0
    8.7584  -19.9891   19.7866 C   0  0  0  0  0  0  0  0  0  0  0  0
    9.4543  -21.0211   19.6945 O   0  0  0  0  0  0  0  0  0  0  0  0
    8.1336  -19.4184   18.5791 C   0  0  0  0  0  0  0  0  0  0  0  0
    7.2997  -18.1821   18.9255 C   0  0  0  0  0  0  0  0  0  0  0  0
    8.0210  -16.9223   18.4527 C   0  0  2  0  0  0  0  0  0  0  0  0
    8.7016  -17.2462   17.2331 N   0  0  0  0  0  0  0  0  0  0  0  0
    8.8427  -16.3429   19.5099 C   0  0  0  0  0  0  0  0  0  0  0  0
   10.1011  -16.2777   19.2659 O   0  0  0  0  0  0  0  0  0  0  0  0
    8.3785  -15.8702   20.7256 N   0  0  0  0  0  0  0  0  0  0  0  0
    7.1113  -15.9275   21.4138 C   0  0  0  0  0  0  0  0  0  0  0  0
    6.8858  -14.4509   21.7366 C   0  0  0  0  0  0  0  0  0  0  0  0
    8.2806  -14.0399   22.1586 C   0  0  0  0  0  0  0  0  0  0  0  0
    9.2101  -15.1039   21.6955 C   0  0  1  0  0  0  0  0  0  0  0  0
    9.7484  -15.9837   22.7320 C   0  0  0  0  0  0  0  0  0  0  0  0
    9.1092  -17.0545   22.9873 O   0  0  0  0  0  0  0  0  0  0  0  0
   14.3520  -15.1484   22.9663 N   0  0  0  0  0  0  0  0  0  0  0  0
   13.6751  -16.3762   23.2537 C   0  0  0  0  0  0  0  0  0  0  0  0
   13.7685  -17.2755   22.3941 O   0  0  0  0  0  0  0  0  0  0  0  0
   12.9318  -16.5117   24.5000 C   0  0  0  0  0  0  0  0  0  0  0  0
   11.4594  -16.7668   24.3646 C   0  0  2  0  0  0  0  0  0  0  0  0
   10.9186  -15.7374   23.4686 N   0  0  0  0  0  0  0  0  0  0  0  0
   10.7404  -16.7304   25.6477 C   0  0  0  0  0  0  0  0  0  0  0  0
   11.0330  -17.7129   26.6089 O   0  0  0  0  0  0  0  0  0  0  0  0
    9.8725  -15.8915   25.9781 O   0  0  0  0  0  0  0  0  0  0  0  0
  1  2  1  0
  2  3  2  0
  2  4  1  0
  4  5  1  0
  6  8  1  0
  6  5  1  0
  6  7  1  6
  8 10  1  0
  9  8  2  0
 10 14  1  0
 10 11  1  0
 11 12  1  0
 12 13  1  0
 14 13  1  0
 15 22  1  0
 14 15  1  1
 16 15  2  0
 17 18  1  0
 18 19  2  0
 21 20  1  1
 20 18  1  0
 21 23  1  0
 21 22  1  0
 23 24  1  0
 25 23  2  0
M  END
$$$$
