QPN.pdb
     RDKit          3D

 25 25  0  0  1  0  0  0  0  0999 V2000
    7.6205  -19.0708   23.8293 N   0  0  0  0  0  0  0  0  0  0  0  0
    6.6754  -18.2054   23.2411 C   0  0  0  0  0  0  0  0  0  0  0  0
    5.4537  -18.4091   23.3960 O   0  0  0  0  0  0  0  0  0  0  0  0
    7.1288  -17.0543   22.4389 C   0  0  0  0  0  0  0  0  0  0  0  0
    6.3063  -15.8038   22.7608 C   0  0  0  0  0  0  0  0  0  0  0  0
    7.1235  -14.5525   22.4493 C   0  0  2  0  0  0  0  0  0  0  0  0
    7.7791  -14.7666   21.1923 N   0  0  0  0  0  0  0  0  0  0  0  0
    7.9858  -14.1801   23.5657 C   0  0  0  0  0  0  0  0  0  0  0  0
    9.2399  -14.1088   23.3024 O   0  0  0  0  0  0  0  0  0  0  0  0
    7.5632  -13.9050   24.8552 N   0  0  0  0  0  0  0  0  0  0  0  0
    6.2931  -13.9718   25.5373 C   0  0  0  0  0  0  0  0  0  0  0  0
    6.2081  -12.5688   26.1369 C   0  0  0  0  0  0  0  0  0  0  0  0
    7.6338  -12.3791   26.6101 C   0  0  0  0  0  0  0  0  0  0  0  0
    8.4596  -13.4189   25.9412 C   0  0  1  0  0  0  0  0  0  0  0  0
    8.9068  -14.5263   26.7849 C   0  0  0  0  0  0  0  0  0  0  0  0
    8.0877  -15.4785   26.9917 O   0  0  0  0  0  0  0  0  0  0  0  0
   13.0007  -15.4445   25.3065 N   0  0  0  0  0  0  0  0  0  0  0  0
   12.0748  -16.2851   26.0023 C   0  0  0  0  0  0  0  0  0  0  0  0
   11.3972  -17.0635   25.3012 O   0  0  0  0  0  0  0  0  0  0  0  0
   11.9719  -16.1934   27.4532 C   0  0  0  0  0  0  0  0  0  0  0  0
   10.6096  -15.8804   27.9987 C   0  0  2  0  0  0  0  0  0  0  0  0
   10.1729  -14.6200   27.3855 N   0  0  0  0  0  0  0  0  0  0  0  0
   10.5834  -15.7506   29.4639 C   0  0  0  0  0  0  0  0  0  0  0  0
   10.8315  -16.8934   30.2433 O   0  0  0  0  0  0  0  0  0  0  0  0
   10.3567  -14.6986   30.1028 O   0  0  0  0  0  0  0  0  0  0  0  0
  1  2  1  0
  2  3  2  0
  2  4  1  0
  4  5  1  0
  6  8  1  0
  6  5  1  0
  6  7  1  6
  8 10  1  0
  9  8  2  0
 10 14  1  0
 10 11  1  0
 11 12  1  0
 12 13  1  0
 14 13  1  0
 15 22  1  0
 14 15  1  1
 16 15  2  0
 17 18  1  0
 18 19  2  0
 21 20  1  6
 20 18  1  0
 21 23  1  0
 21 22  1  0
 23 24  1  0
 25 23  2  0
M  END
$$$$
