QPN.pdb
     RDKit          3D

 25 25  0  0  1  0  0  0  0  0999 V2000
    4.4779  -17.8398   21.4016 N   0  0  0  0  0  0  0  0  0  0  0  0
    5.2261  -17.3559   22.4944 C   0  0  0  0  0  0  0  0  0  0  0  0
    4.8753  -17.6189   23.6630 O   0  0  0  0  0  0  0  0  0  0  0  0
    6.4284  -16.5354   22.2590 C   0  0  0  0  0  0  0  0  0  0  0  0
    6.1035  -15.0432   22.3671 C   0  0  0  0  0  0  0  0  0  0  0  0
    7.3877  -14.2248   22.2589 C   0  0  2  0  0  0  0  0  0  0  0  0
    8.0806  -14.6618   21.0823 N   0  0  0  0  0  0  0  0  0  0  0  0
    8.1527  -14.2556   23.5009 C   0  0  0  0  0  0  0  0  0  0  0  0
    9.3412  -14.7321   23.4123 O   0  0  0  0  0  0  0  0  0  0  0  0
    7.7041  -13.8206   24.7363 N   0  0  0  0  0  0  0  0  0  0  0  0
    6.4390  -13.3425   25.2399 C   0  0  0  0  0  0  0  0  0  0  0  0
    6.8625  -12.0305   25.8991 C   0  0  0  0  0  0  0  0  0  0  0  0
    8.1536  -12.4557   26.5661 C   0  0  0  0  0  0  0  0  0  0  0  0
    8.5563  -13.7505   25.9563 C   0  0  1  0  0  0  0  0  0  0  0  0
    8.3748  -14.9382   26.7897 C   0  0  0  0  0  0  0  0  0  0  0  0
    8.3989  -14.7819   28.0527 O   0  0  0  0  0  0  0  0  0  0  0  0
   11.7343  -18.6011   26.3104 N   0  0  0  0  0  0  0  0  0  0  0  0
   11.5650  -17.5237   25.3836 C   0  0  0  0  0  0  0  0  0  0  0  0
   12.5033  -17.3261   24.5854 O   0  0  0  0  0  0  0  0  0  0  0  0
   10.3409  -16.7336   25.4168 C   0  0  0  0  0  0  0  0  0  0  0  0
    9.2670  -17.2211   26.3444 C   0  0  2  0  0  0  0  0  0  0  0  0
    8.1756  -16.2403   26.3025 N   0  0  0  0  0  0  0  0  0  0  0  0
    9.7262  -17.3883   27.7322 C   0  0  0  0  0  0  0  0  0  0  0  0
    9.9952  -18.6865   28.1982 O   0  0  0  0  0  0  0  0  0  0  0  0
    9.9062  -16.4678   28.5607 O   0  0  0  0  0  0  0  0  0  0  0  0
  1  2  1  0
  2  3  2  0
  2  4  1  0
  4  5  1  0
  6  8  1  0
  6  5  1  0
  6  7  1  6
  8 10  1  0
  9  8  2  0
 10 14  1  0
 10 11  1  0
 11 12  1  0
 12 13  1  0
 14 13  1  0
 15 22  1  0
 14 15  1  1
 16 15  2  0
 17 18  1  0
 18 19  2  0
 21 20  1  6
 20 18  1  0
 21 23  1  0
 21 22  1  0
 23 24  1  0
 25 23  2  0
M  END
$$$$
