QPN.pdb
     RDKit          3D

 25 25  0  0  1  0  0  0  0  0999 V2000
    6.9611  -19.4969   15.9818 N   0  0  0  0  0  0  0  0  0  0  0  0
    7.2200  -18.7056   14.8439 C   0  0  0  0  0  0  0  0  0  0  0  0
    7.6070  -19.2367   13.7828 O   0  0  0  0  0  0  0  0  0  0  0  0
    7.0337  -17.2441   14.9044 C   0  0  0  0  0  0  0  0  0  0  0  0
    7.8656  -16.6318   16.0344 C   0  0  0  0  0  0  0  0  0  0  0  0
    8.3553  -15.2454   15.6237 C   0  0  2  0  0  0  0  0  0  0  0  0
    8.9719  -15.3691   14.3352 N   0  0  0  0  0  0  0  0  0  0  0  0
    9.1695  -14.6305   16.6665 C   0  0  0  0  0  0  0  0  0  0  0  0
   10.4019  -14.4322   16.3679 O   0  0  0  0  0  0  0  0  0  0  0  0
    8.7237  -14.2546   17.9223 N   0  0  0  0  0  0  0  0  0  0  0  0
    7.4611  -14.3477   18.6150 C   0  0  0  0  0  0  0  0  0  0  0  0
    7.2654  -12.9001   19.0640 C   0  0  0  0  0  0  0  0  0  0  0  0
    8.6709  -12.5513   19.5062 C   0  0  0  0  0  0  0  0  0  0  0  0
    9.5769  -13.5884   18.9458 C   0  0  1  0  0  0  0  0  0  0  0  0
   10.1070  -14.5624   19.8989 C   0  0  0  0  0  0  0  0  0  0  0  0
    9.4409  -15.6316   20.0818 O   0  0  0  0  0  0  0  0  0  0  0  0
   14.8873  -17.1342   21.7862 N   0  0  0  0  0  0  0  0  0  0  0  0
   14.0243  -16.2058   22.4507 C   0  0  0  0  0  0  0  0  0  0  0  0
   13.9534  -16.3054   23.6923 O   0  0  0  0  0  0  0  0  0  0  0  0
   13.2923  -15.2186   21.6674 C   0  0  0  0  0  0  0  0  0  0  0  0
   11.8544  -15.5385   21.3822 C   0  0  2  0  0  0  0  0  0  0  0  0
   11.2968  -14.4084   20.6291 N   0  0  0  0  0  0  0  0  0  0  0  0
   11.0547  -15.7639   22.5964 C   0  0  0  0  0  0  0  0  0  0  0  0
   11.0928  -17.0330   23.1989 O   0  0  0  0  0  0  0  0  0  0  0  0
   10.3255  -14.9182   23.1615 O   0  0  0  0  0  0  0  0  0  0  0  0
  1  2  1  0
  2  3  2  0
  2  4  1  0
  4  5  1  0
  6  8  1  0
  6  5  1  0
  6  7  1  6
  8 10  1  0
  9  8  2  0
 10 14  1  0
 10 11  1  0
 11 12  1  0
 12 13  1  0
 14 13  1  0
 15 22  1  0
 14 15  1  1
 16 15  2  0
 17 18  1  0
 18 19  2  0
 21 20  1  1
 20 18  1  0
 21 23  1  0
 21 22  1  0
 23 24  1  0
 25 23  2  0
M  END
$$$$
