QPN.pdb
     RDKit          3D

 25 25  0  0  1  0  0  0  0  0999 V2000
    4.5901  -17.3031   20.8760 N   0  0  0  0  0  0  0  0  0  0  0  0
    5.8902  -17.7690   21.1603 C   0  0  0  0  0  0  0  0  0  0  0  0
    6.0871  -18.9780   21.3997 O   0  0  0  0  0  0  0  0  0  0  0  0
    7.0240  -16.8265   21.1756 C   0  0  0  0  0  0  0  0  0  0  0  0
    6.5345  -15.3820   21.3080 C   0  0  0  0  0  0  0  0  0  0  0  0
    7.7291  -14.4407   21.4399 C   0  0  2  0  0  0  0  0  0  0  0  0
    8.5916  -14.6776   20.3194 N   0  0  0  0  0  0  0  0  0  0  0  0
    8.3494  -14.5383   22.7569 C   0  0  0  0  0  0  0  0  0  0  0  0
    9.5673  -14.9431   22.7714 O   0  0  0  0  0  0  0  0  0  0  0  0
    7.7381  -14.2349   23.9616 N   0  0  0  0  0  0  0  0  0  0  0  0
    6.4152  -13.8006   24.3412 C   0  0  0  0  0  0  0  0  0  0  0  0
    6.7419  -12.5724   25.1898 C   0  0  0  0  0  0  0  0  0  0  0  0
    7.9339  -13.0814   25.9725 C   0  0  0  0  0  0  0  0  0  0  0  0
    8.4194  -14.3067   25.2845 C   0  0  1  0  0  0  0  0  0  0  0  0
    8.1327  -15.5757   25.9520 C   0  0  0  0  0  0  0  0  0  0  0  0
    7.1275  -16.2424   25.5451 O   0  0  0  0  0  0  0  0  0  0  0  0
   12.4176  -18.7335   26.1564 N   0  0  0  0  0  0  0  0  0  0  0  0
   11.4800  -18.1476   25.2476 C   0  0  0  0  0  0  0  0  0  0  0  0
   11.4303  -18.6452   24.1046 O   0  0  0  0  0  0  0  0  0  0  0  0
   10.6535  -17.0314   25.6891 C   0  0  0  0  0  0  0  0  0  0  0  0
    9.6904  -17.3243   26.8017 C   0  0  2  0  0  0  0  0  0  0  0  0
    8.8826  -16.1162   27.0093 N   0  0  0  0  0  0  0  0  0  0  0  0
   10.3510  -17.6980   28.0621 C   0  0  0  0  0  0  0  0  0  0  0  0
   11.3292  -16.8369   28.5879 O   0  0  0  0  0  0  0  0  0  0  0  0
   10.1241  -18.7315   28.7304 O   0  0  0  0  0  0  0  0  0  0  0  0
  1  2  1  0
  2  3  2  0
  2  4  1  0
  4  5  1  0
  6  8  1  0
  6  5  1  0
  6  7  1  6
  8 10  1  0
  9  8  2  0
 10 14  1  0
 10 11  1  0
 11 12  1  0
 12 13  1  0
 14 13  1  0
 15 22  1  0
 14 15  1  1
 16 15  2  0
 17 18  1  0
 18 19  2  0
 21 20  1  6
 20 18  1  0
 21 23  1  0
 21 22  1  0
 23 24  1  0
 25 23  2  0
M  END
$$$$
