QPN.pdb
     RDKit          3D

 25 25  0  0  1  0  0  0  0  0999 V2000
    5.2479  -18.3169   23.2904 N   0  0  0  0  0  0  0  0  0  0  0  0
    6.6571  -18.3101   23.3367 C   0  0  0  0  0  0  0  0  0  0  0  0
    7.2806  -19.3373   23.6745 O   0  0  0  0  0  0  0  0  0  0  0  0
    7.4003  -17.0861   22.9853 C   0  0  0  0  0  0  0  0  0  0  0  0
    6.4423  -15.9327   22.6762 C   0  0  0  0  0  0  0  0  0  0  0  0
    7.2373  -14.6571   22.4086 C   0  0  2  0  0  0  0  0  0  0  0  0
    7.9898  -14.8616   21.2055 N   0  0  0  0  0  0  0  0  0  0  0  0
    8.0025  -14.2432   23.5798 C   0  0  0  0  0  0  0  0  0  0  0  0
    9.2777  -14.2251   23.4351 O   0  0  0  0  0  0  0  0  0  0  0  0
    7.4698  -13.8780   24.8044 N   0  0  0  0  0  0  0  0  0  0  0  0
    6.1345  -13.8261   25.3495 C   0  0  0  0  0  0  0  0  0  0  0  0
    6.0889  -12.3931   25.8781 C   0  0  0  0  0  0  0  0  0  0  0  0
    7.4679  -12.2766   26.4922 C   0  0  0  0  0  0  0  0  0  0  0  0
    8.2817  -13.4008   25.9587 C   0  0  1  0  0  0  0  0  0  0  0  0
    8.5585  -14.4933   26.8903 C   0  0  0  0  0  0  0  0  0  0  0  0
    7.6852  -15.4132   26.9970 O   0  0  0  0  0  0  0  0  0  0  0  0
   10.9977  -18.8879   27.9149 N   0  0  0  0  0  0  0  0  0  0  0  0
   11.8000  -17.7032   27.8867 C   0  0  0  0  0  0  0  0  0  0  0  0
   12.9810  -17.8239   28.2705 O   0  0  0  0  0  0  0  0  0  0  0  0
   11.2154  -16.4507   27.4247 C   0  0  0  0  0  0  0  0  0  0  0  0
   10.0945  -15.9005   28.2567 C   0  0  2  0  0  0  0  0  0  0  0  0
    9.7161  -14.6056   27.6777 N   0  0  0  0  0  0  0  0  0  0  0  0
   10.4520  -15.7216   29.6725 C   0  0  0  0  0  0  0  0  0  0  0  0
   10.4050  -14.4273   30.2181 O   0  0  0  0  0  0  0  0  0  0  0  0
   10.8027  -16.6285   30.4604 O   0  0  0  0  0  0  0  0  0  0  0  0
  1  2  1  0
  2  3  2  0
  2  4  1  0
  4  5  1  0
  6  8  1  0
  6  5  1  0
  6  7  1  6
  8 10  1  0
  9  8  2  0
 10 14  1  0
 10 11  1  0
 11 12  1  0
 12 13  1  0
 14 13  1  0
 15 22  1  0
 14 15  1  1
 16 15  2  0
 17 18  1  0
 18 19  2  0
 21 20  1  6
 20 18  1  0
 21 23  1  0
 21 22  1  0
 23 24  1  0
 25 23  2  0
M  END
$$$$
