QPN.pdb
     RDKit          3D

 25 25  0  0  1  0  0  0  0  0999 V2000
    8.6225  -16.1062   18.7194 N   0  0  0  0  0  0  0  0  0  0  0  0
    7.6756  -15.3314   18.0187 C   0  0  0  0  0  0  0  0  0  0  0  0
    7.4638  -15.5411   16.8067 O   0  0  0  0  0  0  0  0  0  0  0  0
    6.9307  -14.2681   18.7177 C   0  0  0  0  0  0  0  0  0  0  0  0
    7.0309  -14.4359   20.2362 C   0  0  0  0  0  0  0  0  0  0  0  0
    7.6941  -13.2055   20.8502 C   0  0  2  0  0  0  0  0  0  0  0  0
    8.5661  -12.6452   19.8597 N   0  0  0  0  0  0  0  0  0  0  0  0
    8.3027  -13.5090   22.1410 C   0  0  0  0  0  0  0  0  0  0  0  0
    9.5735  -13.6889   22.1300 O   0  0  0  0  0  0  0  0  0  0  0  0
    7.6293  -13.6148   23.3461 N   0  0  0  0  0  0  0  0  0  0  0  0
    6.2603  -13.4181   23.7582 C   0  0  0  0  0  0  0  0  0  0  0  0
    6.4431  -12.4618   24.9360 C   0  0  0  0  0  0  0  0  0  0  0  0
    7.6539  -13.0734   25.6086 C   0  0  0  0  0  0  0  0  0  0  0  0
    8.2742  -14.0059   24.6308 C   0  0  1  0  0  0  0  0  0  0  0  0
    8.0896  -15.4320   24.8956 C   0  0  0  0  0  0  0  0  0  0  0  0
    7.3176  -16.0811   24.1190 O   0  0  0  0  0  0  0  0  0  0  0  0
   10.8107  -18.4812   22.8923 N   0  0  0  0  0  0  0  0  0  0  0  0
   11.4114  -17.7416   23.9602 C   0  0  0  0  0  0  0  0  0  0  0  0
   12.5980  -18.0189   24.2280 O   0  0  0  0  0  0  0  0  0  0  0  0
   10.6306  -16.7306   24.6617 C   0  0  0  0  0  0  0  0  0  0  0  0
    9.6245  -17.2435   25.6497 C   0  0  2  0  0  0  0  0  0  0  0  0
    8.6997  -16.1417   25.9428 N   0  0  0  0  0  0  0  0  0  0  0  0
   10.2292  -17.7254   26.9014 C   0  0  0  0  0  0  0  0  0  0  0  0
   11.1000  -16.8707   27.5985 O   0  0  0  0  0  0  0  0  0  0  0  0
   10.0416  -18.8482   27.4214 O   0  0  0  0  0  0  0  0  0  0  0  0
  1  2  1  0
  2  3  2  0
  2  4  1  0
  4  5  1  0
  6  8  1  0
  6  5  1  0
  6  7  1  6
  8 10  1  0
  9  8  2  0
 10 14  1  0
 10 11  1  0
 11 12  1  0
 12 13  1  0
 14 13  1  0
 15 22  1  0
 14 15  1  1
 16 15  2  0
 17 18  1  0
 18 19  2  0
 21 20  1  6
 20 18  1  0
 21 23  1  0
 21 22  1  0
 23 24  1  0
 25 23  2  0
M  END
$$$$
