QPN.pdb
     RDKit          3D

 25 25  0  0  1  0  0  0  0  0999 V2000
    8.1667  -18.5715   18.1232 N   0  0  0  0  0  0  0  0  0  0  0  0
    8.8569  -18.7131   16.9019 C   0  0  0  0  0  0  0  0  0  0  0  0
    9.6900  -19.6305   16.7525 O   0  0  0  0  0  0  0  0  0  0  0  0
    8.5958  -17.7751   15.7945 C   0  0  0  0  0  0  0  0  0  0  0  0
    7.6117  -16.6829   16.2217 C   0  0  0  0  0  0  0  0  0  0  0  0
    8.0878  -15.3270   15.7065 C   0  0  2  0  0  0  0  0  0  0  0  0
    8.6040  -15.5245   14.3836 N   0  0  0  0  0  0  0  0  0  0  0  0
    8.9864  -14.6758   16.6536 C   0  0  0  0  0  0  0  0  0  0  0  0
   10.1578  -14.3965   16.2096 O   0  0  0  0  0  0  0  0  0  0  0  0
    8.6781  -14.3451   17.9622 N   0  0  0  0  0  0  0  0  0  0  0  0
    7.5231  -14.5355   18.8064 C   0  0  0  0  0  0  0  0  0  0  0  0
    7.2847  -13.1102   19.3032 C   0  0  0  0  0  0  0  0  0  0  0  0
    8.7069  -12.6652   19.5717 C   0  0  0  0  0  0  0  0  0  0  0  0
    9.6052  -13.6290   18.8826 C   0  0  1  0  0  0  0  0  0  0  0  0
   10.3189  -14.5714   19.7431 C   0  0  0  0  0  0  0  0  0  0  0  0
    9.8086  -15.7265   19.9037 O   0  0  0  0  0  0  0  0  0  0  0  0
   13.6868  -15.3583   18.6047 N   0  0  0  0  0  0  0  0  0  0  0  0
   14.3948  -14.9475   19.7787 C   0  0  0  0  0  0  0  0  0  0  0  0
   15.5759  -14.5809   19.6143 O   0  0  0  0  0  0  0  0  0  0  0  0
   13.7210  -14.9768   21.0707 C   0  0  0  0  0  0  0  0  0  0  0  0
   12.2770  -15.3839   21.0516 C   0  0  2  0  0  0  0  0  0  0  0  0
   11.5262  -14.2994   20.4072 N   0  0  0  0  0  0  0  0  0  0  0  0
   11.7243  -15.6373   22.3913 C   0  0  0  0  0  0  0  0  0  0  0  0
   10.8258  -14.7031   22.9343 O   0  0  0  0  0  0  0  0  0  0  0  0
   11.9800  -16.6260   23.1148 O   0  0  0  0  0  0  0  0  0  0  0  0
  1  2  1  0
  2  3  2  0
  2  4  1  0
  4  5  1  0
  6  8  1  0
  6  5  1  0
  6  7  1  6
  8 10  1  0
  9  8  2  0
 10 14  1  0
 10 11  1  0
 11 12  1  0
 12 13  1  0
 14 13  1  0
 15 22  1  0
 14 15  1  1
 16 15  2  0
 17 18  1  0
 18 19  2  0
 21 20  1  1
 20 18  1  0
 21 23  1  0
 21 22  1  0
 23 24  1  0
 25 23  2  0
M  END
$$$$
