QPN.pdb
     RDKit          3D

 25 25  0  0  1  0  0  0  0  0999 V2000
    6.2297  -19.2850   16.8755 N   0  0  0  0  0  0  0  0  0  0  0  0
    7.1418  -18.9576   17.8997 C   0  0  0  0  0  0  0  0  0  0  0  0
    6.9887  -19.4182   19.0496 O   0  0  0  0  0  0  0  0  0  0  0  0
    8.2822  -18.0675   17.6144 C   0  0  0  0  0  0  0  0  0  0  0  0
    7.8060  -16.7406   17.0174 C   0  0  0  0  0  0  0  0  0  0  0  0
    8.9812  -15.7726   16.9044 C   0  0  2  0  0  0  0  0  0  0  0  0
    9.9737  -16.3929   16.0763 N   0  0  0  0  0  0  0  0  0  0  0  0
    9.4338  -15.3190   18.2152 C   0  0  0  0  0  0  0  0  0  0  0  0
   10.6549  -15.5856   18.5068 O   0  0  0  0  0  0  0  0  0  0  0  0
    8.6642  -14.6399   19.1444 N   0  0  0  0  0  0  0  0  0  0  0  0
    7.3084  -14.1458   19.1646 C   0  0  0  0  0  0  0  0  0  0  0  0
    7.5326  -12.6903   19.5728 C   0  0  0  0  0  0  0  0  0  0  0  0
    8.5941  -12.8585   20.6393 C   0  0  0  0  0  0  0  0  0  0  0  0
    9.1514  -14.2288   20.4909 C   0  0  1  0  0  0  0  0  0  0  0  0
    8.7529  -15.1991   21.5096 C   0  0  0  0  0  0  0  0  0  0  0  0
    7.9065  -16.0898   21.1770 O   0  0  0  0  0  0  0  0  0  0  0  0
   12.9619  -17.9934   23.3910 N   0  0  0  0  0  0  0  0  0  0  0  0
   11.6018  -18.1141   22.9625 C   0  0  0  0  0  0  0  0  0  0  0  0
   11.1083  -19.2595   22.9987 O   0  0  0  0  0  0  0  0  0  0  0  0
   10.8810  -16.9280   22.5179 C   0  0  0  0  0  0  0  0  0  0  0  0
    9.7591  -16.4688   23.4022 C   0  0  2  0  0  0  0  0  0  0  0  0
    9.2333  -15.2237   22.8292 N   0  0  0  0  0  0  0  0  0  0  0  0
   10.1721  -16.2346   24.7947 C   0  0  0  0  0  0  0  0  0  0  0  0
    9.9661  -17.2570   25.7366 O   0  0  0  0  0  0  0  0  0  0  0  0
   10.7017  -15.1903   25.2365 O   0  0  0  0  0  0  0  0  0  0  0  0
  1  2  1  0
  2  3  2  0
  2  4  1  0
  4  5  1  0
  6  8  1  0
  6  5  1  0
  6  7  1  1
  8 10  1  0
  9  8  2  0
 10 14  1  0
 10 11  1  0
 11 12  1  0
 12 13  1  0
 14 13  1  0
 15 22  1  0
 14 15  1  1
 16 15  2  0
 17 18  1  0
 18 19  2  0
 21 20  1  6
 20 18  1  0
 21 23  1  0
 21 22  1  0
 23 24  1  0
 25 23  2  0
M  END
$$$$
