HEL.pdb
     RDKit          3D

 28 28  0  0  1  0  0  0  0  0999 V2000
   24.6278  -35.0318   -5.1669 N   0  0  0  0  0  0  0  0  0  0  0  0
   25.6621  -34.2212   -4.6092 C   0  0  1  0  0  0  0  0  0  0  0  0
   25.4860  -32.7558   -4.8488 C   0  0  0  0  0  0  0  0  0  0  0  0
   25.7417  -32.4661   -6.2798 C   0  0  0  0  0  0  0  0  0  0  0  0
   26.1060  -33.3857   -7.2709 C   0  0  0  0  0  0  0  0  0  0  0  0
   26.2463  -32.7490   -8.4493 N   0  0  0  0  0  0  0  0  0  0  0  0
   25.9775  -31.4470   -8.2210 C   0  0  0  0  0  0  0  0  0  0  0  0
   25.6771  -31.2902   -6.9197 N   0  0  0  0  0  0  0  0  0  0  0  0
   25.8752  -34.5637   -3.1869 C   0  0  0  0  0  0  0  0  0  0  0  0
   24.8857  -34.5180   -2.4118 O   0  0  0  0  0  0  0  0  0  0  0  0
   27.1639  -34.9398   -2.6812 N   0  0  0  0  0  0  0  0  0  0  0  0
   27.3332  -35.0882   -1.2756 C   0  0  1  0  0  0  0  0  0  0  0  0
   28.5692  -35.7814   -0.8364 C   0  0  0  0  0  0  0  0  0  0  0  0
   28.7771  -36.0380    0.5983 C   0  0  0  0  0  0  0  0  0  0  0  0
   29.9989  -36.7012    1.0282 C   0  0  0  0  0  0  0  0  0  0  0  0
   30.9861  -36.7553    0.2466 O   0  0  0  0  0  0  0  0  0  0  0  0
   27.1594  -33.7898   -0.5549 C   0  0  0  0  0  0  0  0  0  0  0  0
   27.5094  -32.6946   -1.0442 O   0  0  0  0  0  0  0  0  0  0  0  0
   30.1509  -37.2913    2.2712 O   0  0  0  0  0  0  0  0  0  0  0  0
   24.4188  -31.1861    3.7319 C   0  0  0  0  0  0  0  0  0  0  0  0
   24.6719  -30.8857    2.2528 C   0  0  2  0  0  0  0  0  0  0  0  0
   23.4090  -30.2110    1.7601 C   0  0  0  0  0  0  0  0  0  0  0  0
   24.9891  -32.1512    1.5048 C   0  0  0  0  0  0  0  0  0  0  0  0
   26.4079  -32.5685    1.4847 C   0  0  2  0  0  0  0  0  0  0  0  0
   26.5736  -33.8155    0.7312 N   0  0  0  0  0  0  0  0  0  0  0  0
   26.9974  -32.6409    2.8289 C   0  0  0  0  0  0  0  0  0  0  0  0
   27.0201  -33.6523    3.5463 O   0  0  0  0  0  0  0  0  0  0  0  0
   27.5796  -31.4863    3.3554 O   0  0  0  0  0  0  0  0  0  0  0  0
  2  9  1  0
  2  1  1  1
  3  2  1  0
  4  3  1  0
  4  5  2  0
  6  5  1  0
  7  6  1  0
  8  7  2  0
  8  4  1  0
  9 11  1  0
 10  9  2  0
 11 12  1  0
 12 13  1  6
 13 14  1  0
 14 15  1  0
 15 19  1  0
 15 16  2  0
 17 18  2  0
 17 12  1  0
 21 20  1  1
 21 23  1  0
 22 21  1  0
 24 23  1  1
 24 25  1  0
 24 26  1  0
 25 17  1  0
 26 28  1  0
 27 26  2  0
M  END
$$$$
