HEL.pdb
     RDKit          3D

 28 28  0  0  1  0  0  0  0  0999 V2000
   28.4458  -25.8336  -16.5869 N   0  0  0  0  0  0  0  0  0  0  0  0
   27.0446  -25.5798  -16.6886 C   0  0  1  0  0  0  0  0  0  0  0  0
   26.1873  -26.6136  -16.0311 C   0  0  0  0  0  0  0  0  0  0  0  0
   26.2875  -27.8806  -16.7939 C   0  0  0  0  0  0  0  0  0  0  0  0
   26.6032  -29.1457  -16.2834 C   0  0  0  0  0  0  0  0  0  0  0  0
   26.5946  -30.0509  -17.2803 N   0  0  0  0  0  0  0  0  0  0  0  0
   26.2798  -29.3821  -18.4087 C   0  0  0  0  0  0  0  0  0  0  0  0
   26.0985  -28.0848  -18.1049 N   0  0  0  0  0  0  0  0  0  0  0  0
   26.7379  -24.1995  -16.2570 C   0  0  0  0  0  0  0  0  0  0  0  0
   27.2209  -23.7985  -15.1671 O   0  0  0  0  0  0  0  0  0  0  0  0
   25.9154  -23.3239  -17.0409 N   0  0  0  0  0  0  0  0  0  0  0  0
   25.6599  -22.0086  -16.5599 C   0  0  1  0  0  0  0  0  0  0  0  0
   25.3628  -20.9829  -17.5898 C   0  0  0  0  0  0  0  0  0  0  0  0
   25.1443  -19.5883  -17.1720 C   0  0  0  0  0  0  0  0  0  0  0  0
   24.7991  -18.5947  -18.1774 C   0  0  0  0  0  0  0  0  0  0  0  0
   24.3812  -18.9697  -19.3057 O   0  0  0  0  0  0  0  0  0  0  0  0
   24.6252  -22.0030  -15.4807 C   0  0  0  0  0  0  0  0  0  0  0  0
   23.6005  -22.7170  -15.5249 O   0  0  0  0  0  0  0  0  0  0  0  0
   24.9027  -17.2299  -17.9697 O   0  0  0  0  0  0  0  0  0  0  0  0
   25.5452  -22.7356  -11.1977 C   0  0  0  0  0  0  0  0  0  0  0  0
   25.7779  -21.2791  -11.6058 C   0  0  2  0  0  0  0  0  0  0  0  0
   26.3975  -20.6181  -10.3925 C   0  0  0  0  0  0  0  0  0  0  0  0
   24.4847  -20.6365  -12.0258 C   0  0  0  0  0  0  0  0  0  0  0  0
   23.8628  -21.1521  -13.2646 C   0  0  2  0  0  0  0  0  0  0  0  0
   24.8258  -21.1518  -14.3703 N   0  0  0  0  0  0  0  0  0  0  0  0
   22.6145  -20.4556  -13.6056 C   0  0  0  0  0  0  0  0  0  0  0  0
   22.4454  -19.7380  -14.6029 O   0  0  0  0  0  0  0  0  0  0  0  0
   21.5237  -20.6009  -12.7463 O   0  0  0  0  0  0  0  0  0  0  0  0
  2  9  1  0
  2  1  1  1
  3  2  1  0
  4  3  1  0
  4  5  2  0
  6  5  1  0
  7  6  1  0
  8  7  2  0
  8  4  1  0
  9 11  1  0
 10  9  2  0
 11 12  1  0
 12 13  1  6
 13 14  1  0
 14 15  1  0
 15 19  1  0
 15 16  2  0
 17 18  2  0
 17 12  1  0
 21 20  1  1
 21 23  1  0
 22 21  1  0
 24 23  1  1
 24 25  1  0
 24 26  1  0
 25 17  1  0
 26 28  1  0
 27 26  2  0
M  END
$$$$
