HEL.pdb
     RDKit          3D

 28 28  0  0  1  0  0  0  0  0999 V2000
   17.8171  -11.5235  -18.1593 N   0  0  0  0  0  0  0  0  0  0  0  0
   17.7172  -11.1324  -16.7899 C   0  0  1  0  0  0  0  0  0  0  0  0
   18.3411  -12.0965  -15.8322 C   0  0  0  0  0  0  0  0  0  0  0  0
   17.6580  -13.4065  -15.9517 C   0  0  0  0  0  0  0  0  0  0  0  0
   16.3357  -13.6999  -15.5966 C   0  0  0  0  0  0  0  0  0  0  0  0
   16.0749  -14.9957  -15.8541 N   0  0  0  0  0  0  0  0  0  0  0  0
   17.2059  -15.5249  -16.3644 C   0  0  0  0  0  0  0  0  0  0  0  0
   18.1457  -14.5646  -16.4178 N   0  0  0  0  0  0  0  0  0  0  0  0
   18.1872   -9.7417  -16.6152 C   0  0  0  0  0  0  0  0  0  0  0  0
   19.3229   -9.4395  -17.0633 O   0  0  0  0  0  0  0  0  0  0  0  0
   17.3896   -8.7477  -15.9566 N   0  0  0  0  0  0  0  0  0  0  0  0
   17.9223   -7.4376  -15.7936 C   0  0  1  0  0  0  0  0  0  0  0  0
   16.9480   -6.3217  -15.8757 C   0  0  0  0  0  0  0  0  0  0  0  0
   17.4357   -4.9353  -15.7915 C   0  0  0  0  0  0  0  0  0  0  0  0
   16.4742   -3.8438  -15.8318 C   0  0  0  0  0  0  0  0  0  0  0  0
   15.2404   -4.1002  -15.8215 O   0  0  0  0  0  0  0  0  0  0  0  0
   18.7625   -7.3288  -14.5617 C   0  0  0  0  0  0  0  0  0  0  0  0
   18.6250   -8.0921  -13.5818 O   0  0  0  0  0  0  0  0  0  0  0  0
   16.8362   -2.5085  -15.8820 O   0  0  0  0  0  0  0  0  0  0  0  0
   23.6114   -9.3398  -14.6816 C   0  0  0  0  0  0  0  0  0  0  0  0
   23.0228   -8.1653  -13.8966 C   0  0  2  0  0  0  0  0  0  0  0  0
   22.9830   -8.6277  -12.4552 C   0  0  0  0  0  0  0  0  0  0  0  0
   21.6654   -7.8011  -14.4319 C   0  0  0  0  0  0  0  0  0  0  0  0
   21.0397   -6.5835  -13.8723 C   0  0  2  0  0  0  0  0  0  0  0  0
   19.7493   -6.3179  -14.5160 N   0  0  0  0  0  0  0  0  0  0  0  0
   21.9351   -5.4187  -13.9051 C   0  0  0  0  0  0  0  0  0  0  0  0
   22.8212   -5.1741  -13.0726 O   0  0  0  0  0  0  0  0  0  0  0  0
   21.7866   -4.5035  -14.9491 O   0  0  0  0  0  0  0  0  0  0  0  0
  2  9  1  0
  2  1  1  6
  3  2  1  0
  4  3  1  0
  4  5  2  0
  6  5  1  0
  7  6  1  0
  8  7  2  0
  8  4  1  0
  9 11  1  0
 10  9  2  0
 11 12  1  0
 12 13  1  1
 13 14  1  0
 14 15  1  0
 15 19  1  0
 15 16  2  0
 17 18  2  0
 17 12  1  0
 21 20  1  6
 21 23  1  0
 22 21  1  0
 24 23  1  6
 24 25  1  0
 24 26  1  0
 25 17  1  0
 26 28  1  0
 27 26  2  0
M  END
$$$$
