HEL.pdb
     RDKit          3D

 28 28  0  0  1  0  0  0  0  0999 V2000
   16.7859  -10.9437  -10.0246 N   0  0  0  0  0  0  0  0  0  0  0  0
   15.9003   -9.9566  -10.5534 C   0  0  1  0  0  0  0  0  0  0  0  0
   14.4811  -10.1076  -10.1074 C   0  0  0  0  0  0  0  0  0  0  0  0
   13.9378  -11.3771  -10.6462 C   0  0  0  0  0  0  0  0  0  0  0  0
   13.6401  -11.6625  -11.9843 C   0  0  0  0  0  0  0  0  0  0  0  0
   13.1683  -12.9198  -12.0845 N   0  0  0  0  0  0  0  0  0  0  0  0
   13.1628  -13.4326  -10.8369 C   0  0  0  0  0  0  0  0  0  0  0  0
   13.6252  -12.5003   -9.9852 N   0  0  0  0  0  0  0  0  0  0  0  0
   16.4466   -8.6012  -10.3301 C   0  0  0  0  0  0  0  0  0  0  0  0
   16.7712   -8.2788   -9.1585 O   0  0  0  0  0  0  0  0  0  0  0  0
   16.6107   -7.6625  -11.4024 N   0  0  0  0  0  0  0  0  0  0  0  0
   16.7719   -6.2833  -11.0888 C   0  0  1  0  0  0  0  0  0  0  0  0
   17.3521   -5.4340  -12.1580 C   0  0  0  0  0  0  0  0  0  0  0  0
   17.5987   -4.0081  -11.8876 C   0  0  0  0  0  0  0  0  0  0  0  0
   18.0375   -3.1476  -12.9758 C   0  0  0  0  0  0  0  0  0  0  0  0
   18.2109   -3.6359  -14.1246 O   0  0  0  0  0  0  0  0  0  0  0  0
   15.5118   -5.6850  -10.5507 C   0  0  0  0  0  0  0  0  0  0  0  0
   14.3829   -5.9669  -11.0065 O   0  0  0  0  0  0  0  0  0  0  0  0
   18.2833   -1.7933  -12.8272 O   0  0  0  0  0  0  0  0  0  0  0  0
   13.4810   -2.4466   -6.4006 C   0  0  0  0  0  0  0  0  0  0  0  0
   13.0958   -3.8813   -6.7686 C   0  0  2  0  0  0  0  0  0  0  0  0
   12.7732   -4.5585   -5.4532 C   0  0  0  0  0  0  0  0  0  0  0  0
   14.2163   -4.5533   -7.5133 C   0  0  0  0  0  0  0  0  0  0  0  0
   14.4046   -4.1532   -8.9246 C   0  0  2  0  0  0  0  0  0  0  0  0
   15.6147   -4.7649   -9.4827 N   0  0  0  0  0  0  0  0  0  0  0  0
   14.3740   -2.6957   -9.1105 C   0  0  0  0  0  0  0  0  0  0  0  0
   13.3574   -2.0262   -9.3476 O   0  0  0  0  0  0  0  0  0  0  0  0
   15.5782   -1.9950   -9.0187 O   0  0  0  0  0  0  0  0  0  0  0  0
  2  9  1  0
  2  1  1  1
  3  2  1  0
  4  3  1  0
  4  5  2  0
  6  5  1  0
  7  6  1  0
  8  7  2  0
  8  4  1  0
  9 11  1  0
 10  9  2  0
 11 12  1  0
 12 13  1  6
 13 14  1  0
 14 15  1  0
 15 19  1  0
 15 16  2  0
 17 18  2  0
 17 12  1  0
 21 20  1  1
 21 23  1  0
 22 21  1  0
 24 23  1  1
 24 25  1  0
 24 26  1  0
 25 17  1  0
 26 28  1  0
 27 26  2  0
M  END
$$$$
