HEL.pdb
     RDKit          3D

 28 28  0  0  1  0  0  0  0  0999 V2000
   27.5357  -20.6285  -16.1820 N   0  0  0  0  0  0  0  0  0  0  0  0
   27.6556  -21.3562  -14.9596 C   0  0  1  0  0  0  0  0  0  0  0  0
   29.0615  -21.7127  -14.5962 C   0  0  0  0  0  0  0  0  0  0  0  0
   29.5709  -22.7149  -15.5623 C   0  0  0  0  0  0  0  0  0  0  0  0
   28.8587  -23.3067  -16.6126 C   0  0  0  0  0  0  0  0  0  0  0  0
   29.6580  -24.1653  -17.2740 N   0  0  0  0  0  0  0  0  0  0  0  0
   30.8595  -24.1263  -16.6620 C   0  0  0  0  0  0  0  0  0  0  0  0
   30.7949  -23.2552  -15.6396 N   0  0  0  0  0  0  0  0  0  0  0  0
   26.9241  -20.6669  -13.8754 C   0  0  0  0  0  0  0  0  0  0  0  0
   27.0985  -19.4290  -13.7369 O   0  0  0  0  0  0  0  0  0  0  0  0
   26.0358  -21.3679  -12.9937 N   0  0  0  0  0  0  0  0  0  0  0  0
   25.3372  -20.6317  -11.9954 C   0  0  1  0  0  0  0  0  0  0  0  0
   23.8831  -20.4425  -12.2213 C   0  0  0  0  0  0  0  0  0  0  0  0
   23.4164  -19.9683  -13.5345 C   0  0  0  0  0  0  0  0  0  0  0  0
   21.9936  -19.7432  -13.7402 C   0  0  0  0  0  0  0  0  0  0  0  0
   21.3472  -20.5053  -14.5081 O   0  0  0  0  0  0  0  0  0  0  0  0
   25.6040  -21.1641  -10.6239 C   0  0  0  0  0  0  0  0  0  0  0  0
   25.6985  -22.3863  -10.3814 O   0  0  0  0  0  0  0  0  0  0  0  0
   21.2863  -18.7204  -13.1318 O   0  0  0  0  0  0  0  0  0  0  0  0
   28.9616  -20.5990   -7.7835 C   0  0  0  0  0  0  0  0  0  0  0  0
   28.0233  -19.3930   -7.8692 C   0  0  2  0  0  0  0  0  0  0  0  0
   28.6862  -18.3112   -7.0425 C   0  0  0  0  0  0  0  0  0  0  0  0
   26.6525  -19.7552   -7.3677 C   0  0  0  0  0  0  0  0  0  0  0  0
   25.8819  -20.7154   -8.1872 C   0  0  2  0  0  0  0  0  0  0  0  0
   25.7538  -20.2372   -9.5674 N   0  0  0  0  0  0  0  0  0  0  0  0
   24.5848  -21.0598   -7.5884 C   0  0  0  0  0  0  0  0  0  0  0  0
   23.4773  -20.7825   -8.0729 O   0  0  0  0  0  0  0  0  0  0  0  0
   24.5825  -21.7519   -6.3759 O   0  0  0  0  0  0  0  0  0  0  0  0
  2  9  1  0
  2  1  1  6
  3  2  1  0
  4  3  1  0
  4  5  2  0
  6  5  1  0
  7  6  1  0
  8  7  2  0
  8  4  1  0
  9 11  1  0
 10  9  2  0
 11 12  1  0
 12 13  1  6
 13 14  1  0
 14 15  1  0
 15 19  1  0
 15 16  2  0
 17 18  2  0
 17 12  1  0
 21 20  1  1
 21 23  1  0
 22 21  1  0
 24 23  1  1
 24 25  1  0
 24 26  1  0
 25 17  1  0
 26 28  1  0
 27 26  2  0
M  END
$$$$
