MRE.pdb
     RDKit          3D

 29 28  0  0  1  0  0  0  0  0999 V2000
    8.0469  -11.0197   21.0523 C   0  0  0  0  0  0  0  0  0  0  0  0
    7.6151  -12.1369   19.7074 S   0  0  0  0  0  0  0  0  0  0  0  0
    8.5640  -13.6810   19.9511 C   0  0  0  0  0  0  0  0  0  0  0  0
    8.0470  -14.3099   21.2225 C   0  0  0  0  0  0  0  0  0  0  0  0
    8.7757  -15.5880   21.5026 C   0  0  2  0  0  0  0  0  0  0  0  0
    8.9502  -16.3959   20.3763 N   0  0  0  0  0  0  0  0  0  0  0  0
    8.1601  -16.3418   22.6317 C   0  0  0  0  0  0  0  0  0  0  0  0
    7.8671  -15.7423   23.7271 O   0  0  0  0  0  0  0  0  0  0  0  0
    3.4567  -22.7832   24.4447 N   0  0  0  0  0  0  0  0  0  0  0  0
    4.4138  -23.2842   25.3619 C   0  0  0  0  0  0  0  0  0  0  0  0
    4.0372  -24.1055   26.2709 N   0  0  0  0  0  0  0  0  0  0  0  0
    5.7513  -22.8502   25.2244 N   0  0  0  0  0  0  0  0  0  0  0  0
    6.1417  -22.0422   24.1008 C   0  0  0  0  0  0  0  0  0  0  0  0
    6.7355  -20.7533   24.5856 C   0  0  0  0  0  0  0  0  0  0  0  0
    7.1721  -19.9344   23.4099 C   0  0  0  0  0  0  0  0  0  0  0  0
    7.3945  -18.4923   23.7479 C   0  0  2  0  0  0  0  0  0  0  0  0
    7.8536  -17.7212   22.6168 N   0  0  0  0  0  0  0  0  0  0  0  0
    8.4673  -18.4692   24.7930 C   0  0  0  0  0  0  0  0  0  0  0  0
    9.6641  -18.6028   24.4485 O   0  0  0  0  0  0  0  0  0  0  0  0
    4.7418  -24.5361   26.9017 N   0  0  0  0  0  0  0  0  0  0  0  0
    8.1431  -18.2969   26.1700 C   0  0  2  0  0  0  0  0  0  0  0  0
    9.1956  -18.1787   27.1270 C   0  0  0  0  0  0  0  0  0  0  0  0
    9.2142  -16.8746   27.8305 C   0  0  0  0  0  0  0  0  0  0  0  0
    9.9959  -15.7603   27.2737 C   0  0  0  0  0  0  0  0  0  0  0  0
   10.0033  -14.4964   28.0002 O   0  0  0  0  0  0  0  0  0  0  0  0
   10.5142  -13.4087   27.6709 C   0  0  0  0  0  0  0  0  0  0  0  0
    9.3003  -19.3438   28.0342 O   0  0  0  0  0  0  0  0  0  0  0  0
   10.4204  -19.4433   28.8477 O   0  0  0  0  0  0  0  0  0  0  0  0
    9.3417  -14.4967   29.2505 O   0  0  0  0  0  0  0  0  0  0  0  0
  1  2  1  0
  2  3  1  0
  3  4  1  0
  5  6  1  6
  5  4  1  0
  7  5  1  0
  8  7  2  0
 10  9  1  0
 10 12  1  0
 11 10  2  0
 12 13  1  0
 13 14  1  0
 14 15  1  0
 16 15  1  6
 16 17  1  0
 17  7  1  0
 18 16  1  0
 18 19  2  0
 20 18  1  0
 21 20  1  0
 21 22  1  6
 22 23  1  0
 23 24  1  0
 24 28  1  0
 24 25  2  0
 26 21  1  0
 27 26  1  0
 29 26  2  0
M  END
$$$$
