MRE.pdb
     RDKit          3D

 29 28  0  0  1  0  0  0  0  0999 V2000
    6.2880  -11.3533   27.4547 C   0  0  0  0  0  0  0  0  0  0  0  0
    7.8155  -12.2922   27.2847 S   0  0  0  0  0  0  0  0  0  0  0  0
    7.4341  -14.0362   27.6804 C   0  0  0  0  0  0  0  0  0  0  0  0
    7.9792  -14.8666   26.5435 C   0  0  0  0  0  0  0  0  0  0  0  0
    6.8568  -15.4199   25.7205 C   0  0  2  0  0  0  0  0  0  0  0  0
    6.1362  -16.4326   26.3583 N   0  0  0  0  0  0  0  0  0  0  0  0
    7.3163  -15.8394   24.3659 C   0  0  0  0  0  0  0  0  0  0  0  0
    7.6953  -17.0465   24.1557 O   0  0  0  0  0  0  0  0  0  0  0  0
    7.0779  -13.4510   16.1171 N   0  0  0  0  0  0  0  0  0  0  0  0
    8.1835  -14.3321   16.2137 C   0  0  0  0  0  0  0  0  0  0  0  0
    8.5957  -14.9346   15.1602 N   0  0  0  0  0  0  0  0  0  0  0  0
    8.7848  -14.5016   17.4810 N   0  0  0  0  0  0  0  0  0  0  0  0
    8.1855  -13.9233   18.6533 C   0  0  0  0  0  0  0  0  0  0  0  0
    8.9735  -14.3112   19.8688 C   0  0  0  0  0  0  0  0  0  0  0  0
    8.1420  -14.0825   21.0935 C   0  0  0  0  0  0  0  0  0  0  0  0
    8.2103  -15.2155   22.0706 C   0  0  2  0  0  0  0  0  0  0  0  0
    7.3821  -14.9973   23.2329 N   0  0  0  0  0  0  0  0  0  0  0  0
    9.6362  -15.2913   22.5230 C   0  0  0  0  0  0  0  0  0  0  0  0
   10.0540  -14.4769   23.3780 O   0  0  0  0  0  0  0  0  0  0  0  0
    9.4358  -15.5441   15.2094 N   0  0  0  0  0  0  0  0  0  0  0  0
   10.5199  -16.2764   21.9939 C   0  0  2  0  0  0  0  0  0  0  0  0
   11.8723  -16.3194   22.4486 C   0  0  0  0  0  0  0  0  0  0  0  0
   12.2242  -17.5792   23.1451 C   0  0  0  0  0  0  0  0  0  0  0  0
   13.6155  -17.8161   23.5585 C   0  0  0  0  0  0  0  0  0  0  0  0
   13.9239  -19.0624   24.2491 O   0  0  0  0  0  0  0  0  0  0  0  0
   13.3538  -20.1668   24.1603 C   0  0  0  0  0  0  0  0  0  0  0  0
   12.8539  -15.9184   21.4156 O   0  0  0  0  0  0  0  0  0  0  0  0
   14.1326  -15.5683   21.8265 O   0  0  0  0  0  0  0  0  0  0  0  0
   15.0188  -19.0203   25.1437 O   0  0  0  0  0  0  0  0  0  0  0  0
  1  2  1  0
  2  3  1  0
  3  4  1  0
  5  6  1  1
  5  4  1  0
  7  5  1  0
  8  7  2  0
 10  9  1  0
 10 12  1  0
 11 10  2  0
 12 13  1  0
 13 14  1  0
 14 15  1  0
 16 15  1  6
 16 17  1  0
 17  7  1  0
 18 16  1  0
 18 19  2  0
 20 18  1  0
 21 20  1  0
 21 22  1  1
 22 23  1  0
 23 24  1  0
 24 28  1  0
 24 25  2  0
 26 21  1  0
 27 26  1  0
 29 26  2  0
M  END
$$$$
