MRE.pdb
     RDKit          3D

 29 28  0  0  1  0  0  0  0  0999 V2000
    5.7396  -10.6229   26.6899 C   0  0  0  0  0  0  0  0  0  0  0  0
    7.2121  -11.6593   26.6550 S   0  0  0  0  0  0  0  0  0  0  0  0
    7.1901  -12.5906   25.0815 C   0  0  0  0  0  0  0  0  0  0  0  0
    6.5688  -13.9331   25.3824 C   0  0  0  0  0  0  0  0  0  0  0  0
    7.4733  -15.0369   24.9281 C   0  0  2  0  0  0  0  0  0  0  0  0
    7.7956  -14.9787   23.5700 N   0  0  0  0  0  0  0  0  0  0  0  0
    6.9489  -16.3782   25.3132 C   0  0  0  0  0  0  0  0  0  0  0  0
    6.6164  -16.6189   26.5283 O   0  0  0  0  0  0  0  0  0  0  0  0
    6.6791  -25.1719   23.6621 N   0  0  0  0  0  0  0  0  0  0  0  0
    5.8462  -24.0760   23.3254 C   0  0  0  0  0  0  0  0  0  0  0  0
    4.6679  -24.0105   23.8255 N   0  0  0  0  0  0  0  0  0  0  0  0
    6.3640  -23.0976   22.4475 N   0  0  0  0  0  0  0  0  0  0  0  0
    5.8497  -21.7548   22.4704 C   0  0  0  0  0  0  0  0  0  0  0  0
    6.4137  -21.0165   23.6476 C   0  0  0  0  0  0  0  0  0  0  0  0
    5.8914  -19.6126   23.6499 C   0  0  0  0  0  0  0  0  0  0  0  0
    6.3839  -18.8040   24.8103 C   0  0  2  0  0  0  0  0  0  0  0  0
    6.7749  -17.4673   24.4297 N   0  0  0  0  0  0  0  0  0  0  0  0
    7.5969  -19.5136   25.3288 C   0  0  0  0  0  0  0  0  0  0  0  0
    8.6115  -19.6090   24.6006 O   0  0  0  0  0  0  0  0  0  0  0  0
    4.0472  -23.2136   23.5818 N   0  0  0  0  0  0  0  0  0  0  0  0
    7.6100  -20.0790   26.6370 C   0  0  1  0  0  0  0  0  0  0  0  0
    8.8548  -20.2421   27.3161 C   0  0  0  0  0  0  0  0  0  0  0  0
    9.5099  -18.9608   27.6700 C   0  0  0  0  0  0  0  0  0  0  0  0
   10.6995  -18.9680   28.5345 C   0  0  0  0  0  0  0  0  0  0  0  0
   11.3390  -17.6924   28.8331 O   0  0  0  0  0  0  0  0  0  0  0  0
   11.0445  -16.5547   28.4191 C   0  0  0  0  0  0  0  0  0  0  0  0
    8.7919  -21.2059   28.4379 O   0  0  0  0  0  0  0  0  0  0  0  0
    7.6812  -21.1730   29.2696 O   0  0  0  0  0  0  0  0  0  0  0  0
   12.4457  -17.7452   29.7126 O   0  0  0  0  0  0  0  0  0  0  0  0
  1  2  1  0
  2  3  1  0
  3  4  1  0
  5  6  1  6
  5  4  1  0
  7  5  1  0
  8  7  2  0
 10  9  1  0
 10 12  1  0
 11 10  2  0
 12 13  1  0
 13 14  1  0
 14 15  1  0
 16 15  1  6
 16 17  1  0
 17  7  1  0
 18 16  1  0
 18 19  2  0
 20 18  1  0
 21 20  1  0
 21 22  1  6
 22 23  1  0
 23 24  1  0
 24 28  1  0
 24 25  2  0
 26 21  1  0
 27 26  1  0
 29 26  2  0
M  END
$$$$
