MRE.pdb
     RDKit          3D

 29 28  0  0  1  0  0  0  0  0999 V2000
    4.7731  -11.6665   26.2963 C   0  0  0  0  0  0  0  0  0  0  0  0
    6.1494  -11.3690   27.4193 S   0  0  0  0  0  0  0  0  0  0  0  0
    7.5175  -12.4723   26.9144 C   0  0  0  0  0  0  0  0  0  0  0  0
    6.8943  -13.6044   26.1339 C   0  0  0  0  0  0  0  0  0  0  0  0
    7.8170  -14.7837   26.1042 C   0  0  2  0  0  0  0  0  0  0  0  0
    9.1298  -14.4817   26.4742 N   0  0  0  0  0  0  0  0  0  0  0  0
    7.7631  -15.4977   24.7967 C   0  0  0  0  0  0  0  0  0  0  0  0
    6.8009  -16.3057   24.5393 O   0  0  0  0  0  0  0  0  0  0  0  0
    8.1837  -13.9352   16.6950 N   0  0  0  0  0  0  0  0  0  0  0  0
    8.2914  -13.4116   18.0074 C   0  0  0  0  0  0  0  0  0  0  0  0
    8.2585  -12.1418   18.1776 N   0  0  0  0  0  0  0  0  0  0  0  0
    8.4281  -14.3269   19.0750 N   0  0  0  0  0  0  0  0  0  0  0  0
    9.1620  -15.5503   18.8944 C   0  0  0  0  0  0  0  0  0  0  0  0
    9.0621  -16.3886   20.1337 C   0  0  0  0  0  0  0  0  0  0  0  0
    9.0234  -15.4955   21.3356 C   0  0  0  0  0  0  0  0  0  0  0  0
    8.8387  -16.2448   22.6192 C   0  0  2  0  0  0  0  0  0  0  0  0
    8.7154  -15.3692   23.7606 N   0  0  0  0  0  0  0  0  0  0  0  0
   10.0730  -17.0739   22.8001 C   0  0  0  0  0  0  0  0  0  0  0  0
   11.1688  -16.5063   23.0145 O   0  0  0  0  0  0  0  0  0  0  0  0
    8.4040  -11.7441   19.1265 N   0  0  0  0  0  0  0  0  0  0  0  0
   10.0151  -18.4962   22.7317 C   0  0  1  0  0  0  0  0  0  0  0  0
   11.2190  -19.2523   22.8596 C   0  0  0  0  0  0  0  0  0  0  0  0
   11.1765  -20.2558   23.9493 C   0  0  0  0  0  0  0  0  0  0  0  0
   10.7306  -19.8519   25.2912 C   0  0  0  0  0  0  0  0  0  0  0  0
   11.7048  -19.8788   26.3754 O   0  0  0  0  0  0  0  0  0  0  0  0
   12.2800  -20.8596   26.8851 C   0  0  0  0  0  0  0  0  0  0  0  0
   11.7141  -19.7934   21.5737 O   0  0  0  0  0  0  0  0  0  0  0  0
   12.9316  -20.4598   21.5676 O   0  0  0  0  0  0  0  0  0  0  0  0
   12.0498  -18.6238   26.9294 O   0  0  0  0  0  0  0  0  0  0  0  0
  1  2  1  0
  2  3  1  0
  3  4  1  0
  5  6  1  6
  5  4  1  0
  7  5  1  0
  8  7  2  0
 10  9  1  0
 10 12  1  0
 11 10  2  0
 12 13  1  0
 13 14  1  0
 14 15  1  0
 16 15  1  6
 16 17  1  0
 17  7  1  0
 18 16  1  0
 18 19  2  0
 20 18  1  0
 21 20  1  0
 21 22  1  6
 22 23  1  0
 23 24  1  0
 24 28  1  0
 24 25  2  0
 26 21  1  0
 27 26  1  0
 29 26  2  0
M  END
$$$$
