CKR.pdb
     RDKit          3D

 27 26  0  0  1  0  0  0  0  0999 V2000
   27.2982  -21.4799  -15.1163 N   0  0  0  0  0  0  0  0  0  0  0  0
   26.6470  -20.4559  -14.3139 C   0  0  1  0  0  0  0  0  0  0  0  0
   26.5788  -19.1961  -15.1492 C   0  0  0  0  0  0  0  0  0  0  0  0
   28.2208  -18.6528  -15.6803 S   0  0  0  0  0  0  0  0  0  0  0  0
   25.2311  -20.8462  -14.0159 C   0  0  0  0  0  0  0  0  0  0  0  0
   24.6448  -21.7100  -14.7169 O   0  0  0  0  0  0  0  0  0  0  0  0
   24.4889  -20.2729  -12.9464 N   0  0  0  0  0  0  0  0  0  0  0  0
   23.0966  -20.6645  -12.6940 C   0  0  1  0  0  0  0  0  0  0  0  0
   22.9347  -20.6910  -11.2023 C   0  0  0  0  0  0  0  0  0  0  0  0
   21.5644  -21.0502  -10.7328 C   0  0  0  0  0  0  0  0  0  0  0  0
   21.4479  -20.9698   -9.2355 C   0  0  0  0  0  0  0  0  0  0  0  0
   20.7059  -22.1313   -8.6310 C   0  0  0  0  0  0  0  0  0  0  0  0
   20.4934  -21.9191   -7.1922 N   0  0  0  0  0  0  0  0  0  0  0  0
   22.1707  -19.7051  -13.3757 C   0  0  0  0  0  0  0  0  0  0  0  0
   22.0619  -18.5286  -12.9679 O   0  0  0  0  0  0  0  0  0  0  0  0
   18.3656  -22.6281  -20.6326 N   0  0  0  0  0  0  0  0  0  0  0  0
   17.6768  -21.8860  -19.6396 C   0  0  0  0  0  0  0  0  0  0  0  0
   16.4657  -21.5272  -19.8723 N   0  0  0  0  0  0  0  0  0  0  0  0
   18.2735  -21.5284  -18.4073 N   0  0  0  0  0  0  0  0  0  0  0  0
   19.6203  -21.9039  -18.0453 C   0  0  0  0  0  0  0  0  0  0  0  0
   19.9776  -21.4396  -16.6260 C   0  0  0  0  0  0  0  0  0  0  0  0
   19.9314  -19.9513  -16.4921 C   0  0  0  0  0  0  0  0  0  0  0  0
   20.3897  -19.3937  -15.1686 C   0  0  2  0  0  0  0  0  0  0  0  0
   21.4032  -20.1088  -14.4907 N   0  0  0  0  0  0  0  0  0  0  0  0
   19.2365  -18.9747  -14.3821 C   0  0  0  0  0  0  0  0  0  0  0  0
   18.8305  -19.6585  -13.2307 O   0  0  0  0  0  0  0  0  0  0  0  0
   18.5555  -17.9715  -14.7130 O   0  0  0  0  0  0  0  0  0  0  0  0
  2  1  1  6
  3  4  1  0
  3  2  1  0
  5  2  1  0
  5  6  2  0
  7  5  1  0
  8  7  1  0
  8  9  1  1
 10  9  1  0
 11 12  1  0
 11 10  1  0
 13 12  1  0
 14  8  1  0
 15 14  2  0
 17 19  1  0
 17 16  1  0
 18 17  2  0
 20 19  1  0
 21 20  1  0
 21 22  1  0
 23 22  1  6
 23 24  1  0
 24 14  1  0
 25 26  1  0
 25 23  1  0
 27 25  2  0
M  END
$$$$
