CKR.pdb
     RDKit          3D

 27 26  0  0  1  0  0  0  0  0999 V2000
   29.8841  -23.9647  -16.6758 N   0  0  0  0  0  0  0  0  0  0  0  0
   28.8241  -23.8041  -17.6591 C   0  0  1  0  0  0  0  0  0  0  0  0
   28.0889  -25.1229  -17.7576 C   0  0  0  0  0  0  0  0  0  0  0  0
   29.2212  -26.5023  -18.0553 S   0  0  0  0  0  0  0  0  0  0  0  0
   27.8230  -22.7927  -17.1891 C   0  0  0  0  0  0  0  0  0  0  0  0
   27.5575  -22.6767  -15.9655 O   0  0  0  0  0  0  0  0  0  0  0  0
   27.1332  -21.9273  -18.0827 N   0  0  0  0  0  0  0  0  0  0  0  0
   26.1324  -20.9718  -17.5919 C   0  0  1  0  0  0  0  0  0  0  0  0
   26.2008  -19.7872  -18.5107 C   0  0  0  0  0  0  0  0  0  0  0  0
   25.1779  -18.7340  -18.2433 C   0  0  0  0  0  0  0  0  0  0  0  0
   25.3025  -17.5789  -19.1983 C   0  0  0  0  0  0  0  0  0  0  0  0
   24.2342  -16.5347  -19.0153 C   0  0  0  0  0  0  0  0  0  0  0  0
   24.3129  -15.5203  -20.0759 N   0  0  0  0  0  0  0  0  0  0  0  0
   24.7844  -21.6234  -17.5613 C   0  0  0  0  0  0  0  0  0  0  0  0
   24.5311  -22.5945  -18.3065 O   0  0  0  0  0  0  0  0  0  0  0  0
   23.1153  -20.7652  -10.5519 N   0  0  0  0  0  0  0  0  0  0  0  0
   24.4240  -21.2289  -10.2629 C   0  0  0  0  0  0  0  0  0  0  0  0
   25.0553  -20.7057   -9.2743 N   0  0  0  0  0  0  0  0  0  0  0  0
   25.0561  -22.2427  -11.0213 N   0  0  0  0  0  0  0  0  0  0  0  0
   24.4852  -22.7973  -12.2264 C   0  0  0  0  0  0  0  0  0  0  0  0
   24.9041  -22.0027  -13.4716 C   0  0  0  0  0  0  0  0  0  0  0  0
   24.3297  -22.5779  -14.7263 C   0  0  0  0  0  0  0  0  0  0  0  0
   23.3457  -21.7045  -15.4621 C   0  0  2  0  0  0  0  0  0  0  0  0
   23.7741  -21.1555  -16.6921 N   0  0  0  0  0  0  0  0  0  0  0  0
   22.6908  -20.7995  -14.5259 C   0  0  0  0  0  0  0  0  0  0  0  0
   21.4917  -21.1294  -13.8845 O   0  0  0  0  0  0  0  0  0  0  0  0
   23.1849  -19.6757  -14.2569 O   0  0  0  0  0  0  0  0  0  0  0  0
  2  1  1  1
  3  4  1  0
  3  2  1  0
  5  2  1  0
  5  6  2  0
  7  5  1  0
  8  7  1  0
  8  9  1  6
 10  9  1  0
 11 12  1  0
 11 10  1  0
 13 12  1  0
 14  8  1  0
 15 14  2  0
 17 19  1  0
 17 16  1  0
 18 17  2  0
 20 19  1  0
 21 20  1  0
 21 22  1  0
 23 22  1  1
 23 24  1  0
 24 14  1  0
 25 26  1  0
 25 23  1  0
 27 25  2  0
M  END
$$$$
