CKR.pdb
     RDKit          3D

 27 26  0  0  1  0  0  0  0  0999 V2000
   23.8516  -15.2953  -17.7041 N   0  0  0  0  0  0  0  0  0  0  0  0
   24.4692  -15.8039  -16.4891 C   0  0  1  0  0  0  0  0  0  0  0  0
   23.5471  -15.4741  -15.3356 C   0  0  0  0  0  0  0  0  0  0  0  0
   23.8184  -13.7954  -14.7178 S   0  0  0  0  0  0  0  0  0  0  0  0
   24.5704  -17.2983  -16.5393 C   0  0  0  0  0  0  0  0  0  0  0  0
   23.6366  -17.9865  -17.0247 O   0  0  0  0  0  0  0  0  0  0  0  0
   25.7043  -18.0047  -16.0509 N   0  0  0  0  0  0  0  0  0  0  0  0
   25.8284  -19.4566  -16.2300 C   0  0  1  0  0  0  0  0  0  0  0  0
   27.2808  -19.7211  -16.4990 C   0  0  0  0  0  0  0  0  0  0  0  0
   27.6163  -21.1549  -16.7416 C   0  0  0  0  0  0  0  0  0  0  0  0
   29.0800  -21.3451  -17.0298 C   0  0  0  0  0  0  0  0  0  0  0  0
   29.4457  -22.7697  -17.3492 C   0  0  0  0  0  0  0  0  0  0  0  0
   30.8692  -22.8740  -17.7000 N   0  0  0  0  0  0  0  0  0  0  0  0
   25.3107  -20.1614  -15.0144 C   0  0  0  0  0  0  0  0  0  0  0  0
   25.4712  -19.6677  -13.8773 O   0  0  0  0  0  0  0  0  0  0  0  0
   22.3502  -26.4393  -13.1765 N   0  0  0  0  0  0  0  0  0  0  0  0
   20.9973  -26.0663  -12.9723 C   0  0  0  0  0  0  0  0  0  0  0  0
   20.3451  -26.6242  -12.0169 N   0  0  0  0  0  0  0  0  0  0  0  0
   20.3434  -25.1058  -13.7800 N   0  0  0  0  0  0  0  0  0  0  0  0
   21.0053  -24.3897  -14.8454 C   0  0  0  0  0  0  0  0  0  0  0  0
   21.8215  -23.2039  -14.3116 C   0  0  0  0  0  0  0  0  0  0  0  0
   23.2909  -23.3982  -14.5070 C   0  0  0  0  0  0  0  0  0  0  0  0
   24.1692  -22.2440  -14.0962 C   0  0  2  0  0  0  0  0  0  0  0  0
   24.6324  -21.3952  -15.1272 N   0  0  0  0  0  0  0  0  0  0  0  0
   25.1514  -22.6932  -13.1177 C   0  0  0  0  0  0  0  0  0  0  0  0
   24.7856  -23.3813  -11.9554 O   0  0  0  0  0  0  0  0  0  0  0  0
   26.3782  -22.4766  -13.2835 O   0  0  0  0  0  0  0  0  0  0  0  0
  2  1  1  6
  3  4  1  0
  3  2  1  0
  5  2  1  0
  5  6  2  0
  7  5  1  0
  8  7  1  0
  8  9  1  1
 10  9  1  0
 11 12  1  0
 11 10  1  0
 13 12  1  0
 14  8  1  0
 15 14  2  0
 17 19  1  0
 17 16  1  0
 18 17  2  0
 20 19  1  0
 21 20  1  0
 21 22  1  0
 23 22  1  6
 23 24  1  0
 24 14  1  0
 25 26  1  0
 25 23  1  0
 27 25  2  0
M  END
$$$$
