CKR.pdb
     RDKit          3D

 27 26  0  0  1  0  0  0  0  0999 V2000
   18.3696  -25.2373  -10.2941 N   0  0  0  0  0  0  0  0  0  0  0  0
   18.9558  -25.1868   -8.9636 C   0  0  1  0  0  0  0  0  0  0  0  0
   19.3358  -23.7486   -8.6862 C   0  0  0  0  0  0  0  0  0  0  0  0
   17.9010  -22.6489   -8.7599 S   0  0  0  0  0  0  0  0  0  0  0  0
   17.9397  -25.5656   -7.9292 C   0  0  0  0  0  0  0  0  0  0  0  0
   16.7248  -25.2862   -8.0939 O   0  0  0  0  0  0  0  0  0  0  0  0
   18.2869  -26.2475   -6.7301 N   0  0  0  0  0  0  0  0  0  0  0  0
   17.2610  -26.6357   -5.7541 C   0  0  1  0  0  0  0  0  0  0  0  0
   17.5255  -28.0748   -5.4211 C   0  0  0  0  0  0  0  0  0  0  0  0
   17.3469  -29.0192   -6.5627 C   0  0  0  0  0  0  0  0  0  0  0  0
   17.6501  -30.4380   -6.1667 C   0  0  0  0  0  0  0  0  0  0  0  0
   17.6075  -31.4025   -7.3213 C   0  0  0  0  0  0  0  0  0  0  0  0
   17.8389  -32.7779   -6.8574 N   0  0  0  0  0  0  0  0  0  0  0  0
   17.3267  -25.7282   -4.5647 C   0  0  0  0  0  0  0  0  0  0  0  0
   18.4260  -25.2979   -4.1537 O   0  0  0  0  0  0  0  0  0  0  0  0
   11.4472  -19.7110   -4.7284 N   0  0  0  0  0  0  0  0  0  0  0  0
   10.9330  -21.0029   -4.4496 C   0  0  0  0  0  0  0  0  0  0  0  0
    9.6657  -21.1910   -4.5407 N   0  0  0  0  0  0  0  0  0  0  0  0
   11.7624  -22.0870   -4.0764 N   0  0  0  0  0  0  0  0  0  0  0  0
   13.1585  -21.9321   -3.7404 C   0  0  0  0  0  0  0  0  0  0  0  0
   13.8060  -23.2741   -3.3700 C   0  0  0  0  0  0  0  0  0  0  0  0
   15.2738  -23.1408   -3.1188 C   0  0  0  0  0  0  0  0  0  0  0  0
   16.0107  -24.4214   -2.8200 C   0  0  2  0  0  0  0  0  0  0  0  0
   16.1510  -25.3410   -3.8843 N   0  0  0  0  0  0  0  0  0  0  0  0
   15.5733  -24.9563   -1.5368 C   0  0  0  0  0  0  0  0  0  0  0  0
   15.7253  -24.2451   -0.3412 O   0  0  0  0  0  0  0  0  0  0  0  0
   15.0368  -26.0899   -1.4554 O   0  0  0  0  0  0  0  0  0  0  0  0
  2  1  1  6
  3  4  1  0
  3  2  1  0
  5  2  1  0
  5  6  2  0
  7  5  1  0
  8  7  1  0
  8  9  1  1
 10  9  1  0
 11 12  1  0
 11 10  1  0
 13 12  1  0
 14  8  1  0
 15 14  2  0
 17 19  1  0
 17 16  1  0
 18 17  2  0
 20 19  1  0
 21 20  1  0
 21 22  1  0
 23 22  1  6
 23 24  1  0
 24 14  1  0
 25 26  1  0
 25 23  1  0
 27 25  2  0
M  END
$$$$
