CKR.pdb
     RDKit          3D

 27 26  0  0  1  0  0  0  0  0999 V2000
   20.9670  -16.1750   10.1757 N   0  0  0  0  0  0  0  0  0  0  0  0
   21.0306  -16.1512    8.7225 C   0  0  1  0  0  0  0  0  0  0  0  0
   21.9447  -17.2756    8.2870 C   0  0  0  0  0  0  0  0  0  0  0  0
   23.6725  -16.7445    8.2091 S   0  0  0  0  0  0  0  0  0  0  0  0
   19.6839  -16.4455    8.1347 C   0  0  0  0  0  0  0  0  0  0  0  0
   19.0796  -17.5101    8.4221 O   0  0  0  0  0  0  0  0  0  0  0  0
   19.0297  -15.5554    7.2385 N   0  0  0  0  0  0  0  0  0  0  0  0
   17.7277  -15.8930    6.6499 C   0  0  1  0  0  0  0  0  0  0  0  0
   17.1728  -14.6109    6.1018 C   0  0  0  0  0  0  0  0  0  0  0  0
   15.8144  -14.7313    5.4956 C   0  0  0  0  0  0  0  0  0  0  0  0
   15.3025  -13.4053    5.0041 C   0  0  0  0  0  0  0  0  0  0  0  0
   13.9119  -13.4765    4.4328 C   0  0  0  0  0  0  0  0  0  0  0  0
   13.4280  -12.1353    4.0763 N   0  0  0  0  0  0  0  0  0  0  0  0
   17.9039  -16.9570    5.6110 C   0  0  0  0  0  0  0  0  0  0  0  0
   18.9753  -17.0521    4.9743 O   0  0  0  0  0  0  0  0  0  0  0  0
   15.5111  -24.0911    3.2835 N   0  0  0  0  0  0  0  0  0  0  0  0
   16.8703  -24.4938    3.2409 C   0  0  0  0  0  0  0  0  0  0  0  0
   17.2045  -25.4394    2.4385 N   0  0  0  0  0  0  0  0  0  0  0  0
   17.8665  -23.8938    4.0470 N   0  0  0  0  0  0  0  0  0  0  0  0
   17.5959  -22.8008    4.9516 C   0  0  0  0  0  0  0  0  0  0  0  0
   17.3427  -21.4880    4.1968 C   0  0  0  0  0  0  0  0  0  0  0  0
   17.0978  -20.3425    5.1259 C   0  0  0  0  0  0  0  0  0  0  0  0
   16.8908  -18.9985    4.4755 C   0  0  2  0  0  0  0  0  0  0  0  0
   16.8657  -17.8726    5.3297 N   0  0  0  0  0  0  0  0  0  0  0  0
   15.8379  -19.0912    3.4719 C   0  0  0  0  0  0  0  0  0  0  0  0
   14.6824  -18.3040    3.5281 O   0  0  0  0  0  0  0  0  0  0  0  0
   15.9300  -19.8915    2.5072 O   0  0  0  0  0  0  0  0  0  0  0  0
  2  1  1  1
  3  4  1  0
  3  2  1  0
  5  2  1  0
  5  6  2  0
  7  5  1  0
  8  7  1  0
  8  9  1  6
 10  9  1  0
 11 12  1  0
 11 10  1  0
 13 12  1  0
 14  8  1  0
 15 14  2  0
 17 19  1  0
 17 16  1  0
 18 17  2  0
 20 19  1  0
 21 20  1  0
 21 22  1  0
 23 22  1  1
 23 24  1  0
 24 14  1  0
 25 26  1  0
 25 23  1  0
 27 25  2  0
M  END
$$$$
