CKR.pdb
     RDKit          3D

 27 26  0  0  1  0  0  0  0  0999 V2000
   27.6232  -20.6477  -15.4441 N   0  0  0  0  0  0  0  0  0  0  0  0
   27.0787  -19.7818  -14.4096 C   0  0  1  0  0  0  0  0  0  0  0  0
   26.8768  -18.4121  -15.0201 C   0  0  0  0  0  0  0  0  0  0  0  0
   28.4520  -17.5880  -15.3564 S   0  0  0  0  0  0  0  0  0  0  0  0
   25.7243  -20.2621  -13.9844 C   0  0  0  0  0  0  0  0  0  0  0  0
   24.9575  -20.8239  -14.8076 O   0  0  0  0  0  0  0  0  0  0  0  0
   25.2425  -20.1118  -12.6545 N   0  0  0  0  0  0  0  0  0  0  0  0
   23.9151  -20.6061  -12.2683 C   0  0  1  0  0  0  0  0  0  0  0  0
   23.9533  -20.7840  -10.7788 C   0  0  0  0  0  0  0  0  0  0  0  0
   22.7141  -21.3730  -10.1918 C   0  0  0  0  0  0  0  0  0  0  0  0
   22.8734  -21.6612   -8.7243 C   0  0  0  0  0  0  0  0  0  0  0  0
   21.6974  -22.3859   -8.1269 C   0  0  0  0  0  0  0  0  0  0  0  0
   21.8473  -22.5055   -6.6696 N   0  0  0  0  0  0  0  0  0  0  0  0
   22.8645  -19.6416  -12.7253 C   0  0  0  0  0  0  0  0  0  0  0  0
   22.9466  -18.4285  -12.4355 O   0  0  0  0  0  0  0  0  0  0  0  0
   20.7356  -15.7138  -19.0186 N   0  0  0  0  0  0  0  0  0  0  0  0
   21.4513  -16.9253  -18.8420 C   0  0  0  0  0  0  0  0  0  0  0  0
   22.5625  -17.0776  -19.4678 N   0  0  0  0  0  0  0  0  0  0  0  0
   20.9870  -17.9674  -18.0049 N   0  0  0  0  0  0  0  0  0  0  0  0
   19.6243  -18.0522  -17.5338 C   0  0  0  0  0  0  0  0  0  0  0  0
   19.5599  -18.2288  -16.0100 C   0  0  0  0  0  0  0  0  0  0  0  0
   20.6914  -19.0565  -15.4906 C   0  0  0  0  0  0  0  0  0  0  0  0
   20.6876  -19.3219  -14.0067 C   0  0  2  0  0  0  0  0  0  0  0  0
   21.7621  -20.0817  -13.4910 N   0  0  0  0  0  0  0  0  0  0  0  0
   19.3466  -19.6938  -13.5739 C   0  0  0  0  0  0  0  0  0  0  0  0
   18.3687  -18.7395  -13.2718 O   0  0  0  0  0  0  0  0  0  0  0  0
   19.0147  -20.9001  -13.4545 O   0  0  0  0  0  0  0  0  0  0  0  0
  2  1  1  6
  3  4  1  0
  3  2  1  0
  5  2  1  0
  5  6  2  0
  7  5  1  0
  8  7  1  0
  8  9  1  1
 10  9  1  0
 11 12  1  0
 11 10  1  0
 13 12  1  0
 14  8  1  0
 15 14  2  0
 17 19  1  0
 17 16  1  0
 18 17  2  0
 20 19  1  0
 21 20  1  0
 21 22  1  0
 23 22  1  6
 23 24  1  0
 24 14  1  0
 25 26  1  0
 25 23  1  0
 27 25  2  0
M  END
$$$$
