CKR.pdb
     RDKit          3D

 27 26  0  0  1  0  0  0  0  0999 V2000
   26.7305  -15.0309  -18.1295 N   0  0  0  0  0  0  0  0  0  0  0  0
   27.0366  -15.7961  -16.9307 C   0  0  1  0  0  0  0  0  0  0  0  0
   26.2253  -15.2103  -15.7956 C   0  0  0  0  0  0  0  0  0  0  0  0
   26.9007  -13.6286  -15.2340 S   0  0  0  0  0  0  0  0  0  0  0  0
   26.5858  -17.2168  -17.0871 C   0  0  0  0  0  0  0  0  0  0  0  0
   25.4778  -17.4811  -17.6198 O   0  0  0  0  0  0  0  0  0  0  0  0
   27.3702  -18.3203  -16.6507 N   0  0  0  0  0  0  0  0  0  0  0  0
   26.8428  -19.6898  -16.6937 C   0  0  1  0  0  0  0  0  0  0  0  0
   28.0167  -20.5962  -16.4647 C   0  0  0  0  0  0  0  0  0  0  0  0
   27.6881  -22.0519  -16.4737 C   0  0  0  0  0  0  0  0  0  0  0  0
   28.9097  -22.9016  -16.2554 C   0  0  0  0  0  0  0  0  0  0  0  0
   28.6856  -24.3587  -16.5585 C   0  0  0  0  0  0  0  0  0  0  0  0
   29.9345  -25.1186  -16.4060 N   0  0  0  0  0  0  0  0  0  0  0  0
   25.7615  -19.8468  -15.6697 C   0  0  0  0  0  0  0  0  0  0  0  0
   25.6891  -19.0649  -14.6971 O   0  0  0  0  0  0  0  0  0  0  0  0
   18.1375  -20.0438  -12.6594 N   0  0  0  0  0  0  0  0  0  0  0  0
   18.9200  -18.9588  -12.1887 C   0  0  0  0  0  0  0  0  0  0  0  0
   18.5428  -18.3475  -11.1239 N   0  0  0  0  0  0  0  0  0  0  0  0
   20.0961  -18.5277  -12.8470 N   0  0  0  0  0  0  0  0  0  0  0  0
   20.4673  -18.9732  -14.1698 C   0  0  0  0  0  0  0  0  0  0  0  0
   21.4349  -20.1641  -14.1177 C   0  0  0  0  0  0  0  0  0  0  0  0
   22.6458  -19.9434  -14.9662 C   0  0  0  0  0  0  0  0  0  0  0  0
   23.6330  -21.0817  -15.0155 C   0  0  2  0  0  0  0  0  0  0  0  0
   24.8038  -20.8791  -15.7811 N   0  0  0  0  0  0  0  0  0  0  0  0
   22.9263  -22.3416  -15.2081 C   0  0  0  0  0  0  0  0  0  0  0  0
   22.4042  -23.0755  -14.1371 O   0  0  0  0  0  0  0  0  0  0  0  0
   22.7575  -22.8216  -16.3574 O   0  0  0  0  0  0  0  0  0  0  0  0
  2  1  1  6
  3  4  1  0
  3  2  1  0
  5  2  1  0
  5  6  2  0
  7  5  1  0
  8  7  1  0
  8  9  1  1
 10  9  1  0
 11 12  1  0
 11 10  1  0
 13 12  1  0
 14  8  1  0
 15 14  2  0
 17 19  1  0
 17 16  1  0
 18 17  2  0
 20 19  1  0
 21 20  1  0
 21 22  1  0
 23 22  1  6
 23 24  1  0
 24 14  1  0
 25 26  1  0
 25 23  1  0
 27 25  2  0
M  END
$$$$
