CKR.pdb
     RDKit          3D

 27 26  0  0  1  0  0  0  0  0999 V2000
   27.6965  -20.5322  -10.4813 N   0  0  0  0  0  0  0  0  0  0  0  0
   26.3737  -21.1335  -10.4096 C   0  0  1  0  0  0  0  0  0  0  0  0
   25.5145  -20.2442   -9.5375 C   0  0  0  0  0  0  0  0  0  0  0  0
   26.1869  -20.0924   -7.8647 S   0  0  0  0  0  0  0  0  0  0  0  0
   25.7320  -21.1497  -11.7639 C   0  0  0  0  0  0  0  0  0  0  0  0
   25.8470  -20.1653  -12.5378 O   0  0  0  0  0  0  0  0  0  0  0  0
   24.9739  -22.2561  -12.2375 N   0  0  0  0  0  0  0  0  0  0  0  0
   24.4655  -22.2934  -13.6144 C   0  0  1  0  0  0  0  0  0  0  0  0
   24.6705  -23.6995  -14.0968 C   0  0  0  0  0  0  0  0  0  0  0  0
   24.1814  -23.9579  -15.4829 C   0  0  0  0  0  0  0  0  0  0  0  0
   24.4331  -25.3783  -15.9084 C   0  0  0  0  0  0  0  0  0  0  0  0
   23.9032  -25.6932  -17.2814 C   0  0  0  0  0  0  0  0  0  0  0  0
   24.3334  -27.0320  -17.7092 N   0  0  0  0  0  0  0  0  0  0  0  0
   23.0321  -21.8605  -13.6352 C   0  0  0  0  0  0  0  0  0  0  0  0
   22.2848  -22.0900  -12.6598 O   0  0  0  0  0  0  0  0  0  0  0  0
   19.7178  -15.2326  -18.5047 N   0  0  0  0  0  0  0  0  0  0  0  0
   20.2050  -15.3446  -17.1775 C   0  0  0  0  0  0  0  0  0  0  0  0
   20.7204  -14.3065  -16.6241 N   0  0  0  0  0  0  0  0  0  0  0  0
   20.1439  -16.5536  -16.4448 N   0  0  0  0  0  0  0  0  0  0  0  0
   19.5928  -17.7750  -16.9838 C   0  0  0  0  0  0  0  0  0  0  0  0
   19.6606  -18.9253  -15.9691 C   0  0  0  0  0  0  0  0  0  0  0  0
   21.0420  -19.4827  -15.8412 C   0  0  0  0  0  0  0  0  0  0  0  0
   21.1893  -20.6788  -14.9357 C   0  0  2  0  0  0  0  0  0  0  0  0
   22.4962  -21.1859  -14.7546 N   0  0  0  0  0  0  0  0  0  0  0  0
   20.1374  -21.6469  -15.2195 C   0  0  0  0  0  0  0  0  0  0  0  0
   18.9924  -21.7595  -14.4229 O   0  0  0  0  0  0  0  0  0  0  0  0
   20.2209  -22.4261  -16.2021 O   0  0  0  0  0  0  0  0  0  0  0  0
  2  1  1  6
  3  4  1  0
  3  2  1  0
  5  2  1  0
  5  6  2  0
  7  5  1  0
  8  7  1  0
  8  9  1  1
 10  9  1  0
 11 12  1  0
 11 10  1  0
 13 12  1  0
 14  8  1  0
 15 14  2  0
 17 19  1  0
 17 16  1  0
 18 17  2  0
 20 19  1  0
 21 20  1  0
 21 22  1  0
 23 22  1  6
 23 24  1  0
 24 14  1  0
 25 26  1  0
 25 23  1  0
 27 25  2  0
M  END
$$$$
