CKR.pdb
     RDKit          3D

 27 26  0  0  1  0  0  0  0  0999 V2000
   25.7008  -14.4329  -17.8573 N   0  0  0  0  0  0  0  0  0  0  0  0
   26.2374  -15.0044  -16.6317 C   0  0  1  0  0  0  0  0  0  0  0  0
   25.3660  -14.5326  -15.4882 C   0  0  0  0  0  0  0  0  0  0  0  0
   25.9605  -12.9730  -14.7899 S   0  0  0  0  0  0  0  0  0  0  0  0
   26.1301  -16.4989  -16.6603 C   0  0  0  0  0  0  0  0  0  0  0  0
   25.0541  -17.0564  -16.9961 O   0  0  0  0  0  0  0  0  0  0  0  0
   27.2165  -17.3502  -16.3162 N   0  0  0  0  0  0  0  0  0  0  0  0
   27.0449  -18.8064  -16.2418 C   0  0  1  0  0  0  0  0  0  0  0  0
   28.4278  -19.3885  -16.2159 C   0  0  0  0  0  0  0  0  0  0  0  0
   28.4777  -20.8593  -15.9675 C   0  0  0  0  0  0  0  0  0  0  0  0
   27.8247  -21.6358  -17.0776 C   0  0  0  0  0  0  0  0  0  0  0  0
   27.9137  -23.1272  -16.8958 C   0  0  0  0  0  0  0  0  0  0  0  0
   27.1668  -23.8243  -17.9525 N   0  0  0  0  0  0  0  0  0  0  0  0
   26.2291  -19.1577  -15.0362 C   0  0  0  0  0  0  0  0  0  0  0  0
   26.5070  -18.6734  -13.9178 O   0  0  0  0  0  0  0  0  0  0  0  0
   17.5170  -21.1755  -13.7155 N   0  0  0  0  0  0  0  0  0  0  0  0
   18.2504  -21.6097  -12.5820 C   0  0  0  0  0  0  0  0  0  0  0  0
   17.6024  -22.0569  -11.5672 N   0  0  0  0  0  0  0  0  0  0  0  0
   19.6638  -21.5679  -12.5294 N   0  0  0  0  0  0  0  0  0  0  0  0
   20.4781  -21.0582  -13.6079 C   0  0  0  0  0  0  0  0  0  0  0  0
   21.9687  -21.0514  -13.2402 C   0  0  0  0  0  0  0  0  0  0  0  0
   22.8256  -20.5810  -14.3715 C   0  0  0  0  0  0  0  0  0  0  0  0
   24.3090  -20.5470  -14.1053 C   0  0  2  0  0  0  0  0  0  0  0  0
   25.1317  -20.0413  -15.1375 N   0  0  0  0  0  0  0  0  0  0  0  0
   24.7276  -21.7932  -13.4761 C   0  0  0  0  0  0  0  0  0  0  0  0
   24.6852  -21.9800  -12.0899 O   0  0  0  0  0  0  0  0  0  0  0  0
   25.1474  -22.7580  -14.1636 O   0  0  0  0  0  0  0  0  0  0  0  0
  2  1  1  6
  3  4  1  0
  3  2  1  0
  5  2  1  0
  5  6  2  0
  7  5  1  0
  8  7  1  0
  8  9  1  1
 10  9  1  0
 11 12  1  0
 11 10  1  0
 13 12  1  0
 14  8  1  0
 15 14  2  0
 17 19  1  0
 17 16  1  0
 18 17  2  0
 20 19  1  0
 21 20  1  0
 21 22  1  0
 23 22  1  6
 23 24  1  0
 24 14  1  0
 25 26  1  0
 25 23  1  0
 27 25  2  0
M  END
$$$$
