CSY.pdb
     RDKit          3D

 25 25  0  0  1  0  0  0  0  0999 V2000
   24.8991  -24.1927  -15.3375 N   0  0  0  0  0  0  0  0  0  0  0  0
   24.6927  -22.7960  -15.1024 C   0  0  1  0  0  0  0  0  0  0  0  0
   24.8961  -21.9355  -16.3199 C   0  0  0  0  0  0  0  0  0  0  0  0
   25.3541  -23.0658  -17.6889 S   0  0  0  0  0  0  0  0  0  0  0  0
   23.3851  -22.5950  -14.4543 C   0  0  0  0  0  0  0  0  0  0  0  0
   22.4704  -23.4663  -14.4463 O   0  0  0  0  0  0  0  0  0  0  0  0
   20.7784  -19.7091  -11.5976 O   0  0  0  0  0  0  0  0  0  0  0  0
   21.9527  -19.8789  -12.3068 C   0  0  0  0  0  0  0  0  0  0  0  0
   21.8129  -21.1506  -13.1539 C   0  0  2  0  0  0  0  0  0  0  0  0
   23.0791  -21.3692  -13.7838 N   0  0  0  0  0  0  0  0  0  0  0  0
   20.6880  -21.0567  -14.0791 C   0  0  0  0  0  0  0  0  0  0  0  0
   20.8115  -20.4802  -15.1822 O   0  0  0  0  0  0  0  0  0  0  0  0
   12.9668  -22.9850  -17.9479 O   0  0  0  0  0  0  0  0  0  0  0  0
   14.1298  -22.9549  -17.1789 C   0  0  0  0  0  0  0  0  0  0  0  0
   14.0762  -22.8885  -15.8024 C   0  0  0  0  0  0  0  0  0  0  0  0
   15.2360  -22.8595  -15.0566 C   0  0  0  0  0  0  0  0  0  0  0  0
   16.4916  -22.8945  -15.6347 C   0  0  0  0  0  0  0  0  0  0  0  0
   17.6865  -22.8585  -14.7882 C   0  0  0  0  0  0  0  0  0  0  0  0
   18.2402  -21.4810  -14.5400 C   0  0  2  0  0  0  0  0  0  0  0  0
   19.4366  -21.6217  -13.7341 N   0  0  0  0  0  0  0  0  0  0  0  0
   17.2823  -20.5295  -13.9742 C   0  0  0  0  0  0  0  0  0  0  0  0
   16.4404  -19.7330  -14.7357 O   0  0  0  0  0  0  0  0  0  0  0  0
   16.5390  -22.9611  -17.0199 C   0  0  0  0  0  0  0  0  0  0  0  0
   15.3769  -22.9902  -17.7661 C   0  0  0  0  0  0  0  0  0  0  0  0
   17.2036  -20.4132  -12.7253 O   0  0  0  0  0  0  0  0  0  0  0  0
  2  3  1  0
  2  1  1  6
  3  4  1  0
  5  2  1  0
  6  5  2  0
  7  8  1  0
  9  8  1  6
  9 11  1  0
  9 10  1  0
 10  5  1  0
 11 12  2  0
 14 13  1  0
 15 14  2  0
 16 15  1  0
 17 23  1  0
 17 16  2  0
 18 17  1  0
 19 18  1  1
 20 19  1  0
 20 11  1  0
 21 19  1  0
 22 21  1  0
 23 24  2  0
 24 14  1  0
 25 21  2  0
M  END
$$$$
