CSY.pdb
     RDKit          3D

 25 25  0  0  1  0  0  0  0  0999 V2000
   27.6915  -19.8521  -16.1817 N   0  0  0  0  0  0  0  0  0  0  0  0
   26.4777  -20.5747  -16.4124 C   0  0  1  0  0  0  0  0  0  0  0  0
   26.6581  -22.0672  -16.4742 C   0  0  0  0  0  0  0  0  0  0  0  0
   27.7259  -22.4055  -17.9257 S   0  0  0  0  0  0  0  0  0  0  0  0
   25.4588  -20.1472  -15.4380 C   0  0  0  0  0  0  0  0  0  0  0  0
   25.7138  -19.9046  -14.2247 O   0  0  0  0  0  0  0  0  0  0  0  0
   21.4133  -19.5173  -16.5691 O   0  0  0  0  0  0  0  0  0  0  0  0
   22.1228  -18.6456  -15.7643 C   0  0  0  0  0  0  0  0  0  0  0  0
   23.1070  -19.4719  -14.9261 C   0  0  2  0  0  0  0  0  0  0  0  0
   24.0931  -19.9816  -15.8292 N   0  0  0  0  0  0  0  0  0  0  0  0
   22.4181  -20.4953  -14.1461 C   0  0  0  0  0  0  0  0  0  0  0  0
   22.4310  -21.6930  -14.5064 O   0  0  0  0  0  0  0  0  0  0  0  0
   18.0916  -23.7199   -6.9995 O   0  0  0  0  0  0  0  0  0  0  0  0
   18.7791  -22.9337   -7.9237 C   0  0  0  0  0  0  0  0  0  0  0  0
   20.1532  -22.8220   -7.8867 C   0  0  0  0  0  0  0  0  0  0  0  0
   20.8178  -22.0402   -8.8083 C   0  0  0  0  0  0  0  0  0  0  0  0
   20.1578  -21.3389   -9.8005 C   0  0  0  0  0  0  0  0  0  0  0  0
   20.9202  -20.5235  -10.7489 C   0  0  0  0  0  0  0  0  0  0  0  0
   20.9952  -21.0856  -12.1432 C   0  0  2  0  0  0  0  0  0  0  0  0
   21.7234  -20.1394  -12.9650 N   0  0  0  0  0  0  0  0  0  0  0  0
   19.7043  -21.4643  -12.7204 C   0  0  0  0  0  0  0  0  0  0  0  0
   18.8296  -20.5681  -13.3158 O   0  0  0  0  0  0  0  0  0  0  0  0
   18.7754  -21.4552   -9.8326 C   0  0  0  0  0  0  0  0  0  0  0  0
   18.1106  -22.2384   -8.9092 C   0  0  0  0  0  0  0  0  0  0  0  0
   19.3500  -22.6695  -12.6835 O   0  0  0  0  0  0  0  0  0  0  0  0
  2  3  1  0
  2  1  1  1
  3  4  1  0
  5  2  1  0
  6  5  2  0
  7  8  1  0
  9  8  1  6
  9 11  1  0
  9 10  1  0
 10  5  1  0
 11 12  2  0
 14 13  1  0
 15 14  2  0
 16 15  1  0
 17 23  1  0
 17 16  2  0
 18 17  1  0
 19 18  1  1
 20 19  1  0
 20 11  1  0
 21 19  1  0
 22 21  1  0
 23 24  2  0
 24 14  1  0
 25 21  2  0
M  END
$$$$
