CSY.pdb
     RDKit          3D

 25 25  0  0  1  0  0  0  0  0999 V2000
   27.7190  -15.1321  -19.1137 N   0  0  0  0  0  0  0  0  0  0  0  0
   28.4754  -14.2741  -19.9740 C   0  0  1  0  0  0  0  0  0  0  0  0
   27.9206  -14.1647  -21.3684 C   0  0  0  0  0  0  0  0  0  0  0  0
   28.1463  -15.8070  -22.1515 S   0  0  0  0  0  0  0  0  0  0  0  0
   28.6722  -12.9700  -19.3174 C   0  0  0  0  0  0  0  0  0  0  0  0
   27.7924  -12.4090  -18.6052 O   0  0  0  0  0  0  0  0  0  0  0  0
   31.3702  -11.0087  -16.8673 O   0  0  0  0  0  0  0  0  0  0  0  0
   31.5083  -10.9843  -18.2424 C   0  0  0  0  0  0  0  0  0  0  0  0
   30.1029  -10.9723  -18.8579 C   0  0  2  0  0  0  0  0  0  0  0  0
   29.9033  -12.2558  -19.4584 N   0  0  0  0  0  0  0  0  0  0  0  0
   29.9275   -9.8465  -19.7700 C   0  0  0  0  0  0  0  0  0  0  0  0
   30.1910   -9.9605  -20.9874 O   0  0  0  0  0  0  0  0  0  0  0  0
   26.9163   -3.5998  -24.7538 O   0  0  0  0  0  0  0  0  0  0  0  0
   27.2581   -4.6402  -23.8904 C   0  0  0  0  0  0  0  0  0  0  0  0
   26.5709   -4.8482  -22.7129 C   0  0  0  0  0  0  0  0  0  0  0  0
   26.9218   -5.8819  -21.8699 C   0  0  0  0  0  0  0  0  0  0  0  0
   27.9605   -6.7499  -22.1519 C   0  0  0  0  0  0  0  0  0  0  0  0
   28.2862   -7.8277  -21.2149 C   0  0  0  0  0  0  0  0  0  0  0  0
   29.2404   -7.4399  -20.1173 C   0  0  2  0  0  0  0  0  0  0  0  0
   29.4537   -8.6049  -19.2819 N   0  0  0  0  0  0  0  0  0  0  0  0
   28.8443   -6.2564  -19.3521 C   0  0  0  0  0  0  0  0  0  0  0  0
   29.1098   -4.9541  -19.7476 O   0  0  0  0  0  0  0  0  0  0  0  0
   28.6482   -6.5355  -23.3379 C   0  0  0  0  0  0  0  0  0  0  0  0
   28.2961   -5.5000  -24.1815 C   0  0  0  0  0  0  0  0  0  0  0  0
   28.2255   -6.4096  -18.2689 O   0  0  0  0  0  0  0  0  0  0  0  0
  2  3  1  0
  2  1  1  1
  3  4  1  0
  5  2  1  0
  6  5  2  0
  7  8  1  0
  9  8  1  6
  9 11  1  0
  9 10  1  0
 10  5  1  0
 11 12  2  0
 14 13  1  0
 15 14  2  0
 16 15  1  0
 17 23  1  0
 17 16  2  0
 18 17  1  0
 19 18  1  6
 20 19  1  0
 20 11  1  0
 21 19  1  0
 22 21  1  0
 23 24  2  0
 24 14  1  0
 25 21  2  0
M  END
$$$$
