CSY.pdb
     RDKit          3D

 25 25  0  0  1  0  0  0  0  0999 V2000
   20.8141   -1.5653  -18.8970 N   0  0  0  0  0  0  0  0  0  0  0  0
   20.1528   -2.3580  -17.9055 C   0  0  1  0  0  0  0  0  0  0  0  0
   18.8728   -2.9890  -18.3824 C   0  0  0  0  0  0  0  0  0  0  0  0
   17.6198   -1.6518  -18.4392 S   0  0  0  0  0  0  0  0  0  0  0  0
   21.1059   -3.3253  -17.3343 C   0  0  0  0  0  0  0  0  0  0  0  0
   21.8199   -4.0965  -18.0352 O   0  0  0  0  0  0  0  0  0  0  0  0
   21.2416   -4.0596  -13.1861 O   0  0  0  0  0  0  0  0  0  0  0  0
   22.4212   -3.9792  -13.9023 C   0  0  0  0  0  0  0  0  0  0  0  0
   22.1321   -4.4297  -15.3402 C   0  0  2  0  0  0  0  0  0  0  0  0
   21.2738   -3.4415  -15.9186 N   0  0  0  0  0  0  0  0  0  0  0  0
   21.5989   -5.7878  -15.3788 C   0  0  0  0  0  0  0  0  0  0  0  0
   20.3668   -5.9911  -15.4509 O   0  0  0  0  0  0  0  0  0  0  0  0
   21.9956  -14.7059  -15.7150 O   0  0  0  0  0  0  0  0  0  0  0  0
   22.2968  -13.3448  -15.6739 C   0  0  0  0  0  0  0  0  0  0  0  0
   21.8778  -12.4886  -16.6705 C   0  0  0  0  0  0  0  0  0  0  0  0
   22.1843  -11.1450  -16.6147 C   0  0  0  0  0  0  0  0  0  0  0  0
   22.9135  -10.5922  -15.5781 C   0  0  0  0  0  0  0  0  0  0  0  0
   23.2087   -9.1574  -15.5769 C   0  0  0  0  0  0  0  0  0  0  0  0
   22.0332   -8.2739  -15.2553 C   0  0  2  0  0  0  0  0  0  0  0  0
   22.4779   -6.8967  -15.3346 N   0  0  0  0  0  0  0  0  0  0  0  0
   21.3633   -8.5831  -13.9910 C   0  0  0  0  0  0  0  0  0  0  0  0
   20.2516   -9.4051  -13.8846 O   0  0  0  0  0  0  0  0  0  0  0  0
   23.3323  -11.4587  -14.5784 C   0  0  0  0  0  0  0  0  0  0  0  0
   23.0249  -12.8042  -14.6352 C   0  0  0  0  0  0  0  0  0  0  0  0
   21.8077   -8.0829  -12.9271 O   0  0  0  0  0  0  0  0  0  0  0  0
  2  3  1  0
  2  1  1  6
  3  4  1  0
  5  2  1  0
  6  5  2  0
  7  8  1  0
  9  8  1  1
  9 11  1  0
  9 10  1  0
 10  5  1  0
 11 12  2  0
 14 13  1  0
 15 14  2  0
 16 15  1  0
 17 23  1  0
 17 16  2  0
 18 17  1  0
 19 18  1  1
 20 19  1  0
 20 11  1  0
 21 19  1  0
 22 21  1  0
 23 24  2  0
 24 14  1  0
 25 21  2  0
M  END
$$$$
