CSY.pdb
     RDKit          3D

 25 25  0  0  1  0  0  0  0  0999 V2000
   28.5150  -21.0442  -17.0093 N   0  0  0  0  0  0  0  0  0  0  0  0
   28.3957  -22.1427  -17.9190 C   0  0  1  0  0  0  0  0  0  0  0  0
   29.6633  -22.4569  -18.6663 C   0  0  0  0  0  0  0  0  0  0  0  0
   30.7817  -21.0242  -18.4250 S   0  0  0  0  0  0  0  0  0  0  0  0
   27.8274  -23.3047  -17.2140 C   0  0  0  0  0  0  0  0  0  0  0  0
   28.3616  -23.8328  -16.1983 O   0  0  0  0  0  0  0  0  0  0  0  0
   24.0060  -24.2024  -16.3404 O   0  0  0  0  0  0  0  0  0  0  0  0
   24.5642  -25.0643  -17.2658 C   0  0  0  0  0  0  0  0  0  0  0  0
   26.0812  -25.0848  -17.0369 C   0  0  2  0  0  0  0  0  0  0  0  0
   26.6091  -23.9085  -17.6578 N   0  0  0  0  0  0  0  0  0  0  0  0
   26.6766  -26.3322  -17.5054 C   0  0  0  0  0  0  0  0  0  0  0  0
   27.0420  -26.4613  -18.6947 O   0  0  0  0  0  0  0  0  0  0  0  0
   30.5813  -34.3017  -16.5162 O   0  0  0  0  0  0  0  0  0  0  0  0
   29.9576  -33.0702  -16.3182 C   0  0  0  0  0  0  0  0  0  0  0  0
   30.4918  -31.9067  -16.8313 C   0  0  0  0  0  0  0  0  0  0  0  0
   29.8623  -30.6968  -16.6263 C   0  0  0  0  0  0  0  0  0  0  0  0
   28.6850  -30.5842  -15.9100 C   0  0  0  0  0  0  0  0  0  0  0  0
   28.0657  -29.2697  -15.7250 C   0  0  0  0  0  0  0  0  0  0  0  0
   27.4827  -28.6675  -16.9753 C   0  0  2  0  0  0  0  0  0  0  0  0
   26.8475  -27.4166  -16.6114 N   0  0  0  0  0  0  0  0  0  0  0  0
   26.5965  -29.5576  -17.7272 C   0  0  0  0  0  0  0  0  0  0  0  0
   27.0255  -30.4039  -18.7384 O   0  0  0  0  0  0  0  0  0  0  0  0
   28.1525  -31.7582  -15.3964 C   0  0  0  0  0  0  0  0  0  0  0  0
   28.7836  -32.9695  -15.6021 C   0  0  0  0  0  0  0  0  0  0  0  0
   25.3697  -29.5695  -17.4544 O   0  0  0  0  0  0  0  0  0  0  0  0
  2  3  1  0
  2  1  1  1
  3  4  1  0
  5  2  1  0
  6  5  2  0
  7  8  1  0
  9  8  1  6
  9 11  1  0
  9 10  1  0
 10  5  1  0
 11 12  2  0
 14 13  1  0
 15 14  2  0
 16 15  1  0
 17 23  1  0
 17 16  2  0
 18 17  1  0
 19 18  1  1
 20 19  1  0
 20 11  1  0
 21 19  1  0
 22 21  1  0
 23 24  2  0
 24 14  1  0
 25 21  2  0
M  END
$$$$
