CSY.pdb
     RDKit          3D

 25 25  0  0  1  0  0  0  0  0999 V2000
   23.4500  -10.4068  -16.3333 N   0  0  0  0  0  0  0  0  0  0  0  0
   23.1430   -9.1837  -17.0104 C   0  0  1  0  0  0  0  0  0  0  0  0
   22.8511   -9.3542  -18.4766 C   0  0  0  0  0  0  0  0  0  0  0  0
   24.4279   -9.8502  -19.2697 S   0  0  0  0  0  0  0  0  0  0  0  0
   22.0802   -8.4714  -16.2800 C   0  0  0  0  0  0  0  0  0  0  0  0
   20.9399   -8.9653  -16.0529 O   0  0  0  0  0  0  0  0  0  0  0  0
   22.9440   -5.1045  -14.0860 O   0  0  0  0  0  0  0  0  0  0  0  0
   21.8833   -5.9336  -13.7723 C   0  0  0  0  0  0  0  0  0  0  0  0
   21.2677   -6.4305  -15.0869 C   0  0  2  0  0  0  0  0  0  0  0  0
   22.2939   -7.1490  -15.7786 N   0  0  0  0  0  0  0  0  0  0  0  0
   20.6800   -5.3345  -15.8508 C   0  0  0  0  0  0  0  0  0  0  0  0
   21.3721   -4.6673  -16.6511 O   0  0  0  0  0  0  0  0  0  0  0  0
   14.5977   -8.9259  -16.2866 O   0  0  0  0  0  0  0  0  0  0  0  0
   15.3976   -7.8238  -16.5872 C   0  0  0  0  0  0  0  0  0  0  0  0
   16.6277   -7.9759  -17.1920 C   0  0  0  0  0  0  0  0  0  0  0  0
   17.4065   -6.8753  -17.4826 C   0  0  0  0  0  0  0  0  0  0  0  0
   17.0064   -5.5845  -17.1902 C   0  0  0  0  0  0  0  0  0  0  0  0
   17.8800   -4.4564  -17.5218 C   0  0  0  0  0  0  0  0  0  0  0  0
   18.6611   -3.9031  -16.3602 C   0  0  2  0  0  0  0  0  0  0  0  0
   19.3103   -5.0135  -15.6922 N   0  0  0  0  0  0  0  0  0  0  0  0
   17.8850   -3.0643  -15.4452 C   0  0  0  0  0  0  0  0  0  0  0  0
   17.3080   -1.8555  -15.8040 O   0  0  0  0  0  0  0  0  0  0  0  0
   15.7679   -5.4379  -16.5818 C   0  0  0  0  0  0  0  0  0  0  0  0
   14.9886   -6.5407  -16.2911 C   0  0  0  0  0  0  0  0  0  0  0  0
   17.7208   -3.4460  -14.2591 O   0  0  0  0  0  0  0  0  0  0  0  0
  2  3  1  0
  2  1  1  1
  3  4  1  0
  5  2  1  0
  6  5  2  0
  7  8  1  0
  9  8  1  1
  9 11  1  0
  9 10  1  0
 10  5  1  0
 11 12  2  0
 14 13  1  0
 15 14  2  0
 16 15  1  0
 17 23  1  0
 17 16  2  0
 18 17  1  0
 19 18  1  6
 20 19  1  0
 20 11  1  0
 21 19  1  0
 22 21  1  0
 23 24  2  0
 24 14  1  0
 25 21  2  0
M  END
$$$$
