TVC.pdb
     RDKit          3D

 21 20  0  0  1  0  0  0  0  0999 V2000
    7.4237  -18.7741   18.2745 C   0  0  0  0  0  0  0  0  0  0  0  0
    8.3648  -18.6520   17.1193 C   0  0  1  0  0  0  0  0  0  0  0  0
    7.8432  -19.3928   16.0615 O   0  0  0  0  0  0  0  0  0  0  0  0
    8.5213  -17.1966   16.7385 C   0  0  2  0  0  0  0  0  0  0  0  0
    9.3834  -17.0653   15.5861 N   0  0  0  0  0  0  0  0  0  0  0  0
    9.0434  -16.3803   17.8565 C   0  0  0  0  0  0  0  0  0  0  0  0
   10.2497  -16.4178   18.1901 O   0  0  0  0  0  0  0  0  0  0  0  0
    7.5321  -12.6406   19.0416 C   0  0  0  0  0  0  0  0  0  0  0  0
    7.6551  -13.6848   20.1147 C   0  0  2  0  0  0  0  0  0  0  0  0
    8.0420  -12.9781   21.3964 C   0  0  0  0  0  0  0  0  0  0  0  0
    8.6326  -14.7764   19.7664 C   0  0  2  0  0  0  0  0  0  0  0  0
    8.1851  -15.5104   18.6054 N   0  0  0  0  0  0  0  0  0  0  0  0
    8.8748  -15.7116   20.8806 C   0  0  0  0  0  0  0  0  0  0  0  0
    7.9635  -16.5043   21.2048 O   0  0  0  0  0  0  0  0  0  0  0  0
   10.1068  -15.7195   21.5733 N   0  0  0  0  0  0  0  0  0  0  0  0
   10.3423  -16.6900   22.5967 C   0  0  1  0  0  0  0  0  0  0  0  0
   11.7251  -17.2983   22.5202 C   0  0  0  0  0  0  0  0  0  0  0  0
   11.7824  -18.2724   20.9679 S   0  0  0  0  0  0  0  0  0  0  0  0
   10.2568  -15.9927   23.9054 C   0  0  0  0  0  0  0  0  0  0  0  0
   10.3748  -16.6516   25.1074 O   0  0  0  0  0  0  0  0  0  0  0  0
   10.0690  -14.7522   23.8964 O   0  0  0  0  0  0  0  0  0  0  0  0
  2  4  1  0
  2  1  1  1
  3  2  1  0
  4  5  1  6
  6  4  1  0
  7  6  2  0
  9  8  1  6
  9 11  1  0
 10  9  1  0
 11 13  1  0
 11 12  1  6
 12  6  1  0
 13 15  1  0
 14 13  2  0
 15 16  1  0
 16 17  1  6
 16 19  1  0
 17 18  1  0
 19 21  2  0
 19 20  1  0
M  END
$$$$
