TVC.pdb
     RDKit          3D

 21 20  0  0  1  0  0  0  0  0999 V2000
    9.2096  -19.3402   22.3196 C   0  0  0  0  0  0  0  0  0  0  0  0
   10.2658  -19.2275   21.2677 C   0  0  1  0  0  0  0  0  0  0  0  0
   10.3648  -20.4596   20.6260 O   0  0  0  0  0  0  0  0  0  0  0  0
    9.8991  -18.1335   20.2897 C   0  0  2  0  0  0  0  0  0  0  0  0
   10.8239  -18.1168   19.1794 N   0  0  0  0  0  0  0  0  0  0  0  0
    9.8563  -16.8017   20.9326 C   0  0  0  0  0  0  0  0  0  0  0  0
   10.8846  -16.0976   21.0547 O   0  0  0  0  0  0  0  0  0  0  0  0
    7.4823  -13.8015   20.2127 C   0  0  0  0  0  0  0  0  0  0  0  0
    7.3797  -14.1933   21.6594 C   0  0  2  0  0  0  0  0  0  0  0  0
    7.2071  -12.9230   22.4647 C   0  0  0  0  0  0  0  0  0  0  0  0
    8.5599  -14.9974   22.1379 C   0  0  2  0  0  0  0  0  0  0  0  0
    8.6307  -16.2621   21.4435 N   0  0  0  0  0  0  0  0  0  0  0  0
    8.5466  -15.2318   23.5938 C   0  0  0  0  0  0  0  0  0  0  0  0
    7.6361  -15.9396   24.0772 O   0  0  0  0  0  0  0  0  0  0  0  0
    9.5371  -14.6729   24.4330 N   0  0  0  0  0  0  0  0  0  0  0  0
    9.5346  -14.9680   25.8322 C   0  0  1  0  0  0  0  0  0  0  0  0
    8.1962  -14.7017   26.4847 C   0  0  0  0  0  0  0  0  0  0  0  0
    8.0396  -12.8808   26.6319 S   0  0  0  0  0  0  0  0  0  0  0  0
    9.8001  -16.4214   25.9852 C   0  0  0  0  0  0  0  0  0  0  0  0
    9.9491  -17.0242   27.2129 O   0  0  0  0  0  0  0  0  0  0  0  0
    9.8891  -17.1131   24.9422 O   0  0  0  0  0  0  0  0  0  0  0  0
  2  4  1  0
  2  1  1  1
  3  2  1  0
  4  5  1  6
  6  4  1  0
  7  6  2  0
  9  8  1  6
  9 11  1  0
 10  9  1  0
 11 13  1  0
 11 12  1  6
 12  6  1  0
 13 15  1  0
 14 13  2  0
 15 16  1  0
 16 17  1  6
 16 19  1  0
 17 18  1  0
 19 21  2  0
 19 20  1  0
M  END
$$$$
