TVC.pdb
     RDKit          3D

 21 20  0  0  1  0  0  0  0  0999 V2000
    6.0815  -18.4273   22.2298 C   0  0  0  0  0  0  0  0  0  0  0  0
    7.1335  -19.1543   21.4553 C   0  0  1  0  0  0  0  0  0  0  0  0
    6.5745  -20.3381   20.9801 O   0  0  0  0  0  0  0  0  0  0  0  0
    7.6204  -18.2874   20.3155 C   0  0  2  0  0  0  0  0  0  0  0  0
    8.5433  -19.0215   19.4804 N   0  0  0  0  0  0  0  0  0  0  0  0
    8.2547  -17.0397   20.7951 C   0  0  0  0  0  0  0  0  0  0  0  0
    9.4142  -17.0316   21.2678 O   0  0  0  0  0  0  0  0  0  0  0  0
    7.8385  -13.3480   19.1890 C   0  0  0  0  0  0  0  0  0  0  0  0
    7.5388  -13.3593   20.6611 C   0  0  2  0  0  0  0  0  0  0  0  0
    8.1104  -12.0883   21.2525 C   0  0  0  0  0  0  0  0  0  0  0  0
    8.0673  -14.5835   21.3614 C   0  0  2  0  0  0  0  0  0  0  0  0
    7.5640  -15.7852   20.7374 N   0  0  0  0  0  0  0  0  0  0  0  0
    7.7536  -14.6049   22.8022 C   0  0  0  0  0  0  0  0  0  0  0  0
    6.5841  -14.8715   23.1557 O   0  0  0  0  0  0  0  0  0  0  0  0
    8.7465  -14.3314   23.7703 N   0  0  0  0  0  0  0  0  0  0  0  0
    8.4145  -14.3668   25.1607 C   0  0  1  0  0  0  0  0  0  0  0  0
    6.9317  -14.5397   25.4047 C   0  0  0  0  0  0  0  0  0  0  0  0
    6.3041  -12.9163   25.9813 S   0  0  0  0  0  0  0  0  0  0  0  0
    9.0835  -15.5537   25.7522 C   0  0  0  0  0  0  0  0  0  0  0  0
    9.8201  -16.4417   25.0027 O   0  0  0  0  0  0  0  0  0  0  0  0
    8.9619  -15.7392   26.9871 O   0  0  0  0  0  0  0  0  0  0  0  0
  2  4  1  0
  2  1  1  6
  3  2  1  0
  4  5  1  1
  6  4  1  0
  7  6  2  0
  9  8  1  6
  9 11  1  0
 10  9  1  0
 11 13  1  0
 11 12  1  6
 12  6  1  0
 13 15  1  0
 14 13  2  0
 15 16  1  0
 16 17  1  6
 16 19  1  0
 17 18  1  0
 19 21  2  0
 19 20  1  0
M  END
$$$$
