TVC.pdb
     RDKit          3D

 21 20  0  0  1  0  0  0  0  0999 V2000
    7.1341  -19.2224   18.7632 C   0  0  0  0  0  0  0  0  0  0  0  0
    7.9283  -18.9518   17.5258 C   0  0  1  0  0  0  0  0  0  0  0  0
    7.3534  -19.6721   16.4816 O   0  0  0  0  0  0  0  0  0  0  0  0
    7.9244  -17.4685   17.2296 C   0  0  2  0  0  0  0  0  0  0  0  0
    8.5645  -17.2045   15.9612 N   0  0  0  0  0  0  0  0  0  0  0  0
    8.5791  -16.6842   18.2997 C   0  0  0  0  0  0  0  0  0  0  0  0
    9.8227  -16.6821   18.4458 O   0  0  0  0  0  0  0  0  0  0  0  0
    7.1063  -13.0445   19.6936 C   0  0  0  0  0  0  0  0  0  0  0  0
    7.4608  -14.0479   20.7540 C   0  0  2  0  0  0  0  0  0  0  0  0
    8.0279  -13.2849   21.9323 C   0  0  0  0  0  0  0  0  0  0  0  0
    8.4146  -15.1075   20.2684 C   0  0  2  0  0  0  0  0  0  0  0  0
    7.8123  -15.8921   19.2156 N   0  0  0  0  0  0  0  0  0  0  0  0
    8.8830  -15.9998   21.3450 C   0  0  0  0  0  0  0  0  0  0  0  0
    8.0625  -16.7825   21.8724 O   0  0  0  0  0  0  0  0  0  0  0  0
   10.2281  -15.9784   21.7785 N   0  0  0  0  0  0  0  0  0  0  0  0
   10.6672  -16.8955   22.7839 C   0  0  1  0  0  0  0  0  0  0  0  0
   11.9941  -17.5402   22.4497 C   0  0  0  0  0  0  0  0  0  0  0  0
   11.7410  -18.4827   20.8975 S   0  0  0  0  0  0  0  0  0  0  0  0
   10.8732  -16.1242   24.0365 C   0  0  0  0  0  0  0  0  0  0  0  0
   11.2192  -16.7199   25.2274 O   0  0  0  0  0  0  0  0  0  0  0  0
   10.7215  -14.8796   23.9891 O   0  0  0  0  0  0  0  0  0  0  0  0
  2  4  1  0
  2  1  1  1
  3  2  1  0
  4  5  1  6
  6  4  1  0
  7  6  2  0
  9  8  1  6
  9 11  1  0
 10  9  1  0
 11 13  1  0
 11 12  1  6
 12  6  1  0
 13 15  1  0
 14 13  2  0
 15 16  1  0
 16 17  1  6
 16 19  1  0
 17 18  1  0
 19 21  2  0
 19 20  1  0
M  END
$$$$
