TVC.pdb
     RDKit          3D

 21 20  0  0  1  0  0  0  0  0999 V2000
    6.4932  -16.7012   20.6361 C   0  0  0  0  0  0  0  0  0  0  0  0
    7.0921  -16.2694   21.9361 C   0  0  1  0  0  0  0  0  0  0  0  0
    8.2038  -17.0711   22.1831 O   0  0  0  0  0  0  0  0  0  0  0  0
    7.4810  -14.8096   21.8604 C   0  0  2  0  0  0  0  0  0  0  0  0
    8.4024  -14.5876   20.7695 N   0  0  0  0  0  0  0  0  0  0  0  0
    8.0700  -14.3227   23.1272 C   0  0  0  0  0  0  0  0  0  0  0  0
    9.3080  -14.2047   23.2737 O   0  0  0  0  0  0  0  0  0  0  0  0
    6.3398  -11.5144   25.5924 C   0  0  0  0  0  0  0  0  0  0  0  0
    6.7694  -12.7683   26.2998 C   0  0  2  0  0  0  0  0  0  0  0  0
    7.3016  -12.3657   27.6587 C   0  0  0  0  0  0  0  0  0  0  0  0
    7.7819  -13.5672   25.5220 C   0  0  2  0  0  0  0  0  0  0  0  0
    7.2433  -13.9652   24.2421 N   0  0  0  0  0  0  0  0  0  0  0  0
    8.2607  -14.7571   26.2496 C   0  0  0  0  0  0  0  0  0  0  0  0
    7.4884  -15.7328   26.3742 O   0  0  0  0  0  0  0  0  0  0  0  0
    9.5626  -14.8036   26.7979 N   0  0  0  0  0  0  0  0  0  0  0  0
   10.0243  -15.9968   27.4365 C   0  0  1  0  0  0  0  0  0  0  0  0
   11.2981  -16.5345   26.8227 C   0  0  0  0  0  0  0  0  0  0  0  0
   12.4337  -15.1066   26.6405 S   0  0  0  0  0  0  0  0  0  0  0  0
   10.3429  -15.6572   28.8469 C   0  0  0  0  0  0  0  0  0  0  0  0
   10.2641  -14.3745   29.3381 O   0  0  0  0  0  0  0  0  0  0  0  0
   10.6965  -16.5899   29.6080 O   0  0  0  0  0  0  0  0  0  0  0  0
  2  4  1  0
  2  1  1  6
  3  2  1  0
  4  5  1  6
  6  4  1  0
  7  6  2  0
  9  8  1  6
  9 11  1  0
 10  9  1  0
 11 13  1  0
 11 12  1  6
 12  6  1  0
 13 15  1  0
 14 13  2  0
 15 16  1  0
 16 17  1  6
 16 19  1  0
 17 18  1  0
 19 21  2  0
 19 20  1  0
M  END
$$$$
