TVC.pdb
     RDKit          3D

 21 20  0  0  1  0  0  0  0  0999 V2000
    8.4553  -19.6658   20.0655 C   0  0  0  0  0  0  0  0  0  0  0  0
    9.3872  -19.2346   18.9789 C   0  0  1  0  0  0  0  0  0  0  0  0
    9.1393  -20.0284   17.8617 O   0  0  0  0  0  0  0  0  0  0  0  0
    9.1659  -17.7715   18.6658 C   0  0  2  0  0  0  0  0  0  0  0  0
    9.9293  -17.3822   17.5022 N   0  0  0  0  0  0  0  0  0  0  0  0
    9.5073  -16.8982   19.8103 C   0  0  0  0  0  0  0  0  0  0  0  0
   10.6783  -16.5007   20.0071 O   0  0  0  0  0  0  0  0  0  0  0  0
    7.6328  -13.6040   20.9584 C   0  0  0  0  0  0  0  0  0  0  0  0
    7.7132  -14.6041   22.0765 C   0  0  2  0  0  0  0  0  0  0  0  0
    7.9018  -13.8328   23.3655 C   0  0  0  0  0  0  0  0  0  0  0  0
    8.8017  -15.6258   21.8772 C   0  0  2  0  0  0  0  0  0  0  0  0
    8.5067  -16.4707   20.7432 N   0  0  0  0  0  0  0  0  0  0  0  0
    9.0349  -16.4611   23.0699 C   0  0  0  0  0  0  0  0  0  0  0  0
    8.0769  -17.1130   23.5400 O   0  0  0  0  0  0  0  0  0  0  0  0
   10.3101  -16.5300   23.6758 N   0  0  0  0  0  0  0  0  0  0  0  0
   10.5324  -17.4263   24.7676 C   0  0  1  0  0  0  0  0  0  0  0  0
   11.9878  -17.8070   24.9260 C   0  0  0  0  0  0  0  0  0  0  0  0
   12.5775  -18.3194   23.2673 S   0  0  0  0  0  0  0  0  0  0  0  0
   10.1395  -16.7215   26.0146 C   0  0  0  0  0  0  0  0  0  0  0  0
   10.1285  -17.3381   27.2444 O   0  0  0  0  0  0  0  0  0  0  0  0
    9.8068  -15.5151   25.9251 O   0  0  0  0  0  0  0  0  0  0  0  0
  2  4  1  0
  2  1  1  1
  3  2  1  0
  4  5  1  6
  6  4  1  0
  7  6  2  0
  9  8  1  6
  9 11  1  0
 10  9  1  0
 11 13  1  0
 11 12  1  6
 12  6  1  0
 13 15  1  0
 14 13  2  0
 15 16  1  0
 16 17  1  1
 16 19  1  0
 17 18  1  0
 19 21  2  0
 19 20  1  0
M  END
$$$$
