TVC.pdb
     RDKit          3D

 21 20  0  0  1  0  0  0  0  0999 V2000
    6.7875  -18.9659   20.2606 C   0  0  0  0  0  0  0  0  0  0  0  0
    7.3245  -18.9932   18.8657 C   0  0  1  0  0  0  0  0  0  0  0  0
    6.5079  -19.8294   18.1084 O   0  0  0  0  0  0  0  0  0  0  0  0
    7.3433  -17.5917   18.2972 C   0  0  2  0  0  0  0  0  0  0  0  0
    7.6650  -17.6216   16.8887 N   0  0  0  0  0  0  0  0  0  0  0  0
    8.2920  -16.7114   19.0143 C   0  0  0  0  0  0  0  0  0  0  0  0
    9.5308  -16.8275   18.8736 O   0  0  0  0  0  0  0  0  0  0  0  0
    6.8318  -13.5523   21.6868 C   0  0  0  0  0  0  0  0  0  0  0  0
    8.1326  -13.5115   20.9363 C   0  0  2  0  0  0  0  0  0  0  0  0
    7.8854  -12.7787   19.6348 C   0  0  0  0  0  0  0  0  0  0  0  0
    8.7208  -14.8779   20.7004 C   0  0  2  0  0  0  0  0  0  0  0  0
    7.8285  -15.6864   19.9023 N   0  0  0  0  0  0  0  0  0  0  0  0
    9.0491  -15.5886   21.9500 C   0  0  0  0  0  0  0  0  0  0  0  0
    8.1151  -15.9194   22.7129 O   0  0  0  0  0  0  0  0  0  0  0  0
   10.3874  -15.8939   22.2871 N   0  0  0  0  0  0  0  0  0  0  0  0
   10.6726  -16.6145   23.4888 C   0  0  1  0  0  0  0  0  0  0  0  0
   10.9547  -18.0797   23.2404 C   0  0  0  0  0  0  0  0  0  0  0  0
    9.3276  -18.9230   23.1836 S   0  0  0  0  0  0  0  0  0  0  0  0
   11.9089  -16.0375   24.0760 C   0  0  0  0  0  0  0  0  0  0  0  0
   12.3999  -16.4243   25.3016 O   0  0  0  0  0  0  0  0  0  0  0  0
   12.5181  -15.1628   23.4142 O   0  0  0  0  0  0  0  0  0  0  0  0
  2  4  1  0
  2  1  1  1
  3  2  1  0
  4  5  1  6
  6  4  1  0
  7  6  2  0
  9  8  1  6
  9 11  1  0
 10  9  1  0
 11 13  1  0
 11 12  1  1
 12  6  1  0
 13 15  1  0
 14 13  2  0
 15 16  1  0
 16 17  1  6
 16 19  1  0
 17 18  1  0
 19 21  2  0
 19 20  1  0
M  END
$$$$
