TVC.pdb
     RDKit          3D

 21 20  0  0  1  0  0  0  0  0999 V2000
    7.6841  -19.0171   19.2992 C   0  0  0  0  0  0  0  0  0  0  0  0
    8.4324  -18.7798   18.0269 C   0  0  1  0  0  0  0  0  0  0  0  0
    7.8583  -19.5743   17.0375 O   0  0  0  0  0  0  0  0  0  0  0  0
    8.3610  -17.3149   17.6570 C   0  0  2  0  0  0  0  0  0  0  0  0
    8.9321  -17.0955   16.3478 N   0  0  0  0  0  0  0  0  0  0  0  0
    9.0352  -16.4542   18.6538 C   0  0  0  0  0  0  0  0  0  0  0  0
   10.2813  -16.3349   18.6832 O   0  0  0  0  0  0  0  0  0  0  0  0
    6.6818  -14.2134   21.5738 C   0  0  0  0  0  0  0  0  0  0  0  0
    8.0315  -13.7844   21.0725 C   0  0  2  0  0  0  0  0  0  0  0  0
    7.8072  -12.8328   19.9166 C   0  0  0  0  0  0  0  0  0  0  0  0
    8.9089  -14.9424   20.6754 C   0  0  2  0  0  0  0  0  0  0  0  0
    8.2853  -15.7196   19.6296 N   0  0  0  0  0  0  0  0  0  0  0  0
    9.2521  -15.8216   21.8084 C   0  0  0  0  0  0  0  0  0  0  0  0
    8.4697  -16.7521   22.1017 O   0  0  0  0  0  0  0  0  0  0  0  0
   10.4373  -15.6252   22.5530 N   0  0  0  0  0  0  0  0  0  0  0  0
   10.8101  -16.5688   23.5607 C   0  0  1  0  0  0  0  0  0  0  0  0
   12.2892  -16.8856   23.5482 C   0  0  0  0  0  0  0  0  0  0  0  0
   12.6723  -17.5264   21.8736 S   0  0  0  0  0  0  0  0  0  0  0  0
   10.5184  -15.9546   24.8812 C   0  0  0  0  0  0  0  0  0  0  0  0
   10.7096  -16.6215   26.0693 O   0  0  0  0  0  0  0  0  0  0  0  0
   10.0803  -14.7789   24.8960 O   0  0  0  0  0  0  0  0  0  0  0  0
  2  4  1  0
  2  1  1  1
  3  2  1  0
  4  5  1  6
  6  4  1  0
  7  6  2  0
  9  8  1  6
  9 11  1  0
 10  9  1  0
 11 13  1  0
 11 12  1  6
 12  6  1  0
 13 15  1  0
 14 13  2  0
 15 16  1  0
 16 17  1  1
 16 19  1  0
 17 18  1  0
 19 21  2  0
 19 20  1  0
M  END
$$$$
