TVC.pdb
     RDKit          3D

 21 20  0  0  1  0  0  0  0  0999 V2000
    6.7071  -17.0848   22.8130 C   0  0  0  0  0  0  0  0  0  0  0  0
    7.5509  -16.4972   21.7278 C   0  0  1  0  0  0  0  0  0  0  0  0
    7.0578  -16.9524   20.5074 O   0  0  0  0  0  0  0  0  0  0  0  0
    7.5037  -14.9873   21.8038 C   0  0  2  0  0  0  0  0  0  0  0  0
    8.1575  -14.4025   20.6554 N   0  0  0  0  0  0  0  0  0  0  0  0
    8.1130  -14.4720   23.0496 C   0  0  0  0  0  0  0  0  0  0  0  0
    9.3471  -14.2847   23.1490 O   0  0  0  0  0  0  0  0  0  0  0  0
    6.6031  -11.6505   25.6462 C   0  0  0  0  0  0  0  0  0  0  0  0
    6.9042  -12.9806   26.2764 C   0  0  2  0  0  0  0  0  0  0  0  0
    7.4157  -12.7165   27.6765 C   0  0  0  0  0  0  0  0  0  0  0  0
    7.8779  -13.8055   25.4764 C   0  0  2  0  0  0  0  0  0  0  0  0
    7.3111  -14.1655   24.1974 N   0  0  0  0  0  0  0  0  0  0  0  0
    8.3199  -15.0224   26.1825 C   0  0  0  0  0  0  0  0  0  0  0  0
    7.4911  -15.9401   26.3687 O   0  0  0  0  0  0  0  0  0  0  0  0
    9.6495  -15.1581   26.6425 N   0  0  0  0  0  0  0  0  0  0  0  0
   10.0636  -16.3711   27.2764 C   0  0  1  0  0  0  0  0  0  0  0  0
   11.2978  -16.9723   26.6413 C   0  0  0  0  0  0  0  0  0  0  0  0
   12.5244  -15.6172   26.4970 S   0  0  0  0  0  0  0  0  0  0  0  0
   10.4244  -16.0442   28.6797 C   0  0  0  0  0  0  0  0  0  0  0  0
   10.7813  -17.0045   29.5980 O   0  0  0  0  0  0  0  0  0  0  0  0
   10.3975  -14.8383   29.0252 O   0  0  0  0  0  0  0  0  0  0  0  0
  2  4  1  0
  2  1  1  1
  3  2  1  0
  4  5  1  6
  6  4  1  0
  7  6  2  0
  9  8  1  6
  9 11  1  0
 10  9  1  0
 11 13  1  0
 11 12  1  6
 12  6  1  0
 13 15  1  0
 14 13  2  0
 15 16  1  0
 16 17  1  6
 16 19  1  0
 17 18  1  0
 19 21  2  0
 19 20  1  0
M  END
$$$$
