TVC.pdb
     RDKit          3D

 21 20  0  0  1  0  0  0  0  0999 V2000
    7.0762  -17.3825   20.7081 C   0  0  0  0  0  0  0  0  0  0  0  0
    7.6085  -16.8857   22.0138 C   0  0  1  0  0  0  0  0  0  0  0  0
    8.7052  -17.6726   22.3568 O   0  0  0  0  0  0  0  0  0  0  0  0
    8.0023  -15.4309   21.8853 C   0  0  2  0  0  0  0  0  0  0  0  0
    9.0028  -15.2669   20.8556 N   0  0  0  0  0  0  0  0  0  0  0  0
    8.4951  -14.8714   23.1632 C   0  0  0  0  0  0  0  0  0  0  0  0
    9.7176  -14.8176   23.4290 O   0  0  0  0  0  0  0  0  0  0  0  0
    6.5181  -11.8194   25.1557 C   0  0  0  0  0  0  0  0  0  0  0  0
    6.9446  -12.9664   26.0272 C   0  0  2  0  0  0  0  0  0  0  0  0
    7.3759  -12.3910   27.3594 C   0  0  0  0  0  0  0  0  0  0  0  0
    8.0309  -13.8059   25.4078 C   0  0  2  0  0  0  0  0  0  0  0  0
    7.5887  -14.3666   24.1520 N   0  0  0  0  0  0  0  0  0  0  0  0
    8.5019  -14.8862   26.2941 C   0  0  0  0  0  0  0  0  0  0  0  0
    7.7347  -15.8459   26.5270 O   0  0  0  0  0  0  0  0  0  0  0  0
    9.7908  -14.8469   26.8729 N   0  0  0  0  0  0  0  0  0  0  0  0
   10.2452  -15.9403   27.6747 C   0  0  1  0  0  0  0  0  0  0  0  0
   11.6188  -16.4302   27.2731 C   0  0  0  0  0  0  0  0  0  0  0  0
   11.5815  -16.6573   25.4541 S   0  0  0  0  0  0  0  0  0  0  0  0
   10.3597  -15.4543   29.0736 C   0  0  0  0  0  0  0  0  0  0  0  0
   10.2104  -14.1298   29.4145 O   0  0  0  0  0  0  0  0  0  0  0  0
   10.6028  -16.2993   29.9686 O   0  0  0  0  0  0  0  0  0  0  0  0
  2  4  1  0
  2  1  1  6
  3  2  1  0
  4  5  1  6
  6  4  1  0
  7  6  2  0
  9  8  1  6
  9 11  1  0
 10  9  1  0
 11 13  1  0
 11 12  1  6
 12  6  1  0
 13 15  1  0
 14 13  2  0
 15 16  1  0
 16 17  1  6
 16 19  1  0
 17 18  1  0
 19 21  2  0
 19 20  1  0
M  END
$$$$
