LCT.pdb
     RDKit          3D

 22 21  0  0  1  0  0  0  0  0999 V2000
    9.3221  -12.5249   18.7291 C   0  0  0  0  0  0  0  0  0  0  0  0
    8.2585  -13.5232   18.4072 C   0  0  2  0  0  0  0  0  0  0  0  0
    7.1846  -12.8280   17.6115 C   0  0  0  0  0  0  0  0  0  0  0  0
    7.7391  -14.2935   19.5625 C   0  0  0  0  0  0  0  0  0  0  0  0
    8.7708  -14.9047   20.4586 C   0  0  2  0  0  0  0  0  0  0  0  0
    9.5119  -15.9675   19.8540 N   0  0  0  0  0  0  0  0  0  0  0  0
    8.2403  -15.2219   21.8090 C   0  0  0  0  0  0  0  0  0  0  0  0
    7.2511  -14.5430   22.1960 O   0  0  0  0  0  0  0  0  0  0  0  0
    8.7778  -16.2230   22.6601 N   0  0  0  0  0  0  0  0  0  0  0  0
    8.2578  -16.3675   23.9765 C   0  0  1  0  0  0  0  0  0  0  0  0
    8.6081  -17.7609   24.4798 C   0  0  0  0  0  0  0  0  0  0  0  0
   10.3513  -17.9148   24.9068 S   0  0  0  0  0  0  0  0  0  0  0  0
    8.7199  -15.3241   24.9193 C   0  0  0  0  0  0  0  0  0  0  0  0
    9.8405  -14.7763   24.8806 O   0  0  0  0  0  0  0  0  0  0  0  0
    6.6303  -12.1770   25.9150 C   0  0  0  0  0  0  0  0  0  0  0  0
    6.9270  -12.9707   27.1728 C   0  0  1  0  0  0  0  0  0  0  0  0
    5.8043  -13.7822   27.3949 O   0  0  0  0  0  0  0  0  0  0  0  0
    8.1068  -13.8526   26.8826 C   0  0  2  0  0  0  0  0  0  0  0  0
    7.8382  -14.9005   25.9517 N   0  0  0  0  0  0  0  0  0  0  0  0
    8.7266  -14.3817   28.1001 C   0  0  0  0  0  0  0  0  0  0  0  0
    9.2239  -13.5953   29.1291 O   0  0  0  0  0  0  0  0  0  0  0  0
    8.8298  -15.6288   28.2532 O   0  0  0  0  0  0  0  0  0  0  0  0
  2  1  1  1
  2  4  1  0
  3  2  1  0
  4  5  1  0
  5  6  1  6
  5  7  1  0
  7  8  2  0
  9  7  1  0
  9 10  1  0
 10 11  1  1
 11 12  1  0
 13 10  1  0
 13 19  1  0
 14 13  2  0
 16 15  1  6
 16 17  1  0
 18 19  1  6
 18 16  1  0
 20 18  1  0
 20 21  1  0
 22 20  2  0
M  END
$$$$
