LCT.pdb
     RDKit          3D

 22 21  0  0  1  0  0  0  0  0999 V2000
    6.1752  -13.4492   18.8598 C   0  0  0  0  0  0  0  0  0  0  0  0
    7.3085  -14.4102   19.0133 C   0  0  2  0  0  0  0  0  0  0  0  0
    6.9618  -15.6714   18.2656 C   0  0  0  0  0  0  0  0  0  0  0  0
    7.7561  -14.6479   20.4065 C   0  0  0  0  0  0  0  0  0  0  0  0
    8.0609  -13.4246   21.2137 C   0  0  2  0  0  0  0  0  0  0  0  0
    8.9800  -12.5268   20.5866 N   0  0  0  0  0  0  0  0  0  0  0  0
    8.3839  -13.7386   22.6289 C   0  0  0  0  0  0  0  0  0  0  0  0
    9.6008  -13.6788   22.9524 O   0  0  0  0  0  0  0  0  0  0  0  0
    7.4168  -14.0927   23.6060 N   0  0  0  0  0  0  0  0  0  0  0  0
    7.8461  -14.4088   24.9250 C   0  0  1  0  0  0  0  0  0  0  0  0
    6.7853  -13.9240   25.9034 C   0  0  0  0  0  0  0  0  0  0  0  0
    5.9801  -12.4127   25.3444 S   0  0  0  0  0  0  0  0  0  0  0  0
    8.1476  -15.8438   25.1275 C   0  0  0  0  0  0  0  0  0  0  0  0
    7.3664  -16.7795   24.8599 O   0  0  0  0  0  0  0  0  0  0  0  0
   10.8769  -17.6820   23.6843 C   0  0  0  0  0  0  0  0  0  0  0  0
   11.1244  -17.8985   25.1648 C   0  0  1  0  0  0  0  0  0  0  0  0
   12.1248  -16.9851   25.5298 O   0  0  0  0  0  0  0  0  0  0  0  0
    9.8600  -17.5410   25.8911 C   0  0  2  0  0  0  0  0  0  0  0  0
    9.4141  -16.2043   25.6650 N   0  0  0  0  0  0  0  0  0  0  0  0
    9.9338  -17.8313   27.3252 C   0  0  0  0  0  0  0  0  0  0  0  0
   10.1635  -19.0921   27.8565 O   0  0  0  0  0  0  0  0  0  0  0  0
    9.7830  -16.8960   28.1570 O   0  0  0  0  0  0  0  0  0  0  0  0
  2  1  1  1
  2  4  1  0
  3  2  1  0
  4  5  1  0
  5  6  1  6
  5  7  1  0
  7  8  2  0
  9  7  1  0
  9 10  1  0
 10 11  1  1
 11 12  1  0
 13 10  1  0
 13 19  1  0
 14 13  2  0
 16 15  1  6
 16 17  1  0
 18 19  1  1
 18 16  1  0
 20 18  1  0
 20 21  1  0
 22 20  2  0
M  END
$$$$
