LCT.pdb
     RDKit          3D

 22 21  0  0  1  0  0  0  0  0999 V2000
    7.0479  -13.8107   18.9141 C   0  0  0  0  0  0  0  0  0  0  0  0
    8.0357  -13.3225   19.9227 C   0  0  2  0  0  0  0  0  0  0  0  0
    8.2370  -11.8449   19.7088 C   0  0  0  0  0  0  0  0  0  0  0  0
    9.3012  -14.0912   19.9967 C   0  0  0  0  0  0  0  0  0  0  0  0
    9.1889  -15.4877   20.5242 C   0  0  2  0  0  0  0  0  0  0  0  0
    7.9209  -16.1020   20.2812 N   0  0  0  0  0  0  0  0  0  0  0  0
    9.6686  -15.6110   21.9243 C   0  0  0  0  0  0  0  0  0  0  0  0
   10.8443  -15.2162   22.1505 O   0  0  0  0  0  0  0  0  0  0  0  0
    8.8900  -16.1365   22.9887 N   0  0  0  0  0  0  0  0  0  0  0  0
    9.4974  -16.3382   24.2593 C   0  0  1  0  0  0  0  0  0  0  0  0
    8.5680  -15.7809   25.3286 C   0  0  0  0  0  0  0  0  0  0  0  0
    9.1129  -16.2006   26.9935 S   0  0  0  0  0  0  0  0  0  0  0  0
    9.8497  -17.7489   24.5362 C   0  0  0  0  0  0  0  0  0  0  0  0
    9.0342  -18.6931   24.5656 O   0  0  0  0  0  0  0  0  0  0  0  0
   12.3697  -19.5212   22.5902 C   0  0  0  0  0  0  0  0  0  0  0  0
   12.8653  -19.7172   24.0101 C   0  0  1  0  0  0  0  0  0  0  0  0
   13.8800  -18.7676   24.2027 O   0  0  0  0  0  0  0  0  0  0  0  0
   11.7264  -19.3967   24.9342 C   0  0  2  0  0  0  0  0  0  0  0  0
   11.2109  -18.0738   24.7896 N   0  0  0  0  0  0  0  0  0  0  0  0
   12.0415  -19.6841   26.3359 C   0  0  0  0  0  0  0  0  0  0  0  0
   12.3413  -20.9467   26.8264 O   0  0  0  0  0  0  0  0  0  0  0  0
   12.0489  -18.7444   27.1763 O   0  0  0  0  0  0  0  0  0  0  0  0
  2  1  1  6
  2  4  1  0
  3  2  1  0
  4  5  1  0
  5  6  1  1
  5  7  1  0
  7  8  2  0
  9  7  1  0
  9 10  1  0
 10 11  1  1
 11 12  1  0
 13 10  1  0
 13 19  1  0
 14 13  2  0
 16 15  1  6
 16 17  1  0
 18 19  1  1
 18 16  1  0
 20 18  1  0
 20 21  1  0
 22 20  2  0
M  END
$$$$
