LCT.pdb
     RDKit          3D

 22 21  0  0  1  0  0  0  0  0999 V2000
    8.9015  -17.6197   19.6716 C   0  0  0  0  0  0  0  0  0  0  0  0
    8.4848  -17.8531   21.0870 C   0  0  2  0  0  0  0  0  0  0  0  0
    8.0149  -19.2791   21.2112 C   0  0  0  0  0  0  0  0  0  0  0  0
    7.5317  -16.8618   21.6407 C   0  0  0  0  0  0  0  0  0  0  0  0
    7.9343  -15.4254   21.5145 C   0  0  2  0  0  0  0  0  0  0  0  0
    8.8826  -15.1754   20.4741 N   0  0  0  0  0  0  0  0  0  0  0  0
    8.2857  -14.8127   22.8209 C   0  0  0  0  0  0  0  0  0  0  0  0
    9.5151  -14.6645   23.0576 O   0  0  0  0  0  0  0  0  0  0  0  0
    7.3322  -14.3981   23.7875 N   0  0  0  0  0  0  0  0  0  0  0  0
    7.7838  -13.7914   24.9924 C   0  0  1  0  0  0  0  0  0  0  0  0
    6.7347  -12.7852   25.4448 C   0  0  0  0  0  0  0  0  0  0  0  0
    7.0954  -12.1083   27.0747 S   0  0  0  0  0  0  0  0  0  0  0  0
    8.0983  -14.7592   26.0674 C   0  0  0  0  0  0  0  0  0  0  0  0
    7.2764  -15.5473   26.5778 O   0  0  0  0  0  0  0  0  0  0  0  0
   10.6311  -17.2702   25.8235 C   0  0  0  0  0  0  0  0  0  0  0  0
   11.0490  -16.5797   27.1075 C   0  0  1  0  0  0  0  0  0  0  0  0
   12.1215  -15.7416   26.7676 O   0  0  0  0  0  0  0  0  0  0  0  0
    9.8978  -15.7275   27.5573 C   0  0  2  0  0  0  0  0  0  0  0  0
    9.4280  -14.8110   26.5693 N   0  0  0  0  0  0  0  0  0  0  0  0
   10.1682  -15.0388   28.8219 C   0  0  0  0  0  0  0  0  0  0  0  0
   10.5258  -15.6790   29.9995 O   0  0  0  0  0  0  0  0  0  0  0  0
   10.0787  -13.7824   28.8767 O   0  0  0  0  0  0  0  0  0  0  0  0
  2  1  1  6
  2  4  1  0
  3  2  1  0
  4  5  1  0
  5  6  1  6
  5  7  1  0
  7  8  2  0
  9  7  1  0
  9 10  1  0
 10 11  1  1
 11 12  1  0
 13 10  1  0
 13 19  1  0
 14 13  2  0
 16 15  1  6
 16 17  1  0
 18 19  1  6
 18 16  1  0
 20 18  1  0
 20 21  1  0
 22 20  2  0
M  END
$$$$
