LCT.pdb
     RDKit          3D

 22 21  0  0  1  0  0  0  0  0999 V2000
    8.7006  -12.1328   18.7832 C   0  0  0  0  0  0  0  0  0  0  0  0
    8.2211  -13.3407   19.5198 C   0  0  2  0  0  0  0  0  0  0  0  0
    6.7148  -13.3142   19.5389 C   0  0  0  0  0  0  0  0  0  0  0  0
    8.8298  -13.5547   20.8545 C   0  0  0  0  0  0  0  0  0  0  0  0
    8.6618  -14.9227   21.4388 C   0  0  2  0  0  0  0  0  0  0  0  0
    7.4778  -15.5987   21.0083 N   0  0  0  0  0  0  0  0  0  0  0  0
    8.8794  -14.9482   22.9077 C   0  0  0  0  0  0  0  0  0  0  0  0
   10.0056  -14.5537   23.3142 O   0  0  0  0  0  0  0  0  0  0  0  0
    7.9090  -15.3828   23.8483 N   0  0  0  0  0  0  0  0  0  0  0  0
    8.2594  -15.4525   25.2254 C   0  0  1  0  0  0  0  0  0  0  0  0
    7.0870  -14.9317   26.0452 C   0  0  0  0  0  0  0  0  0  0  0  0
    6.5530  -13.2963   25.5112 S   0  0  0  0  0  0  0  0  0  0  0  0
    8.6677  -16.8039   25.6705 C   0  0  0  0  0  0  0  0  0  0  0  0
    7.8895  -17.6705   26.1186 O   0  0  0  0  0  0  0  0  0  0  0  0
   11.5777  -18.7531   23.8035 C   0  0  0  0  0  0  0  0  0  0  0  0
   11.8591  -18.7906   25.2933 C   0  0  1  0  0  0  0  0  0  0  0  0
   12.8203  -17.7973   25.5331 O   0  0  0  0  0  0  0  0  0  0  0  0
   10.5908  -18.4124   26.0021 C   0  0  2  0  0  0  0  0  0  0  0  0
   10.0420  -17.1611   25.5901 N   0  0  0  0  0  0  0  0  0  0  0  0
   10.7226  -18.4701   27.4602 C   0  0  0  0  0  0  0  0  0  0  0  0
   11.0739  -19.6099   28.1685 O   0  0  0  0  0  0  0  0  0  0  0  0
   10.5096  -17.4331   28.1448 O   0  0  0  0  0  0  0  0  0  0  0  0
  2  1  1  1
  2  4  1  0
  3  2  1  0
  4  5  1  0
  5  6  1  1
  5  7  1  0
  7  8  2  0
  9  7  1  0
  9 10  1  0
 10 11  1  1
 11 12  1  0
 13 10  1  0
 13 19  1  0
 14 13  2  0
 16 15  1  6
 16 17  1  0
 18 19  1  1
 18 16  1  0
 20 18  1  0
 20 21  1  0
 22 20  2  0
M  END
$$$$
