LCT.pdb
     RDKit          3D

 22 21  0  0  1  0  0  0  0  0999 V2000
    8.3101  -12.6899   18.1479 C   0  0  0  0  0  0  0  0  0  0  0  0
    7.9445  -13.6490   19.2332 C   0  0  2  0  0  0  0  0  0  0  0  0
    7.1396  -12.9061   20.2676 C   0  0  0  0  0  0  0  0  0  0  0  0
    9.0721  -14.4259   19.8013 C   0  0  0  0  0  0  0  0  0  0  0  0
    8.6962  -15.5705   20.6899 C   0  0  2  0  0  0  0  0  0  0  0  0
    7.2906  -15.8258   20.7481 N   0  0  0  0  0  0  0  0  0  0  0  0
    9.3604  -15.5070   22.0168 C   0  0  0  0  0  0  0  0  0  0  0  0
   10.6210  -15.4955   22.0123 O   0  0  0  0  0  0  0  0  0  0  0  0
    8.6647  -15.4603   23.2534 N   0  0  0  0  0  0  0  0  0  0  0  0
    9.3960  -15.5911   24.4667 C   0  0  1  0  0  0  0  0  0  0  0  0
    8.7181  -14.7372   25.5292 C   0  0  0  0  0  0  0  0  0  0  0  0
    6.9252  -14.9089   25.5021 S   0  0  0  0  0  0  0  0  0  0  0  0
    9.5526  -16.9908   24.9221 C   0  0  0  0  0  0  0  0  0  0  0  0
    8.6287  -17.8278   24.9796 O   0  0  0  0  0  0  0  0  0  0  0  0
   11.6926  -19.3639   23.3727 C   0  0  0  0  0  0  0  0  0  0  0  0
   12.2173  -19.4015   24.7952 C   0  0  1  0  0  0  0  0  0  0  0  0
   13.3616  -18.5900   24.8096 O   0  0  0  0  0  0  0  0  0  0  0  0
   11.1752  -18.7775   25.6775 C   0  0  2  0  0  0  0  0  0  0  0  0
   10.8414  -17.4347   25.3280 N   0  0  0  0  0  0  0  0  0  0  0  0
   11.5088  -18.8792   27.1005 C   0  0  0  0  0  0  0  0  0  0  0  0
   11.6270  -20.0761   27.7919 O   0  0  0  0  0  0  0  0  0  0  0  0
   11.7075  -17.8287   27.7687 O   0  0  0  0  0  0  0  0  0  0  0  0
  2  1  1  6
  2  4  1  0
  3  2  1  0
  4  5  1  0
  5  6  1  1
  5  7  1  0
  7  8  2  0
  9  7  1  0
  9 10  1  0
 10 11  1  1
 11 12  1  0
 13 10  1  0
 13 19  1  0
 14 13  2  0
 16 15  1  6
 16 17  1  0
 18 19  1  6
 18 16  1  0
 20 18  1  0
 20 21  1  0
 22 20  2  0
M  END
$$$$
