LCT.pdb
     RDKit          3D

 22 21  0  0  1  0  0  0  0  0999 V2000
    6.6465  -13.1126   20.5389 C   0  0  0  0  0  0  0  0  0  0  0  0
    8.1384  -13.1653   20.4858 C   0  0  2  0  0  0  0  0  0  0  0  0
    8.6088  -12.1743   19.4531 C   0  0  0  0  0  0  0  0  0  0  0  0
    8.7212  -14.5185   20.3213 C   0  0  0  0  0  0  0  0  0  0  0  0
    8.2846  -15.5449   21.3197 C   0  0  2  0  0  0  0  0  0  0  0  0
    6.8910  -15.8589   21.2611 N   0  0  0  0  0  0  0  0  0  0  0  0
    8.7900  -15.2639   22.6876 C   0  0  0  0  0  0  0  0  0  0  0  0
   10.0372  -15.1241   22.8064 O   0  0  0  0  0  0  0  0  0  0  0  0
    7.9608  -15.1489   23.8342 N   0  0  0  0  0  0  0  0  0  0  0  0
    8.5631  -14.9974   25.1141 C   0  0  1  0  0  0  0  0  0  0  0  0
    7.7826  -13.9451   25.8896 C   0  0  0  0  0  0  0  0  0  0  0  0
    8.5181  -13.5951   27.4962 S   0  0  0  0  0  0  0  0  0  0  0  0
    8.6672  -16.2605   25.8788 C   0  0  0  0  0  0  0  0  0  0  0  0
    7.7000  -16.9839   26.1926 O   0  0  0  0  0  0  0  0  0  0  0  0
   10.0024  -19.2877   25.0722 C   0  0  0  0  0  0  0  0  0  0  0  0
   10.8832  -18.9762   26.2669 C   0  0  1  0  0  0  0  0  0  0  0  0
   12.0869  -18.4800   25.7442 O   0  0  0  0  0  0  0  0  0  0  0  0
   10.2132  -17.8840   27.0493 C   0  0  2  0  0  0  0  0  0  0  0  0
    9.9540  -16.7000   26.2959 N   0  0  0  0  0  0  0  0  0  0  0  0
   10.9208  -17.5674   28.2925 C   0  0  0  0  0  0  0  0  0  0  0  0
   11.1493  -18.4768   29.3149 O   0  0  0  0  0  0  0  0  0  0  0  0
   11.3633  -16.4012   28.4759 O   0  0  0  0  0  0  0  0  0  0  0  0
  2  1  1  6
  2  4  1  0
  3  2  1  0
  4  5  1  0
  5  6  1  1
  5  7  1  0
  7  8  2  0
  9  7  1  0
  9 10  1  0
 10 11  1  1
 11 12  1  0
 13 10  1  0
 13 19  1  0
 14 13  2  0
 16 15  1  6
 16 17  1  0
 18 19  1  6
 18 16  1  0
 20 18  1  0
 20 21  1  0
 22 20  2  0
M  END
$$$$
