GSG.pdb
     RDKit          3D

 15 14  0  0  1  0  0  0  0  0999 V2000
   12.1447  -10.4748   -8.8635 N   0  0  0  0  0  0  0  0  0  0  0  0
   13.4206   -9.9753   -8.4286 C   0  0  0  0  0  0  0  0  0  0  0  0
   13.7689   -8.6842   -9.0623 C   0  0  0  0  0  0  0  0  0  0  0  0
   13.1092   -8.2118  -10.0186 O   0  0  0  0  0  0  0  0  0  0  0  0
   14.0265   -5.3075   -7.8862 O   0  0  0  0  0  0  0  0  0  0  0  0
   15.3292   -5.6509   -8.1566 C   0  0  0  0  0  0  0  0  0  0  0  0
   15.3563   -6.7366   -9.2218 C   0  0  2  0  0  0  0  0  0  0  0  0
   14.8724   -7.9493   -8.5900 N   0  0  0  0  0  0  0  0  0  0  0  0
   16.7207   -6.9137   -9.7792 C   0  0  0  0  0  0  0  0  0  0  0  0
   17.6956   -7.1667   -9.0265 O   0  0  0  0  0  0  0  0  0  0  0  0
   16.9913   -6.8081  -11.1710 N   0  0  0  0  0  0  0  0  0  0  0  0
   18.3230   -7.0325  -11.6917 C   0  0  0  0  0  0  0  0  0  0  0  0
   18.3105   -6.8708  -13.1889 C   0  0  0  0  0  0  0  0  0  0  0  0
   17.2446   -6.6332  -13.8056 O   0  0  0  0  0  0  0  0  0  0  0  0
   19.4763   -6.9782  -13.9422 O   0  0  0  0  0  0  0  0  0  0  0  0
  2  1  1  0
  3  8  1  0
  3  2  1  0
  4  3  2  0
  5  6  1  0
  7  6  1  1
  7  8  1  0
  9  7  1  0
  9 10  2  0
 11  9  1  0
 12 11  1  0
 12 13  1  0
 13 15  1  0
 14 13  2  0
M  END
$$$$
