GSG.pdb
     RDKit          3D

 15 14  0  0  1  0  0  0  0  0999 V2000
   14.7423  -22.6429   -1.6173 N   0  0  0  0  0  0  0  0  0  0  0  0
   13.7143  -22.0477   -0.8078 C   0  0  0  0  0  0  0  0  0  0  0  0
   14.2621  -21.1473    0.2310 C   0  0  0  0  0  0  0  0  0  0  0  0
   15.4895  -21.0883    0.4818 O   0  0  0  0  0  0  0  0  0  0  0  0
   13.2561  -17.2501    2.8157 O   0  0  0  0  0  0  0  0  0  0  0  0
   12.7779  -18.3020    2.0722 C   0  0  0  0  0  0  0  0  0  0  0  0
   13.8456  -19.3813    1.9763 C   0  0  2  0  0  0  0  0  0  0  0  0
   13.3931  -20.3238    0.9709 N   0  0  0  0  0  0  0  0  0  0  0  0
   14.0677  -20.0406    3.2877 C   0  0  0  0  0  0  0  0  0  0  0  0
   13.3174  -20.9723    3.6748 O   0  0  0  0  0  0  0  0  0  0  0  0
   15.1235  -19.6585    4.1598 N   0  0  0  0  0  0  0  0  0  0  0  0
   15.3152  -20.3182    5.4338 C   0  0  0  0  0  0  0  0  0  0  0  0
   16.5012  -19.7141    6.1385 C   0  0  0  0  0  0  0  0  0  0  0  0
   17.1833  -18.8103    5.5994 O   0  0  0  0  0  0  0  0  0  0  0  0
   16.8839  -20.1340    7.4094 O   0  0  0  0  0  0  0  0  0  0  0  0
  2  1  1  0
  3  8  1  0
  3  2  1  0
  4  3  2  0
  5  6  1  0
  7  6  1  1
  7  8  1  0
  9  7  1  0
  9 10  2  0
 11  9  1  0
 12 11  1  0
 12 13  1  0
 13 15  1  0
 14 13  2  0
M  END
$$$$
