GSG.pdb
     RDKit          3D

 15 14  0  0  1  0  0  0  0  0999 V2000
   19.8973  -12.7265  -18.5849 N   0  0  0  0  0  0  0  0  0  0  0  0
   19.8581  -11.9537  -17.3734 C   0  0  0  0  0  0  0  0  0  0  0  0
   20.3577  -10.5741  -17.5657 C   0  0  0  0  0  0  0  0  0  0  0  0
   21.3146  -10.3129  -18.3332 O   0  0  0  0  0  0  0  0  0  0  0  0
   19.3348   -5.9763  -17.4054 O   0  0  0  0  0  0  0  0  0  0  0  0
   18.9649   -7.2885  -17.2339 C   0  0  0  0  0  0  0  0  0  0  0  0
   20.2020   -8.1332  -16.9690 C   0  0  2  0  0  0  0  0  0  0  0  0
   19.7520   -9.5088  -16.8736 N   0  0  0  0  0  0  0  0  0  0  0  0
   20.9012   -7.6964  -15.7345 C   0  0  0  0  0  0  0  0  0  0  0  0
   20.5150   -8.0874  -14.6036 O   0  0  0  0  0  0  0  0  0  0  0  0
   22.0257   -6.8271  -15.7667 N   0  0  0  0  0  0  0  0  0  0  0  0
   22.6681   -6.3920  -14.5448 C   0  0  0  0  0  0  0  0  0  0  0  0
   21.9916   -5.1454  -14.0384 C   0  0  0  0  0  0  0  0  0  0  0  0
   20.9845   -4.6741  -14.6184 O   0  0  0  0  0  0  0  0  0  0  0  0
   22.4562   -4.4716  -12.9122 O   0  0  0  0  0  0  0  0  0  0  0  0
  2  1  1  0
  3  8  1  0
  3  2  1  0
  4  3  2  0
  5  6  1  0
  7  6  1  1
  7  8  1  0
  9  7  1  0
  9 10  2  0
 11  9  1  0
 12 11  1  0
 12 13  1  0
 13 15  1  0
 14 13  2  0
M  END
$$$$
