GSG.pdb
     RDKit          3D

 15 14  0  0  1  0  0  0  0  0999 V2000
   26.8367  -10.7995  -15.6221 N   0  0  0  0  0  0  0  0  0  0  0  0
   25.4551  -11.0011  -15.2799 C   0  0  0  0  0  0  0  0  0  0  0  0
   24.6155   -9.8252  -15.5992 C   0  0  0  0  0  0  0  0  0  0  0  0
   25.1003   -8.7677  -16.0677 O   0  0  0  0  0  0  0  0  0  0  0  0
   20.5223  -10.0357  -14.8158 O   0  0  0  0  0  0  0  0  0  0  0  0
   20.9588   -9.4994  -16.0032 C   0  0  0  0  0  0  0  0  0  0  0  0
   22.3097   -8.8328  -15.7918 C   0  0  2  0  0  0  0  0  0  0  0  0
   23.2267   -9.8771  -15.3767 N   0  0  0  0  0  0  0  0  0  0  0  0
   22.2244   -7.7442  -14.7861 C   0  0  0  0  0  0  0  0  0  0  0  0
   22.2237   -8.0033  -13.5558 O   0  0  0  0  0  0  0  0  0  0  0  0
   22.1404   -6.3741  -15.1564 N   0  0  0  0  0  0  0  0  0  0  0  0
   22.0500   -5.3340  -14.1539 C   0  0  0  0  0  0  0  0  0  0  0  0
   22.0198   -3.9879  -14.8284 C   0  0  0  0  0  0  0  0  0  0  0  0
   21.9546   -2.9295  -14.1588 O   0  0  0  0  0  0  0  0  0  0  0  0
   22.0628   -3.8675  -16.2147 O   0  0  0  0  0  0  0  0  0  0  0  0
  2  1  1  0
  3  8  1  0
  3  2  1  0
  4  3  2  0
  5  6  1  0
  7  6  1  1
  7  8  1  0
  9  7  1  0
  9 10  2  0
 11  9  1  0
 12 11  1  0
 12 13  1  0
 13 15  1  0
 14 13  2  0
M  END
$$$$
