GSG.pdb
     RDKit          3D

 15 14  0  0  1  0  0  0  0  0999 V2000
   17.5777   -9.9630  -16.7715 N   0  0  0  0  0  0  0  0  0  0  0  0
   18.3883   -8.7942  -16.5632 C   0  0  0  0  0  0  0  0  0  0  0  0
   19.2121   -8.8878  -15.3374 C   0  0  0  0  0  0  0  0  0  0  0  0
   18.7191   -9.1907  -14.2248 O   0  0  0  0  0  0  0  0  0  0  0  0
   22.2880  -10.7533  -14.9165 O   0  0  0  0  0  0  0  0  0  0  0  0
   22.6834   -9.4709  -14.6210 C   0  0  0  0  0  0  0  0  0  0  0  0
   21.4664   -8.6396  -14.2443 C   0  0  2  0  0  0  0  0  0  0  0  0
   20.5946   -8.6322  -15.4035 N   0  0  0  0  0  0  0  0  0  0  0  0
   21.8544   -7.2651  -13.8393 C   0  0  0  0  0  0  0  0  0  0  0  0
   22.4728   -7.0616  -12.7636 O   0  0  0  0  0  0  0  0  0  0  0  0
   21.5516   -6.1260  -14.6343 N   0  0  0  0  0  0  0  0  0  0  0  0
   22.0115   -4.8071  -14.2547 C   0  0  0  0  0  0  0  0  0  0  0  0
   20.8361   -3.9710  -13.8217 C   0  0  0  0  0  0  0  0  0  0  0  0
   19.7004   -4.4805  -13.6689 O   0  0  0  0  0  0  0  0  0  0  0  0
   20.9648   -2.6068  -13.5757 O   0  0  0  0  0  0  0  0  0  0  0  0
  2  1  1  0
  3  8  1  0
  3  2  1  0
  4  3  2  0
  5  6  1  0
  7  6  1  6
  7  8  1  0
  9  7  1  0
  9 10  2  0
 11  9  1  0
 12 11  1  0
 12 13  1  0
 13 15  1  0
 14 13  2  0
M  END
$$$$
