GSG.pdb
     RDKit          3D

 15 14  0  0  1  0  0  0  0  0999 V2000
   19.9910  -13.1886  -18.0326 N   0  0  0  0  0  0  0  0  0  0  0  0
   20.5746  -11.8781  -18.1260 C   0  0  0  0  0  0  0  0  0  0  0  0
   20.6816  -11.2112  -16.8093 C   0  0  0  0  0  0  0  0  0  0  0  0
   19.9548  -11.5318  -15.8389 O   0  0  0  0  0  0  0  0  0  0  0  0
   24.0213   -9.9684  -15.2694 O   0  0  0  0  0  0  0  0  0  0  0  0
   22.8371  -10.0394  -14.5761 C   0  0  0  0  0  0  0  0  0  0  0  0
   21.7279   -9.4051  -15.4017 C   0  0  2  0  0  0  0  0  0  0  0  0
   21.6234  -10.1821  -16.6219 N   0  0  0  0  0  0  0  0  0  0  0  0
   22.0127   -7.9755  -15.6828 C   0  0  0  0  0  0  0  0  0  0  0  0
   22.5525   -7.6273  -16.7636 O   0  0  0  0  0  0  0  0  0  0  0  0
   21.6948   -6.9427  -14.7588 N   0  0  0  0  0  0  0  0  0  0  0  0
   22.1126   -5.5768  -14.9932 C   0  0  0  0  0  0  0  0  0  0  0  0
   21.7217   -4.7233  -13.8156 C   0  0  0  0  0  0  0  0  0  0  0  0
   20.9944   -5.1769  -12.9002 O   0  0  0  0  0  0  0  0  0  0  0  0
   22.1508   -3.4041  -13.6988 O   0  0  0  0  0  0  0  0  0  0  0  0
  2  1  1  0
  3  8  1  0
  3  2  1  0
  4  3  2  0
  5  6  1  0
  7  6  1  1
  7  8  1  0
  9  7  1  0
  9 10  2  0
 11  9  1  0
 12 11  1  0
 12 13  1  0
 13 15  1  0
 14 13  2  0
M  END
$$$$
