GSG.pdb
     RDKit          3D

 15 14  0  0  1  0  0  0  0  0999 V2000
   15.1268  -15.9514  -14.1163 N   0  0  0  0  0  0  0  0  0  0  0  0
   15.4154  -14.9159  -15.0708 C   0  0  0  0  0  0  0  0  0  0  0  0
   16.4155  -13.9471  -14.5698 C   0  0  0  0  0  0  0  0  0  0  0  0
   16.6392  -13.7933  -13.3454 O   0  0  0  0  0  0  0  0  0  0  0  0
   19.3634  -12.8654  -16.9734 O   0  0  0  0  0  0  0  0  0  0  0  0
   19.4689  -12.6413  -15.6218 C   0  0  0  0  0  0  0  0  0  0  0  0
   18.1270  -12.1725  -15.0798 C   0  0  2  0  0  0  0  0  0  0  0  0
   17.1482  -13.1646  -15.4818 N   0  0  0  0  0  0  0  0  0  0  0  0
   17.7806  -10.8212  -15.5875 C   0  0  0  0  0  0  0  0  0  0  0  0
   17.0339  -10.6820  -16.5894 O   0  0  0  0  0  0  0  0  0  0  0  0
   18.2679   -9.6334  -14.9765 N   0  0  0  0  0  0  0  0  0  0  0  0
   18.0213   -8.3351  -15.5669 C   0  0  0  0  0  0  0  0  0  0  0  0
   18.6682   -7.2688  -14.7228 C   0  0  0  0  0  0  0  0  0  0  0  0
   19.1997   -7.5483  -13.6218 O   0  0  0  0  0  0  0  0  0  0  0  0
   18.7008   -5.9381  -15.1306 O   0  0  0  0  0  0  0  0  0  0  0  0
  2  1  1  0
  3  8  1  0
  3  2  1  0
  4  3  2  0
  5  6  1  0
  7  6  1  6
  7  8  1  0
  9  7  1  0
  9 10  2  0
 11  9  1  0
 12 11  1  0
 12 13  1  0
 13 15  1  0
 14 13  2  0
M  END
$$$$
