GSG.pdb
     RDKit          3D

 15 14  0  0  1  0  0  0  0  0999 V2000
   18.5600  -12.2142  -15.7494 N   0  0  0  0  0  0  0  0  0  0  0  0
   19.2651  -11.2059  -16.4929 C   0  0  0  0  0  0  0  0  0  0  0  0
   19.7236  -10.0888  -15.6375 C   0  0  0  0  0  0  0  0  0  0  0  0
   19.1489   -9.7931  -14.5628 O   0  0  0  0  0  0  0  0  0  0  0  0
   23.1965   -9.3351  -14.5068 O   0  0  0  0  0  0  0  0  0  0  0  0
   22.8215   -8.2477  -15.2585 C   0  0  0  0  0  0  0  0  0  0  0  0
   21.3034   -8.1583  -15.2978 C   0  0  2  0  0  0  0  0  0  0  0  0
   20.8384   -9.3229  -16.0267 N   0  0  0  0  0  0  0  0  0  0  0  0
   20.8522   -6.8951  -15.9339 C   0  0  0  0  0  0  0  0  0  0  0  0
   20.5015   -6.8720  -17.1411 O   0  0  0  0  0  0  0  0  0  0  0  0
   20.7942   -5.6658  -15.2221 N   0  0  0  0  0  0  0  0  0  0  0  0
   20.3830   -4.4424  -15.8774 C   0  0  0  0  0  0  0  0  0  0  0  0
   20.5062   -3.2912  -14.9142 C   0  0  0  0  0  0  0  0  0  0  0  0
   20.7872   -3.4840  -13.7073 O   0  0  0  0  0  0  0  0  0  0  0  0
   20.3136   -1.9750  -15.3251 O   0  0  0  0  0  0  0  0  0  0  0  0
  2  1  1  0
  3  8  1  0
  3  2  1  0
  4  3  2  0
  5  6  1  0
  7  6  1  6
  7  8  1  0
  9  7  1  0
  9 10  2  0
 11  9  1  0
 12 11  1  0
 12 13  1  0
 13 15  1  0
 14 13  2  0
M  END
$$$$
