GSG.pdb
     RDKit          3D

 15 14  0  0  1  0  0  0  0  0999 V2000
   22.5544  -10.6022  -19.1023 N   0  0  0  0  0  0  0  0  0  0  0  0
   22.9018   -9.2132  -18.9736 C   0  0  0  0  0  0  0  0  0  0  0  0
   22.1173   -8.5286  -17.9221 C   0  0  0  0  0  0  0  0  0  0  0  0
   20.8976   -8.2719  -18.0614 O   0  0  0  0  0  0  0  0  0  0  0  0
   21.5518   -7.9518  -13.3323 O   0  0  0  0  0  0  0  0  0  0  0  0
   22.2241   -8.4621  -14.4166 C   0  0  0  0  0  0  0  0  0  0  0  0
   22.0380   -7.5366  -15.6095 C   0  0  2  0  0  0  0  0  0  0  0  0
   22.7431   -8.1461  -16.7209 N   0  0  0  0  0  0  0  0  0  0  0  0
   22.5442   -6.1716  -15.3193 C   0  0  0  0  0  0  0  0  0  0  0  0
   23.7747   -5.9178  -15.3674 O   0  0  0  0  0  0  0  0  0  0  0  0
   21.6773   -5.0978  -14.9774 N   0  0  0  0  0  0  0  0  0  0  0  0
   22.1929   -3.7636  -14.7560 C   0  0  0  0  0  0  0  0  0  0  0  0
   21.0687   -2.8544  -14.3346 C   0  0  0  0  0  0  0  0  0  0  0  0
   21.2871   -1.6638  -14.0069 O   0  0  0  0  0  0  0  0  0  0  0  0
   19.7501   -3.2989  -14.2931 O   0  0  0  0  0  0  0  0  0  0  0  0
  2  1  1  0
  3  8  1  0
  3  2  1  0
  4  3  2  0
  5  6  1  0
  7  6  1  1
  7  8  1  0
  9  7  1  0
  9 10  2  0
 11  9  1  0
 12 11  1  0
 12 13  1  0
 13 15  1  0
 14 13  2  0
M  END
$$$$
