GSG.pdb
     RDKit          3D

 15 14  0  0  1  0  0  0  0  0999 V2000
   17.2277  -11.7231  -15.4176 N   0  0  0  0  0  0  0  0  0  0  0  0
   18.2584  -11.0708  -16.1783 C   0  0  0  0  0  0  0  0  0  0  0  0
   19.2750  -10.4262  -15.3177 C   0  0  0  0  0  0  0  0  0  0  0  0
   19.0244  -10.0724  -14.1408 O   0  0  0  0  0  0  0  0  0  0  0  0
   23.1000   -9.7017  -16.8971 O   0  0  0  0  0  0  0  0  0  0  0  0
   22.9338  -10.0251  -15.5720 C   0  0  0  0  0  0  0  0  0  0  0  0
   21.5984   -9.4855  -15.0824 C   0  0  2  0  0  0  0  0  0  0  0  0
   20.5697  -10.1948  -15.8189 N   0  0  0  0  0  0  0  0  0  0  0  0
   21.5030   -8.0173  -15.2800 C   0  0  0  0  0  0  0  0  0  0  0  0
   21.1575   -7.5384  -16.3900 O   0  0  0  0  0  0  0  0  0  0  0  0
   21.7928   -7.0915  -14.2406 N   0  0  0  0  0  0  0  0  0  0  0  0
   21.6692   -5.6654  -14.4553 C   0  0  0  0  0  0  0  0  0  0  0  0
   22.1427   -4.9303  -13.2291 C   0  0  0  0  0  0  0  0  0  0  0  0
   22.2264   -3.6791  -13.2164 O   0  0  0  0  0  0  0  0  0  0  0  0
   22.5039   -5.6086  -12.0683 O   0  0  0  0  0  0  0  0  0  0  0  0
  2  1  1  0
  3  8  1  0
  3  2  1  0
  4  3  2  0
  5  6  1  0
  7  6  1  6
  7  8  1  0
  9  7  1  0
  9 10  2  0
 11  9  1  0
 12 11  1  0
 12 13  1  0
 13 15  1  0
 14 13  2  0
M  END
$$$$
