PEC.pdb
     RDKit          3D

 23 23  0  0  1  0  0  0  0  0999 V2000
   23.5372  -11.4874  -17.2106 N   0  0  0  0  0  0  0  0  0  0  0  0
   24.4237  -12.3889  -16.4745 C   0  0  0  0  0  0  0  0  0  0  0  0
   23.8350  -12.5083  -15.0994 C   0  0  0  0  0  0  0  0  0  0  0  0
   23.1919  -11.1225  -14.9340 C   0  0  0  0  0  0  0  0  0  0  0  0
   22.5296  -11.0690  -16.3012 C   0  0  1  0  0  0  0  0  0  0  0  0
   21.8300   -9.8196  -16.5924 C   0  0  0  0  0  0  0  0  0  0  0  0
   22.4067   -8.8379  -17.1455 O   0  0  0  0  0  0  0  0  0  0  0  0
   20.4626   -9.6515  -16.2635 N   0  0  0  0  0  0  0  0  0  0  0  0
   19.6862   -8.4680  -16.3276 C   0  0  1  0  0  0  0  0  0  0  0  0
   18.2044   -8.6179  -16.5887 C   0  0  0  0  0  0  0  0  0  0  0  0
   17.4977   -7.3059  -16.8104 C   0  0  0  0  0  0  0  0  0  0  0  0
   16.0619   -7.5274  -17.1233 C   0  0  0  0  0  0  0  0  0  0  0  0
   15.7534   -8.0139  -18.2212 O   0  0  0  0  0  0  0  0  0  0  0  0
   20.0284   -7.4045  -15.3723 C   0  0  0  0  0  0  0  0  0  0  0  0
   20.1110   -7.7046  -14.1318 O   0  0  0  0  0  0  0  0  0  0  0  0
   15.0820   -7.2023  -16.2182 O   0  0  0  0  0  0  0  0  0  0  0  0
   20.2710   -6.0641  -15.7598 N   0  0  0  0  0  0  0  0  0  0  0  0
   20.7186   -5.0898  -14.7987 C   0  0  1  0  0  0  0  0  0  0  0  0
   22.2351   -5.0655  -14.7211 C   0  0  0  0  0  0  0  0  0  0  0  0
   22.6913   -3.6867  -13.6020 S   0  0  0  0  0  0  0  0  0  0  0  0
   20.1546   -3.7735  -15.1511 C   0  0  0  0  0  0  0  0  0  0  0  0
   19.9151   -2.8468  -14.1552 O   0  0  0  0  0  0  0  0  0  0  0  0
   19.8744   -3.4432  -16.3364 O   0  0  0  0  0  0  0  0  0  0  0  0
  1  2  1  0
  2  3  1  0
  4  3  1  0
  5  4  1  0
  5  1  1  0
  6  7  2  0
  5  6  1  6
  8  6  1  0
  9 14  1  0
  9  8  1  0
  9 10  1  1
 11 12  1  0
 11 10  1  0
 12 13  2  0
 14 17  1  0
 15 14  2  0
 16 12  1  0
 17 18  1  0
 18 21  1  0
 18 19  1  6
 19 20  1  0
 21 23  2  0
 21 22  1  0
M  END
$$$$
