PEC.pdb
     RDKit          3D

 23 23  0  0  1  0  0  0  0  0999 V2000
   16.7597  -12.7768  -16.8144 N   0  0  0  0  0  0  0  0  0  0  0  0
   16.5895  -14.2264  -16.9146 C   0  0  0  0  0  0  0  0  0  0  0  0
   15.9719  -14.6561  -15.6163 C   0  0  0  0  0  0  0  0  0  0  0  0
   16.5705  -13.6222  -14.6499 C   0  0  0  0  0  0  0  0  0  0  0  0
   16.3183  -12.4000  -15.5180 C   0  0  1  0  0  0  0  0  0  0  0  0
   16.8251  -11.1449  -14.9675 C   0  0  0  0  0  0  0  0  0  0  0  0
   16.4454  -10.6999  -13.8450 O   0  0  0  0  0  0  0  0  0  0  0  0
   17.7717  -10.3637  -15.6745 N   0  0  0  0  0  0  0  0  0  0  0  0
   18.3678   -9.1409  -15.2785 C   0  0  1  0  0  0  0  0  0  0  0  0
   19.8669   -9.0134  -15.4292 C   0  0  0  0  0  0  0  0  0  0  0  0
   20.4186   -7.7241  -14.8784 C   0  0  0  0  0  0  0  0  0  0  0  0
   21.8674   -7.5978  -15.1847 C   0  0  0  0  0  0  0  0  0  0  0  0
   22.3205   -6.4887  -15.5035 O   0  0  0  0  0  0  0  0  0  0  0  0
   17.6211   -7.9138  -15.5908 C   0  0  0  0  0  0  0  0  0  0  0  0
   17.2929   -7.6944  -16.8073 O   0  0  0  0  0  0  0  0  0  0  0  0
   22.7020   -8.6860  -15.1191 O   0  0  0  0  0  0  0  0  0  0  0  0
   17.2479   -6.9634  -14.6094 N   0  0  0  0  0  0  0  0  0  0  0  0
   16.4890   -5.7937  -14.9688 C   0  0  1  0  0  0  0  0  0  0  0  0
   15.2759   -5.6397  -14.0682 C   0  0  0  0  0  0  0  0  0  0  0  0
   14.4989   -4.0329  -14.4878 S   0  0  0  0  0  0  0  0  0  0  0  0
   17.3738   -4.6147  -14.9234 C   0  0  0  0  0  0  0  0  0  0  0  0
   18.6452   -4.7376  -14.3979 O   0  0  0  0  0  0  0  0  0  0  0  0
   17.0240   -3.4787  -15.3475 O   0  0  0  0  0  0  0  0  0  0  0  0
  1  2  1  0
  2  3  1  0
  4  3  1  0
  5  4  1  0
  5  1  1  0
  6  7  2  0
  5  6  1  1
  8  6  1  0
  9 14  1  0
  9  8  1  0
  9 10  1  6
 11 12  1  0
 11 10  1  0
 12 13  2  0
 14 17  1  0
 15 14  2  0
 16 12  1  0
 17 18  1  0
 18 21  1  0
 18 19  1  1
 19 20  1  0
 21 23  2  0
 21 22  1  0
M  END
$$$$
