PEC.pdb
     RDKit          3D

 23 23  0  0  1  0  0  0  0  0999 V2000
   18.1334  -12.5414  -15.1335 N   0  0  0  0  0  0  0  0  0  0  0  0
   17.5460  -13.8359  -15.4794 C   0  0  0  0  0  0  0  0  0  0  0  0
   17.8847  -14.0657  -16.9231 C   0  0  0  0  0  0  0  0  0  0  0  0
   17.9080  -12.6233  -17.4525 C   0  0  0  0  0  0  0  0  0  0  0  0
   18.7276  -12.0303  -16.3179 C   0  0  1  0  0  0  0  0  0  0  0  0
   18.9345  -10.5863  -16.4039 C   0  0  0  0  0  0  0  0  0  0  0  0
   19.5386  -10.0493  -17.3781 O   0  0  0  0  0  0  0  0  0  0  0  0
   18.4640   -9.7168  -15.3896 N   0  0  0  0  0  0  0  0  0  0  0  0
   18.5261   -8.3018  -15.3518 C   0  0  1  0  0  0  0  0  0  0  0  0
   17.2707   -7.5578  -14.9558 C   0  0  0  0  0  0  0  0  0  0  0  0
   17.4060   -6.0600  -15.0469 C   0  0  0  0  0  0  0  0  0  0  0  0
   16.1397   -5.3917  -14.6488 C   0  0  0  0  0  0  0  0  0  0  0  0
   15.1881   -5.3832  -15.4435 O   0  0  0  0  0  0  0  0  0  0  0  0
   19.7688   -7.7117  -14.8338 C   0  0  0  0  0  0  0  0  0  0  0  0
   20.1645   -8.0540  -13.6668 O   0  0  0  0  0  0  0  0  0  0  0  0
   16.0131   -4.7891  -13.4217 O   0  0  0  0  0  0  0  0  0  0  0  0
   20.5485   -6.7826  -15.5650 N   0  0  0  0  0  0  0  0  0  0  0  0
   21.7887   -6.2819  -15.0317 C   0  0  1  0  0  0  0  0  0  0  0  0
   22.7799   -5.9979  -16.1467 C   0  0  0  0  0  0  0  0  0  0  0  0
   24.3696   -6.7701  -15.6585 S   0  0  0  0  0  0  0  0  0  0  0  0
   21.5114   -5.0884  -14.2110 C   0  0  0  0  0  0  0  0  0  0  0  0
   22.1876   -4.9091  -13.0201 O   0  0  0  0  0  0  0  0  0  0  0  0
   20.6737   -4.2060  -14.5460 O   0  0  0  0  0  0  0  0  0  0  0  0
  1  2  1  0
  2  3  1  0
  4  3  1  0
  5  4  1  0
  5  1  1  0
  6  7  2  0
  5  6  1  1
  8  6  1  0
  9 14  1  0
  9  8  1  0
  9 10  1  1
 11 12  1  0
 11 10  1  0
 12 13  2  0
 14 17  1  0
 15 14  2  0
 16 12  1  0
 17 18  1  0
 18 21  1  0
 18 19  1  6
 19 20  1  0
 21 23  2  0
 21 22  1  0
M  END
$$$$
