PEC.pdb
     RDKit          3D

 23 23  0  0  1  0  0  0  0  0999 V2000
   23.7049  -33.1606  -15.2928 N   0  0  0  0  0  0  0  0  0  0  0  0
   24.2722  -33.9460  -16.3890 C   0  0  0  0  0  0  0  0  0  0  0  0
   24.5025  -35.3198  -15.8308 C   0  0  0  0  0  0  0  0  0  0  0  0
   24.8050  -34.9924  -14.3602 C   0  0  0  0  0  0  0  0  0  0  0  0
   23.6610  -34.0121  -14.1570 C   0  0  1  0  0  0  0  0  0  0  0  0
   23.6231  -33.3827  -12.8388 C   0  0  0  0  0  0  0  0  0  0  0  0
   24.0495  -32.2073  -12.6412 O   0  0  0  0  0  0  0  0  0  0  0  0
   23.1033  -34.0686  -11.7139 N   0  0  0  0  0  0  0  0  0  0  0  0
   23.0941  -33.6491  -10.3605 C   0  0  1  0  0  0  0  0  0  0  0  0
   21.7596  -33.6088   -9.6507 C   0  0  0  0  0  0  0  0  0  0  0  0
   20.7024  -32.8423  -10.4022 C   0  0  0  0  0  0  0  0  0  0  0  0
   19.4223  -32.8326   -9.6472 C   0  0  0  0  0  0  0  0  0  0  0  0
   18.4505  -32.2236  -10.1182 O   0  0  0  0  0  0  0  0  0  0  0  0
   24.2123  -34.1060   -9.5228 C   0  0  0  0  0  0  0  0  0  0  0  0
   24.6632  -35.2892   -9.7026 O   0  0  0  0  0  0  0  0  0  0  0  0
   19.3051  -33.4847   -8.4447 O   0  0  0  0  0  0  0  0  0  0  0  0
   24.8139  -33.2989   -8.5266 N   0  0  0  0  0  0  0  0  0  0  0  0
   25.9321  -33.7858   -7.7612 C   0  0  1  0  0  0  0  0  0  0  0  0
   27.1940  -33.0100   -8.0960 C   0  0  0  0  0  0  0  0  0  0  0  0
   28.5361  -33.6956   -7.0520 S   0  0  0  0  0  0  0  0  0  0  0  0
   25.5974  -33.7188   -6.3264 C   0  0  0  0  0  0  0  0  0  0  0  0
   26.4532  -34.2833   -5.4008 O   0  0  0  0  0  0  0  0  0  0  0  0
   24.5513  -33.1625   -5.8921 O   0  0  0  0  0  0  0  0  0  0  0  0
  1  2  1  0
  2  3  1  0
  4  3  1  0
  5  4  1  0
  5  1  1  0
  6  7  2  0
  5  6  1  1
  8  6  1  0
  9 14  1  0
  9  8  1  0
  9 10  1  1
 11 12  1  0
 11 10  1  0
 12 13  2  0
 14 17  1  0
 15 14  2  0
 16 12  1  0
 17 18  1  0
 18 21  1  0
 18 19  1  1
 19 20  1  0
 21 23  2  0
 21 22  1  0
M  END
$$$$
