PEC.pdb
     RDKit          3D

 23 23  0  0  1  0  0  0  0  0999 V2000
   19.7307  -12.5066  -16.5021 N   0  0  0  0  0  0  0  0  0  0  0  0
   19.5723  -13.7348  -17.2812 C   0  0  0  0  0  0  0  0  0  0  0  0
   20.5371  -13.6206  -18.4248 C   0  0  0  0  0  0  0  0  0  0  0  0
   20.5517  -12.0999  -18.6460 C   0  0  0  0  0  0  0  0  0  0  0  0
   20.6878  -11.7085  -17.1834 C   0  0  1  0  0  0  0  0  0  0  0  0
   20.6722  -10.2691  -16.9325 C   0  0  0  0  0  0  0  0  0  0  0  0
   21.5515   -9.4928  -17.4085 O   0  0  0  0  0  0  0  0  0  0  0  0
   19.6626   -9.6748  -16.1365 N   0  0  0  0  0  0  0  0  0  0  0  0
   19.4607   -8.2994  -15.8621 C   0  0  1  0  0  0  0  0  0  0  0  0
   18.0798   -7.8707  -15.4198 C   0  0  0  0  0  0  0  0  0  0  0  0
   16.9802   -8.3571  -16.3278 C   0  0  0  0  0  0  0  0  0  0  0  0
   15.6488   -7.9520  -15.8062 C   0  0  0  0  0  0  0  0  0  0  0  0
   15.0809   -6.9692  -16.3049 O   0  0  0  0  0  0  0  0  0  0  0  0
   20.5594   -7.5958  -15.1849 C   0  0  0  0  0  0  0  0  0  0  0  0
   21.0513   -8.1140  -14.1241 O   0  0  0  0  0  0  0  0  0  0  0  0
   15.0463   -8.6477  -14.7874 O   0  0  0  0  0  0  0  0  0  0  0  0
   21.0989   -6.3720  -15.6508 N   0  0  0  0  0  0  0  0  0  0  0  0
   22.2358   -5.7741  -15.0003 C   0  0  1  0  0  0  0  0  0  0  0  0
   23.0851   -5.0050  -15.9971 C   0  0  0  0  0  0  0  0  0  0  0  0
   23.8120   -6.2375  -17.1434 S   0  0  0  0  0  0  0  0  0  0  0  0
   21.7626   -4.9226  -13.8930 C   0  0  0  0  0  0  0  0  0  0  0  0
   20.5285   -4.3091  -13.9856 O   0  0  0  0  0  0  0  0  0  0  0  0
   22.4380   -4.7217  -12.8461 O   0  0  0  0  0  0  0  0  0  0  0  0
  1  2  1  0
  2  3  1  0
  4  3  1  0
  5  4  1  0
  5  1  1  0
  6  7  2  0
  5  6  1  6
  8  6  1  0
  9 14  1  0
  9  8  1  0
  9 10  1  1
 11 12  1  0
 11 10  1  0
 12 13  2  0
 14 17  1  0
 15 14  2  0
 16 12  1  0
 17 18  1  0
 18 21  1  0
 18 19  1  6
 19 20  1  0
 21 23  2  0
 21 22  1  0
M  END
$$$$
