PEC.pdb
     RDKit          3D

 23 23  0  0  1  0  0  0  0  0999 V2000
   16.7485  -20.1169    3.5809 N   0  0  0  0  0  0  0  0  0  0  0  0
   16.0158  -20.1594    2.3153 C   0  0  0  0  0  0  0  0  0  0  0  0
   16.1943  -18.8052    1.6940 C   0  0  0  0  0  0  0  0  0  0  0  0
   16.2984  -17.9194    2.9453 C   0  0  0  0  0  0  0  0  0  0  0  0
   17.2721  -18.8029    3.7085 C   0  0  1  0  0  0  0  0  0  0  0  0
   17.6002  -18.3314    5.0521 C   0  0  0  0  0  0  0  0  0  0  0  0
   18.0136  -17.1551    5.2708 O   0  0  0  0  0  0  0  0  0  0  0  0
   17.4696  -19.1797    6.1787 N   0  0  0  0  0  0  0  0  0  0  0  0
   17.6251  -18.8472    7.5473 C   0  0  1  0  0  0  0  0  0  0  0  0
   16.5543  -19.3164    8.5062 C   0  0  0  0  0  0  0  0  0  0  0  0
   15.1687  -18.8598    8.1297 C   0  0  0  0  0  0  0  0  0  0  0  0
   14.1647  -19.3687    9.1000 C   0  0  0  0  0  0  0  0  0  0  0  0
   13.4178  -20.2984    8.7612 O   0  0  0  0  0  0  0  0  0  0  0  0
   18.9908  -18.9076    8.0876 C   0  0  0  0  0  0  0  0  0  0  0  0
   19.6735  -19.9723    7.8980 O   0  0  0  0  0  0  0  0  0  0  0  0
   14.0561  -18.8255   10.3563 O   0  0  0  0  0  0  0  0  0  0  0  0
   19.5864  -17.8435    8.8078 N   0  0  0  0  0  0  0  0  0  0  0  0
   20.9193  -17.9690    9.3380 C   0  0  1  0  0  0  0  0  0  0  0  0
   21.7041  -16.6848    9.1347 C   0  0  0  0  0  0  0  0  0  0  0  0
   22.9807  -17.0336    7.8658 S   0  0  0  0  0  0  0  0  0  0  0  0
   20.8364  -18.3559   10.7587 C   0  0  0  0  0  0  0  0  0  0  0  0
   21.9980  -18.5429   11.4822 O   0  0  0  0  0  0  0  0  0  0  0  0
   19.7398  -18.5280   11.3592 O   0  0  0  0  0  0  0  0  0  0  0  0
  1  2  1  0
  2  3  1  0
  4  3  1  0
  5  4  1  0
  5  1  1  0
  6  7  2  0
  5  6  1  1
  8  6  1  0
  9 14  1  0
  9  8  1  0
  9 10  1  1
 11 12  1  0
 11 10  1  0
 12 13  2  0
 14 17  1  0
 15 14  2  0
 16 12  1  0
 17 18  1  0
 18 21  1  0
 18 19  1  1
 19 20  1  0
 21 23  2  0
 21 22  1  0
M  END
$$$$
