PEC.pdb
     RDKit          3D

 23 23  0  0  1  0  0  0  0  0999 V2000
   24.7630  -12.8446  -15.9735 N   0  0  0  0  0  0  0  0  0  0  0  0
   25.2841  -14.1720  -16.3008 C   0  0  0  0  0  0  0  0  0  0  0  0
   25.8446  -14.0603  -17.6882 C   0  0  0  0  0  0  0  0  0  0  0  0
   24.9171  -12.9958  -18.2948 C   0  0  0  0  0  0  0  0  0  0  0  0
   24.9611  -12.0312  -17.1208 C   0  0  1  0  0  0  0  0  0  0  0  0
   24.1137  -10.8500  -17.2688 C   0  0  0  0  0  0  0  0  0  0  0  0
   24.2314  -10.0550  -18.2468 O   0  0  0  0  0  0  0  0  0  0  0  0
   23.1149  -10.5402  -16.3136 N   0  0  0  0  0  0  0  0  0  0  0  0
   22.1204   -9.5333  -16.3825 C   0  0  1  0  0  0  0  0  0  0  0  0
   20.6756   -9.9787  -16.4049 C   0  0  0  0  0  0  0  0  0  0  0  0
   20.1552  -10.3981  -15.0546 C   0  0  0  0  0  0  0  0  0  0  0  0
   18.7156  -10.7587  -15.1339 C   0  0  0  0  0  0  0  0  0  0  0  0
   17.8671   -9.9307  -14.7711 O   0  0  0  0  0  0  0  0  0  0  0  0
   22.3658   -8.3122  -15.6017 C   0  0  0  0  0  0  0  0  0  0  0  0
   22.8119   -8.4322  -14.4091 O   0  0  0  0  0  0  0  0  0  0  0  0
   18.3186  -11.9874  -15.6002 O   0  0  0  0  0  0  0  0  0  0  0  0
   22.1318   -7.0099  -16.1067 N   0  0  0  0  0  0  0  0  0  0  0  0
   22.4424   -5.8473  -15.3161 C   0  0  1  0  0  0  0  0  0  0  0  0
   22.6197   -4.6252  -16.2001 C   0  0  0  0  0  0  0  0  0  0  0  0
   22.9786   -3.2102  -15.0908 S   0  0  0  0  0  0  0  0  0  0  0  0
   21.3861   -5.6584  -14.3044 C   0  0  0  0  0  0  0  0  0  0  0  0
   21.7330   -5.2953  -13.0177 O   0  0  0  0  0  0  0  0  0  0  0  0
   20.1595   -5.8136  -14.5573 O   0  0  0  0  0  0  0  0  0  0  0  0
  1  2  1  0
  2  3  1  0
  4  3  1  0
  5  4  1  0
  5  1  1  0
  6  7  2  0
  5  6  1  6
  8  6  1  0
  9 14  1  0
  9  8  1  0
  9 10  1  1
 11 12  1  0
 11 10  1  0
 12 13  2  0
 14 17  1  0
 15 14  2  0
 16 12  1  0
 17 18  1  0
 18 21  1  0
 18 19  1  6
 19 20  1  0
 21 23  2  0
 21 22  1  0
M  END
$$$$
