PEC.pdb
     RDKit          3D

 23 23  0  0  1  0  0  0  0  0999 V2000
   21.0885  -12.4247  -16.8622 N   0  0  0  0  0  0  0  0  0  0  0  0
   21.0606  -13.5901  -17.7462 C   0  0  0  0  0  0  0  0  0  0  0  0
   21.1494  -13.0465  -19.1420 C   0  0  0  0  0  0  0  0  0  0  0  0
   20.4328  -11.6971  -18.9778 C   0  0  0  0  0  0  0  0  0  0  0  0
   21.1356  -11.2768  -17.6971 C   0  0  1  0  0  0  0  0  0  0  0  0
   20.6734  -10.0098  -17.1345 C   0  0  0  0  0  0  0  0  0  0  0  0
   20.8860   -8.9011  -17.7072 O   0  0  0  0  0  0  0  0  0  0  0  0
   19.9614   -9.9677  -15.9108 N   0  0  0  0  0  0  0  0  0  0  0  0
   19.4197   -8.8362  -15.2521 C   0  0  1  0  0  0  0  0  0  0  0  0
   18.1556   -9.0356  -14.4466 C   0  0  0  0  0  0  0  0  0  0  0  0
   17.0207   -9.6223  -15.2451 C   0  0  0  0  0  0  0  0  0  0  0  0
   15.8351   -9.8578  -14.3805 C   0  0  0  0  0  0  0  0  0  0  0  0
   15.0802   -8.9086  -14.1229 O   0  0  0  0  0  0  0  0  0  0  0  0
   20.3821   -7.9035  -14.6481 C   0  0  0  0  0  0  0  0  0  0  0  0
   21.4761   -8.3750  -14.1828 O   0  0  0  0  0  0  0  0  0  0  0  0
   15.5688  -11.1036  -13.8686 O   0  0  0  0  0  0  0  0  0  0  0  0
   20.1558   -6.5085  -14.5570 N   0  0  0  0  0  0  0  0  0  0  0  0
   21.2032   -5.6197  -14.1254 C   0  0  1  0  0  0  0  0  0  0  0  0
   22.4442   -5.7911  -14.9839 C   0  0  0  0  0  0  0  0  0  0  0  0
   23.6409   -4.5061  -14.4565 S   0  0  0  0  0  0  0  0  0  0  0  0
   20.6960   -4.2351  -14.1440 C   0  0  0  0  0  0  0  0  0  0  0  0
   19.8769   -3.8240  -15.1774 O   0  0  0  0  0  0  0  0  0  0  0  0
   20.9758   -3.3907  -13.2488 O   0  0  0  0  0  0  0  0  0  0  0  0
  1  2  1  0
  2  3  1  0
  4  3  1  0
  5  4  1  0
  5  1  1  0
  6  7  2  0
  5  6  1  1
  8  6  1  0
  9 14  1  0
  9  8  1  0
  9 10  1  1
 11 12  1  0
 11 10  1  0
 12 13  2  0
 14 17  1  0
 15 14  2  0
 16 12  1  0
 17 18  1  0
 18 21  1  0
 18 19  1  6
 19 20  1  0
 21 23  2  0
 21 22  1  0
M  END
$$$$
