PEC.pdb
     RDKit          3D

 23 23  0  0  1  0  0  0  0  0999 V2000
   16.8618  -11.1206  -11.8266 N   0  0  0  0  0  0  0  0  0  0  0  0
   16.6750  -12.2421  -12.7475 C   0  0  0  0  0  0  0  0  0  0  0  0
   16.5711  -11.6345  -14.1156 C   0  0  0  0  0  0  0  0  0  0  0  0
   15.9203  -10.2817  -13.7875 C   0  0  0  0  0  0  0  0  0  0  0  0
   16.8142   -9.9354  -12.6077 C   0  0  1  0  0  0  0  0  0  0  0  0
   16.4716   -8.6884  -11.9273 C   0  0  0  0  0  0  0  0  0  0  0  0
   16.3238   -7.5982  -12.5534 O   0  0  0  0  0  0  0  0  0  0  0  0
   16.2895   -8.6456  -10.5234 N   0  0  0  0  0  0  0  0  0  0  0  0
   15.7323   -7.6013   -9.7446 C   0  0  1  0  0  0  0  0  0  0  0  0
   15.1489   -7.9685   -8.3988 C   0  0  0  0  0  0  0  0  0  0  0  0
   14.6172   -6.7857   -7.6316 C   0  0  0  0  0  0  0  0  0  0  0  0
   13.1336   -6.7356   -7.7031 C   0  0  0  0  0  0  0  0  0  0  0  0
   12.5242   -7.6794   -8.2275 O   0  0  0  0  0  0  0  0  0  0  0  0
   16.4418   -6.3141   -9.7665 C   0  0  0  0  0  0  0  0  0  0  0  0
   17.5975   -6.2473   -9.2230 O   0  0  0  0  0  0  0  0  0  0  0  0
   12.4367   -5.6653   -7.1994 O   0  0  0  0  0  0  0  0  0  0  0  0
   15.9069   -5.1450  -10.3605 N   0  0  0  0  0  0  0  0  0  0  0  0
   16.6427   -3.9074  -10.3418 C   0  0  1  0  0  0  0  0  0  0  0  0
   16.8609   -3.3880  -11.7521 C   0  0  0  0  0  0  0  0  0  0  0  0
   17.7039   -1.7669  -11.6004 S   0  0  0  0  0  0  0  0  0  0  0  0
   15.9284   -2.9370   -9.4915 C   0  0  0  0  0  0  0  0  0  0  0  0
   16.6498   -2.0285   -8.7418 O   0  0  0  0  0  0  0  0  0  0  0  0
   14.6697   -2.8920   -9.4118 O   0  0  0  0  0  0  0  0  0  0  0  0
  1  2  1  0
  2  3  1  0
  4  3  1  0
  5  4  1  0
  5  1  1  0
  6  7  2  0
  5  6  1  1
  8  6  1  0
  9 14  1  0
  9  8  1  0
  9 10  1  1
 11 12  1  0
 11 10  1  0
 12 13  2  0
 14 17  1  0
 15 14  2  0
 16 12  1  0
 17 18  1  0
 18 21  1  0
 18 19  1  6
 19 20  1  0
 21 23  2  0
 21 22  1  0
M  END
$$$$
