PEC.pdb
     RDKit          3D

 23 23  0  0  1  0  0  0  0  0999 V2000
   20.1409   -9.0107  -16.3071 N   0  0  0  0  0  0  0  0  0  0  0  0
   20.9792   -9.7138  -17.2784 C   0  0  0  0  0  0  0  0  0  0  0  0
   21.6843  -10.7901  -16.5063 C   0  0  0  0  0  0  0  0  0  0  0  0
   21.8150  -10.1246  -15.1274 C   0  0  0  0  0  0  0  0  0  0  0  0
   20.3877   -9.6085  -15.0426 C   0  0  1  0  0  0  0  0  0  0  0  0
   20.0944   -8.8170  -13.8498 C   0  0  0  0  0  0  0  0  0  0  0  0
   20.3140   -9.2526  -12.6817 O   0  0  0  0  0  0  0  0  0  0  0  0
   19.5448   -7.5156  -13.9506 N   0  0  0  0  0  0  0  0  0  0  0  0
   19.2428   -6.6096  -12.9039 C   0  0  1  0  0  0  0  0  0  0  0  0
   19.6676   -5.1694  -13.0821 C   0  0  0  0  0  0  0  0  0  0  0  0
   21.1342   -5.0092  -13.3881 C   0  0  0  0  0  0  0  0  0  0  0  0
   21.4689   -3.5814  -13.6288 C   0  0  0  0  0  0  0  0  0  0  0  0
   22.1098   -2.9603  -12.7683 O   0  0  0  0  0  0  0  0  0  0  0  0
   17.9413   -6.7798  -12.2421 C   0  0  0  0  0  0  0  0  0  0  0  0
   16.9200   -7.0403  -12.9665 O   0  0  0  0  0  0  0  0  0  0  0  0
   21.0798   -2.9483  -14.7833 O   0  0  0  0  0  0  0  0  0  0  0  0
   17.7644   -6.6690  -10.8413 N   0  0  0  0  0  0  0  0  0  0  0  0
   16.4504   -6.7442  -10.2573 C   0  0  1  0  0  0  0  0  0  0  0  0
   16.3259   -7.9663   -9.3644 C   0  0  0  0  0  0  0  0  0  0  0  0
   14.6338   -7.9428   -8.6587 S   0  0  0  0  0  0  0  0  0  0  0  0
   16.1748   -5.4900   -9.5321 C   0  0  0  0  0  0  0  0  0  0  0  0
   14.8730   -5.0434   -9.4148 O   0  0  0  0  0  0  0  0  0  0  0  0
   17.0825   -4.7907   -9.0031 O   0  0  0  0  0  0  0  0  0  0  0  0
  1  2  1  0
  2  3  1  0
  4  3  1  0
  5  4  1  0
  5  1  1  0
  6  7  2  0
  5  6  1  1
  8  6  1  0
  9 14  1  0
  9  8  1  0
  9 10  1  6
 11 12  1  0
 11 10  1  0
 12 13  2  0
 14 17  1  0
 15 14  2  0
 16 12  1  0
 17 18  1  0
 18 21  1  0
 18 19  1  1
 19 20  1  0
 21 23  2  0
 21 22  1  0
M  END
$$$$
