DEQ.pdb
     RDKit          3D

 27 26  0  0  1  0  0  0  0  0999 V2000
   25.3234  -20.2185  -14.8002 N   0  0  0  0  0  0  0  0  0  0  0  0
   24.2328  -21.1546  -14.7433 C   0  0  1  0  0  0  0  0  0  0  0  0
   24.8514  -22.5419  -14.6054 C   0  0  0  0  0  0  0  0  0  0  0  0
   25.7459  -22.7963  -15.7425 C   0  0  0  0  0  0  0  0  0  0  0  0
   26.8780  -23.2948  -15.5453 O   0  0  0  0  0  0  0  0  0  0  0  0
   23.2566  -20.8745  -13.6914 C   0  0  0  0  0  0  0  0  0  0  0  0
   23.6324  -20.2413  -12.6806 O   0  0  0  0  0  0  0  0  0  0  0  0
   25.4017  -22.5089  -17.0636 O   0  0  0  0  0  0  0  0  0  0  0  0
   21.9224  -21.2897  -13.7786 N   0  0  0  0  0  0  0  0  0  0  0  0
   20.9029  -20.9935  -12.7623 C   0  0  1  0  0  0  0  0  0  0  0  0
   20.0250  -19.8852  -13.1825 C   0  0  0  0  0  0  0  0  0  0  0  0
   19.2768  -20.1896  -14.4405 C   0  0  0  0  0  0  0  0  0  0  0  0
   18.3353  -19.1311  -14.8716 C   0  0  0  0  0  0  0  0  0  0  0  0
   18.6151  -18.2803  -15.7304 O   0  0  0  0  0  0  0  0  0  0  0  0
   20.1391  -22.2328  -12.4994 C   0  0  0  0  0  0  0  0  0  0  0  0
   19.8853  -23.0978  -13.3731 O   0  0  0  0  0  0  0  0  0  0  0  0
   17.0446  -19.0452  -14.3063 O   0  0  0  0  0  0  0  0  0  0  0  0
   19.0552  -24.6734   -6.8348 N   0  0  0  0  0  0  0  0  0  0  0  0
   18.3133  -25.5382   -7.6766 C   0  0  0  0  0  0  0  0  0  0  0  0
   17.7700  -26.5709   -7.2444 O   0  0  0  0  0  0  0  0  0  0  0  0
   18.1682  -25.2179   -9.1269 C   0  0  0  0  0  0  0  0  0  0  0  0
   18.8345  -23.9271   -9.4692 C   0  0  0  0  0  0  0  0  0  0  0  0
   18.8335  -23.6850  -10.9409 C   0  0  2  0  0  0  0  0  0  0  0  0
   19.6462  -22.4922  -11.1849 N   0  0  0  0  0  0  0  0  0  0  0  0
   17.5023  -23.5174  -11.5531 C   0  0  0  0  0  0  0  0  0  0  0  0
   16.8995  -22.2395  -11.5028 O   0  0  0  0  0  0  0  0  0  0  0  0
   16.8587  -24.4272  -12.1191 O   0  0  0  0  0  0  0  0  0  0  0  0
  2  1  1  1
  3  2  1  0
  4  3  1  0
  5  4  2  0
  6  7  2  0
  6  2  1  0
  8  4  1  0
  9  6  1  0
 10 11  1  6
 10  9  1  0
 11 12  1  0
 13 17  1  0
 13 12  1  0
 14 13  2  0
 15 10  1  0
 15 16  2  0
 19 18  1  0
 20 19  2  0
 21 19  1  0
 22 21  1  0
 23 22  1  1
 23 24  1  0
 24 15  1  0
 25 23  1  0
 26 25  1  0
 27 25  2  0
M  END
$$$$
