DEQ.pdb
     RDKit          3D

 27 26  0  0  1  0  0  0  0  0999 V2000
   15.2038  -12.5733  -12.4242 N   0  0  0  0  0  0  0  0  0  0  0  0
   15.1957  -11.2686  -13.0297 C   0  0  1  0  0  0  0  0  0  0  0  0
   13.7354  -10.9149  -13.2919 C   0  0  0  0  0  0  0  0  0  0  0  0
   13.1619  -11.8719  -14.2474 C   0  0  0  0  0  0  0  0  0  0  0  0
   12.2501  -12.6484  -13.8803 O   0  0  0  0  0  0  0  0  0  0  0  0
   15.8848  -10.2414  -12.2500 C   0  0  0  0  0  0  0  0  0  0  0  0
   15.8522  -10.3161  -11.0021 O   0  0  0  0  0  0  0  0  0  0  0  0
   13.5824  -11.9708  -15.5740 O   0  0  0  0  0  0  0  0  0  0  0  0
   16.5760   -9.1829  -12.8516 N   0  0  0  0  0  0  0  0  0  0  0  0
   17.3728   -8.1961  -12.1092 C   0  0  1  0  0  0  0  0  0  0  0  0
   18.6002   -7.8299  -12.8405 C   0  0  0  0  0  0  0  0  0  0  0  0
   19.6887   -8.8421  -12.6804 C   0  0  0  0  0  0  0  0  0  0  0  0
   20.9793   -8.4659  -13.3011 C   0  0  0  0  0  0  0  0  0  0  0  0
   21.7796   -7.6736  -12.7798 O   0  0  0  0  0  0  0  0  0  0  0  0
   16.5178   -7.0187  -11.8423 C   0  0  0  0  0  0  0  0  0  0  0  0
   15.7864   -6.4742  -12.7052 O   0  0  0  0  0  0  0  0  0  0  0  0
   21.3618   -9.0090  -14.5468 O   0  0  0  0  0  0  0  0  0  0  0  0
   13.6718   -5.7994   -6.5964 N   0  0  0  0  0  0  0  0  0  0  0  0
   13.2614   -6.5967   -7.6931 C   0  0  0  0  0  0  0  0  0  0  0  0
   12.3493   -7.4370   -7.5910 O   0  0  0  0  0  0  0  0  0  0  0  0
   13.9307   -6.4384   -9.0175 C   0  0  0  0  0  0  0  0  0  0  0  0
   15.0347   -5.4362   -8.9538 C   0  0  0  0  0  0  0  0  0  0  0  0
   15.6836   -5.2528  -10.2841 C   0  0  2  0  0  0  0  0  0  0  0  0
   16.4992   -6.4418  -10.5365 N   0  0  0  0  0  0  0  0  0  0  0  0
   16.5109   -4.0398  -10.4221 C   0  0  0  0  0  0  0  0  0  0  0  0
   15.8641   -2.7828  -10.3959 O   0  0  0  0  0  0  0  0  0  0  0  0
   17.7529   -4.0366  -10.5619 O   0  0  0  0  0  0  0  0  0  0  0  0
  2  1  1  1
  3  2  1  0
  4  3  1  0
  5  4  2  0
  6  7  2  0
  6  2  1  0
  8  4  1  0
  9  6  1  0
 10 11  1  6
 10  9  1  0
 11 12  1  0
 13 17  1  0
 13 12  1  0
 14 13  2  0
 15 10  1  0
 15 16  2  0
 19 18  1  0
 20 19  2  0
 21 19  1  0
 22 21  1  0
 23 22  1  1
 23 24  1  0
 24 15  1  0
 25 23  1  0
 26 25  1  0
 27 25  2  0
M  END
$$$$
