DEQ.pdb
     RDKit          3D

 27 26  0  0  1  0  0  0  0  0999 V2000
   25.6749  -19.7728  -17.4359 N   0  0  0  0  0  0  0  0  0  0  0  0
   25.1383  -18.4477  -17.5943 C   0  0  1  0  0  0  0  0  0  0  0  0
   25.7852  -17.8581  -18.8434 C   0  0  0  0  0  0  0  0  0  0  0  0
   27.2456  -17.8540  -18.6851 C   0  0  0  0  0  0  0  0  0  0  0  0
   27.7621  -18.3446  -17.6548 O   0  0  0  0  0  0  0  0  0  0  0  0
   23.6781  -18.3945  -17.6471 C   0  0  0  0  0  0  0  0  0  0  0  0
   23.1296  -17.3081  -17.9350 O   0  0  0  0  0  0  0  0  0  0  0  0
   28.1151  -17.3229  -19.6382 O   0  0  0  0  0  0  0  0  0  0  0  0
   22.8784  -19.5140  -17.3874 N   0  0  0  0  0  0  0  0  0  0  0  0
   21.4089  -19.4928  -17.3978 C   0  0  1  0  0  0  0  0  0  0  0  0
   20.8521  -20.7674  -17.8884 C   0  0  0  0  0  0  0  0  0  0  0  0
   21.0246  -20.9405  -19.3633 C   0  0  0  0  0  0  0  0  0  0  0  0
   20.3973  -22.1607  -19.9203 C   0  0  0  0  0  0  0  0  0  0  0  0
   20.3613  -22.4134  -21.1347 O   0  0  0  0  0  0  0  0  0  0  0  0
   20.9419  -19.1770  -16.0300 C   0  0  0  0  0  0  0  0  0  0  0  0
   21.5677  -19.4876  -14.9870 O   0  0  0  0  0  0  0  0  0  0  0  0
   19.7978  -23.1126  -19.0675 O   0  0  0  0  0  0  0  0  0  0  0  0
   16.7877  -14.7825  -14.4236 N   0  0  0  0  0  0  0  0  0  0  0  0
   17.0909  -15.3955  -13.1830 C   0  0  0  0  0  0  0  0  0  0  0  0
   16.6345  -14.9663  -12.1078 O   0  0  0  0  0  0  0  0  0  0  0  0
   17.9818  -16.5921  -13.1444 C   0  0  0  0  0  0  0  0  0  0  0  0
   18.4407  -16.9741  -14.5121 C   0  0  0  0  0  0  0  0  0  0  0  0
   19.1962  -18.2600  -14.4958 C   0  0  2  0  0  0  0  0  0  0  0  0
   19.7101  -18.4784  -15.8489 N   0  0  0  0  0  0  0  0  0  0  0  0
   18.4276  -19.4392  -14.0559 C   0  0  0  0  0  0  0  0  0  0  0  0
   18.3687  -19.7206  -12.6715 O   0  0  0  0  0  0  0  0  0  0  0  0
   17.8176  -20.2178  -14.8201 O   0  0  0  0  0  0  0  0  0  0  0  0
  2  1  1  6
  3  2  1  0
  4  3  1  0
  5  4  2  0
  6  7  2  0
  6  2  1  0
  8  4  1  0
  9  6  1  0
 10 11  1  1
 10  9  1  0
 11 12  1  0
 13 17  1  0
 13 12  1  0
 14 13  2  0
 15 10  1  0
 15 16  2  0
 19 18  1  0
 20 19  2  0
 21 19  1  0
 22 21  1  0
 23 22  1  6
 23 24  1  0
 24 15  1  0
 25 23  1  0
 26 25  1  0
 27 25  2  0
M  END
$$$$
