DEQ.pdb
     RDKit          3D

 27 26  0  0  1  0  0  0  0  0999 V2000
   17.8519  -12.4309  -15.4673 N   0  0  0  0  0  0  0  0  0  0  0  0
   18.0571  -11.1820  -16.1506 C   0  0  1  0  0  0  0  0  0  0  0  0
   16.8208  -10.3286  -15.8869 C   0  0  0  0  0  0  0  0  0  0  0  0
   15.6593  -10.9250  -16.5599 C   0  0  0  0  0  0  0  0  0  0  0  0
   15.7913  -11.9926  -17.2017 O   0  0  0  0  0  0  0  0  0  0  0  0
   19.2948  -10.4948  -15.7849 C   0  0  0  0  0  0  0  0  0  0  0  0
   19.5596  -10.3456  -14.5718 O   0  0  0  0  0  0  0  0  0  0  0  0
   14.3844  -10.3595  -16.5266 O   0  0  0  0  0  0  0  0  0  0  0  0
   20.1882  -10.0012  -16.7432 N   0  0  0  0  0  0  0  0  0  0  0  0
   21.4920   -9.4052  -16.4194 C   0  0  1  0  0  0  0  0  0  0  0  0
   22.5349   -9.8338  -17.3703 C   0  0  0  0  0  0  0  0  0  0  0  0
   22.9603  -11.2510  -17.1570 C   0  0  0  0  0  0  0  0  0  0  0  0
   24.0008  -11.7322  -18.0942 C   0  0  0  0  0  0  0  0  0  0  0  0
   23.7824  -12.5738  -18.9795 O   0  0  0  0  0  0  0  0  0  0  0  0
   21.3351   -7.9343  -16.3990 C   0  0  0  0  0  0  0  0  0  0  0  0
   20.7545   -7.2793  -17.2988 O   0  0  0  0  0  0  0  0  0  0  0  0
   25.3210  -11.2384  -18.0157 O   0  0  0  0  0  0  0  0  0  0  0  0
   17.4372   -5.0859  -15.6007 N   0  0  0  0  0  0  0  0  0  0  0  0
   18.2042   -4.0326  -15.0445 C   0  0  0  0  0  0  0  0  0  0  0  0
   17.7107   -2.9163  -14.8016 O   0  0  0  0  0  0  0  0  0  0  0  0
   19.6477   -4.2493  -14.7341 C   0  0  0  0  0  0  0  0  0  0  0  0
   20.0645   -5.6511  -15.0311 C   0  0  0  0  0  0  0  0  0  0  0  0
   21.5439   -5.7602  -15.1856 C   0  0  2  0  0  0  0  0  0  0  0  0
   21.8637   -7.1837  -15.3057 N   0  0  0  0  0  0  0  0  0  0  0  0
   22.3391   -5.1586  -14.0991 C   0  0  0  0  0  0  0  0  0  0  0  0
   22.7639   -5.9936  -13.0401 O   0  0  0  0  0  0  0  0  0  0  0  0
   22.6704   -3.9548  -14.0410 O   0  0  0  0  0  0  0  0  0  0  0  0
  2  1  1  1
  3  2  1  0
  4  3  1  0
  5  4  2  0
  6  7  2  0
  6  2  1  0
  8  4  1  0
  9  6  1  0
 10 11  1  6
 10  9  1  0
 11 12  1  0
 13 17  1  0
 13 12  1  0
 14 13  2  0
 15 10  1  0
 15 16  2  0
 19 18  1  0
 20 19  2  0
 21 19  1  0
 22 21  1  0
 23 22  1  1
 23 24  1  0
 24 15  1  0
 25 23  1  0
 26 25  1  0
 27 25  2  0
M  END
$$$$
