DEQ.pdb
     RDKit          3D

 27 26  0  0  1  0  0  0  0  0999 V2000
   26.5221  -34.4250   -4.2533 N   0  0  0  0  0  0  0  0  0  0  0  0
   26.3676  -33.5625   -3.1126 C   0  0  1  0  0  0  0  0  0  0  0  0
   25.1970  -32.6341   -3.4191 C   0  0  0  0  0  0  0  0  0  0  0  0
   25.0592  -31.6448   -2.3420 C   0  0  0  0  0  0  0  0  0  0  0  0
   25.8708  -31.6454   -1.3878 O   0  0  0  0  0  0  0  0  0  0  0  0
   26.1982  -34.2702   -1.8444 C   0  0  0  0  0  0  0  0  0  0  0  0
   25.1954  -35.0030   -1.6983 O   0  0  0  0  0  0  0  0  0  0  0  0
   24.0527  -30.6791   -2.3169 O   0  0  0  0  0  0  0  0  0  0  0  0
   27.1168  -34.1548   -0.7942 N   0  0  0  0  0  0  0  0  0  0  0  0
   26.9077  -34.7231    0.5449 C   0  0  1  0  0  0  0  0  0  0  0  0
   28.0650  -35.5280    0.9788 C   0  0  0  0  0  0  0  0  0  0  0  0
   28.0120  -36.9326    0.4693 C   0  0  0  0  0  0  0  0  0  0  0  0
   29.1376  -37.7909    0.9038 C   0  0  0  0  0  0  0  0  0  0  0  0
   29.5756  -38.7334    0.2258 O   0  0  0  0  0  0  0  0  0  0  0  0
   26.6276  -33.6113    1.4798 C   0  0  0  0  0  0  0  0  0  0  0  0
   26.9177  -32.4120    1.2488 O   0  0  0  0  0  0  0  0  0  0  0  0
   29.7756  -37.5650    2.1427 O   0  0  0  0  0  0  0  0  0  0  0  0
   22.5544  -30.5535    2.0114 N   0  0  0  0  0  0  0  0  0  0  0  0
   23.1687  -30.0332    3.1771 C   0  0  0  0  0  0  0  0  0  0  0  0
   22.6760  -29.0835    3.8127 O   0  0  0  0  0  0  0  0  0  0  0  0
   24.4443  -30.6284    3.6727 C   0  0  0  0  0  0  0  0  0  0  0  0
   24.8660  -31.7889    2.8345 C   0  0  0  0  0  0  0  0  0  0  0  0
   25.6578  -32.7749    3.6252 C   0  0  2  0  0  0  0  0  0  0  0  0
   25.9907  -33.8830    2.7283 N   0  0  0  0  0  0  0  0  0  0  0  0
   24.9944  -33.2932    4.8360 C   0  0  0  0  0  0  0  0  0  0  0  0
   25.1519  -32.5752    6.0438 O   0  0  0  0  0  0  0  0  0  0  0  0
   24.2960  -34.3289    4.8779 O   0  0  0  0  0  0  0  0  0  0  0  0
  2  1  1  6
  3  2  1  0
  4  3  1  0
  5  4  2  0
  6  7  2  0
  6  2  1  0
  8  4  1  0
  9  6  1  0
 10 11  1  1
 10  9  1  0
 11 12  1  0
 13 17  1  0
 13 12  1  0
 14 13  2  0
 15 10  1  0
 15 16  2  0
 19 18  1  0
 20 19  2  0
 21 19  1  0
 22 21  1  0
 23 22  1  6
 23 24  1  0
 24 15  1  0
 25 23  1  0
 26 25  1  0
 27 25  2  0
M  END
$$$$
