DEQ.pdb
     RDKit          3D

 27 26  0  0  1  0  0  0  0  0999 V2000
   13.3238  -11.0017   -9.7385 N   0  0  0  0  0  0  0  0  0  0  0  0
   14.5945  -10.3818  -10.0032 C   0  0  1  0  0  0  0  0  0  0  0  0
   15.0930  -10.9500  -11.3279 C   0  0  0  0  0  0  0  0  0  0  0  0
   15.1615  -12.4147  -11.2397 C   0  0  0  0  0  0  0  0  0  0  0  0
   14.8066  -12.9928  -10.1867 O   0  0  0  0  0  0  0  0  0  0  0  0
   14.5600   -8.9201  -10.0035 C   0  0  0  0  0  0  0  0  0  0  0  0
   13.4603   -8.3482  -10.1695 O   0  0  0  0  0  0  0  0  0  0  0  0
   15.6096  -13.2221  -12.2856 O   0  0  0  0  0  0  0  0  0  0  0  0
   15.7116   -8.1442   -9.8249 N   0  0  0  0  0  0  0  0  0  0  0  0
   15.7072   -6.6770   -9.7392 C   0  0  1  0  0  0  0  0  0  0  0  0
   14.8702   -6.2020   -8.6215 C   0  0  0  0  0  0  0  0  0  0  0  0
   14.7490   -4.7123   -8.5864 C   0  0  0  0  0  0  0  0  0  0  0  0
   13.8548   -4.1893   -7.5284 C   0  0  0  0  0  0  0  0  0  0  0  0
   13.2680   -4.9172   -6.7124 O   0  0  0  0  0  0  0  0  0  0  0  0
   17.1078   -6.2175   -9.6133 C   0  0  0  0  0  0  0  0  0  0  0  0
   17.9081   -6.6400   -8.7433 O   0  0  0  0  0  0  0  0  0  0  0  0
   13.6275   -2.8017   -7.4021 O   0  0  0  0  0  0  0  0  0  0  0  0
   19.4556   -9.2001  -12.7872 N   0  0  0  0  0  0  0  0  0  0  0  0
   20.5260   -8.2801  -12.9086 C   0  0  0  0  0  0  0  0  0  0  0  0
   21.6116   -8.5981  -13.4271 O   0  0  0  0  0  0  0  0  0  0  0  0
   20.3657   -6.8842  -12.4056 C   0  0  0  0  0  0  0  0  0  0  0  0
   19.0540   -6.7001  -11.7179 C   0  0  0  0  0  0  0  0  0  0  0  0
   18.9708   -5.3708  -11.0468 C   0  0  2  0  0  0  0  0  0  0  0  0
   17.6121   -5.2357  -10.5188 N   0  0  0  0  0  0  0  0  0  0  0  0
   19.2942   -4.2112  -11.8986 C   0  0  0  0  0  0  0  0  0  0  0  0
   18.2281   -3.4156  -12.3779 O   0  0  0  0  0  0  0  0  0  0  0  0
   20.4501   -3.8733  -12.2334 O   0  0  0  0  0  0  0  0  0  0  0  0
  2  1  1  6
  3  2  1  0
  4  3  1  0
  5  4  2  0
  6  7  2  0
  6  2  1  0
  8  4  1  0
  9  6  1  0
 10 11  1  1
 10  9  1  0
 11 12  1  0
 13 17  1  0
 13 12  1  0
 14 13  2  0
 15 10  1  0
 15 16  2  0
 19 18  1  0
 20 19  2  0
 21 19  1  0
 22 21  1  0
 23 22  1  6
 23 24  1  0
 24 15  1  0
 25 23  1  0
 26 25  1  0
 27 25  2  0
M  END
$$$$
