DEQ.pdb
     RDKit          3D

 27 26  0  0  1  0  0  0  0  0999 V2000
   16.0330  -24.3901    1.7611 N   0  0  0  0  0  0  0  0  0  0  0  0
   15.8886  -24.9367    3.0837 C   0  0  1  0  0  0  0  0  0  0  0  0
   16.3751  -26.3807    3.0179 C   0  0  0  0  0  0  0  0  0  0  0  0
   15.6385  -27.1002    1.9703 C   0  0  0  0  0  0  0  0  0  0  0  0
   14.5673  -27.6853    2.2517 O   0  0  0  0  0  0  0  0  0  0  0  0
   16.5667  -24.1690    4.1271 C   0  0  0  0  0  0  0  0  0  0  0  0
   16.9728  -23.0182    3.8539 O   0  0  0  0  0  0  0  0  0  0  0  0
   16.0712  -27.1731    0.6459 O   0  0  0  0  0  0  0  0  0  0  0  0
   16.7748  -24.6774    5.4149 N   0  0  0  0  0  0  0  0  0  0  0  0
   17.2006  -23.8610    6.5604 C   0  0  1  0  0  0  0  0  0  0  0  0
   16.2709  -22.7421    6.8036 C   0  0  0  0  0  0  0  0  0  0  0  0
   16.7101  -21.8643    7.9313 C   0  0  0  0  0  0  0  0  0  0  0  0
   15.8363  -20.6953    8.1815 C   0  0  0  0  0  0  0  0  0  0  0  0
   15.9704  -19.6084    7.5979 O   0  0  0  0  0  0  0  0  0  0  0  0
   17.3188  -24.7461    7.7398 C   0  0  0  0  0  0  0  0  0  0  0  0
   16.3798  -25.4517    8.1830 O   0  0  0  0  0  0  0  0  0  0  0  0
   14.7856  -20.7728    9.1212 O   0  0  0  0  0  0  0  0  0  0  0  0
   22.4268  -29.0278   10.7431 N   0  0  0  0  0  0  0  0  0  0  0  0
   21.9245  -27.9721    9.9431 C   0  0  0  0  0  0  0  0  0  0  0  0
   22.6389  -27.3743    9.1180 O   0  0  0  0  0  0  0  0  0  0  0  0
   20.4995  -27.5506   10.0798 C   0  0  0  0  0  0  0  0  0  0  0  0
   20.1935  -26.3748    9.2131 C   0  0  0  0  0  0  0  0  0  0  0  0
   18.7847  -25.9181    9.3892 C   0  0  2  0  0  0  0  0  0  0  0  0
   18.5606  -24.8268    8.4396 N   0  0  0  0  0  0  0  0  0  0  0  0
   18.4282  -25.4779   10.7508 C   0  0  0  0  0  0  0  0  0  0  0  0
   18.0773  -26.4636   11.7017 O   0  0  0  0  0  0  0  0  0  0  0  0
   18.4119  -24.2881   11.1336 O   0  0  0  0  0  0  0  0  0  0  0  0
  2  1  1  6
  3  2  1  0
  4  3  1  0
  5  4  2  0
  6  7  2  0
  6  2  1  0
  8  4  1  0
  9  6  1  0
 10 11  1  1
 10  9  1  0
 11 12  1  0
 13 17  1  0
 13 12  1  0
 14 13  2  0
 15 10  1  0
 15 16  2  0
 19 18  1  0
 20 19  2  0
 21 19  1  0
 22 21  1  0
 23 22  1  1
 23 24  1  0
 24 15  1  0
 25 23  1  0
 26 25  1  0
 27 25  2  0
M  END
$$$$
