DEQ.pdb
     RDKit          3D

 27 26  0  0  1  0  0  0  0  0999 V2000
   25.4632  -17.8312  -18.8336 N   0  0  0  0  0  0  0  0  0  0  0  0
   25.5301  -18.0229  -17.4096 C   0  0  1  0  0  0  0  0  0  0  0  0
   26.8380  -17.3926  -16.9424 C   0  0  0  0  0  0  0  0  0  0  0  0
   27.9705  -18.0978  -17.5573 C   0  0  0  0  0  0  0  0  0  0  0  0
   27.7614  -19.0877  -18.2958 O   0  0  0  0  0  0  0  0  0  0  0  0
   24.3729  -17.5066  -16.6801 C   0  0  0  0  0  0  0  0  0  0  0  0
   24.3628  -17.5989  -15.4330 O   0  0  0  0  0  0  0  0  0  0  0  0
   29.2999  -17.7217  -17.3633 O   0  0  0  0  0  0  0  0  0  0  0  0
   23.2819  -16.9156  -17.3287 N   0  0  0  0  0  0  0  0  0  0  0  0
   22.0620  -16.4694  -16.6412 C   0  0  1  0  0  0  0  0  0  0  0  0
   21.5519  -15.2066  -17.2073 C   0  0  0  0  0  0  0  0  0  0  0  0
   20.3203  -14.7210  -16.5127 C   0  0  0  0  0  0  0  0  0  0  0  0
   19.6967  -13.5250  -17.1236 C   0  0  0  0  0  0  0  0  0  0  0  0
   18.6984  -12.9609  -16.6491 O   0  0  0  0  0  0  0  0  0  0  0  0
   21.0610  -17.5556  -16.7253 C   0  0  0  0  0  0  0  0  0  0  0  0
   21.2124  -18.5960  -17.4112 O   0  0  0  0  0  0  0  0  0  0  0  0
   20.2281  -12.9626  -18.3044 O   0  0  0  0  0  0  0  0  0  0  0  0
   22.1026  -20.6929  -13.1011 N   0  0  0  0  0  0  0  0  0  0  0  0
   20.8675  -21.3454  -13.3370 C   0  0  0  0  0  0  0  0  0  0  0  0
   20.6284  -22.4826  -12.8919 O   0  0  0  0  0  0  0  0  0  0  0  0
   19.8101  -20.6649  -14.1407 C   0  0  0  0  0  0  0  0  0  0  0  0
   20.2342  -19.2936  -14.5493 C   0  0  0  0  0  0  0  0  0  0  0  0
   19.2221  -18.6502  -15.4359 C   0  0  2  0  0  0  0  0  0  0  0  0
   19.8387  -17.4463  -15.9959 N   0  0  0  0  0  0  0  0  0  0  0  0
   17.9438  -18.3025  -14.7879 C   0  0  0  0  0  0  0  0  0  0  0  0
   16.8416  -19.1678  -14.9763 O   0  0  0  0  0  0  0  0  0  0  0  0
   17.7570  -17.2913  -14.0773 O   0  0  0  0  0  0  0  0  0  0  0  0
  2  1  1  6
  3  2  1  0
  4  3  1  0
  5  4  2  0
  6  7  2  0
  6  2  1  0
  8  4  1  0
  9  6  1  0
 10 11  1  6
 10  9  1  0
 11 12  1  0
 13 17  1  0
 13 12  1  0
 14 13  2  0
 15 10  1  0
 15 16  2  0
 19 18  1  0
 20 19  2  0
 21 19  1  0
 22 21  1  0
 23 22  1  1
 23 24  1  0
 24 15  1  0
 25 23  1  0
 26 25  1  0
 27 25  2  0
M  END
$$$$
