DEQ.pdb
     RDKit          3D

 27 26  0  0  1  0  0  0  0  0999 V2000
   20.3976  -12.4604  -15.7544 N   0  0  0  0  0  0  0  0  0  0  0  0
   19.7544  -11.9623  -16.9407 C   0  0  1  0  0  0  0  0  0  0  0  0
   18.5962  -12.9077  -17.2424 C   0  0  0  0  0  0  0  0  0  0  0  0
   18.7384  -14.1305  -16.4409 C   0  0  0  0  0  0  0  0  0  0  0  0
   19.6478  -14.2112  -15.5833 O   0  0  0  0  0  0  0  0  0  0  0  0
   19.3239  -10.5680  -16.8488 C   0  0  0  0  0  0  0  0  0  0  0  0
   18.9006  -10.0039  -17.8816 O   0  0  0  0  0  0  0  0  0  0  0  0
   17.8996  -15.2365  -16.5808 O   0  0  0  0  0  0  0  0  0  0  0  0
   19.3699   -9.8479  -15.6490 N   0  0  0  0  0  0  0  0  0  0  0  0
   19.0156   -8.4264  -15.5312 C   0  0  1  0  0  0  0  0  0  0  0  0
   17.9372   -8.2166  -14.5471 C   0  0  0  0  0  0  0  0  0  0  0  0
   16.5822   -8.5075  -15.1081 C   0  0  0  0  0  0  0  0  0  0  0  0
   15.4645   -8.3152  -14.1561 C   0  0  0  0  0  0  0  0  0  0  0  0
   15.0625   -9.2049  -13.3902 O   0  0  0  0  0  0  0  0  0  0  0  0
   20.2389   -7.6733  -15.1778 C   0  0  0  0  0  0  0  0  0  0  0  0
   21.3030   -8.2105  -14.7842 O   0  0  0  0  0  0  0  0  0  0  0  0
   14.7920   -7.0762  -14.0798 O   0  0  0  0  0  0  0  0  0  0  0  0
   24.4733   -6.8087  -17.7045 N   0  0  0  0  0  0  0  0  0  0  0  0
   23.4606   -5.9550  -18.2071 C   0  0  0  0  0  0  0  0  0  0  0  0
   23.4278   -5.6044  -19.4007 O   0  0  0  0  0  0  0  0  0  0  0  0
   22.3934   -5.4513  -17.2936 C   0  0  0  0  0  0  0  0  0  0  0  0
   22.5237   -6.0381  -15.9276 C   0  0  0  0  0  0  0  0  0  0  0  0
   21.4780   -5.5106  -15.0042 C   0  0  2  0  0  0  0  0  0  0  0  0
   20.2443   -6.2492  -15.2789 N   0  0  0  0  0  0  0  0  0  0  0  0
   21.2248   -4.0608  -15.0980 C   0  0  0  0  0  0  0  0  0  0  0  0
   22.2245   -3.1761  -14.6322 O   0  0  0  0  0  0  0  0  0  0  0  0
   20.1838   -3.5479  -15.5623 O   0  0  0  0  0  0  0  0  0  0  0  0
  2  1  1  1
  3  2  1  0
  4  3  1  0
  5  4  2  0
  6  7  2  0
  6  2  1  0
  8  4  1  0
  9  6  1  0
 10 11  1  1
 10  9  1  0
 11 12  1  0
 13 17  1  0
 13 12  1  0
 14 13  2  0
 15 10  1  0
 15 16  2  0
 19 18  1  0
 20 19  2  0
 21 19  1  0
 22 21  1  0
 23 22  1  6
 23 24  1  0
 24 15  1  0
 25 23  1  0
 26 25  1  0
 27 25  2  0
M  END
$$$$
