CNP.pdb
     RDKit          3D

 22 22  0  0  1  0  0  0  0  0999 V2000
    7.6339  -15.9234   18.9452 N   0  0  0  0  0  0  0  0  0  0  0  0
    8.1271  -14.9711   19.8917 C   0  0  1  0  0  0  0  0  0  0  0  0
    7.9377  -13.5765   19.3522 C   0  0  0  0  0  0  0  0  0  0  0  0
    8.6843  -12.4053   20.5099 S   0  0  0  0  0  0  0  0  0  0  0  0
    7.4111  -15.1052   21.2112 C   0  0  0  0  0  0  0  0  0  0  0  0
    6.1605  -14.9919   21.2810 O   0  0  0  0  0  0  0  0  0  0  0  0
    6.0614  -18.0883   22.2930 N   0  0  0  0  0  0  0  0  0  0  0  0
    6.0886  -17.3994   23.5361 C   0  0  0  0  0  0  0  0  0  0  0  0
    5.0476  -17.2235   24.1979 O   0  0  0  0  0  0  0  0  0  0  0  0
    7.3696  -16.8958   24.0306 C   0  0  0  0  0  0  0  0  0  0  0  0
    7.4980  -15.4045   23.7308 C   0  0  2  0  0  0  0  0  0  0  0  0
    8.1187  -15.3618   22.4103 N   0  0  0  0  0  0  0  0  0  0  0  0
    8.5109  -14.9014   24.7030 C   0  0  0  0  0  0  0  0  0  0  0  0
    9.7343  -15.1001   24.3738 O   0  0  0  0  0  0  0  0  0  0  0  0
    8.1949  -14.2492   25.9055 N   0  0  0  0  0  0  0  0  0  0  0  0
    6.8235  -14.0267   26.3774 C   0  0  0  0  0  0  0  0  0  0  0  0
    6.9393  -13.0736   27.5490 C   0  0  0  0  0  0  0  0  0  0  0  0
    8.2907  -12.4458   27.2837 C   0  0  0  0  0  0  0  0  0  0  0  0
    9.0849  -13.7084   26.9003 C   0  0  1  0  0  0  0  0  0  0  0  0
    9.0781  -14.5401   28.1421 C   0  0  0  0  0  0  0  0  0  0  0  0
    9.9649  -14.2451   29.1625 O   0  0  0  0  0  0  0  0  0  0  0  0
    8.2937  -15.4915   28.2795 O   0  0  0  0  0  0  0  0  0  0  0  0
  2  1  1  6
  2  3  1  0
  2  5  1  0
  3  4  1  0
  5 12  1  0
  5  6  2  0
  8  7  1  0
  8 10  1  0
  9  8  2  0
 11 10  1  1
 11 13  1  0
 12 11  1  0
 13 14  2  0
 13 15  1  0
 15 16  1  0
 16 17  1  0
 18 17  1  0
 19 15  1  0
 19 18  1  0
 19 20  1  1
 21 20  1  0
 22 20  2  0
M  END
$$$$
