CNP.pdb
     RDKit          3D

 22 22  0  0  1  0  0  0  0  0999 V2000
    7.3672  -15.1918   19.0178 N   0  0  0  0  0  0  0  0  0  0  0  0
    7.9625  -14.4010   20.0505 C   0  0  1  0  0  0  0  0  0  0  0  0
    7.8394  -12.9394   19.7032 C   0  0  0  0  0  0  0  0  0  0  0  0
    9.1734  -12.5046   18.5627 S   0  0  0  0  0  0  0  0  0  0  0  0
    7.2990  -14.6636   21.3780 C   0  0  0  0  0  0  0  0  0  0  0  0
    6.0633  -14.4846   21.5283 O   0  0  0  0  0  0  0  0  0  0  0  0
    6.5201  -17.9738   21.8989 N   0  0  0  0  0  0  0  0  0  0  0  0
    6.2710  -17.3842   23.1681 C   0  0  0  0  0  0  0  0  0  0  0  0
    5.1147  -17.3051   23.6258 O   0  0  0  0  0  0  0  0  0  0  0  0
    7.4037  -16.8672   23.9354 C   0  0  0  0  0  0  0  0  0  0  0  0
    7.4670  -15.3465   23.8174 C   0  0  2  0  0  0  0  0  0  0  0  0
    8.0408  -15.1184   22.4948 N   0  0  0  0  0  0  0  0  0  0  0  0
    8.4927  -14.9247   24.8144 C   0  0  0  0  0  0  0  0  0  0  0  0
    9.7112  -15.1190   24.4647 O   0  0  0  0  0  0  0  0  0  0  0  0
    8.1934  -14.3498   26.0599 N   0  0  0  0  0  0  0  0  0  0  0  0
    6.8307  -14.1972   26.5820 C   0  0  0  0  0  0  0  0  0  0  0  0
    6.9527  -13.3065   27.8011 C   0  0  0  0  0  0  0  0  0  0  0  0
    8.2760  -12.6224   27.5331 C   0  0  0  0  0  0  0  0  0  0  0  0
    9.0960  -13.8362   27.0576 C   0  0  1  0  0  0  0  0  0  0  0  0
    9.1517  -14.7345   28.2509 C   0  0  0  0  0  0  0  0  0  0  0  0
   10.0661  -14.4735   29.2561 O   0  0  0  0  0  0  0  0  0  0  0  0
    8.3949  -15.7115   28.3613 O   0  0  0  0  0  0  0  0  0  0  0  0
  2  1  1  6
  2  3  1  0
  2  5  1  0
  3  4  1  0
  5 12  1  0
  5  6  2  0
  8  7  1  0
  8 10  1  0
  9  8  2  0
 11 10  1  1
 11 13  1  0
 12 11  1  0
 13 14  2  0
 13 15  1  0
 15 16  1  0
 16 17  1  0
 18 17  1  0
 19 15  1  0
 19 18  1  0
 19 20  1  1
 21 20  1  0
 22 20  2  0
M  END
$$$$
