CNP.pdb
     RDKit          3D

 22 22  0  0  1  0  0  0  0  0999 V2000
    7.9104  -16.5164   19.3818 N   0  0  0  0  0  0  0  0  0  0  0  0
    8.2814  -15.3338   20.0959 C   0  0  1  0  0  0  0  0  0  0  0  0
    7.9871  -14.1199   19.2523 C   0  0  0  0  0  0  0  0  0  0  0  0
    8.6059  -12.6561   20.1146 S   0  0  0  0  0  0  0  0  0  0  0  0
    7.5332  -15.2373   21.4006 C   0  0  0  0  0  0  0  0  0  0  0  0
    6.3642  -14.7753   21.4413 O   0  0  0  0  0  0  0  0  0  0  0  0
    5.3082  -17.5021   23.3459 N   0  0  0  0  0  0  0  0  0  0  0  0
    6.6566  -17.8815   23.5876 C   0  0  0  0  0  0  0  0  0  0  0  0
    7.1308  -18.9231   23.0949 O   0  0  0  0  0  0  0  0  0  0  0  0
    7.4862  -17.0220   24.4315 C   0  0  0  0  0  0  0  0  0  0  0  0
    7.4503  -15.5864   23.9139 C   0  0  2  0  0  0  0  0  0  0  0  0
    8.1182  -15.6612   22.6181 N   0  0  0  0  0  0  0  0  0  0  0  0
    8.3535  -14.8253   24.8245 C   0  0  0  0  0  0  0  0  0  0  0  0
    9.5973  -14.8525   24.5131 O   0  0  0  0  0  0  0  0  0  0  0  0
    7.9185  -14.1135   25.9538 N   0  0  0  0  0  0  0  0  0  0  0  0
    6.5200  -14.0569   26.3941 C   0  0  0  0  0  0  0  0  0  0  0  0
    6.4668  -12.9864   27.4645 C   0  0  0  0  0  0  0  0  0  0  0  0
    7.7131  -12.1894   27.1441 C   0  0  0  0  0  0  0  0  0  0  0  0
    8.6963  -13.3480   26.8935 C   0  0  1  0  0  0  0  0  0  0  0  0
    8.7902  -14.0445   28.2126 C   0  0  0  0  0  0  0  0  0  0  0  0
    9.6131  -13.5270   29.1974 O   0  0  0  0  0  0  0  0  0  0  0  0
    8.1456  -15.0786   28.4457 O   0  0  0  0  0  0  0  0  0  0  0  0
  2  1  1  6
  2  3  1  0
  2  5  1  0
  3  4  1  0
  5 12  1  0
  5  6  2  0
  8  7  1  0
  8 10  1  0
  9  8  2  0
 11 10  1  1
 11 13  1  0
 12 11  1  0
 13 14  2  0
 13 15  1  0
 15 16  1  0
 16 17  1  0
 18 17  1  0
 19 15  1  0
 19 18  1  0
 19 20  1  1
 21 20  1  0
 22 20  2  0
M  END
$$$$
