CNP.pdb
     RDKit          3D

 22 22  0  0  1  0  0  0  0  0999 V2000
    8.3182  -15.6878   14.7817 N   0  0  0  0  0  0  0  0  0  0  0  0
    9.2286  -15.5183   15.8718 C   0  0  1  0  0  0  0  0  0  0  0  0
    9.6424  -14.0720   15.9655 C   0  0  0  0  0  0  0  0  0  0  0  0
    8.1915  -13.0855   16.4025 S   0  0  0  0  0  0  0  0  0  0  0  0
    8.5974  -15.9496   17.1707 C   0  0  0  0  0  0  0  0  0  0  0  0
    7.3469  -15.9942   17.2968 O   0  0  0  0  0  0  0  0  0  0  0  0
    6.9945  -18.7559   19.1113 N   0  0  0  0  0  0  0  0  0  0  0  0
    8.3355  -19.2182   19.2036 C   0  0  0  0  0  0  0  0  0  0  0  0
    8.6264  -20.4041   18.9552 O   0  0  0  0  0  0  0  0  0  0  0  0
    9.3779  -18.2713   19.5985 C   0  0  0  0  0  0  0  0  0  0  0  0
    8.8415  -16.8436   19.5343 C   0  0  2  0  0  0  0  0  0  0  0  0
    9.3869  -16.3171   18.2869 N   0  0  0  0  0  0  0  0  0  0  0  0
    9.5270  -16.1237   20.6460 C   0  0  0  0  0  0  0  0  0  0  0  0
   10.7968  -15.9976   20.5182 O   0  0  0  0  0  0  0  0  0  0  0  0
    8.8703  -15.6021   21.7720 N   0  0  0  0  0  0  0  0  0  0  0  0
    7.4452  -15.8080   22.0539 C   0  0  0  0  0  0  0  0  0  0  0  0
    7.1095  -14.8685   23.1937 C   0  0  0  0  0  0  0  0  0  0  0  0
    8.2318  -13.8590   23.0817 C   0  0  0  0  0  0  0  0  0  0  0  0
    9.4135  -14.8197   22.8523 C   0  0  1  0  0  0  0  0  0  0  0  0
    9.4905  -15.6182   24.1134 C   0  0  0  0  0  0  0  0  0  0  0  0
   10.1930  -15.1154   25.1943 O   0  0  0  0  0  0  0  0  0  0  0  0
    8.9377  -16.7243   24.2138 O   0  0  0  0  0  0  0  0  0  0  0  0
  2  1  1  6
  2  3  1  0
  2  5  1  0
  3  4  1  0
  5 12  1  0
  5  6  2  0
  8  7  1  0
  8 10  1  0
  9  8  2  0
 11 10  1  1
 11 13  1  0
 12 11  1  0
 13 14  2  0
 13 15  1  0
 15 16  1  0
 16 17  1  0
 18 17  1  0
 19 15  1  0
 19 18  1  0
 19 20  1  1
 21 20  1  0
 22 20  2  0
M  END
$$$$
