CNP.pdb
     RDKit          3D

 22 22  0  0  1  0  0  0  0  0999 V2000
    7.3230  -15.5615   18.8058 N   0  0  0  0  0  0  0  0  0  0  0  0
    7.9002  -14.7428   19.8269 C   0  0  1  0  0  0  0  0  0  0  0  0
    7.8030  -13.2925   19.4281 C   0  0  0  0  0  0  0  0  0  0  0  0
    8.4778  -12.2812   20.7665 S   0  0  0  0  0  0  0  0  0  0  0  0
    7.1994  -14.9538   21.1445 C   0  0  0  0  0  0  0  0  0  0  0  0
    5.9605  -14.7671   21.2534 O   0  0  0  0  0  0  0  0  0  0  0  0
    6.4527  -16.2701   26.0438 N   0  0  0  0  0  0  0  0  0  0  0  0
    6.7761  -17.3452   25.1720 C   0  0  0  0  0  0  0  0  0  0  0  0
    6.6128  -18.5298   25.5221 O   0  0  0  0  0  0  0  0  0  0  0  0
    7.3084  -17.0360   23.8452 C   0  0  0  0  0  0  0  0  0  0  0  0
    7.3013  -15.5269   23.6156 C   0  0  2  0  0  0  0  0  0  0  0  0
    7.9087  -15.3672   22.2979 N   0  0  0  0  0  0  0  0  0  0  0  0
    8.2702  -14.9810   24.6093 C   0  0  0  0  0  0  0  0  0  0  0  0
    9.5029  -15.2504   24.3797 O   0  0  0  0  0  0  0  0  0  0  0  0
    7.9057  -14.2197   25.7312 N   0  0  0  0  0  0  0  0  0  0  0  0
    6.5192  -13.8829   26.0735 C   0  0  0  0  0  0  0  0  0  0  0  0
    6.6056  -12.8491   27.1773 C   0  0  0  0  0  0  0  0  0  0  0  0
    8.0102  -12.3222   26.9761 C   0  0  0  0  0  0  0  0  0  0  0  0
    8.7499  -13.6543   26.7518 C   0  0  1  0  0  0  0  0  0  0  0  0
    8.5965  -14.3844   28.0469 C   0  0  0  0  0  0  0  0  0  0  0  0
    9.3966  -14.0380   29.1214 O   0  0  0  0  0  0  0  0  0  0  0  0
    7.7662  -15.2964   28.1813 O   0  0  0  0  0  0  0  0  0  0  0  0
  2  1  1  6
  2  3  1  0
  2  5  1  0
  3  4  1  0
  5 12  1  0
  5  6  2  0
  8  7  1  0
  8 10  1  0
  9  8  2  0
 11 10  1  1
 11 13  1  0
 12 11  1  0
 13 14  2  0
 13 15  1  0
 15 16  1  0
 16 17  1  0
 18 17  1  0
 19 15  1  0
 19 18  1  0
 19 20  1  1
 21 20  1  0
 22 20  2  0
M  END
$$$$
