CNP.pdb
     RDKit          3D

 22 22  0  0  1  0  0  0  0  0999 V2000
    7.5501  -15.5405   18.9182 N   0  0  0  0  0  0  0  0  0  0  0  0
    8.0102  -14.6227   19.9143 C   0  0  1  0  0  0  0  0  0  0  0  0
    7.7725  -13.2091   19.4485 C   0  0  0  0  0  0  0  0  0  0  0  0
    9.0933  -12.7513   18.3017 S   0  0  0  0  0  0  0  0  0  0  0  0
    7.2996  -14.8507   21.2237 C   0  0  0  0  0  0  0  0  0  0  0  0
    6.0529  -15.0123   21.2616 O   0  0  0  0  0  0  0  0  0  0  0  0
    7.5771  -18.2588   25.6677 N   0  0  0  0  0  0  0  0  0  0  0  0
    6.8499  -17.2132   25.0365 C   0  0  0  0  0  0  0  0  0  0  0  0
    5.8466  -16.7092   25.5768 O   0  0  0  0  0  0  0  0  0  0  0  0
    7.3022  -16.7338   23.7308 C   0  0  0  0  0  0  0  0  0  0  0  0
    7.3961  -15.2102   23.7351 C   0  0  2  0  0  0  0  0  0  0  0  0
    8.0079  -14.8904   22.4489 N   0  0  0  0  0  0  0  0  0  0  0  0
    8.4034  -14.8888   24.7868 C   0  0  0  0  0  0  0  0  0  0  0  0
    9.5902  -15.3190   24.5605 O   0  0  0  0  0  0  0  0  0  0  0  0
    8.1195  -14.1679   25.9577 N   0  0  0  0  0  0  0  0  0  0  0  0
    6.7637  -13.8006   26.3815 C   0  0  0  0  0  0  0  0  0  0  0  0
    6.9388  -12.8221   27.5244 C   0  0  0  0  0  0  0  0  0  0  0  0
    8.3505  -12.3342   27.2788 C   0  0  0  0  0  0  0  0  0  0  0  0
    9.0305  -13.6788   26.9602 C   0  0  1  0  0  0  0  0  0  0  0  0
    8.9120  -14.4620   28.2276 C   0  0  0  0  0  0  0  0  0  0  0  0
    9.7942  -14.2147   29.2645 O   0  0  0  0  0  0  0  0  0  0  0  0
    8.0385  -15.3312   28.3719 O   0  0  0  0  0  0  0  0  0  0  0  0
  2  1  1  6
  2  3  1  0
  2  5  1  0
  3  4  1  0
  5 12  1  0
  5  6  2  0
  8  7  1  0
  8 10  1  0
  9  8  2  0
 11 10  1  6
 11 13  1  0
 12 11  1  0
 13 14  2  0
 13 15  1  0
 15 16  1  0
 16 17  1  0
 18 17  1  0
 19 15  1  0
 19 18  1  0
 19 20  1  1
 21 20  1  0
 22 20  2  0
M  END
$$$$
