CNP.pdb
     RDKit          3D

 22 22  0  0  1  0  0  0  0  0999 V2000
    8.1336  -16.6469   19.4444 N   0  0  0  0  0  0  0  0  0  0  0  0
    9.0324  -16.5395   20.5520 C   0  0  1  0  0  0  0  0  0  0  0  0
   10.2004  -15.6656   20.1731 C   0  0  0  0  0  0  0  0  0  0  0  0
   11.4592  -15.7956   21.4646 S   0  0  0  0  0  0  0  0  0  0  0  0
    8.3348  -15.9589   21.7553 C   0  0  0  0  0  0  0  0  0  0  0  0
    7.7253  -14.8613   21.6804 O   0  0  0  0  0  0  0  0  0  0  0  0
    5.9823  -17.4841   22.7070 N   0  0  0  0  0  0  0  0  0  0  0  0
    6.1974  -18.0200   24.0059 C   0  0  0  0  0  0  0  0  0  0  0  0
    5.5995  -19.0446   24.3871 O   0  0  0  0  0  0  0  0  0  0  0  0
    7.1403  -17.3434   24.8961 C   0  0  0  0  0  0  0  0  0  0  0  0
    7.7106  -16.1037   24.2119 C   0  0  2  0  0  0  0  0  0  0  0  0
    8.3422  -16.6260   23.0040 N   0  0  0  0  0  0  0  0  0  0  0  0
    8.8074  -15.6383   25.1088 C   0  0  0  0  0  0  0  0  0  0  0  0
    9.9804  -16.0591   24.8059 O   0  0  0  0  0  0  0  0  0  0  0  0
    8.6177  -14.7977   26.2171 N   0  0  0  0  0  0  0  0  0  0  0  0
    7.2992  -14.4009   26.7243 C   0  0  0  0  0  0  0  0  0  0  0  0
    7.5586  -13.3023   27.7344 C   0  0  0  0  0  0  0  0  0  0  0  0
    8.9313  -12.8291   27.3068 C   0  0  0  0  0  0  0  0  0  0  0  0
    9.6067  -14.1930   27.0717 C   0  0  1  0  0  0  0  0  0  0  0  0
    9.6215  -14.8353   28.4212 C   0  0  0  0  0  0  0  0  0  0  0  0
   10.5948  -14.4732   29.3357 O   0  0  0  0  0  0  0  0  0  0  0  0
    8.7790  -15.6879   28.7414 O   0  0  0  0  0  0  0  0  0  0  0  0
  2  1  1  6
  2  3  1  0
  2  5  1  0
  3  4  1  0
  5 12  1  0
  5  6  2  0
  8  7  1  0
  8 10  1  0
  9  8  2  0
 11 10  1  1
 11 13  1  0
 12 11  1  0
 13 14  2  0
 13 15  1  0
 15 16  1  0
 16 17  1  0
 18 17  1  0
 19 15  1  0
 19 18  1  0
 19 20  1  1
 21 20  1  0
 22 20  2  0
M  END
$$$$
