CNP.pdb
     RDKit          3D

 22 22  0  0  1  0  0  0  0  0999 V2000
    8.6734  -15.5445   19.8525 N   0  0  0  0  0  0  0  0  0  0  0  0
    8.5222  -14.2227   20.3779 C   0  0  1  0  0  0  0  0  0  0  0  0
    7.6400  -13.4123   19.4632 C   0  0  0  0  0  0  0  0  0  0  0  0
    8.4553  -13.2689   17.8557 S   0  0  0  0  0  0  0  0  0  0  0  0
    7.9211  -14.2595   21.7595 C   0  0  0  0  0  0  0  0  0  0  0  0
    7.4459  -13.2200   22.2842 O   0  0  0  0  0  0  0  0  0  0  0  0
    6.8583  -18.4354   22.0850 N   0  0  0  0  0  0  0  0  0  0  0  0
    6.3224  -17.7047   23.1801 C   0  0  0  0  0  0  0  0  0  0  0  0
    5.0916  -17.6071   23.3487 O   0  0  0  0  0  0  0  0  0  0  0  0
    7.2469  -17.0633   24.1146 C   0  0  0  0  0  0  0  0  0  0  0  0
    7.3023  -15.5610   23.8497 C   0  0  2  0  0  0  0  0  0  0  0  0
    7.8715  -15.4594   22.5094 N   0  0  0  0  0  0  0  0  0  0  0  0
    8.3287  -15.0397   24.7978 C   0  0  0  0  0  0  0  0  0  0  0  0
    9.5427  -15.3372   24.5111 O   0  0  0  0  0  0  0  0  0  0  0  0
    8.0343  -14.2724   25.9362 N   0  0  0  0  0  0  0  0  0  0  0  0
    6.6733  -13.9054   26.3435 C   0  0  0  0  0  0  0  0  0  0  0  0
    6.8345  -12.8757   27.4427 C   0  0  0  0  0  0  0  0  0  0  0  0
    8.2396  -12.3799   27.1761 C   0  0  0  0  0  0  0  0  0  0  0  0
    8.9379  -13.7278   26.9164 C   0  0  1  0  0  0  0  0  0  0  0  0
    8.8292  -14.4566   28.2168 C   0  0  0  0  0  0  0  0  0  0  0  0
    9.7336  -14.1820   29.2275 O   0  0  0  0  0  0  0  0  0  0  0  0
    7.9445  -15.3043   28.4115 O   0  0  0  0  0  0  0  0  0  0  0  0
  2  1  1  6
  2  3  1  0
  2  5  1  0
  3  4  1  0
  5 12  1  0
  5  6  2  0
  8  7  1  0
  8 10  1  0
  9  8  2  0
 11 10  1  1
 11 13  1  0
 12 11  1  0
 13 14  2  0
 13 15  1  0
 15 16  1  0
 16 17  1  0
 18 17  1  0
 19 15  1  0
 19 18  1  0
 19 20  1  1
 21 20  1  0
 22 20  2  0
M  END
$$$$
