QTE.pdb
     RDKit          3D

 26 25  0  0  1  0  0  0  0  0999 V2000
    9.9651  -16.0345   13.6855 N   0  0  0  0  0  0  0  0  0  0  0  0
    9.0393  -16.8127   14.4816 C   0  0  0  0  0  0  0  0  0  0  0  0
    9.3475  -18.0210   14.6137 O   0  0  0  0  0  0  0  0  0  0  0  0
    7.8406  -16.1888   15.0650 C   0  0  0  0  0  0  0  0  0  0  0  0
    8.0118  -15.5214   16.3883 C   0  0  0  0  0  0  0  0  0  0  0  0
    8.3798  -16.4918   17.4470 C   0  0  2  0  0  0  0  0  0  0  0  0
    7.3430  -17.4411   17.7377 N   0  0  0  0  0  0  0  0  0  0  0  0
    8.8504  -15.8791   18.6956 C   0  0  0  0  0  0  0  0  0  0  0  0
    9.7724  -15.0170   18.6762 O   0  0  0  0  0  0  0  0  0  0  0  0
    6.8002  -13.9966   21.0787 C   0  0  0  0  0  0  0  0  0  0  0  0
    7.5390  -15.0131   21.9262 C   0  0  1  0  0  0  0  0  0  0  0  0
    6.6105  -15.9877   22.2860 O   0  0  0  0  0  0  0  0  0  0  0  0
    8.7131  -15.5987   21.1804 C   0  0  2  0  0  0  0  0  0  0  0  0
    8.2812  -16.2446   19.9367 N   0  0  0  0  0  0  0  0  0  0  0  0
    9.5219  -16.5126   22.0049 C   0  0  0  0  0  0  0  0  0  0  0  0
    9.9108  -17.6083   21.4914 O   0  0  0  0  0  0  0  0  0  0  0  0
    9.8927  -16.2357   23.3464 N   0  0  0  0  0  0  0  0  0  0  0  0
   11.1237  -16.7608   23.9518 C   0  0  1  0  0  0  0  0  0  0  0  0
   12.3162  -16.4010   23.1449 C   0  0  0  0  0  0  0  0  0  0  0  0
   13.5708  -16.9460   23.7645 C   0  0  0  0  0  0  0  0  0  0  0  0
   14.7819  -16.5236   22.9859 C   0  0  0  0  0  0  0  0  0  0  0  0
   14.7181  -15.4478   22.3412 O   0  0  0  0  0  0  0  0  0  0  0  0
   11.2160  -16.3758   25.3670 C   0  0  0  0  0  0  0  0  0  0  0  0
   10.5524  -15.3447   25.7338 O   0  0  0  0  0  0  0  0  0  0  0  0
   15.9241  -17.2973   22.9836 O   0  0  0  0  0  0  0  0  0  0  0  0
   11.9332  -16.9948   26.3573 O   0  0  0  0  0  0  0  0  0  0  0  0
  2  1  1  0
  2  3  2  0
  4  5  1  0
  4  2  1  0
  6  5  1  0
  6  7  1  1
  8  6  1  0
  9  8  2  0
 11 10  1  6
 11 12  1  0
 13 11  1  0
 13 14  1  6
 14  8  1  0
 15 13  1  0
 15 17  1  0
 16 15  2  0
 18 17  1  0
 18 19  1  6
 19 20  1  0
 20 21  1  0
 21 25  1  0
 21 22  2  0
 23 26  1  0
 23 18  1  0
 24 23  2  0
M  END
$$$$
