QTE.pdb
     RDKit          3D

 26 25  0  0  1  0  0  0  0  0999 V2000
    5.3489  -21.8814   18.3081 N   0  0  0  0  0  0  0  0  0  0  0  0
    4.9921  -20.5775   18.8265 C   0  0  0  0  0  0  0  0  0  0  0  0
    4.3037  -20.5995   19.8744 O   0  0  0  0  0  0  0  0  0  0  0  0
    5.4240  -19.3504   18.1377 C   0  0  0  0  0  0  0  0  0  0  0  0
    6.4171  -18.4972   18.8530 C   0  0  0  0  0  0  0  0  0  0  0  0
    6.9051  -17.3901   17.9963 C   0  0  2  0  0  0  0  0  0  0  0  0
    7.3052  -17.8158   16.6851 N   0  0  0  0  0  0  0  0  0  0  0  0
    7.9724  -16.5813   18.5983 C   0  0  0  0  0  0  0  0  0  0  0  0
    9.1722  -16.7368   18.2378 O   0  0  0  0  0  0  0  0  0  0  0  0
    8.0642  -12.8086   18.9793 C   0  0  0  0  0  0  0  0  0  0  0  0
    8.3848  -13.3923   20.3409 C   0  0  1  0  0  0  0  0  0  0  0  0
    7.2635  -13.1848   21.1416 O   0  0  0  0  0  0  0  0  0  0  0  0
    8.7445  -14.8544   20.2395 C   0  0  2  0  0  0  0  0  0  0  0  0
    7.6749  -15.6187   19.5897 N   0  0  0  0  0  0  0  0  0  0  0  0
    9.1149  -15.4482   21.5354 C   0  0  0  0  0  0  0  0  0  0  0  0
    8.1907  -15.9039   22.2794 O   0  0  0  0  0  0  0  0  0  0  0  0
   10.4523  -15.5400   22.0007 N   0  0  0  0  0  0  0  0  0  0  0  0
   10.8138  -16.2473   23.2363 C   0  0  1  0  0  0  0  0  0  0  0  0
   10.5999  -17.7097   23.1016 C   0  0  0  0  0  0  0  0  0  0  0  0
   11.0041  -18.4313   24.3550 C   0  0  0  0  0  0  0  0  0  0  0  0
   10.8732  -19.9165   24.1859 C   0  0  0  0  0  0  0  0  0  0  0  0
   11.1747  -20.6463   25.1623 O   0  0  0  0  0  0  0  0  0  0  0  0
   12.1655  -15.8746   23.6761 C   0  0  0  0  0  0  0  0  0  0  0  0
   12.9390  -15.3528   22.8000 O   0  0  0  0  0  0  0  0  0  0  0  0
   10.4353  -20.4545   22.9934 O   0  0  0  0  0  0  0  0  0  0  0  0
   12.7071  -16.0163   24.9270 O   0  0  0  0  0  0  0  0  0  0  0  0
  2  1  1  0
  2  3  2  0
  4  5  1  0
  4  2  1  0
  6  5  1  0
  6  7  1  6
  8  6  1  0
  9  8  2  0
 11 10  1  6
 11 12  1  0
 13 11  1  0
 13 14  1  1
 14  8  1  0
 15 13  1  0
 15 17  1  0
 16 15  2  0
 18 17  1  0
 18 19  1  6
 19 20  1  0
 20 21  1  0
 21 25  1  0
 21 22  2  0
 23 26  1  0
 23 18  1  0
 24 23  2  0
M  END
$$$$
