QTE.pdb
     RDKit          3D

 26 25  0  0  1  0  0  0  0  0999 V2000
    7.9630  -17.7778   12.9772 N   0  0  0  0  0  0  0  0  0  0  0  0
    7.8847  -18.2206   14.3534 C   0  0  0  0  0  0  0  0  0  0  0  0
    6.7446  -18.1352   14.8684 O   0  0  0  0  0  0  0  0  0  0  0  0
    9.0805  -18.7193   15.0521 C   0  0  0  0  0  0  0  0  0  0  0  0
    9.4653  -18.0101   16.3070 C   0  0  0  0  0  0  0  0  0  0  0  0
    9.8676  -16.6080   16.0417 C   0  0  2  0  0  0  0  0  0  0  0  0
   11.0175  -16.4948   15.1900 N   0  0  0  0  0  0  0  0  0  0  0  0
   10.0663  -15.7946   17.2478 C   0  0  0  0  0  0  0  0  0  0  0  0
   11.2306  -15.4828   17.6233 O   0  0  0  0  0  0  0  0  0  0  0  0
    8.2052  -12.7104   20.6290 C   0  0  0  0  0  0  0  0  0  0  0  0
    7.9534  -13.6569   19.4722 C   0  0  1  0  0  0  0  0  0  0  0  0
    7.6309  -12.8681   18.3699 O   0  0  0  0  0  0  0  0  0  0  0  0
    9.1542  -14.5324   19.2091 C   0  0  2  0  0  0  0  0  0  0  0  0
    8.9602  -15.3496   18.0071 N   0  0  0  0  0  0  0  0  0  0  0  0
    9.5263  -15.3636   20.3666 C   0  0  0  0  0  0  0  0  0  0  0  0
    8.9546  -16.4892   20.5132 O   0  0  0  0  0  0  0  0  0  0  0  0
   10.4922  -14.9752   21.3309 N   0  0  0  0  0  0  0  0  0  0  0  0
   10.9124  -15.8554   22.4294 C   0  0  1  0  0  0  0  0  0  0  0  0
   12.2933  -15.5407   22.8728 C   0  0  0  0  0  0  0  0  0  0  0  0
   13.2921  -15.8703   21.8009 C   0  0  0  0  0  0  0  0  0  0  0  0
   14.6857  -15.5336   22.2432 C   0  0  0  0  0  0  0  0  0  0  0  0
   15.5413  -15.2968   21.3550 O   0  0  0  0  0  0  0  0  0  0  0  0
    9.9177  -15.8534   23.5110 C   0  0  0  0  0  0  0  0  0  0  0  0
    9.1042  -14.8661   23.5514 O   0  0  0  0  0  0  0  0  0  0  0  0
   15.0085  -15.4879   23.5838 O   0  0  0  0  0  0  0  0  0  0  0  0
    9.7493  -16.7930   24.4943 O   0  0  0  0  0  0  0  0  0  0  0  0
  2  1  1  0
  2  3  2  0
  4  5  1  0
  4  2  1  0
  6  5  1  0
  6  7  1  1
  8  6  1  0
  9  8  2  0
 11 10  1  1
 11 12  1  0
 13 11  1  0
 13 14  1  6
 14  8  1  0
 15 13  1  0
 15 17  1  0
 16 15  2  0
 18 17  1  0
 18 19  1  1
 19 20  1  0
 20 21  1  0
 21 25  1  0
 21 22  2  0
 23 26  1  0
 23 18  1  0
 24 23  2  0
M  END
$$$$
