QTE.pdb
     RDKit          3D

 26 25  0  0  1  0  0  0  0  0999 V2000
   10.7743  -15.8279   14.0966 N   0  0  0  0  0  0  0  0  0  0  0  0
    9.3703  -16.0869   13.8563 C   0  0  0  0  0  0  0  0  0  0  0  0
    9.0803  -16.3441   12.6638 O   0  0  0  0  0  0  0  0  0  0  0  0
    8.3966  -16.0352   14.9591 C   0  0  0  0  0  0  0  0  0  0  0  0
    8.9409  -15.7458   16.3177 C   0  0  0  0  0  0  0  0  0  0  0  0
    8.0636  -14.8195   17.0728 C   0  0  2  0  0  0  0  0  0  0  0  0
    7.6648  -13.6662   16.3168 N   0  0  0  0  0  0  0  0  0  0  0  0
    8.6027  -14.3949   18.3708 C   0  0  0  0  0  0  0  0  0  0  0  0
    9.2800  -13.3337   18.4650 O   0  0  0  0  0  0  0  0  0  0  0  0
    6.8873  -13.3096   21.2390 C   0  0  0  0  0  0  0  0  0  0  0  0
    7.7751  -14.4078   21.7896 C   0  0  1  0  0  0  0  0  0  0  0  0
    6.9534  -15.5074   22.0286 O   0  0  0  0  0  0  0  0  0  0  0  0
    8.8962  -14.7367   20.8344 C   0  0  2  0  0  0  0  0  0  0  0  0
    8.3739  -15.1661   19.5331 N   0  0  0  0  0  0  0  0  0  0  0  0
    9.8482  -15.7195   21.3793 C   0  0  0  0  0  0  0  0  0  0  0  0
    9.8557  -16.8921   20.8892 O   0  0  0  0  0  0  0  0  0  0  0  0
   10.7614  -15.4277   22.4256 N   0  0  0  0  0  0  0  0  0  0  0  0
   11.7023  -16.4234   22.9556 C   0  0  1  0  0  0  0  0  0  0  0  0
   13.1050  -16.0659   22.6284 C   0  0  0  0  0  0  0  0  0  0  0  0
   14.0602  -17.1040   23.1434 C   0  0  0  0  0  0  0  0  0  0  0  0
   15.4800  -16.7253   22.8402 C   0  0  0  0  0  0  0  0  0  0  0  0
   16.1648  -17.5218   22.1520 O   0  0  0  0  0  0  0  0  0  0  0  0
   11.4600  -16.6632   24.3850 C   0  0  0  0  0  0  0  0  0  0  0  0
   10.7139  -15.8229   24.9975 O   0  0  0  0  0  0  0  0  0  0  0  0
   16.0083  -15.5390   23.3062 O   0  0  0  0  0  0  0  0  0  0  0  0
   11.9390  -17.6917   25.1537 O   0  0  0  0  0  0  0  0  0  0  0  0
  2  1  1  0
  2  3  2  0
  4  5  1  0
  4  2  1  0
  6  5  1  0
  6  7  1  6
  8  6  1  0
  9  8  2  0
 11 10  1  6
 11 12  1  0
 13 11  1  0
 13 14  1  6
 14  8  1  0
 15 13  1  0
 15 17  1  0
 16 15  2  0
 18 17  1  0
 18 19  1  1
 19 20  1  0
 20 21  1  0
 21 25  1  0
 21 22  2  0
 23 26  1  0
 23 18  1  0
 24 23  2  0
M  END
$$$$
