QTE.pdb
     RDKit          3D

 26 25  0  0  1  0  0  0  0  0999 V2000
    9.2917  -19.8675   15.2353 N   0  0  0  0  0  0  0  0  0  0  0  0
   10.2179  -18.9247   14.6442 C   0  0  0  0  0  0  0  0  0  0  0  0
   11.1319  -19.4446   13.9612 O   0  0  0  0  0  0  0  0  0  0  0  0
   10.0591  -17.4775   14.8618 C   0  0  0  0  0  0  0  0  0  0  0  0
    8.8874  -17.0498   15.6803 C   0  0  0  0  0  0  0  0  0  0  0  0
    8.8243  -15.5749   15.8165 C   0  0  2  0  0  0  0  0  0  0  0  0
    9.4329  -14.8733   14.7220 N   0  0  0  0  0  0  0  0  0  0  0  0
    9.3515  -15.0589   17.0860 C   0  0  0  0  0  0  0  0  0  0  0  0
   10.5407  -14.6420   17.1614 O   0  0  0  0  0  0  0  0  0  0  0  0
    7.2785  -12.7220   19.4686 C   0  0  0  0  0  0  0  0  0  0  0  0
    7.9576  -13.7999   20.2899 C   0  0  1  0  0  0  0  0  0  0  0  0
    6.9631  -14.6941   20.6810 O   0  0  0  0  0  0  0  0  0  0  0  0
    9.0520  -14.4798   19.5040 C   0  0  2  0  0  0  0  0  0  0  0  0
    8.5386  -15.0219   18.2418 N   0  0  0  0  0  0  0  0  0  0  0  0
    9.7630  -15.5108   20.2790 C   0  0  0  0  0  0  0  0  0  0  0  0
   10.1469  -16.5631   19.6785 O   0  0  0  0  0  0  0  0  0  0  0  0
   10.0442  -15.3932   21.6649 N   0  0  0  0  0  0  0  0  0  0  0  0
   10.9843  -16.2823   22.3601 C   0  0  1  0  0  0  0  0  0  0  0  0
   12.3246  -16.2520   21.7234 C   0  0  0  0  0  0  0  0  0  0  0  0
   13.4007  -16.0139   22.7434 C   0  0  0  0  0  0  0  0  0  0  0  0
   14.7543  -15.9744   22.0971 C   0  0  0  0  0  0  0  0  0  0  0  0
   15.3006  -14.8533   21.9492 O   0  0  0  0  0  0  0  0  0  0  0  0
   10.9970  -16.0049   23.8031 C   0  0  0  0  0  0  0  0  0  0  0  0
   10.4909  -14.8935   24.1863 O   0  0  0  0  0  0  0  0  0  0  0  0
   15.3716  -17.1362   21.6818 O   0  0  0  0  0  0  0  0  0  0  0  0
   11.4884  -16.8018   24.8039 O   0  0  0  0  0  0  0  0  0  0  0  0
  2  1  1  0
  2  3  2  0
  4  5  1  0
  4  2  1  0
  6  5  1  0
  6  7  1  6
  8  6  1  0
  9  8  2  0
 11 10  1  6
 11 12  1  0
 13 11  1  0
 13 14  1  6
 14  8  1  0
 15 13  1  0
 15 17  1  0
 16 15  2  0
 18 17  1  0
 18 19  1  6
 19 20  1  0
 20 21  1  0
 21 25  1  0
 21 22  2  0
 23 26  1  0
 23 18  1  0
 24 23  2  0
M  END
$$$$
