QTE.pdb
     RDKit          3D

 26 25  0  0  1  0  0  0  0  0999 V2000
   10.1388  -16.3137   13.8520 N   0  0  0  0  0  0  0  0  0  0  0  0
    8.7888  -15.9512   13.4748 C   0  0  0  0  0  0  0  0  0  0  0  0
    8.3620  -16.5185   12.4412 O   0  0  0  0  0  0  0  0  0  0  0  0
    8.0195  -14.9827   14.2729 C   0  0  0  0  0  0  0  0  0  0  0  0
    8.7106  -14.3941   15.4569 C   0  0  0  0  0  0  0  0  0  0  0  0
    8.8618  -15.3840   16.5502 C   0  0  2  0  0  0  0  0  0  0  0  0
    7.6875  -16.1807   16.7663 N   0  0  0  0  0  0  0  0  0  0  0  0
    9.3125  -14.8151   17.8265 C   0  0  0  0  0  0  0  0  0  0  0  0
   10.3040  -14.0345   17.8633 O   0  0  0  0  0  0  0  0  0  0  0  0
    7.0572  -13.1871   20.5055 C   0  0  0  0  0  0  0  0  0  0  0  0
    7.9520  -14.1989   21.1935 C   0  0  1  0  0  0  0  0  0  0  0  0
    7.1494  -15.2908   21.5177 O   0  0  0  0  0  0  0  0  0  0  0  0
    9.1128  -14.5920   20.3129 C   0  0  2  0  0  0  0  0  0  0  0  0
    8.6462  -15.1325   19.0321 N   0  0  0  0  0  0  0  0  0  0  0  0
   10.0505  -15.5159   20.9735 C   0  0  0  0  0  0  0  0  0  0  0  0
   10.0558  -16.7346   20.6126 O   0  0  0  0  0  0  0  0  0  0  0  0
   10.9520  -15.1185   21.9948 N   0  0  0  0  0  0  0  0  0  0  0  0
   11.8487  -16.0650   22.6714 C   0  0  1  0  0  0  0  0  0  0  0  0
   13.2706  -15.6757   22.4999 C   0  0  0  0  0  0  0  0  0  0  0  0
   14.1856  -16.6820   23.1365 C   0  0  0  0  0  0  0  0  0  0  0  0
   15.6237  -16.3084   22.9273 C   0  0  0  0  0  0  0  0  0  0  0  0
   15.8991  -15.0907   22.7922 O   0  0  0  0  0  0  0  0  0  0  0  0
   11.4429  -16.2615   24.0700 C   0  0  0  0  0  0  0  0  0  0  0  0
   12.0593  -17.1663   24.7329 O   0  0  0  0  0  0  0  0  0  0  0  0
   16.6051  -17.2772   22.8859 O   0  0  0  0  0  0  0  0  0  0  0  0
   10.4738  -15.5841   24.7629 O   0  0  0  0  0  0  0  0  0  0  0  0
  2  1  1  0
  2  3  2  0
  4  5  1  0
  4  2  1  0
  6  5  1  0
  6  7  1  1
  8  6  1  0
  9  8  2  0
 11 10  1  6
 11 12  1  0
 13 11  1  0
 13 14  1  6
 14  8  1  0
 15 13  1  0
 15 17  1  0
 16 15  2  0
 18 17  1  0
 18 19  1  1
 19 20  1  0
 20 21  1  0
 21 25  1  0
 21 22  2  0
 23 26  1  0
 23 18  1  0
 24 23  2  0
M  END
$$$$
