QTE.pdb
     RDKit          3D

 26 25  0  0  1  0  0  0  0  0999 V2000
    7.8560  -15.3043   13.4078 N   0  0  0  0  0  0  0  0  0  0  0  0
    7.2527  -16.6200   13.3708 C   0  0  0  0  0  0  0  0  0  0  0  0
    6.3010  -16.7386   12.5630 O   0  0  0  0  0  0  0  0  0  0  0  0
    7.7508  -17.7003   14.2377 C   0  0  0  0  0  0  0  0  0  0  0  0
    8.8786  -17.3568   15.1520 C   0  0  0  0  0  0  0  0  0  0  0  0
    8.5299  -17.6104   16.5704 C   0  0  2  0  0  0  0  0  0  0  0  0
    7.1250  -17.8107   16.7865 N   0  0  0  0  0  0  0  0  0  0  0  0
    9.0334  -16.6005   17.5096 C   0  0  0  0  0  0  0  0  0  0  0  0
   10.2481  -16.2572   17.4878 O   0  0  0  0  0  0  0  0  0  0  0  0
    8.1693  -12.9221   20.6803 C   0  0  0  0  0  0  0  0  0  0  0  0
    7.6461  -13.9461   19.6928 C   0  0  1  0  0  0  0  0  0  0  0  0
    7.2923  -13.2487   18.5396 O   0  0  0  0  0  0  0  0  0  0  0  0
    8.6750  -15.0144   19.4143 C   0  0  2  0  0  0  0  0  0  0  0  0
    8.1689  -15.9986   18.4522 N   0  0  0  0  0  0  0  0  0  0  0  0
    9.1726  -15.6681   20.6366 C   0  0  0  0  0  0  0  0  0  0  0  0
    8.4251  -16.5161   21.2176 O   0  0  0  0  0  0  0  0  0  0  0  0
   10.4462  -15.4024   21.2034 N   0  0  0  0  0  0  0  0  0  0  0  0
   10.9599  -16.1294   22.3718 C   0  0  1  0  0  0  0  0  0  0  0  0
   12.4283  -15.9623   22.5067 C   0  0  0  0  0  0  0  0  0  0  0  0
   12.9437  -16.6823   23.7196 C   0  0  0  0  0  0  0  0  0  0  0  0
   14.4409  -16.6130   23.7897 C   0  0  0  0  0  0  0  0  0  0  0  0
   15.0971  -17.5081   23.2021 O   0  0  0  0  0  0  0  0  0  0  0  0
   10.2007  -15.7800   23.5806 C   0  0  0  0  0  0  0  0  0  0  0  0
    9.7688  -14.5785   23.6692 O   0  0  0  0  0  0  0  0  0  0  0  0
   15.0683  -15.5960   24.4793 O   0  0  0  0  0  0  0  0  0  0  0  0
    9.8915  -16.5942   24.6387 O   0  0  0  0  0  0  0  0  0  0  0  0
  2  1  1  0
  2  3  2  0
  4  5  1  0
  4  2  1  0
  6  5  1  0
  6  7  1  6
  8  6  1  0
  9  8  2  0
 11 10  1  1
 11 12  1  0
 13 11  1  0
 13 14  1  6
 14  8  1  0
 15 13  1  0
 15 17  1  0
 16 15  2  0
 18 17  1  0
 18 19  1  1
 19 20  1  0
 20 21  1  0
 21 25  1  0
 21 22  2  0
 23 26  1  0
 23 18  1  0
 24 23  2  0
M  END
$$$$
