QTE.pdb
     RDKit          3D

 26 25  0  0  1  0  0  0  0  0999 V2000
    9.4376  -14.4679   13.8368 N   0  0  0  0  0  0  0  0  0  0  0  0
    8.0118  -14.6527   14.0071 C   0  0  0  0  0  0  0  0  0  0  0  0
    7.4348  -15.2053   13.0407 O   0  0  0  0  0  0  0  0  0  0  0  0
    7.3370  -14.2046   15.2362 C   0  0  0  0  0  0  0  0  0  0  0  0
    8.2106  -13.6694   16.3207 C   0  0  0  0  0  0  0  0  0  0  0  0
    8.7750  -14.7568   17.1554 C   0  0  2  0  0  0  0  0  0  0  0  0
    7.9619  -15.9395   17.1796 N   0  0  0  0  0  0  0  0  0  0  0  0
    9.1057  -14.3586   18.5294 C   0  0  0  0  0  0  0  0  0  0  0  0
    9.7634  -13.3034   18.7479 O   0  0  0  0  0  0  0  0  0  0  0  0
    7.0254  -13.4477   21.3927 C   0  0  0  0  0  0  0  0  0  0  0  0
    7.8798  -14.6022   21.8769 C   0  0  1  0  0  0  0  0  0  0  0  0
    7.0604  -15.7290   21.8952 O   0  0  0  0  0  0  0  0  0  0  0  0
    9.0890  -14.7966   20.9951 C   0  0  2  0  0  0  0  0  0  0  0  0
    8.6953  -15.1489   19.6271 N   0  0  0  0  0  0  0  0  0  0  0  0
   10.0509  -15.7687   21.5419 C   0  0  0  0  0  0  0  0  0  0  0  0
   10.0400  -16.9547   21.0851 O   0  0  0  0  0  0  0  0  0  0  0  0
   10.9932  -15.4524   22.5547 N   0  0  0  0  0  0  0  0  0  0  0  0
   11.9682  -16.4275   23.0611 C   0  0  1  0  0  0  0  0  0  0  0  0
   13.3579  -16.0108   22.7488 C   0  0  0  0  0  0  0  0  0  0  0  0
   14.3512  -17.0002   23.2868 C   0  0  0  0  0  0  0  0  0  0  0  0
   15.7554  -16.5822   22.9628 C   0  0  0  0  0  0  0  0  0  0  0  0
   16.2256  -15.5882   23.5693 O   0  0  0  0  0  0  0  0  0  0  0  0
   11.7309  -16.7144   24.4827 C   0  0  0  0  0  0  0  0  0  0  0  0
   11.0040  -15.8837   25.1304 O   0  0  0  0  0  0  0  0  0  0  0  0
   16.4987  -17.2725   22.0277 O   0  0  0  0  0  0  0  0  0  0  0  0
   12.1964  -17.7784   25.2103 O   0  0  0  0  0  0  0  0  0  0  0  0
  2  1  1  0
  2  3  2  0
  4  5  1  0
  4  2  1  0
  6  5  1  0
  6  7  1  1
  8  6  1  0
  9  8  2  0
 11 10  1  6
 11 12  1  0
 13 11  1  0
 13 14  1  6
 14  8  1  0
 15 13  1  0
 15 17  1  0
 16 15  2  0
 18 17  1  0
 18 19  1  1
 19 20  1  0
 20 21  1  0
 21 25  1  0
 21 22  2  0
 23 26  1  0
 23 18  1  0
 24 23  2  0
M  END
$$$$
