QTE.pdb
     RDKit          3D

 26 25  0  0  1  0  0  0  0  0999 V2000
    9.4907  -17.7521   15.8279 N   0  0  0  0  0  0  0  0  0  0  0  0
   10.2231  -16.5174   16.0156 C   0  0  0  0  0  0  0  0  0  0  0  0
   11.3781  -16.5126   15.5275 O   0  0  0  0  0  0  0  0  0  0  0  0
    9.6169  -15.3854   16.7353 C   0  0  0  0  0  0  0  0  0  0  0  0
    8.2475  -15.6009   17.2868 C   0  0  0  0  0  0  0  0  0  0  0  0
    7.7634  -14.4125   18.0293 C   0  0  2  0  0  0  0  0  0  0  0  0
    7.7843  -13.2056   17.2525 N   0  0  0  0  0  0  0  0  0  0  0  0
    8.4368  -14.1830   19.3137 C   0  0  0  0  0  0  0  0  0  0  0  0
    9.3645  -13.3317   19.4053 O   0  0  0  0  0  0  0  0  0  0  0  0
    6.7255  -13.4043   22.6213 C   0  0  0  0  0  0  0  0  0  0  0  0
    7.6842  -14.5528   22.8646 C   0  0  1  0  0  0  0  0  0  0  0  0
    6.9105  -15.7065   22.9734 O   0  0  0  0  0  0  0  0  0  0  0  0
    8.7047  -14.6587   21.7578 C   0  0  2  0  0  0  0  0  0  0  0  0
    8.0593  -14.9105   20.4653 N   0  0  0  0  0  0  0  0  0  0  0  0
    9.7541  -15.6543   22.0346 C   0  0  0  0  0  0  0  0  0  0  0  0
    9.7461  -16.7420   21.3772 O   0  0  0  0  0  0  0  0  0  0  0  0
   10.7780  -15.4648   22.9987 N   0  0  0  0  0  0  0  0  0  0  0  0
   11.8034  -16.4800   23.2743 C   0  0  1  0  0  0  0  0  0  0  0  0
   13.1582  -15.9850   22.9253 C   0  0  0  0  0  0  0  0  0  0  0  0
   14.2034  -17.0227   23.2184 C   0  0  0  0  0  0  0  0  0  0  0  0
   15.5749  -16.5124   22.8870 C   0  0  0  0  0  0  0  0  0  0  0  0
   15.7111  -15.8375   21.8367 O   0  0  0  0  0  0  0  0  0  0  0  0
   11.6828  -16.9855   24.6489 C   0  0  0  0  0  0  0  0  0  0  0  0
   10.9600  -16.3057   25.4573 O   0  0  0  0  0  0  0  0  0  0  0  0
   16.6460  -16.7803   23.7142 O   0  0  0  0  0  0  0  0  0  0  0  0
   12.2547  -18.1124   25.1789 O   0  0  0  0  0  0  0  0  0  0  0  0
  2  1  1  0
  2  3  2  0
  4  5  1  0
  4  2  1  0
  6  5  1  0
  6  7  1  6
  8  6  1  0
  9  8  2  0
 11 10  1  6
 11 12  1  0
 13 11  1  0
 13 14  1  6
 14  8  1  0
 15 13  1  0
 15 17  1  0
 16 15  2  0
 18 17  1  0
 18 19  1  1
 19 20  1  0
 20 21  1  0
 21 25  1  0
 21 22  2  0
 23 26  1  0
 23 18  1  0
 24 23  2  0
M  END
$$$$
