QTE.pdb
     RDKit          3D

 26 25  0  0  1  0  0  0  0  0999 V2000
    7.9374  -20.6149   17.4580 N   0  0  0  0  0  0  0  0  0  0  0  0
    9.0256  -19.9735   16.7504 C   0  0  0  0  0  0  0  0  0  0  0  0
    9.9049  -20.7563   16.3187 O   0  0  0  0  0  0  0  0  0  0  0  0
    9.0546  -18.5115   16.5816 C   0  0  0  0  0  0  0  0  0  0  0  0
    7.9016  -17.7510   17.1456 C   0  0  0  0  0  0  0  0  0  0  0  0
    8.0896  -16.2873   17.0037 C   0  0  2  0  0  0  0  0  0  0  0  0
    8.7793  -15.9136   15.8016 N   0  0  0  0  0  0  0  0  0  0  0  0
    8.7274  -15.6421   18.1581 C   0  0  0  0  0  0  0  0  0  0  0  0
    9.9099  -15.2079   18.0744 O   0  0  0  0  0  0  0  0  0  0  0  0
    7.4479  -12.7397   20.1982 C   0  0  0  0  0  0  0  0  0  0  0  0
    7.7842  -13.8461   21.1780 C   0  0  1  0  0  0  0  0  0  0  0  0
    6.5733  -14.3868   21.6054 O   0  0  0  0  0  0  0  0  0  0  0  0
    8.6758  -14.8863   20.5451 C   0  0  2  0  0  0  0  0  0  0  0  0
    8.0302  -15.4982   19.3792 N   0  0  0  0  0  0  0  0  0  0  0  0
    9.1360  -15.9091   21.4998 C   0  0  0  0  0  0  0  0  0  0  0  0
    8.7153  -17.1004   21.3612 O   0  0  0  0  0  0  0  0  0  0  0  0
   10.0272  -15.6364   22.5699 N   0  0  0  0  0  0  0  0  0  0  0  0
   10.4379  -16.6613   23.5388 C   0  0  1  0  0  0  0  0  0  0  0  0
   11.8472  -17.0727   23.3221 C   0  0  0  0  0  0  0  0  0  0  0  0
   12.7414  -15.8756   23.1725 C   0  0  0  0  0  0  0  0  0  0  0  0
   14.1699  -16.2926   22.9809 C   0  0  0  0  0  0  0  0  0  0  0  0
   14.6178  -17.2053   23.7181 O   0  0  0  0  0  0  0  0  0  0  0  0
   10.1406  -16.2317   24.9123 C   0  0  0  0  0  0  0  0  0  0  0  0
   10.3817  -17.0699   25.8490 O   0  0  0  0  0  0  0  0  0  0  0  0
   14.9588  -15.6881   22.0241 O   0  0  0  0  0  0  0  0  0  0  0  0
    9.6321  -15.0262   25.3202 O   0  0  0  0  0  0  0  0  0  0  0  0
  2  1  1  0
  2  3  2  0
  4  5  1  0
  4  2  1  0
  6  5  1  0
  6  7  1  6
  8  6  1  0
  9  8  2  0
 11 10  1  6
 11 12  1  0
 13 11  1  0
 13 14  1  6
 14  8  1  0
 15 13  1  0
 15 17  1  0
 16 15  2  0
 18 17  1  0
 18 19  1  1
 19 20  1  0
 20 21  1  0
 21 25  1  0
 21 22  2  0
 23 26  1  0
 23 18  1  0
 24 23  2  0
M  END
$$$$
