GTS.pdb
     RDKit          3D

 18 17  0  0  1  0  0  0  0  0999 V2000
   17.3466  -14.9107  -15.5215 N   0  0  0  0  0  0  0  0  0  0  0  0
   16.9294  -13.6233  -15.0336 C   0  0  0  0  0  0  0  0  0  0  0  0
   17.6508  -12.5605  -15.7817 C   0  0  0  0  0  0  0  0  0  0  0  0
   18.4655  -12.8771  -16.6882 O   0  0  0  0  0  0  0  0  0  0  0  0
   16.1722   -9.9819  -17.8628 C   0  0  0  0  0  0  0  0  0  0  0  0
   17.0397   -9.2024  -16.8987 C   0  0  1  0  0  0  0  0  0  0  0  0
   16.3004   -8.5786  -15.9222 O   0  0  0  0  0  0  0  0  0  0  0  0
   18.0550  -10.1385  -16.2752 C   0  0  2  0  0  0  0  0  0  0  0  0
   17.4455  -11.1721  -15.4999 N   0  0  0  0  0  0  0  0  0  0  0  0
   19.0545   -9.3883  -15.4714 C   0  0  0  0  0  0  0  0  0  0  0  0
   18.8899   -9.1380  -14.2633 O   0  0  0  0  0  0  0  0  0  0  0  0
   22.8093   -8.3566  -17.2243 O   0  0  0  0  0  0  0  0  0  0  0  0
   22.6904   -8.5723  -15.8597 C   0  0  0  0  0  0  0  0  0  0  0  0
   21.3071   -8.2461  -15.3638 C   0  0  2  0  0  0  0  0  0  0  0  0
   20.2671   -8.9159  -16.0664 N   0  0  0  0  0  0  0  0  0  0  0  0
   21.1658   -6.7853  -15.3226 C   0  0  0  0  0  0  0  0  0  0  0  0
   20.3162   -6.2243  -16.0502 O   0  0  0  0  0  0  0  0  0  0  0  0
   21.9598   -6.0365  -14.4916 O   0  0  0  0  0  0  0  0  0  0  0  0
  2  1  1  0
  3  2  1  0
  4  3  2  0
  6  5  1  6
  6  7  1  0
  6  8  1  0
  8  9  1  1
  9  3  1  0
 10  8  1  0
 10 15  1  0
 11 10  2  0
 12 13  1  0
 14 15  1  0
 14 13  1  6
 14 16  1  0
 16 18  1  0
 17 16  2  0
M  END
$$$$
