GTS.pdb
     RDKit          3D

 18 17  0  0  1  0  0  0  0  0999 V2000
   19.5566  -11.3732  -17.0669 N   0  0  0  0  0  0  0  0  0  0  0  0
   20.4734  -10.8727  -18.0560 C   0  0  0  0  0  0  0  0  0  0  0  0
   21.4493   -9.9626  -17.4008 C   0  0  0  0  0  0  0  0  0  0  0  0
   22.0292  -10.3246  -16.3434 O   0  0  0  0  0  0  0  0  0  0  0  0
   24.4758   -6.1240  -17.4908 C   0  0  0  0  0  0  0  0  0  0  0  0
   23.5478   -7.0361  -18.2632 C   0  0  1  0  0  0  0  0  0  0  0  0
   24.2341   -7.9365  -19.0427 O   0  0  0  0  0  0  0  0  0  0  0  0
   22.6419   -7.7630  -17.2901 C   0  0  2  0  0  0  0  0  0  0  0  0
   21.7535   -8.6725  -17.9415 N   0  0  0  0  0  0  0  0  0  0  0  0
   21.8925   -6.8053  -16.4361 C   0  0  0  0  0  0  0  0  0  0  0  0
   21.1014   -5.9671  -16.9062 O   0  0  0  0  0  0  0  0  0  0  0  0
   21.9560   -7.1778  -12.1400 O   0  0  0  0  0  0  0  0  0  0  0  0
   20.8842   -6.6713  -12.8594 C   0  0  0  0  0  0  0  0  0  0  0  0
   21.3368   -5.9742  -14.1144 C   0  0  2  0  0  0  0  0  0  0  0  0
   22.0546   -6.8100  -15.0145 N   0  0  0  0  0  0  0  0  0  0  0  0
   22.0480   -4.7489  -13.7290 C   0  0  0  0  0  0  0  0  0  0  0  0
   23.2621   -4.6242  -14.0057 O   0  0  0  0  0  0  0  0  0  0  0  0
   21.3876   -3.7441  -13.0688 O   0  0  0  0  0  0  0  0  0  0  0  0
  2  1  1  0
  3  2  1  0
  4  3  2  0
  6  5  1  1
  6  7  1  0
  6  8  1  0
  8  9  1  6
  9  3  1  0
 10  8  1  0
 10 15  1  0
 11 10  2  0
 12 13  1  0
 14 15  1  0
 14 13  1  1
 14 16  1  0
 16 18  1  0
 17 16  2  0
M  END
$$$$
