GTS.pdb
     RDKit          3D

 18 17  0  0  1  0  0  0  0  0999 V2000
   16.4564  -10.3084  -14.9358 N   0  0  0  0  0  0  0  0  0  0  0  0
   15.9547   -8.9610  -14.9835 C   0  0  0  0  0  0  0  0  0  0  0  0
   17.0128   -8.0649  -15.5194 C   0  0  0  0  0  0  0  0  0  0  0  0
   18.1194   -8.5480  -15.8764 O   0  0  0  0  0  0  0  0  0  0  0  0
   18.3022   -3.9473  -17.7780 C   0  0  0  0  0  0  0  0  0  0  0  0
   17.1913   -4.7725  -17.1660 C   0  0  1  0  0  0  0  0  0  0  0  0
   16.4253   -5.4009  -18.1186 O   0  0  0  0  0  0  0  0  0  0  0  0
   17.7924   -5.7892  -16.2168 C   0  0  2  0  0  0  0  0  0  0  0  0
   16.8098   -6.6533  -15.6435 N   0  0  0  0  0  0  0  0  0  0  0  0
   18.6003   -5.1260  -15.1607 C   0  0  0  0  0  0  0  0  0  0  0  0
   18.1341   -4.2436  -14.4168 O   0  0  0  0  0  0  0  0  0  0  0  0
   22.9586   -4.9226  -12.9101 O   0  0  0  0  0  0  0  0  0  0  0  0
   22.1976   -5.4943  -13.9185 C   0  0  0  0  0  0  0  0  0  0  0  0
   20.8422   -4.8486  -14.0261 C   0  0  2  0  0  0  0  0  0  0  0  0
   19.9706   -5.4827  -14.9546 N   0  0  0  0  0  0  0  0  0  0  0  0
   21.0343   -3.4121  -14.2608 C   0  0  0  0  0  0  0  0  0  0  0  0
   21.3170   -3.0044  -15.4097 O   0  0  0  0  0  0  0  0  0  0  0  0
   20.9053   -2.5189  -13.2278 O   0  0  0  0  0  0  0  0  0  0  0  0
  2  1  1  0
  3  2  1  0
  4  3  2  0
  6  5  1  6
  6  7  1  0
  6  8  1  0
  8  9  1  1
  9  3  1  0
 10  8  1  0
 10 15  1  0
 11 10  2  0
 12 13  1  0
 14 15  1  0
 14 13  1  6
 14 16  1  0
 16 18  1  0
 17 16  2  0
M  END
$$$$
