GTS.pdb
     RDKit          3D

 18 17  0  0  1  0  0  0  0  0999 V2000
   16.8885  -11.9738  -15.6582 N   0  0  0  0  0  0  0  0  0  0  0  0
   16.9302  -10.6136  -15.1920 C   0  0  0  0  0  0  0  0  0  0  0  0
   18.2955  -10.0659  -15.4057 C   0  0  0  0  0  0  0  0  0  0  0  0
   19.1844  -10.2439  -14.5316 O   0  0  0  0  0  0  0  0  0  0  0  0
   21.6929   -8.1179  -18.3957 C   0  0  0  0  0  0  0  0  0  0  0  0
   20.2644   -8.5990  -18.2630 C   0  0  1  0  0  0  0  0  0  0  0  0
   20.0437   -9.7683  -18.9509 O   0  0  0  0  0  0  0  0  0  0  0  0
   19.9351   -8.7797  -16.7951 C   0  0  2  0  0  0  0  0  0  0  0  0
   18.6348   -9.3339  -16.5882 N   0  0  0  0  0  0  0  0  0  0  0  0
   20.0966   -7.5056  -16.0477 C   0  0  0  0  0  0  0  0  0  0  0  0
   19.3198   -6.5435  -16.1898 O   0  0  0  0  0  0  0  0  0  0  0  0
   22.5669   -5.1097  -12.5604 O   0  0  0  0  0  0  0  0  0  0  0  0
   22.3834   -6.2992  -13.2491 C   0  0  0  0  0  0  0  0  0  0  0  0
   21.4493   -6.1269  -14.4169 C   0  0  2  0  0  0  0  0  0  0  0  0
   21.1711   -7.3327  -15.1188 N   0  0  0  0  0  0  0  0  0  0  0  0
   21.9630   -5.0407  -15.2605 C   0  0  0  0  0  0  0  0  0  0  0  0
   22.8512   -5.2819  -16.1085 O   0  0  0  0  0  0  0  0  0  0  0  0
   21.4738   -3.7666  -15.1222 O   0  0  0  0  0  0  0  0  0  0  0  0
  2  1  1  0
  3  2  1  0
  4  3  2  0
  6  5  1  1
  6  7  1  0
  6  8  1  0
  8  9  1  6
  9  3  1  0
 10  8  1  0
 10 15  1  0
 11 10  2  0
 12 13  1  0
 14 15  1  0
 14 13  1  1
 14 16  1  0
 16 18  1  0
 17 16  2  0
M  END
$$$$
