GTS.pdb
     RDKit          3D

 18 17  0  0  1  0  0  0  0  0999 V2000
   20.7545  -12.5809  -18.4059 N   0  0  0  0  0  0  0  0  0  0  0  0
   20.9848  -11.1920  -18.7011 C   0  0  0  0  0  0  0  0  0  0  0  0
   20.5718  -10.3698  -17.5336 C   0  0  0  0  0  0  0  0  0  0  0  0
   19.3518  -10.2728  -17.2375 O   0  0  0  0  0  0  0  0  0  0  0  0
   23.0491  -10.0703  -14.3241 C   0  0  0  0  0  0  0  0  0  0  0  0
   21.5628   -9.7903  -14.2794 C   0  0  1  0  0  0  0  0  0  0  0  0
   21.1964   -9.1074  -13.1443 O   0  0  0  0  0  0  0  0  0  0  0  0
   21.1666   -9.0098  -15.5163 C   0  0  2  0  0  0  0  0  0  0  0  0
   21.5296   -9.6769  -16.7262 N   0  0  0  0  0  0  0  0  0  0  0  0
   21.7196   -7.6310  -15.4812 C   0  0  0  0  0  0  0  0  0  0  0  0
   22.8847   -7.3683  -15.8317 O   0  0  0  0  0  0  0  0  0  0  0  0
   19.2196   -4.3353  -14.3189 O   0  0  0  0  0  0  0  0  0  0  0  0
   20.2793   -4.1663  -15.1971 C   0  0  0  0  0  0  0  0  0  0  0  0
   21.3641   -5.1829  -14.9614 C   0  0  2  0  0  0  0  0  0  0  0  0
   20.9193   -6.5322  -15.0348 N   0  0  0  0  0  0  0  0  0  0  0  0
   22.0519   -4.8399  -13.7104 C   0  0  0  0  0  0  0  0  0  0  0  0
   22.0421   -5.6494  -12.7560 O   0  0  0  0  0  0  0  0  0  0  0  0
   22.7028   -3.6390  -13.5854 O   0  0  0  0  0  0  0  0  0  0  0  0
  2  1  1  0
  3  2  1  0
  4  3  2  0
  6  5  1  1
  6  7  1  0
  6  8  1  0
  8  9  1  6
  9  3  1  0
 10  8  1  0
 10 15  1  0
 11 10  2  0
 12 13  1  0
 14 15  1  0
 14 13  1  1
 14 16  1  0
 16 18  1  0
 17 16  2  0
M  END
$$$$
