GTS.pdb
     RDKit          3D

 18 17  0  0  1  0  0  0  0  0999 V2000
   16.6703  -17.0179  -15.1567 N   0  0  0  0  0  0  0  0  0  0  0  0
   16.2271  -15.8735  -15.9073 C   0  0  0  0  0  0  0  0  0  0  0  0
   17.0975  -14.7121  -15.5861 C   0  0  0  0  0  0  0  0  0  0  0  0
   17.0219  -14.1688  -14.4526 O   0  0  0  0  0  0  0  0  0  0  0  0
   21.0167  -11.9140  -16.5847 C   0  0  0  0  0  0  0  0  0  0  0  0
   20.1369  -13.0507  -17.0575 C   0  0  1  0  0  0  0  0  0  0  0  0
   20.7664  -14.2689  -16.9637 O   0  0  0  0  0  0  0  0  0  0  0  0
   18.8545  -13.0554  -16.2505 C   0  0  2  0  0  0  0  0  0  0  0  0
   18.0297  -14.1862  -16.5367 N   0  0  0  0  0  0  0  0  0  0  0  0
   18.1016  -11.7871  -16.4312 C   0  0  0  0  0  0  0  0  0  0  0  0
   17.4788  -11.5217  -17.4757 O   0  0  0  0  0  0  0  0  0  0  0  0
   15.8324  -10.2043  -13.7771 O   0  0  0  0  0  0  0  0  0  0  0  0
   16.6412   -9.1729  -14.2297 C   0  0  0  0  0  0  0  0  0  0  0  0
   17.3839   -9.5571  -15.4813 C   0  0  2  0  0  0  0  0  0  0  0  0
   18.0628  -10.8041  -15.3921 N   0  0  0  0  0  0  0  0  0  0  0  0
   18.2388   -8.4297  -15.8733 C   0  0  0  0  0  0  0  0  0  0  0  0
   19.4779   -8.5883  -15.9475 O   0  0  0  0  0  0  0  0  0  0  0  0
   17.6848   -7.2074  -16.1575 O   0  0  0  0  0  0  0  0  0  0  0  0
  2  1  1  0
  3  2  1  0
  4  3  2  0
  6  5  1  1
  6  7  1  0
  6  8  1  0
  8  9  1  6
  9  3  1  0
 10  8  1  0
 10 15  1  0
 11 10  2  0
 12 13  1  0
 14 15  1  0
 14 13  1  1
 14 16  1  0
 16 18  1  0
 17 16  2  0
M  END
$$$$
