GTS.pdb
     RDKit          3D

 18 17  0  0  1  0  0  0  0  0999 V2000
   18.8181  -13.4362  -15.9032 N   0  0  0  0  0  0  0  0  0  0  0  0
   18.6023  -12.2390  -15.1354 C   0  0  0  0  0  0  0  0  0  0  0  0
   19.2964  -11.1031  -15.7969 C   0  0  0  0  0  0  0  0  0  0  0  0
   20.2408  -11.3289  -16.5985 O   0  0  0  0  0  0  0  0  0  0  0  0
   18.1636   -9.0158  -18.3067 C   0  0  0  0  0  0  0  0  0  0  0  0
   18.5242   -8.0119  -17.2335 C   0  0  1  0  0  0  0  0  0  0  0  0
   17.4173   -7.5447  -16.5658 O   0  0  0  0  0  0  0  0  0  0  0  0
   19.4964   -8.6502  -16.2622 C   0  0  2  0  0  0  0  0  0  0  0  0
   18.9198   -9.7446  -15.5477 N   0  0  0  0  0  0  0  0  0  0  0  0
   20.0618   -7.6424  -15.3281 C   0  0  0  0  0  0  0  0  0  0  0  0
   19.6803   -7.5356  -14.1481 O   0  0  0  0  0  0  0  0  0  0  0  0
   23.5417   -4.2535  -14.6495 O   0  0  0  0  0  0  0  0  0  0  0  0
   22.9662   -5.1795  -15.5065 C   0  0  0  0  0  0  0  0  0  0  0  0
   21.7062   -5.7648  -14.9271 C   0  0  2  0  0  0  0  0  0  0  0  0
   21.0855   -6.7395  -15.7570 N   0  0  0  0  0  0  0  0  0  0  0  0
   20.8256   -4.6592  -14.5301 C   0  0  0  0  0  0  0  0  0  0  0  0
   19.9731   -4.2257  -15.3372 O   0  0  0  0  0  0  0  0  0  0  0  0
   20.9344   -4.1021  -13.2813 O   0  0  0  0  0  0  0  0  0  0  0  0
  2  1  1  0
  3  2  1  0
  4  3  2  0
  6  5  1  6
  6  7  1  0
  6  8  1  0
  8  9  1  1
  9  3  1  0
 10  8  1  0
 10 15  1  0
 11 10  2  0
 12 13  1  0
 14 15  1  0
 14 13  1  6
 14 16  1  0
 16 18  1  0
 17 16  2  0
M  END
$$$$
