GTS.pdb
     RDKit          3D

 18 17  0  0  1  0  0  0  0  0999 V2000
   33.3179   -4.1166  -15.9624 N   0  0  0  0  0  0  0  0  0  0  0  0
   33.3549   -5.3961  -15.3060 C   0  0  0  0  0  0  0  0  0  0  0  0
   33.2373   -6.4714  -16.3255 C   0  0  0  0  0  0  0  0  0  0  0  0
   32.9226   -6.1789  -17.5092 O   0  0  0  0  0  0  0  0  0  0  0  0
   33.8247  -11.2138  -17.6180 C   0  0  0  0  0  0  0  0  0  0  0  0
   33.9252  -10.2004  -16.4988 C   0  0  1  0  0  0  0  0  0  0  0  0
   35.2237   -9.9976  -16.0962 O   0  0  0  0  0  0  0  0  0  0  0  0
   33.3031   -8.8953  -16.9525 C   0  0  2  0  0  0  0  0  0  0  0  0
   33.4735   -7.8451  -15.9993 N   0  0  0  0  0  0  0  0  0  0  0  0
   31.8689   -9.0752  -17.2968 C   0  0  0  0  0  0  0  0  0  0  0  0
   30.9730   -9.1113  -16.4334 O   0  0  0  0  0  0  0  0  0  0  0  0
   28.5281   -9.0536  -20.8584 O   0  0  0  0  0  0  0  0  0  0  0  0
   29.8724   -8.9895  -20.5239 C   0  0  0  0  0  0  0  0  0  0  0  0
   30.1056   -9.3644  -19.0849 C   0  0  2  0  0  0  0  0  0  0  0  0
   31.4549   -9.2163  -18.6592 N   0  0  0  0  0  0  0  0  0  0  0  0
   29.5441  -10.7024  -18.8613 C   0  0  0  0  0  0  0  0  0  0  0  0
   30.2399  -11.7144  -19.1021 O   0  0  0  0  0  0  0  0  0  0  0  0
   28.2635  -10.8457  -18.3909 O   0  0  0  0  0  0  0  0  0  0  0  0
  2  1  1  0
  3  2  1  0
  4  3  2  0
  6  5  1  6
  6  7  1  0
  6  8  1  0
  8  9  1  1
  9  3  1  0
 10  8  1  0
 10 15  1  0
 11 10  2  0
 12 13  1  0
 14 15  1  0
 14 13  1  6
 14 16  1  0
 16 18  1  0
 17 16  2  0
M  END
$$$$
