GTS.pdb
     RDKit          3D

 18 17  0  0  1  0  0  0  0  0999 V2000
   18.6889  -12.8825  -16.3453 N   0  0  0  0  0  0  0  0  0  0  0  0
   18.4756  -12.0751  -15.1740 C   0  0  0  0  0  0  0  0  0  0  0  0
   18.6955  -10.6461  -15.5194 C   0  0  0  0  0  0  0  0  0  0  0  0
   19.3056  -10.3459  -16.5792 O   0  0  0  0  0  0  0  0  0  0  0  0
   17.5269   -5.9304  -15.1544 C   0  0  0  0  0  0  0  0  0  0  0  0
   17.2226   -7.3569  -14.7517 C   0  0  1  0  0  0  0  0  0  0  0  0
   16.1461   -7.8712  -15.4340 O   0  0  0  0  0  0  0  0  0  0  0  0
   18.4521   -8.2117  -14.9833 C   0  0  2  0  0  0  0  0  0  0  0  0
   18.2296   -9.5886  -14.6744 N   0  0  0  0  0  0  0  0  0  0  0  0
   19.6233   -7.6809  -14.2387 C   0  0  0  0  0  0  0  0  0  0  0  0
   19.6967   -7.7123  -12.9965 O   0  0  0  0  0  0  0  0  0  0  0  0
   22.8364   -5.8128  -16.3748 O   0  0  0  0  0  0  0  0  0  0  0  0
   23.0966   -6.4893  -15.1926 C   0  0  0  0  0  0  0  0  0  0  0  0
   21.8814   -6.5467  -14.3060 C   0  0  2  0  0  0  0  0  0  0  0  0
   20.7322   -7.1027  -14.9338 N   0  0  0  0  0  0  0  0  0  0  0  0
   21.6698   -5.2134  -13.7287 C   0  0  0  0  0  0  0  0  0  0  0  0
   20.6645   -4.5466  -14.0616 O   0  0  0  0  0  0  0  0  0  0  0  0
   22.5680   -4.6986  -12.8287 O   0  0  0  0  0  0  0  0  0  0  0  0
  2  1  1  0
  3  2  1  0
  4  3  2  0
  6  5  1  6
  6  7  1  0
  6  8  1  0
  8  9  1  1
  9  3  1  0
 10  8  1  0
 10 15  1  0
 11 10  2  0
 12 13  1  0
 14 15  1  0
 14 13  1  6
 14 16  1  0
 16 18  1  0
 17 16  2  0
M  END
$$$$
