GTS.pdb
     RDKit          3D

 18 17  0  0  1  0  0  0  0  0999 V2000
   16.5447  -11.3783  -14.7415 N   0  0  0  0  0  0  0  0  0  0  0  0
   17.0159  -10.3974  -15.6823 C   0  0  0  0  0  0  0  0  0  0  0  0
   18.4138  -10.0250  -15.3403 C   0  0  0  0  0  0  0  0  0  0  0  0
   18.8548  -10.2486  -14.1822 O   0  0  0  0  0  0  0  0  0  0  0  0
   23.0054   -8.9276  -16.4320 C   0  0  0  0  0  0  0  0  0  0  0  0
   21.6528   -9.3969  -16.9220 C   0  0  1  0  0  0  0  0  0  0  0  0
   21.6014  -10.7616  -17.0781 O   0  0  0  0  0  0  0  0  0  0  0  0
   20.5850   -8.9359  -15.9508 C   0  0  2  0  0  0  0  0  0  0  0  0
   19.2840   -9.4129  -16.2981 N   0  0  0  0  0  0  0  0  0  0  0  0
   20.5902   -7.4567  -15.8094 C   0  0  0  0  0  0  0  0  0  0  0  0
   20.1814   -6.6973  -16.7069 O   0  0  0  0  0  0  0  0  0  0  0  0
   22.1989   -5.6231  -12.2567 O   0  0  0  0  0  0  0  0  0  0  0  0
   21.1787   -5.0137  -12.9715 C   0  0  0  0  0  0  0  0  0  0  0  0
   21.1860   -5.4326  -14.4173 C   0  0  2  0  0  0  0  0  0  0  0  0
   21.0743   -6.8371  -14.6139 N   0  0  0  0  0  0  0  0  0  0  0  0
   22.3521   -4.8216  -15.0673 C   0  0  0  0  0  0  0  0  0  0  0  0
   23.2820   -5.5490  -15.4821 O   0  0  0  0  0  0  0  0  0  0  0  0
   22.4246   -3.4604  -15.2206 O   0  0  0  0  0  0  0  0  0  0  0  0
  2  1  1  0
  3  2  1  0
  4  3  2  0
  6  5  1  1
  6  7  1  0
  6  8  1  0
  8  9  1  6
  9  3  1  0
 10  8  1  0
 10 15  1  0
 11 10  2  0
 12 13  1  0
 14 15  1  0
 14 13  1  1
 14 16  1  0
 16 18  1  0
 17 16  2  0
M  END
$$$$
