GYG.pdb
     RDKit          3D

 21 21  0  0  1  0  0  0  0  0999 V2000
    6.1038  -16.5226   20.5283 N   0  0  0  0  0  0  0  0  0  0  0  0
    6.3879  -16.8583   21.9028 C   0  0  0  0  0  0  0  0  0  0  0  0
    7.4182  -15.9433   22.4832 C   0  0  0  0  0  0  0  0  0  0  0  0
    7.9275  -15.0108   21.8126 O   0  0  0  0  0  0  0  0  0  0  0  0
    5.2438  -10.8630   27.3751 O   0  0  0  0  0  0  0  0  0  0  0  0
    6.0987  -11.9165   27.0097 C   0  0  0  0  0  0  0  0  0  0  0  0
    5.6391  -13.2102   26.9046 C   0  0  0  0  0  0  0  0  0  0  0  0
    6.4964  -14.2347   26.5433 C   0  0  0  0  0  0  0  0  0  0  0  0
    7.8277  -14.0188   26.2752 C   0  0  0  0  0  0  0  0  0  0  0  0
    8.7404  -15.0879   25.8940 C   0  0  0  0  0  0  0  0  0  0  0  0
    8.9093  -15.2479   24.4011 C   0  0  2  0  0  0  0  0  0  0  0  0
    7.8732  -16.0864   23.8302 N   0  0  0  0  0  0  0  0  0  0  0  0
   10.2158  -15.9267   24.1868 C   0  0  0  0  0  0  0  0  0  0  0  0
   11.2992  -15.4257   24.6331 O   0  0  0  0  0  0  0  0  0  0  0  0
    8.2838  -12.7249   26.3811 C   0  0  0  0  0  0  0  0  0  0  0  0
    7.4295  -11.6789   26.7452 C   0  0  0  0  0  0  0  0  0  0  0  0
   10.3432  -17.1483   23.4881 N   0  0  0  0  0  0  0  0  0  0  0  0
   11.6307  -17.8511   23.3817 C   0  0  0  0  0  0  0  0  0  0  0  0
   12.3924  -17.4079   22.2172 C   0  0  0  0  0  0  0  0  0  0  0  0
   13.5315  -17.8675   21.9707 O   0  0  0  0  0  0  0  0  0  0  0  0
   11.8532  -16.4626   21.3647 O   0  0  0  0  0  0  0  0  0  0  0  0
  1  2  1  0
  3  4  2  0
  3  2  1  0
  6  5  1  0
  6  7  2  0
  8  7  1  0
  9  8  2  0
 10  9  1  0
 11 12  1  0
 11 10  1  1
 12  3  1  0
 13 11  1  0
 14 13  2  0
 15 16  2  0
 15  9  1  0
 16  6  1  0
 17 13  1  0
 18 17  1  0
 19 18  1  0
 19 21  1  0
 20 19  2  0
M  END
$$$$
