GYG.pdb
     RDKit          3D

 21 21  0  0  1  0  0  0  0  0999 V2000
    8.9310  -20.0424   19.5685 N   0  0  0  0  0  0  0  0  0  0  0  0
    8.5540  -19.3313   20.7664 C   0  0  0  0  0  0  0  0  0  0  0  0
    9.4848  -18.1932   21.0378 C   0  0  0  0  0  0  0  0  0  0  0  0
   10.4467  -17.9290   20.2738 O   0  0  0  0  0  0  0  0  0  0  0  0
    6.4765  -12.9407   18.3290 O   0  0  0  0  0  0  0  0  0  0  0  0
    7.1875  -13.4476   19.4299 C   0  0  0  0  0  0  0  0  0  0  0  0
    6.5542  -14.1469   20.4329 C   0  0  0  0  0  0  0  0  0  0  0  0
    7.2715  -14.6385   21.5095 C   0  0  0  0  0  0  0  0  0  0  0  0
    8.6291  -14.4579   21.6321 C   0  0  0  0  0  0  0  0  0  0  0  0
    9.3956  -14.9700   22.7597 C   0  0  0  0  0  0  0  0  0  0  0  0
   10.1887  -16.2175   22.4471 C   0  0  2  0  0  0  0  0  0  0  0  0
    9.3243  -17.3507   22.1808 N   0  0  0  0  0  0  0  0  0  0  0  0
   10.9922  -16.5309   23.6595 C   0  0  0  0  0  0  0  0  0  0  0  0
   11.8316  -15.6941   24.1277 O   0  0  0  0  0  0  0  0  0  0  0  0
    9.2589  -13.7587   20.6282 C   0  0  0  0  0  0  0  0  0  0  0  0
    8.5476  -13.2557   19.5338 C   0  0  0  0  0  0  0  0  0  0  0  0
   10.8825  -17.7525   24.3612 N   0  0  0  0  0  0  0  0  0  0  0  0
   11.7555  -18.0747   25.5000 C   0  0  0  0  0  0  0  0  0  0  0  0
   11.3681  -19.3298   26.1384 C   0  0  0  0  0  0  0  0  0  0  0  0
   10.4396  -20.0345   25.6792 O   0  0  0  0  0  0  0  0  0  0  0  0
   12.0341  -19.7561   27.2722 O   0  0  0  0  0  0  0  0  0  0  0  0
  1  2  1  0
  3  4  2  0
  3  2  1  0
  6  5  1  0
  6  7  2  0
  8  7  1  0
  9  8  2  0
 10  9  1  0
 11 12  1  0
 11 10  1  1
 12  3  1  0
 13 11  1  0
 14 13  2  0
 15 16  2  0
 15  9  1  0
 16  6  1  0
 17 13  1  0
 18 17  1  0
 19 18  1  0
 19 21  1  0
 20 19  2  0
M  END
$$$$
