GYG.pdb
     RDKit          3D

 21 21  0  0  1  0  0  0  0  0999 V2000
    7.9661  -12.7849   18.7762 N   0  0  0  0  0  0  0  0  0  0  0  0
    7.4804  -13.8723   19.5913 C   0  0  0  0  0  0  0  0  0  0  0  0
    8.2076  -13.9397   20.8959 C   0  0  0  0  0  0  0  0  0  0  0  0
    9.1864  -13.1928   21.1468 O   0  0  0  0  0  0  0  0  0  0  0  0
    5.9383  -10.6323   27.2660 O   0  0  0  0  0  0  0  0  0  0  0  0
    6.3353  -11.7741   26.5496 C   0  0  0  0  0  0  0  0  0  0  0  0
    6.9798  -12.8216   27.1686 C   0  0  0  0  0  0  0  0  0  0  0  0
    7.3632  -13.9380   26.4462 C   0  0  0  0  0  0  0  0  0  0  0  0
    7.1250  -14.0579   25.0972 C   0  0  0  0  0  0  0  0  0  0  0  0
    7.5231  -15.2271   24.3254 C   0  0  0  0  0  0  0  0  0  0  0  0
    8.4915  -14.9233   23.2061 C   0  0  2  0  0  0  0  0  0  0  0  0
    7.8235  -14.8583   21.9209 N   0  0  0  0  0  0  0  0  0  0  0  0
    9.4620  -16.0502   23.1599 C   0  0  0  0  0  0  0  0  0  0  0  0
    9.1447  -17.1719   22.6451 O   0  0  0  0  0  0  0  0  0  0  0  0
    6.4807  -13.0094   24.4817 C   0  0  0  0  0  0  0  0  0  0  0  0
    6.0871  -11.8744   25.1984 C   0  0  0  0  0  0  0  0  0  0  0  0
   10.7753  -15.9566   23.6730 N   0  0  0  0  0  0  0  0  0  0  0  0
   11.7444  -17.0535   23.5303 C   0  0  0  0  0  0  0  0  0  0  0  0
   11.7377  -17.9340   24.6954 C   0  0  0  0  0  0  0  0  0  0  0  0
   12.0372  -17.5085   25.8350 O   0  0  0  0  0  0  0  0  0  0  0  0
   11.3954  -19.2651   24.5466 O   0  0  0  0  0  0  0  0  0  0  0  0
  1  2  1  0
  3  4  2  0
  3  2  1  0
  6  5  1  0
  6  7  2  0
  8  7  1  0
  9  8  2  0
 10  9  1  0
 11 12  1  0
 11 10  1  1
 12  3  1  0
 13 11  1  0
 14 13  2  0
 15 16  2  0
 15  9  1  0
 16  6  1  0
 17 13  1  0
 18 17  1  0
 19 18  1  0
 19 21  1  0
 20 19  2  0
M  END
$$$$
