GYG.pdb
     RDKit          3D

 21 21  0  0  1  0  0  0  0  0999 V2000
    4.9757  -19.2169   20.5470 N   0  0  0  0  0  0  0  0  0  0  0  0
    4.7532  -18.3050   21.6431 C   0  0  0  0  0  0  0  0  0  0  0  0
    6.0458  -17.8122   22.2103 C   0  0  0  0  0  0  0  0  0  0  0  0
    7.1520  -18.2732   21.8328 O   0  0  0  0  0  0  0  0  0  0  0  0
    8.6823  -12.7532   18.6626 O   0  0  0  0  0  0  0  0  0  0  0  0
    8.3654  -13.2695   19.9305 C   0  0  0  0  0  0  0  0  0  0  0  0
    7.0589  -13.4135   20.3407 C   0  0  0  0  0  0  0  0  0  0  0  0
    6.7665  -13.9240   21.5934 C   0  0  0  0  0  0  0  0  0  0  0  0
    7.7471  -14.3071   22.4780 C   0  0  0  0  0  0  0  0  0  0  0  0
    7.4530  -14.8457   23.7989 C   0  0  0  0  0  0  0  0  0  0  0  0
    7.3173  -16.3501   23.8322 C   0  0  2  0  0  0  0  0  0  0  0  0
    6.0844  -16.7921   23.2102 N   0  0  0  0  0  0  0  0  0  0  0  0
    7.2730  -16.7458   25.2658 C   0  0  0  0  0  0  0  0  0  0  0  0
    6.2132  -16.5967   25.9577 O   0  0  0  0  0  0  0  0  0  0  0  0
    9.0516  -14.1618   22.0650 C   0  0  0  0  0  0  0  0  0  0  0  0
    9.3629  -13.6475   20.8020 C   0  0  0  0  0  0  0  0  0  0  0  0
    8.3797  -17.3028   25.9453 N   0  0  0  0  0  0  0  0  0  0  0  0
    8.2346  -17.9747   27.2454 C   0  0  0  0  0  0  0  0  0  0  0  0
    9.5264  -18.3896   27.7853 C   0  0  0  0  0  0  0  0  0  0  0  0
   10.4630  -18.7449   27.0328 O   0  0  0  0  0  0  0  0  0  0  0  0
    9.7285  -18.3933   29.1529 O   0  0  0  0  0  0  0  0  0  0  0  0
  1  2  1  0
  3  4  2  0
  3  2  1  0
  6  5  1  0
  6  7  2  0
  8  7  1  0
  9  8  2  0
 10  9  1  0
 11 12  1  0
 11 10  1  1
 12  3  1  0
 13 11  1  0
 14 13  2  0
 15 16  2  0
 15  9  1  0
 16  6  1  0
 17 13  1  0
 18 17  1  0
 19 18  1  0
 19 21  1  0
 20 19  2  0
M  END
$$$$
