GYG.pdb
     RDKit          3D

 21 21  0  0  1  0  0  0  0  0999 V2000
    6.7034  -27.2345   29.2782 N   0  0  0  0  0  0  0  0  0  0  0  0
    8.0504  -27.3436   29.7845 C   0  0  0  0  0  0  0  0  0  0  0  0
    8.4174  -26.1538   30.6121 C   0  0  0  0  0  0  0  0  0  0  0  0
    7.6118  -25.2091   30.8058 O   0  0  0  0  0  0  0  0  0  0  0  0
    5.9044  -27.5007   36.1725 O   0  0  0  0  0  0  0  0  0  0  0  0
    7.0068  -26.9397   35.5058 C   0  0  0  0  0  0  0  0  0  0  0  0
    7.3050  -25.5999   35.6138 C   0  0  0  0  0  0  0  0  0  0  0  0
    8.3952  -25.0654   34.9496 C   0  0  0  0  0  0  0  0  0  0  0  0
    9.2226  -25.8301   34.1614 C   0  0  0  0  0  0  0  0  0  0  0  0
   10.3728  -25.2803   33.4571 C   0  0  0  0  0  0  0  0  0  0  0  0
   10.0871  -24.8895   32.0258 C   0  0  2  0  0  0  0  0  0  0  0  0
    9.7037  -26.0343   31.2228 N   0  0  0  0  0  0  0  0  0  0  0  0
   11.3542  -24.3442   31.4682 C   0  0  0  0  0  0  0  0  0  0  0  0
   12.2382  -25.1136   30.9675 O   0  0  0  0  0  0  0  0  0  0  0  0
    8.9218  -27.1687   34.0555 C   0  0  0  0  0  0  0  0  0  0  0  0
    7.8235  -27.7234   34.7207 C   0  0  0  0  0  0  0  0  0  0  0  0
   11.6588  -22.9645   31.4554 N   0  0  0  0  0  0  0  0  0  0  0  0
   12.9467  -22.4584   30.9573 C   0  0  0  0  0  0  0  0  0  0  0  0
   13.0651  -21.0142   31.1383 C   0  0  0  0  0  0  0  0  0  0  0  0
   12.0833  -20.3190   31.4884 O   0  0  0  0  0  0  0  0  0  0  0  0
   14.2811  -20.3936   30.9211 O   0  0  0  0  0  0  0  0  0  0  0  0
  1  2  1  0
  3  4  2  0
  3  2  1  0
  6  5  1  0
  6  7  2  0
  8  7  1  0
  9  8  2  0
 10  9  1  0
 11 12  1  0
 11 10  1  1
 12  3  1  0
 13 11  1  0
 14 13  2  0
 15 16  2  0
 15  9  1  0
 16  6  1  0
 17 13  1  0
 18 17  1  0
 19 18  1  0
 19 21  1  0
 20 19  2  0
M  END
$$$$
