GYG.pdb
     RDKit          3D

 21 21  0  0  1  0  0  0  0  0999 V2000
    9.9486  -16.7927   18.1700 N   0  0  0  0  0  0  0  0  0  0  0  0
    8.7120  -16.6963   18.9077 C   0  0  0  0  0  0  0  0  0  0  0  0
    8.9129  -16.0002   20.2156 C   0  0  0  0  0  0  0  0  0  0  0  0
   10.0604  -15.7508   20.6626 O   0  0  0  0  0  0  0  0  0  0  0  0
    7.2068  -11.7412   27.8472 O   0  0  0  0  0  0  0  0  0  0  0  0
    7.0876  -12.3795   26.6009 C   0  0  0  0  0  0  0  0  0  0  0  0
    7.5977  -11.8143   25.4536 C   0  0  0  0  0  0  0  0  0  0  0  0
    7.4706  -12.4581   24.2351 C   0  0  0  0  0  0  0  0  0  0  0  0
    6.8399  -13.6734   24.1084 C   0  0  0  0  0  0  0  0  0  0  0  0
    6.6994  -14.3613   22.8323 C   0  0  0  0  0  0  0  0  0  0  0  0
    7.9717  -15.0127   22.3426 C   0  0  2  0  0  0  0  0  0  0  0  0
    7.8077  -15.5849   21.0205 N   0  0  0  0  0  0  0  0  0  0  0  0
    8.2770  -16.1221   23.2858 C   0  0  0  0  0  0  0  0  0  0  0  0
    7.5057  -17.1315   23.3870 O   0  0  0  0  0  0  0  0  0  0  0  0
    6.3313  -14.2354   25.2568 C   0  0  0  0  0  0  0  0  0  0  0  0
    6.4520  -13.5969   26.4955 C   0  0  0  0  0  0  0  0  0  0  0  0
    9.4195  -16.1332   24.1173 N   0  0  0  0  0  0  0  0  0  0  0  0
    9.7765  -17.3055   24.9304 C   0  0  0  0  0  0  0  0  0  0  0  0
   11.0684  -17.1321   25.5888 C   0  0  0  0  0  0  0  0  0  0  0  0
   11.1848  -17.2355   26.8320 O   0  0  0  0  0  0  0  0  0  0  0  0
   12.1904  -16.8481   24.8328 O   0  0  0  0  0  0  0  0  0  0  0  0
  1  2  1  0
  3  4  2  0
  3  2  1  0
  6  5  1  0
  6  7  2  0
  8  7  1  0
  9  8  2  0
 10  9  1  0
 11 12  1  0
 11 10  1  1
 12  3  1  0
 13 11  1  0
 14 13  2  0
 15 16  2  0
 15  9  1  0
 16  6  1  0
 17 13  1  0
 18 17  1  0
 19 18  1  0
 19 21  1  0
 20 19  2  0
M  END
$$$$
