WYY.pdb
     RDKit          3D

 39 42  0  0  1  0  0  0  0  0999 V2000
   17.8829   -3.2922  -19.6683 N   0  0  0  0  0  0  0  0  0  0  0  0
   18.5962   -2.7125  -18.5369 C   0  0  1  0  0  0  0  0  0  0  0  0
   17.9423   -1.3943  -18.0964 C   0  0  0  0  0  0  0  0  0  0  0  0
   18.3438   -0.3708  -19.0702 C   0  0  0  0  0  0  0  0  0  0  0  0
   17.8233   -0.1953  -20.3286 C   0  0  0  0  0  0  0  0  0  0  0  0
   18.4743    0.8595  -20.8921 N   0  0  0  0  0  0  0  0  0  0  0  0
   19.3878    1.3549  -20.0317 C   0  0  0  0  0  0  0  0  0  0  0  0
   20.3054    2.3801  -20.0553 C   0  0  0  0  0  0  0  0  0  0  0  0
   21.1236    2.6438  -18.9862 C   0  0  0  0  0  0  0  0  0  0  0  0
   21.0429    1.8762  -17.8488 C   0  0  0  0  0  0  0  0  0  0  0  0
   20.1370    0.8449  -17.7928 C   0  0  0  0  0  0  0  0  0  0  0  0
   19.3075    0.5872  -18.8926 C   0  0  0  0  0  0  0  0  0  0  0  0
   18.5207   -3.6456  -17.4121 C   0  0  0  0  0  0  0  0  0  0  0  0
   17.5002   -4.3357  -17.2035 O   0  0  0  0  0  0  0  0  0  0  0  0
   20.8606   -9.5465  -11.4649 O   0  0  0  0  0  0  0  0  0  0  0  0
   20.8641   -8.5482  -12.4388 C   0  0  0  0  0  0  0  0  0  0  0  0
   20.2008   -8.8002  -13.6220 C   0  0  0  0  0  0  0  0  0  0  0  0
   20.2070   -7.8188  -14.5749 C   0  0  0  0  0  0  0  0  0  0  0  0
   20.8513   -6.5920  -14.3930 C   0  0  0  0  0  0  0  0  0  0  0  0
   20.8176   -5.5804  -15.4718 C   0  0  0  0  0  0  0  0  0  0  0  0
   19.5614   -4.7478  -15.4653 C   0  0  2  0  0  0  0  0  0  0  0  0
   19.6321   -3.7847  -16.5161 N   0  0  0  0  0  0  0  0  0  0  0  0
   19.4550   -4.1084  -14.1207 C   0  0  0  0  0  0  0  0  0  0  0  0
   20.1215   -3.0975  -13.7748 O   0  0  0  0  0  0  0  0  0  0  0  0
   21.4956   -6.3936  -13.1980 C   0  0  0  0  0  0  0  0  0  0  0  0
   21.5208   -7.3479  -12.2034 C   0  0  0  0  0  0  0  0  0  0  0  0
   16.5630   -0.4587   -6.9055 O   0  0  0  0  0  0  0  0  0  0  0  0
   16.7629   -1.1031   -8.1089 C   0  0  0  0  0  0  0  0  0  0  0  0
   15.9146   -2.0724   -8.5962 C   0  0  0  0  0  0  0  0  0  0  0  0
   16.1390   -2.7007   -9.8041 C   0  0  0  0  0  0  0  0  0  0  0  0
   17.2268   -2.3796  -10.5719 C   0  0  0  0  0  0  0  0  0  0  0  0
   17.5571   -2.9847  -11.8598 C   0  0  0  0  0  0  0  0  0  0  0  0
   18.4374   -4.1907  -11.8106 C   0  0  2  0  0  0  0  0  0  0  0  0
   18.5491   -4.6827  -13.1928 N   0  0  0  0  0  0  0  0  0  0  0  0
   17.7771   -5.2691  -11.0333 C   0  0  0  0  0  0  0  0  0  0  0  0
   16.9534   -6.0854  -11.5665 O   0  0  0  0  0  0  0  0  0  0  0  0
   18.0815   -1.3956  -10.0695 C   0  0  0  0  0  0  0  0  0  0  0  0
   17.8629   -0.7649   -8.8651 C   0  0  0  0  0  0  0  0  0  0  0  0
   18.0082   -5.4700   -9.6648 O   0  0  0  0  0  0  0  0  0  0  0  0
  2  3  1  0
  2  1  1  6
  4  5  2  0
  4  3  1  0
  6  5  1  0
  7 12  2  0
  7  6  1  0
  8  7  1  0
  9 10  1  0
  9  8  2  0
 10 11  2  0
 11 12  1  0
 12  4  1  0
 13  2  1  0
 14 13  2  0
 16 15  1  0
 17 16  2  0
 18 17  1  0
 19 18  2  0
 19 25  1  0
 20 19  1  0
 21 20  1  1
 21 22  1  0
 22 13  1  0
 23 21  1  0
 23 34  1  0
 24 23  2  0
 25 26  2  0
 26 16  1  0
 28 38  2  0
 28 27  1  0
 29 28  1  0
 30 31  1  0
 30 29  2  0
 31 37  2  0
 32 31  1  0
 33 34  1  0
 33 32  1  6
 35 33  1  0
 36 35  2  0
 37 38  1  0
 39 35  1  0
M  END
$$$$
