WYY.pdb
     RDKit          3D

 39 42  0  0  1  0  0  0  0  0999 V2000
   23.8893  -20.7121  -19.2220 N   0  0  0  0  0  0  0  0  0  0  0  0
   23.5575  -19.9518  -18.0234 C   0  0  1  0  0  0  0  0  0  0  0  0
   22.3470  -19.0398  -18.2728 C   0  0  0  0  0  0  0  0  0  0  0  0
   22.8626  -17.7929  -18.8526 C   0  0  0  0  0  0  0  0  0  0  0  0
   24.1816  -17.4237  -18.9485 C   0  0  0  0  0  0  0  0  0  0  0  0
   24.2171  -16.2015  -19.5477 N   0  0  0  0  0  0  0  0  0  0  0  0
   22.9650  -15.7876  -19.8328 C   0  0  0  0  0  0  0  0  0  0  0  0
   22.4075  -14.6729  -20.4163 C   0  0  0  0  0  0  0  0  0  0  0  0
   21.0509  -14.5382  -20.5693 C   0  0  0  0  0  0  0  0  0  0  0  0
   20.2048  -15.5309  -20.1356 C   0  0  0  0  0  0  0  0  0  0  0  0
   20.7295  -16.6569  -19.5488 C   0  0  0  0  0  0  0  0  0  0  0  0
   22.1174  -16.7809  -19.3992 C   0  0  0  0  0  0  0  0  0  0  0  0
   23.1965  -20.8918  -16.9615 C   0  0  0  0  0  0  0  0  0  0  0  0
   22.5565  -21.9371  -17.2045 O   0  0  0  0  0  0  0  0  0  0  0  0
   27.8075  -25.2707  -16.8561 O   0  0  0  0  0  0  0  0  0  0  0  0
   26.9747  -24.4362  -16.1110 C   0  0  0  0  0  0  0  0  0  0  0  0
   25.9748  -25.0242  -15.3641 C   0  0  0  0  0  0  0  0  0  0  0  0
   25.1598  -24.2024  -14.6352 C   0  0  0  0  0  0  0  0  0  0  0  0
   25.3036  -22.8123  -14.6224 C   0  0  0  0  0  0  0  0  0  0  0  0
   24.3805  -21.9883  -13.8116 C   0  0  0  0  0  0  0  0  0  0  0  0
   23.1669  -21.5287  -14.5779 C   0  0  2  0  0  0  0  0  0  0  0  0
   23.5752  -20.6248  -15.6040 N   0  0  0  0  0  0  0  0  0  0  0  0
   22.2362  -20.8899  -13.6014 C   0  0  0  0  0  0  0  0  0  0  0  0
   22.5131  -19.8450  -12.9554 O   0  0  0  0  0  0  0  0  0  0  0  0
   26.3139  -22.2797  -15.3828 C   0  0  0  0  0  0  0  0  0  0  0  0
   27.1642  -23.0611  -16.1358 C   0  0  0  0  0  0  0  0  0  0  0  0
   16.5339  -23.3332  -17.4425 O   0  0  0  0  0  0  0  0  0  0  0  0
   17.0978  -22.5902  -16.4258 C   0  0  0  0  0  0  0  0  0  0  0  0
   16.6328  -22.6091  -15.1297 C   0  0  0  0  0  0  0  0  0  0  0  0
   17.2167  -21.8555  -14.1321 C   0  0  0  0  0  0  0  0  0  0  0  0
   18.2930  -21.0511  -14.3976 C   0  0  0  0  0  0  0  0  0  0  0  0
   18.9807  -20.2134  -13.4182 C   0  0  0  0  0  0  0  0  0  0  0  0
   19.9518  -20.9132  -12.5243 C   0  0  2  0  0  0  0  0  0  0  0  0
   20.9743  -21.5056  -13.4010 N   0  0  0  0  0  0  0  0  0  0  0  0
   19.2825  -22.0450  -11.8358 C   0  0  0  0  0  0  0  0  0  0  0  0
   18.3757  -21.8655  -10.9556 O   0  0  0  0  0  0  0  0  0  0  0  0
   18.7574  -21.0382  -15.7150 C   0  0  0  0  0  0  0  0  0  0  0  0
   18.1793  -21.7882  -16.7147 C   0  0  0  0  0  0  0  0  0  0  0  0
   19.5944  -23.3865  -12.0998 O   0  0  0  0  0  0  0  0  0  0  0  0
  2  3  1  0
  2  1  1  6
  4  5  2  0
  4  3  1  0
  6  5  1  0
  7 12  2  0
  7  6  1  0
  8  7  1  0
  9 10  1  0
  9  8  2  0
 10 11  2  0
 11 12  1  0
 12  4  1  0
 13  2  1  0
 14 13  2  0
 16 15  1  0
 17 16  2  0
 18 17  1  0
 19 18  2  0
 19 25  1  0
 20 19  1  0
 21 20  1  1
 21 22  1  0
 22 13  1  0
 23 21  1  0
 23 34  1  0
 24 23  2  0
 25 26  2  0
 26 16  1  0
 28 38  2  0
 28 27  1  0
 29 28  1  0
 30 31  1  0
 30 29  2  0
 31 37  2  0
 32 31  1  0
 33 34  1  0
 33 32  1  6
 35 33  1  0
 36 35  2  0
 37 38  1  0
 39 35  1  0
M  END
$$$$
