WYY.pdb
     RDKit          3D

 39 42  0  0  1  0  0  0  0  0999 V2000
   27.9712  -22.1480  -15.7142 N   0  0  0  0  0  0  0  0  0  0  0  0
   27.1153  -20.9917  -15.4793 C   0  0  1  0  0  0  0  0  0  0  0  0
   26.3478  -20.6123  -16.7545 C   0  0  0  0  0  0  0  0  0  0  0  0
   27.1163  -19.5501  -17.4166 C   0  0  0  0  0  0  0  0  0  0  0  0
   27.9194  -19.6934  -18.5209 C   0  0  0  0  0  0  0  0  0  0  0  0
   28.4405  -18.4677  -18.8041 N   0  0  0  0  0  0  0  0  0  0  0  0
   27.9931  -17.5564  -17.9154 C   0  0  0  0  0  0  0  0  0  0  0  0
   28.1780  -16.2078  -17.7134 C   0  0  0  0  0  0  0  0  0  0  0  0
   27.5648  -15.5395  -16.6842 C   0  0  0  0  0  0  0  0  0  0  0  0
   26.7383  -16.2144  -15.8176 C   0  0  0  0  0  0  0  0  0  0  0  0
   26.5325  -17.5615  -15.9918 C   0  0  0  0  0  0  0  0  0  0  0  0
   27.1654  -18.2311  -17.0477 C   0  0  0  0  0  0  0  0  0  0  0  0
   26.1314  -21.3421  -14.4542 C   0  0  0  0  0  0  0  0  0  0  0  0
   25.7257  -22.5153  -14.3123 O   0  0  0  0  0  0  0  0  0  0  0  0
   28.4953  -22.0101   -7.6600 O   0  0  0  0  0  0  0  0  0  0  0  0
   27.6142  -21.4676   -8.5952 C   0  0  0  0  0  0  0  0  0  0  0  0
   26.2795  -21.3915   -8.2542 C   0  0  0  0  0  0  0  0  0  0  0  0
   25.4184  -20.8593   -9.1742 C   0  0  0  0  0  0  0  0  0  0  0  0
   25.8380  -20.3990  -10.4252 C   0  0  0  0  0  0  0  0  0  0  0  0
   24.8465  -19.8392  -11.3696 C   0  0  0  0  0  0  0  0  0  0  0  0
   24.6452  -20.6942  -12.5943 C   0  0  2  0  0  0  0  0  0  0  0  0
   25.6073  -20.3299  -13.5834 N   0  0  0  0  0  0  0  0  0  0  0  0
   23.2447  -20.4803  -13.0643 C   0  0  0  0  0  0  0  0  0  0  0  0
   22.8366  -19.4023  -13.5715 O   0  0  0  0  0  0  0  0  0  0  0  0
   27.1760  -20.4982  -10.7131 C   0  0  0  0  0  0  0  0  0  0  0  0
   28.0873  -21.0255   -9.8232 C   0  0  0  0  0  0  0  0  0  0  0  0
   15.0918  -23.1030  -15.4579 O   0  0  0  0  0  0  0  0  0  0  0  0
   16.3872  -23.0396  -14.9873 C   0  0  0  0  0  0  0  0  0  0  0  0
   16.7357  -23.3502  -13.6917 C   0  0  0  0  0  0  0  0  0  0  0  0
   18.0402  -23.2782  -13.2479 C   0  0  0  0  0  0  0  0  0  0  0  0
   19.0486  -22.8904  -14.0897 C   0  0  0  0  0  0  0  0  0  0  0  0
   20.4576  -22.7782  -13.7210 C   0  0  0  0  0  0  0  0  0  0  0  0
   20.9127  -21.4270  -13.2754 C   0  0  2  0  0  0  0  0  0  0  0  0
   22.3357  -21.5600  -12.9253 N   0  0  0  0  0  0  0  0  0  0  0  0
   20.2079  -21.0405  -12.0276 C   0  0  0  0  0  0  0  0  0  0  0  0
   19.2859  -20.1580  -12.0124 O   0  0  0  0  0  0  0  0  0  0  0  0
   18.6855  -22.5773  -15.4017 C   0  0  0  0  0  0  0  0  0  0  0  0
   17.3857  -22.6474  -15.8507 C   0  0  0  0  0  0  0  0  0  0  0  0
   20.5006  -21.6128  -10.7812 O   0  0  0  0  0  0  0  0  0  0  0  0
  2  3  1  0
  2  1  1  6
  4  5  2  0
  4  3  1  0
  6  5  1  0
  7 12  2  0
  7  6  1  0
  8  7  1  0
  9 10  1  0
  9  8  2  0
 10 11  2  0
 11 12  1  0
 12  4  1  0
 13  2  1  0
 14 13  2  0
 16 15  1  0
 17 16  2  0
 18 17  1  0
 19 18  2  0
 19 25  1  0
 20 19  1  0
 21 20  1  1
 21 22  1  0
 22 13  1  0
 23 21  1  0
 23 34  1  0
 24 23  2  0
 25 26  2  0
 26 16  1  0
 28 38  2  0
 28 27  1  0
 29 28  1  0
 30 31  1  0
 30 29  2  0
 31 37  2  0
 32 31  1  0
 33 34  1  0
 33 32  1  1
 35 33  1  0
 36 35  2  0
 37 38  1  0
 39 35  1  0
M  END
$$$$
