WYY.pdb
     RDKit          3D

 39 42  0  0  1  0  0  0  0  0999 V2000
   26.9924  -22.3182   -9.9279 N   0  0  0  0  0  0  0  0  0  0  0  0
   26.7260  -20.9029   -9.7024 C   0  0  1  0  0  0  0  0  0  0  0  0
   28.0269  -20.0877   -9.7514 C   0  0  0  0  0  0  0  0  0  0  0  0
   28.8438  -20.5160   -8.6085 C   0  0  0  0  0  0  0  0  0  0  0  0
   29.9724  -21.2961   -8.6610 C   0  0  0  0  0  0  0  0  0  0  0  0
   30.4160  -21.4524   -7.3831 N   0  0  0  0  0  0  0  0  0  0  0  0
   29.6051  -20.7973   -6.5267 C   0  0  0  0  0  0  0  0  0  0  0  0
   29.5602  -20.6104   -5.1641 C   0  0  0  0  0  0  0  0  0  0  0  0
   28.5737  -19.8666   -4.5678 C   0  0  0  0  0  0  0  0  0  0  0  0
   27.5919  -19.2821   -5.3318 C   0  0  0  0  0  0  0  0  0  0  0  0
   27.6080  -19.4492   -6.6953 C   0  0  0  0  0  0  0  0  0  0  0  0
   28.6220  -20.2115   -7.2908 C   0  0  0  0  0  0  0  0  0  0  0  0
   25.8548  -20.4173  -10.7733 C   0  0  0  0  0  0  0  0  0  0  0  0
   25.5226  -19.2153  -10.8504 O   0  0  0  0  0  0  0  0  0  0  0  0
   29.5558  -19.6944  -16.5683 O   0  0  0  0  0  0  0  0  0  0  0  0
   28.3756  -20.1307  -15.9668 C   0  0  0  0  0  0  0  0  0  0  0  0
   28.4425  -21.2355  -15.1431 C   0  0  0  0  0  0  0  0  0  0  0  0
   27.2828  -21.6607  -14.5555 C   0  0  0  0  0  0  0  0  0  0  0  0
   26.0548  -21.0250  -14.7584 C   0  0  0  0  0  0  0  0  0  0  0  0
   24.8418  -21.5458  -14.0909 C   0  0  0  0  0  0  0  0  0  0  0  0
   24.5175  -20.8285  -12.8057 C   0  0  2  0  0  0  0  0  0  0  0  0
   25.3590  -21.3262  -11.7661 N   0  0  0  0  0  0  0  0  0  0  0  0
   23.0708  -21.0571  -12.5181 C   0  0  0  0  0  0  0  0  0  0  0  0
   22.6362  -22.0482  -11.8741 O   0  0  0  0  0  0  0  0  0  0  0  0
   26.0447  -19.9311  -15.5867 C   0  0  0  0  0  0  0  0  0  0  0  0
   27.1835  -19.4598  -16.2042 C   0  0  0  0  0  0  0  0  0  0  0  0
   14.5901  -18.1536  -12.4657 O   0  0  0  0  0  0  0  0  0  0  0  0
   15.9593  -18.3219  -12.4419 C   0  0  0  0  0  0  0  0  0  0  0  0
   16.6642  -18.6131  -11.2952 C   0  0  0  0  0  0  0  0  0  0  0  0
   18.0344  -18.7766  -11.3007 C   0  0  0  0  0  0  0  0  0  0  0  0
   18.7523  -18.6534  -12.4606 C   0  0  0  0  0  0  0  0  0  0  0  0
   20.2008  -18.8033  -12.5748 C   0  0  0  0  0  0  0  0  0  0  0  0
   20.7045  -20.2007  -12.7337 C   0  0  2  0  0  0  0  0  0  0  0  0
   22.1472  -20.0963  -13.0035 N   0  0  0  0  0  0  0  0  0  0  0  0
   20.0970  -20.8250  -13.9354 C   0  0  0  0  0  0  0  0  0  0  0  0
   20.5836  -20.6655  -15.1046 O   0  0  0  0  0  0  0  0  0  0  0  0
   18.0288  -18.3577  -13.6183 C   0  0  0  0  0  0  0  0  0  0  0  0
   16.6616  -18.1938  -13.6195 C   0  0  0  0  0  0  0  0  0  0  0  0
   18.9512  -21.6316  -13.8757 O   0  0  0  0  0  0  0  0  0  0  0  0
  2  3  1  0
  2  1  1  6
  4  5  2  0
  4  3  1  0
  6  5  1  0
  7 12  2  0
  7  6  1  0
  8  7  1  0
  9 10  1  0
  9  8  2  0
 10 11  2  0
 11 12  1  0
 12  4  1  0
 13  2  1  0
 14 13  2  0
 16 15  1  0
 17 16  2  0
 18 17  1  0
 19 18  2  0
 19 25  1  0
 20 19  1  0
 21 20  1  6
 21 22  1  0
 22 13  1  0
 23 21  1  0
 23 34  1  0
 24 23  2  0
 25 26  2  0
 26 16  1  0
 28 38  2  0
 28 27  1  0
 29 28  1  0
 30 31  1  0
 30 29  2  0
 31 37  2  0
 32 31  1  0
 33 34  1  0
 33 32  1  6
 35 33  1  0
 36 35  2  0
 37 38  1  0
 39 35  1  0
M  END
$$$$
