WYY.pdb
     RDKit          3D

 39 42  0  0  1  0  0  0  0  0999 V2000
   19.8396   -7.5612  -15.5809 N   0  0  0  0  0  0  0  0  0  0  0  0
   19.4149   -7.7844  -14.2045 C   0  0  1  0  0  0  0  0  0  0  0  0
   20.5748   -7.5379  -13.2282 C   0  0  0  0  0  0  0  0  0  0  0  0
   21.4780   -8.6909  -13.3365 C   0  0  0  0  0  0  0  0  0  0  0  0
   21.2107   -9.9756  -12.9323 C   0  0  0  0  0  0  0  0  0  0  0  0
   22.3114  -10.7258  -13.2145 N   0  0  0  0  0  0  0  0  0  0  0  0
   23.2638   -9.9576  -13.7830 C   0  0  0  0  0  0  0  0  0  0  0  0
   24.5380  -10.1642  -14.2597 C   0  0  0  0  0  0  0  0  0  0  0  0
   25.2830   -9.1460  -14.7984 C   0  0  0  0  0  0  0  0  0  0  0  0
   24.7636   -7.8756  -14.8747 C   0  0  0  0  0  0  0  0  0  0  0  0
   23.4942   -7.6358  -14.4076 C   0  0  0  0  0  0  0  0  0  0  0  0
   22.7445   -8.6856  -13.8600 C   0  0  0  0  0  0  0  0  0  0  0  0
   18.3525   -6.8300  -13.8850 C   0  0  0  0  0  0  0  0  0  0  0  0
   18.5012   -5.6027  -14.0657 O   0  0  0  0  0  0  0  0  0  0  0  0
   15.7039   -4.6556  -19.1805 O   0  0  0  0  0  0  0  0  0  0  0  0
   15.4995   -5.1009  -17.8747 C   0  0  0  0  0  0  0  0  0  0  0  0
   15.7537   -6.4288  -17.5998 C   0  0  0  0  0  0  0  0  0  0  0  0
   15.5514   -6.8619  -16.3181 C   0  0  0  0  0  0  0  0  0  0  0  0
   15.1037   -6.0194  -15.2968 C   0  0  0  0  0  0  0  0  0  0  0  0
   14.9045   -6.5617  -13.9350 C   0  0  0  0  0  0  0  0  0  0  0  0
   16.0897   -6.3431  -13.0301 C   0  0  2  0  0  0  0  0  0  0  0  0
   17.1050   -7.2937  -13.3499 N   0  0  0  0  0  0  0  0  0  0  0  0
   15.6106   -6.4817  -11.6233 C   0  0  0  0  0  0  0  0  0  0  0  0
   15.6361   -7.5650  -10.9817 O   0  0  0  0  0  0  0  0  0  0  0  0
   14.8662   -4.7084  -15.6248 C   0  0  0  0  0  0  0  0  0  0  0  0
   15.0536   -4.2188  -16.8998 C   0  0  0  0  0  0  0  0  0  0  0  0
   12.2640   -3.2941   -3.9683 O   0  0  0  0  0  0  0  0  0  0  0  0
   12.7807   -3.4616   -5.2366 C   0  0  0  0  0  0  0  0  0  0  0  0
   12.0190   -3.3703   -6.3802 C   0  0  0  0  0  0  0  0  0  0  0  0
   12.5626   -3.5423   -7.6367 C   0  0  0  0  0  0  0  0  0  0  0  0
   13.8958   -3.8136   -7.7946 C   0  0  0  0  0  0  0  0  0  0  0  0
   14.5685   -4.0156   -9.0754 C   0  0  0  0  0  0  0  0  0  0  0  0
   14.4454   -5.3796   -9.6722 C   0  0  2  0  0  0  0  0  0  0  0  0
   15.1014   -5.3204  -10.9880 N   0  0  0  0  0  0  0  0  0  0  0  0
   13.0177   -5.6938   -9.9288 C   0  0  0  0  0  0  0  0  0  0  0  0
   12.3992   -5.2577  -10.9567 O   0  0  0  0  0  0  0  0  0  0  0  0
   14.6603   -3.9045   -6.6290 C   0  0  0  0  0  0  0  0  0  0  0  0
   14.1238   -3.7336   -5.3724 C   0  0  0  0  0  0  0  0  0  0  0  0
   12.2477   -6.4882   -9.0670 O   0  0  0  0  0  0  0  0  0  0  0  0
  2  3  1  0
  2  1  1  6
  4  5  2  0
  4  3  1  0
  6  5  1  0
  7 12  2  0
  7  6  1  0
  8  7  1  0
  9 10  1  0
  9  8  2  0
 10 11  2  0
 11 12  1  0
 12  4  1  0
 13  2  1  0
 14 13  2  0
 16 15  1  0
 17 16  2  0
 18 17  1  0
 19 18  2  0
 19 25  1  0
 20 19  1  0
 21 20  1  6
 21 22  1  0
 22 13  1  0
 23 21  1  0
 23 34  1  0
 24 23  2  0
 25 26  2  0
 26 16  1  0
 28 38  2  0
 28 27  1  0
 29 28  1  0
 30 31  1  0
 30 29  2  0
 31 37  2  0
 32 31  1  0
 33 34  1  0
 33 32  1  6
 35 33  1  0
 36 35  2  0
 37 38  1  0
 39 35  1  0
M  END
$$$$
