WYY.pdb
     RDKit          3D

 39 42  0  0  1  0  0  0  0  0999 V2000
   25.5315  -18.9491   -9.0165 N   0  0  0  0  0  0  0  0  0  0  0  0
   26.4322  -19.9262   -9.6154 C   0  0  1  0  0  0  0  0  0  0  0  0
   26.4887  -21.2071   -8.7696 C   0  0  0  0  0  0  0  0  0  0  0  0
   26.9534  -20.8169   -7.4322 C   0  0  0  0  0  0  0  0  0  0  0  0
   26.1641  -20.5602   -6.3385 C   0  0  0  0  0  0  0  0  0  0  0  0
   26.9932  -20.2348   -5.3085 N   0  0  0  0  0  0  0  0  0  0  0  0
   28.2787  -20.2776   -5.7159 C   0  0  0  0  0  0  0  0  0  0  0  0
   29.5032  -20.0512   -5.1302 C   0  0  0  0  0  0  0  0  0  0  0  0
   30.6754  -20.1789   -5.8314 C   0  0  0  0  0  0  0  0  0  0  0  0
   30.6514  -20.5419   -7.1569 C   0  0  0  0  0  0  0  0  0  0  0  0
   29.4452  -20.7754   -7.7715 C   0  0  0  0  0  0  0  0  0  0  0  0
   28.2557  -20.6413   -7.0428 C   0  0  0  0  0  0  0  0  0  0  0  0
   25.9157  -20.2864  -10.9364 C   0  0  0  0  0  0  0  0  0  0  0  0
   24.7449  -20.0131  -11.2766 O   0  0  0  0  0  0  0  0  0  0  0  0
   25.9286  -22.6843  -19.4039 O   0  0  0  0  0  0  0  0  0  0  0  0
   26.2982  -22.4308  -18.0832 C   0  0  0  0  0  0  0  0  0  0  0  0
   26.2545  -23.4807  -17.1892 C   0  0  0  0  0  0  0  0  0  0  0  0
   26.6172  -23.2280  -15.8947 C   0  0  0  0  0  0  0  0  0  0  0  0
   27.0229  -21.9647  -15.4558 C   0  0  0  0  0  0  0  0  0  0  0  0
   27.3969  -21.7675  -14.0382 C   0  0  0  0  0  0  0  0  0  0  0  0
   26.2890  -21.1695  -13.2099 C   0  0  2  0  0  0  0  0  0  0  0  0
   26.7561  -20.9705  -11.8762 N   0  0  0  0  0  0  0  0  0  0  0  0
   25.1302  -22.1085  -13.2673 C   0  0  0  0  0  0  0  0  0  0  0  0
   25.0523  -23.1623  -12.5823 O   0  0  0  0  0  0  0  0  0  0  0  0
   27.0482  -20.9563  -16.3860 C   0  0  0  0  0  0  0  0  0  0  0  0
   26.6934  -21.1554  -17.7031 C   0  0  0  0  0  0  0  0  0  0  0  0
   17.0438  -23.8311  -11.2996 O   0  0  0  0  0  0  0  0  0  0  0  0
   18.2672  -23.3304  -11.6949 C   0  0  0  0  0  0  0  0  0  0  0  0
   18.4318  -22.5244  -12.7992 C   0  0  0  0  0  0  0  0  0  0  0  0
   19.6680  -22.0373  -13.1714 C   0  0  0  0  0  0  0  0  0  0  0  0
   20.7903  -22.3414  -12.4476 C   0  0  0  0  0  0  0  0  0  0  0  0
   22.1421  -21.8819  -12.7564 C   0  0  0  0  0  0  0  0  0  0  0  0
   22.7383  -22.4038  -14.0228 C   0  0  2  0  0  0  0  0  0  0  0  0
   24.0662  -21.7821  -14.1464 N   0  0  0  0  0  0  0  0  0  0  0  0
   21.9457  -21.9355  -15.1871 C   0  0  0  0  0  0  0  0  0  0  0  0
   22.1473  -20.8006  -15.7352 O   0  0  0  0  0  0  0  0  0  0  0  0
   20.6135  -23.1597  -11.3294 C   0  0  0  0  0  0  0  0  0  0  0  0
   19.3826  -23.6486  -10.9527 C   0  0  0  0  0  0  0  0  0  0  0  0
   20.9236  -22.7004  -15.7676 O   0  0  0  0  0  0  0  0  0  0  0  0
  2  3  1  0
  2  1  1  1
  4  5  2  0
  4  3  1  0
  6  5  1  0
  7 12  2  0
  7  6  1  0
  8  7  1  0
  9 10  1  0
  9  8  2  0
 10 11  2  0
 11 12  1  0
 12  4  1  0
 13  2  1  0
 14 13  2  0
 16 15  1  0
 17 16  2  0
 18 17  1  0
 19 18  2  0
 19 25  1  0
 20 19  1  0
 21 20  1  6
 21 22  1  0
 22 13  1  0
 23 21  1  0
 23 34  1  0
 24 23  2  0
 25 26  2  0
 26 16  1  0
 28 38  2  0
 28 27  1  0
 29 28  1  0
 30 31  1  0
 30 29  2  0
 31 37  2  0
 32 31  1  0
 33 34  1  0
 33 32  1  1
 35 33  1  0
 36 35  2  0
 37 38  1  0
 39 35  1  0
M  END
$$$$
