WYY.pdb
     RDKit          3D

 39 42  0  0  1  0  0  0  0  0999 V2000
   25.8446  -17.5482  -22.3530 N   0  0  0  0  0  0  0  0  0  0  0  0
   25.5370  -17.5482  -20.9282 C   0  0  1  0  0  0  0  0  0  0  0  0
   25.6330  -16.1290  -20.3486 C   0  0  0  0  0  0  0  0  0  0  0  0
   27.0224  -15.6872  -20.5260 C   0  0  0  0  0  0  0  0  0  0  0  0
   27.4612  -14.7003  -21.3736 C   0  0  0  0  0  0  0  0  0  0  0  0
   28.8120  -14.6120  -21.2268 N   0  0  0  0  0  0  0  0  0  0  0  0
   29.2398  -15.5101  -20.3154 C   0  0  0  0  0  0  0  0  0  0  0  0
   30.4574  -15.8635  -19.7804 C   0  0  0  0  0  0  0  0  0  0  0  0
   30.5737  -16.8533  -18.8378 C   0  0  0  0  0  0  0  0  0  0  0  0
   29.4572  -17.5250  -18.4000 C   0  0  0  0  0  0  0  0  0  0  0  0
   28.2264  -17.1963  -18.9141 C   0  0  0  0  0  0  0  0  0  0  0  0
   28.1226  -16.1828  -19.8763 C   0  0  0  0  0  0  0  0  0  0  0  0
   24.1601  -18.0107  -20.7497 C   0  0  0  0  0  0  0  0  0  0  0  0
   23.2781  -17.7807  -21.6044 O   0  0  0  0  0  0  0  0  0  0  0  0
   19.9315  -24.6999  -21.5648 O   0  0  0  0  0  0  0  0  0  0  0  0
   20.5351  -23.6630  -20.8537 C   0  0  0  0  0  0  0  0  0  0  0  0
   21.9105  -23.5655  -20.8999 C   0  0  0  0  0  0  0  0  0  0  0  0
   22.4988  -22.5476  -20.2007 C   0  0  0  0  0  0  0  0  0  0  0  0
   21.7663  -21.6203  -19.4546 C   0  0  0  0  0  0  0  0  0  0  0  0
   22.4739  -20.5482  -18.7210 C   0  0  0  0  0  0  0  0  0  0  0  0
   22.4562  -19.2248  -19.4417 C   0  0  2  0  0  0  0  0  0  0  0  0
   23.7938  -18.7450  -19.5732 N   0  0  0  0  0  0  0  0  0  0  0  0
   21.5990  -18.2947  -18.6491 C   0  0  0  0  0  0  0  0  0  0  0  0
   22.0519  -17.4808  -17.8016 O   0  0  0  0  0  0  0  0  0  0  0  0
   20.4017  -21.7633  -19.4428 C   0  0  0  0  0  0  0  0  0  0  0  0
   19.7571  -22.7701  -20.1293 C   0  0  0  0  0  0  0  0  0  0  0  0
   14.1618  -13.6545  -17.2040 O   0  0  0  0  0  0  0  0  0  0  0  0
   15.2668  -14.3455  -17.6568 C   0  0  0  0  0  0  0  0  0  0  0  0
   16.5486  -13.8462  -17.5908 C   0  0  0  0  0  0  0  0  0  0  0  0
   17.6361  -14.5598  -18.0514 C   0  0  0  0  0  0  0  0  0  0  0  0
   17.4788  -15.8058  -18.5980 C   0  0  0  0  0  0  0  0  0  0  0  0
   18.5594  -16.6408  -19.1165 C   0  0  0  0  0  0  0  0  0  0  0  0
   19.2620  -17.4992  -18.1160 C   0  0  2  0  0  0  0  0  0  0  0  0
   20.1996  -18.3424  -18.8743 N   0  0  0  0  0  0  0  0  0  0  0  0
   18.2946  -18.4223  -17.4715 C   0  0  0  0  0  0  0  0  0  0  0  0
   17.5786  -18.0703  -16.4752 O   0  0  0  0  0  0  0  0  0  0  0  0
   16.1752  -16.3037  -18.6609 C   0  0  0  0  0  0  0  0  0  0  0  0
   15.0860  -15.5967  -18.2027 C   0  0  0  0  0  0  0  0  0  0  0  0
   18.0965  -19.7405  -17.9070 O   0  0  0  0  0  0  0  0  0  0  0  0
  2  3  1  0
  2  1  1  6
  4  5  2  0
  4  3  1  0
  6  5  1  0
  7 12  2  0
  7  6  1  0
  8  7  1  0
  9 10  1  0
  9  8  2  0
 10 11  2  0
 11 12  1  0
 12  4  1  0
 13  2  1  0
 14 13  2  0
 16 15  1  0
 17 16  2  0
 18 17  1  0
 19 18  2  0
 19 25  1  0
 20 19  1  0
 21 20  1  1
 21 22  1  0
 22 13  1  0
 23 21  1  0
 23 34  1  0
 24 23  2  0
 25 26  2  0
 26 16  1  0
 28 38  2  0
 28 27  1  0
 29 28  1  0
 30 31  1  0
 30 29  2  0
 31 37  2  0
 32 31  1  0
 33 34  1  0
 33 32  1  6
 35 33  1  0
 36 35  2  0
 37 38  1  0
 39 35  1  0
M  END
$$$$
