WYY.pdb
     RDKit          3D

 39 42  0  0  1  0  0  0  0  0999 V2000
   25.2138  -16.3746  -19.2443 N   0  0  0  0  0  0  0  0  0  0  0  0
   25.3726  -16.5948  -17.8122 C   0  0  1  0  0  0  0  0  0  0  0  0
   24.5570  -15.5710  -17.0085 C   0  0  0  0  0  0  0  0  0  0  0  0
   25.2566  -14.2844  -17.1193 C   0  0  0  0  0  0  0  0  0  0  0  0
   24.8621  -13.2048  -17.8703 C   0  0  0  0  0  0  0  0  0  0  0  0
   25.7902  -12.2251  -17.6893 N   0  0  0  0  0  0  0  0  0  0  0  0
   26.7567  -12.6505  -16.8495 C   0  0  0  0  0  0  0  0  0  0  0  0
   27.9077  -12.1112  -16.3222 C   0  0  0  0  0  0  0  0  0  0  0  0
   28.7121  -12.8190  -15.4656 C   0  0  0  0  0  0  0  0  0  0  0  0
   28.3799  -14.1044  -15.1095 C   0  0  0  0  0  0  0  0  0  0  0  0
   27.2371  -14.6722  -15.6184 C   0  0  0  0  0  0  0  0  0  0  0  0
   26.4248  -13.9372  -16.4923 C   0  0  0  0  0  0  0  0  0  0  0  0
   24.8609  -17.9267  -17.4869 C   0  0  0  0  0  0  0  0  0  0  0  0
   24.0236  -18.5005  -18.2155 O   0  0  0  0  0  0  0  0  0  0  0  0
   24.6987  -26.2075  -14.9001 O   0  0  0  0  0  0  0  0  0  0  0  0
   25.0032  -24.8512  -15.0138 C   0  0  0  0  0  0  0  0  0  0  0  0
   25.5597  -24.4130  -16.1978 C   0  0  0  0  0  0  0  0  0  0  0  0
   25.8574  -23.0823  -16.3053 C   0  0  0  0  0  0  0  0  0  0  0  0
   25.6212  -22.1687  -15.2744 C   0  0  0  0  0  0  0  0  0  0  0  0
   25.9736  -20.7444  -15.4634 C   0  0  0  0  0  0  0  0  0  0  0  0
   24.8476  -19.9263  -16.0413 C   0  0  2  0  0  0  0  0  0  0  0  0
   25.3173  -18.6055  -16.3085 N   0  0  0  0  0  0  0  0  0  0  0  0
   23.7312  -19.9380  -15.0506 C   0  0  0  0  0  0  0  0  0  0  0  0
   23.7770  -19.3430  -13.9417 O   0  0  0  0  0  0  0  0  0  0  0  0
   25.0663  -22.6576  -14.1187 C   0  0  0  0  0  0  0  0  0  0  0  0
   24.7464  -23.9887  -13.9567 C   0  0  0  0  0  0  0  0  0  0  0  0
   19.8081  -14.5887  -14.9453 O   0  0  0  0  0  0  0  0  0  0  0  0
   19.9400  -15.9591  -15.0351 C   0  0  0  0  0  0  0  0  0  0  0  0
   20.5777  -16.5892  -16.0804 C   0  0  0  0  0  0  0  0  0  0  0  0
   20.6952  -17.9626  -16.1444 C   0  0  0  0  0  0  0  0  0  0  0  0
   20.1755  -18.7592  -15.1588 C   0  0  0  0  0  0  0  0  0  0  0  0
   20.2421  -20.2181  -15.1320 C   0  0  0  0  0  0  0  0  0  0  0  0
   21.4360  -20.8072  -14.4544 C   0  0  2  0  0  0  0  0  0  0  0  0
   22.5613  -20.6637  -15.3915 N   0  0  0  0  0  0  0  0  0  0  0  0
   21.2386  -22.2649  -14.2559 C   0  0  0  0  0  0  0  0  0  0  0  0
   21.7140  -23.1320  -15.0630 O   0  0  0  0  0  0  0  0  0  0  0  0
   19.5304  -18.1111  -14.1028 C   0  0  0  0  0  0  0  0  0  0  0  0
   19.4102  -16.7412  -14.0330 C   0  0  0  0  0  0  0  0  0  0  0  0
   20.5203  -22.7940  -13.1739 O   0  0  0  0  0  0  0  0  0  0  0  0
  2  3  1  0
  2  1  1  6
  4  5  2  0
  4  3  1  0
  6  5  1  0
  7 12  2  0
  7  6  1  0
  8  7  1  0
  9 10  1  0
  9  8  2  0
 10 11  2  0
 11 12  1  0
 12  4  1  0
 13  2  1  0
 14 13  2  0
 16 15  1  0
 17 16  2  0
 18 17  1  0
 19 18  2  0
 19 25  1  0
 20 19  1  0
 21 20  1  1
 21 22  1  0
 22 13  1  0
 23 21  1  0
 23 34  1  0
 24 23  2  0
 25 26  2  0
 26 16  1  0
 28 38  2  0
 28 27  1  0
 29 28  1  0
 30 31  1  0
 30 29  2  0
 31 37  2  0
 32 31  1  0
 33 34  1  0
 33 32  1  6
 35 33  1  0
 36 35  2  0
 37 38  1  0
 39 35  1  0
M  END
$$$$
