AYM.pdb
     RDKit          3D

 26 26  0  0  1  0  0  0  0  0999 V2000
   26.2258  -19.5354  -18.4113 C   0  0  0  0  0  0  0  0  0  0  0  0
   27.3077  -19.7456  -17.3402 C   0  0  2  0  0  0  0  0  0  0  0  0
   28.2338  -20.6824  -17.8983 N   0  0  0  0  0  0  0  0  0  0  0  0
   26.6136  -20.2764  -16.1397 C   0  0  0  0  0  0  0  0  0  0  0  0
   26.2406  -21.4809  -16.1330 O   0  0  0  0  0  0  0  0  0  0  0  0
   30.9981  -22.1332  -10.5663 O   0  0  0  0  0  0  0  0  0  0  0  0
   29.8482  -21.5158  -11.0425 C   0  0  0  0  0  0  0  0  0  0  0  0
   28.6255  -22.1284  -10.9516 C   0  0  0  0  0  0  0  0  0  0  0  0
   27.4934  -21.4975  -11.4309 C   0  0  0  0  0  0  0  0  0  0  0  0
   27.5338  -20.2497  -12.0110 C   0  0  0  0  0  0  0  0  0  0  0  0
   26.3801  -19.5277  -12.5343 C   0  0  0  0  0  0  0  0  0  0  0  0
   25.8161  -20.0917  -13.8088 C   0  0  2  0  0  0  0  0  0  0  0  0
   26.3448  -19.4960  -14.9894 N   0  0  0  0  0  0  0  0  0  0  0  0
   24.3508  -19.8771  -13.7614 C   0  0  0  0  0  0  0  0  0  0  0  0
   23.8987  -18.7320  -13.9854 O   0  0  0  0  0  0  0  0  0  0  0  0
   28.7735  -19.6507  -12.0927 C   0  0  0  0  0  0  0  0  0  0  0  0
   29.9229  -20.2600  -11.6209 C   0  0  0  0  0  0  0  0  0  0  0  0
   19.8213  -24.1507  -15.5999 C   0  0  0  0  0  0  0  0  0  0  0  0
   18.8637  -23.1108  -14.4339 S   0  0  0  0  0  0  0  0  0  0  0  0
   19.7862  -21.5755  -14.1212 C   0  0  0  0  0  0  0  0  0  0  0  0
   21.2698  -21.8346  -14.2393 C   0  0  0  0  0  0  0  0  0  0  0  0
   21.9907  -20.7614  -13.4421 C   0  0  2  0  0  0  0  0  0  0  0  0
   23.4272  -20.9138  -13.4723 N   0  0  0  0  0  0  0  0  0  0  0  0
   21.5581  -20.7694  -12.0228 C   0  0  0  0  0  0  0  0  0  0  0  0
   22.2733  -21.3782  -11.1973 O   0  0  0  0  0  0  0  0  0  0  0  0
   20.4142  -20.1461  -11.5560 O   0  0  0  0  0  0  0  0  0  0  0  0
  2  1  1  6
  3  2  1  0
  4  2  1  0
  4 13  1  0
  5  4  2  0
  7  8  2  0
  7  6  1  0
  9  8  1  0
 10  9  2  0
 11 10  1  0
 12 11  1  1
 12 13  1  0
 14 12  1  0
 15 14  2  0
 16 10  1  0
 16 17  2  0
 17  7  1  0
 19 20  1  0
 19 18  1  0
 20 21  1  0
 22 21  1  6
 22 23  1  0
 22 24  1  0
 23 14  1  0
 24 26  1  0
 25 24  2  0
M  END
$$$$
