AYM.pdb
     RDKit          3D

 26 26  0  0  1  0  0  0  0  0999 V2000
   21.3397  -18.9029  -16.9743 C   0  0  0  0  0  0  0  0  0  0  0  0
   22.7818  -18.7835  -16.4567 C   0  0  2  0  0  0  0  0  0  0  0  0
   23.5345  -19.7736  -17.1636 N   0  0  0  0  0  0  0  0  0  0  0  0
   22.7274  -19.0442  -14.9959 C   0  0  0  0  0  0  0  0  0  0  0  0
   22.1166  -18.2287  -14.2528 O   0  0  0  0  0  0  0  0  0  0  0  0
   17.0283  -21.5530  -11.9201 O   0  0  0  0  0  0  0  0  0  0  0  0
   18.4046  -21.5864  -12.1064 C   0  0  0  0  0  0  0  0  0  0  0  0
   18.9470  -21.7569  -13.3534 C   0  0  0  0  0  0  0  0  0  0  0  0
   20.3186  -21.7870  -13.5179 C   0  0  0  0  0  0  0  0  0  0  0  0
   21.1915  -21.6503  -12.4622 C   0  0  0  0  0  0  0  0  0  0  0  0
   22.6458  -21.6706  -12.5652 C   0  0  0  0  0  0  0  0  0  0  0  0
   23.2611  -20.3614  -12.9752 C   0  0  2  0  0  0  0  0  0  0  0  0
   23.3298  -20.1701  -14.3848 N   0  0  0  0  0  0  0  0  0  0  0  0
   24.6288  -20.3332  -12.4061 C   0  0  0  0  0  0  0  0  0  0  0  0
   25.5973  -20.6267  -13.1420 O   0  0  0  0  0  0  0  0  0  0  0  0
   20.6255  -21.4798  -11.2160 C   0  0  0  0  0  0  0  0  0  0  0  0
   19.2557  -21.4461  -11.0232 C   0  0  0  0  0  0  0  0  0  0  0  0
   29.3265  -19.2673   -6.0875 C   0  0  0  0  0  0  0  0  0  0  0  0
   27.5890  -19.4131   -6.6510 S   0  0  0  0  0  0  0  0  0  0  0  0
   27.5769  -19.7783   -8.4321 C   0  0  0  0  0  0  0  0  0  0  0  0
   26.1551  -19.8011   -8.9421 C   0  0  0  0  0  0  0  0  0  0  0  0
   26.2087  -19.9631  -10.4513 C   0  0  2  0  0  0  0  0  0  0  0  0
   24.8972  -19.9871  -11.0571 N   0  0  0  0  0  0  0  0  0  0  0  0
   26.9118  -21.2138  -10.8294 C   0  0  0  0  0  0  0  0  0  0  0  0
   26.2593  -22.2803  -10.8084 O   0  0  0  0  0  0  0  0  0  0  0  0
   28.2428  -21.2740  -11.2034 O   0  0  0  0  0  0  0  0  0  0  0  0
  2  1  1  6
  3  2  1  0
  4  2  1  0
  4 13  1  0
  5  4  2  0
  7  8  2  0
  7  6  1  0
  9  8  1  0
 10  9  2  0
 11 10  1  0
 12 11  1  6
 12 13  1  0
 14 12  1  0
 15 14  2  0
 16 10  1  0
 16 17  2  0
 17  7  1  0
 19 20  1  0
 19 18  1  0
 20 21  1  0
 22 21  1  1
 22 23  1  0
 22 24  1  0
 23 14  1  0
 24 26  1  0
 25 24  2  0
M  END
$$$$
