AYM.pdb
     RDKit          3D

 26 26  0  0  1  0  0  0  0  0999 V2000
   17.3002  -12.2487  -16.3962 C   0  0  0  0  0  0  0  0  0  0  0  0
   16.5929  -11.0535  -15.7380 C   0  0  2  0  0  0  0  0  0  0  0  0
   15.2623  -11.0485  -16.2636 N   0  0  0  0  0  0  0  0  0  0  0  0
   17.3630   -9.8442  -16.1243 C   0  0  0  0  0  0  0  0  0  0  0  0
   18.1763   -9.9196  -17.0850 O   0  0  0  0  0  0  0  0  0  0  0  0
   14.3374   -7.0174  -21.0859 O   0  0  0  0  0  0  0  0  0  0  0  0
   15.0774   -6.8335  -19.9245 C   0  0  0  0  0  0  0  0  0  0  0  0
   16.4135   -6.5325  -19.9757 C   0  0  0  0  0  0  0  0  0  0  0  0
   17.1319   -6.3530  -18.8092 C   0  0  0  0  0  0  0  0  0  0  0  0
   16.5564   -6.4645  -17.5635 C   0  0  0  0  0  0  0  0  0  0  0  0
   17.2539   -6.2862  -16.2956 C   0  0  0  0  0  0  0  0  0  0  0  0
   18.0393   -7.4851  -15.8410 C   0  0  2  0  0  0  0  0  0  0  0  0
   17.2329   -8.5974  -15.4663 N   0  0  0  0  0  0  0  0  0  0  0  0
   18.8514   -7.0509  -14.6803 C   0  0  0  0  0  0  0  0  0  0  0  0
   18.4385   -7.2989  -13.5254 O   0  0  0  0  0  0  0  0  0  0  0  0
   15.2112   -6.7679  -17.5340 C   0  0  0  0  0  0  0  0  0  0  0  0
   14.4683   -6.9528  -18.6867 C   0  0  0  0  0  0  0  0  0  0  0  0
   23.9955  -10.4724  -14.5789 C   0  0  0  0  0  0  0  0  0  0  0  0
   23.0366   -9.5601  -13.3116 S   0  0  0  0  0  0  0  0  0  0  0  0
   22.3858   -8.0328  -14.0530 C   0  0  0  0  0  0  0  0  0  0  0  0
   21.5313   -7.2974  -13.0473 C   0  0  0  0  0  0  0  0  0  0  0  0
   20.9851   -6.0540  -13.7275 C   0  0  2  0  0  0  0  0  0  0  0  0
   20.0841   -6.3624  -14.8141 N   0  0  0  0  0  0  0  0  0  0  0  0
   22.0831   -5.2140  -14.2661 C   0  0  0  0  0  0  0  0  0  0  0  0
   22.1601   -5.0779  -15.5068 O   0  0  0  0  0  0  0  0  0  0  0  0
   23.0263   -4.5725  -13.4825 O   0  0  0  0  0  0  0  0  0  0  0  0
  2  1  1  6
  3  2  1  0
  4  2  1  0
  4 13  1  0
  5  4  2  0
  7  8  2  0
  7  6  1  0
  9  8  1  0
 10  9  2  0
 11 10  1  0
 12 11  1  1
 12 13  1  0
 14 12  1  0
 15 14  2  0
 16 10  1  0
 16 17  2  0
 17  7  1  0
 19 20  1  0
 19 18  1  0
 20 21  1  0
 22 21  1  6
 22 23  1  0
 22 24  1  0
 23 14  1  0
 24 26  1  0
 25 24  2  0
M  END
$$$$
