AYM.pdb
     RDKit          3D

 26 26  0  0  1  0  0  0  0  0999 V2000
   25.4486  -20.7373  -19.4118 C   0  0  0  0  0  0  0  0  0  0  0  0
   26.8868  -20.6840  -18.8724 C   0  0  2  0  0  0  0  0  0  0  0  0
   27.6079  -21.6965  -19.5805 N   0  0  0  0  0  0  0  0  0  0  0  0
   26.8002  -20.9589  -17.4157 C   0  0  0  0  0  0  0  0  0  0  0  0
   26.8107  -22.1558  -17.0188 O   0  0  0  0  0  0  0  0  0  0  0  0
   27.6960  -20.4664   -8.6849 O   0  0  0  0  0  0  0  0  0  0  0  0
   27.6740  -20.1999  -10.0482 C   0  0  0  0  0  0  0  0  0  0  0  0
   28.4063  -20.9522  -10.9293 C   0  0  0  0  0  0  0  0  0  0  0  0
   28.3706  -20.6713  -12.2817 C   0  0  0  0  0  0  0  0  0  0  0  0
   27.6151  -19.6451  -12.8026 C   0  0  0  0  0  0  0  0  0  0  0  0
   27.5304  -19.2963  -14.2158 C   0  0  0  0  0  0  0  0  0  0  0  0
   26.7263  -20.2556  -15.0487 C   0  0  2  0  0  0  0  0  0  0  0  0
   26.7056  -19.9401  -16.4373 N   0  0  0  0  0  0  0  0  0  0  0  0
   25.3438  -20.2312  -14.5165 C   0  0  0  0  0  0  0  0  0  0  0  0
   24.5825  -19.2959  -14.8504 O   0  0  0  0  0  0  0  0  0  0  0  0
   26.8857  -18.9003  -11.8993 C   0  0  0  0  0  0  0  0  0  0  0  0
   26.9035  -19.1599  -10.5402 C   0  0  0  0  0  0  0  0  0  0  0  0
   23.3889  -21.0666   -8.3491 C   0  0  0  0  0  0  0  0  0  0  0  0
   25.0399  -21.1702   -9.1373 S   0  0  0  0  0  0  0  0  0  0  0  0
   24.8278  -21.5855  -10.8947 C   0  0  0  0  0  0  0  0  0  0  0  0
   23.7207  -20.7477  -11.4903 C   0  0  0  0  0  0  0  0  0  0  0  0
   23.5700  -21.1505  -12.9471 C   0  0  2  0  0  0  0  0  0  0  0  0
   24.8359  -21.2237  -13.6398 N   0  0  0  0  0  0  0  0  0  0  0  0
   22.7014  -20.1951  -13.6781 C   0  0  0  0  0  0  0  0  0  0  0  0
   23.0228  -18.9867  -13.6669 O   0  0  0  0  0  0  0  0  0  0  0  0
   21.5593  -20.5571  -14.3706 O   0  0  0  0  0  0  0  0  0  0  0  0
  2  1  1  6
  3  2  1  0
  4  2  1  0
  4 13  1  0
  5  4  2  0
  7  8  2  0
  7  6  1  0
  9  8  1  0
 10  9  2  0
 11 10  1  0
 12 11  1  1
 12 13  1  0
 14 12  1  0
 15 14  2  0
 16 10  1  0
 16 17  2  0
 17  7  1  0
 19 20  1  0
 19 18  1  0
 20 21  1  0
 22 21  1  1
 22 23  1  0
 22 24  1  0
 23 14  1  0
 24 26  1  0
 25 24  2  0
M  END
$$$$
