AYM.pdb
     RDKit          3D

 26 26  0  0  1  0  0  0  0  0999 V2000
   29.8377  -13.2707  -23.4047 C   0  0  0  0  0  0  0  0  0  0  0  0
   29.3132  -12.0989  -22.5597 C   0  0  2  0  0  0  0  0  0  0  0  0
   30.4345  -11.6265  -21.8075 N   0  0  0  0  0  0  0  0  0  0  0  0
   28.2389  -12.6508  -21.6960 C   0  0  0  0  0  0  0  0  0  0  0  0
   27.1646  -13.0383  -22.2306 O   0  0  0  0  0  0  0  0  0  0  0  0
   23.6441  -16.7025  -15.4729 O   0  0  0  0  0  0  0  0  0  0  0  0
   24.6611  -16.0308  -16.1397 C   0  0  0  0  0  0  0  0  0  0  0  0
   25.2757  -14.9408  -15.5807 C   0  0  0  0  0  0  0  0  0  0  0  0
   26.2856  -14.2866  -16.2600 C   0  0  0  0  0  0  0  0  0  0  0  0
   26.7171  -14.6864  -17.5046 C   0  0  0  0  0  0  0  0  0  0  0  0
   27.7762  -14.0444  -18.2741 C   0  0  0  0  0  0  0  0  0  0  0  0
   27.3054  -13.3350  -19.5134 C   0  0  2  0  0  0  0  0  0  0  0  0
   28.3557  -12.7674  -20.2899 N   0  0  0  0  0  0  0  0  0  0  0  0
   26.3843  -12.2625  -19.0702 C   0  0  0  0  0  0  0  0  0  0  0  0
   26.8651  -11.1879  -18.6462 O   0  0  0  0  0  0  0  0  0  0  0  0
   26.0857  -15.7852  -18.0493 C   0  0  0  0  0  0  0  0  0  0  0  0
   25.0718  -16.4585  -17.3910 C   0  0  0  0  0  0  0  0  0  0  0  0
   19.8288   -8.2217  -20.1320 C   0  0  0  0  0  0  0  0  0  0  0  0
   20.8762   -9.6172  -20.6917 S   0  0  0  0  0  0  0  0  0  0  0  0
   22.1223   -9.9665  -19.4145 C   0  0  0  0  0  0  0  0  0  0  0  0
   23.0488  -11.0622  -19.8869 C   0  0  0  0  0  0  0  0  0  0  0  0
   24.0331  -11.3494  -18.7664 C   0  0  2  0  0  0  0  0  0  0  0  0
   24.9725  -12.3944  -19.1028 N   0  0  0  0  0  0  0  0  0  0  0  0
   23.3265  -11.7497  -17.5246 C   0  0  0  0  0  0  0  0  0  0  0  0
   23.1960  -12.9719  -17.2947 O   0  0  0  0  0  0  0  0  0  0  0  0
   22.8036  -10.8565  -16.6061 O   0  0  0  0  0  0  0  0  0  0  0  0
  2  1  1  6
  3  2  1  0
  4  2  1  0
  4 13  1  0
  5  4  2  0
  7  8  2  0
  7  6  1  0
  9  8  1  0
 10  9  2  0
 11 10  1  0
 12 11  1  1
 12 13  1  0
 14 12  1  0
 15 14  2  0
 16 10  1  0
 16 17  2  0
 17  7  1  0
 19 20  1  0
 19 18  1  0
 20 21  1  0
 22 21  1  6
 22 23  1  0
 22 24  1  0
 23 14  1  0
 24 26  1  0
 25 24  2  0
M  END
$$$$
