AYM.pdb
     RDKit          3D

 26 26  0  0  1  0  0  0  0  0999 V2000
   27.6111  -19.7615  -16.5484 C   0  0  0  0  0  0  0  0  0  0  0  0
   28.4159  -20.9551  -16.0104 C   0  0  2  0  0  0  0  0  0  0  0  0
   28.1764  -22.0313  -16.9220 N   0  0  0  0  0  0  0  0  0  0  0  0
   27.8942  -21.2347  -14.6486 C   0  0  0  0  0  0  0  0  0  0  0  0
   26.8328  -21.9046  -14.5273 O   0  0  0  0  0  0  0  0  0  0  0  0
   26.4907  -20.4547   -5.9127 O   0  0  0  0  0  0  0  0  0  0  0  0
   27.0545  -20.5303   -7.1802 C   0  0  0  0  0  0  0  0  0  0  0  0
   26.4294  -21.2075   -8.1946 C   0  0  0  0  0  0  0  0  0  0  0  0
   27.0064  -21.2708   -9.4485 C   0  0  0  0  0  0  0  0  0  0  0  0
   28.2112  -20.6708   -9.7375 C   0  0  0  0  0  0  0  0  0  0  0  0
   28.8737  -20.6967  -11.0361 C   0  0  0  0  0  0  0  0  0  0  0  0
   27.9819  -21.0792  -12.1846 C   0  0  2  0  0  0  0  0  0  0  0  0
   28.5298  -20.7858  -13.4659 N   0  0  0  0  0  0  0  0  0  0  0  0
   26.7127  -20.3353  -12.0085 C   0  0  0  0  0  0  0  0  0  0  0  0
   26.6856  -19.1125  -12.2729 O   0  0  0  0  0  0  0  0  0  0  0  0
   28.8238  -19.9945   -8.7031 C   0  0  0  0  0  0  0  0  0  0  0  0
   28.2682  -19.9157   -7.4383 C   0  0  0  0  0  0  0  0  0  0  0  0
   20.0203  -18.8614  -14.7038 C   0  0  0  0  0  0  0  0  0  0  0  0
   21.2870  -20.1618  -14.4543 S   0  0  0  0  0  0  0  0  0  0  0  0
   22.2870  -19.7368  -12.9965 C   0  0  0  0  0  0  0  0  0  0  0  0
   23.4460  -20.6977  -12.8708 C   0  0  0  0  0  0  0  0  0  0  0  0
   24.2046  -20.3426  -11.6039 C   0  0  2  0  0  0  0  0  0  0  0  0
   25.5167  -20.9454  -11.5514 N   0  0  0  0  0  0  0  0  0  0  0  0
   23.4554  -20.7681  -10.3959 C   0  0  0  0  0  0  0  0  0  0  0  0
   22.3719  -20.1951  -10.1483 O   0  0  0  0  0  0  0  0  0  0  0  0
   23.8801  -21.7581   -9.5272 O   0  0  0  0  0  0  0  0  0  0  0  0
  2  1  1  6
  3  2  1  0
  4  2  1  0
  4 13  1  0
  5  4  2  0
  7  8  2  0
  7  6  1  0
  9  8  1  0
 10  9  2  0
 11 10  1  0
 12 11  1  1
 12 13  1  0
 14 12  1  0
 15 14  2  0
 16 10  1  0
 16 17  2  0
 17  7  1  0
 19 20  1  0
 19 18  1  0
 20 21  1  0
 22 21  1  6
 22 23  1  0
 22 24  1  0
 23 14  1  0
 24 26  1  0
 25 24  2  0
M  END
$$$$
