AYM.pdb
     RDKit          3D

 26 26  0  0  1  0  0  0  0  0999 V2000
   27.7006  -11.1143  -19.1688 C   0  0  0  0  0  0  0  0  0  0  0  0
   28.3669   -9.7521  -18.9190 C   0  0  2  0  0  0  0  0  0  0  0  0
   29.5883  -10.0346  -18.2299 N   0  0  0  0  0  0  0  0  0  0  0  0
   27.4164   -8.9637  -18.0945 C   0  0  0  0  0  0  0  0  0  0  0  0
   27.2966   -9.2393  -16.8698 O   0  0  0  0  0  0  0  0  0  0  0  0
   21.3402   -3.2692  -15.2151 O   0  0  0  0  0  0  0  0  0  0  0  0
   22.2773   -3.9243  -16.0043 C   0  0  0  0  0  0  0  0  0  0  0  0
   21.9040   -4.5895  -17.1429 C   0  0  0  0  0  0  0  0  0  0  0  0
   22.8514   -5.2346  -17.9146 C   0  0  0  0  0  0  0  0  0  0  0  0
   24.1887   -5.2425  -17.5876 C   0  0  0  0  0  0  0  0  0  0  0  0
   25.2387   -5.9000  -18.3564 C   0  0  0  0  0  0  0  0  0  0  0  0
   25.7030   -7.2111  -17.7853 C   0  0  2  0  0  0  0  0  0  0  0  0
   26.6286   -7.9080  -18.6133 N   0  0  0  0  0  0  0  0  0  0  0  0
   24.4942   -8.0445  -17.5864 C   0  0  0  0  0  0  0  0  0  0  0  0
   24.0872   -8.7566  -18.5314 O   0  0  0  0  0  0  0  0  0  0  0  0
   24.5433   -4.5674  -16.4382 C   0  0  0  0  0  0  0  0  0  0  0  0
   23.6152   -3.9134  -15.6473 C   0  0  0  0  0  0  0  0  0  0  0  0
   23.7268  -13.2031  -15.8505 C   0  0  0  0  0  0  0  0  0  0  0  0
   24.0342  -12.2330  -14.3267 S   0  0  0  0  0  0  0  0  0  0  0  0
   23.7187  -10.4763  -14.6740 C   0  0  0  0  0  0  0  0  0  0  0  0
   22.8944  -10.3417  -15.9328 C   0  0  0  0  0  0  0  0  0  0  0  0
   22.5850   -8.8673  -16.1262 C   0  0  2  0  0  0  0  0  0  0  0  0
   23.7692   -8.0755  -16.3678 N   0  0  0  0  0  0  0  0  0  0  0  0
   21.8923   -8.3069  -14.9398 C   0  0  0  0  0  0  0  0  0  0  0  0
   22.5361   -7.5318  -14.1993 O   0  0  0  0  0  0  0  0  0  0  0  0
   20.5802   -8.5879  -14.6018 O   0  0  0  0  0  0  0  0  0  0  0  0
  2  1  1  1
  3  2  1  0
  4  2  1  0
  4 13  1  0
  5  4  2  0
  7  8  2  0
  7  6  1  0
  9  8  1  0
 10  9  2  0
 11 10  1  0
 12 11  1  6
 12 13  1  0
 14 12  1  0
 15 14  2  0
 16 10  1  0
 16 17  2  0
 17  7  1  0
 19 20  1  0
 19 18  1  0
 20 21  1  0
 22 21  1  1
 22 23  1  0
 22 24  1  0
 23 14  1  0
 24 26  1  0
 25 24  2  0
M  END
$$$$
