FTL.pdb
     RDKit          3D

 27 27  0  0  1  0  0  0  0  0999 V2000
   25.4838  -22.0344  -16.2538 N   0  0  0  0  0  0  0  0  0  0  0  0
   25.0938  -22.3775  -14.9201 C   0  0  1  0  0  0  0  0  0  0  0  0
   24.5746  -23.7910  -14.7964 C   0  0  0  0  0  0  0  0  0  0  0  0
   23.2352  -23.8470  -15.4291 C   0  0  0  0  0  0  0  0  0  0  0  0
   22.1420  -23.4381  -14.7070 C   0  0  0  0  0  0  0  0  0  0  0  0
   20.9016  -23.4958  -15.3087 C   0  0  0  0  0  0  0  0  0  0  0  0
   20.7722  -23.9604  -16.6204 C   0  0  0  0  0  0  0  0  0  0  0  0
   21.8775  -24.3635  -17.3225 C   0  0  0  0  0  0  0  0  0  0  0  0
   23.0994  -24.3034  -16.7209 C   0  0  0  0  0  0  0  0  0  0  0  0
   26.2442  -22.2213  -14.0065 C   0  0  0  0  0  0  0  0  0  0  0  0
   27.4022  -22.1323  -14.4867 O   0  0  0  0  0  0  0  0  0  0  0  0
   27.1825  -19.7488  -13.6223 C   0  0  0  0  0  0  0  0  0  0  0  0
   26.7919  -19.9062  -12.1702 C   0  0  1  0  0  0  0  0  0  0  0  0
   25.5150  -19.3816  -12.0294 O   0  0  0  0  0  0  0  0  0  0  0  0
   26.8884  -21.3385  -11.7576 C   0  0  2  0  0  0  0  0  0  0  0  0
   26.0545  -22.1719  -12.6166 N   0  0  0  0  0  0  0  0  0  0  0  0
   26.5346  -21.5168  -10.3373 C   0  0  0  0  0  0  0  0  0  0  0  0
   25.4680  -22.0812   -9.9744 O   0  0  0  0  0  0  0  0  0  0  0  0
   28.6154  -21.0327   -5.0160 C   0  0  0  0  0  0  0  0  0  0  0  0
   27.9370  -19.9003   -5.7981 C   0  0  1  0  0  0  0  0  0  0  0  0
   28.4003  -18.6072   -5.2374 C   0  0  0  0  0  0  0  0  0  0  0  0
   28.1276  -20.1094   -7.2551 C   0  0  0  0  0  0  0  0  0  0  0  0
   27.1262  -20.9603   -7.9473 C   0  0  2  0  0  0  0  0  0  0  0  0
   27.4183  -21.0400   -9.3447 N   0  0  0  0  0  0  0  0  0  0  0  0
   25.7359  -20.4786   -7.6910 C   0  0  0  0  0  0  0  0  0  0  0  0
   25.3685  -19.3440   -8.0774 O   0  0  0  0  0  0  0  0  0  0  0  0
   24.8208  -21.2716   -7.0218 O   0  0  0  0  0  0  0  0  0  0  0  0
  2  1  1  6
  2  3  1  0
  4  9  2  0
  4  3  1  0
  5  4  1  0
  6  7  1  0
  6  5  2  0
  7  8  2  0
  8  9  1  0
 10  2  1  0
 11 10  2  0
 13 15  1  0
 13 12  1  6
 14 13  1  0
 15 16  1  6
 16 10  1  0
 17 24  1  0
 17 15  1  0
 18 17  2  0
 20 19  1  1
 21 20  1  0
 23 22  1  1
 22 20  1  0
 23 24  1  0
 25 23  1  0
 26 25  2  0
 27 25  1  0
M  END
$$$$
