FTL.pdb
     RDKit          3D

 27 27  0  0  1  0  0  0  0  0999 V2000
   28.1104  -20.6042  -15.5768 N   0  0  0  0  0  0  0  0  0  0  0  0
   28.6815  -20.8921  -14.2963 C   0  0  1  0  0  0  0  0  0  0  0  0
   30.0975  -20.3863  -14.1483 C   0  0  0  0  0  0  0  0  0  0  0  0
   30.6376  -20.8974  -12.8658 C   0  0  0  0  0  0  0  0  0  0  0  0
   30.5237  -20.1200  -11.7404 C   0  0  0  0  0  0  0  0  0  0  0  0
   31.0310  -20.6083  -10.5538 C   0  0  0  0  0  0  0  0  0  0  0  0
   31.6434  -21.8638  -10.5094 C   0  0  0  0  0  0  0  0  0  0  0  0
   31.7459  -22.6228  -11.6453 C   0  0  0  0  0  0  0  0  0  0  0  0
   31.2422  -22.1332  -12.8137 C   0  0  0  0  0  0  0  0  0  0  0  0
   27.8556  -20.2853  -13.2322 C   0  0  0  0  0  0  0  0  0  0  0  0
   27.3111  -19.1713  -13.4374 O   0  0  0  0  0  0  0  0  0  0  0  0
   25.2803  -19.7246  -12.8741 C   0  0  0  0  0  0  0  0  0  0  0  0
   25.3361  -20.4812  -11.5662 C   0  0  1  0  0  0  0  0  0  0  0  0
   24.8681  -21.7639  -11.8137 O   0  0  0  0  0  0  0  0  0  0  0  0
   26.7221  -20.4576  -11.0102 C   0  0  2  0  0  0  0  0  0  0  0  0
   27.6761  -20.9391  -12.0031 N   0  0  0  0  0  0  0  0  0  0  0  0
   26.8164  -21.2351   -9.7607 C   0  0  0  0  0  0  0  0  0  0  0  0
   27.6784  -22.1387   -9.5930 O   0  0  0  0  0  0  0  0  0  0  0  0
   28.9845  -20.8079   -5.3372 C   0  0  0  0  0  0  0  0  0  0  0  0
   27.7413  -19.9443   -5.5878 C   0  0  1  0  0  0  0  0  0  0  0  0
   28.0111  -18.5811   -5.0680 C   0  0  0  0  0  0  0  0  0  0  0  0
   27.3298  -20.0535   -7.0096 C   0  0  0  0  0  0  0  0  0  0  0  0
   26.2262  -20.9983   -7.3179 C   0  0  2  0  0  0  0  0  0  0  0  0
   25.9113  -20.9615   -8.7122 N   0  0  0  0  0  0  0  0  0  0  0  0
   25.0296  -20.7309   -6.4650 C   0  0  0  0  0  0  0  0  0  0  0  0
   24.1448  -19.9240   -6.8358 O   0  0  0  0  0  0  0  0  0  0  0  0
   24.8688  -21.3662   -5.2466 O   0  0  0  0  0  0  0  0  0  0  0  0
  2  1  1  6
  2  3  1  0
  4  9  2  0
  4  3  1  0
  5  4  1  0
  6  7  1  0
  6  5  2  0
  7  8  2  0
  8  9  1  0
 10  2  1  0
 11 10  2  0
 13 15  1  0
 13 12  1  6
 14 13  1  0
 15 16  1  6
 16 10  1  0
 17 24  1  0
 17 15  1  0
 18 17  2  0
 20 19  1  6
 21 20  1  0
 23 22  1  6
 22 20  1  0
 23 24  1  0
 25 23  1  0
 26 25  2  0
 27 25  1  0
M  END
$$$$
