FTL.pdb
     RDKit          3D

 27 27  0  0  1  0  0  0  0  0999 V2000
   26.6406  -21.2059  -10.0141 N   0  0  0  0  0  0  0  0  0  0  0  0
   25.4139  -20.8613  -10.6662 C   0  0  1  0  0  0  0  0  0  0  0  0
   24.5713  -19.8888   -9.8745 C   0  0  0  0  0  0  0  0  0  0  0  0
   23.7746  -20.6626   -8.8926 C   0  0  0  0  0  0  0  0  0  0  0  0
   24.2042  -20.7248   -7.5905 C   0  0  0  0  0  0  0  0  0  0  0  0
   23.4528  -21.4487   -6.6875 C   0  0  0  0  0  0  0  0  0  0  0  0
   22.2856  -22.0985   -7.0983 C   0  0  0  0  0  0  0  0  0  0  0  0
   21.8758  -22.0227   -8.4033 C   0  0  0  0  0  0  0  0  0  0  0  0
   22.6236  -21.3055   -9.2893 C   0  0  0  0  0  0  0  0  0  0  0  0
   25.7000  -20.2634  -11.9866 C   0  0  0  0  0  0  0  0  0  0  0  0
   26.8077  -19.7018  -12.1795 O   0  0  0  0  0  0  0  0  0  0  0  0
   27.3965  -20.7826  -14.0116 C   0  0  0  0  0  0  0  0  0  0  0  0
   26.1755  -20.8804  -14.8980 C   0  0  1  0  0  0  0  0  0  0  0  0
   25.8011  -22.2161  -14.9351 O   0  0  0  0  0  0  0  0  0  0  0  0
   25.0946  -19.9801  -14.3959 C   0  0  2  0  0  0  0  0  0  0  0  0
   24.7507  -20.3178  -13.0192 N   0  0  0  0  0  0  0  0  0  0  0  0
   23.9060  -20.0245  -15.2676 C   0  0  0  0  0  0  0  0  0  0  0  0
   22.9222  -20.7744  -15.0276 O   0  0  0  0  0  0  0  0  0  0  0  0
   22.1909  -15.2938  -17.8458 C   0  0  0  0  0  0  0  0  0  0  0  0
   22.1780  -16.6092  -17.0560 C   0  0  1  0  0  0  0  0  0  0  0  0
   20.8178  -16.8000  -16.4950 C   0  0  0  0  0  0  0  0  0  0  0  0
   22.7201  -17.7066  -17.8955 C   0  0  0  0  0  0  0  0  0  0  0  0
   22.7443  -19.0635  -17.2921 C   0  0  2  0  0  0  0  0  0  0  0  0
   23.8636  -19.1998  -16.4129 N   0  0  0  0  0  0  0  0  0  0  0  0
   22.7237  -20.1245  -18.3432 C   0  0  0  0  0  0  0  0  0  0  0  0
   23.7915  -20.6045  -18.7913 O   0  0  0  0  0  0  0  0  0  0  0  0
   21.5273  -20.6026  -18.8472 O   0  0  0  0  0  0  0  0  0  0  0  0
  2  1  1  1
  2  3  1  0
  4  9  2  0
  4  3  1  0
  5  4  1  0
  6  7  1  0
  6  5  2  0
  7  8  2  0
  8  9  1  0
 10  2  1  0
 11 10  2  0
 13 15  1  0
 13 12  1  1
 14 13  1  0
 15 16  1  1
 16 10  1  0
 17 24  1  0
 17 15  1  0
 18 17  2  0
 20 19  1  6
 21 20  1  0
 23 22  1  6
 22 20  1  0
 23 24  1  0
 25 23  1  0
 26 25  2  0
 27 25  1  0
M  END
$$$$
