FTL.pdb
     RDKit          3D

 27 27  0  0  1  0  0  0  0  0999 V2000
   22.8413  -19.3160  -15.7094 N   0  0  0  0  0  0  0  0  0  0  0  0
   23.5388  -18.7814  -14.5796 C   0  0  1  0  0  0  0  0  0  0  0  0
   22.9059  -17.5248  -14.0289 C   0  0  0  0  0  0  0  0  0  0  0  0
   22.8239  -16.5313  -15.1261 C   0  0  0  0  0  0  0  0  0  0  0  0
   21.5955  -16.2308  -15.6594 C   0  0  0  0  0  0  0  0  0  0  0  0
   21.5343  -15.3043  -16.6801 C   0  0  0  0  0  0  0  0  0  0  0  0
   22.6992  -14.6931  -17.1519 C   0  0  0  0  0  0  0  0  0  0  0  0
   23.9149  -15.0084  -16.6045 C   0  0  0  0  0  0  0  0  0  0  0  0
   23.9669  -15.9247  -15.5964 C   0  0  0  0  0  0  0  0  0  0  0  0
   23.5905  -19.7893  -13.5007 C   0  0  0  0  0  0  0  0  0  0  0  0
   22.7635  -20.7357  -13.5042 O   0  0  0  0  0  0  0  0  0  0  0  0
   26.4448  -21.8915  -12.9957 C   0  0  0  0  0  0  0  0  0  0  0  0
   25.1211  -22.0454  -12.2814 C   0  0  1  0  0  0  0  0  0  0  0  0
   25.2271  -23.1551  -11.4551 O   0  0  0  0  0  0  0  0  0  0  0  0
   24.7794  -20.7927  -11.5433 C   0  0  2  0  0  0  0  0  0  0  0  0
   24.5492  -19.6980  -12.4795 N   0  0  0  0  0  0  0  0  0  0  0  0
   25.8221  -20.4426  -10.5611 C   0  0  0  0  0  0  0  0  0  0  0  0
   26.8186  -19.7321  -10.8609 O   0  0  0  0  0  0  0  0  0  0  0  0
   29.4141  -19.1183   -7.4093 C   0  0  0  0  0  0  0  0  0  0  0  0
   27.9554  -18.9359   -6.9698 C   0  0  1  0  0  0  0  0  0  0  0  0
   27.8093  -17.5733   -6.4012 C   0  0  0  0  0  0  0  0  0  0  0  0
   27.0441  -19.3025   -8.0824 C   0  0  0  0  0  0  0  0  0  0  0  0
   26.6775  -20.7365   -8.2045 C   0  0  2  0  0  0  0  0  0  0  0  0
   25.7049  -20.9178   -9.2368 N   0  0  0  0  0  0  0  0  0  0  0  0
   26.2177  -21.2917   -6.8963 C   0  0  0  0  0  0  0  0  0  0  0  0
   27.0283  -21.4796   -5.9586 O   0  0  0  0  0  0  0  0  0  0  0  0
   24.8881  -21.6117   -6.6878 O   0  0  0  0  0  0  0  0  0  0  0  0
  2  1  1  6
  2  3  1  0
  4  9  2  0
  4  3  1  0
  5  4  1  0
  6  7  1  0
  6  5  2  0
  7  8  2  0
  8  9  1  0
 10  2  1  0
 11 10  2  0
 13 15  1  0
 13 12  1  1
 14 13  1  0
 15 16  1  6
 16 10  1  0
 17 24  1  0
 17 15  1  0
 18 17  2  0
 20 19  1  6
 21 20  1  0
 23 22  1  1
 22 20  1  0
 23 24  1  0
 25 23  1  0
 26 25  2  0
 27 25  1  0
M  END
$$$$
