FTL.pdb
     RDKit          3D

 27 27  0  0  1  0  0  0  0  0999 V2000
   28.6383  -21.0425   -9.2906 N   0  0  0  0  0  0  0  0  0  0  0  0
   27.2776  -20.6716   -9.0463 C   0  0  1  0  0  0  0  0  0  0  0  0
   27.1420  -19.4429   -8.1775 C   0  0  0  0  0  0  0  0  0  0  0  0
   27.8072  -19.7191   -6.8818 C   0  0  0  0  0  0  0  0  0  0  0  0
   29.0759  -19.2398   -6.6712 C   0  0  0  0  0  0  0  0  0  0  0  0
   29.6828  -19.5046   -5.4606 C   0  0  0  0  0  0  0  0  0  0  0  0
   29.0141  -20.2430   -4.4803 C   0  0  0  0  0  0  0  0  0  0  0  0
   27.7478  -20.7116   -4.7124 C   0  0  0  0  0  0  0  0  0  0  0  0
   27.1552  -20.4457   -5.9110 C   0  0  0  0  0  0  0  0  0  0  0  0
   26.5911  -20.4142  -10.3289 C   0  0  0  0  0  0  0  0  0  0  0  0
   27.1461  -19.6820  -11.1865 O   0  0  0  0  0  0  0  0  0  0  0  0
   24.5714  -21.8797  -14.1596 C   0  0  0  0  0  0  0  0  0  0  0  0
   25.0396  -22.0758  -12.7354 C   0  0  1  0  0  0  0  0  0  0  0  0
   26.3993  -22.3485  -12.7841 O   0  0  0  0  0  0  0  0  0  0  0  0
   24.7093  -20.8761  -11.9092 C   0  0  2  0  0  0  0  0  0  0  0  0
   25.3330  -20.9773  -10.5945 N   0  0  0  0  0  0  0  0  0  0  0  0
   23.2518  -20.6842  -11.7935 C   0  0  0  0  0  0  0  0  0  0  0  0
   22.5839  -21.1576  -10.8356 O   0  0  0  0  0  0  0  0  0  0  0  0
   20.8863  -16.3231  -14.6058 C   0  0  0  0  0  0  0  0  0  0  0  0
   21.1494  -17.2709  -13.4282 C   0  0  1  0  0  0  0  0  0  0  0  0
   20.4467  -16.7357  -12.2362 C   0  0  0  0  0  0  0  0  0  0  0  0
   20.8358  -18.6664  -13.8245 C   0  0  0  0  0  0  0  0  0  0  0  0
   21.1629  -19.7321  -12.8431 C   0  0  2  0  0  0  0  0  0  0  0  0
   22.5758  -19.9448  -12.7883 N   0  0  0  0  0  0  0  0  0  0  0  0
   20.4169  -20.9912  -13.1415 C   0  0  0  0  0  0  0  0  0  0  0  0
   20.8462  -21.8049  -13.9930 O   0  0  0  0  0  0  0  0  0  0  0  0
   19.2356  -21.2897  -12.4863 O   0  0  0  0  0  0  0  0  0  0  0  0
  2  1  1  6
  2  3  1  0
  4  9  2  0
  4  3  1  0
  5  4  1  0
  6  7  1  0
  6  5  2  0
  7  8  2  0
  8  9  1  0
 10  2  1  0
 11 10  2  0
 13 15  1  0
 13 12  1  6
 14 13  1  0
 15 16  1  1
 16 10  1  0
 17 24  1  0
 17 15  1  0
 18 17  2  0
 20 19  1  6
 21 20  1  0
 23 22  1  6
 22 20  1  0
 23 24  1  0
 25 23  1  0
 26 25  2  0
 27 25  1  0
M  END
$$$$
