FTL.pdb
     RDKit          3D

 27 27  0  0  1  0  0  0  0  0999 V2000
   25.0306  -21.4449  -18.6831 N   0  0  0  0  0  0  0  0  0  0  0  0
   24.9021  -20.4324  -17.6796 C   0  0  1  0  0  0  0  0  0  0  0  0
   23.4661  -20.0759  -17.3737 C   0  0  0  0  0  0  0  0  0  0  0  0
   22.8988  -19.3906  -18.5595 C   0  0  0  0  0  0  0  0  0  0  0  0
   22.1028  -20.1035  -19.4208 C   0  0  0  0  0  0  0  0  0  0  0  0
   21.5818  -19.4529  -20.5204 C   0  0  0  0  0  0  0  0  0  0  0  0
   21.8633  -18.1021  -20.7426 C   0  0  0  0  0  0  0  0  0  0  0  0
   22.6606  -17.4101  -19.8694 C   0  0  0  0  0  0  0  0  0  0  0  0
   23.1715  -18.0602  -18.7854 C   0  0  0  0  0  0  0  0  0  0  0  0
   25.5478  -20.8823  -16.4292 C   0  0  0  0  0  0  0  0  0  0  0  0
   26.3422  -21.8555  -16.4640 O   0  0  0  0  0  0  0  0  0  0  0  0
   28.0212  -20.7257  -15.5848 C   0  0  0  0  0  0  0  0  0  0  0  0
   27.5311  -20.0419  -14.3285 C   0  0  1  0  0  0  0  0  0  0  0  0
   27.6867  -18.6760  -14.5173 O   0  0  0  0  0  0  0  0  0  0  0  0
   26.1211  -20.4386  -14.0363 C   0  0  2  0  0  0  0  0  0  0  0  0
   25.2821  -20.2355  -15.2121 N   0  0  0  0  0  0  0  0  0  0  0  0
   25.5864  -19.7132  -12.8691 C   0  0  0  0  0  0  0  0  0  0  0  0
   24.9028  -18.6610  -12.9851 O   0  0  0  0  0  0  0  0  0  0  0  0
   21.4190  -21.2812  -11.6819 C   0  0  0  0  0  0  0  0  0  0  0  0
   22.5316  -20.2879  -11.3220 C   0  0  1  0  0  0  0  0  0  0  0  0
   21.9575  -19.2525  -10.4279 C   0  0  0  0  0  0  0  0  0  0  0  0
   23.7216  -21.0223  -10.8247 C   0  0  0  0  0  0  0  0  0  0  0  0
   24.9182  -20.2101  -10.4863 C   0  0  2  0  0  0  0  0  0  0  0  0
   25.8466  -20.2106  -11.5736 N   0  0  0  0  0  0  0  0  0  0  0  0
   25.5453  -20.6738   -9.2124 C   0  0  0  0  0  0  0  0  0  0  0  0
   26.2817  -21.6881   -9.1919 O   0  0  0  0  0  0  0  0  0  0  0  0
   25.3290  -19.9962   -8.0259 O   0  0  0  0  0  0  0  0  0  0  0  0
  2  1  1  6
  2  3  1  0
  4  9  2  0
  4  3  1  0
  5  4  1  0
  6  7  1  0
  6  5  2  0
  7  8  2  0
  8  9  1  0
 10  2  1  0
 11 10  2  0
 13 15  1  0
 13 12  1  6
 14 13  1  0
 15 16  1  6
 16 10  1  0
 17 24  1  0
 17 15  1  0
 18 17  2  0
 20 19  1  1
 21 20  1  0
 23 22  1  6
 22 20  1  0
 23 24  1  0
 25 23  1  0
 26 25  2  0
 27 25  1  0
M  END
$$$$
