FTL.pdb
     RDKit          3D

 27 27  0  0  1  0  0  0  0  0999 V2000
   18.3256  -23.4813  -14.1584 N   0  0  0  0  0  0  0  0  0  0  0  0
   19.2248  -22.5719  -14.8011 C   0  0  1  0  0  0  0  0  0  0  0  0
   19.0683  -21.1455  -14.3282 C   0  0  0  0  0  0  0  0  0  0  0  0
   18.0502  -20.4866  -15.1808 C   0  0  0  0  0  0  0  0  0  0  0  0
   18.4185  -20.0282  -16.4209 C   0  0  0  0  0  0  0  0  0  0  0  0
   17.4605  -19.4169  -17.2036 C   0  0  0  0  0  0  0  0  0  0  0  0
   16.1513  -19.2729  -16.7363 C   0  0  0  0  0  0  0  0  0  0  0  0
   15.8061  -19.7381  -15.4948 C   0  0  0  0  0  0  0  0  0  0  0  0
   16.7583  -20.3409  -14.7277 C   0  0  0  0  0  0  0  0  0  0  0  0
   20.6201  -22.9932  -14.5592 C   0  0  0  0  0  0  0  0  0  0  0  0
   20.8850  -23.6879  -13.5459 O   0  0  0  0  0  0  0  0  0  0  0  0
   24.9541  -24.2019  -16.2865 C   0  0  0  0  0  0  0  0  0  0  0  0
   23.5225  -23.7562  -16.4808 C   0  0  1  0  0  0  0  0  0  0  0  0
   22.7839  -24.8820  -16.8164 O   0  0  0  0  0  0  0  0  0  0  0  0
   23.0208  -23.0676  -15.2540 C   0  0  2  0  0  0  0  0  0  0  0  0
   21.6440  -22.6259  -15.4464 N   0  0  0  0  0  0  0  0  0  0  0  0
   23.8926  -21.9413  -14.8717 C   0  0  0  0  0  0  0  0  0  0  0  0
   23.7858  -20.7995  -15.3937 O   0  0  0  0  0  0  0  0  0  0  0  0
   25.6596  -21.5013   -9.6749 C   0  0  0  0  0  0  0  0  0  0  0  0
   25.1273  -21.2427  -11.0905 C   0  0  1  0  0  0  0  0  0  0  0  0
   24.3670  -19.9688  -11.0745 C   0  0  0  0  0  0  0  0  0  0  0  0
   26.2338  -21.3541  -12.0734 C   0  0  0  0  0  0  0  0  0  0  0  0
   25.8777  -21.1897  -13.5058 C   0  0  2  0  0  0  0  0  0  0  0  0
   24.8835  -22.1441  -13.8867 N   0  0  0  0  0  0  0  0  0  0  0  0
   27.0887  -21.2625  -14.3771 C   0  0  0  0  0  0  0  0  0  0  0  0
   27.4619  -22.3544  -14.8670 O   0  0  0  0  0  0  0  0  0  0  0  0
   27.8270  -20.1284  -14.6643 O   0  0  0  0  0  0  0  0  0  0  0  0
  2  1  1  1
  2  3  1  0
  4  9  2  0
  4  3  1  0
  5  4  1  0
  6  7  1  0
  6  5  2  0
  7  8  2  0
  8  9  1  0
 10  2  1  0
 11 10  2  0
 13 15  1  0
 13 12  1  1
 14 13  1  0
 15 16  1  6
 16 10  1  0
 17 24  1  0
 17 15  1  0
 18 17  2  0
 20 19  1  1
 21 20  1  0
 23 22  1  1
 22 20  1  0
 23 24  1  0
 25 23  1  0
 26 25  2  0
 27 25  1  0
M  END
$$$$
