FTL.pdb
     RDKit          3D

 27 27  0  0  1  0  0  0  0  0999 V2000
   30.2539  -20.2939  -12.6825 N   0  0  0  0  0  0  0  0  0  0  0  0
   29.0594  -21.0445  -12.4407 C   0  0  1  0  0  0  0  0  0  0  0  0
   28.7495  -21.2138  -10.9716 C   0  0  0  0  0  0  0  0  0  0  0  0
   29.9702  -21.7177  -10.2983 C   0  0  0  0  0  0  0  0  0  0  0  0
   30.2326  -21.3171   -9.0121 C   0  0  0  0  0  0  0  0  0  0  0  0
   31.3725  -21.7940   -8.3979 C   0  0  0  0  0  0  0  0  0  0  0  0
   32.2316  -22.6625   -9.0768 C   0  0  0  0  0  0  0  0  0  0  0  0
   31.9497  -23.0491  -10.3605 C   0  0  0  0  0  0  0  0  0  0  0  0
   30.8216  -22.5735  -10.9603 C   0  0  0  0  0  0  0  0  0  0  0  0
   27.9099  -20.3775  -13.0862 C   0  0  0  0  0  0  0  0  0  0  0  0
   28.0544  -19.2193  -13.5523 O   0  0  0  0  0  0  0  0  0  0  0  0
   27.2443  -19.1600  -15.1667 C   0  0  0  0  0  0  0  0  0  0  0  0
   25.9788  -19.9820  -15.2598 C   0  0  1  0  0  0  0  0  0  0  0  0
   26.2367  -21.0361  -16.1247 O   0  0  0  0  0  0  0  0  0  0  0  0
   25.5468  -20.4279  -13.9013 C   0  0  2  0  0  0  0  0  0  0  0  0
   26.6673  -21.0232  -13.1818 N   0  0  0  0  0  0  0  0  0  0  0  0
   24.4065  -21.3600  -13.9757 C   0  0  0  0  0  0  0  0  0  0  0  0
   24.5267  -22.5918  -13.7392 O   0  0  0  0  0  0  0  0  0  0  0  0
   21.4423  -20.3817   -9.8040 C   0  0  0  0  0  0  0  0  0  0  0  0
   21.0350  -20.8499  -11.2072 C   0  0  1  0  0  0  0  0  0  0  0  0
   19.6983  -20.2844  -11.5150 C   0  0  0  0  0  0  0  0  0  0  0  0
   22.1261  -20.5620  -12.1713 C   0  0  0  0  0  0  0  0  0  0  0  0
   21.9363  -21.0444  -13.5630 C   0  0  2  0  0  0  0  0  0  0  0  0
   23.1328  -20.8599  -14.3238 N   0  0  0  0  0  0  0  0  0  0  0  0
   20.7561  -20.3930  -14.2062 C   0  0  0  0  0  0  0  0  0  0  0  0
   19.7425  -21.0629  -14.5149 O   0  0  0  0  0  0  0  0  0  0  0  0
   20.7528  -19.0362  -14.4766 O   0  0  0  0  0  0  0  0  0  0  0  0
  2  1  1  1
  2  3  1  0
  4  9  2  0
  4  3  1  0
  5  4  1  0
  6  7  1  0
  6  5  2  0
  7  8  2  0
  8  9  1  0
 10  2  1  0
 11 10  2  0
 13 15  1  0
 13 12  1  1
 14 13  1  0
 15 16  1  6
 16 10  1  0
 17 24  1  0
 17 15  1  0
 18 17  2  0
 20 19  1  1
 21 20  1  0
 23 22  1  1
 22 20  1  0
 23 24  1  0
 25 23  1  0
 26 25  2  0
 27 25  1  0
M  END
$$$$
