VPA.pdb
     RDKit          3D

 20 20  0  0  1  0  0  0  0  0999 V2000
    6.4920  -11.7727   26.8484 C   0  0  0  0  0  0  0  0  0  0  0  0
    7.3324  -12.8349   26.2455 C   0  0  1  0  0  0  0  0  0  0  0  0
    8.3345  -13.3740   27.2458 C   0  0  0  0  0  0  0  0  0  0  0  0
    6.5514  -14.0170   25.7203 C   0  0  2  0  0  0  0  0  0  0  0  0
    5.9106  -14.6089   26.8455 N   0  0  0  0  0  0  0  0  0  0  0  0
    7.3100  -14.8805   24.8384 C   0  0  0  0  0  0  0  0  0  0  0  0
    7.8386  -15.8934   25.3671 O   0  0  0  0  0  0  0  0  0  0  0  0
    7.5246  -14.7048   23.4185 N   0  0  0  0  0  0  0  0  0  0  0  0
    7.0301  -13.6730   22.5742 C   0  0  0  0  0  0  0  0  0  0  0  0
    8.0600  -13.5354   21.4905 C   0  0  0  0  0  0  0  0  0  0  0  0
    8.3333  -15.0339   21.2407 C   0  0  0  0  0  0  0  0  0  0  0  0
    8.3002  -15.6155   22.6253 C   0  0  1  0  0  0  0  0  0  0  0  0
    9.6677  -15.8210   23.1643 C   0  0  0  0  0  0  0  0  0  0  0  0
   10.2637  -14.8711   23.7028 O   0  0  0  0  0  0  0  0  0  0  0  0
   11.7411  -18.9059   23.6051 C   0  0  0  0  0  0  0  0  0  0  0  0
   11.6089  -17.3783   23.5451 C   0  0  2  0  0  0  0  0  0  0  0  0
   10.2563  -17.1006   23.0484 N   0  0  0  0  0  0  0  0  0  0  0  0
   12.6225  -16.9096   22.5771 C   0  0  0  0  0  0  0  0  0  0  0  0
   12.2877  -16.7657   21.3824 O   0  0  0  0  0  0  0  0  0  0  0  0
   13.9206  -16.6265   22.9455 O   0  0  0  0  0  0  0  0  0  0  0  0
  2  1  1  1
  3  2  1  0
  4  5  1  1
  4  2  1  0
  6  4  1  0
  7  6  2  0
  8 12  1  0
  8  6  1  0
  9  8  1  0
 10 11  1  0
 10  9  1  0
 11 12  1  0
 12 13  1  1
 13 14  2  0
 13 17  1  0
 16 15  1  6
 17 16  1  0
 18 20  1  0
 18 16  1  0
 19 18  2  0
M  END
$$$$
