VPA.pdb
     RDKit          3D

 20 20  0  0  1  0  0  0  0  0999 V2000
    6.5162  -16.3815   23.2990 C   0  0  0  0  0  0  0  0  0  0  0  0
    7.3306  -15.7965   22.2070 C   0  0  1  0  0  0  0  0  0  0  0  0
    6.5577  -15.7648   20.9043 C   0  0  0  0  0  0  0  0  0  0  0  0
    7.8031  -14.3867   22.4759 C   0  0  2  0  0  0  0  0  0  0  0  0
    8.5478  -13.9857   21.3305 N   0  0  0  0  0  0  0  0  0  0  0  0
    8.4108  -14.2065   23.7785 C   0  0  0  0  0  0  0  0  0  0  0  0
    9.5448  -14.7282   23.9431 O   0  0  0  0  0  0  0  0  0  0  0  0
    7.8564  -13.4926   24.9081 N   0  0  0  0  0  0  0  0  0  0  0  0
    6.6772  -12.6995   24.9559 C   0  0  0  0  0  0  0  0  0  0  0  0
    6.1903  -12.8182   26.3712 C   0  0  0  0  0  0  0  0  0  0  0  0
    7.5489  -12.6954   27.0933 C   0  0  0  0  0  0  0  0  0  0  0  0
    8.4723  -13.4787   26.2045 C   0  0  1  0  0  0  0  0  0  0  0  0
    8.7156  -14.8429   26.7363 C   0  0  0  0  0  0  0  0  0  0  0  0
    7.7770  -15.6578   26.7865 O   0  0  0  0  0  0  0  0  0  0  0  0
   11.7456  -16.8341   27.3784 C   0  0  0  0  0  0  0  0  0  0  0  0
   10.3152  -16.4710   27.7987 C   0  0  2  0  0  0  0  0  0  0  0  0
   10.0173  -15.1774   27.1732 N   0  0  0  0  0  0  0  0  0  0  0  0
   10.3329  -16.3426   29.2708 C   0  0  0  0  0  0  0  0  0  0  0  0
   10.4826  -17.3736   29.9598 O   0  0  0  0  0  0  0  0  0  0  0  0
   10.1904  -15.1285   29.9084 O   0  0  0  0  0  0  0  0  0  0  0  0
  2  1  1  1
  3  2  1  0
  4  5  1  6
  4  2  1  0
  6  4  1  0
  7  6  2  0
  8 12  1  0
  8  6  1  0
  9  8  1  0
 10 11  1  0
 10  9  1  0
 11 12  1  0
 12 13  1  1
 13 14  2  0
 13 17  1  0
 16 15  1  6
 17 16  1  0
 18 20  1  0
 18 16  1  0
 19 18  2  0
M  END
$$$$
