VPA.pdb
     RDKit          3D

 20 20  0  0  1  0  0  0  0  0999 V2000
    8.3434  -12.4193   26.0241 C   0  0  0  0  0  0  0  0  0  0  0  0
    7.1899  -13.0746   26.6861 C   0  0  1  0  0  0  0  0  0  0  0  0
    6.2298  -12.0494   27.2540 C   0  0  0  0  0  0  0  0  0  0  0  0
    6.3876  -13.9772   25.7780 C   0  0  2  0  0  0  0  0  0  0  0  0
    5.3719  -14.5624   26.5861 N   0  0  0  0  0  0  0  0  0  0  0  0
    7.1947  -14.8576   24.9582 C   0  0  0  0  0  0  0  0  0  0  0  0
    7.7106  -15.8470   25.5412 O   0  0  0  0  0  0  0  0  0  0  0  0
    7.4708  -14.7229   23.5444 N   0  0  0  0  0  0  0  0  0  0  0  0
    6.9478  -13.7654   22.6323 C   0  0  0  0  0  0  0  0  0  0  0  0
    8.0209  -13.5941   21.5964 C   0  0  0  0  0  0  0  0  0  0  0  0
    8.4155  -15.0765   21.4260 C   0  0  0  0  0  0  0  0  0  0  0  0
    8.3516  -15.6035   22.8312 C   0  0  1  0  0  0  0  0  0  0  0  0
    9.7000  -15.6843   23.4461 C   0  0  0  0  0  0  0  0  0  0  0  0
   10.2229  -14.6572   23.9145 O   0  0  0  0  0  0  0  0  0  0  0  0
   11.8875  -18.5860   24.3194 C   0  0  0  0  0  0  0  0  0  0  0  0
   11.7040  -17.0889   24.0373 C   0  0  2  0  0  0  0  0  0  0  0  0
   10.3546  -16.9363   23.4812 N   0  0  0  0  0  0  0  0  0  0  0  0
   12.7232  -16.7262   23.0304 C   0  0  0  0  0  0  0  0  0  0  0  0
   13.8884  -16.4932   23.4153 O   0  0  0  0  0  0  0  0  0  0  0  0
   12.4337  -16.6362   21.6854 O   0  0  0  0  0  0  0  0  0  0  0  0
  2  1  1  6
  3  2  1  0
  4  5  1  1
  4  2  1  0
  6  4  1  0
  7  6  2  0
  8 12  1  0
  8  6  1  0
  9  8  1  0
 10 11  1  0
 10  9  1  0
 11 12  1  0
 12 13  1  1
 13 14  2  0
 13 17  1  0
 16 15  1  6
 17 16  1  0
 18 20  1  0
 18 16  1  0
 19 18  2  0
M  END
$$$$
