VPA.pdb
     RDKit          3D

 20 20  0  0  1  0  0  0  0  0999 V2000
    6.5934  -17.0942   21.3045 C   0  0  0  0  0  0  0  0  0  0  0  0
    6.6078  -17.7514   19.9757 C   0  0  1  0  0  0  0  0  0  0  0  0
    5.2705  -18.3936   19.6680 C   0  0  0  0  0  0  0  0  0  0  0  0
    6.9257  -16.8198   18.8293 C   0  0  2  0  0  0  0  0  0  0  0  0
    6.7395  -17.5722   17.6349 N   0  0  0  0  0  0  0  0  0  0  0  0
    8.1686  -16.0927   18.9872 C   0  0  0  0  0  0  0  0  0  0  0  0
    9.2225  -16.7815   18.9900 O   0  0  0  0  0  0  0  0  0  0  0  0
    8.3291  -14.6632   19.1412 N   0  0  0  0  0  0  0  0  0  0  0  0
    7.3482  -13.6452   18.9870 C   0  0  0  0  0  0  0  0  0  0  0  0
    7.7853  -12.5461   19.9115 C   0  0  0  0  0  0  0  0  0  0  0  0
    9.2984  -12.5782   19.6087 C   0  0  0  0  0  0  0  0  0  0  0  0
    9.5818  -14.0473   19.4751 C   0  0  1  0  0  0  0  0  0  0  0  0
   10.1796  -14.6033   20.7146 C   0  0  0  0  0  0  0  0  0  0  0  0
    9.4844  -14.6972   21.7419 O   0  0  0  0  0  0  0  0  0  0  0  0
   12.3259  -17.0472   21.6918 C   0  0  0  0  0  0  0  0  0  0  0  0
   12.2062  -15.5298   21.8863 C   0  0  2  0  0  0  0  0  0  0  0  0
   11.5321  -15.0126   20.6899 N   0  0  0  0  0  0  0  0  0  0  0  0
   13.5870  -15.0095   21.9684 C   0  0  0  0  0  0  0  0  0  0  0  0
   14.0856  -14.4728   20.9568 O   0  0  0  0  0  0  0  0  0  0  0  0
   14.3417  -15.0957   23.1191 O   0  0  0  0  0  0  0  0  0  0  0  0
  2  1  1  1
  3  2  1  0
  4  5  1  6
  4  2  1  0
  6  4  1  0
  7  6  2  0
  8 12  1  0
  8  6  1  0
  9  8  1  0
 10 11  1  0
 10  9  1  0
 11 12  1  0
 12 13  1  1
 13 14  2  0
 13 17  1  0
 16 15  1  6
 17 16  1  0
 18 20  1  0
 18 16  1  0
 19 18  2  0
M  END
$$$$
