VPA.pdb
     RDKit          3D

 20 20  0  0  1  0  0  0  0  0999 V2000
    6.0048  -15.0270   21.0270 C   0  0  0  0  0  0  0  0  0  0  0  0
    6.8144  -15.2082   22.2557 C   0  0  1  0  0  0  0  0  0  0  0  0
    7.5079  -16.5552   22.2607 C   0  0  0  0  0  0  0  0  0  0  0  0
    7.8840  -14.1589   22.4510 C   0  0  2  0  0  0  0  0  0  0  0  0
    8.7467  -14.2474   21.3218 N   0  0  0  0  0  0  0  0  0  0  0  0
    8.4864  -14.1686   23.7685 C   0  0  0  0  0  0  0  0  0  0  0  0
    9.5591  -14.8168   23.8876 O   0  0  0  0  0  0  0  0  0  0  0  0
    7.9894  -13.5146   24.9594 N   0  0  0  0  0  0  0  0  0  0  0  0
    6.8947  -12.6149   25.0783 C   0  0  0  0  0  0  0  0  0  0  0  0
    6.3775  -12.8197   26.4728 C   0  0  0  0  0  0  0  0  0  0  0  0
    7.7308  -12.9047   27.2102 C   0  0  0  0  0  0  0  0  0  0  0  0
    8.5844  -13.6879   26.2541 C   0  0  1  0  0  0  0  0  0  0  0  0
    8.6823  -15.1145   26.6518 C   0  0  0  0  0  0  0  0  0  0  0  0
    7.6771  -15.8431   26.5737 O   0  0  0  0  0  0  0  0  0  0  0  0
   11.4614  -17.4512   27.0178 C   0  0  0  0  0  0  0  0  0  0  0  0
   10.0944  -16.9970   27.5465 C   0  0  2  0  0  0  0  0  0  0  0  0
    9.9252  -15.6059   27.1109 N   0  0  0  0  0  0  0  0  0  0  0  0
   10.1711  -17.0725   29.0204 C   0  0  0  0  0  0  0  0  0  0  0  0
   10.2801  -18.1950   29.5573 O   0  0  0  0  0  0  0  0  0  0  0  0
   10.1266  -15.9509   29.8210 O   0  0  0  0  0  0  0  0  0  0  0  0
  2  1  1  6
  3  2  1  0
  4  5  1  6
  4  2  1  0
  6  4  1  0
  7  6  2  0
  8 12  1  0
  8  6  1  0
  9  8  1  0
 10 11  1  0
 10  9  1  0
 11 12  1  0
 12 13  1  1
 13 14  2  0
 13 17  1  0
 16 15  1  6
 17 16  1  0
 18 20  1  0
 18 16  1  0
 19 18  2  0
M  END
$$$$
