VPA.pdb
     RDKit          3D

 20 20  0  0  1  0  0  0  0  0999 V2000
    8.1872  -12.1590   26.0004 C   0  0  0  0  0  0  0  0  0  0  0  0
    7.1193  -12.8819   26.7317 C   0  0  1  0  0  0  0  0  0  0  0  0
    6.0915  -11.9199   27.2916 C   0  0  0  0  0  0  0  0  0  0  0  0
    6.3703  -13.8911   25.8928 C   0  0  2  0  0  0  0  0  0  0  0  0
    5.4252  -14.5123   26.7577 N   0  0  0  0  0  0  0  0  0  0  0  0
    7.2255  -14.7460   25.0951 C   0  0  0  0  0  0  0  0  0  0  0  0
    7.8223  -15.6689   25.7092 O   0  0  0  0  0  0  0  0  0  0  0  0
    7.4667  -14.6540   23.6716 N   0  0  0  0  0  0  0  0  0  0  0  0
    6.9651  -13.6905   22.7539 C   0  0  0  0  0  0  0  0  0  0  0  0
    8.0148  -13.5938   21.6849 C   0  0  0  0  0  0  0  0  0  0  0  0
    8.3311  -15.0972   21.5358 C   0  0  0  0  0  0  0  0  0  0  0  0
    8.2823  -15.5916   22.9533 C   0  0  1  0  0  0  0  0  0  0  0  0
    9.6423  -15.7268   23.5319 C   0  0  0  0  0  0  0  0  0  0  0  0
   10.2180  -14.7219   23.9863 O   0  0  0  0  0  0  0  0  0  0  0  0
   11.6917  -18.6854   24.4765 C   0  0  0  0  0  0  0  0  0  0  0  0
   11.6059  -17.2099   24.0640 C   0  0  2  0  0  0  0  0  0  0  0  0
   10.2472  -17.0039   23.5493 N   0  0  0  0  0  0  0  0  0  0  0  0
   12.6017  -17.0187   22.9890 C   0  0  0  0  0  0  0  0  0  0  0  0
   12.2152  -17.0551   21.8018 O   0  0  0  0  0  0  0  0  0  0  0  0
   13.9381  -16.8022   23.2497 O   0  0  0  0  0  0  0  0  0  0  0  0
  2  1  1  6
  3  2  1  0
  4  5  1  1
  4  2  1  0
  6  4  1  0
  7  6  2  0
  8 12  1  0
  8  6  1  0
  9  8  1  0
 10 11  1  0
 10  9  1  0
 11 12  1  0
 12 13  1  1
 13 14  2  0
 13 17  1  0
 16 15  1  6
 17 16  1  0
 18 20  1  0
 18 16  1  0
 19 18  2  0
M  END
$$$$
