VPA.pdb
     RDKit          3D

 20 20  0  0  1  0  0  0  0  0999 V2000
    6.4059  -11.2533   26.4823 C   0  0  0  0  0  0  0  0  0  0  0  0
    7.1517  -12.4489   26.0215 C   0  0  1  0  0  0  0  0  0  0  0  0
    7.9708  -13.0500   27.1454 C   0  0  0  0  0  0  0  0  0  0  0  0
    6.2748  -13.5510   25.4744 C   0  0  2  0  0  0  0  0  0  0  0  0
    5.4257  -13.9583   26.5422 N   0  0  0  0  0  0  0  0  0  0  0  0
    6.9987  -14.5776   24.7528 C   0  0  0  0  0  0  0  0  0  0  0  0
    7.3856  -15.5676   25.4276 O   0  0  0  0  0  0  0  0  0  0  0  0
    7.3239  -14.5880   23.3431 N   0  0  0  0  0  0  0  0  0  0  0  0
    6.9125  -13.6703   22.3377 C   0  0  0  0  0  0  0  0  0  0  0  0
    8.0243  -13.6806   21.3288 C   0  0  0  0  0  0  0  0  0  0  0  0
    8.2906  -15.2005   21.2949 C   0  0  0  0  0  0  0  0  0  0  0  0
    8.1424  -15.5985   22.7357 C   0  0  1  0  0  0  0  0  0  0  0  0
    9.4612  -15.7422   23.4013 C   0  0  0  0  0  0  0  0  0  0  0  0
   10.0108  -14.7415   23.8954 O   0  0  0  0  0  0  0  0  0  0  0  0
   11.4621  -18.7335   24.3881 C   0  0  0  0  0  0  0  0  0  0  0  0
   11.3771  -17.2372   24.0589 C   0  0  2  0  0  0  0  0  0  0  0  0
   10.0575  -17.0223   23.4539 N   0  0  0  0  0  0  0  0  0  0  0  0
   12.4475  -16.9646   23.0772 C   0  0  0  0  0  0  0  0  0  0  0  0
   12.1538  -16.9370   21.8635 O   0  0  0  0  0  0  0  0  0  0  0  0
   13.7550  -16.7403   23.4529 O   0  0  0  0  0  0  0  0  0  0  0  0
  2  1  1  1
  3  2  1  0
  4  5  1  1
  4  2  1  0
  6  4  1  0
  7  6  2  0
  8 12  1  0
  8  6  1  0
  9  8  1  0
 10 11  1  0
 10  9  1  0
 11 12  1  0
 12 13  1  1
 13 14  2  0
 13 17  1  0
 16 15  1  6
 17 16  1  0
 18 20  1  0
 18 16  1  0
 19 18  2  0
M  END
$$$$
