VPA.pdb
     RDKit          3D

 20 20  0  0  1  0  0  0  0  0999 V2000
    6.6688  -17.9647   18.2431 C   0  0  0  0  0  0  0  0  0  0  0  0
    7.7226  -17.9221   17.2011 C   0  0  1  0  0  0  0  0  0  0  0  0
    7.1705  -18.3201   15.8476 C   0  0  0  0  0  0  0  0  0  0  0  0
    8.3714  -16.5678   17.0337 C   0  0  2  0  0  0  0  0  0  0  0  0
    9.2189  -16.6648   15.8938 N   0  0  0  0  0  0  0  0  0  0  0  0
    8.9343  -16.0283   18.2547 C   0  0  0  0  0  0  0  0  0  0  0  0
    9.9115  -16.6538   18.7435 O   0  0  0  0  0  0  0  0  0  0  0  0
    8.4958  -14.8503   18.9710 N   0  0  0  0  0  0  0  0  0  0  0  0
    7.4341  -13.9636   18.6415 C   0  0  0  0  0  0  0  0  0  0  0  0
    6.9549  -13.4297   19.9602 C   0  0  0  0  0  0  0  0  0  0  0  0
    8.3273  -13.1967   20.6269 C   0  0  0  0  0  0  0  0  0  0  0  0
    9.1254  -14.3860   20.1744 C   0  0  1  0  0  0  0  0  0  0  0  0
    9.1911  -15.4319   21.2253 C   0  0  0  0  0  0  0  0  0  0  0  0
    8.2090  -16.1712   21.4168 O   0  0  0  0  0  0  0  0  0  0  0  0
   10.9701  -17.8556   22.3574 C   0  0  0  0  0  0  0  0  0  0  0  0
   10.5153  -16.5611   23.0445 C   0  0  2  0  0  0  0  0  0  0  0  0
   10.3773  -15.5573   21.9831 N   0  0  0  0  0  0  0  0  0  0  0  0
   11.5963  -16.1824   23.9783 C   0  0  0  0  0  0  0  0  0  0  0  0
   11.8134  -16.9106   24.9696 O   0  0  0  0  0  0  0  0  0  0  0  0
   12.3713  -15.0571   23.7940 O   0  0  0  0  0  0  0  0  0  0  0  0
  2  1  1  1
  3  2  1  0
  4  5  1  6
  4  2  1  0
  6  4  1  0
  7  6  2  0
  8 12  1  0
  8  6  1  0
  9  8  1  0
 10 11  1  0
 10  9  1  0
 11 12  1  0
 12 13  1  1
 13 14  2  0
 13 17  1  0
 16 15  1  6
 17 16  1  0
 18 20  1  0
 18 16  1  0
 19 18  2  0
M  END
$$$$
