PDN.pdb
     RDKit          3D

 24 24  0  0  1  0  0  0  0  0999 V2000
   22.2327  -11.9981  -16.9821 N   0  0  0  0  0  0  0  0  0  0  0  0
   22.7482  -13.2880  -17.4248 C   0  0  0  0  0  0  0  0  0  0  0  0
   21.6194  -13.9469  -18.1748 C   0  0  0  0  0  0  0  0  0  0  0  0
   20.5666  -12.8596  -18.3053 C   0  0  0  0  0  0  0  0  0  0  0  0
   21.3804  -11.6043  -18.0845 C   0  0  1  0  0  0  0  0  0  0  0  0
   20.5115  -10.4570  -17.7280 C   0  0  0  0  0  0  0  0  0  0  0  0
   20.6573   -9.3899  -18.3682 O   0  0  0  0  0  0  0  0  0  0  0  0
   19.5511  -10.5379  -16.7124 N   0  0  0  0  0  0  0  0  0  0  0  0
   18.6784   -9.4689  -16.3159 C   0  0  1  0  0  0  0  0  0  0  0  0
   17.4013   -9.9055  -15.6711 C   0  0  0  0  0  0  0  0  0  0  0  0
   16.5816  -10.7409  -16.5798 C   0  0  0  0  0  0  0  0  0  0  0  0
   16.2817  -10.3686  -17.7418 O   0  0  0  0  0  0  0  0  0  0  0  0
   19.4053   -8.5190  -15.4093 C   0  0  0  0  0  0  0  0  0  0  0  0
   19.9181   -8.9355  -14.3381 O   0  0  0  0  0  0  0  0  0  0  0  0
   16.1215  -11.9757  -16.1526 O   0  0  0  0  0  0  0  0  0  0  0  0
   22.6761   -5.2352  -13.0342 N   0  0  0  0  0  0  0  0  0  0  0  0
   22.3220   -5.0094  -14.3806 C   0  0  0  0  0  0  0  0  0  0  0  0
   22.5840   -3.8946  -14.8760 O   0  0  0  0  0  0  0  0  0  0  0  0
   21.6737   -6.0456  -15.1591 C   0  0  0  0  0  0  0  0  0  0  0  0
   20.2009   -6.2182  -14.8575 C   0  0  2  0  0  0  0  0  0  0  0  0
   19.5366   -7.1425  -15.7228 N   0  0  0  0  0  0  0  0  0  0  0  0
   19.5035   -4.9017  -14.7804 C   0  0  0  0  0  0  0  0  0  0  0  0
   19.4955   -4.1836  -13.7469 O   0  0  0  0  0  0  0  0  0  0  0  0
   18.8189   -4.4105  -15.8811 O   0  0  0  0  0  0  0  0  0  0  0  0
  1  5  1  0
  2  1  1  0
  2  3  1  0
  3  4  1  0
  5  4  1  0
  6  8  1  0
  5  6  1  1
  7  6  2  0
  9  8  1  0
  9 10  1  1
 11 10  1  0
 11 15  1  0
 12 11  2  0
 13 21  1  0
 13  9  1  0
 14 13  2  0
 17 16  1  0
 18 17  2  0
 19 17  1  0
 20 21  1  0
 20 19  1  6
 22 20  1  0
 23 22  2  0
 24 22  1  0
M  END
$$$$
