PDN.pdb
     RDKit          3D

 24 24  0  0  1  0  0  0  0  0999 V2000
   27.0657  -20.6485  -16.3718 N   0  0  0  0  0  0  0  0  0  0  0  0
   28.4443  -21.1220  -16.4036 C   0  0  0  0  0  0  0  0  0  0  0  0
   29.2926  -19.9024  -16.6566 C   0  0  0  0  0  0  0  0  0  0  0  0
   28.3266  -18.7369  -16.5296 C   0  0  0  0  0  0  0  0  0  0  0  0
   27.1925  -19.3516  -15.7404 C   0  0  1  0  0  0  0  0  0  0  0  0
   25.9518  -18.5504  -15.8708 C   0  0  0  0  0  0  0  0  0  0  0  0
   25.9015  -17.4470  -15.2795 O   0  0  0  0  0  0  0  0  0  0  0  0
   24.8571  -18.9907  -16.6247 N   0  0  0  0  0  0  0  0  0  0  0  0
   23.6413  -18.2527  -16.8216 C   0  0  1  0  0  0  0  0  0  0  0  0
   23.2567  -18.0437  -18.2519 C   0  0  0  0  0  0  0  0  0  0  0  0
   24.1054  -17.0217  -18.9080 C   0  0  0  0  0  0  0  0  0  0  0  0
   24.8193  -17.2867  -19.9074 O   0  0  0  0  0  0  0  0  0  0  0  0
   22.5126  -18.9119  -16.0840 C   0  0  0  0  0  0  0  0  0  0  0  0
   22.3257  -20.1517  -16.1926 O   0  0  0  0  0  0  0  0  0  0  0  0
   24.1261  -15.7260  -18.4183 O   0  0  0  0  0  0  0  0  0  0  0  0
   19.8213  -20.3273  -12.3335 N   0  0  0  0  0  0  0  0  0  0  0  0
   19.8447  -18.9268  -12.1680 C   0  0  0  0  0  0  0  0  0  0  0  0
   19.5947  -18.4668  -11.0354 O   0  0  0  0  0  0  0  0  0  0  0  0
   20.1509  -18.0548  -13.2841 C   0  0  0  0  0  0  0  0  0  0  0  0
   20.5478  -18.7832  -14.5497 C   0  0  2  0  0  0  0  0  0  0  0  0
   21.6323  -18.1729  -15.2538 N   0  0  0  0  0  0  0  0  0  0  0  0
   19.3664  -19.0371  -15.4245 C   0  0  0  0  0  0  0  0  0  0  0  0
   18.6146  -20.0383  -15.2968 O   0  0  0  0  0  0  0  0  0  0  0  0
   19.0477  -18.1489  -16.4399 O   0  0  0  0  0  0  0  0  0  0  0  0
  1  5  1  0
  2  1  1  0
  2  3  1  0
  3  4  1  0
  5  4  1  0
  6  8  1  0
  5  6  1  6
  7  6  2  0
  9  8  1  0
  9 10  1  6
 11 10  1  0
 11 15  1  0
 12 11  2  0
 13 21  1  0
 13  9  1  0
 14 13  2  0
 17 16  1  0
 18 17  2  0
 19 17  1  0
 20 21  1  0
 20 19  1  1
 22 20  1  0
 23 22  2  0
 24 22  1  0
M  END
$$$$
