PDN.pdb
     RDKit          3D

 24 24  0  0  1  0  0  0  0  0999 V2000
   24.9524  -11.8421  -16.1846 N   0  0  0  0  0  0  0  0  0  0  0  0
   26.1703  -12.6031  -16.4363 C   0  0  0  0  0  0  0  0  0  0  0  0
   26.4946  -12.3908  -17.8926 C   0  0  0  0  0  0  0  0  0  0  0  0
   25.5294  -11.3067  -18.3408 C   0  0  0  0  0  0  0  0  0  0  0  0
   25.1296  -10.6767  -17.0255 C   0  0  1  0  0  0  0  0  0  0  0  0
   23.8749   -9.8987  -17.1624 C   0  0  0  0  0  0  0  0  0  0  0  0
   23.8960   -8.8741  -17.8832 O   0  0  0  0  0  0  0  0  0  0  0  0
   22.6909  -10.2758  -16.5171 N   0  0  0  0  0  0  0  0  0  0  0  0
   21.4339   -9.5922  -16.6350 C   0  0  1  0  0  0  0  0  0  0  0  0
   20.2281  -10.4734  -16.5516 C   0  0  0  0  0  0  0  0  0  0  0  0
   20.1858  -11.4573  -17.6586 C   0  0  0  0  0  0  0  0  0  0  0  0
   20.3506  -12.6879  -17.4660 O   0  0  0  0  0  0  0  0  0  0  0  0
   21.3396   -8.5047  -15.6048 C   0  0  0  0  0  0  0  0  0  0  0  0
   21.9471   -8.6186  -14.5086 O   0  0  0  0  0  0  0  0  0  0  0  0
   19.9588  -11.0258  -18.9552 O   0  0  0  0  0  0  0  0  0  0  0  0
   21.3325   -3.7033  -13.8069 N   0  0  0  0  0  0  0  0  0  0  0  0
   22.4307   -4.4616  -14.2633 C   0  0  0  0  0  0  0  0  0  0  0  0
   23.5777   -4.0241  -14.0398 O   0  0  0  0  0  0  0  0  0  0  0  0
   22.2255   -5.7102  -14.9694 C   0  0  0  0  0  0  0  0  0  0  0  0
   20.7759   -6.1309  -15.0772 C   0  0  2  0  0  0  0  0  0  0  0  0
   20.5751   -7.3315  -15.8272 N   0  0  0  0  0  0  0  0  0  0  0  0
   19.9173   -5.0073  -15.5523 C   0  0  0  0  0  0  0  0  0  0  0  0
   19.2001   -4.3137  -14.7851 O   0  0  0  0  0  0  0  0  0  0  0  0
   19.8804   -4.6799  -16.8987 O   0  0  0  0  0  0  0  0  0  0  0  0
  1  5  1  0
  2  1  1  0
  2  3  1  0
  3  4  1  0
  5  4  1  0
  6  8  1  0
  5  6  1  6
  7  6  2  0
  9  8  1  0
  9 10  1  1
 11 10  1  0
 11 15  1  0
 12 11  2  0
 13 21  1  0
 13  9  1  0
 14 13  2  0
 17 16  1  0
 18 17  2  0
 19 17  1  0
 20 21  1  0
 20 19  1  6
 22 20  1  0
 23 22  2  0
 24 22  1  0
M  END
$$$$
