PDN.pdb
     RDKit          3D

 24 24  0  0  1  0  0  0  0  0999 V2000
   12.8033   -9.2533  -10.3357 N   0  0  0  0  0  0  0  0  0  0  0  0
   11.5966  -10.0185  -10.0459 C   0  0  0  0  0  0  0  0  0  0  0  0
   11.8442  -10.6909   -8.7202 C   0  0  0  0  0  0  0  0  0  0  0  0
   13.1351  -10.0689   -8.2159 C   0  0  0  0  0  0  0  0  0  0  0  0
   13.2069   -8.7924   -9.0237 C   0  0  1  0  0  0  0  0  0  0  0  0
   14.5824   -8.2391   -9.0318 C   0  0  0  0  0  0  0  0  0  0  0  0
   15.0476   -7.8085   -7.9511 O   0  0  0  0  0  0  0  0  0  0  0  0
   15.3573   -8.1877  -10.1969 N   0  0  0  0  0  0  0  0  0  0  0  0
   16.6366   -7.5456  -10.3085 C   0  0  1  0  0  0  0  0  0  0  0  0
   17.4645   -7.9903  -11.4722 C   0  0  0  0  0  0  0  0  0  0  0  0
   18.7937   -7.3357  -11.4862 C   0  0  0  0  0  0  0  0  0  0  0  0
   19.0760   -6.4127  -12.2906 O   0  0  0  0  0  0  0  0  0  0  0  0
   16.4638   -6.0552  -10.3492 C   0  0  0  0  0  0  0  0  0  0  0  0
   15.6222   -5.5378  -11.1289 O   0  0  0  0  0  0  0  0  0  0  0  0
   19.7704   -7.7408  -10.5913 O   0  0  0  0  0  0  0  0  0  0  0  0
   16.2601   -1.1228   -8.9835 N   0  0  0  0  0  0  0  0  0  0  0  0
   16.8408   -1.8244   -7.9066 C   0  0  0  0  0  0  0  0  0  0  0  0
   17.0297   -1.2065   -6.8391 O   0  0  0  0  0  0  0  0  0  0  0  0
   17.2044   -3.2205   -8.0429 C   0  0  0  0  0  0  0  0  0  0  0  0
   16.9650   -3.7917   -9.4236 C   0  0  2  0  0  0  0  0  0  0  0  0
   17.2303   -5.1931   -9.5249 N   0  0  0  0  0  0  0  0  0  0  0  0
   17.6702   -2.9972  -10.4709 C   0  0  0  0  0  0  0  0  0  0  0  0
   17.4826   -1.7652  -10.6466 O   0  0  0  0  0  0  0  0  0  0  0  0
   18.5852   -3.6105  -11.3124 O   0  0  0  0  0  0  0  0  0  0  0  0
  1  5  1  0
  2  1  1  0
  2  3  1  0
  3  4  1  0
  5  4  1  0
  6  8  1  0
  5  6  1  6
  7  6  2  0
  9  8  1  0
  9 10  1  6
 11 10  1  0
 11 15  1  0
 12 11  2  0
 13 21  1  0
 13  9  1  0
 14 13  2  0
 17 16  1  0
 18 17  2  0
 19 17  1  0
 20 21  1  0
 20 19  1  1
 22 20  1  0
 23 22  2  0
 24 22  1  0
M  END
$$$$
