PDN.pdb
     RDKit          3D

 24 24  0  0  1  0  0  0  0  0999 V2000
   44.4270  -16.9223  -10.1029 N   0  0  0  0  0  0  0  0  0  0  0  0
   44.3167  -18.2047   -9.4179 C   0  0  0  0  0  0  0  0  0  0  0  0
   43.8548  -17.8858   -8.0194 C   0  0  0  0  0  0  0  0  0  0  0  0
   43.5077  -16.4075   -8.0636 C   0  0  0  0  0  0  0  0  0  0  0  0
   43.3215  -16.1713   -9.5457 C   0  0  1  0  0  0  0  0  0  0  0  0
   43.4126  -14.7285   -9.8749 C   0  0  0  0  0  0  0  0  0  0  0  0
   44.5531  -14.2330  -10.0284 O   0  0  0  0  0  0  0  0  0  0  0  0
   42.2755  -13.9236  -10.0150 N   0  0  0  0  0  0  0  0  0  0  0  0
   42.2918  -12.5089  -10.2592 C   0  0  1  0  0  0  0  0  0  0  0  0
   41.1983  -12.0115  -11.1505 C   0  0  0  0  0  0  0  0  0  0  0  0
   41.3997  -12.4301  -12.5574 C   0  0  0  0  0  0  0  0  0  0  0  0
   42.4666  -12.9656  -12.9496 O   0  0  0  0  0  0  0  0  0  0  0  0
   42.2656  -11.7606   -8.9584 C   0  0  0  0  0  0  0  0  0  0  0  0
   41.5318  -12.1573   -8.0160 O   0  0  0  0  0  0  0  0  0  0  0  0
   40.3907  -12.2329  -13.4858 O   0  0  0  0  0  0  0  0  0  0  0  0
   45.1068  -10.5358   -4.4022 N   0  0  0  0  0  0  0  0  0  0  0  0
   43.8868  -10.3763   -5.0916 C   0  0  0  0  0  0  0  0  0  0  0  0
   42.9882   -9.7056   -4.5443 O   0  0  0  0  0  0  0  0  0  0  0  0
   43.6901  -10.9760   -6.3961 C   0  0  0  0  0  0  0  0  0  0  0  0
   43.2201  -10.0075   -7.4595 C   0  0  2  0  0  0  0  0  0  0  0  0
   43.0529  -10.6001   -8.7500 N   0  0  0  0  0  0  0  0  0  0  0  0
   44.0728   -8.7840   -7.4962 C   0  0  0  0  0  0  0  0  0  0  0  0
   43.9165   -7.8093   -6.7156 O   0  0  0  0  0  0  0  0  0  0  0  0
   45.0989   -8.6775   -8.4220 O   0  0  0  0  0  0  0  0  0  0  0  0
  1  5  1  0
  2  1  1  0
  2  3  1  0
  3  4  1  0
  5  4  1  0
  6  8  1  0
  5  6  1  1
  7  6  2  0
  9  8  1  0
  9 10  1  6
 11 10  1  0
 11 15  1  0
 12 11  2  0
 13 21  1  0
 13  9  1  0
 14 13  2  0
 17 16  1  0
 18 17  2  0
 19 17  1  0
 20 21  1  0
 20 19  1  1
 22 20  1  0
 23 22  2  0
 24 22  1  0
M  END
$$$$
