PDN.pdb
     RDKit          3D

 24 24  0  0  1  0  0  0  0  0999 V2000
   14.8697  -21.7516    2.7135 N   0  0  0  0  0  0  0  0  0  0  0  0
   14.4674  -22.4688    1.5095 C   0  0  0  0  0  0  0  0  0  0  0  0
   15.2651  -21.8629    0.3836 C   0  0  0  0  0  0  0  0  0  0  0  0
   16.2679  -20.9558    1.0761 C   0  0  0  0  0  0  0  0  0  0  0  0
   16.2790  -21.5130    2.4819 C   0  0  1  0  0  0  0  0  0  0  0  0
   16.8382  -20.5326    3.4434 C   0  0  0  0  0  0  0  0  0  0  0  0
   18.0122  -20.1354    3.2598 O   0  0  0  0  0  0  0  0  0  0  0  0
   16.0985  -20.0504    4.5301 N   0  0  0  0  0  0  0  0  0  0  0  0
   16.4717  -18.9330    5.3507 C   0  0  1  0  0  0  0  0  0  0  0  0
   15.3359  -18.2650    6.0586 C   0  0  0  0  0  0  0  0  0  0  0  0
   14.4881  -17.4839    5.1277 C   0  0  0  0  0  0  0  0  0  0  0  0
   13.2696  -17.7395    4.9588 O   0  0  0  0  0  0  0  0  0  0  0  0
   17.5149  -19.3496    6.3460 C   0  0  0  0  0  0  0  0  0  0  0  0
   17.4620  -20.4893    6.8771 O   0  0  0  0  0  0  0  0  0  0  0  0
   15.0386  -16.4341    4.4110 O   0  0  0  0  0  0  0  0  0  0  0  0
   22.2969  -20.3727    8.4589 N   0  0  0  0  0  0  0  0  0  0  0  0
   22.0029  -19.0241    8.1694 C   0  0  0  0  0  0  0  0  0  0  0  0
   22.6386  -18.1418    8.7813 O   0  0  0  0  0  0  0  0  0  0  0  0
   20.9920  -18.6810    7.1895 C   0  0  0  0  0  0  0  0  0  0  0  0
   19.5704  -18.8615    7.6758 C   0  0  2  0  0  0  0  0  0  0  0  0
   18.5780  -18.4877    6.7166 N   0  0  0  0  0  0  0  0  0  0  0  0
   19.3617  -18.2091    9.0010 C   0  0  0  0  0  0  0  0  0  0  0  0
   19.0034  -17.0098    9.1319 O   0  0  0  0  0  0  0  0  0  0  0  0
   19.5623  -18.9266   10.1700 O   0  0  0  0  0  0  0  0  0  0  0  0
  1  5  1  0
  2  1  1  0
  2  3  1  0
  3  4  1  0
  5  4  1  0
  6  8  1  0
  5  6  1  1
  7  6  2  0
  9  8  1  0
  9 10  1  1
 11 10  1  0
 11 15  1  0
 12 11  2  0
 13 21  1  0
 13  9  1  0
 14 13  2  0
 17 16  1  0
 18 17  2  0
 19 17  1  0
 20 21  1  0
 20 19  1  6
 22 20  1  0
 23 22  2  0
 24 22  1  0
M  END
$$$$
