PDN.pdb
     RDKit          3D

 24 24  0  0  1  0  0  0  0  0999 V2000
   21.1162  -12.2405  -16.2857 N   0  0  0  0  0  0  0  0  0  0  0  0
   21.1786  -13.6084  -16.7861 C   0  0  0  0  0  0  0  0  0  0  0  0
   20.0203  -13.7510  -17.7396 C   0  0  0  0  0  0  0  0  0  0  0  0
   19.4823  -12.3388  -17.8949 C   0  0  0  0  0  0  0  0  0  0  0  0
   20.6583  -11.5018  -17.4438 C   0  0  1  0  0  0  0  0  0  0  0  0
   20.2333  -10.1264  -17.0889 C   0  0  0  0  0  0  0  0  0  0  0  0
   20.0599   -9.3074  -18.0210 O   0  0  0  0  0  0  0  0  0  0  0  0
   20.0259   -9.7304  -15.7620 N   0  0  0  0  0  0  0  0  0  0  0  0
   19.5704   -8.4325  -15.3506 C   0  0  1  0  0  0  0  0  0  0  0  0
   18.4645   -8.4438  -14.3434 C   0  0  0  0  0  0  0  0  0  0  0  0
   17.2339   -9.0688  -14.8820 C   0  0  0  0  0  0  0  0  0  0  0  0
   16.7672   -8.7647  -16.0082 O   0  0  0  0  0  0  0  0  0  0  0  0
   20.7220   -7.6226  -14.8302 C   0  0  0  0  0  0  0  0  0  0  0  0
   21.5189   -8.1223  -13.9940 O   0  0  0  0  0  0  0  0  0  0  0  0
   16.5614  -10.0216  -14.1343 O   0  0  0  0  0  0  0  0  0  0  0  0
   23.3790   -5.7751  -17.2449 N   0  0  0  0  0  0  0  0  0  0  0  0
   22.7703   -4.5422  -16.9310 C   0  0  0  0  0  0  0  0  0  0  0  0
   22.6360   -3.7055  -17.8469 O   0  0  0  0  0  0  0  0  0  0  0  0
   22.3168   -4.2627  -15.5834 C   0  0  0  0  0  0  0  0  0  0  0  0
   22.0293   -5.4973  -14.7571 C   0  0  2  0  0  0  0  0  0  0  0  0
   20.9477   -6.2890  -15.2551 N   0  0  0  0  0  0  0  0  0  0  0  0
   21.8761   -5.1612  -13.3119 C   0  0  0  0  0  0  0  0  0  0  0  0
   22.8485   -5.0597  -12.5193 O   0  0  0  0  0  0  0  0  0  0  0  0
   20.6160   -4.9426  -12.7771 O   0  0  0  0  0  0  0  0  0  0  0  0
  1  5  1  0
  2  1  1  0
  2  3  1  0
  3  4  1  0
  5  4  1  0
  6  8  1  0
  5  6  1  1
  7  6  2  0
  9  8  1  0
  9 10  1  1
 11 10  1  0
 11 15  1  0
 12 11  2  0
 13 21  1  0
 13  9  1  0
 14 13  2  0
 17 16  1  0
 18 17  2  0
 19 17  1  0
 20 21  1  0
 20 19  1  6
 22 20  1  0
 23 22  2  0
 24 22  1  0
M  END
$$$$
