PDN.pdb
     RDKit          3D

 24 24  0  0  1  0  0  0  0  0999 V2000
   27.4310  -20.5405  -14.3388 N   0  0  0  0  0  0  0  0  0  0  0  0
   28.8346  -20.3286  -14.6715 C   0  0  0  0  0  0  0  0  0  0  0  0
   28.8668  -20.0283  -16.1479 C   0  0  0  0  0  0  0  0  0  0  0  0
   27.4063  -19.8658  -16.5327 C   0  0  0  0  0  0  0  0  0  0  0  0
   26.7568  -19.5876  -15.1955 C   0  0  1  0  0  0  0  0  0  0  0  0
   25.2951  -19.8302  -15.2481 C   0  0  0  0  0  0  0  0  0  0  0  0
   24.6222  -19.1794  -16.0809 O   0  0  0  0  0  0  0  0  0  0  0  0
   24.6625  -20.7516  -14.4046 N   0  0  0  0  0  0  0  0  0  0  0  0
   23.3688  -21.3292  -14.6372 C   0  0  1  0  0  0  0  0  0  0  0  0
   23.2528  -22.7771  -14.2801 C   0  0  0  0  0  0  0  0  0  0  0  0
   24.0524  -23.6348  -15.1859 C   0  0  0  0  0  0  0  0  0  0  0  0
   23.9165  -23.5980  -16.4344 O   0  0  0  0  0  0  0  0  0  0  0  0
   22.3150  -20.5425  -13.9138 C   0  0  0  0  0  0  0  0  0  0  0  0
   22.4325  -20.3123  -12.6822 O   0  0  0  0  0  0  0  0  0  0  0  0
   24.9850  -24.5126  -14.6580 O   0  0  0  0  0  0  0  0  0  0  0  0
   17.4175  -17.2156  -14.4026 N   0  0  0  0  0  0  0  0  0  0  0  0
   18.7323  -17.2625  -13.8944 C   0  0  0  0  0  0  0  0  0  0  0  0
   18.9750  -16.6412  -12.8399 O   0  0  0  0  0  0  0  0  0  0  0  0
   19.7650  -18.0117  -14.5815 C   0  0  0  0  0  0  0  0  0  0  0  0
   20.1439  -19.3106  -13.9037 C   0  0  2  0  0  0  0  0  0  0  0  0
   21.1697  -20.0403  -14.5818 N   0  0  0  0  0  0  0  0  0  0  0  0
   18.9414  -20.1448  -13.6155 C   0  0  0  0  0  0  0  0  0  0  0  0
   18.2136  -19.9808  -12.6019 O   0  0  0  0  0  0  0  0  0  0  0  0
   18.5743  -21.1614  -14.4834 O   0  0  0  0  0  0  0  0  0  0  0  0
  1  5  1  0
  2  1  1  0
  2  3  1  0
  3  4  1  0
  5  4  1  0
  6  8  1  0
  5  6  1  6
  7  6  2  0
  9  8  1  0
  9 10  1  1
 11 10  1  0
 11 15  1  0
 12 11  2  0
 13 21  1  0
 13  9  1  0
 14 13  2  0
 17 16  1  0
 18 17  2  0
 19 17  1  0
 20 21  1  0
 20 19  1  6
 22 20  1  0
 23 22  2  0
 24 22  1  0
M  END
$$$$
