PDN.pdb
     RDKit          3D

 24 24  0  0  1  0  0  0  0  0999 V2000
   20.7920  -12.0317  -16.5708 N   0  0  0  0  0  0  0  0  0  0  0  0
   20.8763  -13.3788  -17.1220 C   0  0  0  0  0  0  0  0  0  0  0  0
   19.6977  -13.5182  -18.0506 C   0  0  0  0  0  0  0  0  0  0  0  0
   19.1196  -12.1162  -18.1410 C   0  0  0  0  0  0  0  0  0  0  0  0
   20.2851  -11.2647  -17.6896 C   0  0  1  0  0  0  0  0  0  0  0  0
   19.8344   -9.9147  -17.2744 C   0  0  0  0  0  0  0  0  0  0  0  0
   19.3945   -9.1452  -18.1600 O   0  0  0  0  0  0  0  0  0  0  0  0
   19.8883   -9.4889  -15.9416 N   0  0  0  0  0  0  0  0  0  0  0  0
   19.4111   -8.2231  -15.4605 C   0  0  1  0  0  0  0  0  0  0  0  0
   18.4508   -8.3061  -14.3167 C   0  0  0  0  0  0  0  0  0  0  0  0
   17.1395   -8.8539  -14.7356 C   0  0  0  0  0  0  0  0  0  0  0  0
   16.6172   -8.5665  -15.8416 O   0  0  0  0  0  0  0  0  0  0  0  0
   20.5687   -7.3433  -15.0880 C   0  0  0  0  0  0  0  0  0  0  0  0
   21.5734   -7.8325  -14.5092 O   0  0  0  0  0  0  0  0  0  0  0  0
   16.4512   -9.7125  -13.8942 O   0  0  0  0  0  0  0  0  0  0  0  0
   22.0169   -4.7281  -17.7262 N   0  0  0  0  0  0  0  0  0  0  0  0
   21.6701   -3.5937  -16.9631 C   0  0  0  0  0  0  0  0  0  0  0  0
   21.4908   -2.5156  -17.5651 O   0  0  0  0  0  0  0  0  0  0  0  0
   21.5280   -3.6852  -15.5239 C   0  0  0  0  0  0  0  0  0  0  0  0
   21.6411   -5.0919  -14.9777 C   0  0  2  0  0  0  0  0  0  0  0  0
   20.5699   -5.9538  -15.3701 N   0  0  0  0  0  0  0  0  0  0  0  0
   21.8619   -5.0864  -13.5024 C   0  0  0  0  0  0  0  0  0  0  0  0
   20.9241   -5.1099  -12.6634 O   0  0  0  0  0  0  0  0  0  0  0  0
   23.1498   -5.0544  -12.9907 O   0  0  0  0  0  0  0  0  0  0  0  0
  1  5  1  0
  2  1  1  0
  2  3  1  0
  3  4  1  0
  5  4  1  0
  6  8  1  0
  5  6  1  1
  7  6  2  0
  9  8  1  0
  9 10  1  1
 11 10  1  0
 11 15  1  0
 12 11  2  0
 13 21  1  0
 13  9  1  0
 14 13  2  0
 17 16  1  0
 18 17  2  0
 19 17  1  0
 20 21  1  0
 20 19  1  1
 22 20  1  0
 23 22  2  0
 24 22  1  0
M  END
$$$$
