YVN.pdb
     RDKit          3D

 28 28  0  0  1  0  0  0  0  0999 V2000
    5.4088  -10.6230   28.8791 O   0  0  0  0  0  0  0  0  0  0  0  0
    6.0362  -11.5224   28.0387 C   0  0  0  0  0  0  0  0  0  0  0  0
    5.3727  -11.9415   26.9051 C   0  0  0  0  0  0  0  0  0  0  0  0
    5.9844  -12.8395   26.0545 C   0  0  0  0  0  0  0  0  0  0  0  0
    7.2408  -13.3547   26.2692 C   0  0  0  0  0  0  0  0  0  0  0  0
    7.9268  -14.3151   25.3816 C   0  0  0  0  0  0  0  0  0  0  0  0
    6.9693  -15.2864   24.7301 C   0  0  2  0  0  0  0  0  0  0  0  0
    6.5795  -16.2824   25.6853 N   0  0  0  0  0  0  0  0  0  0  0  0
    7.5284  -15.8741   23.4862 C   0  0  0  0  0  0  0  0  0  0  0  0
    8.0610  -17.0218   23.4682 O   0  0  0  0  0  0  0  0  0  0  0  0
    7.9039  -12.9276   27.4146 C   0  0  0  0  0  0  0  0  0  0  0  0
    7.2981  -12.0291   28.2706 C   0  0  0  0  0  0  0  0  0  0  0  0
    8.6564  -13.3162   20.0959 C   0  0  0  0  0  0  0  0  0  0  0  0
    8.0617  -14.6897   19.9039 C   0  0  2  0  0  0  0  0  0  0  0  0
    6.5839  -14.6348   19.5532 C   0  0  0  0  0  0  0  0  0  0  0  0
    8.2994  -15.5911   21.1028 C   0  0  2  0  0  0  0  0  0  0  0  0
    7.5024  -15.1919   22.2389 N   0  0  0  0  0  0  0  0  0  0  0  0
    9.7475  -15.6508   21.4061 C   0  0  0  0  0  0  0  0  0  0  0  0
   10.2929  -15.0422   22.3620 O   0  0  0  0  0  0  0  0  0  0  0  0
   12.7909  -19.8448   23.0165 N   0  0  0  0  0  0  0  0  0  0  0  0
   12.7234  -18.4377   22.8821 C   0  0  0  0  0  0  0  0  0  0  0  0
   13.6784  -17.7191   23.2508 O   0  0  0  0  0  0  0  0  0  0  0  0
   11.5277  -17.7970   22.3061 C   0  0  0  0  0  0  0  0  0  0  0  0
   11.8679  -16.9884   21.0708 C   0  0  2  0  0  0  0  0  0  0  0  0
   10.5920  -16.4377   20.5807 N   0  0  0  0  0  0  0  0  0  0  0  0
   12.5533  -17.7456   20.0249 C   0  0  0  0  0  0  0  0  0  0  0  0
   11.9651  -18.5868   19.3062 O   0  0  0  0  0  0  0  0  0  0  0  0
   13.9158  -17.5618   19.7763 O   0  0  0  0  0  0  0  0  0  0  0  0
  2  1  1  0
  3  2  2  0
  4  3  1  0
  5 11  1  0
  5  4  2  0
  6  7  1  0
  6  5  1  0
  7  8  1  1
  7  9  1  0
  9 10  2  0
 11 12  2  0
 12  2  1  0
 14 16  1  0
 14 13  1  1
 14 15  1  0
 17  9  1  0
 16 17  1  1
 18 16  1  0
 18 19  2  0
 20 21  1  0
 21 23  1  0
 21 22  2  0
 24 23  1  1
 24 25  1  0
 25 18  1  0
 26 24  1  0
 26 28  1  0
 27 26  2  0
M  END
$$$$
