YVN.pdb
     RDKit          3D

 28 28  0  0  1  0  0  0  0  0999 V2000
    5.6238  -10.5381   28.6118 O   0  0  0  0  0  0  0  0  0  0  0  0
    6.2079  -11.4916   27.8003 C   0  0  0  0  0  0  0  0  0  0  0  0
    7.1271  -12.3574   28.3538 C   0  0  0  0  0  0  0  0  0  0  0  0
    7.7204  -13.3160   27.5580 C   0  0  0  0  0  0  0  0  0  0  0  0
    7.4478  -13.4668   26.2189 C   0  0  0  0  0  0  0  0  0  0  0  0
    8.0612  -14.4804   25.3374 C   0  0  0  0  0  0  0  0  0  0  0  0
    7.0327  -15.2695   24.5601 C   0  0  2  0  0  0  0  0  0  0  0  0
    6.5462  -16.3462   25.3727 N   0  0  0  0  0  0  0  0  0  0  0  0
    7.5559  -15.7325   23.2496 C   0  0  0  0  0  0  0  0  0  0  0  0
    7.6403  -16.9610   22.9584 O   0  0  0  0  0  0  0  0  0  0  0  0
    6.5197  -12.5899   25.6676 C   0  0  0  0  0  0  0  0  0  0  0  0
    5.9220  -11.6280   26.4578 C   0  0  0  0  0  0  0  0  0  0  0  0
    6.9873  -13.4323   19.9000 C   0  0  0  0  0  0  0  0  0  0  0  0
    8.3331  -14.1145   19.9186 C   0  0  2  0  0  0  0  0  0  0  0  0
    8.7623  -14.5818   18.5375 C   0  0  0  0  0  0  0  0  0  0  0  0
    8.3832  -15.2588   20.9159 C   0  0  2  0  0  0  0  0  0  0  0  0
    7.9936  -14.8326   22.2395 N   0  0  0  0  0  0  0  0  0  0  0  0
    9.7206  -15.8934   20.8843 C   0  0  0  0  0  0  0  0  0  0  0  0
   10.2267  -16.4202   19.8605 O   0  0  0  0  0  0  0  0  0  0  0  0
   14.6918  -16.7765   21.4152 N   0  0  0  0  0  0  0  0  0  0  0  0
   14.1999  -15.9340   22.4402 C   0  0  0  0  0  0  0  0  0  0  0  0
   14.9365  -15.5998   23.3942 O   0  0  0  0  0  0  0  0  0  0  0  0
   12.8129  -15.4372   22.4002 C   0  0  0  0  0  0  0  0  0  0  0  0
   11.8281  -16.5532   22.1176 C   0  0  2  0  0  0  0  0  0  0  0  0
   10.4981  -15.9204   22.0711 N   0  0  0  0  0  0  0  0  0  0  0  0
   11.8602  -17.6454   23.0887 C   0  0  0  0  0  0  0  0  0  0  0  0
   11.4304  -17.5197   24.2590 O   0  0  0  0  0  0  0  0  0  0  0  0
   12.3793  -18.8974   22.7497 O   0  0  0  0  0  0  0  0  0  0  0  0
  2  1  1  0
  3  2  2  0
  4  3  1  0
  5 11  1  0
  5  4  2  0
  6  7  1  0
  6  5  1  0
  7  8  1  1
  7  9  1  0
  9 10  2  0
 11 12  2  0
 12  2  1  0
 14 16  1  0
 14 13  1  6
 14 15  1  0
 17  9  1  0
 16 17  1  1
 18 16  1  0
 18 19  2  0
 20 21  1  0
 21 23  1  0
 21 22  2  0
 24 23  1  1
 24 25  1  0
 25 18  1  0
 26 24  1  0
 26 28  1  0
 27 26  2  0
M  END
$$$$
