YVN.pdb
     RDKit          3D

 28 28  0  0  1  0  0  0  0  0999 V2000
    5.9914  -10.3353   27.4336 O   0  0  0  0  0  0  0  0  0  0  0  0
    6.4060  -11.6098   27.0978 C   0  0  0  0  0  0  0  0  0  0  0  0
    5.4669  -12.6179   27.0450 C   0  0  0  0  0  0  0  0  0  0  0  0
    5.8634  -13.8968   26.7113 C   0  0  0  0  0  0  0  0  0  0  0  0
    7.1632  -14.2383   26.4217 C   0  0  0  0  0  0  0  0  0  0  0  0
    7.6236  -15.5939   26.0599 C   0  0  0  0  0  0  0  0  0  0  0  0
    6.7189  -16.2618   25.0499 C   0  0  2  0  0  0  0  0  0  0  0  0
    6.1382  -17.4352   25.6348 N   0  0  0  0  0  0  0  0  0  0  0  0
    7.4202  -16.5462   23.7721 C   0  0  0  0  0  0  0  0  0  0  0  0
    7.9818  -17.6580   23.5495 O   0  0  0  0  0  0  0  0  0  0  0  0
    8.1048  -13.2162   26.4771 C   0  0  0  0  0  0  0  0  0  0  0  0
    7.7156  -11.9339   26.8103 C   0  0  0  0  0  0  0  0  0  0  0  0
    8.5504  -13.4404   20.8431 C   0  0  0  0  0  0  0  0  0  0  0  0
    7.9398  -14.7638   20.4519 C   0  0  2  0  0  0  0  0  0  0  0  0
    6.4521  -14.6497   20.1622 C   0  0  0  0  0  0  0  0  0  0  0  0
    8.2082  -15.8470   21.4819 C   0  0  2  0  0  0  0  0  0  0  0  0
    7.5067  -15.5951   22.7187 N   0  0  0  0  0  0  0  0  0  0  0  0
    9.6679  -16.0102   21.6693 C   0  0  0  0  0  0  0  0  0  0  0  0
   10.3920  -15.2005   22.3032 O   0  0  0  0  0  0  0  0  0  0  0  0
   10.8417  -19.3634   23.9884 N   0  0  0  0  0  0  0  0  0  0  0  0
   11.8588  -18.6527   23.3080 C   0  0  0  0  0  0  0  0  0  0  0  0
   12.6872  -17.9658   23.9454 O   0  0  0  0  0  0  0  0  0  0  0  0
   11.9582  -18.7104   21.8387 C   0  0  0  0  0  0  0  0  0  0  0  0
   11.7678  -17.3442   21.2121 C   0  0  2  0  0  0  0  0  0  0  0  0
   10.3117  -17.1435   21.1079 N   0  0  0  0  0  0  0  0  0  0  0  0
   12.4182  -17.1811   19.9131 C   0  0  0  0  0  0  0  0  0  0  0  0
   11.7906  -17.2547   18.8311 O   0  0  0  0  0  0  0  0  0  0  0  0
   13.7896  -16.9317   19.8191 O   0  0  0  0  0  0  0  0  0  0  0  0
  2  1  1  0
  3  2  2  0
  4  3  1  0
  5 11  1  0
  5  4  2  0
  6  7  1  0
  6  5  1  0
  7  8  1  1
  7  9  1  0
  9 10  2  0
 11 12  2  0
 12  2  1  0
 14 16  1  0
 14 13  1  1
 14 15  1  0
 17  9  1  0
 16 17  1  1
 18 16  1  0
 18 19  2  0
 20 21  1  0
 21 23  1  0
 21 22  2  0
 24 23  1  6
 24 25  1  0
 25 18  1  0
 26 24  1  0
 26 28  1  0
 27 26  2  0
M  END
$$$$
