YVN.pdb
     RDKit          3D

 28 28  0  0  1  0  0  0  0  0999 V2000
   10.4564  -14.6468   30.2580 O   0  0  0  0  0  0  0  0  0  0  0  0
   10.3323  -14.7509   28.8859 C   0  0  0  0  0  0  0  0  0  0  0  0
   10.6317  -15.9549   28.2846 C   0  0  0  0  0  0  0  0  0  0  0  0
   10.5132  -16.0768   26.9152 C   0  0  0  0  0  0  0  0  0  0  0  0
   10.1068  -15.0522   26.0935 C   0  0  0  0  0  0  0  0  0  0  0  0
    9.9672  -15.1460   24.6264 C   0  0  0  0  0  0  0  0  0  0  0  0
    8.5249  -15.2594   24.1885 C   0  0  2  0  0  0  0  0  0  0  0  0
    7.8796  -16.2948   24.9419 N   0  0  0  0  0  0  0  0  0  0  0  0
    8.3990  -15.4553   22.7218 C   0  0  0  0  0  0  0  0  0  0  0  0
    8.0592  -16.5666   22.2213 O   0  0  0  0  0  0  0  0  0  0  0  0
    9.8066  -13.8408   26.7071 C   0  0  0  0  0  0  0  0  0  0  0  0
    9.9229  -13.7113   28.0770 C   0  0  0  0  0  0  0  0  0  0  0  0
    9.0867  -12.2212   19.7255 C   0  0  0  0  0  0  0  0  0  0  0  0
    8.0601  -13.3257   19.6686 C   0  0  2  0  0  0  0  0  0  0  0  0
    6.7116  -12.8889   20.2169 C   0  0  0  0  0  0  0  0  0  0  0  0
    8.5395  -14.5913   20.3577 C   0  0  2  0  0  0  0  0  0  0  0  0
    8.6492  -14.4138   21.7866 N   0  0  0  0  0  0  0  0  0  0  0  0
    9.8005  -15.0545   19.7352 C   0  0  0  0  0  0  0  0  0  0  0  0
    9.9766  -15.1603   18.4944 O   0  0  0  0  0  0  0  0  0  0  0  0
   14.2874  -14.9573   17.3763 N   0  0  0  0  0  0  0  0  0  0  0  0
   14.0457  -14.6749   18.7418 C   0  0  0  0  0  0  0  0  0  0  0  0
   14.9990  -14.5517   19.5420 O   0  0  0  0  0  0  0  0  0  0  0  0
   12.6680  -14.5215   19.2423 C   0  0  0  0  0  0  0  0  0  0  0  0
   12.2182  -15.7404   20.0216 C   0  0  2  0  0  0  0  0  0  0  0  0
   10.8924  -15.4060   20.5707 N   0  0  0  0  0  0  0  0  0  0  0  0
   13.1394  -16.1534   21.0788 C   0  0  0  0  0  0  0  0  0  0  0  0
   14.3332  -16.4588   20.8514 O   0  0  0  0  0  0  0  0  0  0  0  0
   12.7233  -16.2268   22.4105 O   0  0  0  0  0  0  0  0  0  0  0  0
  2  1  1  0
  3  2  2  0
  4  3  1  0
  5 11  1  0
  5  4  2  0
  6  7  1  0
  6  5  1  0
  7  8  1  1
  7  9  1  0
  9 10  2  0
 11 12  2  0
 12  2  1  0
 14 16  1  0
 14 13  1  1
 14 15  1  0
 17  9  1  0
 16 17  1  1
 18 16  1  0
 18 19  2  0
 20 21  1  0
 21 23  1  0
 21 22  2  0
 24 23  1  1
 24 25  1  0
 25 18  1  0
 26 24  1  0
 26 28  1  0
 27 26  2  0
M  END
$$$$
