YVN.pdb
     RDKit          3D

 28 28  0  0  1  0  0  0  0  0999 V2000
    9.3321  -12.3387   18.2725 O   0  0  0  0  0  0  0  0  0  0  0  0
    8.5247  -13.0366   19.1500 C   0  0  0  0  0  0  0  0  0  0  0  0
    8.2598  -14.3646   18.8908 C   0  0  0  0  0  0  0  0  0  0  0  0
    7.4553  -15.0770   19.7565 C   0  0  0  0  0  0  0  0  0  0  0  0
    6.8883  -14.5359   20.8861 C   0  0  0  0  0  0  0  0  0  0  0  0
    6.0246  -15.2667   21.8350 C   0  0  0  0  0  0  0  0  0  0  0  0
    6.8053  -16.2165   22.7143 C   0  0  2  0  0  0  0  0  0  0  0  0
    5.8945  -17.0847   23.4020 N   0  0  0  0  0  0  0  0  0  0  0  0
    7.7205  -15.4994   23.6382 C   0  0  0  0  0  0  0  0  0  0  0  0
    8.8611  -15.0936   23.2699 O   0  0  0  0  0  0  0  0  0  0  0  0
    7.1598  -13.1959   21.1409 C   0  0  0  0  0  0  0  0  0  0  0  0
    7.9640  -12.4766   20.2790 C   0  0  0  0  0  0  0  0  0  0  0  0
    6.5258  -13.9181   27.5480 C   0  0  0  0  0  0  0  0  0  0  0  0
    7.7031  -13.4960   26.7036 C   0  0  2  0  0  0  0  0  0  0  0  0
    7.3578  -12.3544   25.7614 C   0  0  0  0  0  0  0  0  0  0  0  0
    8.3101  -14.6608   25.9413 C   0  0  2  0  0  0  0  0  0  0  0  0
    7.3792  -15.2213   24.9902 N   0  0  0  0  0  0  0  0  0  0  0  0
    8.8358  -15.6646   26.8946 C   0  0  0  0  0  0  0  0  0  0  0  0
    8.1129  -16.4389   27.5725 O   0  0  0  0  0  0  0  0  0  0  0  0
   10.8955  -18.1743   25.6635 N   0  0  0  0  0  0  0  0  0  0  0  0
   12.1454  -17.8082   26.2169 C   0  0  0  0  0  0  0  0  0  0  0  0
   13.2100  -18.1173   25.6379 O   0  0  0  0  0  0  0  0  0  0  0  0
   12.2125  -17.0574   27.4833 C   0  0  0  0  0  0  0  0  0  0  0  0
   10.8310  -16.7393   28.0178 C   0  0  2  0  0  0  0  0  0  0  0  0
   10.2393  -15.7783   27.0703 N   0  0  0  0  0  0  0  0  0  0  0  0
   10.8190  -16.2128   29.3815 C   0  0  0  0  0  0  0  0  0  0  0  0
   10.7426  -14.9871   29.6301 O   0  0  0  0  0  0  0  0  0  0  0  0
   10.8930  -17.0663   30.4851 O   0  0  0  0  0  0  0  0  0  0  0  0
  2  1  1  0
  3  2  2  0
  4  3  1  0
  5 11  1  0
  5  4  2  0
  6  7  1  0
  6  5  1  0
  7  8  1  1
  7  9  1  0
  9 10  2  0
 11 12  2  0
 12  2  1  0
 14 16  1  0
 14 13  1  6
 14 15  1  0
 17  9  1  0
 16 17  1  1
 18 16  1  0
 18 19  2  0
 20 21  1  0
 21 23  1  0
 21 22  2  0
 24 23  1  6
 24 25  1  0
 25 18  1  0
 26 24  1  0
 26 28  1  0
 27 26  2  0
M  END
$$$$
