YVN.pdb
     RDKit          3D

 28 28  0  0  1  0  0  0  0  0999 V2000
   10.5390  -18.6343   29.2434 O   0  0  0  0  0  0  0  0  0  0  0  0
    9.4460  -18.3951   28.4328 C   0  0  0  0  0  0  0  0  0  0  0  0
    9.3660  -17.1887   27.7701 C   0  0  0  0  0  0  0  0  0  0  0  0
    8.2814  -16.9329   26.9562 C   0  0  0  0  0  0  0  0  0  0  0  0
    7.2526  -17.8233   26.7590 C   0  0  0  0  0  0  0  0  0  0  0  0
    6.0784  -17.5850   25.8958 C   0  0  0  0  0  0  0  0  0  0  0  0
    6.1463  -18.3602   24.5999 C   0  0  2  0  0  0  0  0  0  0  0  0
    6.4144  -19.7397   24.8849 N   0  0  0  0  0  0  0  0  0  0  0  0
    7.1217  -17.7725   23.6467 C   0  0  0  0  0  0  0  0  0  0  0  0
    8.0619  -18.4546   23.1449 O   0  0  0  0  0  0  0  0  0  0  0  0
    7.3402  -19.0379   27.4307 C   0  0  0  0  0  0  0  0  0  0  0  0
    8.4225  -19.3010   28.2470 C   0  0  0  0  0  0  0  0  0  0  0  0
    8.3355  -13.9907   20.6128 C   0  0  0  0  0  0  0  0  0  0  0  0
    7.4702  -14.5176   21.7312 C   0  0  2  0  0  0  0  0  0  0  0  0
    7.2852  -13.5008   22.8456 C   0  0  0  0  0  0  0  0  0  0  0  0
    7.9843  -15.8360   22.2825 C   0  0  2  0  0  0  0  0  0  0  0  0
    7.0649  -16.4126   23.2352 N   0  0  0  0  0  0  0  0  0  0  0  0
    9.3464  -15.6523   22.8333 C   0  0  0  0  0  0  0  0  0  0  0  0
    9.5861  -15.2650   24.0056 O   0  0  0  0  0  0  0  0  0  0  0  0
   11.8685  -18.5528   21.5931 N   0  0  0  0  0  0  0  0  0  0  0  0
   11.7143  -18.3660   22.9874 C   0  0  0  0  0  0  0  0  0  0  0  0
   11.4398  -19.3342   23.7301 O   0  0  0  0  0  0  0  0  0  0  0  0
   11.8744  -17.0289   23.5861 C   0  0  0  0  0  0  0  0  0  0  0  0
   11.8417  -15.9388   22.5345 C   0  0  2  0  0  0  0  0  0  0  0  0
   10.4664  -15.9246   22.0055 N   0  0  0  0  0  0  0  0  0  0  0  0
   12.8192  -16.1077   21.4608 C   0  0  0  0  0  0  0  0  0  0  0  0
   14.0511  -16.1850   21.6768 O   0  0  0  0  0  0  0  0  0  0  0  0
   12.4171  -16.1922   20.1255 O   0  0  0  0  0  0  0  0  0  0  0  0
  2  1  1  0
  3  2  2  0
  4  3  1  0
  5 11  1  0
  5  4  2  0
  6  7  1  0
  6  5  1  0
  7  8  1  1
  7  9  1  0
  9 10  2  0
 11 12  2  0
 12  2  1  0
 14 16  1  0
 14 13  1  6
 14 15  1  0
 17  9  1  0
 16 17  1  1
 18 16  1  0
 18 19  2  0
 20 21  1  0
 21 23  1  0
 21 22  2  0
 24 23  1  1
 24 25  1  0
 25 18  1  0
 26 24  1  0
 26 28  1  0
 27 26  2  0
M  END
$$$$
