YVN.pdb
     RDKit          3D

 28 28  0  0  1  0  0  0  0  0999 V2000
    6.8905  -10.3976   27.4070 O   0  0  0  0  0  0  0  0  0  0  0  0
    6.9276  -11.7412   27.0869 C   0  0  0  0  0  0  0  0  0  0  0  0
    8.1537  -12.3400   26.8897 C   0  0  0  0  0  0  0  0  0  0  0  0
    8.2094  -13.6811   26.5694 C   0  0  0  0  0  0  0  0  0  0  0  0
    7.0964  -14.4763   26.4312 C   0  0  0  0  0  0  0  0  0  0  0  0
    7.1175  -15.9132   26.0912 C   0  0  0  0  0  0  0  0  0  0  0  0
    7.7841  -16.1833   24.7617 C   0  0  2  0  0  0  0  0  0  0  0  0
    9.1573  -15.7757   24.8271 N   0  0  0  0  0  0  0  0  0  0  0  0
    7.0537  -15.5551   23.6315 C   0  0  0  0  0  0  0  0  0  0  0  0
    6.4422  -14.4546   23.7584 O   0  0  0  0  0  0  0  0  0  0  0  0
    5.8633  -13.8653   26.6315 C   0  0  0  0  0  0  0  0  0  0  0  0
    5.7996  -12.5237   26.9523 C   0  0  0  0  0  0  0  0  0  0  0  0
    7.9781  -13.6026   19.7291 C   0  0  0  0  0  0  0  0  0  0  0  0
    7.5837  -14.1143   21.0928 C   0  0  2  0  0  0  0  0  0  0  0  0
    8.3493  -13.4261   22.2110 C   0  0  0  0  0  0  0  0  0  0  0  0
    7.7125  -15.6238   21.1992 C   0  0  2  0  0  0  0  0  0  0  0  0
    6.9932  -16.1434   22.3384 N   0  0  0  0  0  0  0  0  0  0  0  0
    9.1429  -16.0065   21.1963 C   0  0  0  0  0  0  0  0  0  0  0  0
   10.0287  -15.4273   21.8756 O   0  0  0  0  0  0  0  0  0  0  0  0
   12.9448  -19.9607   21.9554 N   0  0  0  0  0  0  0  0  0  0  0  0
   12.2518  -19.6331   20.7658 C   0  0  0  0  0  0  0  0  0  0  0  0
   12.7623  -19.8704   19.6489 O   0  0  0  0  0  0  0  0  0  0  0  0
   10.9186  -19.0076   20.8238 C   0  0  0  0  0  0  0  0  0  0  0  0
   10.9602  -17.5616   20.3737 C   0  0  2  0  0  0  0  0  0  0  0  0
    9.5637  -17.0916   20.3844 N   0  0  0  0  0  0  0  0  0  0  0  0
   11.5773  -17.3556   19.0646 C   0  0  0  0  0  0  0  0  0  0  0  0
   12.8059  -17.1542   18.9228 O   0  0  0  0  0  0  0  0  0  0  0  0
   10.8128  -17.3746   17.8954 O   0  0  0  0  0  0  0  0  0  0  0  0
  2  1  1  0
  3  2  2  0
  4  3  1  0
  5 11  1  0
  5  4  2  0
  6  7  1  0
  6  5  1  0
  7  8  1  1
  7  9  1  0
  9 10  2  0
 11 12  2  0
 12  2  1  0
 14 16  1  0
 14 13  1  6
 14 15  1  0
 17  9  1  0
 16 17  1  1
 18 16  1  0
 18 19  2  0
 20 21  1  0
 21 23  1  0
 21 22  2  0
 24 23  1  6
 24 25  1  0
 25 18  1  0
 26 24  1  0
 26 28  1  0
 27 26  2  0
M  END
$$$$
