YVN.pdb
     RDKit          3D

 28 28  0  0  1  0  0  0  0  0999 V2000
    6.6880  -20.5021   29.8717 O   0  0  0  0  0  0  0  0  0  0  0  0
    6.7345  -20.4234   28.4931 C   0  0  0  0  0  0  0  0  0  0  0  0
    5.8906  -21.2269   27.7563 C   0  0  0  0  0  0  0  0  0  0  0  0
    5.9235  -21.1613   26.3783 C   0  0  0  0  0  0  0  0  0  0  0  0
    6.7623  -20.3277   25.6771 C   0  0  0  0  0  0  0  0  0  0  0  0
    6.8244  -20.2295   24.2050 C   0  0  0  0  0  0  0  0  0  0  0  0
    5.9819  -19.0968   23.6647 C   0  0  2  0  0  0  0  0  0  0  0  0
    4.9572  -19.6301   22.8150 N   0  0  0  0  0  0  0  0  0  0  0  0
    6.8039  -18.0608   22.9892 C   0  0  0  0  0  0  0  0  0  0  0  0
    7.0396  -18.0980   21.7466 O   0  0  0  0  0  0  0  0  0  0  0  0
    7.6107  -19.5202   26.4270 C   0  0  0  0  0  0  0  0  0  0  0  0
    7.5834  -19.5804   27.8063 C   0  0  0  0  0  0  0  0  0  0  0  0
    8.2257  -14.3952   24.9520 C   0  0  0  0  0  0  0  0  0  0  0  0
    8.1578  -14.6484   23.4659 C   0  0  2  0  0  0  0  0  0  0  0  0
    6.8581  -14.1512   22.8546 C   0  0  0  0  0  0  0  0  0  0  0  0
    8.3934  -16.1085   23.1208 C   0  0  2  0  0  0  0  0  0  0  0  0
    7.3772  -16.9633   23.6883 N   0  0  0  0  0  0  0  0  0  0  0  0
    9.7651  -16.5021   23.5157 C   0  0  0  0  0  0  0  0  0  0  0  0
   10.0429  -17.1250   24.5724 O   0  0  0  0  0  0  0  0  0  0  0  0
   13.5864  -17.4913   19.6283 N   0  0  0  0  0  0  0  0  0  0  0  0
   13.5565  -17.4314   21.0419 C   0  0  0  0  0  0  0  0  0  0  0  0
   13.9635  -18.3961   21.7260 O   0  0  0  0  0  0  0  0  0  0  0  0
   13.0458  -16.2324   21.7300 C   0  0  0  0  0  0  0  0  0  0  0  0
   12.2294  -16.5958   22.9533 C   0  0  2  0  0  0  0  0  0  0  0  0
   10.8497  -16.1669   22.6641 N   0  0  0  0  0  0  0  0  0  0  0  0
   12.7160  -16.0064   24.1994 C   0  0  0  0  0  0  0  0  0  0  0  0
   13.6916  -16.4750   24.8309 O   0  0  0  0  0  0  0  0  0  0  0  0
   12.1055  -14.8767   24.7499 O   0  0  0  0  0  0  0  0  0  0  0  0
  2  1  1  0
  3  2  2  0
  4  3  1  0
  5 11  1  0
  5  4  2  0
  6  7  1  0
  6  5  1  0
  7  8  1  6
  7  9  1  0
  9 10  2  0
 11 12  2  0
 12  2  1  0
 14 16  1  0
 14 13  1  1
 14 15  1  0
 17  9  1  0
 16 17  1  1
 18 16  1  0
 18 19  2  0
 20 21  1  0
 21 23  1  0
 21 22  2  0
 24 23  1  6
 24 25  1  0
 25 18  1  0
 26 24  1  0
 26 28  1  0
 27 26  2  0
M  END
$$$$
