YVN.pdb
     RDKit          3D

 28 28  0  0  1  0  0  0  0  0999 V2000
    8.6316  -10.9438   18.2479 O   0  0  0  0  0  0  0  0  0  0  0  0
    8.3117  -12.1967   18.7346 C   0  0  0  0  0  0  0  0  0  0  0  0
    8.9852  -13.2913   18.2358 C   0  0  0  0  0  0  0  0  0  0  0  0
    8.6786  -14.5502   18.7106 C   0  0  0  0  0  0  0  0  0  0  0  0
    7.7236  -14.7886   19.6704 C   0  0  0  0  0  0  0  0  0  0  0  0
    7.3699  -16.1197   20.2029 C   0  0  0  0  0  0  0  0  0  0  0  0
    8.3804  -16.6291   21.2049 C   0  0  2  0  0  0  0  0  0  0  0  0
    8.1130  -18.0087   21.4901 N   0  0  0  0  0  0  0  0  0  0  0  0
    8.4264  -15.7899   22.4294 C   0  0  0  0  0  0  0  0  0  0  0  0
    8.6187  -14.5403   22.3781 O   0  0  0  0  0  0  0  0  0  0  0  0
    7.0483  -13.6796   20.1688 C   0  0  0  0  0  0  0  0  0  0  0  0
    7.3497  -12.4167   19.6985 C   0  0  0  0  0  0  0  0  0  0  0  0
    7.0928  -13.6127   23.6066 C   0  0  0  0  0  0  0  0  0  0  0  0
    6.9239  -14.5537   24.7742 C   0  0  2  0  0  0  0  0  0  0  0  0
    6.6724  -13.8153   26.0787 C   0  0  0  0  0  0  0  0  0  0  0  0
    8.0933  -15.5126   24.9128 C   0  0  2  0  0  0  0  0  0  0  0  0
    8.2577  -16.3301   23.7338 N   0  0  0  0  0  0  0  0  0  0  0  0
    7.9442  -16.3097   26.1516 C   0  0  0  0  0  0  0  0  0  0  0  0
    7.7161  -15.8147   27.2850 O   0  0  0  0  0  0  0  0  0  0  0  0
    6.6910  -20.4703   29.1434 N   0  0  0  0  0  0  0  0  0  0  0  0
    7.1539  -20.8569   27.8632 C   0  0  0  0  0  0  0  0  0  0  0  0
    7.4662  -22.0462   27.6346 O   0  0  0  0  0  0  0  0  0  0  0  0
    7.2754  -19.8651   26.7799 C   0  0  0  0  0  0  0  0  0  0  0  0
    7.9086  -18.5786   27.2692 C   0  0  2  0  0  0  0  0  0  0  0  0
    8.0615  -17.7222   26.0799 N   0  0  0  0  0  0  0  0  0  0  0  0
    9.1851  -18.7592   27.9582 C   0  0  0  0  0  0  0  0  0  0  0  0
    9.3029  -19.4692   28.9840 O   0  0  0  0  0  0  0  0  0  0  0  0
   10.3486  -18.1389   27.4962 O   0  0  0  0  0  0  0  0  0  0  0  0
  2  1  1  0
  3  2  2  0
  4  3  1  0
  5 11  1  0
  5  4  2  0
  6  7  1  0
  6  5  1  0
  7  8  1  1
  7  9  1  0
  9 10  2  0
 11 12  2  0
 12  2  1  0
 14 16  1  0
 14 13  1  6
 14 15  1  0
 17  9  1  0
 16 17  1  6
 18 16  1  0
 18 19  2  0
 20 21  1  0
 21 23  1  0
 21 22  2  0
 24 23  1  6
 24 25  1  0
 25 18  1  0
 26 24  1  0
 26 28  1  0
 27 26  2  0
M  END
$$$$
