YVN.pdb
     RDKit          3D

 28 28  0  0  1  0  0  0  0  0999 V2000
    8.0920  -18.6489   16.2034 O   0  0  0  0  0  0  0  0  0  0  0  0
    7.8783  -18.0758   17.4423 C   0  0  0  0  0  0  0  0  0  0  0  0
    6.6514  -17.5035   17.7030 C   0  0  0  0  0  0  0  0  0  0  0  0
    6.4205  -16.9266   18.9351 C   0  0  0  0  0  0  0  0  0  0  0  0
    7.3558  -16.8847   19.9419 C   0  0  0  0  0  0  0  0  0  0  0  0
    7.1443  -16.2780   21.2714 C   0  0  0  0  0  0  0  0  0  0  0  0
    7.5552  -14.8241   21.3158 C   0  0  2  0  0  0  0  0  0  0  0  0
    8.3006  -14.5046   20.1333 N   0  0  0  0  0  0  0  0  0  0  0  0
    8.2880  -14.4874   22.5629 C   0  0  0  0  0  0  0  0  0  0  0  0
    9.5490  -14.5600   22.6390 O   0  0  0  0  0  0  0  0  0  0  0  0
    8.5910  -17.4639   19.6715 C   0  0  0  0  0  0  0  0  0  0  0  0
    8.8294  -18.0431   18.4408 C   0  0  0  0  0  0  0  0  0  0  0  0
    8.3956  -12.4275   27.0795 C   0  0  0  0  0  0  0  0  0  0  0  0
    7.6111  -12.7824   25.8402 C   0  0  2  0  0  0  0  0  0  0  0  0
    6.1881  -13.2097   26.1607 C   0  0  0  0  0  0  0  0  0  0  0  0
    8.3135  -13.8321   24.9970 C   0  0  2  0  0  0  0  0  0  0  0  0
    7.6267  -14.0625   23.7478 N   0  0  0  0  0  0  0  0  0  0  0  0
    8.5007  -15.0689   25.7893 C   0  0  0  0  0  0  0  0  0  0  0  0
    7.5586  -15.8048   26.1801 O   0  0  0  0  0  0  0  0  0  0  0  0
   12.1083  -16.9297   23.9050 N   0  0  0  0  0  0  0  0  0  0  0  0
   11.1646  -17.4893   24.7987 C   0  0  0  0  0  0  0  0  0  0  0  0
   10.1859  -18.1356   24.3643 O   0  0  0  0  0  0  0  0  0  0  0  0
   11.3198  -17.3198   26.2544 C   0  0  0  0  0  0  0  0  0  0  0  0
   10.0802  -16.7152   26.8814 C   0  0  2  0  0  0  0  0  0  0  0  0
    9.8160  -15.4689   26.1410 N   0  0  0  0  0  0  0  0  0  0  0  0
   10.1926  -16.4636   28.3170 C   0  0  0  0  0  0  0  0  0  0  0  0
   10.2585  -15.3074   28.7956 O   0  0  0  0  0  0  0  0  0  0  0  0
   10.2319  -17.5174   29.2335 O   0  0  0  0  0  0  0  0  0  0  0  0
  2  1  1  0
  3  2  2  0
  4  3  1  0
  5 11  1  0
  5  4  2  0
  6  7  1  0
  6  5  1  0
  7  8  1  6
  7  9  1  0
  9 10  2  0
 11 12  2  0
 12  2  1  0
 14 16  1  0
 14 13  1  1
 14 15  1  0
 17  9  1  0
 16 17  1  6
 18 16  1  0
 18 19  2  0
 20 21  1  0
 21 23  1  0
 21 22  2  0
 24 23  1  6
 24 25  1  0
 25 18  1  0
 26 24  1  0
 26 28  1  0
 27 26  2  0
M  END
$$$$
