GWP.pdb
     RDKit          3D

 26 28  0  0  1  0  0  0  0  0999 V2000
    4.6739  -20.1683   23.2771 N   0  0  0  0  0  0  0  0  0  0  0  0
    6.0408  -19.7302   23.0311 C   0  0  0  0  0  0  0  0  0  0  0  0
    6.1080  -18.2661   22.9682 C   0  0  0  0  0  0  0  0  0  0  0  0
    5.2315  -17.6515   22.3198 O   0  0  0  0  0  0  0  0  0  0  0  0
    7.1690  -17.5620   23.6452 N   0  0  0  0  0  0  0  0  0  0  0  0
    7.5278  -16.2537   23.2886 C   0  0  1  0  0  0  0  0  0  0  0  0
    8.3988  -15.5437   24.3352 C   0  0  0  0  0  0  0  0  0  0  0  0
    7.4791  -14.8352   25.2543 C   0  0  0  0  0  0  0  0  0  0  0  0
    6.3627  -15.3946   25.8545 C   0  0  0  0  0  0  0  0  0  0  0  0
    5.7951  -14.4781   26.6503 N   0  0  0  0  0  0  0  0  0  0  0  0
    6.4998  -13.3213   26.5986 C   0  0  0  0  0  0  0  0  0  0  0  0
    6.3389  -12.0948   27.2076 C   0  0  0  0  0  0  0  0  0  0  0  0
    7.2349  -11.0843   26.9407 C   0  0  0  0  0  0  0  0  0  0  0  0
    8.2926  -11.2627   26.0789 C   0  0  0  0  0  0  0  0  0  0  0  0
    8.4382  -12.5027   25.4765 C   0  0  0  0  0  0  0  0  0  0  0  0
    7.5619  -13.5518   25.7151 C   0  0  0  0  0  0  0  0  0  0  0  0
    8.2406  -16.1331   22.0207 C   0  0  0  0  0  0  0  0  0  0  0  0
    8.7401  -17.2544   21.5361 O   0  0  0  0  0  0  0  0  0  0  0  0
    8.4676  -14.9947   21.2483 N   0  0  0  0  0  0  0  0  0  0  0  0
    8.1235  -13.6351   21.7068 C   0  0  0  0  0  0  0  0  0  0  0  0
    7.9748  -12.8034   20.4727 C   0  0  0  0  0  0  0  0  0  0  0  0
    8.1329  -13.7660   19.3197 C   0  0  0  0  0  0  0  0  0  0  0  0
    9.0099  -14.8531   19.9458 C   0  0  1  0  0  0  0  0  0  0  0  0
   10.4341  -14.4250   19.9390 C   0  0  0  0  0  0  0  0  0  0  0  0
   10.9888  -14.3380   18.8133 O   0  0  0  0  0  0  0  0  0  0  0  0
   11.1803  -14.1217   21.0476 O   0  0  0  0  0  0  0  0  0  0  0  0
  2  1  1  0
  3  2  1  0
  4  3  2  0
  5  3  1  0
  6  5  1  0
  7  8  1  0
  6  7  1  1
  8  9  2  0
 10  9  1  0
 11 10  1  0
 12 11  2  0
 13 12  1  0
 14 15  1  0
 14 13  2  0
 15 16  2  0
 16 11  1  0
 16  8  1  0
 17 19  1  0
 17  6  1  0
 18 17  2  0
 19 20  1  0
 21 20  1  0
 22 21  1  0
 23 19  1  0
 23 22  1  0
 24 26  1  0
 23 24  1  1
 25 24  2  0
M  END
$$$$
