GWP.pdb
     RDKit          3D

 26 28  0  0  1  0  0  0  0  0999 V2000
    4.9412  -19.9921   23.4862 N   0  0  0  0  0  0  0  0  0  0  0  0
    6.0645  -19.5255   22.6855 C   0  0  0  0  0  0  0  0  0  0  0  0
    6.1018  -18.0592   22.6571 C   0  0  0  0  0  0  0  0  0  0  0  0
    5.1511  -17.4440   22.1240 O   0  0  0  0  0  0  0  0  0  0  0  0
    7.2184  -17.3537   23.2361 N   0  0  0  0  0  0  0  0  0  0  0  0
    7.5344  -16.0404   22.8581 C   0  0  1  0  0  0  0  0  0  0  0  0
    8.3885  -15.2881   23.8889 C   0  0  0  0  0  0  0  0  0  0  0  0
    7.4753  -14.8475   24.9681 C   0  0  0  0  0  0  0  0  0  0  0  0
    6.5821  -15.6652   25.6414 C   0  0  0  0  0  0  0  0  0  0  0  0
    5.9529  -14.9402   26.5763 N   0  0  0  0  0  0  0  0  0  0  0  0
    6.3996  -13.6607   26.5468 C   0  0  0  0  0  0  0  0  0  0  0  0
    6.0788  -12.5362   27.2775 C   0  0  0  0  0  0  0  0  0  0  0  0
    6.7120  -11.3458   26.9997 C   0  0  0  0  0  0  0  0  0  0  0  0
    7.6610  -11.2438   26.0086 C   0  0  0  0  0  0  0  0  0  0  0  0
    7.9704  -12.3851   25.2851 C   0  0  0  0  0  0  0  0  0  0  0  0
    7.3603  -13.6072   25.5290 C   0  0  0  0  0  0  0  0  0  0  0  0
    8.2362  -15.9168   21.5845 C   0  0  0  0  0  0  0  0  0  0  0  0
    8.7067  -17.0413   21.0788 O   0  0  0  0  0  0  0  0  0  0  0  0
    8.4792  -14.7725   20.8256 N   0  0  0  0  0  0  0  0  0  0  0  0
    8.1950  -13.4108   21.3180 C   0  0  0  0  0  0  0  0  0  0  0  0
    8.0387  -12.5519   20.1036 C   0  0  0  0  0  0  0  0  0  0  0  0
    8.1303  -13.4978   18.9296 C   0  0  0  0  0  0  0  0  0  0  0  0
    8.9877  -14.6251   19.5102 C   0  0  1  0  0  0  0  0  0  0  0  0
   10.4248  -14.2448   19.4685 C   0  0  0  0  0  0  0  0  0  0  0  0
   10.9213  -13.8081   20.5387 O   0  0  0  0  0  0  0  0  0  0  0  0
   11.2406  -14.3313   18.3708 O   0  0  0  0  0  0  0  0  0  0  0  0
  2  1  1  0
  3  2  1  0
  4  3  2  0
  5  3  1  0
  6  5  1  0
  7  8  1  0
  6  7  1  1
  8  9  2  0
 10  9  1  0
 11 10  1  0
 12 11  2  0
 13 12  1  0
 14 15  1  0
 14 13  2  0
 15 16  2  0
 16 11  1  0
 16  8  1  0
 17 19  1  0
 17  6  1  0
 18 17  2  0
 19 20  1  0
 21 20  1  0
 22 21  1  0
 23 19  1  0
 23 22  1  0
 24 26  1  0
 23 24  1  1
 25 24  2  0
M  END
$$$$
