GWP.pdb
     RDKit          3D

 26 28  0  0  1  0  0  0  0  0999 V2000
    5.9410  -19.8449   25.0317 N   0  0  0  0  0  0  0  0  0  0  0  0
    6.9069  -19.1600   24.1839 C   0  0  0  0  0  0  0  0  0  0  0  0
    6.5061  -17.7649   23.9711 C   0  0  0  0  0  0  0  0  0  0  0  0
    5.3794  -17.5317   23.4785 O   0  0  0  0  0  0  0  0  0  0  0  0
    7.4031  -16.6933   24.3273 N   0  0  0  0  0  0  0  0  0  0  0  0
    7.4966  -15.5255   23.5560 C   0  0  1  0  0  0  0  0  0  0  0  0
    8.1796  -14.3572   24.2818 C   0  0  0  0  0  0  0  0  0  0  0  0
    8.0025  -14.5875   25.7338 C   0  0  0  0  0  0  0  0  0  0  0  0
    6.8801  -15.1477   26.3221 C   0  0  0  0  0  0  0  0  0  0  0  0
    7.0857  -15.2408   27.6430 N   0  0  0  0  0  0  0  0  0  0  0  0
    8.3134  -14.7579   27.9546 C   0  0  0  0  0  0  0  0  0  0  0  0
    8.9945  -14.6203   29.1455 C   0  0  0  0  0  0  0  0  0  0  0  0
   10.2559  -14.0687   29.1433 C   0  0  0  0  0  0  0  0  0  0  0  0
   10.8608  -13.6480   27.9813 C   0  0  0  0  0  0  0  0  0  0  0  0
   10.1605  -13.7949   26.7940 C   0  0  0  0  0  0  0  0  0  0  0  0
    8.8879  -14.3459   26.7456 C   0  0  0  0  0  0  0  0  0  0  0  0
    8.2000  -15.6791   22.2864 C   0  0  0  0  0  0  0  0  0  0  0  0
    8.6977  -16.8782   22.0494 O   0  0  0  0  0  0  0  0  0  0  0  0
    8.4197  -14.7325   21.2866 N   0  0  0  0  0  0  0  0  0  0  0  0
    8.2054  -13.2871   21.4923 C   0  0  0  0  0  0  0  0  0  0  0  0
    7.9881  -12.6997   20.1342 C   0  0  0  0  0  0  0  0  0  0  0  0
    7.9740  -13.8759   19.1868 C   0  0  0  0  0  0  0  0  0  0  0  0
    8.8399  -14.8878   19.9412 C   0  0  1  0  0  0  0  0  0  0  0  0
   10.2801  -14.5829   19.7303 C   0  0  0  0  0  0  0  0  0  0  0  0
   10.8615  -13.9537   20.6514 O   0  0  0  0  0  0  0  0  0  0  0  0
   11.0145  -14.9286   18.6261 O   0  0  0  0  0  0  0  0  0  0  0  0
  2  1  1  0
  3  2  1  0
  4  3  2  0
  5  3  1  0
  6  5  1  0
  7  8  1  0
  6  7  1  1
  8  9  2  0
 10  9  1  0
 11 10  1  0
 12 11  2  0
 13 12  1  0
 14 15  1  0
 14 13  2  0
 15 16  2  0
 16 11  1  0
 16  8  1  0
 17 19  1  0
 17  6  1  0
 18 17  2  0
 19 20  1  0
 21 20  1  0
 22 21  1  0
 23 19  1  0
 23 22  1  0
 24 26  1  0
 23 24  1  1
 25 24  2  0
M  END
$$$$
