GWP.pdb
     RDKit          3D

 26 28  0  0  1  0  0  0  0  0999 V2000
    4.7703  -20.0852   23.2281 N   0  0  0  0  0  0  0  0  0  0  0  0
    6.0643  -19.6370   22.7326 C   0  0  0  0  0  0  0  0  0  0  0  0
    6.1175  -18.1717   22.6858 C   0  0  0  0  0  0  0  0  0  0  0  0
    5.2127  -17.5565   22.0780 O   0  0  0  0  0  0  0  0  0  0  0  0
    7.1971  -17.4671   23.3321 N   0  0  0  0  0  0  0  0  0  0  0  0
    7.5393  -16.1555   22.9714 C   0  0  1  0  0  0  0  0  0  0  0  0
    8.4139  -15.4363   24.0088 C   0  0  0  0  0  0  0  0  0  0  0  0
    7.5017  -14.8924   25.0407 C   0  0  0  0  0  0  0  0  0  0  0  0
    6.5752  -15.6324   25.7574 C   0  0  0  0  0  0  0  0  0  0  0  0
    5.9576  -14.8238   26.6293 N   0  0  0  0  0  0  0  0  0  0  0  0
    6.4443  -13.5637   26.5153 C   0  0  0  0  0  0  0  0  0  0  0  0
    6.1499  -12.3807   27.1596 C   0  0  0  0  0  0  0  0  0  0  0  0
    6.8233  -11.2329   26.8071 C   0  0  0  0  0  0  0  0  0  0  0  0
    7.7870  -11.2307   25.8251 C   0  0  0  0  0  0  0  0  0  0  0  0
    8.0695  -12.4297   25.1890 C   0  0  0  0  0  0  0  0  0  0  0  0
    7.4186  -13.6122   25.5103 C   0  0  0  0  0  0  0  0  0  0  0  0
    8.2380  -16.0285   21.6963 C   0  0  0  0  0  0  0  0  0  0  0  0
    8.6340  -17.1605   21.1455 O   0  0  0  0  0  0  0  0  0  0  0  0
    8.5458  -14.8742   20.9774 N   0  0  0  0  0  0  0  0  0  0  0  0
    8.3866  -13.5176   21.5356 C   0  0  0  0  0  0  0  0  0  0  0  0
    8.2592  -12.5963   20.3643 C   0  0  0  0  0  0  0  0  0  0  0  0
    8.2372  -13.4937   19.1496 C   0  0  0  0  0  0  0  0  0  0  0  0
    9.0211  -14.7087   19.6517 C   0  0  1  0  0  0  0  0  0  0  0  0
   10.4817  -14.4398   19.5740 C   0  0  0  0  0  0  0  0  0  0  0  0
   10.9773  -14.3599   18.4205 O   0  0  0  0  0  0  0  0  0  0  0  0
   11.3197  -14.2743   20.6456 O   0  0  0  0  0  0  0  0  0  0  0  0
  2  1  1  0
  3  2  1  0
  4  3  2  0
  5  3  1  0
  6  5  1  0
  7  8  1  0
  6  7  1  1
  8  9  2  0
 10  9  1  0
 11 10  1  0
 12 11  2  0
 13 12  1  0
 14 15  1  0
 14 13  2  0
 15 16  2  0
 16 11  1  0
 16  8  1  0
 17 19  1  0
 17  6  1  0
 18 17  2  0
 19 20  1  0
 21 20  1  0
 22 21  1  0
 23 19  1  0
 23 22  1  0
 24 26  1  0
 23 24  1  1
 25 24  2  0
M  END
$$$$
