GWP.pdb
     RDKit          3D

 26 28  0  0  1  0  0  0  0  0999 V2000
    4.6344  -20.8085   23.5348 N   0  0  0  0  0  0  0  0  0  0  0  0
    5.9959  -20.3352   23.7421 C   0  0  0  0  0  0  0  0  0  0  0  0
    6.0532  -18.8729   23.6390 C   0  0  0  0  0  0  0  0  0  0  0  0
    5.2408  -18.2913   22.8853 O   0  0  0  0  0  0  0  0  0  0  0  0
    7.0317  -18.1332   24.3973 N   0  0  0  0  0  0  0  0  0  0  0  0
    7.4328  -16.8431   24.0198 C   0  0  1  0  0  0  0  0  0  0  0  0
    8.1994  -16.0879   25.1152 C   0  0  0  0  0  0  0  0  0  0  0  0
    7.2757  -15.0701   25.6660 C   0  0  0  0  0  0  0  0  0  0  0  0
    5.9581  -15.3002   26.0276 C   0  0  0  0  0  0  0  0  0  0  0  0
    5.4420  -14.1673   26.5234 N   0  0  0  0  0  0  0  0  0  0  0  0
    6.3769  -13.1859   26.5029 C   0  0  0  0  0  0  0  0  0  0  0  0
    6.3568  -11.8608   26.8835 C   0  0  0  0  0  0  0  0  0  0  0  0
    7.4895  -11.0946   26.7252 C   0  0  0  0  0  0  0  0  0  0  0  0
    8.6479  -11.6144   26.1951 C   0  0  0  0  0  0  0  0  0  0  0  0
    8.6488  -12.9486   25.8186 C   0  0  0  0  0  0  0  0  0  0  0  0
    7.5328  -13.7609   25.9599 C   0  0  0  0  0  0  0  0  0  0  0  0
    8.2695  -16.7818   22.8255 C   0  0  0  0  0  0  0  0  0  0  0  0
    8.8575  -17.9116   22.4800 O   0  0  0  0  0  0  0  0  0  0  0  0
    8.5344  -15.6924   21.9967 N   0  0  0  0  0  0  0  0  0  0  0  0
    8.1123  -14.3168   22.3239 C   0  0  0  0  0  0  0  0  0  0  0  0
    8.0539  -13.5778   21.0249 C   0  0  0  0  0  0  0  0  0  0  0  0
    8.3432  -14.6118   19.9626 C   0  0  0  0  0  0  0  0  0  0  0  0
    9.1892  -15.6226   20.7408 C   0  0  1  0  0  0  0  0  0  0  0  0
   10.5956  -15.1476   20.8303 C   0  0  0  0  0  0  0  0  0  0  0  0
   11.2279  -15.0579   19.7465 O   0  0  0  0  0  0  0  0  0  0  0  0
   11.2489  -14.8044   21.9850 O   0  0  0  0  0  0  0  0  0  0  0  0
  2  1  1  0
  3  2  1  0
  4  3  2  0
  5  3  1  0
  6  5  1  0
  7  8  1  0
  6  7  1  1
  8  9  2  0
 10  9  1  0
 11 10  1  0
 12 11  2  0
 13 12  1  0
 14 15  1  0
 14 13  2  0
 15 16  2  0
 16 11  1  0
 16  8  1  0
 17 19  1  0
 17  6  1  0
 18 17  2  0
 19 20  1  0
 21 20  1  0
 22 21  1  0
 23 19  1  0
 23 22  1  0
 24 26  1  0
 23 24  1  1
 25 24  2  0
M  END
$$$$
