GWP.pdb
     RDKit          3D

 26 28  0  0  1  0  0  0  0  0999 V2000
    5.5873  -20.7098   24.5982 N   0  0  0  0  0  0  0  0  0  0  0  0
    5.9120  -20.1773   23.2822 C   0  0  0  0  0  0  0  0  0  0  0  0
    6.0082  -18.7142   23.3290 C   0  0  0  0  0  0  0  0  0  0  0  0
    5.0763  -18.0347   22.8431 O   0  0  0  0  0  0  0  0  0  0  0  0
    7.1601  -18.0849   23.9264 N   0  0  0  0  0  0  0  0  0  0  0  0
    7.5099  -16.7591   23.6305 C   0  0  1  0  0  0  0  0  0  0  0  0
    8.2973  -16.0622   24.7496 C   0  0  0  0  0  0  0  0  0  0  0  0
    7.3401  -15.1993   25.4790 C   0  0  0  0  0  0  0  0  0  0  0  0
    6.0991  -15.6010   25.9463 C   0  0  0  0  0  0  0  0  0  0  0  0
    5.5275  -14.5750   26.5913 N   0  0  0  0  0  0  0  0  0  0  0  0
    6.3507  -13.4982   26.5678 C   0  0  0  0  0  0  0  0  0  0  0  0
    6.2380  -12.2179   27.0672 C   0  0  0  0  0  0  0  0  0  0  0  0
    7.2636  -11.3216   26.8681 C   0  0  0  0  0  0  0  0  0  0  0  0
    8.4048  -11.6670   26.1813 C   0  0  0  0  0  0  0  0  0  0  0  0
    8.5001  -12.9587   25.6871 C   0  0  0  0  0  0  0  0  0  0  0  0
    7.4936  -13.8974   25.8635 C   0  0  0  0  0  0  0  0  0  0  0  0
    8.2974  -16.5855   22.4140 C   0  0  0  0  0  0  0  0  0  0  0  0
    8.8751  -17.6758   21.9458 O   0  0  0  0  0  0  0  0  0  0  0  0
    8.5245  -15.4247   21.6758 N   0  0  0  0  0  0  0  0  0  0  0  0
    8.1335  -14.0841   22.1525 C   0  0  0  0  0  0  0  0  0  0  0  0
    8.0082  -13.2274   20.9330 C   0  0  0  0  0  0  0  0  0  0  0  0
    8.2281  -14.1592   19.7648 C   0  0  0  0  0  0  0  0  0  0  0  0
    9.1078  -15.2407   20.3965 C   0  0  1  0  0  0  0  0  0  0  0  0
   10.5211  -14.7809   20.4491 C   0  0  0  0  0  0  0  0  0  0  0  0
   11.1149  -14.6639   19.3463 O   0  0  0  0  0  0  0  0  0  0  0  0
   11.2189  -14.4785   21.5892 O   0  0  0  0  0  0  0  0  0  0  0  0
  2  1  1  0
  3  2  1  0
  4  3  2  0
  5  3  1  0
  6  5  1  0
  7  8  1  0
  6  7  1  1
  8  9  2  0
 10  9  1  0
 11 10  1  0
 12 11  2  0
 13 12  1  0
 14 15  1  0
 14 13  2  0
 15 16  2  0
 16 11  1  0
 16  8  1  0
 17 19  1  0
 17  6  1  0
 18 17  2  0
 19 20  1  0
 21 20  1  0
 22 21  1  0
 23 19  1  0
 23 22  1  0
 24 26  1  0
 23 24  1  1
 25 24  2  0
M  END
$$$$
