GWP.pdb
     RDKit          3D

 26 28  0  0  1  0  0  0  0  0999 V2000
    4.6048  -20.7728   23.2940 N   0  0  0  0  0  0  0  0  0  0  0  0
    5.9177  -20.3293   23.7417 C   0  0  0  0  0  0  0  0  0  0  0  0
    6.0438  -18.8743   23.6032 C   0  0  0  0  0  0  0  0  0  0  0  0
    5.2378  -18.2691   22.8613 O   0  0  0  0  0  0  0  0  0  0  0  0
    7.0812  -18.1683   24.3140 N   0  0  0  0  0  0  0  0  0  0  0  0
    7.4331  -16.8512   23.9840 C   0  0  1  0  0  0  0  0  0  0  0  0
    8.1805  -16.1113   25.1030 C   0  0  0  0  0  0  0  0  0  0  0  0
    7.2281  -15.1423   25.6918 C   0  0  0  0  0  0  0  0  0  0  0  0
    5.9161  -15.4224   26.0381 C   0  0  0  0  0  0  0  0  0  0  0  0
    5.3682  -14.3254   26.5784 N   0  0  0  0  0  0  0  0  0  0  0  0
    6.2765  -13.3194   26.6024 C   0  0  0  0  0  0  0  0  0  0  0  0
    6.2197  -12.0122   27.0376 C   0  0  0  0  0  0  0  0  0  0  0  0
    7.3318  -11.2100   26.9158 C   0  0  0  0  0  0  0  0  0  0  0  0
    8.5053  -11.6763   26.3693 C   0  0  0  0  0  0  0  0  0  0  0  0
    8.5433  -12.9931   25.9379 C   0  0  0  0  0  0  0  0  0  0  0  0
    7.4490  -13.8402   26.0407 C   0  0  0  0  0  0  0  0  0  0  0  0
    8.2581  -16.7140   22.7879 C   0  0  0  0  0  0  0  0  0  0  0  0
    8.9598  -17.7799   22.4514 O   0  0  0  0  0  0  0  0  0  0  0  0
    8.4082  -15.6104   21.9491 N   0  0  0  0  0  0  0  0  0  0  0  0
    7.8590  -14.2795   22.2721 C   0  0  0  0  0  0  0  0  0  0  0  0
    7.7160  -13.5593   20.9691 C   0  0  0  0  0  0  0  0  0  0  0  0
    8.0923  -14.5686   19.9104 C   0  0  0  0  0  0  0  0  0  0  0  0
    9.0398  -15.4874   20.6855 C   0  0  1  0  0  0  0  0  0  0  0  0
   10.3949  -14.8787   20.7561 C   0  0  0  0  0  0  0  0  0  0  0  0
   11.0313  -14.7983   19.6739 O   0  0  0  0  0  0  0  0  0  0  0  0
   10.9974  -14.4046   21.8919 O   0  0  0  0  0  0  0  0  0  0  0  0
  2  1  1  0
  3  2  1  0
  4  3  2  0
  5  3  1  0
  6  5  1  0
  7  8  1  0
  6  7  1  1
  8  9  2  0
 10  9  1  0
 11 10  1  0
 12 11  2  0
 13 12  1  0
 14 15  1  0
 14 13  2  0
 15 16  2  0
 16 11  1  0
 16  8  1  0
 17 19  1  0
 17  6  1  0
 18 17  2  0
 19 20  1  0
 21 20  1  0
 22 21  1  0
 23 19  1  0
 23 22  1  0
 24 26  1  0
 23 24  1  1
 25 24  2  0
M  END
$$$$
