GWP.pdb
     RDKit          3D

 26 28  0  0  1  0  0  0  0  0999 V2000
    4.3360  -20.9643   23.5602 N   0  0  0  0  0  0  0  0  0  0  0  0
    5.7040  -20.5326   23.3090 C   0  0  0  0  0  0  0  0  0  0  0  0
    5.8040  -19.0710   23.3854 C   0  0  0  0  0  0  0  0  0  0  0  0
    5.0494  -18.3784   22.6662 O   0  0  0  0  0  0  0  0  0  0  0  0
    6.7580  -18.4580   24.2765 N   0  0  0  0  0  0  0  0  0  0  0  0
    7.1906  -17.1362   24.0942 C   0  0  1  0  0  0  0  0  0  0  0  0
    7.8819  -16.5355   25.3268 C   0  0  0  0  0  0  0  0  0  0  0  0
    7.0498  -15.3964   25.7770 C   0  0  0  0  0  0  0  0  0  0  0  0
    5.6834  -15.4452   26.0006 C   0  0  0  0  0  0  0  0  0  0  0  0
    5.2741  -14.2466   26.4380 N   0  0  0  0  0  0  0  0  0  0  0  0
    6.3280  -13.3973   26.5124 C   0  0  0  0  0  0  0  0  0  0  0  0
    6.4451  -12.0753   26.8861 C   0  0  0  0  0  0  0  0  0  0  0  0
    7.6796  -11.4675   26.8444 C   0  0  0  0  0  0  0  0  0  0  0  0
    8.8069  -12.1437   26.4381 C   0  0  0  0  0  0  0  0  0  0  0  0
    8.6694  -13.4722   26.0665 C   0  0  0  0  0  0  0  0  0  0  0  0
    7.4469  -14.1280   26.0931 C   0  0  0  0  0  0  0  0  0  0  0  0
    8.1094  -16.9360   22.9780 C   0  0  0  0  0  0  0  0  0  0  0  0
    8.7934  -18.0001   22.6019 O   0  0  0  0  0  0  0  0  0  0  0  0
    8.3655  -15.7736   22.2519 N   0  0  0  0  0  0  0  0  0  0  0  0
    7.8766  -14.4454   22.6695 C   0  0  0  0  0  0  0  0  0  0  0  0
    7.8429  -13.6050   21.4328 C   0  0  0  0  0  0  0  0  0  0  0  0
    8.2162  -14.5375   20.3048 C   0  0  0  0  0  0  0  0  0  0  0  0
    9.0682  -15.5778   21.0360 C   0  0  1  0  0  0  0  0  0  0  0  0
   10.4501  -15.0618   21.2255 C   0  0  0  0  0  0  0  0  0  0  0  0
   10.7500  -14.6722   22.3834 O   0  0  0  0  0  0  0  0  0  0  0  0
   11.4102  -14.9783   20.2513 O   0  0  0  0  0  0  0  0  0  0  0  0
  2  1  1  0
  3  2  1  0
  4  3  2  0
  5  3  1  0
  6  5  1  0
  7  8  1  0
  6  7  1  1
  8  9  2  0
 10  9  1  0
 11 10  1  0
 12 11  2  0
 13 12  1  0
 14 15  1  0
 14 13  2  0
 15 16  2  0
 16 11  1  0
 16  8  1  0
 17 19  1  0
 17  6  1  0
 18 17  2  0
 19 20  1  0
 21 20  1  0
 22 21  1  0
 23 19  1  0
 23 22  1  0
 24 26  1  0
 23 24  1  1
 25 24  2  0
M  END
$$$$
