GWP.pdb
     RDKit          3D

 26 28  0  0  1  0  0  0  0  0999 V2000
    5.7677  -21.9318   25.3411 N   0  0  0  0  0  0  0  0  0  0  0  0
    6.6996  -20.8377   25.5767 C   0  0  0  0  0  0  0  0  0  0  0  0
    6.4027  -19.7090   24.6879 C   0  0  0  0  0  0  0  0  0  0  0  0
    5.8440  -19.9381   23.5916 O   0  0  0  0  0  0  0  0  0  0  0  0
    6.7534  -18.3671   25.0828 N   0  0  0  0  0  0  0  0  0  0  0  0
    6.6615  -17.2898   24.1891 C   0  0  1  0  0  0  0  0  0  0  0  0
    6.0056  -16.0393   24.7924 C   0  0  0  0  0  0  0  0  0  0  0  0
    7.0211  -15.3909   25.6532 C   0  0  0  0  0  0  0  0  0  0  0  0
    8.1709  -16.0003   26.1288 C   0  0  0  0  0  0  0  0  0  0  0  0
    8.8726  -15.1053   26.8375 N   0  0  0  0  0  0  0  0  0  0  0  0
    8.2241  -13.9150   26.8501 C   0  0  0  0  0  0  0  0  0  0  0  0
    8.5073  -12.6966   27.4301 C   0  0  0  0  0  0  0  0  0  0  0  0
    7.6266  -11.6506   27.2706 C   0  0  0  0  0  0  0  0  0  0  0  0
    6.4649  -11.7855   26.5456 C   0  0  0  0  0  0  0  0  0  0  0  0
    6.1976  -13.0179   25.9697 C   0  0  0  0  0  0  0  0  0  0  0  0
    7.0551  -14.1009   26.1014 C   0  0  0  0  0  0  0  0  0  0  0  0
    7.9321  -16.8468   23.6239 C   0  0  0  0  0  0  0  0  0  0  0  0
    9.0052  -17.4748   24.0662 O   0  0  0  0  0  0  0  0  0  0  0  0
    8.1702  -15.8497   22.6788 N   0  0  0  0  0  0  0  0  0  0  0  0
    7.4349  -14.5705   22.6629 C   0  0  0  0  0  0  0  0  0  0  0  0
    7.5367  -14.0477   21.2653 C   0  0  0  0  0  0  0  0  0  0  0  0
    8.2486  -15.1272   20.4849 C   0  0  0  0  0  0  0  0  0  0  0  0
    9.0688  -15.8090   21.5826 C   0  0  1  0  0  0  0  0  0  0  0  0
   10.3035  -15.0265   21.8561 C   0  0  0  0  0  0  0  0  0  0  0  0
   11.1301  -14.9339   20.9123 O   0  0  0  0  0  0  0  0  0  0  0  0
   10.6083  -14.4063   23.0395 O   0  0  0  0  0  0  0  0  0  0  0  0
  2  1  1  0
  3  2  1  0
  4  3  2  0
  5  3  1  0
  6  5  1  0
  7  8  1  0
  6  7  1  1
  8  9  2  0
 10  9  1  0
 11 10  1  0
 12 11  2  0
 13 12  1  0
 14 15  1  0
 14 13  2  0
 15 16  2  0
 16 11  1  0
 16  8  1  0
 17 19  1  0
 17  6  1  0
 18 17  2  0
 19 20  1  0
 21 20  1  0
 22 21  1  0
 23 19  1  0
 23 22  1  0
 24 26  1  0
 23 24  1  1
 25 24  2  0
M  END
$$$$
