GWP.pdb
     RDKit          3D

 26 28  0  0  1  0  0  0  0  0999 V2000
    4.7843  -20.0685   23.0633 N   0  0  0  0  0  0  0  0  0  0  0  0
    6.1766  -19.6419   23.0777 C   0  0  0  0  0  0  0  0  0  0  0  0
    6.2687  -18.1831   22.9535 C   0  0  0  0  0  0  0  0  0  0  0  0
    5.4052  -17.5819   22.2758 O   0  0  0  0  0  0  0  0  0  0  0  0
    7.3388  -17.4688   23.6050 N   0  0  0  0  0  0  0  0  0  0  0  0
    7.6779  -16.1579   23.2388 C   0  0  1  0  0  0  0  0  0  0  0  0
    8.4994  -15.4115   24.3000 C   0  0  0  0  0  0  0  0  0  0  0  0
    7.5347  -14.8018   25.2436 C   0  0  0  0  0  0  0  0  0  0  0  0
    6.5006  -15.4748   25.8740 C   0  0  0  0  0  0  0  0  0  0  0  0
    5.8605  -14.6213   26.6847 N   0  0  0  0  0  0  0  0  0  0  0  0
    6.4368  -13.3963   26.6137 C   0  0  0  0  0  0  0  0  0  0  0  0
    6.1629  -12.1920   27.2266 C   0  0  0  0  0  0  0  0  0  0  0  0
    6.9391  -11.0929   26.9352 C   0  0  0  0  0  0  0  0  0  0  0  0
    7.9861  -11.1606   26.0451 C   0  0  0  0  0  0  0  0  0  0  0  0
    8.2463  -12.3801   25.4392 C   0  0  0  0  0  0  0  0  0  0  0  0
    7.4931  -13.5155   25.7017 C   0  0  0  0  0  0  0  0  0  0  0  0
    8.4264  -16.0396   21.9915 C   0  0  0  0  0  0  0  0  0  0  0  0
    8.9256  -17.1645   21.5148 O   0  0  0  0  0  0  0  0  0  0  0  0
    8.6879  -14.9003   21.2315 N   0  0  0  0  0  0  0  0  0  0  0  0
    8.4457  -13.5329   21.7303 C   0  0  0  0  0  0  0  0  0  0  0  0
    8.2944  -12.6675   20.5199 C   0  0  0  0  0  0  0  0  0  0  0  0
    8.3450  -13.6128   19.3430 C   0  0  0  0  0  0  0  0  0  0  0  0
    9.1813  -14.7630   19.9092 C   0  0  1  0  0  0  0  0  0  0  0  0
   10.6270  -14.4196   19.8478 C   0  0  0  0  0  0  0  0  0  0  0  0
   11.1698  -14.0797   20.9306 O   0  0  0  0  0  0  0  0  0  0  0  0
   11.4046  -14.4437   18.7197 O   0  0  0  0  0  0  0  0  0  0  0  0
  2  1  1  0
  3  2  1  0
  4  3  2  0
  5  3  1  0
  6  5  1  0
  7  8  1  0
  6  7  1  1
  8  9  2  0
 10  9  1  0
 11 10  1  0
 12 11  2  0
 13 12  1  0
 14 15  1  0
 14 13  2  0
 15 16  2  0
 16 11  1  0
 16  8  1  0
 17 19  1  0
 17  6  1  0
 18 17  2  0
 19 20  1  0
 21 20  1  0
 22 21  1  0
 23 19  1  0
 23 22  1  0
 24 26  1  0
 23 24  1  1
 25 24  2  0
M  END
$$$$
