SFW.pdb
     RDKit          3D

 32 34  0  0  1  0  0  0  0  0999 V2000
   27.0438   -8.1319  -22.7977 O   0  0  0  0  0  0  0  0  0  0  0  0
   27.0648   -7.1485  -21.8024 C   0  0  0  0  0  0  0  0  0  0  0  0
   25.7070   -6.9517  -21.2104 C   0  0  2  0  0  0  0  0  0  0  0  0
   24.8760   -6.1917  -22.0983 N   0  0  0  0  0  0  0  0  0  0  0  0
   25.8437   -6.3076  -19.8744 C   0  0  0  0  0  0  0  0  0  0  0  0
   26.5233   -6.9116  -19.0008 O   0  0  0  0  0  0  0  0  0  0  0  0
   25.2652   -5.0734  -19.5270 N   0  0  0  0  0  0  0  0  0  0  0  0
   25.3650   -4.4537  -18.2211 C   0  0  1  0  0  0  0  0  0  0  0  0
   25.9598   -3.0877  -18.2752 C   0  0  0  0  0  0  0  0  0  0  0  0
   27.2511   -2.9736  -18.9351 C   0  0  0  0  0  0  0  0  0  0  0  0
   28.4221   -3.1188  -18.2280 C   0  0  0  0  0  0  0  0  0  0  0  0
   29.6615   -3.0046  -18.8698 C   0  0  0  0  0  0  0  0  0  0  0  0
   29.7230   -2.7446  -20.2226 C   0  0  0  0  0  0  0  0  0  0  0  0
   28.5542   -2.5987  -20.9329 C   0  0  0  0  0  0  0  0  0  0  0  0
   27.3276   -2.7148  -20.2818 C   0  0  0  0  0  0  0  0  0  0  0  0
   24.1156   -4.5577  -17.4428 C   0  0  0  0  0  0  0  0  0  0  0  0
   23.2188   -3.6562  -17.5363 O   0  0  0  0  0  0  0  0  0  0  0  0
   23.8460   -5.6425  -16.5687 N   0  0  0  0  0  0  0  0  0  0  0  0
   22.5010   -5.7739  -15.9504 C   0  0  1  0  0  0  0  0  0  0  0  0
   22.1198   -7.2256  -16.0894 C   0  0  0  0  0  0  0  0  0  0  0  0
   22.9244   -8.2000  -15.3760 C   0  0  0  0  0  0  0  0  0  0  0  0
   22.5687   -8.7747  -14.1623 C   0  0  0  0  0  0  0  0  0  0  0  0
   23.5547   -9.5862  -13.7995 N   0  0  0  0  0  0  0  0  0  0  0  0
   24.5365   -9.5727  -14.7133 C   0  0  0  0  0  0  0  0  0  0  0  0
   25.7542  -10.2452  -14.8104 C   0  0  0  0  0  0  0  0  0  0  0  0
   26.5868  -10.0650  -15.8819 C   0  0  0  0  0  0  0  0  0  0  0  0
   26.2192   -9.2005  -16.8919 C   0  0  0  0  0  0  0  0  0  0  0  0
   25.0253   -8.5408  -16.7957 C   0  0  0  0  0  0  0  0  0  0  0  0
   24.1723   -8.7089  -15.7221 C   0  0  0  0  0  0  0  0  0  0  0  0
   22.6119   -5.3854  -14.5523 C   0  0  0  0  0  0  0  0  0  0  0  0
   21.5794   -5.1927  -13.8670 O   0  0  0  0  0  0  0  0  0  0  0  0
   23.8184   -5.2063  -13.8780 O   0  0  0  0  0  0  0  0  0  0  0  0
  2  1  1  0
  3  2  1  0
  3  4  1  6
  5  3  1  0
  5  6  2  0
  7  5  1  0
  8  7  1  0
  8  9  1  6
 10  9  1  0
 10 15  1  0
 11 10  2  0
 12 11  1  0
 12 13  2  0
 13 14  1  0
 14 15  2  0
 16  8  1  0
 17 16  2  0
 18 16  1  0
 19 20  1  1
 19 18  1  0
 21 20  1  0
 22 21  2  0
 23 24  1  0
 23 22  1  0
 24 29  2  0
 25 26  2  0
 25 24  1  0
 26 27  1  0
 27 28  2  0
 29 28  1  0
 29 21  1  0
 30 32  1  0
 30 19  1  0
 31 30  2  0
M  END
$$$$
