SFW.pdb
     RDKit          3D

 32 34  0  0  1  0  0  0  0  0999 V2000
   24.8001  -21.7426  -16.0670 O   0  0  0  0  0  0  0  0  0  0  0  0
   26.0485  -21.2437  -16.4552 C   0  0  0  0  0  0  0  0  0  0  0  0
   27.1482  -22.1736  -16.0567 C   0  0  2  0  0  0  0  0  0  0  0  0
   27.0151  -23.4304  -16.7343 N   0  0  0  0  0  0  0  0  0  0  0  0
   27.1470  -22.3273  -14.5752 C   0  0  0  0  0  0  0  0  0  0  0  0
   26.6098  -23.3621  -14.0952 O   0  0  0  0  0  0  0  0  0  0  0  0
   27.7049  -21.3953  -13.6816 N   0  0  0  0  0  0  0  0  0  0  0  0
   27.4466  -21.3619  -12.2563 C   0  0  1  0  0  0  0  0  0  0  0  0
   28.3740  -20.4533  -11.5234 C   0  0  0  0  0  0  0  0  0  0  0  0
   29.5347  -21.0781  -10.9083 C   0  0  0  0  0  0  0  0  0  0  0  0
   30.5670  -21.5638  -11.6769 C   0  0  0  0  0  0  0  0  0  0  0  0
   31.6798  -22.1669  -11.0775 C   0  0  0  0  0  0  0  0  0  0  0  0
   31.7542  -22.2811   -9.7054 C   0  0  0  0  0  0  0  0  0  0  0  0
   30.7239  -21.7966   -8.9336 C   0  0  0  0  0  0  0  0  0  0  0  0
   29.6223  -21.1989   -9.5429 C   0  0  0  0  0  0  0  0  0  0  0  0
   26.0170  -21.1788  -11.9393 C   0  0  0  0  0  0  0  0  0  0  0  0
   25.1343  -21.9223  -12.4814 O   0  0  0  0  0  0  0  0  0  0  0  0
   25.5541  -20.1903  -11.0326 N   0  0  0  0  0  0  0  0  0  0  0  0
   25.1996  -20.5745   -9.6415 C   0  0  1  0  0  0  0  0  0  0  0  0
   26.5049  -20.8603   -8.9440 C   0  0  0  0  0  0  0  0  0  0  0  0
   26.4833  -20.9546   -7.4961 C   0  0  0  0  0  0  0  0  0  0  0  0
   25.6474  -21.7991   -6.7764 C   0  0  0  0  0  0  0  0  0  0  0  0
   25.8817  -21.5903   -5.4866 N   0  0  0  0  0  0  0  0  0  0  0  0
   26.8282  -20.6537   -5.3252 C   0  0  0  0  0  0  0  0  0  0  0  0
   27.4328  -20.0972   -4.1985 C   0  0  0  0  0  0  0  0  0  0  0  0
   28.4119  -19.1470   -4.3085 C   0  0  0  0  0  0  0  0  0  0  0  0
   28.8145  -18.7258   -5.5588 C   0  0  0  0  0  0  0  0  0  0  0  0
   28.2208  -19.2714   -6.6632 C   0  0  0  0  0  0  0  0  0  0  0  0
   27.2307  -20.2306   -6.5723 C   0  0  0  0  0  0  0  0  0  0  0  0
   24.5058  -19.4507   -9.0304 C   0  0  0  0  0  0  0  0  0  0  0  0
   23.4416  -19.6368   -8.3934 O   0  0  0  0  0  0  0  0  0  0  0  0
   24.9430  -18.1287   -9.0896 O   0  0  0  0  0  0  0  0  0  0  0  0
  2  1  1  0
  3  2  1  0
  3  4  1  6
  5  3  1  0
  5  6  2  0
  7  5  1  0
  8  7  1  0
  8  9  1  6
 10  9  1  0
 10 15  1  0
 11 10  2  0
 12 11  1  0
 12 13  2  0
 13 14  1  0
 14 15  2  0
 16  8  1  0
 17 16  2  0
 18 16  1  0
 19 20  1  1
 19 18  1  0
 21 20  1  0
 22 21  2  0
 23 24  1  0
 23 22  1  0
 24 29  2  0
 25 26  2  0
 25 24  1  0
 26 27  1  0
 27 28  2  0
 29 28  1  0
 29 21  1  0
 30 32  1  0
 30 19  1  0
 31 30  2  0
M  END
$$$$
