SFW.pdb
     RDKit          3D

 32 34  0  0  1  0  0  0  0  0999 V2000
   27.2670  -19.1471  -13.2951 O   0  0  0  0  0  0  0  0  0  0  0  0
   28.6279  -19.4652  -13.3653 C   0  0  0  0  0  0  0  0  0  0  0  0
   28.8592  -20.9118  -13.0704 C   0  0  2  0  0  0  0  0  0  0  0  0
   28.2037  -21.7352  -14.0445 N   0  0  0  0  0  0  0  0  0  0  0  0
   28.4054  -21.2076  -11.6830 C   0  0  0  0  0  0  0  0  0  0  0  0
   27.3577  -21.8954  -11.5446 O   0  0  0  0  0  0  0  0  0  0  0  0
   29.0687  -20.7701  -10.5223 N   0  0  0  0  0  0  0  0  0  0  0  0
   28.5125  -20.8209   -9.1853 C   0  0  1  0  0  0  0  0  0  0  0  0
   29.4749  -20.3630   -8.1428 C   0  0  0  0  0  0  0  0  0  0  0  0
   28.9561  -20.2622   -6.7877 C   0  0  0  0  0  0  0  0  0  0  0  0
   28.2444  -19.1567   -6.3831 C   0  0  0  0  0  0  0  0  0  0  0  0
   27.7506  -19.0657   -5.0757 C   0  0  0  0  0  0  0  0  0  0  0  0
   27.9726  -20.0865   -4.1757 C   0  0  0  0  0  0  0  0  0  0  0  0
   28.6838  -21.1934   -4.5766 C   0  0  0  0  0  0  0  0  0  0  0  0
   29.1695  -21.2712   -5.8804 C   0  0  0  0  0  0  0  0  0  0  0  0
   27.1700  -20.2140   -9.1020 C   0  0  0  0  0  0  0  0  0  0  0  0
   26.9482  -19.0637   -9.6052 O   0  0  0  0  0  0  0  0  0  0  0  0
   26.0745  -20.8616   -8.4743 N   0  0  0  0  0  0  0  0  0  0  0  0
   24.6970  -20.3416   -8.6762 C   0  0  1  0  0  0  0  0  0  0  0  0
   24.3867  -20.5437  -10.1373 C   0  0  0  0  0  0  0  0  0  0  0  0
   23.0628  -20.1687  -10.5984 C   0  0  0  0  0  0  0  0  0  0  0  0
   22.0507  -19.6910   -9.7755 C   0  0  0  0  0  0  0  0  0  0  0  0
   20.9806  -19.4873  -10.5343 N   0  0  0  0  0  0  0  0  0  0  0  0
   21.2406  -19.8061  -11.8109 C   0  0  0  0  0  0  0  0  0  0  0  0
   20.4773  -19.7587  -12.9770 C   0  0  0  0  0  0  0  0  0  0  0  0
   20.9974  -20.1308  -14.1873 C   0  0  0  0  0  0  0  0  0  0  0  0
   22.3051  -20.5633  -14.2624 C   0  0  0  0  0  0  0  0  0  0  0  0
   23.0527  -20.6102  -13.1184 C   0  0  0  0  0  0  0  0  0  0  0  0
   22.5453  -20.2397  -11.8881 C   0  0  0  0  0  0  0  0  0  0  0  0
   23.7992  -21.1142   -7.8307 C   0  0  0  0  0  0  0  0  0  0  0  0
   23.9427  -22.3557   -7.7265 O   0  0  0  0  0  0  0  0  0  0  0  0
   22.7514  -20.5698   -7.0903 O   0  0  0  0  0  0  0  0  0  0  0  0
  2  1  1  0
  3  2  1  0
  3  4  1  6
  5  3  1  0
  5  6  2  0
  7  5  1  0
  8  7  1  0
  8  9  1  1
 10  9  1  0
 10 15  1  0
 11 10  2  0
 12 11  1  0
 12 13  2  0
 13 14  1  0
 14 15  2  0
 16  8  1  0
 17 16  2  0
 18 16  1  0
 19 20  1  6
 19 18  1  0
 21 20  1  0
 22 21  2  0
 23 24  1  0
 23 22  1  0
 24 29  2  0
 25 26  2  0
 25 24  1  0
 26 27  1  0
 27 28  2  0
 29 28  1  0
 29 21  1  0
 30 32  1  0
 30 19  1  0
 31 30  2  0
M  END
$$$$
