SFW.pdb
     RDKit          3D

 32 34  0  0  1  0  0  0  0  0999 V2000
   27.0377  -18.0698  -13.8902 O   0  0  0  0  0  0  0  0  0  0  0  0
   27.9245  -19.0248  -14.3997 C   0  0  0  0  0  0  0  0  0  0  0  0
   28.4016  -19.9455  -13.3238 C   0  0  2  0  0  0  0  0  0  0  0  0
   29.3011  -20.9246  -13.8613 N   0  0  0  0  0  0  0  0  0  0  0  0
   27.2256  -20.5664  -12.6531 C   0  0  0  0  0  0  0  0  0  0  0  0
   26.6958  -21.5663  -13.2092 O   0  0  0  0  0  0  0  0  0  0  0  0
   26.6710  -20.1098  -11.4438 N   0  0  0  0  0  0  0  0  0  0  0  0
   25.5149  -20.6934  -10.7939 C   0  0  1  0  0  0  0  0  0  0  0  0
   25.4885  -20.4371   -9.3254 C   0  0  0  0  0  0  0  0  0  0  0  0
   26.7669  -20.5130   -8.6357 C   0  0  0  0  0  0  0  0  0  0  0  0
   27.6888  -21.4815   -8.9593 C   0  0  0  0  0  0  0  0  0  0  0  0
   28.9162  -21.5500   -8.2886 C   0  0  0  0  0  0  0  0  0  0  0  0
   29.2164  -20.6446   -7.2929 C   0  0  0  0  0  0  0  0  0  0  0  0
   28.2971  -19.6749   -6.9666 C   0  0  0  0  0  0  0  0  0  0  0  0
   27.0795  -19.6180   -7.6418 C   0  0  0  0  0  0  0  0  0  0  0  0
   24.2532  -20.3976  -11.4997 C   0  0  0  0  0  0  0  0  0  0  0  0
   23.9788  -19.2061  -11.8614 O   0  0  0  0  0  0  0  0  0  0  0  0
   23.2972  -21.3988  -11.8114 N   0  0  0  0  0  0  0  0  0  0  0  0
   22.0221  -21.0195  -12.4739 C   0  0  1  0  0  0  0  0  0  0  0  0
   21.8920  -21.9236  -13.6730 C   0  0  0  0  0  0  0  0  0  0  0  0
   22.5282  -21.4965  -14.9053 C   0  0  0  0  0  0  0  0  0  0  0  0
   23.8566  -21.7415  -15.2293 C   0  0  0  0  0  0  0  0  0  0  0  0
   24.0916  -21.1782  -16.4081 N   0  0  0  0  0  0  0  0  0  0  0  0
   22.9855  -20.5781  -16.8724 C   0  0  0  0  0  0  0  0  0  0  0  0
   22.7057  -19.8754  -18.0440 C   0  0  0  0  0  0  0  0  0  0  0  0
   21.4590  -19.3676  -18.2924 C   0  0  0  0  0  0  0  0  0  0  0  0
   20.4523  -19.5515  -17.3675 C   0  0  0  0  0  0  0  0  0  0  0  0
   20.7276  -20.2400  -16.2187 C   0  0  0  0  0  0  0  0  0  0  0  0
   21.9793  -20.7591  -15.9499 C   0  0  0  0  0  0  0  0  0  0  0  0
   20.9421  -21.2388  -11.5237 C   0  0  0  0  0  0  0  0  0  0  0  0
   19.7655  -20.9227  -11.8214 O   0  0  0  0  0  0  0  0  0  0  0  0
   21.1079  -21.7990  -10.2583 O   0  0  0  0  0  0  0  0  0  0  0  0
  2  1  1  0
  3  2  1  0
  3  4  1  6
  5  3  1  0
  5  6  2  0
  7  5  1  0
  8  7  1  0
  8  9  1  1
 10  9  1  0
 10 15  1  0
 11 10  2  0
 12 11  1  0
 12 13  2  0
 13 14  1  0
 14 15  2  0
 16  8  1  0
 17 16  2  0
 18 16  1  0
 19 20  1  6
 19 18  1  0
 21 20  1  0
 22 21  2  0
 23 24  1  0
 23 22  1  0
 24 29  2  0
 25 26  2  0
 25 24  1  0
 26 27  1  0
 27 28  2  0
 29 28  1  0
 29 21  1  0
 30 32  1  0
 30 19  1  0
 31 30  2  0
M  END
$$$$
