SFW.pdb
     RDKit          3D

 32 34  0  0  1  0  0  0  0  0999 V2000
   27.2330  -19.6137  -13.6571 O   0  0  0  0  0  0  0  0  0  0  0  0
   28.6227  -19.7268  -13.5394 C   0  0  0  0  0  0  0  0  0  0  0  0
   29.0243  -21.1311  -13.2237 C   0  0  2  0  0  0  0  0  0  0  0  0
   28.4732  -22.0407  -14.1858 N   0  0  0  0  0  0  0  0  0  0  0  0
   28.6068  -21.4591  -11.8322 C   0  0  0  0  0  0  0  0  0  0  0  0
   27.6243  -22.2353  -11.6840 O   0  0  0  0  0  0  0  0  0  0  0  0
   29.2365  -20.9597  -10.6777 N   0  0  0  0  0  0  0  0  0  0  0  0
   28.6459  -20.9493   -9.3547 C   0  0  1  0  0  0  0  0  0  0  0  0
   29.5493  -20.3614   -8.3246 C   0  0  0  0  0  0  0  0  0  0  0  0
   28.9607  -20.1150   -7.0175 C   0  0  0  0  0  0  0  0  0  0  0  0
   28.3214  -18.9286   -6.7418 C   0  0  0  0  0  0  0  0  0  0  0  0
   27.7599  -18.6976   -5.4798 C   0  0  0  0  0  0  0  0  0  0  0  0
   27.8412  -19.6599   -4.4956 C   0  0  0  0  0  0  0  0  0  0  0  0
   28.4796  -20.8474   -4.7676 C   0  0  0  0  0  0  0  0  0  0  0  0
   29.0341  -21.0643   -6.0274 C   0  0  0  0  0  0  0  0  0  0  0  0
   27.2683  -20.4204   -9.3486 C   0  0  0  0  0  0  0  0  0  0  0  0
   27.0031  -19.3010   -9.8984 O   0  0  0  0  0  0  0  0  0  0  0  0
   26.1850  -21.1122   -8.7471 N   0  0  0  0  0  0  0  0  0  0  0  0
   24.7891  -20.7472   -9.1030 C   0  0  1  0  0  0  0  0  0  0  0  0
   24.7021  -20.8519  -10.6041 C   0  0  0  0  0  0  0  0  0  0  0  0
   23.4083  -20.6160  -11.2176 C   0  0  0  0  0  0  0  0  0  0  0  0
   22.3446  -19.9819  -10.5882 C   0  0  0  0  0  0  0  0  0  0  0  0
   21.3235  -19.9760  -11.4365 N   0  0  0  0  0  0  0  0  0  0  0  0
   21.6645  -20.5724  -12.5884 C   0  0  0  0  0  0  0  0  0  0  0  0
   20.9759  -20.8058  -13.7784 C   0  0  0  0  0  0  0  0  0  0  0  0
   21.5724  -21.4343  -14.8380 C   0  0  0  0  0  0  0  0  0  0  0  0
   22.8840  -21.8486  -14.7334 C   0  0  0  0  0  0  0  0  0  0  0  0
   23.5584  -21.6201  -13.5660 C   0  0  0  0  0  0  0  0  0  0  0  0
   22.9732  -20.9883  -12.4857 C   0  0  0  0  0  0  0  0  0  0  0  0
   23.8990  -21.6966   -8.4519 C   0  0  0  0  0  0  0  0  0  0  0  0
   22.6570  -21.5266   -8.4910 O   0  0  0  0  0  0  0  0  0  0  0  0
   24.3250  -22.8309   -7.7631 O   0  0  0  0  0  0  0  0  0  0  0  0
  2  1  1  0
  3  2  1  0
  3  4  1  6
  5  3  1  0
  5  6  2  0
  7  5  1  0
  8  7  1  0
  8  9  1  1
 10  9  1  0
 10 15  1  0
 11 10  2  0
 12 11  1  0
 12 13  2  0
 13 14  1  0
 14 15  2  0
 16  8  1  0
 17 16  2  0
 18 16  1  0
 19 20  1  6
 19 18  1  0
 21 20  1  0
 22 21  2  0
 23 24  1  0
 23 22  1  0
 24 29  2  0
 25 26  2  0
 25 24  1  0
 26 27  1  0
 27 28  2  0
 29 28  1  0
 29 21  1  0
 30 32  1  0
 30 19  1  0
 31 30  2  0
M  END
$$$$
