SFW.pdb
     RDKit          3D

 32 34  0  0  1  0  0  0  0  0999 V2000
   26.9088  -19.4727  -16.4878 O   0  0  0  0  0  0  0  0  0  0  0  0
   28.1024  -20.1880  -16.3402 C   0  0  0  0  0  0  0  0  0  0  0  0
   27.8466  -21.5579  -15.8009 C   0  0  2  0  0  0  0  0  0  0  0  0
   27.2848  -22.4015  -16.8154 N   0  0  0  0  0  0  0  0  0  0  0  0
   26.9699  -21.4563  -14.6012 C   0  0  0  0  0  0  0  0  0  0  0  0
   25.7522  -21.7525  -14.7399 O   0  0  0  0  0  0  0  0  0  0  0  0
   27.4126  -21.0527  -13.3285 N   0  0  0  0  0  0  0  0  0  0  0  0
   26.6103  -21.0988  -12.1228 C   0  0  1  0  0  0  0  0  0  0  0  0
   27.4246  -20.9520  -10.8826 C   0  0  0  0  0  0  0  0  0  0  0  0
   26.6835  -20.8232   -9.6376 C   0  0  0  0  0  0  0  0  0  0  0  0
   26.9907  -19.8358   -8.7304 C   0  0  0  0  0  0  0  0  0  0  0  0
   26.2746  -19.7201   -7.5325 C   0  0  0  0  0  0  0  0  0  0  0  0
   25.2496  -20.5973   -7.2473 C   0  0  0  0  0  0  0  0  0  0  0  0
   24.9396  -21.5859   -8.1519 C   0  0  0  0  0  0  0  0  0  0  0  0
   25.6603  -21.6899   -9.3401 C   0  0  0  0  0  0  0  0  0  0  0  0
   25.4224  -20.2263  -12.1937 C   0  0  0  0  0  0  0  0  0  0  0  0
   25.5488  -18.9803  -12.4326 O   0  0  0  0  0  0  0  0  0  0  0  0
   24.1025  -20.7131  -12.0073 N   0  0  0  0  0  0  0  0  0  0  0  0
   22.9732  -19.7541  -11.8898 C   0  0  1  0  0  0  0  0  0  0  0  0
   22.7531  -19.2001  -13.2742 C   0  0  0  0  0  0  0  0  0  0  0  0
   22.3582  -20.1328  -14.3134 C   0  0  0  0  0  0  0  0  0  0  0  0
   21.4185  -21.1422  -14.1470 C   0  0  0  0  0  0  0  0  0  0  0  0
   21.3418  -21.8104  -15.2915 N   0  0  0  0  0  0  0  0  0  0  0  0
   22.1820  -21.2898  -16.1982 C   0  0  0  0  0  0  0  0  0  0  0  0
   22.4632  -21.6076  -17.5266 C   0  0  0  0  0  0  0  0  0  0  0  0
   23.3721  -20.8900  -18.2563 C   0  0  0  0  0  0  0  0  0  0  0  0
   24.0284  -19.8272  -17.6708 C   0  0  0  0  0  0  0  0  0  0  0  0
   23.7527  -19.5166  -16.3680 C   0  0  0  0  0  0  0  0  0  0  0  0
   22.8395  -20.2294  -15.6154 C   0  0  0  0  0  0  0  0  0  0  0  0
   21.8088  -20.4902  -11.4210 C   0  0  0  0  0  0  0  0  0  0  0  0
   20.7184  -19.8976  -11.2397 O   0  0  0  0  0  0  0  0  0  0  0  0
   21.7979  -21.8572  -11.1492 O   0  0  0  0  0  0  0  0  0  0  0  0
  2  1  1  0
  3  2  1  0
  3  4  1  6
  5  3  1  0
  5  6  2  0
  7  5  1  0
  8  7  1  0
  8  9  1  1
 10  9  1  0
 10 15  1  0
 11 10  2  0
 12 11  1  0
 12 13  2  0
 13 14  1  0
 14 15  2  0
 16  8  1  0
 17 16  2  0
 18 16  1  0
 19 20  1  6
 19 18  1  0
 21 20  1  0
 22 21  2  0
 23 24  1  0
 23 22  1  0
 24 29  2  0
 25 26  2  0
 25 24  1  0
 26 27  1  0
 27 28  2  0
 29 28  1  0
 29 21  1  0
 30 32  1  0
 30 19  1  0
 31 30  2  0
M  END
$$$$
