SFW.pdb
     RDKit          3D

 32 34  0  0  1  0  0  0  0  0999 V2000
   27.7426  -19.4446  -13.6600 O   0  0  0  0  0  0  0  0  0  0  0  0
   29.0618  -19.6261  -13.2300 C   0  0  0  0  0  0  0  0  0  0  0  0
   29.3384  -21.0639  -12.9314 C   0  0  2  0  0  0  0  0  0  0  0  0
   28.7606  -21.9071  -13.9372 N   0  0  0  0  0  0  0  0  0  0  0  0
   28.8361  -21.3863  -11.5668 C   0  0  0  0  0  0  0  0  0  0  0  0
   27.7933  -22.0896  -11.4786 O   0  0  0  0  0  0  0  0  0  0  0  0
   29.4487  -20.9577  -10.3754 N   0  0  0  0  0  0  0  0  0  0  0  0
   28.8027  -20.9308   -9.0787 C   0  0  1  0  0  0  0  0  0  0  0  0
   29.7109  -20.4654   -7.9917 C   0  0  0  0  0  0  0  0  0  0  0  0
   29.1131  -20.3143   -6.6743 C   0  0  0  0  0  0  0  0  0  0  0  0
   29.1732  -21.3309   -5.7494 C   0  0  0  0  0  0  0  0  0  0  0  0
   28.5927  -21.1790   -4.4841 C   0  0  0  0  0  0  0  0  0  0  0  0
   27.9520  -20.0048   -4.1491 C   0  0  0  0  0  0  0  0  0  0  0  0
   27.8899  -18.9862   -5.0712 C   0  0  0  0  0  0  0  0  0  0  0  0
   28.4717  -19.1505   -6.3268 C   0  0  0  0  0  0  0  0  0  0  0  0
   27.4831  -20.2712   -9.1117 C   0  0  0  0  0  0  0  0  0  0  0  0
   27.3528  -19.1115   -9.6254 O   0  0  0  0  0  0  0  0  0  0  0  0
   26.3111  -20.8765   -8.5888 N   0  0  0  0  0  0  0  0  0  0  0  0
   24.9772  -20.3205   -8.9353 C   0  0  1  0  0  0  0  0  0  0  0  0
   24.8215  -20.5106  -10.4225 C   0  0  0  0  0  0  0  0  0  0  0  0
   23.5448  -20.1536  -11.0128 C   0  0  0  0  0  0  0  0  0  0  0  0
   22.4743  -19.6207  -10.3058 C   0  0  0  0  0  0  0  0  0  0  0  0
   21.4729  -19.4542  -11.1613 N   0  0  0  0  0  0  0  0  0  0  0  0
   21.8332  -19.8496  -12.3912 C   0  0  0  0  0  0  0  0  0  0  0  0
   21.1693  -19.8654  -13.6174 C   0  0  0  0  0  0  0  0  0  0  0  0
   21.7826  -20.3121  -14.7567 C   0  0  0  0  0  0  0  0  0  0  0  0
   23.0867  -20.7579  -14.6979 C   0  0  0  0  0  0  0  0  0  0  0  0
   23.7369  -20.7429  -13.4951 C   0  0  0  0  0  0  0  0  0  0  0  0
   23.1345  -20.2967  -12.3346 C   0  0  0  0  0  0  0  0  0  0  0  0
   23.9739  -21.0719   -8.1960 C   0  0  0  0  0  0  0  0  0  0  0  0
   24.1825  -22.2696   -7.8879 O   0  0  0  0  0  0  0  0  0  0  0  0
   22.7504  -20.5519   -7.7775 O   0  0  0  0  0  0  0  0  0  0  0  0
  2  1  1  0
  3  2  1  0
  3  4  1  6
  5  3  1  0
  5  6  2  0
  7  5  1  0
  8  7  1  0
  8  9  1  1
 10  9  1  0
 10 15  1  0
 11 10  2  0
 12 11  1  0
 12 13  2  0
 13 14  1  0
 14 15  2  0
 16  8  1  0
 17 16  2  0
 18 16  1  0
 19 20  1  6
 19 18  1  0
 21 20  1  0
 22 21  2  0
 23 24  1  0
 23 22  1  0
 24 29  2  0
 25 26  2  0
 25 24  1  0
 26 27  1  0
 27 28  2  0
 29 28  1  0
 29 21  1  0
 30 32  1  0
 30 19  1  0
 31 30  2  0
M  END
$$$$
