KVH.pdb
     RDKit          3D

 27 27  0  0  1  0  0  0  0  0999 V2000
    8.0548  -12.8480   19.6914 N   0  0  0  0  0  0  0  0  0  0  0  0
    7.1578  -13.3366   20.7529 C   0  0  1  0  0  0  0  0  0  0  0  0
    6.5887  -14.6274   20.2472 C   0  0  0  0  0  0  0  0  0  0  0  0
    7.5773  -15.5952   19.7111 C   0  0  0  0  0  0  0  0  0  0  0  0
    7.0271  -16.8342   19.1013 C   0  0  0  0  0  0  0  0  0  0  0  0
    8.0297  -17.7878   18.5440 C   0  0  0  0  0  0  0  0  0  0  0  0
    7.5106  -19.0231   18.0549 N   0  0  0  0  0  0  0  0  0  0  0  0
    7.8598  -13.4591   22.0336 C   0  0  0  0  0  0  0  0  0  0  0  0
    9.0550  -13.8479   22.0381 O   0  0  0  0  0  0  0  0  0  0  0  0
    5.8656  -13.3542   25.9173 C   0  0  0  0  0  0  0  0  0  0  0  0
    7.1837  -12.6494   25.6959 C   0  0  1  0  0  0  0  0  0  0  0  0
    7.9630  -12.6644   26.9936 C   0  0  0  0  0  0  0  0  0  0  0  0
    7.9626  -13.2527   24.5507 C   0  0  2  0  0  0  0  0  0  0  0  0
    7.2793  -13.1652   23.2991 N   0  0  0  0  0  0  0  0  0  0  0  0
    8.2069  -14.6883   24.9128 C   0  0  0  0  0  0  0  0  0  0  0  0
    7.2913  -15.5337   24.8193 O   0  0  0  0  0  0  0  0  0  0  0  0
    9.4919  -15.0917   25.3668 N   0  0  0  0  0  0  0  0  0  0  0  0
    9.7942  -16.5065   25.6827 C   0  0  1  0  0  0  0  0  0  0  0  0
   11.1240  -16.8297   25.0802 C   0  0  0  0  0  0  0  0  0  0  0  0
   11.6728  -18.1365   25.4256 C   0  0  0  0  0  0  0  0  0  0  0  0
   10.9553  -19.1095   26.1296 C   0  0  0  0  0  0  0  0  0  0  0  0
   11.7310  -20.1950   26.2896 N   0  0  0  0  0  0  0  0  0  0  0  0
   12.8972  -19.8963   25.6981 C   0  0  0  0  0  0  0  0  0  0  0  0
   12.8638  -18.6712   25.1834 N   0  0  0  0  0  0  0  0  0  0  0  0
    9.8817  -16.6057   27.1572 C   0  0  0  0  0  0  0  0  0  0  0  0
   10.0097  -15.6025   27.8809 O   0  0  0  0  0  0  0  0  0  0  0  0
    9.8225  -17.8313   27.7734 O   0  0  0  0  0  0  0  0  0  0  0  0
  2  3  1  0
  2  1  1  6
  4  3  1  0
  4  5  1  0
  5  6  1  0
  7  6  1  0
  8  2  1  0
  9  8  2  0
 11 10  1  1
 11 12  1  0
 13 11  1  0
 13 14  1  6
 14  8  1  0
 15 16  2  0
 15 13  1  0
 17 15  1  0
 18 17  1  0
 18 19  1  6
 20 24  1  0
 20 19  1  0
 21 20  2  0
 22 21  1  0
 22 23  1  0
 23 24  2  0
 25 18  1  0
 25 27  1  0
 26 25  2  0
M  END
$$$$
