KVH.pdb
     RDKit          3D

 27 27  0  0  1  0  0  0  0  0999 V2000
   10.3570  -16.2432   15.0256 N   0  0  0  0  0  0  0  0  0  0  0  0
    9.3591  -15.9992   16.0814 C   0  0  1  0  0  0  0  0  0  0  0  0
    9.2115  -17.2979   16.8144 C   0  0  0  0  0  0  0  0  0  0  0  0
   10.1225  -18.3849   16.3786 C   0  0  0  0  0  0  0  0  0  0  0  0
   10.7309  -19.2101   17.4551 C   0  0  0  0  0  0  0  0  0  0  0  0
   11.4966  -20.4083   17.0046 C   0  0  0  0  0  0  0  0  0  0  0  0
   12.8035  -20.5570   17.5567 N   0  0  0  0  0  0  0  0  0  0  0  0
    9.7489  -14.8756   16.9379 C   0  0  0  0  0  0  0  0  0  0  0  0
    9.9597  -13.7536   16.4120 O   0  0  0  0  0  0  0  0  0  0  0  0
    7.2704  -14.3370   19.5853 C   0  0  0  0  0  0  0  0  0  0  0  0
    8.3121  -13.3087   19.2100 C   0  0  1  0  0  0  0  0  0  0  0  0
    8.1474  -12.1037   20.1113 C   0  0  0  0  0  0  0  0  0  0  0  0
    9.7112  -13.8765   19.2594 C   0  0  2  0  0  0  0  0  0  0  0  0
    9.9102  -14.9596   18.3492 N   0  0  0  0  0  0  0  0  0  0  0  0
    9.9346  -14.3333   20.6712 C   0  0  0  0  0  0  0  0  0  0  0  0
    9.7444  -13.5550   21.6303 O   0  0  0  0  0  0  0  0  0  0  0  0
   10.3668  -15.6640   20.9211 N   0  0  0  0  0  0  0  0  0  0  0  0
   10.5094  -16.1873   22.2991 C   0  0  1  0  0  0  0  0  0  0  0  0
   10.6711  -17.6709   22.2043 C   0  0  0  0  0  0  0  0  0  0  0  0
    9.5957  -18.3807   21.5204 C   0  0  0  0  0  0  0  0  0  0  0  0
    8.3042  -17.8631   21.3750 C   0  0  0  0  0  0  0  0  0  0  0  0
    7.5503  -18.7499   20.7034 N   0  0  0  0  0  0  0  0  0  0  0  0
    8.3591  -19.7876   20.4424 C   0  0  0  0  0  0  0  0  0  0  0  0
    9.5769  -19.5691   20.9282 N   0  0  0  0  0  0  0  0  0  0  0  0
   11.7434  -15.5897   22.8574 C   0  0  0  0  0  0  0  0  0  0  0  0
   12.4625  -14.8196   22.1969 O   0  0  0  0  0  0  0  0  0  0  0  0
   12.1314  -15.8767   24.1429 O   0  0  0  0  0  0  0  0  0  0  0  0
  2  3  1  0
  2  1  1  6
  4  3  1  0
  4  5  1  0
  5  6  1  0
  7  6  1  0
  8  2  1  0
  9  8  2  0
 11 10  1  1
 11 12  1  0
 13 11  1  0
 13 14  1  6
 14  8  1  0
 15 16  2  0
 15 13  1  0
 17 15  1  0
 18 17  1  0
 18 19  1  6
 20 24  1  0
 20 19  1  0
 21 20  2  0
 22 21  1  0
 22 23  1  0
 23 24  2  0
 25 18  1  0
 25 27  1  0
 26 25  2  0
M  END
$$$$
