KVH.pdb
     RDKit          3D

 27 27  0  0  1  0  0  0  0  0999 V2000
    7.9921  -14.4103   20.2584 N   0  0  0  0  0  0  0  0  0  0  0  0
    7.1182  -14.7340   21.3993 C   0  0  1  0  0  0  0  0  0  0  0  0
    6.6951  -16.1579   21.2010 C   0  0  0  0  0  0  0  0  0  0  0  0
    7.7972  -17.1284   20.9891 C   0  0  0  0  0  0  0  0  0  0  0  0
    7.3980  -18.5190   20.6472 C   0  0  0  0  0  0  0  0  0  0  0  0
    8.5150  -19.4778   20.4067 C   0  0  0  0  0  0  0  0  0  0  0  0
    8.1328  -20.8256   20.1380 N   0  0  0  0  0  0  0  0  0  0  0  0
    7.7921  -14.4879   22.6773 C   0  0  0  0  0  0  0  0  0  0  0  0
    9.0447  -14.5756   22.7320 O   0  0  0  0  0  0  0  0  0  0  0  0
    7.5871  -12.7867   27.3873 C   0  0  0  0  0  0  0  0  0  0  0  0
    6.8730  -13.1132   26.0962 C   0  0  1  0  0  0  0  0  0  0  0  0
    6.3047  -11.8330   25.5220 C   0  0  0  0  0  0  0  0  0  0  0  0
    7.7725  -13.8322   25.1183 C   0  0  2  0  0  0  0  0  0  0  0  0
    7.1224  -14.1500   23.8865 N   0  0  0  0  0  0  0  0  0  0  0  0
    8.2309  -15.0851   25.8051 C   0  0  0  0  0  0  0  0  0  0  0  0
    7.4023  -15.8915   26.2794 O   0  0  0  0  0  0  0  0  0  0  0  0
    9.6211  -15.3585   25.9179 N   0  0  0  0  0  0  0  0  0  0  0  0
   10.1179  -16.6144   26.5253 C   0  0  1  0  0  0  0  0  0  0  0  0
   11.5166  -16.8278   26.0415 C   0  0  0  0  0  0  0  0  0  0  0  0
   12.2082  -17.9846   26.5998 C   0  0  0  0  0  0  0  0  0  0  0  0
   11.5490  -19.1442   27.0215 C   0  0  0  0  0  0  0  0  0  0  0  0
   12.4570  -20.0203   27.4835 N   0  0  0  0  0  0  0  0  0  0  0  0
   13.6457  -19.4138   27.3489 C   0  0  0  0  0  0  0  0  0  0  0  0
   13.4990  -18.2019   26.8230 N   0  0  0  0  0  0  0  0  0  0  0  0
   10.1278  -16.4053   27.9909 C   0  0  0  0  0  0  0  0  0  0  0  0
   10.1130  -15.2694   28.4968 O   0  0  0  0  0  0  0  0  0  0  0  0
   10.1539  -17.4813   28.8435 O   0  0  0  0  0  0  0  0  0  0  0  0
  2  3  1  0
  2  1  1  6
  4  3  1  0
  4  5  1  0
  5  6  1  0
  7  6  1  0
  8  2  1  0
  9  8  2  0
 11 10  1  1
 11 12  1  0
 13 11  1  0
 13 14  1  6
 14  8  1  0
 15 16  2  0
 15 13  1  0
 17 15  1  0
 18 17  1  0
 18 19  1  6
 20 24  1  0
 20 19  1  0
 21 20  2  0
 22 21  1  0
 22 23  1  0
 23 24  2  0
 25 18  1  0
 25 27  1  0
 26 25  2  0
M  END
$$$$
