KVH.pdb
     RDKit          3D

 27 27  0  0  1  0  0  0  0  0999 V2000
    8.3020  -15.1767   20.7494 N   0  0  0  0  0  0  0  0  0  0  0  0
    7.4519  -15.3825   21.9348 C   0  0  1  0  0  0  0  0  0  0  0  0
    7.1793  -16.8550   21.9935 C   0  0  0  0  0  0  0  0  0  0  0  0
    7.0352  -17.5310   20.6806 C   0  0  0  0  0  0  0  0  0  0  0  0
    8.0140  -18.6088   20.3802 C   0  0  0  0  0  0  0  0  0  0  0  0
    7.7333  -19.4241   19.1630 C   0  0  0  0  0  0  0  0  0  0  0  0
    8.6402  -20.4950   18.9070 N   0  0  0  0  0  0  0  0  0  0  0  0
    8.0813  -14.8471   23.1452 C   0  0  0  0  0  0  0  0  0  0  0  0
    9.3344  -14.7614   23.1931 O   0  0  0  0  0  0  0  0  0  0  0  0
    7.6613  -12.5028   27.5524 C   0  0  0  0  0  0  0  0  0  0  0  0
    7.0172  -13.0171   26.2859 C   0  0  1  0  0  0  0  0  0  0  0  0
    6.4783  -11.8376   25.5051 C   0  0  0  0  0  0  0  0  0  0  0  0
    7.9684  -13.8606   25.4697 C   0  0  2  0  0  0  0  0  0  0  0  0
    7.3671  -14.4073   24.2947 N   0  0  0  0  0  0  0  0  0  0  0  0
    8.4432  -14.9604   26.3733 C   0  0  0  0  0  0  0  0  0  0  0  0
    7.6341  -15.7791   26.8601 O   0  0  0  0  0  0  0  0  0  0  0  0
    9.8266  -15.0731   26.6793 N   0  0  0  0  0  0  0  0  0  0  0  0
   10.3412  -16.1462   27.5606 C   0  0  1  0  0  0  0  0  0  0  0  0
   11.7638  -16.4020   27.1775 C   0  0  0  0  0  0  0  0  0  0  0  0
   11.9652  -17.0055   25.8646 C   0  0  0  0  0  0  0  0  0  0  0  0
   10.9137  -17.4113   25.0360 C   0  0  0  0  0  0  0  0  0  0  0  0
   11.4224  -17.9248   23.9032 N   0  0  0  0  0  0  0  0  0  0  0  0
   12.7546  -17.8367   24.0326 C   0  0  0  0  0  0  0  0  0  0  0  0
   13.0790  -17.2896   25.1997 N   0  0  0  0  0  0  0  0  0  0  0  0
   10.2877  -15.6243   28.9450 C   0  0  0  0  0  0  0  0  0  0  0  0
   10.0376  -14.4316   29.1927 O   0  0  0  0  0  0  0  0  0  0  0  0
   10.5173  -16.4607   30.0095 O   0  0  0  0  0  0  0  0  0  0  0  0
  2  3  1  0
  2  1  1  6
  4  3  1  0
  4  5  1  0
  5  6  1  0
  7  6  1  0
  8  2  1  0
  9  8  2  0
 11 10  1  1
 11 12  1  0
 13 11  1  0
 13 14  1  6
 14  8  1  0
 15 16  2  0
 15 13  1  0
 17 15  1  0
 18 17  1  0
 18 19  1  6
 20 24  1  0
 20 19  1  0
 21 20  2  0
 22 21  1  0
 22 23  1  0
 23 24  2  0
 25 18  1  0
 25 27  1  0
 26 25  2  0
M  END
$$$$
