KVH.pdb
     RDKit          3D

 27 27  0  0  1  0  0  0  0  0999 V2000
    9.0776  -17.7372   16.4778 N   0  0  0  0  0  0  0  0  0  0  0  0
    8.1232  -17.4907   17.5726 C   0  0  1  0  0  0  0  0  0  0  0  0
    7.7203  -18.8428   18.0778 C   0  0  0  0  0  0  0  0  0  0  0  0
    6.4478  -19.3759   17.5319 C   0  0  0  0  0  0  0  0  0  0  0  0
    6.5390  -20.1230   16.2500 C   0  0  0  0  0  0  0  0  0  0  0  0
    5.2553  -20.6658   15.7185 C   0  0  0  0  0  0  0  0  0  0  0  0
    5.3083  -21.2180   14.4043 N   0  0  0  0  0  0  0  0  0  0  0  0
    8.7005  -16.6209   18.6012 C   0  0  0  0  0  0  0  0  0  0  0  0
    9.9105  -16.7632   18.9101 O   0  0  0  0  0  0  0  0  0  0  0  0
    8.1277  -12.9549   21.9897 C   0  0  0  0  0  0  0  0  0  0  0  0
    7.5713  -13.7282   20.8167 C   0  0  1  0  0  0  0  0  0  0  0  0
    7.2956  -12.7591   19.6869 C   0  0  0  0  0  0  0  0  0  0  0  0
    8.4856  -14.8552   20.3971 C   0  0  2  0  0  0  0  0  0  0  0  0
    7.9806  -15.6060   19.2915 N   0  0  0  0  0  0  0  0  0  0  0  0
    8.6482  -15.7399   21.5982 C   0  0  0  0  0  0  0  0  0  0  0  0
    7.6770  -16.3814   22.0532 O   0  0  0  0  0  0  0  0  0  0  0  0
    9.9188  -15.8500   22.2254 N   0  0  0  0  0  0  0  0  0  0  0  0
   10.1199  -16.6898   23.4284 C   0  0  1  0  0  0  0  0  0  0  0  0
   11.0202  -17.8204   23.0447 C   0  0  0  0  0  0  0  0  0  0  0  0
   10.3872  -18.9097   22.3091 C   0  0  0  0  0  0  0  0  0  0  0  0
    9.0201  -18.9453   22.0143 C   0  0  0  0  0  0  0  0  0  0  0  0
    8.7489  -20.0704   21.3314 N   0  0  0  0  0  0  0  0  0  0  0  0
    9.9211  -20.7109   21.2095 C   0  0  0  0  0  0  0  0  0  0  0  0
   10.8971  -20.0210   21.7911 N   0  0  0  0  0  0  0  0  0  0  0  0
   10.7948  -15.8396   24.4350 C   0  0  0  0  0  0  0  0  0  0  0  0
   11.3422  -14.7648   24.1325 O   0  0  0  0  0  0  0  0  0  0  0  0
   10.8333  -16.2245   25.7525 O   0  0  0  0  0  0  0  0  0  0  0  0
  2  3  1  0
  2  1  1  6
  4  3  1  0
  4  5  1  0
  5  6  1  0
  7  6  1  0
  8  2  1  0
  9  8  2  0
 11 10  1  1
 11 12  1  0
 13 11  1  0
 13 14  1  6
 14  8  1  0
 15 16  2  0
 15 13  1  0
 17 15  1  0
 18 17  1  0
 18 19  1  6
 20 24  1  0
 20 19  1  0
 21 20  2  0
 22 21  1  0
 22 23  1  0
 23 24  2  0
 25 18  1  0
 25 27  1  0
 26 25  2  0
M  END
$$$$
