DIL.pdb
     RDKit          3D

 25 24  0  0  1  0  0  0  0  0999 V2000
   24.0538  -20.6251  -14.1112 N   0  0  0  0  0  0  0  0  0  0  0  0
   23.0723  -20.1786  -13.1729 C   0  0  1  0  0  0  0  0  0  0  0  0
   21.7141  -20.1840  -13.8576 C   0  0  0  0  0  0  0  0  0  0  0  0
   21.7907  -19.1949  -14.9598 C   0  0  0  0  0  0  0  0  0  0  0  0
   22.4503  -18.1211  -14.8001 O   0  0  0  0  0  0  0  0  0  0  0  0
   23.0265  -21.1050  -11.9675 C   0  0  0  0  0  0  0  0  0  0  0  0
   23.0183  -22.3264  -12.1717 O   0  0  0  0  0  0  0  0  0  0  0  0
   21.1768  -19.3669  -16.1812 O   0  0  0  0  0  0  0  0  0  0  0  0
   25.9084  -19.6118   -7.6423 C   0  0  0  0  0  0  0  0  0  0  0  0
   25.1810  -20.4926   -8.6117 C   0  0  0  0  0  0  0  0  0  0  0  0
   23.6932  -20.6089   -8.3352 C   0  0  2  0  0  0  0  0  0  0  0  0
   23.6290  -21.4561   -7.0543 C   0  0  0  0  0  0  0  0  0  0  0  0
   22.9766  -21.3571   -9.4336 C   0  0  2  0  0  0  0  0  0  0  0  0
   22.9948  -20.5809  -10.6726 N   0  0  0  0  0  0  0  0  0  0  0  0
   21.5805  -21.6089   -9.0300 C   0  0  0  0  0  0  0  0  0  0  0  0
   20.7888  -20.5972   -8.9126 O   0  0  0  0  0  0  0  0  0  0  0  0
   16.6322  -23.5508   -9.6771 C   0  0  0  0  0  0  0  0  0  0  0  0
   17.6159  -24.4737   -9.0417 C   0  0  1  0  0  0  0  0  0  0  0  0
   17.4133  -25.9085   -9.5381 C   0  0  0  0  0  0  0  0  0  0  0  0
   19.0080  -24.0424   -9.1007 C   0  0  0  0  0  0  0  0  0  0  0  0
   19.5447  -22.9241   -8.2902 C   0  0  2  0  0  0  0  0  0  0  0  0
   20.9878  -22.8506   -8.7559 N   0  0  0  0  0  0  0  0  0  0  0  0
   19.5890  -23.2131   -6.8484 C   0  0  0  0  0  0  0  0  0  0  0  0
   20.6077  -23.8276   -6.3377 O   0  0  0  0  0  0  0  0  0  0  0  0
   18.6352  -22.8900   -5.9081 O   0  0  0  0  0  0  0  0  0  0  0  0
  2  1  1  6
  2  3  1  0
  3  4  1  0
  4  8  1  0
  4  5  2  0
  6  7  2  0
  6  2  1  0
  9 10  1  0
 11 10  1  0
 11 13  1  0
 11 12  1  1
 13 14  1  6
 14  6  1  0
 15 13  1  0
 15 16  2  0
 18 17  1  6
 19 18  1  0
 20 18  1  0
 21 22  1  0
 21 20  1  6
 22 15  1  0
 23 21  1  0
 24 23  2  0
 25 23  1  0
M  END
$$$$
