DIL.pdb
     RDKit          3D

 25 24  0  0  1  0  0  0  0  0999 V2000
   16.0819  -13.4591  -17.5131 N   0  0  0  0  0  0  0  0  0  0  0  0
   16.4985  -12.7305  -16.3561 C   0  0  1  0  0  0  0  0  0  0  0  0
   17.3461  -13.6481  -15.4884 C   0  0  0  0  0  0  0  0  0  0  0  0
   16.4070  -14.5601  -14.7918 C   0  0  0  0  0  0  0  0  0  0  0  0
   16.8588  -15.5368  -14.1167 O   0  0  0  0  0  0  0  0  0  0  0  0
   17.3265  -11.5196  -16.7579 C   0  0  0  0  0  0  0  0  0  0  0  0
   18.3119  -11.7032  -17.4852 O   0  0  0  0  0  0  0  0  0  0  0  0
   15.0373  -14.4157  -14.8283 O   0  0  0  0  0  0  0  0  0  0  0  0
   14.3527   -7.3328  -17.8246 C   0  0  0  0  0  0  0  0  0  0  0  0
   15.6622   -8.0448  -17.9761 C   0  0  0  0  0  0  0  0  0  0  0  0
   16.5893   -7.8804  -16.7857 C   0  0  2  0  0  0  0  0  0  0  0  0
   17.3259   -6.5639  -17.0808 C   0  0  0  0  0  0  0  0  0  0  0  0
   17.6118   -8.9891  -16.7154 C   0  0  2  0  0  0  0  0  0  0  0  0
   16.9753  -10.2424  -16.3130 N   0  0  0  0  0  0  0  0  0  0  0  0
   18.6598   -8.6331  -15.7404 C   0  0  0  0  0  0  0  0  0  0  0  0
   18.3047   -8.4025  -14.5219 O   0  0  0  0  0  0  0  0  0  0  0  0
   23.9017  -10.4763  -15.3758 C   0  0  0  0  0  0  0  0  0  0  0  0
   22.5334  -10.0210  -14.9969 C   0  0  1  0  0  0  0  0  0  0  0  0
   22.1915  -10.4586  -13.5694 C   0  0  0  0  0  0  0  0  0  0  0  0
   22.2520   -8.6111  -15.2427 C   0  0  0  0  0  0  0  0  0  0  0  0
   20.9587   -7.9721  -14.9041 C   0  0  2  0  0  0  0  0  0  0  0  0
   20.0371   -8.5169  -15.9806 N   0  0  0  0  0  0  0  0  0  0  0  0
   20.9666   -6.5100  -15.0667 C   0  0  0  0  0  0  0  0  0  0  0  0
   21.4153   -5.7510  -14.1186 O   0  0  0  0  0  0  0  0  0  0  0  0
   20.5413   -5.7954  -16.1651 O   0  0  0  0  0  0  0  0  0  0  0  0
  2  1  1  6
  2  3  1  0
  3  4  1  0
  4  8  1  0
  4  5  2  0
  6  7  2  0
  6  2  1  0
  9 10  1  0
 11 10  1  0
 11 13  1  0
 11 12  1  6
 13 14  1  1
 14  6  1  0
 15 13  1  0
 15 16  2  0
 18 17  1  1
 19 18  1  0
 20 18  1  0
 21 22  1  0
 21 20  1  6
 22 15  1  0
 23 21  1  0
 24 23  2  0
 25 23  1  0
M  END
$$$$
