DIL.pdb
     RDKit          3D

 25 24  0  0  1  0  0  0  0  0999 V2000
   18.1138  -15.3674  -18.1169 N   0  0  0  0  0  0  0  0  0  0  0  0
   17.9494  -14.3177  -17.1609 C   0  0  1  0  0  0  0  0  0  0  0  0
   18.5033  -14.7911  -15.8257 C   0  0  0  0  0  0  0  0  0  0  0  0
   17.5491  -15.7992  -15.3040 C   0  0  0  0  0  0  0  0  0  0  0  0
   17.9075  -17.0135  -15.1996 O   0  0  0  0  0  0  0  0  0  0  0  0
   18.7045  -13.0728  -17.6005 C   0  0  0  0  0  0  0  0  0  0  0  0
   19.6594  -13.2145  -18.3763 O   0  0  0  0  0  0  0  0  0  0  0  0
   16.2624  -15.4992  -14.9133 O   0  0  0  0  0  0  0  0  0  0  0  0
   17.4362   -7.3287  -19.0778 C   0  0  0  0  0  0  0  0  0  0  0  0
   18.4294   -8.2516  -18.4403 C   0  0  0  0  0  0  0  0  0  0  0  0
   17.8569   -9.6092  -18.0761 C   0  0  2  0  0  0  0  0  0  0  0  0
   16.8665   -9.2917  -16.9443 C   0  0  0  0  0  0  0  0  0  0  0  0
   18.9171  -10.5357  -17.5308 C   0  0  2  0  0  0  0  0  0  0  0  0
   18.3224  -11.8117  -17.1357 N   0  0  0  0  0  0  0  0  0  0  0  0
   19.5652   -9.9111  -16.3624 C   0  0  0  0  0  0  0  0  0  0  0  0
   18.8988   -9.8444  -15.2599 O   0  0  0  0  0  0  0  0  0  0  0  0
   24.8126  -10.7416  -15.1740 C   0  0  0  0  0  0  0  0  0  0  0  0
   23.3481  -10.5733  -14.9507 C   0  0  1  0  0  0  0  0  0  0  0  0
   22.9177  -11.2439  -13.6425 C   0  0  0  0  0  0  0  0  0  0  0  0
   22.8469   -9.2100  -15.0829 C   0  0  0  0  0  0  0  0  0  0  0  0
   21.4106   -8.8612  -14.9790 C   0  0  2  0  0  0  0  0  0  0  0  0
   20.8580   -9.3699  -16.2985 N   0  0  0  0  0  0  0  0  0  0  0  0
   21.1592   -7.4118  -14.9560 C   0  0  0  0  0  0  0  0  0  0  0  0
   21.0452   -6.7522  -16.0642 O   0  0  0  0  0  0  0  0  0  0  0  0
   21.0115   -6.6133  -13.8431 O   0  0  0  0  0  0  0  0  0  0  0  0
  2  1  1  6
  2  3  1  0
  3  4  1  0
  4  8  1  0
  4  5  2  0
  6  7  2  0
  6  2  1  0
  9 10  1  0
 11 10  1  0
 11 13  1  0
 11 12  1  1
 13 14  1  1
 14  6  1  0
 15 13  1  0
 15 16  2  0
 18 17  1  1
 19 18  1  0
 20 18  1  0
 21 22  1  0
 21 20  1  6
 22 15  1  0
 23 21  1  0
 24 23  2  0
 25 23  1  0
M  END
$$$$
