DIL.pdb
     RDKit          3D

 25 24  0  0  1  0  0  0  0  0999 V2000
   18.3112  -24.3883  -13.7569 N   0  0  0  0  0  0  0  0  0  0  0  0
   17.9199  -23.4818  -12.7234 C   0  0  1  0  0  0  0  0  0  0  0  0
   16.4077  -23.5462  -12.5734 C   0  0  0  0  0  0  0  0  0  0  0  0
   15.8397  -22.6566  -13.6149 C   0  0  0  0  0  0  0  0  0  0  0  0
   16.5859  -22.2136  -14.5427 O   0  0  0  0  0  0  0  0  0  0  0  0
   18.5686  -23.8666  -11.4026 C   0  0  0  0  0  0  0  0  0  0  0  0
   18.9613  -25.0330  -11.2647 O   0  0  0  0  0  0  0  0  0  0  0  0
   14.5187  -22.2663  -13.6453 O   0  0  0  0  0  0  0  0  0  0  0  0
   21.3740  -19.8639   -8.9608 C   0  0  0  0  0  0  0  0  0  0  0  0
   20.9289  -21.2213   -9.4123 C   0  0  0  0  0  0  0  0  0  0  0  0
   19.8671  -21.8438   -8.5243 C   0  0  2  0  0  0  0  0  0  0  0  0
   20.6202  -22.1469   -7.2190 C   0  0  0  0  0  0  0  0  0  0  0  0
   19.3580  -23.1477   -9.0903 C   0  0  2  0  0  0  0  0  0  0  0  0
   18.7116  -22.9226  -10.3824 N   0  0  0  0  0  0  0  0  0  0  0  0
   18.3906  -23.7487   -8.1531 C   0  0  0  0  0  0  0  0  0  0  0  0
   17.2511  -23.1644   -7.9965 O   0  0  0  0  0  0  0  0  0  0  0  0
   14.9543  -27.3162   -6.3528 C   0  0  0  0  0  0  0  0  0  0  0  0
   16.3793  -27.7153   -6.1709 C   0  0  1  0  0  0  0  0  0  0  0  0
   16.5848  -29.1843   -6.5530 C   0  0  0  0  0  0  0  0  0  0  0  0
   17.3616  -26.8260   -6.7805 C   0  0  0  0  0  0  0  0  0  0  0  0
   17.4609  -25.3839   -6.4551 C   0  0  2  0  0  0  0  0  0  0  0  0
   18.5593  -24.9156   -7.3929 N   0  0  0  0  0  0  0  0  0  0  0  0
   17.9427  -25.1226   -5.0898 C   0  0  0  0  0  0  0  0  0  0  0  0
   17.1085  -25.0827   -4.1005 O   0  0  0  0  0  0  0  0  0  0  0  0
   19.2459  -24.9092   -4.6969 O   0  0  0  0  0  0  0  0  0  0  0  0
  2  1  1  6
  2  3  1  0
  3  4  1  0
  4  8  1  0
  4  5  2  0
  6  7  2  0
  6  2  1  0
  9 10  1  0
 11 10  1  0
 11 13  1  0
 11 12  1  1
 13 14  1  6
 14  6  1  0
 15 13  1  0
 15 16  2  0
 18 17  1  6
 19 18  1  0
 20 18  1  0
 21 22  1  0
 21 20  1  1
 22 15  1  0
 23 21  1  0
 24 23  2  0
 25 23  1  0
M  END
$$$$
