DIL.pdb
     RDKit          3D

 25 24  0  0  1  0  0  0  0  0999 V2000
   28.0424  -20.9806  -16.2413 N   0  0  0  0  0  0  0  0  0  0  0  0
   27.4072  -20.0519  -15.3598 C   0  0  1  0  0  0  0  0  0  0  0  0
   26.5439  -19.1138  -16.1893 C   0  0  0  0  0  0  0  0  0  0  0  0
   27.4720  -18.2855  -16.9965 C   0  0  0  0  0  0  0  0  0  0  0  0
   28.7208  -18.5152  -16.9567 O   0  0  0  0  0  0  0  0  0  0  0  0
   26.5275  -20.7836  -14.3579 C   0  0  0  0  0  0  0  0  0  0  0  0
   25.9187  -21.7907  -14.7439 O   0  0  0  0  0  0  0  0  0  0  0  0
   27.0595  -17.2533  -17.8105 O   0  0  0  0  0  0  0  0  0  0  0  0
   28.1315  -20.8128   -9.1563 C   0  0  0  0  0  0  0  0  0  0  0  0
   27.4380  -21.2539  -10.4090 C   0  0  0  0  0  0  0  0  0  0  0  0
   26.0990  -20.5770  -10.6379 C   0  0  2  0  0  0  0  0  0  0  0  0
   25.1805  -21.2308   -9.5931 C   0  0  0  0  0  0  0  0  0  0  0  0
   25.5459  -20.8800  -12.0097 C   0  0  2  0  0  0  0  0  0  0  0  0
   26.4176  -20.3232  -13.0432 N   0  0  0  0  0  0  0  0  0  0  0  0
   24.1963  -20.2989  -12.1374 C   0  0  0  0  0  0  0  0  0  0  0  0
   24.0509  -19.0392  -11.9000 O   0  0  0  0  0  0  0  0  0  0  0  0
   21.6548  -19.9125  -16.5214 C   0  0  0  0  0  0  0  0  0  0  0  0
   21.5040  -20.5667  -15.1901 C   0  0  1  0  0  0  0  0  0  0  0  0
   22.2679  -21.8936  -15.1476 C   0  0  0  0  0  0  0  0  0  0  0  0
   21.7790  -19.7146  -14.0388 C   0  0  0  0  0  0  0  0  0  0  0  0
   21.7146  -20.1977  -12.6395 C   0  0  2  0  0  0  0  0  0  0  0  0
   23.0171  -20.9656  -12.5021 N   0  0  0  0  0  0  0  0  0  0  0  0
   20.6346  -21.1685  -12.4034 C   0  0  0  0  0  0  0  0  0  0  0  0
   20.8984  -22.4344  -12.3395 O   0  0  0  0  0  0  0  0  0  0  0  0
   19.2971  -20.8931  -12.2217 O   0  0  0  0  0  0  0  0  0  0  0  0
  2  1  1  6
  2  3  1  0
  3  4  1  0
  4  8  1  0
  4  5  2  0
  6  7  2  0
  6  2  1  0
  9 10  1  0
 11 10  1  0
 11 13  1  0
 11 12  1  1
 13 14  1  6
 14  6  1  0
 15 13  1  0
 15 16  2  0
 18 17  1  6
 19 18  1  0
 20 18  1  0
 21 22  1  0
 21 20  1  6
 22 15  1  0
 23 21  1  0
 24 23  2  0
 25 23  1  0
M  END
$$$$
