DIL.pdb
     RDKit          3D

 25 24  0  0  1  0  0  0  0  0999 V2000
   19.8519  -20.6934  -11.3414 N   0  0  0  0  0  0  0  0  0  0  0  0
   20.5825  -21.2902  -12.4152 C   0  0  1  0  0  0  0  0  0  0  0  0
   19.7085  -21.2743  -13.6599 C   0  0  0  0  0  0  0  0  0  0  0  0
   18.6027  -22.2311  -13.4141 C   0  0  0  0  0  0  0  0  0  0  0  0
   18.4856  -22.7822  -12.2756 O   0  0  0  0  0  0  0  0  0  0  0  0
   21.8579  -20.5089  -12.6917 C   0  0  0  0  0  0  0  0  0  0  0  0
   21.8294  -19.2789  -12.5505 O   0  0  0  0  0  0  0  0  0  0  0  0
   17.6661  -22.5730  -14.3650 O   0  0  0  0  0  0  0  0  0  0  0  0
   26.2552  -21.7111  -10.2445 C   0  0  0  0  0  0  0  0  0  0  0  0
   25.2160  -21.0264  -11.0787 C   0  0  0  0  0  0  0  0  0  0  0  0
   25.4040  -21.2219  -12.5721 C   0  0  2  0  0  0  0  0  0  0  0  0
   26.7309  -20.5038  -12.8661 C   0  0  0  0  0  0  0  0  0  0  0  0
   24.3134  -20.5446  -13.3668 C   0  0  2  0  0  0  0  0  0  0  0  0
   23.0211  -21.1712  -13.0926 N   0  0  0  0  0  0  0  0  0  0  0  0
   24.6154  -20.6472  -14.8068 C   0  0  0  0  0  0  0  0  0  0  0  0
   24.7659  -21.8233  -15.3150 O   0  0  0  0  0  0  0  0  0  0  0  0
   22.3899  -18.8650  -19.8141 C   0  0  0  0  0  0  0  0  0  0  0  0
   23.4824  -19.6840  -19.2150 C   0  0  1  0  0  0  0  0  0  0  0  0
   24.6608  -19.8102  -20.1854 C   0  0  0  0  0  0  0  0  0  0  0  0
   23.8918  -19.2945  -17.8703 C   0  0  0  0  0  0  0  0  0  0  0  0
   25.0650  -19.8792  -17.1795 C   0  0  2  0  0  0  0  0  0  0  0  0
   24.7574  -19.5922  -15.7207 N   0  0  0  0  0  0  0  0  0  0  0  0
   26.3278  -19.1870  -17.4804 C   0  0  0  0  0  0  0  0  0  0  0  0
   27.1936  -19.7272  -18.2771 O   0  0  0  0  0  0  0  0  0  0  0  0
   26.7347  -17.9598  -17.0043 O   0  0  0  0  0  0  0  0  0  0  0  0
  2  1  1  1
  2  3  1  0
  3  4  1  0
  4  8  1  0
  4  5  2  0
  6  7  2  0
  6  2  1  0
  9 10  1  0
 11 10  1  0
 11 13  1  0
 11 12  1  6
 13 14  1  6
 14  6  1  0
 15 13  1  0
 15 16  2  0
 18 17  1  6
 19 18  1  0
 20 18  1  0
 21 22  1  0
 21 20  1  6
 22 15  1  0
 23 21  1  0
 24 23  2  0
 25 23  1  0
M  END
$$$$
