DIL.pdb
     RDKit          3D

 25 24  0  0  1  0  0  0  0  0999 V2000
   27.8242  -22.4095  -16.1851 N   0  0  0  0  0  0  0  0  0  0  0  0
   27.2482  -21.2269  -15.6260 C   0  0  1  0  0  0  0  0  0  0  0  0
   26.5331  -20.4692  -16.7343 C   0  0  0  0  0  0  0  0  0  0  0  0
   27.5841  -19.9703  -17.6536 C   0  0  0  0  0  0  0  0  0  0  0  0
   27.3859  -19.9875  -18.9083 O   0  0  0  0  0  0  0  0  0  0  0  0
   26.2457  -21.5841  -14.5394 C   0  0  0  0  0  0  0  0  0  0  0  0
   25.3561  -22.4008  -14.8135 O   0  0  0  0  0  0  0  0  0  0  0  0
   28.7966  -19.4746  -17.2267 O   0  0  0  0  0  0  0  0  0  0  0  0
   27.9284  -20.8758   -9.2898 C   0  0  0  0  0  0  0  0  0  0  0  0
   27.2306  -21.4344  -10.4922 C   0  0  0  0  0  0  0  0  0  0  0  0
   25.9781  -20.6711  -10.8823 C   0  0  2  0  0  0  0  0  0  0  0  0
   24.9935  -20.9872   -9.7451 C   0  0  0  0  0  0  0  0  0  0  0  0
   25.3893  -21.1848  -12.1743 C   0  0  2  0  0  0  0  0  0  0  0  0
   26.3365  -21.0010  -13.2728 N   0  0  0  0  0  0  0  0  0  0  0  0
   24.1416  -20.4569  -12.4721 C   0  0  0  0  0  0  0  0  0  0  0  0
   24.2042  -19.1770  -12.6210 O   0  0  0  0  0  0  0  0  0  0  0  0
   21.7828  -20.7164  -16.8337 C   0  0  0  0  0  0  0  0  0  0  0  0
   22.1165  -20.0509  -15.5418 C   0  0  1  0  0  0  0  0  0  0  0  0
   22.0609  -18.5270  -15.6858 C   0  0  0  0  0  0  0  0  0  0  0  0
   21.3851  -20.5396  -14.3783 C   0  0  0  0  0  0  0  0  0  0  0  0
   21.6861  -20.1092  -12.9928 C   0  0  2  0  0  0  0  0  0  0  0  0
   22.8577  -21.0016  -12.6242 N   0  0  0  0  0  0  0  0  0  0  0  0
   20.6124  -20.4191  -12.0361 C   0  0  0  0  0  0  0  0  0  0  0  0
   20.5825  -21.5676  -11.4391 O   0  0  0  0  0  0  0  0  0  0  0  0
   19.5733  -19.5962  -11.6605 O   0  0  0  0  0  0  0  0  0  0  0  0
  2  1  1  6
  2  3  1  0
  3  4  1  0
  4  8  1  0
  4  5  2  0
  6  7  2  0
  6  2  1  0
  9 10  1  0
 11 10  1  0
 11 13  1  0
 11 12  1  1
 13 14  1  6
 14  6  1  0
 15 13  1  0
 15 16  2  0
 18 17  1  6
 19 18  1  0
 20 18  1  0
 21 22  1  0
 21 20  1  6
 22 15  1  0
 23 21  1  0
 24 23  2  0
 25 23  1  0
M  END
$$$$
