DIL.pdb
     RDKit          3D

 25 24  0  0  1  0  0  0  0  0999 V2000
   26.1283  -21.4704  -14.8174 N   0  0  0  0  0  0  0  0  0  0  0  0
   27.1631  -20.5708  -14.4143 C   0  0  1  0  0  0  0  0  0  0  0  0
   27.2746  -19.4674  -15.4552 C   0  0  0  0  0  0  0  0  0  0  0  0
   27.8784  -20.0821  -16.6621 C   0  0  0  0  0  0  0  0  0  0  0  0
   27.1290  -20.5362  -17.5818 O   0  0  0  0  0  0  0  0  0  0  0  0
   26.8354  -19.9512  -13.0644 C   0  0  0  0  0  0  0  0  0  0  0  0
   27.3357  -18.8517  -12.7915 O   0  0  0  0  0  0  0  0  0  0  0  0
   29.2372  -20.1974  -16.8592 O   0  0  0  0  0  0  0  0  0  0  0  0
   21.7543  -19.9371   -9.6730 C   0  0  0  0  0  0  0  0  0  0  0  0
   23.2337  -19.7063   -9.7277 C   0  0  0  0  0  0  0  0  0  0  0  0
   23.9069  -20.3359  -10.9335 C   0  0  2  0  0  0  0  0  0  0  0  0
   23.7337  -21.8448  -10.6970 C   0  0  0  0  0  0  0  0  0  0  0  0
   25.3850  -20.0298  -10.9724 C   0  0  2  0  0  0  0  0  0  0  0  0
   25.9933  -20.6131  -12.1672 N   0  0  0  0  0  0  0  0  0  0  0  0
   26.0352  -20.5812   -9.7688 C   0  0  0  0  0  0  0  0  0  0  0  0
   26.3809  -21.8240   -9.7789 O   0  0  0  0  0  0  0  0  0  0  0  0
   29.8106  -18.7451   -5.4927 C   0  0  0  0  0  0  0  0  0  0  0  0
   28.8546  -19.8482   -5.7963 C   0  0  1  0  0  0  0  0  0  0  0  0
   28.0887  -20.2649   -4.5369 C   0  0  0  0  0  0  0  0  0  0  0  0
   27.9831  -19.6236   -6.9441 C   0  0  0  0  0  0  0  0  0  0  0  0
   27.0072  -20.6276   -7.4290 C   0  0  2  0  0  0  0  0  0  0  0  0
   26.3390  -19.8989   -8.5812 N   0  0  0  0  0  0  0  0  0  0  0  0
   25.9442  -20.9292   -6.4577 C   0  0  0  0  0  0  0  0  0  0  0  0
   24.9425  -20.1214   -6.3157 O   0  0  0  0  0  0  0  0  0  0  0  0
   25.8626  -22.0294   -5.6326 O   0  0  0  0  0  0  0  0  0  0  0  0
  2  1  1  6
  2  3  1  0
  3  4  1  0
  4  8  1  0
  4  5  2  0
  6  7  2  0
  6  2  1  0
  9 10  1  0
 11 10  1  0
 11 13  1  0
 11 12  1  1
 13 14  1  6
 14  6  1  0
 15 13  1  0
 15 16  2  0
 18 17  1  1
 19 18  1  0
 20 18  1  0
 21 22  1  0
 21 20  1  1
 22 15  1  0
 23 21  1  0
 24 23  2  0
 25 23  1  0
M  END
$$$$
