WGL.pdb
     RDKit          3D

 27 28  0  0  1  0  0  0  0  0999 V2000
   26.2037  -22.2438  -12.1715 N   0  0  0  0  0  0  0  0  0  0  0  0
   26.3811  -21.4518  -10.9787 C   0  0  1  0  0  0  0  0  0  0  0  0
   27.4215  -20.3812  -11.2246 C   0  0  0  0  0  0  0  0  0  0  0  0
   28.7293  -21.0226  -11.5087 C   0  0  0  0  0  0  0  0  0  0  0  0
   29.3055  -21.3513  -12.6998 C   0  0  0  0  0  0  0  0  0  0  0  0
   30.4970  -21.9158  -12.4630 N   0  0  0  0  0  0  0  0  0  0  0  0
   30.7211  -21.9674  -11.1360 C   0  0  0  0  0  0  0  0  0  0  0  0
   31.7451  -22.4278  -10.3584 C   0  0  0  0  0  0  0  0  0  0  0  0
   31.6637  -22.3295   -8.9851 C   0  0  0  0  0  0  0  0  0  0  0  0
   30.5731  -21.7769   -8.3594 C   0  0  0  0  0  0  0  0  0  0  0  0
   29.5478  -21.3160   -9.1369 C   0  0  0  0  0  0  0  0  0  0  0  0
   29.6147  -21.4077  -10.5235 C   0  0  0  0  0  0  0  0  0  0  0  0
   25.0934  -20.8126  -10.5996 C   0  0  0  0  0  0  0  0  0  0  0  0
   25.0847  -20.1498   -9.5157 O   0  0  0  0  0  0  0  0  0  0  0  0
   23.9662  -20.9625  -11.4331 N   0  0  0  0  0  0  0  0  0  0  0  0
   22.8596  -20.0596  -11.2993 C   0  0  0  0  0  0  0  0  0  0  0  0
   21.8536  -20.3813  -12.3436 C   0  0  0  0  0  0  0  0  0  0  0  0
   22.0076  -19.9106  -13.4946 O   0  0  0  0  0  0  0  0  0  0  0  0
   20.1025  -24.8140  -15.1566 C   0  0  0  0  0  0  0  0  0  0  0  0
   19.5346  -23.4208  -14.8457 C   0  0  2  0  0  0  0  0  0  0  0  0
   19.6418  -22.6278  -16.1074 C   0  0  0  0  0  0  0  0  0  0  0  0
   20.3282  -22.9019  -13.6975 C   0  0  0  0  0  0  0  0  0  0  0  0
   19.8538  -21.5784  -13.1453 C   0  0  2  0  0  0  0  0  0  0  0  0
   20.7231  -21.2074  -12.0724 N   0  0  0  0  0  0  0  0  0  0  0  0
   18.4360  -21.5486  -12.8055 C   0  0  0  0  0  0  0  0  0  0  0  0
   18.0265  -22.0495  -11.7381 O   0  0  0  0  0  0  0  0  0  0  0  0
   17.5263  -20.9644  -13.6630 O   0  0  0  0  0  0  0  0  0  0  0  0
  2  1  1  6
  3  2  1  0
  3  4  1  0
  4  5  2  0
  5  6  1  0
  7  8  2  0
  7  6  1  0
  9  8  1  0
 10  9  2  0
 11 10  1  0
 11 12  2  0
 12  4  1  0
 12  7  1  0
 13  2  1  0
 13 15  1  0
 14 13  2  0
 16 15  1  0
 17 16  1  0
 18 17  2  0
 20 21  1  6
 20 22  1  0
 20 19  1  0
 23 24  1  0
 23 22  1  1
 24 17  1  0
 25 23  1  0
 26 25  2  0
 27 25  1  0
M  END
$$$$
