WGL.pdb
     RDKit          3D

 27 28  0  0  1  0  0  0  0  0999 V2000
   27.6827  -21.7566  -11.0519 N   0  0  0  0  0  0  0  0  0  0  0  0
   26.6047  -20.9580  -10.5211 C   0  0  1  0  0  0  0  0  0  0  0  0
   27.1654  -19.7309   -9.8362 C   0  0  0  0  0  0  0  0  0  0  0  0
   28.1905  -20.1455   -8.8465 C   0  0  0  0  0  0  0  0  0  0  0  0
   29.3307  -20.8734   -9.0161 C   0  0  0  0  0  0  0  0  0  0  0  0
   29.9443  -20.9990   -7.8320 N   0  0  0  0  0  0  0  0  0  0  0  0
   29.2311  -20.3674   -6.8801 C   0  0  0  0  0  0  0  0  0  0  0  0
   29.3876  -20.1816   -5.5361 C   0  0  0  0  0  0  0  0  0  0  0  0
   28.4481  -19.4626   -4.8272 C   0  0  0  0  0  0  0  0  0  0  0  0
   27.3422  -18.9172   -5.4321 C   0  0  0  0  0  0  0  0  0  0  0  0
   27.1848  -19.1026   -6.7770 C   0  0  0  0  0  0  0  0  0  0  0  0
   28.1236  -19.8254   -7.5064 C   0  0  0  0  0  0  0  0  0  0  0  0
   25.6962  -20.5391  -11.6210 C   0  0  0  0  0  0  0  0  0  0  0  0
   26.1515  -19.6801  -12.4389 O   0  0  0  0  0  0  0  0  0  0  0  0
   24.4038  -21.0952  -11.7104 N   0  0  0  0  0  0  0  0  0  0  0  0
   23.4802  -20.5910  -12.6853 C   0  0  0  0  0  0  0  0  0  0  0  0
   22.1795  -21.2874  -12.5139 C   0  0  0  0  0  0  0  0  0  0  0  0
   21.8340  -22.1381  -13.3664 O   0  0  0  0  0  0  0  0  0  0  0  0
   19.6908  -24.4605  -10.2770 C   0  0  0  0  0  0  0  0  0  0  0  0
   20.4515  -23.4165   -9.4454 C   0  0  2  0  0  0  0  0  0  0  0  0
   20.2579  -23.7926   -8.0124 C   0  0  0  0  0  0  0  0  0  0  0  0
   19.8924  -22.0935   -9.8382 C   0  0  0  0  0  0  0  0  0  0  0  0
   20.0854  -21.7296  -11.2914 C   0  0  2  0  0  0  0  0  0  0  0  0
   21.3180  -21.0147  -11.4104 N   0  0  0  0  0  0  0  0  0  0  0  0
   18.9411  -21.0556  -11.8938 C   0  0  0  0  0  0  0  0  0  0  0  0
   18.8774  -19.8093  -11.9194 O   0  0  0  0  0  0  0  0  0  0  0  0
   17.9109  -21.7899  -12.4447 O   0  0  0  0  0  0  0  0  0  0  0  0
  2  1  1  6
  3  2  1  0
  3  4  1  0
  4  5  2  0
  5  6  1  0
  7  8  2  0
  7  6  1  0
  9  8  1  0
 10  9  2  0
 11 10  1  0
 11 12  2  0
 12  4  1  0
 12  7  1  0
 13  2  1  0
 13 15  1  0
 14 13  2  0
 16 15  1  0
 17 16  1  0
 18 17  2  0
 20 21  1  1
 20 22  1  0
 20 19  1  0
 23 24  1  0
 23 22  1  1
 24 17  1  0
 25 23  1  0
 26 25  2  0
 27 25  1  0
M  END
$$$$
