WGL.pdb
     RDKit          3D

 27 28  0  0  1  0  0  0  0  0999 V2000
   25.5488  -21.4193  -10.0863 N   0  0  0  0  0  0  0  0  0  0  0  0
   26.6654  -20.5106  -10.1802 C   0  0  1  0  0  0  0  0  0  0  0  0
   27.7429  -20.9197   -9.1999 C   0  0  0  0  0  0  0  0  0  0  0  0
   27.2172  -20.8076   -7.8167 C   0  0  0  0  0  0  0  0  0  0  0  0
   25.9984  -21.1495   -7.3104 C   0  0  0  0  0  0  0  0  0  0  0  0
   25.9778  -20.8641   -6.0017 N   0  0  0  0  0  0  0  0  0  0  0  0
   27.1613  -20.3391   -5.6312 C   0  0  0  0  0  0  0  0  0  0  0  0
   27.6754  -19.8832   -4.4509 C   0  0  0  0  0  0  0  0  0  0  0  0
   28.9636  -19.3925   -4.4056 C   0  0  0  0  0  0  0  0  0  0  0  0
   29.7624  -19.3441   -5.5218 C   0  0  0  0  0  0  0  0  0  0  0  0
   29.2487  -19.8001   -6.7034 C   0  0  0  0  0  0  0  0  0  0  0  0
   27.9512  -20.2982   -6.7656 C   0  0  0  0  0  0  0  0  0  0  0  0
   27.2188  -20.5297  -11.5601 C   0  0  0  0  0  0  0  0  0  0  0  0
   27.8491  -21.5773  -11.9058 O   0  0  0  0  0  0  0  0  0  0  0  0
   27.0278  -19.4179  -12.4055 N   0  0  0  0  0  0  0  0  0  0  0  0
   27.6369  -19.4009  -13.7042 C   0  0  0  0  0  0  0  0  0  0  0  0
   26.7628  -20.1412  -14.6498 C   0  0  0  0  0  0  0  0  0  0  0  0
   27.0649  -20.1546  -15.8657 O   0  0  0  0  0  0  0  0  0  0  0  0
   24.3943  -25.3743  -15.1364 C   0  0  0  0  0  0  0  0  0  0  0  0
   24.2485  -23.9706  -15.7435 C   0  0  2  0  0  0  0  0  0  0  0  0
   24.8289  -24.0407  -17.1185 C   0  0  0  0  0  0  0  0  0  0  0  0
   24.9416  -23.0447  -14.8056 C   0  0  0  0  0  0  0  0  0  0  0  0
   24.8284  -21.5808  -15.1604 C   0  0  2  0  0  0  0  0  0  0  0  0
   25.5951  -20.8335  -14.2126 N   0  0  0  0  0  0  0  0  0  0  0  0
   23.4574  -21.1121  -15.3251 C   0  0  0  0  0  0  0  0  0  0  0  0
   22.9348  -21.0576  -16.4573 O   0  0  0  0  0  0  0  0  0  0  0  0
   22.7182  -20.7215  -14.2273 O   0  0  0  0  0  0  0  0  0  0  0  0
  2  1  1  6
  3  2  1  0
  3  4  1  0
  4  5  2  0
  5  6  1  0
  7  8  2  0
  7  6  1  0
  9  8  1  0
 10  9  2  0
 11 10  1  0
 11 12  2  0
 12  4  1  0
 12  7  1  0
 13  2  1  0
 13 15  1  0
 14 13  2  0
 16 15  1  0
 17 16  1  0
 18 17  2  0
 20 21  1  6
 20 22  1  0
 20 19  1  0
 23 24  1  0
 23 22  1  1
 24 17  1  0
 25 23  1  0
 26 25  2  0
 27 25  1  0
M  END
$$$$
