WGL.pdb
     RDKit          3D

 27 28  0  0  1  0  0  0  0  0999 V2000
   27.0306  -22.0449  -10.9177 N   0  0  0  0  0  0  0  0  0  0  0  0
   25.8789  -21.2264  -10.6258 C   0  0  1  0  0  0  0  0  0  0  0  0
   26.2512  -20.1576   -9.6215 C   0  0  0  0  0  0  0  0  0  0  0  0
   27.4969  -20.5550   -8.9198 C   0  0  0  0  0  0  0  0  0  0  0  0
   28.5662  -21.2725   -9.3679 C   0  0  0  0  0  0  0  0  0  0  0  0
   29.4593  -21.3837   -8.3757 N   0  0  0  0  0  0  0  0  0  0  0  0
   29.0012  -20.7528   -7.2776 C   0  0  0  0  0  0  0  0  0  0  0  0
   29.4885  -20.5562   -6.0170 C   0  0  0  0  0  0  0  0  0  0  0  0
   28.7493  -19.8419   -5.0974 C   0  0  0  0  0  0  0  0  0  0  0  0
   27.5206  -19.3119   -5.4069 C   0  0  0  0  0  0  0  0  0  0  0  0
   27.0322  -19.5082   -6.6683 C   0  0  0  0  0  0  0  0  0  0  0  0
   27.7656  -20.2264   -7.6073 C   0  0  0  0  0  0  0  0  0  0  0  0
   25.3859  -20.5836  -11.8726 C   0  0  0  0  0  0  0  0  0  0  0  0
   26.2275  -19.8936  -12.5282 O   0  0  0  0  0  0  0  0  0  0  0  0
   24.0438  -20.7599  -12.2666 N   0  0  0  0  0  0  0  0  0  0  0  0
   23.0653  -19.7715  -11.9153 C   0  0  0  0  0  0  0  0  0  0  0  0
   21.7236  -20.2657  -12.3173 C   0  0  0  0  0  0  0  0  0  0  0  0
   20.7242  -19.5421  -12.0993 O   0  0  0  0  0  0  0  0  0  0  0  0
   20.4761  -21.9916  -16.3219 C   0  0  0  0  0  0  0  0  0  0  0  0
   21.2308  -22.9533  -15.3914 C   0  0  2  0  0  0  0  0  0  0  0  0
   21.5193  -24.1805  -16.1932 C   0  0  0  0  0  0  0  0  0  0  0  0
   20.3480  -23.1571  -14.2097 C   0  0  0  0  0  0  0  0  0  0  0  0
   20.2254  -21.9607  -13.2958 C   0  0  2  0  0  0  0  0  0  0  0  0
   21.5438  -21.5353  -12.9416 N   0  0  0  0  0  0  0  0  0  0  0  0
   19.3369  -22.1685  -12.1583 C   0  0  0  0  0  0  0  0  0  0  0  0
   18.1015  -22.0417  -12.2839 O   0  0  0  0  0  0  0  0  0  0  0  0
   19.8527  -22.5091  -10.9246 O   0  0  0  0  0  0  0  0  0  0  0  0
  2  1  1  6
  3  2  1  0
  3  4  1  0
  4  5  2  0
  5  6  1  0
  7  8  2  0
  7  6  1  0
  9  8  1  0
 10  9  2  0
 11 10  1  0
 11 12  2  0
 12  4  1  0
 12  7  1  0
 13  2  1  0
 13 15  1  0
 14 13  2  0
 16 15  1  0
 17 16  1  0
 18 17  2  0
 20 21  1  6
 20 22  1  0
 20 19  1  0
 23 24  1  0
 23 22  1  1
 24 17  1  0
 25 23  1  0
 26 25  2  0
 27 25  1  0
M  END
$$$$
