WGL.pdb
     RDKit          3D

 27 28  0  0  1  0  0  0  0  0999 V2000
   25.4931  -22.1118  -10.6111 N   0  0  0  0  0  0  0  0  0  0  0  0
   26.2099  -21.4327  -11.6630 C   0  0  1  0  0  0  0  0  0  0  0  0
   25.6125  -20.0607  -11.8870 C   0  0  0  0  0  0  0  0  0  0  0  0
   24.1555  -20.1936  -12.1356 C   0  0  0  0  0  0  0  0  0  0  0  0
   23.1121  -20.1981  -11.2581 C   0  0  0  0  0  0  0  0  0  0  0  0
   21.9707  -20.3457  -11.9436 N   0  0  0  0  0  0  0  0  0  0  0  0
   22.2387  -20.4392  -13.2600 C   0  0  0  0  0  0  0  0  0  0  0  0
   21.4740  -20.5951  -14.3808 C   0  0  0  0  0  0  0  0  0  0  0  0
   22.0752  -20.6558  -15.6207 C   0  0  0  0  0  0  0  0  0  0  0  0
   23.4370  -20.5638  -15.7733 C   0  0  0  0  0  0  0  0  0  0  0  0
   24.2030  -20.4078  -14.6522 C   0  0  0  0  0  0  0  0  0  0  0  0
   23.6119  -20.3448  -13.3943 C   0  0  0  0  0  0  0  0  0  0  0  0
   27.6427  -21.2937  -11.2908 C   0  0  0  0  0  0  0  0  0  0  0  0
   28.3888  -20.6832  -12.1185 O   0  0  0  0  0  0  0  0  0  0  0  0
   28.1032  -21.8288  -10.0705 N   0  0  0  0  0  0  0  0  0  0  0  0
   29.4556  -21.5896   -9.6562 C   0  0  0  0  0  0  0  0  0  0  0  0
   29.4425  -20.6446   -8.5104 C   0  0  0  0  0  0  0  0  0  0  0  0
   28.9285  -19.5128   -8.6680 O   0  0  0  0  0  0  0  0  0  0  0  0
   28.4871  -18.2689   -4.7587 C   0  0  0  0  0  0  0  0  0  0  0  0
   27.4752  -19.4020   -4.9877 C   0  0  2  0  0  0  0  0  0  0  0  0
   27.2511  -20.0457   -3.6582 C   0  0  0  0  0  0  0  0  0  0  0  0
   28.0744  -20.2820   -6.0289 C   0  0  0  0  0  0  0  0  0  0  0  0
   29.5840  -20.2684   -6.0786 C   0  0  2  0  0  0  0  0  0  0  0  0
   29.9967  -20.9895   -7.2424 N   0  0  0  0  0  0  0  0  0  0  0  0
   30.2246  -20.7062   -4.8439 C   0  0  0  0  0  0  0  0  0  0  0  0
   30.5553  -19.8784   -3.9701 O   0  0  0  0  0  0  0  0  0  0  0  0
   30.4741  -22.0456   -4.6256 O   0  0  0  0  0  0  0  0  0  0  0  0
  2  1  1  1
  3  2  1  0
  3  4  1  0
  4  5  2  0
  5  6  1  0
  7  8  2  0
  7  6  1  0
  9  8  1  0
 10  9  2  0
 11 10  1  0
 11 12  2  0
 12  4  1  0
 12  7  1  0
 13  2  1  0
 13 15  1  0
 14 13  2  0
 16 15  1  0
 17 16  1  0
 18 17  2  0
 20 21  1  1
 20 22  1  0
 20 19  1  0
 23 24  1  0
 23 22  1  1
 24 17  1  0
 25 23  1  0
 26 25  2  0
 27 25  1  0
M  END
$$$$
