WGL.pdb
     RDKit          3D

 27 28  0  0  1  0  0  0  0  0999 V2000
   23.9865  -20.9817  -10.8865 N   0  0  0  0  0  0  0  0  0  0  0  0
   24.9954  -19.9505  -10.8677 C   0  0  1  0  0  0  0  0  0  0  0  0
   26.2134  -20.4391  -10.1147 C   0  0  0  0  0  0  0  0  0  0  0  0
   25.8586  -20.6488   -8.6891 C   0  0  0  0  0  0  0  0  0  0  0  0
   24.8593  -21.3913   -8.1332 C   0  0  0  0  0  0  0  0  0  0  0  0
   24.9270  -21.2791   -6.8000 N   0  0  0  0  0  0  0  0  0  0  0  0
   25.9533  -20.4754   -6.4620 C   0  0  0  0  0  0  0  0  0  0  0  0
   26.4656  -20.0289   -5.2773 C   0  0  0  0  0  0  0  0  0  0  0  0
   27.5596  -19.1889   -5.2740 C   0  0  0  0  0  0  0  0  0  0  0  0
   28.1635  -18.7776   -6.4369 C   0  0  0  0  0  0  0  0  0  0  0  0
   27.6515  -19.2239   -7.6229 C   0  0  0  0  0  0  0  0  0  0  0  0
   26.5485  -20.0716   -7.6432 C   0  0  0  0  0  0  0  0  0  0  0  0
   25.3828  -19.5962  -12.2587 C   0  0  0  0  0  0  0  0  0  0  0  0
   25.1626  -20.4730  -13.1515 O   0  0  0  0  0  0  0  0  0  0  0  0
   25.9620  -18.3386  -12.5244 N   0  0  0  0  0  0  0  0  0  0  0  0
   26.3240  -17.9939  -13.8690 C   0  0  0  0  0  0  0  0  0  0  0  0
   27.5713  -18.7168  -14.2265 C   0  0  0  0  0  0  0  0  0  0  0  0
   28.1010  -18.4916  -15.3394 O   0  0  0  0  0  0  0  0  0  0  0  0
   30.9067  -22.9210  -13.3739 C   0  0  0  0  0  0  0  0  0  0  0  0
   31.3305  -21.5833  -12.7484 C   0  0  2  0  0  0  0  0  0  0  0  0
   32.1273  -21.9183  -11.5297 C   0  0  0  0  0  0  0  0  0  0  0  0
   30.0703  -20.8304  -12.4988 C   0  0  0  0  0  0  0  0  0  0  0  0
   29.3805  -20.3188  -13.7414 C   0  0  2  0  0  0  0  0  0  0  0  0
   28.1787  -19.6556  -13.3411 N   0  0  0  0  0  0  0  0  0  0  0  0
   29.1917  -21.3287  -14.7763 C   0  0  0  0  0  0  0  0  0  0  0  0
   29.9889  -21.4170  -15.7327 O   0  0  0  0  0  0  0  0  0  0  0  0
   28.1254  -22.2021  -14.7109 O   0  0  0  0  0  0  0  0  0  0  0  0
  2  1  1  6
  3  2  1  0
  3  4  1  0
  4  5  2  0
  5  6  1  0
  7  8  2  0
  7  6  1  0
  9  8  1  0
 10  9  2  0
 11 10  1  0
 11 12  2  0
 12  4  1  0
 12  7  1  0
 13  2  1  0
 13 15  1  0
 14 13  2  0
 16 15  1  0
 17 16  1  0
 18 17  2  0
 20 21  1  1
 20 22  1  0
 20 19  1  0
 23 24  1  0
 23 22  1  1
 24 17  1  0
 25 23  1  0
 26 25  2  0
 27 25  1  0
M  END
$$$$
