WGL.pdb
     RDKit          3D

 27 28  0  0  1  0  0  0  0  0999 V2000
   25.9051  -35.1602   -9.7308 N   0  0  0  0  0  0  0  0  0  0  0  0
   25.3638  -34.9334   -8.4129 C   0  0  1  0  0  0  0  0  0  0  0  0
   24.0415  -34.2057   -8.5202 C   0  0  0  0  0  0  0  0  0  0  0  0
   24.2734  -32.8415   -9.0561 C   0  0  0  0  0  0  0  0  0  0  0  0
   25.3469  -32.3314   -9.7242 C   0  0  0  0  0  0  0  0  0  0  0  0
   25.1071  -31.0450  -10.0107 N   0  0  0  0  0  0  0  0  0  0  0  0
   23.8937  -30.6929   -9.5445 C   0  0  0  0  0  0  0  0  0  0  0  0
   23.1644  -29.5383   -9.5582 C   0  0  0  0  0  0  0  0  0  0  0  0
   21.9147  -29.5071   -8.9754 C   0  0  0  0  0  0  0  0  0  0  0  0
   21.3668  -30.6123   -8.3716 C   0  0  0  0  0  0  0  0  0  0  0  0
   22.0959  -31.7682   -8.3574 C   0  0  0  0  0  0  0  0  0  0  0  0
   23.3580  -31.8160   -8.9409 C   0  0  0  0  0  0  0  0  0  0  0  0
   25.1587  -36.2327   -7.7197 C   0  0  0  0  0  0  0  0  0  0  0  0
   24.8403  -37.2228   -8.4495 O   0  0  0  0  0  0  0  0  0  0  0  0
   25.3209  -36.3125   -6.3215 N   0  0  0  0  0  0  0  0  0  0  0  0
   25.0513  -37.5485   -5.6453 C   0  0  0  0  0  0  0  0  0  0  0  0
   25.3563  -37.3778   -4.2016 C   0  0  0  0  0  0  0  0  0  0  0  0
   25.7375  -36.2559   -3.7943 O   0  0  0  0  0  0  0  0  0  0  0  0
   24.9132  -40.6487    0.9702 C   0  0  0  0  0  0  0  0  0  0  0  0
   25.2410  -39.2704    0.3759 C   0  0  2  0  0  0  0  0  0  0  0  0
   24.3147  -38.2962    1.0278 C   0  0  0  0  0  0  0  0  0  0  0  0
   25.0829  -39.4118   -1.0981 C   0  0  0  0  0  0  0  0  0  0  0  0
   25.5943  -38.2423   -1.9057 C   0  0  2  0  0  0  0  0  0  0  0  0
   25.2274  -38.4516   -3.2718 N   0  0  0  0  0  0  0  0  0  0  0  0
   27.0088  -37.9515   -1.7030 C   0  0  0  0  0  0  0  0  0  0  0  0
   27.8864  -38.6224   -2.2841 O   0  0  0  0  0  0  0  0  0  0  0  0
   27.3960  -36.9274   -0.8630 O   0  0  0  0  0  0  0  0  0  0  0  0
  2  1  1  6
  3  2  1  0
  3  4  1  0
  4  5  2  0
  5  6  1  0
  7  8  2  0
  7  6  1  0
  9  8  1  0
 10  9  2  0
 11 10  1  0
 11 12  2  0
 12  4  1  0
 12  7  1  0
 13  2  1  0
 13 15  1  0
 14 13  2  0
 16 15  1  0
 17 16  1  0
 18 17  2  0
 20 21  1  1
 20 22  1  0
 20 19  1  0
 23 24  1  0
 23 22  1  1
 24 17  1  0
 25 23  1  0
 26 25  2  0
 27 25  1  0
M  END
$$$$
