WGL.pdb
     RDKit          3D

 27 28  0  0  1  0  0  0  0  0999 V2000
   25.2120  -20.6444  -11.8846 N   0  0  0  0  0  0  0  0  0  0  0  0
   26.6517  -20.7272  -11.9282 C   0  0  1  0  0  0  0  0  0  0  0  0
   27.1531  -21.5503  -10.7619 C   0  0  0  0  0  0  0  0  0  0  0  0
   26.8048  -20.8664   -9.4918 C   0  0  0  0  0  0  0  0  0  0  0  0
   25.6254  -20.3158   -9.0861 C   0  0  0  0  0  0  0  0  0  0  0  0
   25.7853  -19.8070   -7.8572 N   0  0  0  0  0  0  0  0  0  0  0  0
   27.0498  -20.0105   -7.4409 C   0  0  0  0  0  0  0  0  0  0  0  0
   27.7398  -19.7075   -6.3018 C   0  0  0  0  0  0  0  0  0  0  0  0
   29.0663  -20.0669   -6.1851 C   0  0  0  0  0  0  0  0  0  0  0  0
   29.7307  -20.7291   -7.1882 C   0  0  0  0  0  0  0  0  0  0  0  0
   29.0410  -21.0326   -8.3285 C   0  0  0  0  0  0  0  0  0  0  0  0
   27.7025  -20.6771   -8.4617 C   0  0  0  0  0  0  0  0  0  0  0  0
   27.0837  -21.3600  -13.2024 C   0  0  0  0  0  0  0  0  0  0  0  0
   28.1614  -22.0319  -13.1672 O   0  0  0  0  0  0  0  0  0  0  0  0
   26.3035  -21.1946  -14.3650 N   0  0  0  0  0  0  0  0  0  0  0  0
   25.9887  -22.3348  -15.1765 C   0  0  0  0  0  0  0  0  0  0  0  0
   24.5144  -22.5146  -15.1935 C   0  0  0  0  0  0  0  0  0  0  0  0
   24.0342  -23.5014  -15.7981 O   0  0  0  0  0  0  0  0  0  0  0  0
   20.7513  -23.4116  -12.7691 C   0  0  0  0  0  0  0  0  0  0  0  0
   21.5397  -22.1843  -12.2870 C   0  0  2  0  0  0  0  0  0  0  0  0
   20.8458  -21.6896  -11.0598 C   0  0  0  0  0  0  0  0  0  0  0  0
   21.5609  -21.2347  -13.4338 C   0  0  0  0  0  0  0  0  0  0  0  0
   22.2224  -21.7648  -14.6839 C   0  0  2  0  0  0  0  0  0  0  0  0
   23.6356  -21.5986  -14.5433 N   0  0  0  0  0  0  0  0  0  0  0  0
   21.6757  -21.2232  -15.9226 C   0  0  0  0  0  0  0  0  0  0  0  0
   22.2516  -20.2895  -16.5181 O   0  0  0  0  0  0  0  0  0  0  0  0
   20.5106  -21.7379  -16.4535 O   0  0  0  0  0  0  0  0  0  0  0  0
  2  1  1  6
  3  2  1  0
  3  4  1  0
  4  5  2  0
  5  6  1  0
  7  8  2  0
  7  6  1  0
  9  8  1  0
 10  9  2  0
 11 10  1  0
 11 12  2  0
 12  4  1  0
 12  7  1  0
 13  2  1  0
 13 15  1  0
 14 13  2  0
 16 15  1  0
 17 16  1  0
 18 17  2  0
 20 21  1  1
 20 22  1  0
 20 19  1  0
 23 24  1  0
 23 22  1  1
 24 17  1  0
 25 23  1  0
 26 25  2  0
 27 25  1  0
M  END
$$$$
