WGL.pdb
     RDKit          3D

 27 28  0  0  1  0  0  0  0  0999 V2000
   25.8522  -19.2442   -9.3956 N   0  0  0  0  0  0  0  0  0  0  0  0
   26.7686  -20.3314   -9.6397 C   0  0  1  0  0  0  0  0  0  0  0  0
   27.1332  -20.9978   -8.3311 C   0  0  0  0  0  0  0  0  0  0  0  0
   27.4426  -19.9573   -7.3192 C   0  0  0  0  0  0  0  0  0  0  0  0
   27.1743  -18.6206   -7.3242 C   0  0  0  0  0  0  0  0  0  0  0  0
   27.6457  -18.0803   -6.1927 N   0  0  0  0  0  0  0  0  0  0  0  0
   28.2219  -19.0349   -5.4375 C   0  0  0  0  0  0  0  0  0  0  0  0
   28.8449  -19.0436   -4.2221 C   0  0  0  0  0  0  0  0  0  0  0  0
   29.3404  -20.2252   -3.7116 C   0  0  0  0  0  0  0  0  0  0  0  0
   29.2291  -21.4136   -4.3910 C   0  0  0  0  0  0  0  0  0  0  0  0
   28.6058  -21.4058   -5.6074 C   0  0  0  0  0  0  0  0  0  0  0  0
   28.1005  -20.2223   -6.1360 C   0  0  0  0  0  0  0  0  0  0  0  0
   26.1399  -21.3295  -10.5448 C   0  0  0  0  0  0  0  0  0  0  0  0
   24.9438  -21.6651  -10.2785 O   0  0  0  0  0  0  0  0  0  0  0  0
   26.8740  -21.8487  -11.6307 N   0  0  0  0  0  0  0  0  0  0  0  0
   26.5287  -21.4645  -12.9690 C   0  0  0  0  0  0  0  0  0  0  0  0
   25.1096  -21.8262  -13.2171 C   0  0  0  0  0  0  0  0  0  0  0  0
   24.7779  -23.0335  -13.1701 O   0  0  0  0  0  0  0  0  0  0  0  0
   19.8949  -19.3602  -11.8303 C   0  0  0  0  0  0  0  0  0  0  0  0
   20.5007  -20.5412  -12.6038 C   0  0  2  0  0  0  0  0  0  0  0  0
   20.0809  -21.7806  -11.8828 C   0  0  0  0  0  0  0  0  0  0  0  0
   21.9686  -20.2941  -12.6451 C   0  0  0  0  0  0  0  0  0  0  0  0
   22.7429  -21.2235  -13.5496 C   0  0  2  0  0  0  0  0  0  0  0  0
   24.1199  -20.8407  -13.5059 N   0  0  0  0  0  0  0  0  0  0  0  0
   22.1950  -21.3374  -14.8963 C   0  0  0  0  0  0  0  0  0  0  0  0
   22.5924  -20.5868  -15.8109 O   0  0  0  0  0  0  0  0  0  0  0  0
   21.2268  -22.2797  -15.1769 O   0  0  0  0  0  0  0  0  0  0  0  0
  2  1  1  1
  3  2  1  0
  3  4  1  0
  4  5  2  0
  5  6  1  0
  7  8  2  0
  7  6  1  0
  9  8  1  0
 10  9  2  0
 11 10  1  0
 11 12  2  0
 12  4  1  0
 12  7  1  0
 13  2  1  0
 13 15  1  0
 14 13  2  0
 16 15  1  0
 17 16  1  0
 18 17  2  0
 20 21  1  1
 20 22  1  0
 20 19  1  0
 23 24  1  0
 23 22  1  1
 24 17  1  0
 25 23  1  0
 26 25  2  0
 27 25  1  0
M  END
$$$$
