WGL.pdb
     RDKit          3D

 27 28  0  0  1  0  0  0  0  0999 V2000
   26.7904  -19.1121   -9.9686 N   0  0  0  0  0  0  0  0  0  0  0  0
   26.8801  -20.5513   -9.9226 C   0  0  1  0  0  0  0  0  0  0  0  0
   26.5671  -21.0397   -8.5252 C   0  0  0  0  0  0  0  0  0  0  0  0
   27.0316  -20.0343   -7.5375 C   0  0  0  0  0  0  0  0  0  0  0  0
   26.8461  -18.6840   -7.5057 C   0  0  0  0  0  0  0  0  0  0  0  0
   27.4522  -18.1892   -6.4184 N   0  0  0  0  0  0  0  0  0  0  0  0
   28.0365  -19.1874   -5.7286 C   0  0  0  0  0  0  0  0  0  0  0  0
   28.7676  -19.2509   -4.5768 C   0  0  0  0  0  0  0  0  0  0  0  0
   29.2352  -20.4673   -4.1251 C   0  0  0  0  0  0  0  0  0  0  0  0
   28.9893  -21.6370   -4.8015 C   0  0  0  0  0  0  0  0  0  0  0  0
   28.2577  -21.5744   -5.9543 C   0  0  0  0  0  0  0  0  0  0  0  0
   27.7788  -20.3552   -6.4232 C   0  0  0  0  0  0  0  0  0  0  0  0
   25.9158  -21.1494  -10.8834 C   0  0  0  0  0  0  0  0  0  0  0  0
   25.8797  -22.4182  -10.9377 O   0  0  0  0  0  0  0  0  0  0  0  0
   25.1035  -20.3099  -11.6728 N   0  0  0  0  0  0  0  0  0  0  0  0
   24.6512  -20.7629  -12.9565 C   0  0  0  0  0  0  0  0  0  0  0  0
   23.2975  -21.3547  -12.8027 C   0  0  0  0  0  0  0  0  0  0  0  0
   22.7056  -21.7793  -13.8222 O   0  0  0  0  0  0  0  0  0  0  0  0
   18.6448  -21.9060  -10.1296 C   0  0  0  0  0  0  0  0  0  0  0  0
   19.7259  -22.9221   -9.7308 C   0  0  2  0  0  0  0  0  0  0  0  0
   19.4633  -23.2835   -8.3051 C   0  0  0  0  0  0  0  0  0  0  0  0
   21.0313  -22.2537   -9.9887 C   0  0  0  0  0  0  0  0  0  0  0  0
   21.3536  -22.0334  -11.4479 C   0  0  2  0  0  0  0  0  0  0  0  0
   22.6571  -21.4518  -11.5321 N   0  0  0  0  0  0  0  0  0  0  0  0
   20.3244  -21.3065  -12.1820 C   0  0  0  0  0  0  0  0  0  0  0  0
   19.5380  -21.9093  -12.9412 O   0  0  0  0  0  0  0  0  0  0  0  0
   20.2069  -19.9384  -12.0462 O   0  0  0  0  0  0  0  0  0  0  0  0
  2  1  1  1
  3  2  1  0
  3  4  1  0
  4  5  2  0
  5  6  1  0
  7  8  2  0
  7  6  1  0
  9  8  1  0
 10  9  2  0
 11 10  1  0
 11 12  2  0
 12  4  1  0
 12  7  1  0
 13  2  1  0
 13 15  1  0
 14 13  2  0
 16 15  1  0
 17 16  1  0
 18 17  2  0
 20 21  1  1
 20 22  1  0
 20 19  1  0
 23 24  1  0
 23 22  1  1
 24 17  1  0
 25 23  1  0
 26 25  2  0
 27 25  1  0
M  END
$$$$
