YKM.pdb
     RDKit          3D

 30 30  0  0  1  0  0  0  0  0999 V2000
   30.9838  -19.2302  -19.3362 O   0  0  0  0  0  0  0  0  0  0  0  0
   30.2663  -19.1058  -18.1557 C   0  0  0  0  0  0  0  0  0  0  0  0
   30.0088  -20.1951  -17.3765 C   0  0  0  0  0  0  0  0  0  0  0  0
   29.2911  -20.0674  -16.1967 C   0  0  0  0  0  0  0  0  0  0  0  0
   28.8591  -18.8078  -15.8576 C   0  0  0  0  0  0  0  0  0  0  0  0
   28.0899  -18.6524  -14.5992 C   0  0  0  0  0  0  0  0  0  0  0  0
   26.6985  -19.2067  -14.8731 C   0  0  2  0  0  0  0  0  0  0  0  0
   25.9611  -18.3783  -15.7809 N   0  0  0  0  0  0  0  0  0  0  0  0
   25.9977  -19.2509  -13.5676 C   0  0  0  0  0  0  0  0  0  0  0  0
   25.6140  -18.1587  -13.0359 O   0  0  0  0  0  0  0  0  0  0  0  0
   29.1014  -17.6960  -16.6180 C   0  0  0  0  0  0  0  0  0  0  0  0
   29.8200  -17.8614  -17.7874 C   0  0  0  0  0  0  0  0  0  0  0  0
   25.7681  -20.4767  -12.9415 N   0  0  0  0  0  0  0  0  0  0  0  0
   24.9260  -20.4617  -11.6685 C   0  0  1  0  0  0  0  0  0  0  0  0
   23.7941  -21.3243  -11.9822 C   0  0  0  0  0  0  0  0  0  0  0  0
   22.7849  -20.9065  -12.9584 C   0  0  0  0  0  0  0  0  0  0  0  0
   21.7398  -21.9134  -13.2505 C   0  0  0  0  0  0  0  0  0  0  0  0
   20.8204  -21.2971  -14.3184 C   0  0  0  0  0  0  0  0  0  0  0  0
   19.8088  -22.2804  -14.6247 N   0  0  0  0  0  0  0  0  0  0  0  0
   25.9199  -20.7765  -10.6428 C   0  0  0  0  0  0  0  0  0  0  0  0
   26.7806  -21.7270  -10.8325 O   0  0  0  0  0  0  0  0  0  0  0  0
   28.6322  -18.3061   -5.4784 C   0  0  0  0  0  0  0  0  0  0  0  0
   28.1074  -19.8539   -4.6453 S   0  0  0  0  0  0  0  0  0  0  0  0
   27.2009  -20.8202   -5.9070 C   0  0  0  0  0  0  0  0  0  0  0  0
   27.0895  -20.0647   -7.1859 C   0  0  0  0  0  0  0  0  0  0  0  0
   26.2266  -20.8660   -8.1673 C   0  0  2  0  0  0  0  0  0  0  0  0
   26.0812  -20.1230   -9.3959 N   0  0  0  0  0  0  0  0  0  0  0  0
   24.9544  -21.2523   -7.5722 C   0  0  0  0  0  0  0  0  0  0  0  0
   24.9323  -22.2706   -6.5882 O   0  0  0  0  0  0  0  0  0  0  0  0
   23.8265  -20.7761   -7.8343 O   0  0  0  0  0  0  0  0  0  0  0  0
  2  1  1  0
  3  2  2  0
  4  3  1  0
  5  4  2  0
  5 11  1  0
  6  5  1  0
  7  8  1  6
  7  6  1  0
  9  7  1  0
 10  9  2  0
 11 12  2  0
 12  2  1  0
 13  9  1  0
 14 20  1  0
 14 13  1  0
 14 15  1  6
 16 15  1  0
 17 16  1  0
 18 17  1  0
 19 18  1  0
 20 27  1  0
 21 20  2  0
 22 23  1  0
 23 24  1  0
 24 25  1  0
 26 25  1  1
 26 28  1  0
 27 26  1  0
 28 30  2  0
 28 29  1  0
M  END
$$$$
