YKM.pdb
     RDKit          3D

 30 30  0  0  1  0  0  0  0  0999 V2000
   19.0455  -15.1278  -17.8063 O   0  0  0  0  0  0  0  0  0  0  0  0
   19.2567  -16.1954  -16.9464 C   0  0  0  0  0  0  0  0  0  0  0  0
   19.2989  -17.4745  -17.4176 C   0  0  0  0  0  0  0  0  0  0  0  0
   19.5102  -18.5398  -16.5552 C   0  0  0  0  0  0  0  0  0  0  0  0
   19.6723  -18.2464  -15.2226 C   0  0  0  0  0  0  0  0  0  0  0  0
   19.8991  -19.3734  -14.2856 C   0  0  0  0  0  0  0  0  0  0  0  0
   21.4080  -19.5379  -14.1663 C   0  0  2  0  0  0  0  0  0  0  0  0
   21.9771  -20.1279  -15.3420 N   0  0  0  0  0  0  0  0  0  0  0  0
   21.6445  -20.4286  -13.0053 C   0  0  0  0  0  0  0  0  0  0  0  0
   21.3977  -21.6729  -13.1218 O   0  0  0  0  0  0  0  0  0  0  0  0
   19.6351  -16.9743  -14.7194 C   0  0  0  0  0  0  0  0  0  0  0  0
   19.4226  -15.9374  -15.6087 C   0  0  0  0  0  0  0  0  0  0  0  0
   22.1304  -19.8994  -11.8090 N   0  0  0  0  0  0  0  0  0  0  0  0
   22.4305  -20.8848  -10.6825 C   0  0  1  0  0  0  0  0  0  0  0  0
   23.5645  -20.2915   -9.9854 C   0  0  0  0  0  0  0  0  0  0  0  0
   24.9263  -20.7723  -10.2305 C   0  0  0  0  0  0  0  0  0  0  0  0
   25.3258  -20.8269  -11.6548 C   0  0  0  0  0  0  0  0  0  0  0  0
   26.7682  -21.3595  -11.6879 C   0  0  0  0  0  0  0  0  0  0  0  0
   27.1961  -21.3378  -13.0665 N   0  0  0  0  0  0  0  0  0  0  0  0
   21.1124  -21.0616  -10.0739 C   0  0  0  0  0  0  0  0  0  0  0  0
   20.1325  -20.2743  -10.3902 O   0  0  0  0  0  0  0  0  0  0  0  0
   17.8049  -23.1596  -13.1424 C   0  0  0  0  0  0  0  0  0  0  0  0
   16.8412  -24.0680  -11.8731 S   0  0  0  0  0  0  0  0  0  0  0  0
   17.5043  -23.5256  -10.2564 C   0  0  0  0  0  0  0  0  0  0  0  0
   18.8876  -22.9907  -10.3943 C   0  0  0  0  0  0  0  0  0  0  0  0
   19.3817  -22.5202   -9.0216 C   0  0  2  0  0  0  0  0  0  0  0  0
   20.7437  -22.0564   -9.1347 N   0  0  0  0  0  0  0  0  0  0  0  0
   19.2045  -23.5488   -8.0055 C   0  0  0  0  0  0  0  0  0  0  0  0
   20.2005  -24.5432   -7.8473 O   0  0  0  0  0  0  0  0  0  0  0  0
   18.2376  -23.6702   -7.2195 O   0  0  0  0  0  0  0  0  0  0  0  0
  2  1  1  0
  3  2  2  0
  4  3  1  0
  5  4  2  0
  5 11  1  0
  6  5  1  0
  7  8  1  6
  7  6  1  0
  9  7  1  0
 10  9  2  0
 11 12  2  0
 12  2  1  0
 13  9  1  0
 14 20  1  0
 14 13  1  0
 14 15  1  1
 16 15  1  0
 17 16  1  0
 18 17  1  0
 19 18  1  0
 20 27  1  0
 21 20  2  0
 22 23  1  0
 23 24  1  0
 24 25  1  0
 26 25  1  6
 26 28  1  0
 27 26  1  0
 28 30  2  0
 28 29  1  0
M  END
$$$$
