YKM.pdb
     RDKit          3D

 30 30  0  0  1  0  0  0  0  0999 V2000
   19.4190  -13.1312  -21.0097 O   0  0  0  0  0  0  0  0  0  0  0  0
   19.7775  -14.3734  -20.5077 C   0  0  0  0  0  0  0  0  0  0  0  0
   20.7053  -15.1435  -21.1451 C   0  0  0  0  0  0  0  0  0  0  0  0
   21.0616  -16.3852  -20.6406 C   0  0  0  0  0  0  0  0  0  0  0  0
   20.4425  -16.7942  -19.4840 C   0  0  0  0  0  0  0  0  0  0  0  0
   20.8111  -18.1197  -18.9300 C   0  0  0  0  0  0  0  0  0  0  0  0
   21.2887  -17.8738  -17.5053 C   0  0  2  0  0  0  0  0  0  0  0  0
   22.4996  -17.1079  -17.4710 N   0  0  0  0  0  0  0  0  0  0  0  0
   21.5332  -19.2076  -16.9065 C   0  0  0  0  0  0  0  0  0  0  0  0
   21.0789  -20.2414  -17.4961 O   0  0  0  0  0  0  0  0  0  0  0  0
   19.5083  -16.0449  -18.8216 C   0  0  0  0  0  0  0  0  0  0  0  0
   19.1781  -14.8125  -19.3538 C   0  0  0  0  0  0  0  0  0  0  0  0
   22.2515  -19.3150  -15.7150 N   0  0  0  0  0  0  0  0  0  0  0  0
   22.4638  -20.7186  -15.1538 C   0  0  1  0  0  0  0  0  0  0  0  0
   23.5903  -20.5688  -14.2414 C   0  0  0  0  0  0  0  0  0  0  0  0
   24.3607  -21.7370  -13.8083 C   0  0  0  0  0  0  0  0  0  0  0  0
   24.7431  -22.6727  -14.8898 C   0  0  0  0  0  0  0  0  0  0  0  0
   25.5433  -23.8074  -14.2283 C   0  0  0  0  0  0  0  0  0  0  0  0
   25.8731  -24.7542  -15.2670 N   0  0  0  0  0  0  0  0  0  0  0  0
   21.1151  -21.0788  -14.7176 C   0  0  0  0  0  0  0  0  0  0  0  0
   20.3711  -20.2137  -14.1024 O   0  0  0  0  0  0  0  0  0  0  0  0
   15.8973  -24.3339  -17.1623 C   0  0  0  0  0  0  0  0  0  0  0  0
   15.4624  -22.9733  -16.0114 S   0  0  0  0  0  0  0  0  0  0  0  0
   16.7954  -22.9305  -14.7589 C   0  0  0  0  0  0  0  0  0  0  0  0
   18.0973  -22.5451  -15.3715 C   0  0  0  0  0  0  0  0  0  0  0  0
   19.1944  -22.6183  -14.3036 C   0  0  2  0  0  0  0  0  0  0  0  0
   20.4725  -22.3273  -14.9076 N   0  0  0  0  0  0  0  0  0  0  0  0
   19.1679  -23.8894  -13.5926 C   0  0  0  0  0  0  0  0  0  0  0  0
   20.0715  -24.9123  -13.9709 O   0  0  0  0  0  0  0  0  0  0  0  0
   18.4112  -24.2058  -12.6466 O   0  0  0  0  0  0  0  0  0  0  0  0
  2  1  1  0
  3  2  2  0
  4  3  1  0
  5  4  2  0
  5 11  1  0
  6  5  1  0
  7  8  1  6
  7  6  1  0
  9  7  1  0
 10  9  2  0
 11 12  2  0
 12  2  1  0
 13  9  1  0
 14 20  1  0
 14 13  1  0
 14 15  1  1
 16 15  1  0
 17 16  1  0
 18 17  1  0
 19 18  1  0
 20 27  1  0
 21 20  2  0
 22 23  1  0
 23 24  1  0
 24 25  1  0
 26 25  1  6
 26 28  1  0
 27 26  1  0
 28 30  2  0
 28 29  1  0
M  END
$$$$
