YKM.pdb
     RDKit          3D

 30 30  0  0  1  0  0  0  0  0999 V2000
   25.5419  -20.1077   -7.3840 O   0  0  0  0  0  0  0  0  0  0  0  0
   25.4587  -20.5051   -8.7103 C   0  0  0  0  0  0  0  0  0  0  0  0
   26.5788  -20.8483   -9.4086 C   0  0  0  0  0  0  0  0  0  0  0  0
   26.4922  -21.2452  -10.7346 C   0  0  0  0  0  0  0  0  0  0  0  0
   25.2404  -21.2749  -11.3007 C   0  0  0  0  0  0  0  0  0  0  0  0
   25.1288  -21.6969  -12.7181 C   0  0  0  0  0  0  0  0  0  0  0  0
   25.8755  -20.6540  -13.5385 C   0  0  2  0  0  0  0  0  0  0  0  0
   25.2115  -19.3839  -13.5223 N   0  0  0  0  0  0  0  0  0  0  0  0
   25.9233  -21.1663  -14.9287 C   0  0  0  0  0  0  0  0  0  0  0  0
   24.9499  -20.9175  -15.7118 O   0  0  0  0  0  0  0  0  0  0  0  0
   24.0984  -20.9367  -10.6267 C   0  0  0  0  0  0  0  0  0  0  0  0
   24.2232  -20.5460   -9.3065 C   0  0  0  0  0  0  0  0  0  0  0  0
   27.0235  -21.9083  -15.3601 N   0  0  0  0  0  0  0  0  0  0  0  0
   27.0719  -22.2874  -16.8379 C   0  0  1  0  0  0  0  0  0  0  0  0
   28.4896  -22.4940  -17.1046 C   0  0  0  0  0  0  0  0  0  0  0  0
   28.9707  -22.6920  -18.4740 C   0  0  0  0  0  0  0  0  0  0  0  0
   30.4402  -22.8030  -18.6129 C   0  0  0  0  0  0  0  0  0  0  0  0
   30.7263  -23.0214  -20.1082 C   0  0  0  0  0  0  0  0  0  0  0  0
   32.1386  -23.2928  -20.2339 N   0  0  0  0  0  0  0  0  0  0  0  0
   26.0737  -23.3539  -16.9110 C   0  0  0  0  0  0  0  0  0  0  0  0
   25.5764  -23.8629  -15.8276 O   0  0  0  0  0  0  0  0  0  0  0  0
   21.5736  -20.1072  -18.0493 C   0  0  0  0  0  0  0  0  0  0  0  0
   21.0124  -21.6004  -17.1436 S   0  0  0  0  0  0  0  0  0  0  0  0
   21.9284  -23.0049  -17.8756 C   0  0  0  0  0  0  0  0  0  0  0  0
   23.3955  -22.8598  -17.6630 C   0  0  0  0  0  0  0  0  0  0  0  0
   24.1126  -24.0652  -18.2815 C   0  0  2  0  0  0  0  0  0  0  0  0
   25.5364  -23.9268  -18.0903 N   0  0  0  0  0  0  0  0  0  0  0  0
   23.7333  -24.2593  -19.6744 C   0  0  0  0  0  0  0  0  0  0  0  0
   22.7108  -25.1871  -19.9898 O   0  0  0  0  0  0  0  0  0  0  0  0
   24.2208  -23.6832  -20.6735 O   0  0  0  0  0  0  0  0  0  0  0  0
  2  1  1  0
  3  2  2  0
  4  3  1  0
  5  4  2  0
  5 11  1  0
  6  5  1  0
  7  8  1  6
  7  6  1  0
  9  7  1  0
 10  9  2  0
 11 12  2  0
 12  2  1  0
 13  9  1  0
 14 20  1  0
 14 13  1  0
 14 15  1  1
 16 15  1  0
 17 16  1  0
 18 17  1  0
 19 18  1  0
 20 27  1  0
 21 20  2  0
 22 23  1  0
 23 24  1  0
 24 25  1  0
 26 25  1  6
 26 28  1  0
 27 26  1  0
 28 30  2  0
 28 29  1  0
M  END
$$$$
