YKM.pdb
     RDKit          3D

 30 30  0  0  1  0  0  0  0  0999 V2000
   30.0751  -28.1002  -19.5277 O   0  0  0  0  0  0  0  0  0  0  0  0
   29.1506  -28.8173  -18.7829 C   0  0  0  0  0  0  0  0  0  0  0  0
   29.4236  -29.1873  -17.4989 C   0  0  0  0  0  0  0  0  0  0  0  0
   28.4971  -29.9044  -16.7568 C   0  0  0  0  0  0  0  0  0  0  0  0
   27.3085  -30.2184  -17.3707 C   0  0  0  0  0  0  0  0  0  0  0  0
   26.3057  -30.9851  -16.5922 C   0  0  0  0  0  0  0  0  0  0  0  0
   26.7218  -32.4474  -16.6749 C   0  0  2  0  0  0  0  0  0  0  0  0
   26.5819  -32.9698  -18.0022 N   0  0  0  0  0  0  0  0  0  0  0  0
   25.8283  -33.1926  -15.7564 C   0  0  0  0  0  0  0  0  0  0  0  0
   24.9223  -33.9405  -16.2487 O   0  0  0  0  0  0  0  0  0  0  0  0
   27.0052  -29.8617  -18.6567 C   0  0  0  0  0  0  0  0  0  0  0  0
   27.9528  -29.1475  -19.3659 C   0  0  0  0  0  0  0  0  0  0  0  0
   25.9881  -33.0679  -14.3757 N   0  0  0  0  0  0  0  0  0  0  0  0
   25.8209  -34.3330  -13.5381 C   0  0  1  0  0  0  0  0  0  0  0  0
   26.9763  -35.1476  -13.8921 C   0  0  0  0  0  0  0  0  0  0  0  0
   27.1744  -36.4660  -13.2851 C   0  0  0  0  0  0  0  0  0  0  0  0
   26.1916  -37.4967  -13.6886 C   0  0  0  0  0  0  0  0  0  0  0  0
   26.5216  -38.7616  -12.8783 C   0  0  0  0  0  0  0  0  0  0  0  0
   25.5383  -39.7583  -13.2299 N   0  0  0  0  0  0  0  0  0  0  0  0
   25.6000  -33.7848  -12.2003 C   0  0  0  0  0  0  0  0  0  0  0  0
   26.4257  -32.9193  -11.7009 O   0  0  0  0  0  0  0  0  0  0  0  0
   21.4397  -32.5281   -5.6747 C   0  0  0  0  0  0  0  0  0  0  0  0
   21.3320  -33.2717   -7.3482 S   0  0  0  0  0  0  0  0  0  0  0  0
   23.0377  -33.2665   -8.0101 C   0  0  0  0  0  0  0  0  0  0  0  0
   23.0775  -33.8036   -9.3989 C   0  0  0  0  0  0  0  0  0  0  0  0
   24.4813  -33.5923   -9.9773 C   0  0  2  0  0  0  0  0  0  0  0  0
   24.5217  -34.0875  -11.3323 N   0  0  0  0  0  0  0  0  0  0  0  0
   25.5078  -34.1701   -9.1205 C   0  0  0  0  0  0  0  0  0  0  0  0
   26.1893  -35.3358   -9.5478 O   0  0  0  0  0  0  0  0  0  0  0  0
   25.8794  -33.7469   -8.0023 O   0  0  0  0  0  0  0  0  0  0  0  0
  2  1  1  0
  3  2  2  0
  4  3  1  0
  5  4  2  0
  5 11  1  0
  6  5  1  0
  7  8  1  6
  7  6  1  0
  9  7  1  0
 10  9  2  0
 11 12  2  0
 12  2  1  0
 13  9  1  0
 14 20  1  0
 14 13  1  0
 14 15  1  1
 16 15  1  0
 17 16  1  0
 18 17  1  0
 19 18  1  0
 20 27  1  0
 21 20  2  0
 22 23  1  0
 23 24  1  0
 24 25  1  0
 26 25  1  1
 26 28  1  0
 27 26  1  0
 28 30  2  0
 28 29  1  0
M  END
$$$$
