YKM.pdb
     RDKit          3D

 30 30  0  0  1  0  0  0  0  0999 V2000
   17.9320  -16.9834  -13.1401 O   0  0  0  0  0  0  0  0  0  0  0  0
   18.6266  -17.8403  -12.2994 C   0  0  0  0  0  0  0  0  0  0  0  0
   18.3579  -19.1774  -12.2874 C   0  0  0  0  0  0  0  0  0  0  0  0
   19.0543  -20.0316  -11.4456 C   0  0  0  0  0  0  0  0  0  0  0  0
   20.0137  -19.4718  -10.6367 C   0  0  0  0  0  0  0  0  0  0  0  0
   20.7683  -20.3704   -9.7296 C   0  0  0  0  0  0  0  0  0  0  0  0
   20.8854  -21.7082  -10.4473 C   0  0  2  0  0  0  0  0  0  0  0  0
   21.0400  -21.5448  -11.8628 N   0  0  0  0  0  0  0  0  0  0  0  0
   19.6295  -22.4458  -10.1717 C   0  0  0  0  0  0  0  0  0  0  0  0
   18.7253  -22.4814  -11.0683 O   0  0  0  0  0  0  0  0  0  0  0  0
   20.3062  -18.1350  -10.6257 C   0  0  0  0  0  0  0  0  0  0  0  0
   19.5919  -17.3138  -11.4781 C   0  0  0  0  0  0  0  0  0  0  0  0
   19.4533  -23.0870   -8.9448 N   0  0  0  0  0  0  0  0  0  0  0  0
   18.4749  -24.2579   -8.9051 C   0  0  1  0  0  0  0  0  0  0  0  0
   19.1002  -25.2709   -9.7458 C   0  0  0  0  0  0  0  0  0  0  0  0
   18.3858  -26.5037  -10.0859 C   0  0  0  0  0  0  0  0  0  0  0  0
   19.2344  -27.7122  -10.1902 C   0  0  0  0  0  0  0  0  0  0  0  0
   18.2938  -28.8843  -10.5172 C   0  0  0  0  0  0  0  0  0  0  0  0
   19.1169  -30.0625  -10.6533 N   0  0  0  0  0  0  0  0  0  0  0  0
   18.2578  -24.4242   -7.4683 C   0  0  0  0  0  0  0  0  0  0  0  0
   19.2579  -24.3855   -6.6446 O   0  0  0  0  0  0  0  0  0  0  0  0
   13.4569  -22.4148   -3.6397 C   0  0  0  0  0  0  0  0  0  0  0  0
   13.8534  -23.9819   -2.7726 S   0  0  0  0  0  0  0  0  0  0  0  0
   15.4776  -24.5178   -3.4226 C   0  0  0  0  0  0  0  0  0  0  0  0
   15.5455  -24.3554   -4.9016 C   0  0  0  0  0  0  0  0  0  0  0  0
   16.9262  -24.8060   -5.3920 C   0  0  2  0  0  0  0  0  0  0  0  0
   17.0128  -24.6191   -6.8204 N   0  0  0  0  0  0  0  0  0  0  0  0
   17.2290  -26.1664   -4.9683 C   0  0  0  0  0  0  0  0  0  0  0  0
   17.8578  -26.3769   -3.7168 O   0  0  0  0  0  0  0  0  0  0  0  0
   16.9935  -27.2208   -5.6010 O   0  0  0  0  0  0  0  0  0  0  0  0
  2  1  1  0
  3  2  2  0
  4  3  1  0
  5  4  2  0
  5 11  1  0
  6  5  1  0
  7  8  1  6
  7  6  1  0
  9  7  1  0
 10  9  2  0
 11 12  2  0
 12  2  1  0
 13  9  1  0
 14 20  1  0
 14 13  1  0
 14 15  1  1
 16 15  1  0
 17 16  1  0
 18 17  1  0
 19 18  1  0
 20 27  1  0
 21 20  2  0
 22 23  1  0
 23 24  1  0
 24 25  1  0
 26 25  1  6
 26 28  1  0
 27 26  1  0
 28 30  2  0
 28 29  1  0
M  END
$$$$
