YKM.pdb
     RDKit          3D

 30 30  0  0  1  0  0  0  0  0999 V2000
   16.5115  -18.6566  -15.1414 O   0  0  0  0  0  0  0  0  0  0  0  0
   17.7398  -19.1418  -14.7174 C   0  0  0  0  0  0  0  0  0  0  0  0
   18.8327  -18.3276  -14.6661 C   0  0  0  0  0  0  0  0  0  0  0  0
   20.0595  -18.8158  -14.2417 C   0  0  0  0  0  0  0  0  0  0  0  0
   20.1175  -20.1405  -13.8810 C   0  0  0  0  0  0  0  0  0  0  0  0
   21.4215  -20.6798  -13.4247 C   0  0  0  0  0  0  0  0  0  0  0  0
   22.3815  -20.5370  -14.5978 C   0  0  2  0  0  0  0  0  0  0  0  0
   21.9868  -21.3446  -15.7142 N   0  0  0  0  0  0  0  0  0  0  0  0
   23.7092  -20.9834  -14.1129 C   0  0  0  0  0  0  0  0  0  0  0  0
   24.0196  -22.2150  -14.2102 O   0  0  0  0  0  0  0  0  0  0  0  0
   19.0392  -20.9822  -13.9215 C   0  0  0  0  0  0  0  0  0  0  0  0
   17.8326  -20.4608  -14.3497 C   0  0  0  0  0  0  0  0  0  0  0  0
   24.5960  -20.0583  -13.5604 N   0  0  0  0  0  0  0  0  0  0  0  0
   25.9544  -20.5831  -13.1030 C   0  0  1  0  0  0  0  0  0  0  0  0
   26.9122  -19.6824  -13.7316 C   0  0  0  0  0  0  0  0  0  0  0  0
   28.3367  -20.0210  -13.7773 C   0  0  0  0  0  0  0  0  0  0  0  0
   28.9585  -19.9388  -15.1181 C   0  0  0  0  0  0  0  0  0  0  0  0
   30.0556  -21.0157  -15.1619 C   0  0  0  0  0  0  0  0  0  0  0  0
   29.4384  -22.2298  -15.6407 N   0  0  0  0  0  0  0  0  0  0  0  0
   25.7705  -20.6819  -11.6554 C   0  0  0  0  0  0  0  0  0  0  0  0
   24.7501  -20.1231  -11.0837 O   0  0  0  0  0  0  0  0  0  0  0  0
   28.8517  -18.4641   -6.8978 C   0  0  0  0  0  0  0  0  0  0  0  0
   28.4975  -20.0778   -6.1007 S   0  0  0  0  0  0  0  0  0  0  0  0
   27.1645  -20.8451   -7.0916 C   0  0  0  0  0  0  0  0  0  0  0  0
   27.4678  -20.7740   -8.5482 C   0  0  0  0  0  0  0  0  0  0  0  0
   26.3149  -21.4120   -9.3314 C   0  0  2  0  0  0  0  0  0  0  0  0
   26.6109  -21.3670  -10.7432 N   0  0  0  0  0  0  0  0  0  0  0  0
   25.0344  -20.8071   -8.9904 C   0  0  0  0  0  0  0  0  0  0  0  0
   24.1837  -21.4634   -8.0677 O   0  0  0  0  0  0  0  0  0  0  0  0
   24.5700  -19.7314   -9.4317 O   0  0  0  0  0  0  0  0  0  0  0  0
  2  1  1  0
  3  2  2  0
  4  3  1  0
  5  4  2  0
  5 11  1  0
  6  5  1  0
  7  8  1  6
  7  6  1  0
  9  7  1  0
 10  9  2  0
 11 12  2  0
 12  2  1  0
 13  9  1  0
 14 20  1  0
 14 13  1  0
 14 15  1  1
 16 15  1  0
 17 16  1  0
 18 17  1  0
 19 18  1  0
 20 27  1  0
 21 20  2  0
 22 23  1  0
 23 24  1  0
 24 25  1  0
 26 25  1  1
 26 28  1  0
 27 26  1  0
 28 30  2  0
 28 29  1  0
M  END
$$$$
