YKM.pdb
     RDKit          3D

 30 30  0  0  1  0  0  0  0  0999 V2000
   29.9468  -20.0082   -3.9479 O   0  0  0  0  0  0  0  0  0  0  0  0
   29.1324  -19.9129   -5.0666 C   0  0  0  0  0  0  0  0  0  0  0  0
   28.1506  -20.8312   -5.2964 C   0  0  0  0  0  0  0  0  0  0  0  0
   27.3380  -20.7333   -6.4159 C   0  0  0  0  0  0  0  0  0  0  0  0
   27.5682  -19.6807   -7.2688 C   0  0  0  0  0  0  0  0  0  0  0  0
   26.7088  -19.5602   -8.4715 C   0  0  0  0  0  0  0  0  0  0  0  0
   26.8770  -20.8559   -9.2533 C   0  0  2  0  0  0  0  0  0  0  0  0
   28.2572  -21.1714   -9.4765 N   0  0  0  0  0  0  0  0  0  0  0  0
   26.2019  -20.6523  -10.5571 C   0  0  0  0  0  0  0  0  0  0  0  0
   26.5948  -19.7062  -11.3143 O   0  0  0  0  0  0  0  0  0  0  0  0
   28.5448  -18.7438   -7.0658 C   0  0  0  0  0  0  0  0  0  0  0  0
   29.3355  -18.8734   -5.9393 C   0  0  0  0  0  0  0  0  0  0  0  0
   25.1536  -21.4912  -10.9372 N   0  0  0  0  0  0  0  0  0  0  0  0
   24.6486  -21.3685  -12.3724 C   0  0  1  0  0  0  0  0  0  0  0  0
   24.9827  -22.6519  -12.9766 C   0  0  0  0  0  0  0  0  0  0  0  0
   25.3294  -22.7408  -14.3971 C   0  0  0  0  0  0  0  0  0  0  0  0
   26.3812  -21.8010  -14.8463 C   0  0  0  0  0  0  0  0  0  0  0  0
   26.4838  -21.9516  -16.3734 C   0  0  0  0  0  0  0  0  0  0  0  0
   27.5031  -21.0330  -16.8220 N   0  0  0  0  0  0  0  0  0  0  0  0
   23.2762  -20.9039  -12.1732 C   0  0  0  0  0  0  0  0  0  0  0  0
   22.6004  -21.2798  -11.1330 O   0  0  0  0  0  0  0  0  0  0  0  0
   19.8459  -15.2711  -12.8601 C   0  0  0  0  0  0  0  0  0  0  0  0
   18.8894  -16.4711  -13.8651 S   0  0  0  0  0  0  0  0  0  0  0  0
   19.3500  -18.1280  -13.2407 C   0  0  0  0  0  0  0  0  0  0  0  0
   20.8090  -18.3788  -13.4058 C   0  0  0  0  0  0  0  0  0  0  0  0
   21.1565  -19.7378  -12.7876 C   0  0  2  0  0  0  0  0  0  0  0  0
   22.5514  -20.0276  -13.0185 N   0  0  0  0  0  0  0  0  0  0  0  0
   20.2630  -20.7869  -13.2598 C   0  0  0  0  0  0  0  0  0  0  0  0
   19.0731  -21.0571  -12.5409 O   0  0  0  0  0  0  0  0  0  0  0  0
   20.4230  -21.5135  -14.2668 O   0  0  0  0  0  0  0  0  0  0  0  0
  2  1  1  0
  3  2  2  0
  4  3  1  0
  5  4  2  0
  5 11  1  0
  6  5  1  0
  7  8  1  6
  7  6  1  0
  9  7  1  0
 10  9  2  0
 11 12  2  0
 12  2  1  0
 13  9  1  0
 14 20  1  0
 14 13  1  0
 14 15  1  1
 16 15  1  0
 17 16  1  0
 18 17  1  0
 19 18  1  0
 20 27  1  0
 21 20  2  0
 22 23  1  0
 23 24  1  0
 24 25  1  0
 26 25  1  6
 26 28  1  0
 27 26  1  0
 28 30  2  0
 28 29  1  0
M  END
$$$$
