YKM.pdb
     RDKit          3D

 30 30  0  0  1  0  0  0  0  0999 V2000
   24.3260  -12.7721  -21.1125 O   0  0  0  0  0  0  0  0  0  0  0  0
   23.9470  -13.8461  -20.3209 C   0  0  0  0  0  0  0  0  0  0  0  0
   24.3863  -13.9553  -19.0344 C   0  0  0  0  0  0  0  0  0  0  0  0
   24.0055  -15.0304  -18.2455 C   0  0  0  0  0  0  0  0  0  0  0  0
   23.1762  -15.9656  -18.8163 C   0  0  0  0  0  0  0  0  0  0  0  0
   22.7588  -17.1223  -17.9872 C   0  0  0  0  0  0  0  0  0  0  0  0
   23.8994  -18.1292  -18.0464 C   0  0  2  0  0  0  0  0  0  0  0  0
   23.9498  -18.8078  -19.3078 N   0  0  0  0  0  0  0  0  0  0  0  0
   23.6486  -19.1143  -16.9676 C   0  0  0  0  0  0  0  0  0  0  0  0
   22.9531  -20.1496  -17.2268 O   0  0  0  0  0  0  0  0  0  0  0  0
   22.7187  -15.8840  -20.1035 C   0  0  0  0  0  0  0  0  0  0  0  0
   23.1189  -14.7985  -20.8601 C   0  0  0  0  0  0  0  0  0  0  0  0
   24.1722  -18.8989  -15.6922 N   0  0  0  0  0  0  0  0  0  0  0  0
   23.9974  -20.0183  -14.6692 C   0  0  1  0  0  0  0  0  0  0  0  0
   25.2044  -19.9467  -13.8558 C   0  0  0  0  0  0  0  0  0  0  0  0
   25.3612  -20.8002  -12.6756 C   0  0  0  0  0  0  0  0  0  0  0  0
   26.6275  -20.6159  -11.9316 C   0  0  0  0  0  0  0  0  0  0  0  0
   26.5415  -21.5138  -10.6859 C   0  0  0  0  0  0  0  0  0  0  0  0
   27.8785  -21.6287  -10.1536 N   0  0  0  0  0  0  0  0  0  0  0  0
   22.6573  -19.7483  -14.1491 C   0  0  0  0  0  0  0  0  0  0  0  0
   22.2177  -18.5316  -14.0675 O   0  0  0  0  0  0  0  0  0  0  0  0
   17.7545  -19.0456  -16.7590 C   0  0  0  0  0  0  0  0  0  0  0  0
   17.0731  -20.3137  -15.6221 S   0  0  0  0  0  0  0  0  0  0  0  0
   18.1015  -20.2368  -14.1107 C   0  0  0  0  0  0  0  0  0  0  0  0
   19.5249  -19.9497  -14.4424 C   0  0  0  0  0  0  0  0  0  0  0  0
   20.4036  -20.3233  -13.2433 C   0  0  2  0  0  0  0  0  0  0  0  0
   21.7136  -20.7096  -13.7099 N   0  0  0  0  0  0  0  0  0  0  0  0
   19.7686  -21.3316  -12.4055 C   0  0  0  0  0  0  0  0  0  0  0  0
   18.6093  -20.9877  -11.6683 O   0  0  0  0  0  0  0  0  0  0  0  0
   20.1366  -22.5178  -12.2473 O   0  0  0  0  0  0  0  0  0  0  0  0
  2  1  1  0
  3  2  2  0
  4  3  1  0
  5  4  2  0
  5 11  1  0
  6  5  1  0
  7  8  1  6
  7  6  1  0
  9  7  1  0
 10  9  2  0
 11 12  2  0
 12  2  1  0
 13  9  1  0
 14 20  1  0
 14 13  1  0
 14 15  1  1
 16 15  1  0
 17 16  1  0
 18 17  1  0
 19 18  1  0
 20 27  1  0
 21 20  2  0
 22 23  1  0
 23 24  1  0
 24 25  1  0
 26 25  1  6
 26 28  1  0
 27 26  1  0
 28 30  2  0
 28 29  1  0
M  END
$$$$
