KSL.pdb
     RDKit          3D

 24 23  0  0  1  0  0  0  0  0999 V2000
   19.8980  -15.2072  -18.1083 N   0  0  0  0  0  0  0  0  0  0  0  0
   19.3404  -13.8806  -18.2804 C   0  0  1  0  0  0  0  0  0  0  0  0
   18.0682  -13.7653  -17.5016 C   0  0  0  0  0  0  0  0  0  0  0  0
   16.9746  -14.6225  -18.0413 C   0  0  0  0  0  0  0  0  0  0  0  0
   16.6817  -15.8384  -17.2053 C   0  0  0  0  0  0  0  0  0  0  0  0
   15.5823  -16.6706  -17.8728 C   0  0  0  0  0  0  0  0  0  0  0  0
   15.2486  -17.8033  -17.0339 N   0  0  0  0  0  0  0  0  0  0  0  0
   20.3365  -12.8437  -17.8332 C   0  0  0  0  0  0  0  0  0  0  0  0
   21.1786  -13.1483  -16.9671 O   0  0  0  0  0  0  0  0  0  0  0  0
   20.2481   -9.0019  -19.5704 O   0  0  0  0  0  0  0  0  0  0  0  0
   21.4282   -9.6772  -19.3462 C   0  0  0  0  0  0  0  0  0  0  0  0
   21.3381  -10.6012  -18.1240 C   0  0  2  0  0  0  0  0  0  0  0  0
   20.2871  -11.5536  -18.4096 N   0  0  0  0  0  0  0  0  0  0  0  0
   20.9621   -9.7924  -16.9158 C   0  0  0  0  0  0  0  0  0  0  0  0
   19.7597   -9.6678  -16.5591 O   0  0  0  0  0  0  0  0  0  0  0  0
   23.1358  -10.0548  -11.8597 C   0  0  0  0  0  0  0  0  0  0  0  0
   22.1857   -9.8101  -13.0079 C   0  0  1  0  0  0  0  0  0  0  0  0
   20.8015   -9.6260  -12.3658 C   0  0  0  0  0  0  0  0  0  0  0  0
   22.4611   -8.5724  -13.7836 C   0  0  0  0  0  0  0  0  0  0  0  0
   21.6123   -8.3154  -14.9732 C   0  0  2  0  0  0  0  0  0  0  0  0
   21.9420   -9.1341  -16.1239 N   0  0  0  0  0  0  0  0  0  0  0  0
   21.5166   -6.9154  -15.4101 C   0  0  0  0  0  0  0  0  0  0  0  0
   20.8002   -5.9467  -14.6968 O   0  0  0  0  0  0  0  0  0  0  0  0
   22.0785   -6.5035  -16.4593 O   0  0  0  0  0  0  0  0  0  0  0  0
  2  1  1  1
  3  2  1  0
  4  3  1  0
  5  4  1  0
  5  6  1  0
  7  6  1  0
  8  2  1  0
  8  9  2  0
 12 11  1  6
 11 10  1  0
 12 13  1  0
 13  8  1  0
 14 12  1  0
 15 14  2  0
 17 16  1  1
 18 17  1  0
 19 17  1  0
 20 19  1  1
 20 21  1  0
 21 14  1  0
 22 20  1  0
 23 22  1  0
 24 22  2  0
M  END
$$$$
