KSL.pdb
     RDKit          3D

 24 23  0  0  1  0  0  0  0  0999 V2000
   27.8053  -19.6856  -16.3270 N   0  0  0  0  0  0  0  0  0  0  0  0
   27.4288  -20.7219  -15.3865 C   0  0  1  0  0  0  0  0  0  0  0  0
   28.5967  -21.6232  -15.1377 C   0  0  0  0  0  0  0  0  0  0  0  0
   28.7631  -22.6657  -16.1902 C   0  0  0  0  0  0  0  0  0  0  0  0
   30.1838  -22.8491  -16.6498 C   0  0  0  0  0  0  0  0  0  0  0  0
   30.6609  -24.2621  -16.2997 C   0  0  0  0  0  0  0  0  0  0  0  0
   32.0375  -24.4312  -16.7171 N   0  0  0  0  0  0  0  0  0  0  0  0
   26.9512  -20.0993  -14.1014 C   0  0  0  0  0  0  0  0  0  0  0  0
   27.4523  -19.0211  -13.7292 O   0  0  0  0  0  0  0  0  0  0  0  0
   23.4212  -21.4413  -12.3318 O   0  0  0  0  0  0  0  0  0  0  0  0
   23.9276  -20.1640  -12.2269 C   0  0  0  0  0  0  0  0  0  0  0  0
   25.4593  -20.1594  -12.1297 C   0  0  2  0  0  0  0  0  0  0  0  0
   25.9471  -20.7567  -13.3539 N   0  0  0  0  0  0  0  0  0  0  0  0
   25.8860  -21.0004  -10.9610 C   0  0  0  0  0  0  0  0  0  0  0  0
   26.9032  -21.7419  -11.0242 O   0  0  0  0  0  0  0  0  0  0  0  0
   28.7623  -20.9375   -6.7639 C   0  0  0  0  0  0  0  0  0  0  0  0
   27.5497  -20.0490   -6.9093 C   0  0  1  0  0  0  0  0  0  0  0  0
   28.0654  -18.6134   -6.7212 C   0  0  0  0  0  0  0  0  0  0  0  0
   26.9071  -20.0963   -8.2489 C   0  0  0  0  0  0  0  0  0  0  0  0
   25.8056  -21.0723   -8.4379 C   0  0  2  0  0  0  0  0  0  0  0  0
   25.1643  -20.9973   -9.7364 N   0  0  0  0  0  0  0  0  0  0  0  0
   24.7620  -21.0791   -7.4030 C   0  0  0  0  0  0  0  0  0  0  0  0
   24.8426  -21.8713   -6.2513 O   0  0  0  0  0  0  0  0  0  0  0  0
   23.7274  -20.3666   -7.4934 O   0  0  0  0  0  0  0  0  0  0  0  0
  2  1  1  6
  3  2  1  0
  4  3  1  0
  5  4  1  0
  5  6  1  0
  7  6  1  0
  8  2  1  0
  8  9  2  0
 12 11  1  6
 11 10  1  0
 12 13  1  0
 13  8  1  0
 14 12  1  0
 15 14  2  0
 17 16  1  6
 18 17  1  0
 19 17  1  0
 20 19  1  1
 20 21  1  0
 21 14  1  0
 22 20  1  0
 23 22  1  0
 24 22  2  0
M  END
$$$$
