KSL.pdb
     RDKit          3D

 24 23  0  0  1  0  0  0  0  0999 V2000
   27.6043  -25.3537  -16.3222 N   0  0  0  0  0  0  0  0  0  0  0  0
   26.9550  -24.9865  -17.5647 C   0  0  1  0  0  0  0  0  0  0  0  0
   26.1989  -26.1600  -18.1026 C   0  0  0  0  0  0  0  0  0  0  0  0
   27.0744  -27.3269  -18.4089 C   0  0  0  0  0  0  0  0  0  0  0  0
   27.0887  -28.3793  -17.3339 C   0  0  0  0  0  0  0  0  0  0  0  0
   28.0110  -29.5295  -17.7504 C   0  0  0  0  0  0  0  0  0  0  0  0
   27.9916  -30.5638  -16.7366 N   0  0  0  0  0  0  0  0  0  0  0  0
   26.0345  -23.8170  -17.3362 C   0  0  0  0  0  0  0  0  0  0  0  0
   25.4630  -23.7037  -16.2350 O   0  0  0  0  0  0  0  0  0  0  0  0
   25.8159  -20.9365  -20.3049 O   0  0  0  0  0  0  0  0  0  0  0  0
   25.6915  -20.5756  -18.9807 C   0  0  0  0  0  0  0  0  0  0  0  0
   25.0578  -21.6911  -18.1383 C   0  0  2  0  0  0  0  0  0  0  0  0
   25.8453  -22.8807  -18.3787 N   0  0  0  0  0  0  0  0  0  0  0  0
   23.6487  -21.9248  -18.6017 C   0  0  0  0  0  0  0  0  0  0  0  0
   23.3902  -22.7398  -19.5277 O   0  0  0  0  0  0  0  0  0  0  0  0
   18.7306  -23.5809  -18.6903 C   0  0  0  0  0  0  0  0  0  0  0  0
   18.8863  -22.3144  -17.8824 C   0  0  1  0  0  0  0  0  0  0  0  0
   18.0774  -22.5438  -16.5958 C   0  0  0  0  0  0  0  0  0  0  0  0
   20.2805  -22.0197  -17.4596 C   0  0  0  0  0  0  0  0  0  0  0  0
   21.1800  -21.4089  -18.4693 C   0  0  2  0  0  0  0  0  0  0  0  0
   22.5480  -21.2398  -18.0186 N   0  0  0  0  0  0  0  0  0  0  0  0
   20.7248  -20.1426  -19.0603 C   0  0  0  0  0  0  0  0  0  0  0  0
   19.6832  -20.0735  -19.9935 O   0  0  0  0  0  0  0  0  0  0  0  0
   21.2493  -19.0382  -18.7583 O   0  0  0  0  0  0  0  0  0  0  0  0
  2  1  1  1
  3  2  1  0
  4  3  1  0
  5  4  1  0
  5  6  1  0
  7  6  1  0
  8  2  1  0
  8  9  2  0
 12 11  1  6
 11 10  1  0
 12 13  1  0
 13  8  1  0
 14 12  1  0
 15 14  2  0
 17 16  1  6
 18 17  1  0
 19 17  1  0
 20 19  1  1
 20 21  1  0
 21 14  1  0
 22 20  1  0
 23 22  1  0
 24 22  2  0
M  END
$$$$
