KSL.pdb
     RDKit          3D

 24 23  0  0  1  0  0  0  0  0999 V2000
   27.3784  -17.6317  -15.8086 N   0  0  0  0  0  0  0  0  0  0  0  0
   26.4178  -17.2642  -14.7875 C   0  0  1  0  0  0  0  0  0  0  0  0
   25.3356  -16.4275  -15.3933 C   0  0  0  0  0  0  0  0  0  0  0  0
   25.0725  -16.7603  -16.8223 C   0  0  0  0  0  0  0  0  0  0  0  0
   23.7119  -17.3519  -17.0717 C   0  0  0  0  0  0  0  0  0  0  0  0
   23.5484  -17.6584  -18.5638 C   0  0  0  0  0  0  0  0  0  0  0  0
   22.2682  -18.2952  -18.7950 N   0  0  0  0  0  0  0  0  0  0  0  0
   25.8435  -18.5035  -14.1537 C   0  0  0  0  0  0  0  0  0  0  0  0
   24.6140  -18.6963  -14.2087 O   0  0  0  0  0  0  0  0  0  0  0  0
   28.1535  -21.7893  -13.6711 O   0  0  0  0  0  0  0  0  0  0  0  0
   26.7757  -21.7926  -13.6980 C   0  0  0  0  0  0  0  0  0  0  0  0
   26.1829  -20.6152  -12.9119 C   0  0  2  0  0  0  0  0  0  0  0  0
   26.7169  -19.4130  -13.5141 N   0  0  0  0  0  0  0  0  0  0  0  0
   26.6312  -20.6966  -11.4810 C   0  0  0  0  0  0  0  0  0  0  0  0
   27.8489  -20.6028  -11.1696 O   0  0  0  0  0  0  0  0  0  0  0  0
   28.5856  -20.6878   -6.7774 C   0  0  0  0  0  0  0  0  0  0  0  0
   27.3558  -19.8826   -7.1235 C   0  0  1  0  0  0  0  0  0  0  0  0
   27.7044  -18.4267   -6.7751 C   0  0  0  0  0  0  0  0  0  0  0  0
   26.9935  -19.8982   -8.5651 C   0  0  0  0  0  0  0  0  0  0  0  0
   26.1053  -20.9927   -9.0287 C   0  0  2  0  0  0  0  0  0  0  0  0
   25.7055  -20.8824  -10.4183 N   0  0  0  0  0  0  0  0  0  0  0  0
   24.9052  -21.2401   -8.2173 C   0  0  0  0  0  0  0  0  0  0  0  0
   24.9506  -21.8831   -6.9743 O   0  0  0  0  0  0  0  0  0  0  0  0
   23.7579  -20.8847   -8.5964 O   0  0  0  0  0  0  0  0  0  0  0  0
  2  1  1  6
  3  2  1  0
  4  3  1  0
  5  4  1  0
  5  6  1  0
  7  6  1  0
  8  2  1  0
  8  9  2  0
 12 11  1  6
 11 10  1  0
 12 13  1  0
 13  8  1  0
 14 12  1  0
 15 14  2  0
 17 16  1  6
 18 17  1  0
 19 17  1  0
 20 19  1  1
 20 21  1  0
 21 14  1  0
 22 20  1  0
 23 22  1  0
 24 22  2  0
M  END
$$$$
