KSL.pdb
     RDKit          3D

 24 23  0  0  1  0  0  0  0  0999 V2000
   25.3744  -18.8927  -17.4873 N   0  0  0  0  0  0  0  0  0  0  0  0
   26.0914  -19.6783  -16.5028 C   0  0  1  0  0  0  0  0  0  0  0  0
   27.5589  -19.4114  -16.6187 C   0  0  0  0  0  0  0  0  0  0  0  0
   28.2029  -20.1674  -17.7302 C   0  0  0  0  0  0  0  0  0  0  0  0
   28.2910  -21.6500  -17.4906 C   0  0  0  0  0  0  0  0  0  0  0  0
   29.7324  -22.1225  -17.7055 C   0  0  0  0  0  0  0  0  0  0  0  0
   29.8569  -23.5098  -17.3083 N   0  0  0  0  0  0  0  0  0  0  0  0
   25.5952  -19.3453  -15.1207 C   0  0  0  0  0  0  0  0  0  0  0  0
   26.2726  -18.5859  -14.4020 O   0  0  0  0  0  0  0  0  0  0  0  0
   22.0913  -20.8189  -14.4284 O   0  0  0  0  0  0  0  0  0  0  0  0
   22.4016  -20.0329  -13.3398 C   0  0  0  0  0  0  0  0  0  0  0  0
   23.8613  -19.5598  -13.3702 C   0  0  2  0  0  0  0  0  0  0  0  0
   24.3743  -19.9045  -14.6784 N   0  0  0  0  0  0  0  0  0  0  0  0
   24.6440  -20.2937  -12.3194 C   0  0  0  0  0  0  0  0  0  0  0  0
   25.7796  -20.7802  -12.5688 O   0  0  0  0  0  0  0  0  0  0  0  0
   28.2270  -21.3935   -8.9098 C   0  0  0  0  0  0  0  0  0  0  0  0
   27.1113  -20.4233   -8.6020 C   0  0  1  0  0  0  0  0  0  0  0  0
   27.8044  -19.1107   -8.2032 C   0  0  0  0  0  0  0  0  0  0  0  0
   26.2338  -20.1047   -9.7587 C   0  0  0  0  0  0  0  0  0  0  0  0
   24.9711  -20.8738   -9.8834 C   0  0  2  0  0  0  0  0  0  0  0  0
   24.1405  -20.4714  -11.0020 N   0  0  0  0  0  0  0  0  0  0  0  0
   24.1308  -20.9384   -8.6794 C   0  0  0  0  0  0  0  0  0  0  0  0
   22.8026  -20.4957   -8.6580 O   0  0  0  0  0  0  0  0  0  0  0  0
   24.5605  -21.3999   -7.5892 O   0  0  0  0  0  0  0  0  0  0  0  0
  2  1  1  6
  3  2  1  0
  4  3  1  0
  5  4  1  0
  5  6  1  0
  7  6  1  0
  8  2  1  0
  8  9  2  0
 12 11  1  6
 11 10  1  0
 12 13  1  0
 13  8  1  0
 14 12  1  0
 15 14  2  0
 17 16  1  6
 18 17  1  0
 19 17  1  0
 20 19  1  1
 20 21  1  0
 21 14  1  0
 22 20  1  0
 23 22  1  0
 24 22  2  0
M  END
$$$$
