KSL.pdb
     RDKit          3D

 24 23  0  0  1  0  0  0  0  0999 V2000
   21.9934  -22.7983  -17.6000 N   0  0  0  0  0  0  0  0  0  0  0  0
   22.6181  -21.6111  -17.0515 C   0  0  1  0  0  0  0  0  0  0  0  0
   21.5633  -20.6557  -16.5902 C   0  0  0  0  0  0  0  0  0  0  0  0
   20.9860  -19.8446  -17.6995 C   0  0  0  0  0  0  0  0  0  0  0  0
   19.4825  -19.8621  -17.7514 C   0  0  0  0  0  0  0  0  0  0  0  0
   18.9949  -18.9532  -18.8840 C   0  0  0  0  0  0  0  0  0  0  0  0
   19.2460  -17.5682  -18.5426 N   0  0  0  0  0  0  0  0  0  0  0  0
   23.5299  -21.9901  -15.9146 C   0  0  0  0  0  0  0  0  0  0  0  0
   23.1782  -22.8947  -15.1335 O   0  0  0  0  0  0  0  0  0  0  0  0
   27.0476  -19.7529  -15.2493 O   0  0  0  0  0  0  0  0  0  0  0  0
   27.0036  -21.1033  -14.9782 C   0  0  0  0  0  0  0  0  0  0  0  0
   25.5884  -21.5696  -14.6100 C   0  0  2  0  0  0  0  0  0  0  0  0
   24.7594  -21.3080  -15.7666 N   0  0  0  0  0  0  0  0  0  0  0  0
   25.0868  -20.7648  -13.4457 C   0  0  0  0  0  0  0  0  0  0  0  0
   24.1741  -19.9071  -13.5868 O   0  0  0  0  0  0  0  0  0  0  0  0
   21.0798  -21.3760  -11.3197 C   0  0  0  0  0  0  0  0  0  0  0  0
   22.3666  -20.5860  -11.3484 C   0  0  1  0  0  0  0  0  0  0  0  0
   22.1482  -19.4067  -10.3872 C   0  0  0  0  0  0  0  0  0  0  0  0
   23.5557  -21.3251  -10.8491 C   0  0  0  0  0  0  0  0  0  0  0  0
   24.8667  -20.6353  -10.9332 C   0  0  2  0  0  0  0  0  0  0  0  0
   25.6170  -20.9341  -12.1377 N   0  0  0  0  0  0  0  0  0  0  0  0
   25.7591  -20.7976   -9.7767 C   0  0  0  0  0  0  0  0  0  0  0  0
   25.9401  -19.7977   -8.8135 O   0  0  0  0  0  0  0  0  0  0  0  0
   26.4169  -21.8542   -9.5841 O   0  0  0  0  0  0  0  0  0  0  0  0
  2  1  1  1
  3  2  1  0
  4  3  1  0
  5  4  1  0
  5  6  1  0
  7  6  1  0
  8  2  1  0
  8  9  2  0
 12 11  1  6
 11 10  1  0
 12 13  1  0
 13  8  1  0
 14 12  1  0
 15 14  2  0
 17 16  1  1
 18 17  1  0
 19 17  1  0
 20 19  1  1
 20 21  1  0
 21 14  1  0
 22 20  1  0
 23 22  1  0
 24 22  2  0
M  END
$$$$
