KSL.pdb
     RDKit          3D

 24 23  0  0  1  0  0  0  0  0999 V2000
   20.5482  -12.9529  -16.6774 N   0  0  0  0  0  0  0  0  0  0  0  0
   21.2936  -12.0837  -17.5658 C   0  0  1  0  0  0  0  0  0  0  0  0
   21.1580  -12.5691  -18.9744 C   0  0  0  0  0  0  0  0  0  0  0  0
   20.9574  -14.0433  -19.0662 C   0  0  0  0  0  0  0  0  0  0  0  0
   22.2261  -14.8202  -19.2894 C   0  0  0  0  0  0  0  0  0  0  0  0
   21.9003  -16.3104  -19.4310 C   0  0  0  0  0  0  0  0  0  0  0  0
   23.1038  -17.0450  -19.7624 N   0  0  0  0  0  0  0  0  0  0  0  0
   20.7940  -10.6690  -17.4376 C   0  0  0  0  0  0  0  0  0  0  0  0
   20.5455  -10.0198  -18.4714 O   0  0  0  0  0  0  0  0  0  0  0  0
   19.1367   -9.5705  -13.9663 O   0  0  0  0  0  0  0  0  0  0  0  0
   18.9066   -8.8262  -15.1031 C   0  0  0  0  0  0  0  0  0  0  0  0
   20.1455   -8.7591  -16.0064 C   0  0  2  0  0  0  0  0  0  0  0  0
   20.6214  -10.1182  -16.1470 N   0  0  0  0  0  0  0  0  0  0  0  0
   21.2032   -7.9278  -15.3391 C   0  0  0  0  0  0  0  0  0  0  0  0
   22.0579   -8.4474  -14.5723 O   0  0  0  0  0  0  0  0  0  0  0  0
   24.4733   -4.7657  -17.9707 C   0  0  0  0  0  0  0  0  0  0  0  0
   23.8202   -5.6396  -16.9263 C   0  0  1  0  0  0  0  0  0  0  0  0
   24.9710   -6.3933  -16.2409 C   0  0  0  0  0  0  0  0  0  0  0  0
   23.1056   -4.8941  -15.8571 C   0  0  0  0  0  0  0  0  0  0  0  0
   22.2887   -5.6889  -14.9071 C   0  0  2  0  0  0  0  0  0  0  0  0
   21.2868   -6.5234  -15.5418 N   0  0  0  0  0  0  0  0  0  0  0  0
   21.6472   -4.9376  -13.8190 C   0  0  0  0  0  0  0  0  0  0  0  0
   20.2599   -4.9126  -13.6311 O   0  0  0  0  0  0  0  0  0  0  0  0
   22.3140   -4.2682  -12.9862 O   0  0  0  0  0  0  0  0  0  0  0  0
  2  1  1  1
  3  2  1  0
  4  3  1  0
  5  4  1  0
  5  6  1  0
  7  6  1  0
  8  2  1  0
  8  9  2  0
 12 11  1  1
 11 10  1  0
 12 13  1  0
 13  8  1  0
 14 12  1  0
 15 14  2  0
 17 16  1  6
 18 17  1  0
 19 17  1  0
 20 19  1  6
 20 21  1  0
 21 14  1  0
 22 20  1  0
 23 22  1  0
 24 22  2  0
M  END
$$$$
