NMQ.pdb
     RDKit          3D

 26 25  0  0  1  0  0  0  0  0999 V2000
    9.4470  -18.1871   19.1251 N   0  0  0  0  0  0  0  0  0  0  0  0
   10.7082  -17.5484   19.2713 C   0  0  0  0  0  0  0  0  0  0  0  0
   11.5016  -17.5694   18.2813 O   0  0  0  0  0  0  0  0  0  0  0  0
   11.0673  -16.8750   20.5703 C   0  0  0  0  0  0  0  0  0  0  0  0
    9.9202  -17.0565   21.5061 C   0  0  2  0  0  0  0  0  0  0  0  0
    8.6471  -16.7947   20.8902 N   0  0  0  0  0  0  0  0  0  0  0  0
   10.0588  -16.3256   22.7721 C   0  0  0  0  0  0  0  0  0  0  0  0
   11.1391  -16.4037   23.3928 O   0  0  0  0  0  0  0  0  0  0  0  0
    5.6828  -11.8907   25.4364 C   0  0  0  0  0  0  0  0  0  0  0  0
    7.1821  -11.7945   26.4574 S   0  0  0  0  0  0  0  0  0  0  0  0
    8.1187  -13.3714   26.3608 C   0  0  0  0  0  0  0  0  0  0  0  0
    8.1843  -13.8336   24.9444 C   0  0  0  0  0  0  0  0  0  0  0  0
    8.9551  -15.0642   24.6766 C   0  0  2  0  0  0  0  0  0  0  0  0
    9.0177  -15.5259   23.3322 N   0  0  0  0  0  0  0  0  0  0  0  0
    8.7185  -16.1688   25.6799 C   0  0  0  0  0  0  0  0  0  0  0  0
    7.7564  -16.9590   25.4806 O   0  0  0  0  0  0  0  0  0  0  0  0
    9.7069  -20.8675   24.9901 N   0  0  0  0  0  0  0  0  0  0  0  0
   10.8467  -20.8399   25.8284 C   0  0  0  0  0  0  0  0  0  0  0  0
   11.4152  -21.9568   26.0647 O   0  0  0  0  0  0  0  0  0  0  0  0
   11.3926  -19.6176   26.4156 C   0  0  0  0  0  0  0  0  0  0  0  0
   10.6814  -18.3480   26.1039 C   0  0  0  0  0  0  0  0  0  0  0  0
   10.0851  -17.6298   27.2441 C   0  0  2  0  0  0  0  0  0  0  0  0
    9.5076  -16.3491   26.8110 N   0  0  0  0  0  0  0  0  0  0  0  0
   10.8209  -17.4552   28.4800 C   0  0  0  0  0  0  0  0  0  0  0  0
   11.3396  -16.1871   28.8372 O   0  0  0  0  0  0  0  0  0  0  0  0
   11.0794  -18.3486   29.3439 O   0  0  0  0  0  0  0  0  0  0  0  0
  2  1  1  0
  3  2  2  0
  4  2  1  0
  5  4  1  0
  5  7  1  0
  5  6  1  6
  7  8  2  0
  7 14  1  0
 10  9  1  0
 11 12  1  0
 11 10  1  0
 13 12  1  6
 14 13  1  0
 15 13  1  0
 15 23  1  0
 16 15  2  0
 17 18  1  0
 18 20  1  0
 19 18  2  0
 20 21  1  0
 22 21  1  6
 22 23  1  0
 22 24  1  0
 24 25  1  0
 26 24  2  0
M  END
$$$$
