NMQ.pdb
     RDKit          3D

 26 25  0  0  1  0  0  0  0  0999 V2000
    8.6363  -18.2897   19.0175 N   0  0  0  0  0  0  0  0  0  0  0  0
    8.2313  -16.9683   18.6859 C   0  0  0  0  0  0  0  0  0  0  0  0
    7.8483  -16.7464   17.4968 O   0  0  0  0  0  0  0  0  0  0  0  0
    8.2650  -15.8838   19.7312 C   0  0  0  0  0  0  0  0  0  0  0  0
    8.6687  -16.5122   21.0221 C   0  0  2  0  0  0  0  0  0  0  0  0
    7.7423  -17.5167   21.4710 N   0  0  0  0  0  0  0  0  0  0  0  0
    8.9669  -15.5490   22.0895 C   0  0  0  0  0  0  0  0  0  0  0  0
   10.0325  -14.9014   22.0304 O   0  0  0  0  0  0  0  0  0  0  0  0
    4.9282  -12.3394   27.3023 C   0  0  0  0  0  0  0  0  0  0  0  0
    6.0753  -11.5349   26.1463 S   0  0  0  0  0  0  0  0  0  0  0  0
    7.5316  -12.6122   25.8436 C   0  0  0  0  0  0  0  0  0  0  0  0
    7.2624  -13.5110   24.6844 C   0  0  0  0  0  0  0  0  0  0  0  0
    8.3496  -14.4237   24.2779 C   0  0  2  0  0  0  0  0  0  0  0  0
    8.0970  -15.3127   23.1962 N   0  0  0  0  0  0  0  0  0  0  0  0
    9.0700  -15.0758   25.4349 C   0  0  0  0  0  0  0  0  0  0  0  0
    8.6948  -14.7948   26.6054 O   0  0  0  0  0  0  0  0  0  0  0  0
    6.5860  -18.7438   27.4355 N   0  0  0  0  0  0  0  0  0  0  0  0
    7.7223  -19.5792   27.3192 C   0  0  0  0  0  0  0  0  0  0  0  0
    7.7781  -20.5876   28.0980 O   0  0  0  0  0  0  0  0  0  0  0  0
    8.8054  -19.3478   26.3651 C   0  0  0  0  0  0  0  0  0  0  0  0
    8.8913  -17.9888   25.7645 C   0  0  0  0  0  0  0  0  0  0  0  0
   10.1982  -17.3132   25.8477 C   0  0  2  0  0  0  0  0  0  0  0  0
   10.1271  -15.9642   25.2676 N   0  0  0  0  0  0  0  0  0  0  0  0
   11.4093  -17.9811   25.4159 C   0  0  0  0  0  0  0  0  0  0  0  0
   12.1742  -18.7476   26.3280 O   0  0  0  0  0  0  0  0  0  0  0  0
   11.9093  -17.9699   24.2492 O   0  0  0  0  0  0  0  0  0  0  0  0
  2  1  1  0
  3  2  2  0
  4  2  1  0
  5  4  1  0
  5  7  1  0
  5  6  1  1
  7  8  2  0
  7 14  1  0
 10  9  1  0
 11 12  1  0
 11 10  1  0
 13 12  1  1
 14 13  1  0
 15 13  1  0
 15 23  1  0
 16 15  2  0
 17 18  1  0
 18 20  1  0
 19 18  2  0
 20 21  1  0
 22 21  1  6
 22 23  1  0
 22 24  1  0
 24 25  1  0
 26 24  2  0
M  END
$$$$
