NMQ.pdb
     RDKit          3D

 26 25  0  0  1  0  0  0  0  0999 V2000
    7.3615  -13.2818   18.7327 N   0  0  0  0  0  0  0  0  0  0  0  0
    7.9218  -14.4690   19.2772 C   0  0  0  0  0  0  0  0  0  0  0  0
    7.4029  -15.5773   18.9419 O   0  0  0  0  0  0  0  0  0  0  0  0
    9.0942  -14.3871   20.2199 C   0  0  0  0  0  0  0  0  0  0  0  0
    8.8900  -15.4105   21.2855 C   0  0  2  0  0  0  0  0  0  0  0  0
    7.6627  -16.1442   21.1307 N   0  0  0  0  0  0  0  0  0  0  0  0
    9.0290  -14.8889   22.6511 C   0  0  0  0  0  0  0  0  0  0  0  0
   10.0675  -14.2638   22.9499 O   0  0  0  0  0  0  0  0  0  0  0  0
    5.4060  -11.0440   25.8499 C   0  0  0  0  0  0  0  0  0  0  0  0
    6.8572  -11.6245   26.7754 S   0  0  0  0  0  0  0  0  0  0  0  0
    6.8304  -13.4555   26.9155 C   0  0  0  0  0  0  0  0  0  0  0  0
    6.7788  -14.0653   25.5556 C   0  0  0  0  0  0  0  0  0  0  0  0
    8.0628  -14.4895   24.9627 C   0  0  2  0  0  0  0  0  0  0  0  0
    8.0331  -15.0593   23.6593 N   0  0  0  0  0  0  0  0  0  0  0  0
    8.9680  -15.2287   25.9202 C   0  0  0  0  0  0  0  0  0  0  0  0
    9.0838  -14.7842   27.0944 O   0  0  0  0  0  0  0  0  0  0  0  0
    6.1616  -19.8996   26.2535 N   0  0  0  0  0  0  0  0  0  0  0  0
    7.1126  -20.1429   27.2727 C   0  0  0  0  0  0  0  0  0  0  0  0
    6.9623  -21.2077   27.9585 O   0  0  0  0  0  0  0  0  0  0  0  0
    8.2361  -19.2540   27.5633 C   0  0  0  0  0  0  0  0  0  0  0  0
    8.3497  -18.0235   26.7340 C   0  0  0  0  0  0  0  0  0  0  0  0
    9.7098  -17.6220   26.3337 C   0  0  2  0  0  0  0  0  0  0  0  0
    9.6801  -16.3694   25.5646 N   0  0  0  0  0  0  0  0  0  0  0  0
   10.6123  -18.5701   25.7125 C   0  0  0  0  0  0  0  0  0  0  0  0
   11.4717  -19.3713   26.5025 O   0  0  0  0  0  0  0  0  0  0  0  0
   10.7434  -18.7932   24.4698 O   0  0  0  0  0  0  0  0  0  0  0  0
  2  1  1  0
  3  2  2  0
  4  2  1  0
  5  4  1  0
  5  7  1  0
  5  6  1  1
  7  8  2  0
  7 14  1  0
 10  9  1  0
 11 12  1  0
 11 10  1  0
 13 12  1  1
 14 13  1  0
 15 13  1  0
 15 23  1  0
 16 15  2  0
 17 18  1  0
 18 20  1  0
 19 18  2  0
 20 21  1  0
 22 21  1  6
 22 23  1  0
 22 24  1  0
 24 25  1  0
 26 24  2  0
M  END
$$$$
