NMQ.pdb
     RDKit          3D

 26 25  0  0  1  0  0  0  0  0999 V2000
    7.2813  -18.9379   19.1055 N   0  0  0  0  0  0  0  0  0  0  0  0
    8.6431  -18.6938   19.4304 C   0  0  0  0  0  0  0  0  0  0  0  0
    9.5200  -18.9694   18.5557 O   0  0  0  0  0  0  0  0  0  0  0  0
    9.0077  -18.1252   20.7772 C   0  0  0  0  0  0  0  0  0  0  0  0
    8.8687  -16.6425   20.6948 C   0  0  2  0  0  0  0  0  0  0  0  0
    9.6336  -16.0662   19.6219 N   0  0  0  0  0  0  0  0  0  0  0  0
    9.1222  -15.9460   21.9625 C   0  0  0  0  0  0  0  0  0  0  0  0
   10.2967  -15.8692   22.3784 O   0  0  0  0  0  0  0  0  0  0  0  0
    6.2364  -11.3568   27.8758 C   0  0  0  0  0  0  0  0  0  0  0  0
    5.9498  -12.2021   26.2938 S   0  0  0  0  0  0  0  0  0  0  0  0
    7.3696  -13.2954   25.8914 C   0  0  0  0  0  0  0  0  0  0  0  0
    7.1980  -13.8628   24.5230 C   0  0  0  0  0  0  0  0  0  0  0  0
    8.2548  -14.7727   24.0379 C   0  0  2  0  0  0  0  0  0  0  0  0
    8.0905  -15.3485   22.7472 N   0  0  0  0  0  0  0  0  0  0  0  0
    8.7440  -15.7559   25.0756 C   0  0  0  0  0  0  0  0  0  0  0  0
    8.0054  -16.7366   25.3625 O   0  0  0  0  0  0  0  0  0  0  0  0
   14.4843  -17.5437   24.6745 N   0  0  0  0  0  0  0  0  0  0  0  0
   14.1534  -16.2470   25.1345 C   0  0  0  0  0  0  0  0  0  0  0  0
   15.0141  -15.3275   24.9339 O   0  0  0  0  0  0  0  0  0  0  0  0
   12.8971  -15.9207   25.8069 C   0  0  0  0  0  0  0  0  0  0  0  0
   11.9223  -17.0313   25.9830 C   0  0  0  0  0  0  0  0  0  0  0  0
   10.6064  -16.6709   26.5396 C   0  0  2  0  0  0  0  0  0  0  0  0
    9.9647  -15.6253   25.7294 N   0  0  0  0  0  0  0  0  0  0  0  0
   10.4505  -16.3781   27.9500 C   0  0  0  0  0  0  0  0  0  0  0  0
    9.8098  -15.1883   28.3728 O   0  0  0  0  0  0  0  0  0  0  0  0
   10.8378  -17.0954   28.9230 O   0  0  0  0  0  0  0  0  0  0  0  0
  2  1  1  0
  3  2  2  0
  4  2  1  0
  5  4  1  0
  5  7  1  0
  5  6  1  6
  7  8  2  0
  7 14  1  0
 10  9  1  0
 11 12  1  0
 11 10  1  0
 13 12  1  1
 14 13  1  0
 15 13  1  0
 15 23  1  0
 16 15  2  0
 17 18  1  0
 18 20  1  0
 19 18  2  0
 20 21  1  0
 22 21  1  6
 22 23  1  0
 22 24  1  0
 24 25  1  0
 26 24  2  0
M  END
$$$$
