NMQ.pdb
     RDKit          3D

 26 25  0  0  1  0  0  0  0  0999 V2000
    8.4503  -17.3182   17.8129 N   0  0  0  0  0  0  0  0  0  0  0  0
    8.4244  -15.8972   17.8045 C   0  0  0  0  0  0  0  0  0  0  0  0
    8.6261  -15.3071   16.6994 O   0  0  0  0  0  0  0  0  0  0  0  0
    8.1637  -15.1394   19.0803 C   0  0  0  0  0  0  0  0  0  0  0  0
    8.1300  -16.1292   20.1954 C   0  0  2  0  0  0  0  0  0  0  0  0
    6.8639  -16.8018   20.3103 N   0  0  0  0  0  0  0  0  0  0  0  0
    8.5640  -15.5881   21.4896 C   0  0  0  0  0  0  0  0  0  0  0  0
    9.7811  -15.3798   21.6732 O   0  0  0  0  0  0  0  0  0  0  0  0
    6.1425  -11.4260   26.6536 C   0  0  0  0  0  0  0  0  0  0  0  0
    7.6961  -12.3639   26.5735 S   0  0  0  0  0  0  0  0  0  0  0  0
    7.3553  -14.1249   26.1788 C   0  0  0  0  0  0  0  0  0  0  0  0
    7.0391  -14.2651   24.7281 C   0  0  0  0  0  0  0  0  0  0  0  0
    8.0295  -14.9724   23.8921 C   0  0  2  0  0  0  0  0  0  0  0  0
    7.6620  -15.2855   22.5537 N   0  0  0  0  0  0  0  0  0  0  0  0
    8.7361  -16.1044   24.6007 C   0  0  0  0  0  0  0  0  0  0  0  0
    8.0976  -17.1730   24.8012 O   0  0  0  0  0  0  0  0  0  0  0  0
   13.7868  -19.0680   23.7021 N   0  0  0  0  0  0  0  0  0  0  0  0
   13.8366  -19.0617   25.1163 C   0  0  0  0  0  0  0  0  0  0  0  0
   14.6220  -19.9010   25.6688 O   0  0  0  0  0  0  0  0  0  0  0  0
   13.0525  -18.1540   25.9519 C   0  0  0  0  0  0  0  0  0  0  0  0
   12.1623  -17.1929   25.2459 C   0  0  0  0  0  0  0  0  0  0  0  0
   10.7794  -17.0879   25.7439 C   0  0  2  0  0  0  0  0  0  0  0  0
   10.0516  -16.0191   25.0442 N   0  0  0  0  0  0  0  0  0  0  0  0
   10.5029  -17.0350   27.1651 C   0  0  0  0  0  0  0  0  0  0  0  0
   10.6041  -18.2002   27.9631 O   0  0  0  0  0  0  0  0  0  0  0  0
   10.1593  -16.0134   27.8355 O   0  0  0  0  0  0  0  0  0  0  0  0
  2  1  1  0
  3  2  2  0
  4  2  1  0
  5  4  1  0
  5  7  1  0
  5  6  1  1
  7  8  2  0
  7 14  1  0
 10  9  1  0
 11 12  1  0
 11 10  1  0
 13 12  1  1
 14 13  1  0
 15 13  1  0
 15 23  1  0
 16 15  2  0
 17 18  1  0
 18 20  1  0
 19 18  2  0
 20 21  1  0
 22 21  1  1
 22 23  1  0
 22 24  1  0
 24 25  1  0
 26 24  2  0
M  END
$$$$
