NMQ.pdb
     RDKit          3D

 26 25  0  0  1  0  0  0  0  0999 V2000
   11.9977  -17.1357   17.8471 N   0  0  0  0  0  0  0  0  0  0  0  0
   10.5903  -17.2211   18.0250 C   0  0  0  0  0  0  0  0  0  0  0  0
    9.9785  -18.1795   17.4617 O   0  0  0  0  0  0  0  0  0  0  0  0
    9.8713  -16.1941   18.8607 C   0  0  0  0  0  0  0  0  0  0  0  0
    9.2723  -16.9010   20.0294 C   0  0  2  0  0  0  0  0  0  0  0  0
    7.8673  -17.1624   19.8671 N   0  0  0  0  0  0  0  0  0  0  0  0
    9.5482  -16.2611   21.3219 C   0  0  0  0  0  0  0  0  0  0  0  0
   10.7363  -16.1182   21.6772 O   0  0  0  0  0  0  0  0  0  0  0  0
    6.7134  -11.7627   27.3159 C   0  0  0  0  0  0  0  0  0  0  0  0
    6.4668  -12.5276   25.6869 S   0  0  0  0  0  0  0  0  0  0  0  0
    7.8530  -13.6705   25.3054 C   0  0  0  0  0  0  0  0  0  0  0  0
    7.6827  -14.2305   23.9338 C   0  0  0  0  0  0  0  0  0  0  0  0
    8.7292  -15.1545   23.4529 C   0  0  2  0  0  0  0  0  0  0  0  0
    8.5234  -15.7909   22.1972 N   0  0  0  0  0  0  0  0  0  0  0  0
    9.2643  -16.0848   24.5165 C   0  0  0  0  0  0  0  0  0  0  0  0
    8.4687  -16.9098   25.0419 O   0  0  0  0  0  0  0  0  0  0  0  0
   10.9626  -13.6160   29.4637 N   0  0  0  0  0  0  0  0  0  0  0  0
   11.1422  -14.9953   29.7240 C   0  0  0  0  0  0  0  0  0  0  0  0
   11.2411  -15.3426   30.9472 O   0  0  0  0  0  0  0  0  0  0  0  0
   11.2110  -16.0159   28.6797 C   0  0  0  0  0  0  0  0  0  0  0  0
   10.9732  -15.5629   27.2822 C   0  0  0  0  0  0  0  0  0  0  0  0
   11.0678  -16.5913   26.2312 C   0  0  2  0  0  0  0  0  0  0  0  0
   10.5879  -16.0684   24.9436 N   0  0  0  0  0  0  0  0  0  0  0  0
   10.5555  -17.9286   26.4511 C   0  0  0  0  0  0  0  0  0  0  0  0
    9.2672  -18.2920   25.9898 O   0  0  0  0  0  0  0  0  0  0  0  0
   11.1488  -18.8826   27.0420 O   0  0  0  0  0  0  0  0  0  0  0  0
  2  1  1  0
  3  2  2  0
  4  2  1  0
  5  4  1  0
  5  7  1  0
  5  6  1  6
  7  8  2  0
  7 14  1  0
 10  9  1  0
 11 12  1  0
 11 10  1  0
 13 12  1  1
 14 13  1  0
 15 13  1  0
 15 23  1  0
 16 15  2  0
 17 18  1  0
 18 20  1  0
 19 18  2  0
 20 21  1  0
 22 21  1  1
 22 23  1  0
 22 24  1  0
 24 25  1  0
 26 24  2  0
M  END
$$$$
