NMQ.pdb
     RDKit          3D

 26 25  0  0  1  0  0  0  0  0999 V2000
    7.1540  -13.6282   18.1027 N   0  0  0  0  0  0  0  0  0  0  0  0
    8.4352  -13.7357   18.7083 C   0  0  0  0  0  0  0  0  0  0  0  0
    9.4195  -14.0322   17.9644 O   0  0  0  0  0  0  0  0  0  0  0  0
    8.5931  -13.5003   20.1880 C   0  0  0  0  0  0  0  0  0  0  0  0
    8.7536  -14.8306   20.8429 C   0  0  2  0  0  0  0  0  0  0  0  0
    7.6575  -15.7229   20.5766 N   0  0  0  0  0  0  0  0  0  0  0  0
    9.0438  -14.7591   22.2806 C   0  0  0  0  0  0  0  0  0  0  0  0
   10.1703  -14.3631   22.6446 O   0  0  0  0  0  0  0  0  0  0  0  0
    6.1818  -10.5609   26.5214 C   0  0  0  0  0  0  0  0  0  0  0  0
    6.8220  -12.2293   26.8471 S   0  0  0  0  0  0  0  0  0  0  0  0
    6.8485  -13.2133   25.2965 C   0  0  0  0  0  0  0  0  0  0  0  0
    7.3191  -14.5986   25.5856 C   0  0  0  0  0  0  0  0  0  0  0  0
    8.3507  -15.1564   24.6886 C   0  0  2  0  0  0  0  0  0  0  0  0
    8.0997  -15.1197   23.2885 N   0  0  0  0  0  0  0  0  0  0  0  0
    8.9309  -16.4695   25.1599 C   0  0  0  0  0  0  0  0  0  0  0  0
    8.2096  -17.5009   25.0847 O   0  0  0  0  0  0  0  0  0  0  0  0
   14.8846  -18.3457   24.5965 N   0  0  0  0  0  0  0  0  0  0  0  0
   13.7518  -18.3350   23.7486 C   0  0  0  0  0  0  0  0  0  0  0  0
   13.9641  -18.4967   22.5015 O   0  0  0  0  0  0  0  0  0  0  0  0
   12.3818  -18.1581   24.2269 C   0  0  0  0  0  0  0  0  0  0  0  0
   12.2009  -17.9819   25.6935 C   0  0  0  0  0  0  0  0  0  0  0  0
   10.8153  -17.8370   26.1737 C   0  0  2  0  0  0  0  0  0  0  0  0
   10.2171  -16.5899   25.6753 N   0  0  0  0  0  0  0  0  0  0  0  0
   10.4899  -18.0245   27.5730 C   0  0  0  0  0  0  0  0  0  0  0  0
   10.7377  -19.2640   28.2110 O   0  0  0  0  0  0  0  0  0  0  0  0
    9.9778  -17.1669   28.3563 O   0  0  0  0  0  0  0  0  0  0  0  0
  2  1  1  0
  3  2  2  0
  4  2  1  0
  5  4  1  0
  5  7  1  0
  5  6  1  1
  7  8  2  0
  7 14  1  0
 10  9  1  0
 11 12  1  0
 11 10  1  0
 13 12  1  1
 14 13  1  0
 15 13  1  0
 15 23  1  0
 16 15  2  0
 17 18  1  0
 18 20  1  0
 19 18  2  0
 20 21  1  0
 22 21  1  1
 22 23  1  0
 22 24  1  0
 24 25  1  0
 26 24  2  0
M  END
$$$$
