NMQ.pdb
     RDKit          3D

 26 25  0  0  1  0  0  0  0  0999 V2000
    8.1942  -12.3094   17.1328 N   0  0  0  0  0  0  0  0  0  0  0  0
    7.6754  -13.3846   17.9039 C   0  0  0  0  0  0  0  0  0  0  0  0
    7.2936  -14.4260   17.2877 O   0  0  0  0  0  0  0  0  0  0  0  0
    7.5922  -13.2667   19.4037 C   0  0  0  0  0  0  0  0  0  0  0  0
    8.7600  -13.9937   19.9800 C   0  0  2  0  0  0  0  0  0  0  0  0
    8.7481  -15.4005   19.6811 N   0  0  0  0  0  0  0  0  0  0  0  0
    8.9643  -13.7567   21.4146 C   0  0  0  0  0  0  0  0  0  0  0  0
    9.2085  -12.5947   21.8001 O   0  0  0  0  0  0  0  0  0  0  0  0
    6.9644  -11.9367   27.7433 C   0  0  0  0  0  0  0  0  0  0  0  0
    7.5955  -12.2211   26.0640 S   0  0  0  0  0  0  0  0  0  0  0  0
    6.6687  -13.5879   25.2602 C   0  0  0  0  0  0  0  0  0  0  0  0
    7.1701  -13.7888   23.8701 C   0  0  0  0  0  0  0  0  0  0  0  0
    8.3483  -14.6629   23.7028 C   0  0  2  0  0  0  0  0  0  0  0  0
    8.8968  -14.7906   22.3962 N   0  0  0  0  0  0  0  0  0  0  0  0
    8.2499  -15.9762   24.4433 C   0  0  0  0  0  0  0  0  0  0  0  0
    7.3164  -16.7658   24.1351 O   0  0  0  0  0  0  0  0  0  0  0  0
   12.2799  -15.3967   21.6411 N   0  0  0  0  0  0  0  0  0  0  0  0
   12.4727  -16.7452   22.0240 C   0  0  0  0  0  0  0  0  0  0  0  0
   13.1294  -17.4846   21.2186 O   0  0  0  0  0  0  0  0  0  0  0  0
   11.9712  -17.3134   23.2740 C   0  0  0  0  0  0  0  0  0  0  0  0
   11.1838  -16.4078   24.1542 C   0  0  0  0  0  0  0  0  0  0  0  0
   10.4125  -17.0464   25.2352 C   0  0  2  0  0  0  0  0  0  0  0  0
    9.1358  -16.3493   25.4486 N   0  0  0  0  0  0  0  0  0  0  0  0
   11.0323  -17.3574   26.5073 C   0  0  0  0  0  0  0  0  0  0  0  0
   12.0143  -18.3730   26.6017 O   0  0  0  0  0  0  0  0  0  0  0  0
   10.7962  -16.8023   27.6242 O   0  0  0  0  0  0  0  0  0  0  0  0
  2  1  1  0
  3  2  2  0
  4  2  1  0
  5  4  1  0
  5  7  1  0
  5  6  1  1
  7  8  2  0
  7 14  1  0
 10  9  1  0
 11 12  1  0
 11 10  1  0
 13 12  1  6
 14 13  1  0
 15 13  1  0
 15 23  1  0
 16 15  2  0
 17 18  1  0
 18 20  1  0
 19 18  2  0
 20 21  1  0
 22 21  1  6
 22 23  1  0
 22 24  1  0
 24 25  1  0
 26 24  2  0
M  END
$$$$
