NMQ.pdb
     RDKit          3D

 26 25  0  0  1  0  0  0  0  0999 V2000
    8.7504  -12.7437   16.8554 N   0  0  0  0  0  0  0  0  0  0  0  0
    8.0103  -13.6305   17.6834 C   0  0  0  0  0  0  0  0  0  0  0  0
    7.4860  -14.6503   17.1402 O   0  0  0  0  0  0  0  0  0  0  0  0
    7.8676  -13.3461   19.1561 C   0  0  0  0  0  0  0  0  0  0  0  0
    8.7011  -14.3405   19.8915 C   0  0  2  0  0  0  0  0  0  0  0  0
    8.2931  -15.6991   19.6546 N   0  0  0  0  0  0  0  0  0  0  0  0
    8.8308  -14.0672   21.3284 C   0  0  0  0  0  0  0  0  0  0  0  0
    9.7349  -13.2962   21.7115 O   0  0  0  0  0  0  0  0  0  0  0  0
    7.6446  -11.0244   26.5882 C   0  0  0  0  0  0  0  0  0  0  0  0
    6.3345  -12.2799   26.5061 S   0  0  0  0  0  0  0  0  0  0  0  0
    7.0270  -13.8846   25.9417 C   0  0  0  0  0  0  0  0  0  0  0  0
    6.9039  -13.9943   24.4595 C   0  0  0  0  0  0  0  0  0  0  0  0
    8.0920  -14.4684   23.7221 C   0  0  2  0  0  0  0  0  0  0  0  0
    7.9721  -14.6392   22.3146 N   0  0  0  0  0  0  0  0  0  0  0  0
    8.8281  -15.5985   24.4031 C   0  0  0  0  0  0  0  0  0  0  0  0
    8.1550  -16.5723   24.8371 O   0  0  0  0  0  0  0  0  0  0  0  0
   10.6597  -14.2606   29.4716 N   0  0  0  0  0  0  0  0  0  0  0  0
   10.8863  -15.6570   29.4391 C   0  0  0  0  0  0  0  0  0  0  0  0
   11.1316  -16.2269   30.5533 O   0  0  0  0  0  0  0  0  0  0  0  0
   10.8462  -16.4574   28.2165 C   0  0  0  0  0  0  0  0  0  0  0  0
   10.3388  -15.7839   26.9902 C   0  0  0  0  0  0  0  0  0  0  0  0
   10.9131  -16.2293   25.7084 C   0  0  2  0  0  0  0  0  0  0  0  0
   10.2081  -15.6104   24.5764 N   0  0  0  0  0  0  0  0  0  0  0  0
   11.1448  -17.6353   25.4460 C   0  0  0  0  0  0  0  0  0  0  0  0
   10.0904  -18.4689   25.0012 O   0  0  0  0  0  0  0  0  0  0  0  0
   12.2421  -18.2613   25.5699 O   0  0  0  0  0  0  0  0  0  0  0  0
  2  1  1  0
  3  2  2  0
  4  2  1  0
  5  4  1  0
  5  7  1  0
  5  6  1  1
  7  8  2  0
  7 14  1  0
 10  9  1  0
 11 12  1  0
 11 10  1  0
 13 12  1  1
 14 13  1  0
 15 13  1  0
 15 23  1  0
 16 15  2  0
 17 18  1  0
 18 20  1  0
 19 18  2  0
 20 21  1  0
 22 21  1  1
 22 23  1  0
 22 24  1  0
 24 25  1  0
 26 24  2  0
M  END
$$$$
