WYN.pdb
     RDKit          3D

 35 37  0  0  1  0  0  0  0  0999 V2000
   26.1686  -21.6051  -16.5493 N   0  0  0  0  0  0  0  0  0  0  0  0
   25.4816  -20.9145  -15.4556 C   0  0  1  0  0  0  0  0  0  0  0  0
   23.9995  -21.2286  -15.4759 C   0  0  0  0  0  0  0  0  0  0  0  0
   23.2756  -20.4846  -16.5077 C   0  0  0  0  0  0  0  0  0  0  0  0
   23.7948  -19.7463  -17.5674 C   0  0  0  0  0  0  0  0  0  0  0  0
   22.7944  -19.2317  -18.2665 N   0  0  0  0  0  0  0  0  0  0  0  0
   21.6135  -19.5764  -17.7443 C   0  0  0  0  0  0  0  0  0  0  0  0
   20.3117  -19.2892  -18.1132 C   0  0  0  0  0  0  0  0  0  0  0  0
   19.3136  -19.8224  -17.3305 C   0  0  0  0  0  0  0  0  0  0  0  0
   19.5664  -20.6097  -16.2241 C   0  0  0  0  0  0  0  0  0  0  0  0
   20.8583  -20.8742  -15.8868 C   0  0  0  0  0  0  0  0  0  0  0  0
   21.9073  -20.3700  -16.6300 C   0  0  0  0  0  0  0  0  0  0  0  0
   26.0930  -21.2657  -14.1482 C   0  0  0  0  0  0  0  0  0  0  0  0
   26.3797  -22.4749  -13.9637 O   0  0  0  0  0  0  0  0  0  0  0  0
   27.8048  -20.8535   -5.4005 O   0  0  0  0  0  0  0  0  0  0  0  0
   27.7146  -20.5890   -6.7788 C   0  0  0  0  0  0  0  0  0  0  0  0
   26.8107  -19.6653   -7.2565 C   0  0  0  0  0  0  0  0  0  0  0  0
   26.7145  -19.3970   -8.6207 C   0  0  0  0  0  0  0  0  0  0  0  0
   27.5197  -20.0471   -9.5332 C   0  0  0  0  0  0  0  0  0  0  0  0
   27.3591  -19.7107  -10.9575 C   0  0  0  0  0  0  0  0  0  0  0  0
   26.5198  -20.6734  -11.7325 C   0  0  2  0  0  0  0  0  0  0  0  0
   26.3673  -20.3553  -13.1227 N   0  0  0  0  0  0  0  0  0  0  0  0
   25.1702  -20.6813  -11.1052 C   0  0  0  0  0  0  0  0  0  0  0  0
   24.9968  -21.1150   -9.9174 O   0  0  0  0  0  0  0  0  0  0  0  0
   28.4154  -20.9626   -9.0594 C   0  0  0  0  0  0  0  0  0  0  0  0
   28.5159  -21.2349   -7.6936 C   0  0  0  0  0  0  0  0  0  0  0  0
   20.3793  -18.1508  -10.2729 N   0  0  0  0  0  0  0  0  0  0  0  0
   20.5680  -18.9817  -11.4087 C   0  0  0  0  0  0  0  0  0  0  0  0
   19.6214  -19.6055  -11.9132 O   0  0  0  0  0  0  0  0  0  0  0  0
   21.9131  -19.1001  -11.9919 C   0  0  0  0  0  0  0  0  0  0  0  0
   22.6968  -20.1221  -11.2003 C   0  0  2  0  0  0  0  0  0  0  0  0
   24.0299  -20.2111  -11.7941 N   0  0  0  0  0  0  0  0  0  0  0  0
   22.1118  -21.4571  -11.1763 C   0  0  0  0  0  0  0  0  0  0  0  0
   21.1870  -21.9050  -10.2274 O   0  0  0  0  0  0  0  0  0  0  0  0
   22.4368  -22.2954  -12.0541 O   0  0  0  0  0  0  0  0  0  0  0  0
  2  1  1  6
  3  4  1  0
  3  2  1  0
  4  5  2  0
  5  6  1  0
  7  6  1  0
  8  7  2  0
  9  8  1  0
 10 11  1  0
 10  9  2  0
 11 12  2  0
 12  4  1  0
 12  7  1  0
 13  2  1  0
 13 22  1  0
 14 13  2  0
 15 16  1  0
 16 17  2  0
 17 18  1  0
 19 20  1  0
 19 18  2  0
 21 20  1  1
 21 22  1  0
 21 23  1  0
 23 32  1  0
 24 23  2  0
 25 19  1  0
 26 25  2  0
 26 16  1  0
 28 27  1  0
 29 28  2  0
 30 28  1  0
 31 33  1  0
 31 30  1  6
 32 31  1  0
 33 34  1  0
 35 33  2  0
M  END
$$$$
