WYN.pdb
     RDKit          3D

 35 37  0  0  1  0  0  0  0  0999 V2000
   22.8761  -19.5278  -18.2153 N   0  0  0  0  0  0  0  0  0  0  0  0
   22.3148  -20.8053  -17.7699 C   0  0  1  0  0  0  0  0  0  0  0  0
   23.4031  -21.8531  -17.6548 C   0  0  0  0  0  0  0  0  0  0  0  0
   24.0174  -22.1777  -18.9430 C   0  0  0  0  0  0  0  0  0  0  0  0
   25.1355  -21.6010  -19.5384 C   0  0  0  0  0  0  0  0  0  0  0  0
   25.3550  -22.1883  -20.7051 N   0  0  0  0  0  0  0  0  0  0  0  0
   24.4469  -23.1390  -20.9449 C   0  0  0  0  0  0  0  0  0  0  0  0
   24.2641  -24.0068  -22.0064 C   0  0  0  0  0  0  0  0  0  0  0  0
   23.2009  -24.8760  -21.9204 C   0  0  0  0  0  0  0  0  0  0  0  0
   22.3402  -24.9055  -20.8406 C   0  0  0  0  0  0  0  0  0  0  0  0
   22.5466  -24.0386  -19.8116 C   0  0  0  0  0  0  0  0  0  0  0  0
   23.5951  -23.1403  -19.8349 C   0  0  0  0  0  0  0  0  0  0  0  0
   21.5845  -20.6379  -16.4874 C   0  0  0  0  0  0  0  0  0  0  0  0
   22.1209  -19.9016  -15.6222 O   0  0  0  0  0  0  0  0  0  0  0  0
   14.9499  -21.4454  -19.4137 O   0  0  0  0  0  0  0  0  0  0  0  0
   15.7926  -21.1440  -18.3289 C   0  0  0  0  0  0  0  0  0  0  0  0
   16.8755  -20.3084  -18.4949 C   0  0  0  0  0  0  0  0  0  0  0  0
   17.7158  -20.0045  -17.4254 C   0  0  0  0  0  0  0  0  0  0  0  0
   17.4898  -20.5302  -16.1700 C   0  0  0  0  0  0  0  0  0  0  0  0
   18.4217  -20.1635  -15.0907 C   0  0  0  0  0  0  0  0  0  0  0  0
   19.6131  -21.0564  -14.9684 C   0  0  2  0  0  0  0  0  0  0  0  0
   20.3579  -21.2357  -16.1810 N   0  0  0  0  0  0  0  0  0  0  0  0
   19.1187  -22.3879  -14.5238 C   0  0  0  0  0  0  0  0  0  0  0  0
   18.8683  -23.3139  -15.3656 O   0  0  0  0  0  0  0  0  0  0  0  0
   16.4165  -21.3583  -16.0058 C   0  0  0  0  0  0  0  0  0  0  0  0
   15.5714  -21.6659  -17.0739 C   0  0  0  0  0  0  0  0  0  0  0  0
   19.4791  -26.1453   -9.7663 N   0  0  0  0  0  0  0  0  0  0  0  0
   18.8220  -25.6058  -10.9036 C   0  0  0  0  0  0  0  0  0  0  0  0
   17.9266  -26.2359  -11.4876 O   0  0  0  0  0  0  0  0  0  0  0  0
   19.2156  -24.2755  -11.3921 C   0  0  0  0  0  0  0  0  0  0  0  0
   18.4533  -23.9807  -12.6638 C   0  0  2  0  0  0  0  0  0  0  0  0
   18.9072  -22.6818  -13.1582 N   0  0  0  0  0  0  0  0  0  0  0  0
   17.0041  -23.9365  -12.5122 C   0  0  0  0  0  0  0  0  0  0  0  0
   16.2456  -22.7635  -12.4411 O   0  0  0  0  0  0  0  0  0  0  0  0
   16.3529  -25.0085  -12.4355 O   0  0  0  0  0  0  0  0  0  0  0  0
  2  1  1  1
  3  4  1  0
  3  2  1  0
  4  5  2  0
  5  6  1  0
  7  6  1  0
  8  7  2  0
  9  8  1  0
 10 11  1  0
 10  9  2  0
 11 12  2  0
 12  4  1  0
 12  7  1  0
 13  2  1  0
 13 22  1  0
 14 13  2  0
 15 16  1  0
 16 17  2  0
 17 18  1  0
 19 20  1  0
 19 18  2  0
 21 20  1  6
 21 22  1  0
 21 23  1  0
 23 32  1  0
 24 23  2  0
 25 19  1  0
 26 25  2  0
 26 16  1  0
 28 27  1  0
 29 28  2  0
 30 28  1  0
 31 33  1  0
 31 30  1  1
 32 31  1  0
 33 34  1  0
 35 33  2  0
M  END
$$$$
