WYN.pdb
     RDKit          3D

 35 37  0  0  1  0  0  0  0  0999 V2000
   21.5846  -10.8838  -15.9887 N   0  0  0  0  0  0  0  0  0  0  0  0
   20.3280  -10.1643  -15.7685 C   0  0  1  0  0  0  0  0  0  0  0  0
   19.2870  -11.0845  -15.1644 C   0  0  0  0  0  0  0  0  0  0  0  0
   18.7858  -12.0772  -16.1161 C   0  0  0  0  0  0  0  0  0  0  0  0
   19.1262  -12.2409  -17.4557 C   0  0  0  0  0  0  0  0  0  0  0  0
   18.4413  -13.2590  -17.9543 N   0  0  0  0  0  0  0  0  0  0  0  0
   17.6469  -13.8053  -17.0288 C   0  0  0  0  0  0  0  0  0  0  0  0
   16.7615  -14.8671  -17.0697 C   0  0  0  0  0  0  0  0  0  0  0  0
   16.0939  -15.1629  -15.9034 C   0  0  0  0  0  0  0  0  0  0  0  0
   16.2769  -14.4533  -14.7326 C   0  0  0  0  0  0  0  0  0  0  0  0
   17.1552  -13.4135  -14.7245 C   0  0  0  0  0  0  0  0  0  0  0  0
   17.8576  -13.0640  -15.8610 C   0  0  0  0  0  0  0  0  0  0  0  0
   20.5520   -8.9664  -14.9193 C   0  0  0  0  0  0  0  0  0  0  0  0
   21.2765   -9.1193  -13.9043 O   0  0  0  0  0  0  0  0  0  0  0  0
   25.5451   -5.1046  -17.5636 O   0  0  0  0  0  0  0  0  0  0  0  0
   24.2783   -5.1626  -16.9557 C   0  0  0  0  0  0  0  0  0  0  0  0
   24.0323   -4.4804  -15.7841 C   0  0  0  0  0  0  0  0  0  0  0  0
   22.7800   -4.5323  -15.1749 C   0  0  0  0  0  0  0  0  0  0  0  0
   21.7499   -5.2671  -15.7250 C   0  0  0  0  0  0  0  0  0  0  0  0
   20.4559   -5.2739  -15.0228 C   0  0  0  0  0  0  0  0  0  0  0  0
   20.1395   -6.5511  -14.3154 C   0  0  2  0  0  0  0  0  0  0  0  0
   20.0189   -7.6978  -15.1684 N   0  0  0  0  0  0  0  0  0  0  0  0
   18.8419   -6.3533  -13.6138 C   0  0  0  0  0  0  0  0  0  0  0  0
   17.7315   -6.5462  -14.2128 O   0  0  0  0  0  0  0  0  0  0  0  0
   21.9941   -5.9431  -16.8861 C   0  0  0  0  0  0  0  0  0  0  0  0
   23.2469   -5.8943  -17.5007 C   0  0  0  0  0  0  0  0  0  0  0  0
   15.3716   -5.3918  -10.0354 N   0  0  0  0  0  0  0  0  0  0  0  0
   16.5537   -5.7318   -9.3259 C   0  0  0  0  0  0  0  0  0  0  0  0
   16.5592   -5.8137   -8.0878 O   0  0  0  0  0  0  0  0  0  0  0  0
   17.7901   -5.9900  -10.0797 C   0  0  0  0  0  0  0  0  0  0  0  0
   17.5400   -5.6881  -11.5397 C   0  0  2  0  0  0  0  0  0  0  0  0
   18.7846   -5.9463  -12.2621 N   0  0  0  0  0  0  0  0  0  0  0  0
   17.1193   -4.3205  -11.8184 C   0  0  0  0  0  0  0  0  0  0  0  0
   17.9299   -3.3402  -12.3999 O   0  0  0  0  0  0  0  0  0  0  0  0
   15.9517   -3.9569  -11.5294 O   0  0  0  0  0  0  0  0  0  0  0  0
  2  1  1  1
  3  4  1  0
  3  2  1  0
  4  5  2  0
  5  6  1  0
  7  6  1  0
  8  7  2  0
  9  8  1  0
 10 11  1  0
 10  9  2  0
 11 12  2  0
 12  4  1  0
 12  7  1  0
 13  2  1  0
 13 22  1  0
 14 13  2  0
 15 16  1  0
 16 17  2  0
 17 18  1  0
 19 20  1  0
 19 18  2  0
 21 20  1  6
 21 22  1  0
 21 23  1  0
 23 32  1  0
 24 23  2  0
 25 19  1  0
 26 25  2  0
 26 16  1  0
 28 27  1  0
 29 28  2  0
 30 28  1  0
 31 33  1  0
 31 30  1  1
 32 31  1  0
 33 34  1  0
 35 33  2  0
M  END
$$$$
