WYN.pdb
     RDKit          3D

 35 37  0  0  1  0  0  0  0  0999 V2000
   26.5732  -22.1819  -16.4767 N   0  0  0  0  0  0  0  0  0  0  0  0
   25.7824  -21.3065  -15.6086 C   0  0  1  0  0  0  0  0  0  0  0  0
   24.3023  -21.4874  -15.8769 C   0  0  0  0  0  0  0  0  0  0  0  0
   23.8934  -20.9629  -17.1807 C   0  0  0  0  0  0  0  0  0  0  0  0
   23.9396  -21.5938  -18.4206 C   0  0  0  0  0  0  0  0  0  0  0  0
   23.4744  -20.7662  -19.3441 N   0  0  0  0  0  0  0  0  0  0  0  0
   23.1102  -19.5984  -18.8059 C   0  0  0  0  0  0  0  0  0  0  0  0
   22.5789  -18.4449  -19.3539 C   0  0  0  0  0  0  0  0  0  0  0  0
   22.3175  -17.4097  -18.4860 C   0  0  0  0  0  0  0  0  0  0  0  0
   22.5625  -17.4872  -17.1289 C   0  0  0  0  0  0  0  0  0  0  0  0
   23.0860  -18.6360  -16.6200 C   0  0  0  0  0  0  0  0  0  0  0  0
   23.3716  -19.7128  -17.4361 C   0  0  0  0  0  0  0  0  0  0  0  0
   26.1091  -21.5512  -14.1804 C   0  0  0  0  0  0  0  0  0  0  0  0
   25.7277  -22.6439  -13.6914 O   0  0  0  0  0  0  0  0  0  0  0  0
   28.0238  -19.8835   -5.6227 O   0  0  0  0  0  0  0  0  0  0  0  0
   27.9874  -19.8623   -7.0283 C   0  0  0  0  0  0  0  0  0  0  0  0
   28.7294  -20.7626   -7.7614 C   0  0  0  0  0  0  0  0  0  0  0  0
   28.6993  -20.7486   -9.1547 C   0  0  0  0  0  0  0  0  0  0  0  0
   27.9273  -19.8344   -9.8415 C   0  0  0  0  0  0  0  0  0  0  0  0
   27.9481  -19.8814  -11.3129 C   0  0  0  0  0  0  0  0  0  0  0  0
   26.8751  -20.7229  -11.9230 C   0  0  2  0  0  0  0  0  0  0  0  0
   26.8022  -20.6610  -13.3541 N   0  0  0  0  0  0  0  0  0  0  0  0
   25.5780  -20.2479  -11.3691 C   0  0  0  0  0  0  0  0  0  0  0  0
   25.0492  -19.1572  -11.7688 O   0  0  0  0  0  0  0  0  0  0  0  0
   27.1920  -18.9423   -9.1147 C   0  0  0  0  0  0  0  0  0  0  0  0
   27.2184  -18.9521   -7.7187 C   0  0  0  0  0  0  0  0  0  0  0  0
   21.1083  -20.0091   -9.0697 N   0  0  0  0  0  0  0  0  0  0  0  0
   21.1935  -20.8018  -10.2447 C   0  0  0  0  0  0  0  0  0  0  0  0
   20.1731  -21.1696  -10.8474 O   0  0  0  0  0  0  0  0  0  0  0  0
   22.5192  -21.1899  -10.7501 C   0  0  0  0  0  0  0  0  0  0  0  0
   23.5758  -20.5930   -9.8487 C   0  0  2  0  0  0  0  0  0  0  0  0
   24.8804  -20.9806  -10.3828 N   0  0  0  0  0  0  0  0  0  0  0  0
   23.5024  -21.0169   -8.4558 C   0  0  0  0  0  0  0  0  0  0  0  0
   24.5416  -21.6389   -7.7563 O   0  0  0  0  0  0  0  0  0  0  0  0
   22.4460  -20.8280   -7.8021 O   0  0  0  0  0  0  0  0  0  0  0  0
  2  1  1  6
  3  4  1  0
  3  2  1  0
  4  5  2  0
  5  6  1  0
  7  6  1  0
  8  7  2  0
  9  8  1  0
 10 11  1  0
 10  9  2  0
 11 12  2  0
 12  4  1  0
 12  7  1  0
 13  2  1  0
 13 22  1  0
 14 13  2  0
 15 16  1  0
 16 17  2  0
 17 18  1  0
 19 20  1  0
 19 18  2  0
 21 20  1  1
 21 22  1  0
 21 23  1  0
 23 32  1  0
 24 23  2  0
 25 19  1  0
 26 25  2  0
 26 16  1  0
 28 27  1  0
 29 28  2  0
 30 28  1  0
 31 33  1  0
 31 30  1  6
 32 31  1  0
 33 34  1  0
 35 33  2  0
M  END
$$$$
