WYN.pdb
     RDKit          3D

 35 37  0  0  1  0  0  0  0  0999 V2000
   27.5224  -21.6088   -9.3106 N   0  0  0  0  0  0  0  0  0  0  0  0
   26.2459  -20.9318   -9.0709 C   0  0  1  0  0  0  0  0  0  0  0  0
   26.2986  -20.1380   -7.7815 C   0  0  0  0  0  0  0  0  0  0  0  0
   27.6289  -20.1343   -7.1711 C   0  0  0  0  0  0  0  0  0  0  0  0
   28.8688  -20.0531   -7.7983 C   0  0  0  0  0  0  0  0  0  0  0  0
   29.8211  -20.0819   -6.8783 N   0  0  0  0  0  0  0  0  0  0  0  0
   29.3027  -20.1787   -5.6503 C   0  0  0  0  0  0  0  0  0  0  0  0
   29.8825  -20.2412   -4.3961 C   0  0  0  0  0  0  0  0  0  0  0  0
   29.0279  -20.3384   -3.3221 C   0  0  0  0  0  0  0  0  0  0  0  0
   27.6536  -20.3743   -3.4567 C   0  0  0  0  0  0  0  0  0  0  0  0
   27.1134  -20.3111   -4.7045 C   0  0  0  0  0  0  0  0  0  0  0  0
   27.9148  -20.2126   -5.8248 C   0  0  0  0  0  0  0  0  0  0  0  0
   25.8856  -20.0691  -10.2252 C   0  0  0  0  0  0  0  0  0  0  0  0
   25.3286  -18.9742   -9.9617 O   0  0  0  0  0  0  0  0  0  0  0  0
   26.2212  -16.0081  -18.1068 O   0  0  0  0  0  0  0  0  0  0  0  0
   26.4383  -16.8195  -16.9789 C   0  0  0  0  0  0  0  0  0  0  0  0
   26.3468  -18.1909  -17.0751 C   0  0  0  0  0  0  0  0  0  0  0  0
   26.5602  -19.0026  -15.9625 C   0  0  0  0  0  0  0  0  0  0  0  0
   26.8690  -18.4588  -14.7327 C   0  0  0  0  0  0  0  0  0  0  0  0
   27.0796  -19.3807  -13.6042 C   0  0  0  0  0  0  0  0  0  0  0  0
   25.9078  -19.5195  -12.6881 C   0  0  2  0  0  0  0  0  0  0  0  0
   26.1202  -20.3878  -11.5665 N   0  0  0  0  0  0  0  0  0  0  0  0
   24.7834  -20.0668  -13.4951 C   0  0  0  0  0  0  0  0  0  0  0  0
   24.7250  -21.3073  -13.7899 O   0  0  0  0  0  0  0  0  0  0  0  0
   26.9596  -17.0996  -14.6376 C   0  0  0  0  0  0  0  0  0  0  0  0
   26.7468  -16.2819  -15.7492 C   0  0  0  0  0  0  0  0  0  0  0  0
   20.3233  -20.6724  -15.7482 N   0  0  0  0  0  0  0  0  0  0  0  0
   20.1580  -19.9401  -14.5429 C   0  0  0  0  0  0  0  0  0  0  0  0
   19.0329  -19.7505  -14.0552 O   0  0  0  0  0  0  0  0  0  0  0  0
   21.3470  -19.3997  -13.8664 C   0  0  0  0  0  0  0  0  0  0  0  0
   22.5690  -19.7375  -14.6898 C   0  0  2  0  0  0  0  0  0  0  0  0
   23.7384  -19.2410  -13.9662 N   0  0  0  0  0  0  0  0  0  0  0  0
   22.5795  -19.1674  -16.0314 C   0  0  0  0  0  0  0  0  0  0  0  0
   22.7795  -19.8989  -17.2066 O   0  0  0  0  0  0  0  0  0  0  0  0
   22.4002  -17.9332  -16.1851 O   0  0  0  0  0  0  0  0  0  0  0  0
  2  1  1  6
  3  4  1  0
  3  2  1  0
  4  5  2  0
  5  6  1  0
  7  6  1  0
  8  7  2  0
  9  8  1  0
 10 11  1  0
 10  9  2  0
 11 12  2  0
 12  4  1  0
 12  7  1  0
 13  2  1  0
 13 22  1  0
 14 13  2  0
 15 16  1  0
 16 17  2  0
 17 18  1  0
 19 20  1  0
 19 18  2  0
 21 20  1  6
 21 22  1  0
 21 23  1  0
 23 32  1  0
 24 23  2  0
 25 19  1  0
 26 25  2  0
 26 16  1  0
 28 27  1  0
 29 28  2  0
 30 28  1  0
 31 33  1  0
 31 30  1  1
 32 31  1  0
 33 34  1  0
 35 33  2  0
M  END
$$$$
