WYN.pdb
     RDKit          3D

 35 37  0  0  1  0  0  0  0  0999 V2000
   19.7558  -18.4610  -18.0469 N   0  0  0  0  0  0  0  0  0  0  0  0
   19.5454  -18.0871  -19.4473 C   0  0  1  0  0  0  0  0  0  0  0  0
   20.8597  -18.0869  -20.2010 C   0  0  0  0  0  0  0  0  0  0  0  0
   21.5825  -16.8198  -20.0817 C   0  0  0  0  0  0  0  0  0  0  0  0
   21.8610  -16.0872  -18.9315 C   0  0  0  0  0  0  0  0  0  0  0  0
   22.5380  -14.9989  -19.2656 N   0  0  0  0  0  0  0  0  0  0  0  0
   22.7404  -14.9431  -20.5855 C   0  0  0  0  0  0  0  0  0  0  0  0
   23.3819  -14.0204  -21.3918 C   0  0  0  0  0  0  0  0  0  0  0  0
   23.4021  -14.2849  -22.7419 C   0  0  0  0  0  0  0  0  0  0  0  0
   22.8195  -15.4080  -23.2960 C   0  0  0  0  0  0  0  0  0  0  0  0
   22.1954  -16.2974  -22.4760 C   0  0  0  0  0  0  0  0  0  0  0  0
   22.1390  -16.0917  -21.1116 C   0  0  0  0  0  0  0  0  0  0  0  0
   18.5530  -18.9884  -20.0868 C   0  0  0  0  0  0  0  0  0  0  0  0
   18.4013  -18.8736  -21.3287 O   0  0  0  0  0  0  0  0  0  0  0  0
   19.0837  -19.6284  -25.9655 O   0  0  0  0  0  0  0  0  0  0  0  0
   18.6571  -20.1673  -24.7386 C   0  0  0  0  0  0  0  0  0  0  0  0
   19.5755  -20.5981  -23.8062 C   0  0  0  0  0  0  0  0  0  0  0  0
   19.1616  -21.1336  -22.5879 C   0  0  0  0  0  0  0  0  0  0  0  0
   17.8219  -21.2487  -22.2786 C   0  0  0  0  0  0  0  0  0  0  0  0
   17.4627  -21.8251  -20.9723 C   0  0  0  0  0  0  0  0  0  0  0  0
   16.8568  -20.8555  -20.0108 C   0  0  2  0  0  0  0  0  0  0  0  0
   17.7861  -19.9426  -19.4106 N   0  0  0  0  0  0  0  0  0  0  0  0
   16.2207  -21.6530  -18.9270 C   0  0  0  0  0  0  0  0  0  0  0  0
   15.3551  -22.5530  -19.1908 O   0  0  0  0  0  0  0  0  0  0  0  0
   16.9119  -20.8216  -23.2029 C   0  0  0  0  0  0  0  0  0  0  0  0
   17.3213  -20.2843  -24.4249 C   0  0  0  0  0  0  0  0  0  0  0  0
   15.6123  -22.3838  -13.1917 N   0  0  0  0  0  0  0  0  0  0  0  0
   16.4613  -22.9346  -14.1878 C   0  0  0  0  0  0  0  0  0  0  0  0
   16.8112  -24.1245  -14.1479 O   0  0  0  0  0  0  0  0  0  0  0  0
   16.9304  -22.0725  -15.2833 C   0  0  0  0  0  0  0  0  0  0  0  0
   16.0123  -22.2541  -16.4705 C   0  0  2  0  0  0  0  0  0  0  0  0
   16.5469  -21.4490  -17.5676 N   0  0  0  0  0  0  0  0  0  0  0  0
   14.6282  -21.8593  -16.2396 C   0  0  0  0  0  0  0  0  0  0  0  0
   14.1435  -20.5518  -16.3488 O   0  0  0  0  0  0  0  0  0  0  0  0
   13.7785  -22.7270  -15.9167 O   0  0  0  0  0  0  0  0  0  0  0  0
  2  1  1  1
  3  4  1  0
  3  2  1  0
  4  5  2  0
  5  6  1  0
  7  6  1  0
  8  7  2  0
  9  8  1  0
 10 11  1  0
 10  9  2  0
 11 12  2  0
 12  4  1  0
 12  7  1  0
 13  2  1  0
 13 22  1  0
 14 13  2  0
 15 16  1  0
 16 17  2  0
 17 18  1  0
 19 20  1  0
 19 18  2  0
 21 20  1  6
 21 22  1  0
 21 23  1  0
 23 32  1  0
 24 23  2  0
 25 19  1  0
 26 25  2  0
 26 16  1  0
 28 27  1  0
 29 28  2  0
 30 28  1  0
 31 33  1  0
 31 30  1  1
 32 31  1  0
 33 34  1  0
 35 33  2  0
M  END
$$$$
