CMV.pdb
     RDKit          3D

 22 21  0  0  1  0  0  0  0  0999 V2000
    9.8567  -15.9787   19.7788 N   0  0  0  0  0  0  0  0  0  0  0  0
    9.2224  -16.6233   20.9104 C   0  0  1  0  0  0  0  0  0  0  0  0
    9.7241  -18.0286   20.9905 C   0  0  0  0  0  0  0  0  0  0  0  0
    8.8703  -18.8504   22.3773 S   0  0  0  0  0  0  0  0  0  0  0  0
    9.4495  -15.8731   22.1702 C   0  0  0  0  0  0  0  0  0  0  0  0
   10.5837  -15.4516   22.4191 O   0  0  0  0  0  0  0  0  0  0  0  0
    5.6594  -10.9712   25.5333 C   0  0  0  0  0  0  0  0  0  0  0  0
    5.4467  -12.6932   26.0368 S   0  0  0  0  0  0  0  0  0  0  0  0
    7.0599  -13.5741   25.9304 C   0  0  0  0  0  0  0  0  0  0  0  0
    7.1054  -14.3718   24.6758 C   0  0  0  0  0  0  0  0  0  0  0  0
    8.4014  -14.9552   24.2884 C   0  0  2  0  0  0  0  0  0  0  0  0
    8.3779  -15.6545   23.0560 N   0  0  0  0  0  0  0  0  0  0  0  0
    9.0833  -15.6174   25.4148 C   0  0  0  0  0  0  0  0  0  0  0  0
    9.1051  -16.8788   25.4054 O   0  0  0  0  0  0  0  0  0  0  0  0
   11.8078  -15.5847   29.5600 C   0  0  0  0  0  0  0  0  0  0  0  0
   11.1412  -14.7670   28.4793 C   0  0  2  0  0  0  0  0  0  0  0  0
    9.9911  -14.0133   29.1143 C   0  0  0  0  0  0  0  0  0  0  0  0
   10.5593  -15.7129   27.4525 C   0  0  2  0  0  0  0  0  0  0  0  0
    9.7081  -14.9742   26.5036 N   0  0  0  0  0  0  0  0  0  0  0  0
    9.7079  -16.7413   28.0847 C   0  0  0  0  0  0  0  0  0  0  0  0
   10.2296  -17.6717   28.7443 O   0  0  0  0  0  0  0  0  0  0  0  0
    8.3163  -16.6630   27.9387 O   0  0  0  0  0  0  0  0  0  0  0  0
  2  1  1  6
  2  3  1  0
  4  3  1  0
  5 12  1  0
  5  2  1  0
  6  5  2  0
  8  7  1  0
  9  8  1  0
  9 10  1  0
 11 10  1  1
 11 13  1  0
 11 12  1  0
 13 19  1  0
 14 13  2  0
 16 15  1  1
 16 17  1  0
 18 20  1  0
 18 16  1  0
 18 19  1  6
 20 22  1  0
 21 20  2  0
M  END
$$$$
