CMV.pdb
     RDKit          3D

 22 21  0  0  1  0  0  0  0  0999 V2000
    8.7327  -15.4999   19.7576 N   0  0  0  0  0  0  0  0  0  0  0  0
    8.1095  -16.0874   20.9259 C   0  0  1  0  0  0  0  0  0  0  0  0
    8.2827  -17.5699   20.8534 C   0  0  0  0  0  0  0  0  0  0  0  0
    7.4106  -18.3065   22.2761 S   0  0  0  0  0  0  0  0  0  0  0  0
    8.6528  -15.5195   22.1844 C   0  0  0  0  0  0  0  0  0  0  0  0
    9.8752  -15.3851   22.3012 O   0  0  0  0  0  0  0  0  0  0  0  0
    5.8066  -10.7076   25.9555 C   0  0  0  0  0  0  0  0  0  0  0  0
    5.9398  -12.1846   26.9874 S   0  0  0  0  0  0  0  0  0  0  0  0
    7.3759  -13.1973   26.4381 C   0  0  0  0  0  0  0  0  0  0  0  0
    7.0603  -13.8343   25.1316 C   0  0  0  0  0  0  0  0  0  0  0  0
    8.1097  -14.6574   24.5060 C   0  0  2  0  0  0  0  0  0  0  0  0
    7.7744  -15.1450   23.2183 N   0  0  0  0  0  0  0  0  0  0  0  0
    8.7082  -15.6217   25.4462 C   0  0  0  0  0  0  0  0  0  0  0  0
    8.0819  -16.7013   25.6306 O   0  0  0  0  0  0  0  0  0  0  0  0
   12.3536  -15.0460   27.5501 C   0  0  0  0  0  0  0  0  0  0  0  0
   12.0139  -16.4027   26.9802 C   0  0  2  0  0  0  0  0  0  0  0  0
   12.5128  -16.4407   25.5507 C   0  0  0  0  0  0  0  0  0  0  0  0
   10.5085  -16.5448   26.9453 C   0  0  2  0  0  0  0  0  0  0  0  0
    9.9111  -15.4490   26.1623 N   0  0  0  0  0  0  0  0  0  0  0  0
    9.9261  -16.4728   28.3010 C   0  0  0  0  0  0  0  0  0  0  0  0
   10.1916  -17.3590   29.1478 O   0  0  0  0  0  0  0  0  0  0  0  0
    9.0779  -15.4058   28.6264 O   0  0  0  0  0  0  0  0  0  0  0  0
  2  1  1  6
  2  3  1  0
  4  3  1  0
  5 12  1  0
  5  2  1  0
  6  5  2  0
  8  7  1  0
  9  8  1  0
  9 10  1  0
 11 10  1  1
 11 13  1  0
 11 12  1  0
 13 19  1  0
 14 13  2  0
 16 15  1  6
 16 17  1  0
 18 20  1  0
 18 16  1  0
 18 19  1  6
 20 22  1  0
 21 20  2  0
M  END
$$$$
