CMV.pdb
     RDKit          3D

 22 21  0  0  1  0  0  0  0  0999 V2000
    9.6286  -15.9969   19.6459 N   0  0  0  0  0  0  0  0  0  0  0  0
    8.9174  -16.4749   20.8139 C   0  0  1  0  0  0  0  0  0  0  0  0
    9.1054  -17.9546   20.9035 C   0  0  0  0  0  0  0  0  0  0  0  0
    7.9349  -18.5941   22.1478 S   0  0  0  0  0  0  0  0  0  0  0  0
    9.3543  -15.7775   22.0485 C   0  0  0  0  0  0  0  0  0  0  0  0
   10.5575  -15.5526   22.2145 O   0  0  0  0  0  0  0  0  0  0  0  0
    4.7375  -12.8709   25.8646 C   0  0  0  0  0  0  0  0  0  0  0  0
    6.2354  -11.8781   26.0511 S   0  0  0  0  0  0  0  0  0  0  0  0
    7.7185  -12.9421   25.8094 C   0  0  0  0  0  0  0  0  0  0  0  0
    7.4980  -13.8394   24.6439 C   0  0  0  0  0  0  0  0  0  0  0  0
    8.6232  -14.6899   24.2189 C   0  0  2  0  0  0  0  0  0  0  0  0
    8.3989  -15.3853   23.0047 N   0  0  0  0  0  0  0  0  0  0  0  0
    9.1979  -15.4660   25.3323 C   0  0  0  0  0  0  0  0  0  0  0  0
    9.0155  -16.7142   25.3105 O   0  0  0  0  0  0  0  0  0  0  0  0
   11.9195  -15.9235   29.4519 C   0  0  0  0  0  0  0  0  0  0  0  0
   11.3826  -14.9925   28.3908 C   0  0  2  0  0  0  0  0  0  0  0  0
   10.3507  -14.0959   29.0430 C   0  0  0  0  0  0  0  0  0  0  0  0
   10.6746  -15.8196   27.3409 C   0  0  2  0  0  0  0  0  0  0  0  0
    9.9270  -14.9443   26.4212 N   0  0  0  0  0  0  0  0  0  0  0  0
    9.6946  -16.7429   27.9489 C   0  0  0  0  0  0  0  0  0  0  0  0
    8.4654  -16.5341   27.8137 O   0  0  0  0  0  0  0  0  0  0  0  0
   10.1551  -17.8500   28.6744 O   0  0  0  0  0  0  0  0  0  0  0  0
  2  1  1  6
  2  3  1  0
  4  3  1  0
  5 12  1  0
  5  2  1  0
  6  5  2  0
  8  7  1  0
  9  8  1  0
  9 10  1  0
 11 10  1  1
 11 13  1  0
 11 12  1  0
 13 19  1  0
 14 13  2  0
 16 15  1  1
 16 17  1  0
 18 20  1  0
 18 16  1  0
 18 19  1  6
 20 22  1  0
 21 20  2  0
M  END
$$$$
