CMV.pdb
     RDKit          3D

 22 21  0  0  1  0  0  0  0  0999 V2000
    9.0717  -15.7997   19.3857 N   0  0  0  0  0  0  0  0  0  0  0  0
    8.1935  -16.0385   20.5128 C   0  0  1  0  0  0  0  0  0  0  0  0
    7.6745  -17.4362   20.4141 C   0  0  0  0  0  0  0  0  0  0  0  0
    6.1581  -17.4010   19.4009 S   0  0  0  0  0  0  0  0  0  0  0  0
    8.8748  -15.7824   21.8058 C   0  0  0  0  0  0  0  0  0  0  0  0
   10.0402  -16.1643   21.9538 O   0  0  0  0  0  0  0  0  0  0  0  0
    5.5303  -12.4034   26.4885 C   0  0  0  0  0  0  0  0  0  0  0  0
    7.2661  -12.0938   26.8825 S   0  0  0  0  0  0  0  0  0  0  0  0
    8.3022  -13.4773   26.2481 C   0  0  0  0  0  0  0  0  0  0  0  0
    7.8680  -13.8276   24.8694 C   0  0  0  0  0  0  0  0  0  0  0  0
    8.6406  -14.8587   24.1552 C   0  0  2  0  0  0  0  0  0  0  0  0
    8.1886  -15.1132   22.8364 N   0  0  0  0  0  0  0  0  0  0  0  0
    8.9291  -16.0338   24.9968 C   0  0  0  0  0  0  0  0  0  0  0  0
    7.9968  -16.8707   25.1453 O   0  0  0  0  0  0  0  0  0  0  0  0
   11.3335  -18.7003   24.3161 C   0  0  0  0  0  0  0  0  0  0  0  0
   11.6411  -18.2466   25.7233 C   0  0  2  0  0  0  0  0  0  0  0  0
   11.9507  -19.4788   26.5480 C   0  0  0  0  0  0  0  0  0  0  0  0
   10.3995  -17.6062   26.3028 C   0  0  2  0  0  0  0  0  0  0  0  0
   10.1462  -16.3073   25.6551 N   0  0  0  0  0  0  0  0  0  0  0  0
   10.5496  -17.3445   27.7489 C   0  0  0  0  0  0  0  0  0  0  0  0
   10.6747  -18.2999   28.5516 O   0  0  0  0  0  0  0  0  0  0  0  0
   10.5514  -16.0208   28.2090 O   0  0  0  0  0  0  0  0  0  0  0  0
  2  1  1  6
  2  3  1  0
  4  3  1  0
  5 12  1  0
  5  2  1  0
  6  5  2  0
  8  7  1  0
  9  8  1  0
  9 10  1  0
 11 10  1  1
 11 13  1  0
 11 12  1  0
 13 19  1  0
 14 13  2  0
 16 15  1  6
 16 17  1  0
 18 20  1  0
 18 16  1  0
 18 19  1  6
 20 22  1  0
 21 20  2  0
M  END
$$$$
