CMV.pdb
     RDKit          3D

 22 21  0  0  1  0  0  0  0  0999 V2000
   10.0521  -15.9974   19.9474 N   0  0  0  0  0  0  0  0  0  0  0  0
    9.2959  -16.5897   21.0317 C   0  0  1  0  0  0  0  0  0  0  0  0
    9.6657  -18.0345   21.1260 C   0  0  0  0  0  0  0  0  0  0  0  0
    8.5024  -18.9798   20.0866 S   0  0  0  0  0  0  0  0  0  0  0  0
    9.5118  -15.8701   22.3113 C   0  0  0  0  0  0  0  0  0  0  0  0
   10.5865  -15.2903   22.4975 O   0  0  0  0  0  0  0  0  0  0  0  0
    6.4928  -11.8427   26.6524 C   0  0  0  0  0  0  0  0  0  0  0  0
    5.4479  -12.7927   25.5255 S   0  0  0  0  0  0  0  0  0  0  0  0
    6.5031  -13.7256   24.3396 C   0  0  0  0  0  0  0  0  0  0  0  0
    7.1991  -14.8264   25.0579 C   0  0  0  0  0  0  0  0  0  0  0  0
    8.5237  -15.2332   24.5575 C   0  0  2  0  0  0  0  0  0  0  0  0
    8.4968  -15.8587   23.2862 N   0  0  0  0  0  0  0  0  0  0  0  0
    9.3482  -15.8756   25.5966 C   0  0  0  0  0  0  0  0  0  0  0  0
    9.7344  -17.0550   25.3689 O   0  0  0  0  0  0  0  0  0  0  0  0
    9.8171  -14.7226   29.6476 C   0  0  0  0  0  0  0  0  0  0  0  0
   11.0665  -15.0574   28.8680 C   0  0  2  0  0  0  0  0  0  0  0  0
   11.5950  -13.7708   28.2687 C   0  0  0  0  0  0  0  0  0  0  0  0
   10.6879  -15.9744   27.7263 C   0  0  2  0  0  0  0  0  0  0  0  0
    9.7409  -15.2985   26.8223 N   0  0  0  0  0  0  0  0  0  0  0  0
   10.0195  -17.1984   28.2135 C   0  0  0  0  0  0  0  0  0  0  0  0
    8.7987  -17.3798   27.9910 O   0  0  0  0  0  0  0  0  0  0  0  0
   10.7647  -18.1495   28.9233 O   0  0  0  0  0  0  0  0  0  0  0  0
  2  1  1  6
  2  3  1  0
  4  3  1  0
  5 12  1  0
  5  2  1  0
  6  5  2  0
  8  7  1  0
  9  8  1  0
  9 10  1  0
 11 10  1  1
 11 13  1  0
 11 12  1  0
 13 19  1  0
 14 13  2  0
 16 15  1  1
 16 17  1  0
 18 20  1  0
 18 16  1  0
 18 19  1  6
 20 22  1  0
 21 20  2  0
M  END
$$$$
