CMV.pdb
     RDKit          3D

 22 21  0  0  1  0  0  0  0  0999 V2000
    7.9269  -16.4361   19.8908 N   0  0  0  0  0  0  0  0  0  0  0  0
    7.4938  -16.8857   21.1980 C   0  0  1  0  0  0  0  0  0  0  0  0
    7.6362  -18.3722   21.2528 C   0  0  0  0  0  0  0  0  0  0  0  0
    6.9216  -18.9461   22.8299 S   0  0  0  0  0  0  0  0  0  0  0  0
    8.2394  -16.2096   22.2881 C   0  0  0  0  0  0  0  0  0  0  0  0
    9.4709  -16.1432   22.2187 O   0  0  0  0  0  0  0  0  0  0  0  0
    5.8328  -11.2800   25.8597 C   0  0  0  0  0  0  0  0  0  0  0  0
    6.3643  -12.4055   27.1693 S   0  0  0  0  0  0  0  0  0  0  0  0
    7.6515  -13.5499   26.5187 C   0  0  0  0  0  0  0  0  0  0  0  0
    7.1507  -14.2037   25.2801 C   0  0  0  0  0  0  0  0  0  0  0  0
    8.0784  -15.0913   24.5578 C   0  0  2  0  0  0  0  0  0  0  0  0
    7.5381  -15.6580   23.3766 N   0  0  0  0  0  0  0  0  0  0  0  0
    8.8064  -16.0026   25.4588 C   0  0  0  0  0  0  0  0  0  0  0  0
    8.2469  -17.0996   25.7332 O   0  0  0  0  0  0  0  0  0  0  0  0
   13.0601  -17.5439   27.4643 C   0  0  0  0  0  0  0  0  0  0  0  0
   12.3174  -16.4861   26.6832 C   0  0  2  0  0  0  0  0  0  0  0  0
   12.4647  -15.1749   27.4269 C   0  0  0  0  0  0  0  0  0  0  0  0
   10.8478  -16.8437   26.6693 C   0  0  2  0  0  0  0  0  0  0  0  0
   10.0658  -15.7614   26.0465 N   0  0  0  0  0  0  0  0  0  0  0  0
   10.3212  -17.0232   28.0378 C   0  0  0  0  0  0  0  0  0  0  0  0
    9.5657  -16.1572   28.5400 O   0  0  0  0  0  0  0  0  0  0  0  0
   10.6749  -18.1690   28.7631 O   0  0  0  0  0  0  0  0  0  0  0  0
  2  1  1  6
  2  3  1  0
  4  3  1  0
  5 12  1  0
  5  2  1  0
  6  5  2  0
  8  7  1  0
  9  8  1  0
  9 10  1  0
 11 10  1  1
 11 13  1  0
 11 12  1  0
 13 19  1  0
 14 13  2  0
 16 15  1  1
 16 17  1  0
 18 20  1  0
 18 16  1  0
 18 19  1  1
 20 22  1  0
 21 20  2  0
M  END
$$$$
