CMV.pdb
     RDKit          3D

 22 21  0  0  1  0  0  0  0  0999 V2000
    9.0184  -16.1727   19.6329 N   0  0  0  0  0  0  0  0  0  0  0  0
    8.1865  -16.4480   20.7864 C   0  0  1  0  0  0  0  0  0  0  0  0
    7.9413  -17.9208   20.8461 C   0  0  0  0  0  0  0  0  0  0  0  0
    6.5968  -18.3131   19.6774 S   0  0  0  0  0  0  0  0  0  0  0  0
    8.7906  -15.9281   22.0380 C   0  0  0  0  0  0  0  0  0  0  0  0
   10.0141  -16.0061   22.1889 O   0  0  0  0  0  0  0  0  0  0  0  0
    6.8886  -10.9645   26.5886 C   0  0  0  0  0  0  0  0  0  0  0  0
    6.3450  -12.6231   27.0554 S   0  0  0  0  0  0  0  0  0  0  0  0
    7.5788  -13.8640   26.4827 C   0  0  0  0  0  0  0  0  0  0  0  0
    7.3175  -14.1986   25.0572 C   0  0  0  0  0  0  0  0  0  0  0  0
    8.3162  -15.0272   24.3599 C   0  0  2  0  0  0  0  0  0  0  0  0
    7.9672  -15.3581   23.0268 N   0  0  0  0  0  0  0  0  0  0  0  0
    8.8315  -16.1212   25.2025 C   0  0  0  0  0  0  0  0  0  0  0  0
    8.0773  -17.1196   25.3639 O   0  0  0  0  0  0  0  0  0  0  0  0
   12.0555  -17.9868   24.6462 C   0  0  0  0  0  0  0  0  0  0  0  0
   12.0186  -17.6342   26.1142 C   0  0  2  0  0  0  0  0  0  0  0  0
   12.4974  -18.8429   26.8913 C   0  0  0  0  0  0  0  0  0  0  0  0
   10.5819  -17.3741   26.5089 C   0  0  2  0  0  0  0  0  0  0  0  0
   10.0848  -16.1542   25.8488 N   0  0  0  0  0  0  0  0  0  0  0  0
   10.4503  -17.1603   27.9647 C   0  0  0  0  0  0  0  0  0  0  0  0
   10.1388  -16.0297   28.4091 O   0  0  0  0  0  0  0  0  0  0  0  0
   10.6763  -18.2330   28.8377 O   0  0  0  0  0  0  0  0  0  0  0  0
  2  1  1  6
  2  3  1  0
  4  3  1  0
  5 12  1  0
  5  2  1  0
  6  5  2  0
  8  7  1  0
  9  8  1  0
  9 10  1  0
 11 10  1  1
 11 13  1  0
 11 12  1  0
 13 19  1  0
 14 13  2  0
 16 15  1  6
 16 17  1  0
 18 20  1  0
 18 16  1  0
 18 19  1  6
 20 22  1  0
 21 20  2  0
M  END
$$$$
