CMV.pdb
     RDKit          3D

 22 21  0  0  1  0  0  0  0  0999 V2000
    9.9039  -17.2899   20.4105 N   0  0  0  0  0  0  0  0  0  0  0  0
    9.2745  -17.4365   21.7069 C   0  0  1  0  0  0  0  0  0  0  0  0
    9.7861  -18.6914   22.3366 C   0  0  0  0  0  0  0  0  0  0  0  0
    8.6751  -19.1182   23.7189 S   0  0  0  0  0  0  0  0  0  0  0  0
    9.4968  -16.2466   22.5649 C   0  0  0  0  0  0  0  0  0  0  0  0
   10.6261  -15.7488   22.6163 O   0  0  0  0  0  0  0  0  0  0  0  0
    6.0895  -11.3680   27.3685 C   0  0  0  0  0  0  0  0  0  0  0  0
    5.9615  -12.7110   26.1667 S   0  0  0  0  0  0  0  0  0  0  0  0
    7.2026  -12.4662   24.8290 C   0  0  0  0  0  0  0  0  0  0  0  0
    7.2645  -13.6880   23.9830 C   0  0  0  0  0  0  0  0  0  0  0  0
    8.4395  -14.5629   24.1382 C   0  0  2  0  0  0  0  0  0  0  0  0
    8.4260  -15.7067   23.3017 N   0  0  0  0  0  0  0  0  0  0  0  0
    8.8029  -14.7771   25.5504 C   0  0  0  0  0  0  0  0  0  0  0  0
    8.5151  -13.8526   26.3592 O   0  0  0  0  0  0  0  0  0  0  0  0
    9.5787  -15.4497   28.8613 C   0  0  0  0  0  0  0  0  0  0  0  0
   10.6694  -14.9249   27.9581 C   0  0  2  0  0  0  0  0  0  0  0  0
   10.2530  -13.5481   27.4837 C   0  0  0  0  0  0  0  0  0  0  0  0
   10.7588  -15.8217   26.7434 C   0  0  2  0  0  0  0  0  0  0  0  0
    9.4462  -15.9148   26.0809 N   0  0  0  0  0  0  0  0  0  0  0  0
   11.1534  -17.1965   27.1131 C   0  0  0  0  0  0  0  0  0  0  0  0
   10.3552  -18.1483   26.9399 O   0  0  0  0  0  0  0  0  0  0  0  0
   12.4255  -17.4215   27.6563 O   0  0  0  0  0  0  0  0  0  0  0  0
  2  1  1  6
  2  3  1  0
  4  3  1  0
  5 12  1  0
  5  2  1  0
  6  5  2  0
  8  7  1  0
  9  8  1  0
  9 10  1  0
 11 10  1  1
 11 13  1  0
 11 12  1  0
 13 19  1  0
 14 13  2  0
 16 15  1  1
 16 17  1  0
 18 20  1  0
 18 16  1  0
 18 19  1  1
 20 22  1  0
 21 20  2  0
M  END
$$$$
