DPP.pdb
     RDKit          3D

 23 24  0  0  1  0  0  0  0  0999 V2000
   26.3842  -20.7541  -16.2872 N   0  0  0  0  0  0  0  0  0  0  0  0
   27.2469  -20.0169  -15.3504 C   0  0  1  0  0  0  0  0  0  0  0  0
   26.9346  -18.5281  -15.4548 C   0  0  0  0  0  0  0  0  0  0  0  0
   27.4372  -17.9947  -16.7465 C   0  0  0  0  0  0  0  0  0  0  0  0
   26.6212  -17.5284  -17.5894 O   0  0  0  0  0  0  0  0  0  0  0  0
   27.0488  -20.5153  -13.9740 C   0  0  0  0  0  0  0  0  0  0  0  0
   25.8503  -20.7287  -13.5980 O   0  0  0  0  0  0  0  0  0  0  0  0
   28.7781  -17.9814  -17.0819 O   0  0  0  0  0  0  0  0  0  0  0  0
   28.1045  -20.7631  -13.0686 N   0  0  0  0  0  0  0  0  0  0  0  0
   29.5024  -20.6234  -13.3957 C   0  0  0  0  0  0  0  0  0  0  0  0
   30.0897  -21.7670  -12.5516 C   0  0  0  0  0  0  0  0  0  0  0  0
   29.4572  -21.3682  -11.2301 C   0  0  0  0  0  0  0  0  0  0  0  0
   28.0222  -21.1946  -11.6932 C   0  0  1  0  0  0  0  0  0  0  0  0
   27.2812  -20.2229  -10.8362 C   0  0  0  0  0  0  0  0  0  0  0  0
   27.3654  -19.0175  -11.1870 O   0  0  0  0  0  0  0  0  0  0  0  0
   26.5324  -20.6371   -9.7012 N   0  0  0  0  0  0  0  0  0  0  0  0
   26.2141  -21.9691   -9.2539 C   0  0  0  0  0  0  0  0  0  0  0  0
   25.0877  -21.8338   -8.2676 C   0  0  0  0  0  0  0  0  0  0  0  0
   24.6672  -20.4021   -8.2996 C   0  0  0  0  0  0  0  0  0  0  0  0
   25.9354  -19.7082   -8.7592 C   0  0  1  0  0  0  0  0  0  0  0  0
   26.8537  -19.4010   -7.6534 C   0  0  0  0  0  0  0  0  0  0  0  0
   27.8620  -20.1167   -7.4701 O   0  0  0  0  0  0  0  0  0  0  0  0
   26.6162  -18.3381   -6.8212 O   0  0  0  0  0  0  0  0  0  0  0  0
  2  1  1  6
  2  3  1  0
  3  4  1  0
  4  8  1  0
  5  4  2  0
  6  9  1  0
  6  2  1  0
  7  6  2  0
  9 13  1  0
 10 11  1  0
 10  9  1  0
 11 12  1  0
 12 13  1  0
 13 14  1  1
 14 16  1  0
 15 14  2  0
 16 20  1  0
 17 16  1  0
 17 18  1  0
 18 19  1  0
 20 21  1  1
 20 19  1  0
 21 23  1  0
 22 21  2  0
M  END
$$$$
