DPP.pdb
     RDKit          3D

 23 24  0  0  1  0  0  0  0  0999 V2000
   25.0099  -23.0830  -12.8726 N   0  0  0  0  0  0  0  0  0  0  0  0
   25.0605  -21.7537  -12.2436 C   0  0  1  0  0  0  0  0  0  0  0  0
   23.6699  -21.3930  -11.7327 C   0  0  0  0  0  0  0  0  0  0  0  0
   22.8295  -20.9030  -12.8550 C   0  0  0  0  0  0  0  0  0  0  0  0
   22.8650  -19.6823  -13.1748 O   0  0  0  0  0  0  0  0  0  0  0  0
   26.0565  -21.7427  -11.1527 C   0  0  0  0  0  0  0  0  0  0  0  0
   26.0084  -22.6968  -10.3097 O   0  0  0  0  0  0  0  0  0  0  0  0
   21.9936  -21.7290  -13.5827 O   0  0  0  0  0  0  0  0  0  0  0  0
   27.0435  -20.7437  -11.0002 N   0  0  0  0  0  0  0  0  0  0  0  0
   27.2310  -19.6431  -11.9137 C   0  0  0  0  0  0  0  0  0  0  0  0
   28.7602  -19.4955  -11.8437 C   0  0  0  0  0  0  0  0  0  0  0  0
   28.8704  -19.4051  -10.3320 C   0  0  0  0  0  0  0  0  0  0  0  0
   28.0336  -20.6145   -9.9571 C   0  0  1  0  0  0  0  0  0  0  0  0
   27.4186  -20.4608   -8.6059 C   0  0  0  0  0  0  0  0  0  0  0  0
   26.1751  -20.2689   -8.5955 O   0  0  0  0  0  0  0  0  0  0  0  0
   28.1907  -20.5275   -7.4143 N   0  0  0  0  0  0  0  0  0  0  0  0
   29.5891  -20.8315   -7.2483 C   0  0  0  0  0  0  0  0  0  0  0  0
   29.7878  -21.1619   -5.7953 C   0  0  0  0  0  0  0  0  0  0  0  0
   28.4284  -21.2001   -5.1805 C   0  0  0  0  0  0  0  0  0  0  0  0
   27.6400  -20.2810   -6.0942 C   0  0  1  0  0  0  0  0  0  0  0  0
   27.7558  -18.8642   -5.7205 C   0  0  0  0  0  0  0  0  0  0  0  0
   27.1170  -18.4298   -4.7377 O   0  0  0  0  0  0  0  0  0  0  0  0
   28.5567  -18.0143   -6.4380 O   0  0  0  0  0  0  0  0  0  0  0  0
  2  1  1  1
  2  3  1  0
  3  4  1  0
  4  8  1  0
  5  4  2  0
  6  9  1  0
  6  2  1  0
  7  6  2  0
  9 13  1  0
 10 11  1  0
 10  9  1  0
 11 12  1  0
 12 13  1  0
 13 14  1  1
 14 16  1  0
 15 14  2  0
 16 20  1  0
 17 16  1  0
 17 18  1  0
 18 19  1  0
 20 21  1  1
 20 19  1  0
 21 23  1  0
 22 21  2  0
M  END
$$$$
