DPP.pdb
     RDKit          3D

 23 24  0  0  1  0  0  0  0  0999 V2000
   21.3274  -20.3635  -12.4349 N   0  0  0  0  0  0  0  0  0  0  0  0
   22.3762  -21.1666  -13.0832 C   0  0  1  0  0  0  0  0  0  0  0  0
   21.8416  -21.7074  -14.4048 C   0  0  0  0  0  0  0  0  0  0  0  0
   20.6544  -22.5650  -14.1577 C   0  0  0  0  0  0  0  0  0  0  0  0
   20.7955  -23.6713  -13.5662 O   0  0  0  0  0  0  0  0  0  0  0  0
   23.5916  -20.3516  -13.2851 C   0  0  0  0  0  0  0  0  0  0  0  0
   23.4356  -19.1796  -13.7598 O   0  0  0  0  0  0  0  0  0  0  0  0
   19.3774  -22.2091  -14.5488 O   0  0  0  0  0  0  0  0  0  0  0  0
   24.8969  -20.7994  -12.9829 N   0  0  0  0  0  0  0  0  0  0  0  0
   25.1898  -21.9515  -12.1657 C   0  0  0  0  0  0  0  0  0  0  0  0
   26.4727  -21.4664  -11.4702 C   0  0  0  0  0  0  0  0  0  0  0  0
   27.2285  -21.0709  -12.7263 C   0  0  0  0  0  0  0  0  0  0  0  0
   26.1576  -20.2297  -13.3964 C   0  0  1  0  0  0  0  0  0  0  0  0
   26.3160  -20.2174  -14.8805 C   0  0  0  0  0  0  0  0  0  0  0  0
   25.6909  -21.1172  -15.4993 O   0  0  0  0  0  0  0  0  0  0  0  0
   27.1202  -19.2518  -15.5447 N   0  0  0  0  0  0  0  0  0  0  0  0
   27.9495  -18.2144  -14.9864 C   0  0  0  0  0  0  0  0  0  0  0  0
   28.2409  -17.2498  -16.1019 C   0  0  0  0  0  0  0  0  0  0  0  0
   27.4117  -17.6843  -17.2643 C   0  0  0  0  0  0  0  0  0  0  0  0
   27.2296  -19.1650  -16.9895 C   0  0  1  0  0  0  0  0  0  0  0  0
   28.3422  -19.9825  -17.4934 C   0  0  0  0  0  0  0  0  0  0  0  0
   29.1157  -20.5399  -16.6848 O   0  0  0  0  0  0  0  0  0  0  0  0
   28.5407  -20.1403  -18.8404 O   0  0  0  0  0  0  0  0  0  0  0  0
  2  1  1  6
  2  3  1  0
  3  4  1  0
  4  8  1  0
  5  4  2  0
  6  9  1  0
  6  2  1  0
  7  6  2  0
  9 13  1  0
 10 11  1  0
 10  9  1  0
 11 12  1  0
 12 13  1  0
 13 14  1  6
 14 16  1  0
 15 14  2  0
 16 20  1  0
 17 16  1  0
 17 18  1  0
 18 19  1  0
 20 21  1  1
 20 19  1  0
 21 23  1  0
 22 21  2  0
M  END
$$$$
