DPP.pdb
     RDKit          3D

 23 24  0  0  1  0  0  0  0  0999 V2000
   15.0452   -7.8478   -8.4039 N   0  0  0  0  0  0  0  0  0  0  0  0
   15.2393   -6.8357   -9.4542 C   0  0  1  0  0  0  0  0  0  0  0  0
   15.6020   -5.5063   -8.8014 C   0  0  0  0  0  0  0  0  0  0  0  0
   14.4366   -4.9778   -8.0475 C   0  0  0  0  0  0  0  0  0  0  0  0
   13.3071   -4.9147   -8.6077 O   0  0  0  0  0  0  0  0  0  0  0  0
   16.2847   -7.2759  -10.4004 C   0  0  0  0  0  0  0  0  0  0  0  0
   17.2748   -7.9168   -9.9186 O   0  0  0  0  0  0  0  0  0  0  0  0
   14.5247   -4.5425   -6.7386 O   0  0  0  0  0  0  0  0  0  0  0  0
   16.2420   -7.0262  -11.7902 N   0  0  0  0  0  0  0  0  0  0  0  0
   15.0915   -6.5019  -12.4846 C   0  0  0  0  0  0  0  0  0  0  0  0
   15.2242   -7.2482  -13.8227 C   0  0  0  0  0  0  0  0  0  0  0  0
   16.6660   -6.8666  -14.1077 C   0  0  0  0  0  0  0  0  0  0  0  0
   17.2812   -7.2360  -12.7704 C   0  0  1  0  0  0  0  0  0  0  0  0
   18.5032   -6.4280  -12.4848 C   0  0  0  0  0  0  0  0  0  0  0  0
   18.3214   -5.4021  -11.7792 O   0  0  0  0  0  0  0  0  0  0  0  0
   19.7837   -6.7973  -12.9792 N   0  0  0  0  0  0  0  0  0  0  0  0
   20.1540   -7.9135  -13.8113 C   0  0  0  0  0  0  0  0  0  0  0  0
   21.6456   -8.0600  -13.6955 C   0  0  0  0  0  0  0  0  0  0  0  0
   22.0843   -7.0994  -12.6408 C   0  0  0  0  0  0  0  0  0  0  0  0
   20.9933   -6.0469  -12.6953 C   0  0  1  0  0  0  0  0  0  0  0  0
   21.2391   -5.0188  -13.7165 C   0  0  0  0  0  0  0  0  0  0  0  0
   20.6819   -5.1096  -14.8319 O   0  0  0  0  0  0  0  0  0  0  0  0
   22.0727   -3.9618  -13.4590 O   0  0  0  0  0  0  0  0  0  0  0  0
  2  1  1  1
  2  3  1  0
  3  4  1  0
  4  8  1  0
  5  4  2  0
  6  9  1  0
  6  2  1  0
  7  6  2  0
  9 13  1  0
 10 11  1  0
 10  9  1  0
 11 12  1  0
 12 13  1  0
 13 14  1  1
 14 16  1  0
 15 14  2  0
 16 20  1  0
 17 16  1  0
 17 18  1  0
 18 19  1  0
 20 21  1  6
 20 19  1  0
 21 23  1  0
 22 21  2  0
M  END
$$$$
