DPP.pdb
     RDKit          3D

 23 24  0  0  1  0  0  0  0  0999 V2000
   26.6339  -20.9577  -18.8807 N   0  0  0  0  0  0  0  0  0  0  0  0
   25.7081  -20.2007  -18.0233 C   0  0  1  0  0  0  0  0  0  0  0  0
   24.3021  -20.7666  -18.1901 C   0  0  0  0  0  0  0  0  0  0  0  0
   23.5477  -19.9631  -19.1856 C   0  0  0  0  0  0  0  0  0  0  0  0
   23.1988  -18.7838  -18.9008 O   0  0  0  0  0  0  0  0  0  0  0  0
   26.1513  -20.2610  -16.6154 C   0  0  0  0  0  0  0  0  0  0  0  0
   26.5590  -21.3869  -16.1802 O   0  0  0  0  0  0  0  0  0  0  0  0
   23.2002  -20.4475  -20.4326 O   0  0  0  0  0  0  0  0  0  0  0  0
   26.1459  -19.1508  -15.7419 N   0  0  0  0  0  0  0  0  0  0  0  0
   25.8879  -17.7938  -16.1573 C   0  0  0  0  0  0  0  0  0  0  0  0
   26.8272  -17.0389  -15.2019 C   0  0  0  0  0  0  0  0  0  0  0  0
   26.3286  -17.6682  -13.9132 C   0  0  0  0  0  0  0  0  0  0  0  0
   26.3912  -19.1293  -14.3192 C   0  0  1  0  0  0  0  0  0  0  0  0
   25.4059  -19.9541  -13.5600 C   0  0  0  0  0  0  0  0  0  0  0  0
   24.3372  -20.2183  -14.1696 O   0  0  0  0  0  0  0  0  0  0  0  0
   25.6627  -20.4079  -12.2377 N   0  0  0  0  0  0  0  0  0  0  0  0
   26.8272  -20.2073  -11.4136 C   0  0  0  0  0  0  0  0  0  0  0  0
   26.7464  -21.2162  -10.3021 C   0  0  0  0  0  0  0  0  0  0  0  0
   25.5890  -22.1035  -10.6196 C   0  0  0  0  0  0  0  0  0  0  0  0
   24.7179  -21.1983  -11.4699 C   0  0  1  0  0  0  0  0  0  0  0  0
   23.8279  -20.3438  -10.6710 C   0  0  0  0  0  0  0  0  0  0  0  0
   24.1261  -19.1443  -10.4842 O   0  0  0  0  0  0  0  0  0  0  0  0
   22.6746  -20.8482  -10.1288 O   0  0  0  0  0  0  0  0  0  0  0  0
  2  1  1  6
  2  3  1  0
  3  4  1  0
  4  8  1  0
  5  4  2  0
  6  9  1  0
  6  2  1  0
  7  6  2  0
  9 13  1  0
 10 11  1  0
 10  9  1  0
 11 12  1  0
 12 13  1  0
 13 14  1  1
 14 16  1  0
 15 14  2  0
 16 20  1  0
 17 16  1  0
 17 18  1  0
 18 19  1  0
 20 21  1  1
 20 19  1  0
 21 23  1  0
 22 21  2  0
M  END
$$$$
