DPP.pdb
     RDKit          3D

 23 24  0  0  1  0  0  0  0  0999 V2000
   24.6335  -22.2914  -11.9344 N   0  0  0  0  0  0  0  0  0  0  0  0
   25.5350  -21.1763  -11.6042 C   0  0  1  0  0  0  0  0  0  0  0  0
   24.7253  -19.8860  -11.5388 C   0  0  0  0  0  0  0  0  0  0  0  0
   24.0421  -19.6507  -12.8363 C   0  0  0  0  0  0  0  0  0  0  0  0
   24.7288  -19.4909  -13.8835 O   0  0  0  0  0  0  0  0  0  0  0  0
   26.2306  -21.4429  -10.3285 C   0  0  0  0  0  0  0  0  0  0  0  0
   25.5237  -21.8642   -9.3559 O   0  0  0  0  0  0  0  0  0  0  0  0
   22.6666  -19.5961  -12.9610 O   0  0  0  0  0  0  0  0  0  0  0  0
   27.6178  -21.2573  -10.1364 N   0  0  0  0  0  0  0  0  0  0  0  0
   28.5431  -20.9137  -11.1884 C   0  0  0  0  0  0  0  0  0  0  0  0
   29.7838  -21.6904  -10.7170 C   0  0  0  0  0  0  0  0  0  0  0  0
   29.8240  -21.1385   -9.3030 C   0  0  0  0  0  0  0  0  0  0  0  0
   28.3759  -21.3714   -8.9129 C   0  0  1  0  0  0  0  0  0  0  0  0
   27.9237  -20.4021   -7.8718 C   0  0  0  0  0  0  0  0  0  0  0  0
   27.1858  -19.4699   -8.2838 O   0  0  0  0  0  0  0  0  0  0  0  0
   28.3043  -20.5285   -6.5081 N   0  0  0  0  0  0  0  0  0  0  0  0
   29.1190  -21.5353   -5.8771 C   0  0  0  0  0  0  0  0  0  0  0  0
   28.8684  -21.4270   -4.3989 C   0  0  0  0  0  0  0  0  0  0  0  0
   27.7601  -20.4419   -4.2288 C   0  0  0  0  0  0  0  0  0  0  0  0
   27.8959  -19.5915   -5.4776 C   0  0  1  0  0  0  0  0  0  0  0  0
   28.8709  -18.5021   -5.3260 C   0  0  0  0  0  0  0  0  0  0  0  0
   29.9417  -18.5367   -5.9700 O   0  0  0  0  0  0  0  0  0  0  0  0
   28.6185  -17.4488   -4.4860 O   0  0  0  0  0  0  0  0  0  0  0  0
  2  1  1  1
  2  3  1  0
  3  4  1  0
  4  8  1  0
  5  4  2  0
  6  9  1  0
  6  2  1  0
  7  6  2  0
  9 13  1  0
 10 11  1  0
 10  9  1  0
 11 12  1  0
 12 13  1  0
 13 14  1  1
 14 16  1  0
 15 14  2  0
 16 20  1  0
 17 16  1  0
 17 18  1  0
 18 19  1  0
 20 21  1  1
 20 19  1  0
 21 23  1  0
 22 21  2  0
M  END
$$$$
