DPP.pdb
     RDKit          3D

 23 24  0  0  1  0  0  0  0  0999 V2000
   26.5170  -21.8619  -12.0768 N   0  0  0  0  0  0  0  0  0  0  0  0
   25.9199  -21.0103  -11.0359 C   0  0  1  0  0  0  0  0  0  0  0  0
   24.6329  -21.6607  -10.5404 C   0  0  0  0  0  0  0  0  0  0  0  0
   23.5052  -21.2989  -11.4366 C   0  0  0  0  0  0  0  0  0  0  0  0
   23.2814  -21.9903  -12.4689 O   0  0  0  0  0  0  0  0  0  0  0  0
   26.8802  -20.8035   -9.9326 C   0  0  0  0  0  0  0  0  0  0  0  0
   27.6752  -21.7623   -9.6642 O   0  0  0  0  0  0  0  0  0  0  0  0
   22.6707  -20.2237  -11.1958 O   0  0  0  0  0  0  0  0  0  0  0  0
   26.9600  -19.6152   -9.1729 N   0  0  0  0  0  0  0  0  0  0  0  0
   26.0866  -18.4807   -9.3485 C   0  0  0  0  0  0  0  0  0  0  0  0
   27.0694  -17.3375   -9.0447 C   0  0  0  0  0  0  0  0  0  0  0  0
   27.5609  -17.8636   -7.7078 C   0  0  0  0  0  0  0  0  0  0  0  0
   27.8873  -19.2886   -8.1155 C   0  0  1  0  0  0  0  0  0  0  0  0
   27.7860  -20.2284   -6.9604 C   0  0  0  0  0  0  0  0  0  0  0  0
   26.7194  -20.8928   -6.8948 O   0  0  0  0  0  0  0  0  0  0  0  0
   28.8274  -20.3599   -6.0020 N   0  0  0  0  0  0  0  0  0  0  0  0
   30.1400  -19.7660   -5.9927 C   0  0  0  0  0  0  0  0  0  0  0  0
   30.9555  -20.5410   -4.9956 C   0  0  0  0  0  0  0  0  0  0  0  0
   30.1134  -21.6964   -4.5671 C   0  0  0  0  0  0  0  0  0  0  0  0
   28.7098  -21.1727   -4.8052 C   0  0  1  0  0  0  0  0  0  0  0  0
   28.1904  -20.3905   -3.6743 C   0  0  0  0  0  0  0  0  0  0  0  0
   27.8398  -20.9759   -2.6269 O   0  0  0  0  0  0  0  0  0  0  0  0
   28.0863  -19.0263   -3.7560 O   0  0  0  0  0  0  0  0  0  0  0  0
  2  1  1  6
  2  3  1  0
  3  4  1  0
  4  8  1  0
  5  4  2  0
  6  9  1  0
  6  2  1  0
  7  6  2  0
  9 13  1  0
 10 11  1  0
 10  9  1  0
 11 12  1  0
 12 13  1  0
 13 14  1  1
 14 16  1  0
 15 14  2  0
 16 20  1  0
 17 16  1  0
 17 18  1  0
 18 19  1  0
 20 21  1  1
 20 19  1  0
 21 23  1  0
 22 21  2  0
M  END
$$$$
