ALN.pdb
     RDKit          3D

 22 21  0  0  1  0  0  0  0  0999 V2000
   24.8273  -21.3939  -15.9178 C   0  0  0  0  0  0  0  0  0  0  0  0
   24.0854  -20.6742  -17.0207 C   0  0  2  0  0  0  0  0  0  0  0  0
   24.8494  -20.7264  -18.2337 N   0  0  0  0  0  0  0  0  0  0  0  0
   23.8886  -19.2616  -16.5699 C   0  0  0  0  0  0  0  0  0  0  0  0
   23.1808  -19.0538  -15.5549 O   0  0  0  0  0  0  0  0  0  0  0  0
   25.8265  -15.8232  -14.7772 C   0  0  0  0  0  0  0  0  0  0  0  0
   26.3942  -15.9122  -16.1992 C   0  0  1  0  0  0  0  0  0  0  0  0
   27.1685  -17.1859  -16.2774 C   0  0  0  0  0  0  0  0  0  0  0  0
   25.2349  -15.8317  -17.1277 C   0  0  0  0  0  0  0  0  0  0  0  0
   24.1390  -16.8310  -16.8322 C   0  0  2  0  0  0  0  0  0  0  0  0
   24.4612  -18.1589  -17.2326 N   0  0  0  0  0  0  0  0  0  0  0  0
   22.9365  -16.3367  -17.5839 C   0  0  0  0  0  0  0  0  0  0  0  0
   23.0243  -16.2276  -18.8312 O   0  0  0  0  0  0  0  0  0  0  0  0
   19.0649  -18.6002  -16.5905 N   0  0  0  0  0  0  0  0  0  0  0  0
   19.2898  -17.6071  -17.5671 C   0  0  0  0  0  0  0  0  0  0  0  0
   19.4053  -17.9261  -18.7584 O   0  0  0  0  0  0  0  0  0  0  0  0
   19.3811  -16.2113  -17.1380 C   0  0  0  0  0  0  0  0  0  0  0  0
   20.5702  -15.4467  -17.6693 C   0  0  2  0  0  0  0  0  0  0  0  0
   21.7257  -15.9960  -16.9310 N   0  0  0  0  0  0  0  0  0  0  0  0
   20.3962  -14.0138  -17.3005 C   0  0  0  0  0  0  0  0  0  0  0  0
   21.1580  -13.2976  -16.4318 O   0  0  0  0  0  0  0  0  0  0  0  0
   19.4271  -13.3986  -17.8622 O   0  0  0  0  0  0  0  0  0  0  0  0
  2  1  1  1
  3  2  1  0
  4  5  2  0
  4  2  1  0
  7  6  1  1
  7  8  1  0
  7  9  1  0
 10  9  1  6
 10 11  1  0
 10 12  1  0
 11  4  1  0
 12 19  1  0
 12 13  2  0
 15 14  1  0
 16 15  2  0
 17 15  1  0
 18 17  1  1
 19 18  1  0
 20 21  1  0
 20 18  1  0
 22 20  2  0
M  END
$$$$
