ALN.pdb
     RDKit          3D

 22 21  0  0  1  0  0  0  0  0999 V2000
   24.6541  -12.2834  -19.3202 C   0  0  0  0  0  0  0  0  0  0  0  0
   25.7179  -11.2837  -19.7124 C   0  0  2  0  0  0  0  0  0  0  0  0
   26.5597  -11.8448  -20.7295 N   0  0  0  0  0  0  0  0  0  0  0  0
   26.5027  -10.9690  -18.4785 C   0  0  0  0  0  0  0  0  0  0  0  0
   25.8922  -10.4976  -17.4888 O   0  0  0  0  0  0  0  0  0  0  0  0
   30.3426  -14.1252  -16.7347 C   0  0  0  0  0  0  0  0  0  0  0  0
   29.1085  -13.2154  -16.7742 C   0  0  1  0  0  0  0  0  0  0  0  0
   28.2529  -13.5956  -15.6117 C   0  0  0  0  0  0  0  0  0  0  0  0
   29.6091  -11.8150  -16.7454 C   0  0  0  0  0  0  0  0  0  0  0  0
   28.5969  -10.7898  -17.2051 C   0  0  2  0  0  0  0  0  0  0  0  0
   27.8917  -11.1782  -18.3796 N   0  0  0  0  0  0  0  0  0  0  0  0
   29.3863   -9.5381  -17.4607 C   0  0  0  0  0  0  0  0  0  0  0  0
   29.9567   -8.9910  -16.4857 O   0  0  0  0  0  0  0  0  0  0  0  0
   32.3347   -6.8232  -22.0205 N   0  0  0  0  0  0  0  0  0  0  0  0
   31.7942   -6.8110  -20.7173 C   0  0  0  0  0  0  0  0  0  0  0  0
   32.1647   -5.9551  -19.9021 O   0  0  0  0  0  0  0  0  0  0  0  0
   30.7988   -7.8230  -20.3626 C   0  0  0  0  0  0  0  0  0  0  0  0
   30.2024   -7.6889  -18.9817 C   0  0  2  0  0  0  0  0  0  0  0  0
   29.5012   -8.9688  -18.7534 N   0  0  0  0  0  0  0  0  0  0  0  0
   29.2001   -6.5874  -19.0199 C   0  0  0  0  0  0  0  0  0  0  0  0
   29.4067   -5.2857  -18.6873 O   0  0  0  0  0  0  0  0  0  0  0  0
   28.0240   -6.9056  -19.4058 O   0  0  0  0  0  0  0  0  0  0  0  0
  2  1  1  1
  3  2  1  0
  4  5  2  0
  4  2  1  0
  7  6  1  1
  7  8  1  0
  7  9  1  0
 10  9  1  6
 10 11  1  0
 10 12  1  0
 11  4  1  0
 12 19  1  0
 12 13  2  0
 15 14  1  0
 16 15  2  0
 17 15  1  0
 18 17  1  6
 19 18  1  0
 20 21  1  0
 20 18  1  0
 22 20  2  0
M  END
$$$$
