ALN.pdb
     RDKit          3D

 22 21  0  0  1  0  0  0  0  0999 V2000
   27.3799  -18.9900  -15.7767 C   0  0  0  0  0  0  0  0  0  0  0  0
   27.8480  -20.1306  -14.9021 C   0  0  2  0  0  0  0  0  0  0  0  0
   28.4166  -21.1651  -15.7172 N   0  0  0  0  0  0  0  0  0  0  0  0
   26.6530  -20.6312  -14.1546 C   0  0  0  0  0  0  0  0  0  0  0  0
   25.9863  -21.5681  -14.6566 O   0  0  0  0  0  0  0  0  0  0  0  0
   26.0114  -20.0081   -8.5659 C   0  0  0  0  0  0  0  0  0  0  0  0
   26.2135  -20.6292   -9.9536 C   0  0  1  0  0  0  0  0  0  0  0  0
   26.3511  -22.1019   -9.7530 C   0  0  0  0  0  0  0  0  0  0  0  0
   25.0451  -20.2210  -10.7786 C   0  0  0  0  0  0  0  0  0  0  0  0
   25.1313  -20.6542  -12.2250 C   0  0  2  0  0  0  0  0  0  0  0  0
   26.2452  -20.0986  -12.9164 N   0  0  0  0  0  0  0  0  0  0  0  0
   23.8463  -20.1979  -12.8542 C   0  0  0  0  0  0  0  0  0  0  0  0
   23.7007  -18.9710  -13.0752 O   0  0  0  0  0  0  0  0  0  0  0  0
   19.3477  -20.3225  -15.5174 N   0  0  0  0  0  0  0  0  0  0  0  0
   20.1060  -21.4937  -15.7276 C   0  0  0  0  0  0  0  0  0  0  0  0
   19.7461  -22.3190  -16.5783 O   0  0  0  0  0  0  0  0  0  0  0  0
   21.3107  -21.7014  -14.9238 C   0  0  0  0  0  0  0  0  0  0  0  0
   21.5744  -20.6533  -13.8689 C   0  0  2  0  0  0  0  0  0  0  0  0
   22.8116  -21.1029  -13.1988 N   0  0  0  0  0  0  0  0  0  0  0  0
   20.4513  -20.6941  -12.8910 C   0  0  0  0  0  0  0  0  0  0  0  0
   19.4055  -19.8291  -12.8144 O   0  0  0  0  0  0  0  0  0  0  0  0
   20.4796  -21.6437  -12.0361 O   0  0  0  0  0  0  0  0  0  0  0  0
  2  1  1  6
  3  2  1  0
  4  5  2  0
  4  2  1  0
  7  6  1  1
  7  8  1  0
  7  9  1  0
 10  9  1  1
 10 11  1  0
 10 12  1  0
 11  4  1  0
 12 19  1  0
 12 13  2  0
 15 14  1  0
 16 15  2  0
 17 15  1  0
 18 17  1  6
 19 18  1  0
 20 21  1  0
 20 18  1  0
 22 20  2  0
M  END
$$$$
