ALN.pdb
     RDKit          3D

 22 21  0  0  1  0  0  0  0  0999 V2000
   23.3709  -19.5662  -12.4294 C   0  0  0  0  0  0  0  0  0  0  0  0
   24.8786  -19.5074  -12.3376 C   0  0  2  0  0  0  0  0  0  0  0  0
   25.4553  -19.8386  -13.6086 N   0  0  0  0  0  0  0  0  0  0  0  0
   25.2941  -20.4878  -11.2870 C   0  0  0  0  0  0  0  0  0  0  0  0
   25.2522  -21.7108  -11.5642 O   0  0  0  0  0  0  0  0  0  0  0  0
   27.0948  -19.5795   -5.8036 C   0  0  0  0  0  0  0  0  0  0  0  0
   26.5696  -19.4012   -7.2335 C   0  0  1  0  0  0  0  0  0  0  0  0
   26.9780  -18.0360   -7.6777 C   0  0  0  0  0  0  0  0  0  0  0  0
   27.1398  -20.5135   -8.0398 C   0  0  0  0  0  0  0  0  0  0  0  0
   26.1900  -21.0734   -9.0748 C   0  0  2  0  0  0  0  0  0  0  0  0
   25.7287  -20.0992  -10.0051 N   0  0  0  0  0  0  0  0  0  0  0  0
   25.0372  -21.6360   -8.2939 C   0  0  0  0  0  0  0  0  0  0  0  0
   25.2910  -22.4384   -7.3628 O   0  0  0  0  0  0  0  0  0  0  0  0
   19.5435  -20.8026   -6.7641 N   0  0  0  0  0  0  0  0  0  0  0  0
   20.8265  -21.0124   -6.2159 C   0  0  0  0  0  0  0  0  0  0  0  0
   20.9424  -21.4484   -5.0623 O   0  0  0  0  0  0  0  0  0  0  0  0
   21.9977  -20.7047   -7.0372 C   0  0  0  0  0  0  0  0  0  0  0  0
   22.5630  -21.8658   -7.8201 C   0  0  2  0  0  0  0  0  0  0  0  0
   23.6927  -21.2891   -8.5773 N   0  0  0  0  0  0  0  0  0  0  0  0
   21.5195  -22.3232   -8.7800 C   0  0  0  0  0  0  0  0  0  0  0  0
   20.4891  -23.1710   -8.5207 O   0  0  0  0  0  0  0  0  0  0  0  0
   21.6078  -21.8683   -9.9711 O   0  0  0  0  0  0  0  0  0  0  0  0
  2  1  1  6
  3  2  1  0
  4  5  2  0
  4  2  1  0
  7  6  1  1
  7  8  1  0
  7  9  1  0
 10  9  1  1
 10 11  1  0
 10 12  1  0
 11  4  1  0
 12 19  1  0
 12 13  2  0
 15 14  1  0
 16 15  2  0
 17 15  1  0
 18 17  1  1
 19 18  1  0
 20 21  1  0
 20 18  1  0
 22 20  2  0
M  END
$$$$
