ALN.pdb
     RDKit          3D

 22 21  0  0  1  0  0  0  0  0999 V2000
   28.9412  -21.1520  -15.5444 C   0  0  0  0  0  0  0  0  0  0  0  0
   27.6653  -20.3695  -15.3332 C   0  0  2  0  0  0  0  0  0  0  0  0
   27.9768  -18.9917  -15.0837 N   0  0  0  0  0  0  0  0  0  0  0  0
   26.9618  -20.9818  -14.1637 C   0  0  0  0  0  0  0  0  0  0  0  0
   26.5540  -22.1639  -14.2666 O   0  0  0  0  0  0  0  0  0  0  0  0
   28.2410  -20.2619   -8.9408 C   0  0  0  0  0  0  0  0  0  0  0  0
   27.9032  -20.7552  -10.3532 C   0  0  1  0  0  0  0  0  0  0  0  0
   28.3584  -22.1743  -10.4366 C   0  0  0  0  0  0  0  0  0  0  0  0
   26.4399  -20.5603  -10.5351 C   0  0  0  0  0  0  0  0  0  0  0  0
   25.9453  -20.8764  -11.9288 C   0  0  2  0  0  0  0  0  0  0  0  0
   26.7384  -20.2917  -12.9567 N   0  0  0  0  0  0  0  0  0  0  0  0
   24.5429  -20.3418  -11.9841 C   0  0  0  0  0  0  0  0  0  0  0  0
   24.3710  -19.1149  -11.7833 O   0  0  0  0  0  0  0  0  0  0  0  0
   21.1507  -19.5735  -16.0969 N   0  0  0  0  0  0  0  0  0  0  0  0
   21.2751  -19.3806  -14.7048 C   0  0  0  0  0  0  0  0  0  0  0  0
   20.4165  -18.7320  -14.0912 O   0  0  0  0  0  0  0  0  0  0  0  0
   22.4297  -19.9601  -14.0181 C   0  0  0  0  0  0  0  0  0  0  0  0
   22.1310  -20.6213  -12.6936 C   0  0  2  0  0  0  0  0  0  0  0  0
   23.4279  -21.1742  -12.2528 N   0  0  0  0  0  0  0  0  0  0  0  0
   21.1854  -21.7447  -12.9445 C   0  0  0  0  0  0  0  0  0  0  0  0
   19.8411  -21.7390  -12.7426 O   0  0  0  0  0  0  0  0  0  0  0  0
   21.6973  -22.8251  -13.3963 O   0  0  0  0  0  0  0  0  0  0  0  0
  2  1  1  1
  3  2  1  0
  4  5  2  0
  4  2  1  0
  7  6  1  1
  7  8  1  0
  7  9  1  0
 10  9  1  1
 10 11  1  0
 10 12  1  0
 11  4  1  0
 12 19  1  0
 12 13  2  0
 15 14  1  0
 16 15  2  0
 17 15  1  0
 18 17  1  6
 19 18  1  0
 20 21  1  0
 20 18  1  0
 22 20  2  0
M  END
$$$$
