ALN.pdb
     RDKit          3D

 22 21  0  0  1  0  0  0  0  0999 V2000
   21.7379  -10.5869  -21.1799 C   0  0  0  0  0  0  0  0  0  0  0  0
   23.0286  -11.0824  -20.5688 C   0  0  2  0  0  0  0  0  0  0  0  0
   23.0483  -12.5167  -20.5733 N   0  0  0  0  0  0  0  0  0  0  0  0
   23.0881  -10.5485  -19.1728 C   0  0  0  0  0  0  0  0  0  0  0  0
   22.1193  -10.7732  -18.4077 O   0  0  0  0  0  0  0  0  0  0  0  0
   27.6214  -10.4007  -16.0144 C   0  0  0  0  0  0  0  0  0  0  0  0
   26.1740  -10.6419  -16.4606 C   0  0  1  0  0  0  0  0  0  0  0  0
   25.5068  -11.4109  -15.3690 C   0  0  0  0  0  0  0  0  0  0  0  0
   25.5816   -9.3044  -16.7301 C   0  0  0  0  0  0  0  0  0  0  0  0
   24.1949   -9.3551  -17.3315 C   0  0  2  0  0  0  0  0  0  0  0  0
   24.1802   -9.8073  -18.6816 N   0  0  0  0  0  0  0  0  0  0  0  0
   23.6727   -7.9497  -17.2464 C   0  0  0  0  0  0  0  0  0  0  0  0
   24.1469   -7.0954  -18.0341 O   0  0  0  0  0  0  0  0  0  0  0  0
   20.4320   -3.9683  -16.2677 N   0  0  0  0  0  0  0  0  0  0  0  0
   19.8504   -5.1866  -15.8576 C   0  0  0  0  0  0  0  0  0  0  0  0
   18.6874   -5.2041  -15.4314 O   0  0  0  0  0  0  0  0  0  0  0  0
   20.6487   -6.4092  -15.9490 C   0  0  0  0  0  0  0  0  0  0  0  0
   22.1051   -6.2077  -16.2939 C   0  0  2  0  0  0  0  0  0  0  0  0
   22.6747   -7.5705  -16.3144 N   0  0  0  0  0  0  0  0  0  0  0  0
   22.7360   -5.4354  -15.1871 C   0  0  0  0  0  0  0  0  0  0  0  0
   22.9474   -4.0932  -15.1472 O   0  0  0  0  0  0  0  0  0  0  0  0
   23.1174   -6.1109  -14.1715 O   0  0  0  0  0  0  0  0  0  0  0  0
  2  1  1  1
  3  2  1  0
  4  5  2  0
  4  2  1  0
  7  6  1  1
  7  8  1  0
  7  9  1  0
 10  9  1  6
 10 11  1  0
 10 12  1  0
 11  4  1  0
 12 19  1  0
 12 13  2  0
 15 14  1  0
 16 15  2  0
 17 15  1  0
 18 17  1  1
 19 18  1  0
 20 21  1  0
 20 18  1  0
 22 20  2  0
M  END
$$$$
