ALN.pdb
     RDKit          3D

 22 21  0  0  1  0  0  0  0  0999 V2000
   21.1837  -13.5921  -19.2315 C   0  0  0  0  0  0  0  0  0  0  0  0
   21.2847  -12.0856  -19.1602 C   0  0  2  0  0  0  0  0  0  0  0  0
   21.7981  -11.5746  -20.3984 N   0  0  0  0  0  0  0  0  0  0  0  0
   22.2001  -11.7591  -18.0232 C   0  0  0  0  0  0  0  0  0  0  0  0
   21.8539  -12.0948  -16.8649 O   0  0  0  0  0  0  0  0  0  0  0  0
   26.7060  -11.8262  -15.4313 C   0  0  0  0  0  0  0  0  0  0  0  0
   26.6429  -10.5487  -16.2776 C   0  0  1  0  0  0  0  0  0  0  0  0
   28.0470  -10.2073  -16.6516 C   0  0  0  0  0  0  0  0  0  0  0  0
   25.7473  -10.8424  -17.4283 C   0  0  0  0  0  0  0  0  0  0  0  0
   24.2760  -10.8436  -17.0786 C   0  0  2  0  0  0  0  0  0  0  0  0
   23.4292  -11.0937  -18.1957 N   0  0  0  0  0  0  0  0  0  0  0  0
   24.0009   -9.4810  -16.5103 C   0  0  0  0  0  0  0  0  0  0  0  0
   24.5287   -9.1827  -15.4113 O   0  0  0  0  0  0  0  0  0  0  0  0
   24.2863   -4.3802  -18.7414 N   0  0  0  0  0  0  0  0  0  0  0  0
   24.1574   -5.3513  -17.7260 C   0  0  0  0  0  0  0  0  0  0  0  0
   25.0063   -5.4222  -16.8267 O   0  0  0  0  0  0  0  0  0  0  0  0
   23.0096   -6.2576  -17.7657 C   0  0  0  0  0  0  0  0  0  0  0  0
   22.8940   -7.2082  -16.5979 C   0  0  2  0  0  0  0  0  0  0  0  0
   23.1743   -8.5397  -17.1728 N   0  0  0  0  0  0  0  0  0  0  0  0
   21.4843   -7.1749  -16.1171 C   0  0  0  0  0  0  0  0  0  0  0  0
   20.9829   -6.4049  -15.1154 O   0  0  0  0  0  0  0  0  0  0  0  0
   20.6650   -7.9548  -16.7120 O   0  0  0  0  0  0  0  0  0  0  0  0
  2  1  1  6
  3  2  1  0
  4  5  2  0
  4  2  1  0
  7  6  1  1
  7  8  1  0
  7  9  1  0
 10  9  1  6
 10 11  1  0
 10 12  1  0
 11  4  1  0
 12 19  1  0
 12 13  2  0
 15 14  1  0
 16 15  2  0
 17 15  1  0
 18 17  1  6
 19 18  1  0
 20 21  1  0
 20 18  1  0
 22 20  2  0
M  END
$$$$
