ALN.pdb
     RDKit          3D

 22 21  0  0  1  0  0  0  0  0999 V2000
   12.7889  -10.6126  -12.1269 C   0  0  0  0  0  0  0  0  0  0  0  0
   14.2961  -10.6812  -12.2207 C   0  0  2  0  0  0  0  0  0  0  0  0
   14.8002  -11.6141  -11.2545 N   0  0  0  0  0  0  0  0  0  0  0  0
   14.8165   -9.3034  -11.9599 C   0  0  0  0  0  0  0  0  0  0  0  0
   14.6388   -8.4240  -12.8371 O   0  0  0  0  0  0  0  0  0  0  0  0
   14.8155   -6.4453   -7.1513 C   0  0  0  0  0  0  0  0  0  0  0  0
   14.6234   -6.8827   -8.6088 C   0  0  1  0  0  0  0  0  0  0  0  0
   13.9063   -5.7729   -9.3030 C   0  0  0  0  0  0  0  0  0  0  0  0
   15.9776   -7.1804   -9.1474 C   0  0  0  0  0  0  0  0  0  0  0  0
   15.9811   -7.6260  -10.5926 C   0  0  2  0  0  0  0  0  0  0  0  0
   15.4947   -8.9515  -10.7770 N   0  0  0  0  0  0  0  0  0  0  0  0
   17.4128   -7.5292  -11.0353 C   0  0  0  0  0  0  0  0  0  0  0  0
   18.2451   -8.3119  -10.5158 O   0  0  0  0  0  0  0  0  0  0  0  0
   20.5808   -8.4732  -15.3983 N   0  0  0  0  0  0  0  0  0  0  0  0
   20.5668   -8.1214  -14.0321 C   0  0  0  0  0  0  0  0  0  0  0  0
   21.6312   -8.0384  -13.4039 O   0  0  0  0  0  0  0  0  0  0  0  0
   19.2785   -7.8617  -13.3891 C   0  0  0  0  0  0  0  0  0  0  0  0
   19.2132   -6.6056  -12.5533 C   0  0  2  0  0  0  0  0  0  0  0  0
   17.8402   -6.5920  -12.0086 N   0  0  0  0  0  0  0  0  0  0  0  0
   19.3848   -5.4391  -13.4640 C   0  0  0  0  0  0  0  0  0  0  0  0
   18.3982   -4.6885  -14.0216 O   0  0  0  0  0  0  0  0  0  0  0  0
   20.5880   -5.1152  -13.7481 O   0  0  0  0  0  0  0  0  0  0  0  0
  2  1  1  1
  3  2  1  0
  4  5  2  0
  4  2  1  0
  7  6  1  1
  7  8  1  0
  7  9  1  0
 10  9  1  1
 10 11  1  0
 10 12  1  0
 11  4  1  0
 12 19  1  0
 12 13  2  0
 15 14  1  0
 16 15  2  0
 17 15  1  0
 18 17  1  6
 19 18  1  0
 20 21  1  0
 20 18  1  0
 22 20  2  0
M  END
$$$$
