QFG.pdb
     RDKit          3D

 25 25  0  0  1  0  0  0  0  0999 V2000
    8.7203  -12.2053   18.5073 N   0  0  0  0  0  0  0  0  0  0  0  0
    8.1225  -13.3832   18.0016 C   0  0  0  0  0  0  0  0  0  0  0  0
    7.8722  -13.4351   16.7850 O   0  0  0  0  0  0  0  0  0  0  0  0
    7.8141  -14.4977   18.8989 C   0  0  0  0  0  0  0  0  0  0  0  0
    8.1339  -14.2465   20.3454 C   0  0  0  0  0  0  0  0  0  0  0  0
    8.1433  -15.4586   21.2065 C   0  0  2  0  0  0  0  0  0  0  0  0
    6.7566  -15.9011   21.3585 N   0  0  0  0  0  0  0  0  0  0  0  0
    8.6448  -15.1878   22.5882 C   0  0  0  0  0  0  0  0  0  0  0  0
    9.6655  -14.4694   22.7095 O   0  0  0  0  0  0  0  0  0  0  0  0
    8.0209  -15.7035   23.7476 N   0  0  0  0  0  0  0  0  0  0  0  0
    8.6448  -15.7487   25.0249 C   0  0  1  0  0  0  0  0  0  0  0  0
    7.7413  -15.3848   26.1720 C   0  0  0  0  0  0  0  0  0  0  0  0
    7.2920  -13.9758   26.1228 C   0  0  0  0  0  0  0  0  0  0  0  0
    8.1462  -13.0056   26.5994 C   0  0  0  0  0  0  0  0  0  0  0  0
    7.7877  -11.6549   26.5838 C   0  0  0  0  0  0  0  0  0  0  0  0
    6.5761  -11.2807   26.0915 C   0  0  0  0  0  0  0  0  0  0  0  0
    5.7090  -12.2214   25.6124 C   0  0  0  0  0  0  0  0  0  0  0  0
    6.0752  -13.5549   25.6331 C   0  0  0  0  0  0  0  0  0  0  0  0
    9.2543  -17.0764   25.3409 C   0  0  0  0  0  0  0  0  0  0  0  0
    8.4832  -18.0053   25.6175 O   0  0  0  0  0  0  0  0  0  0  0  0
   10.6553  -17.2998   25.3340 N   0  0  0  0  0  0  0  0  0  0  0  0
   11.4029  -17.2651   26.5690 C   0  0  0  0  0  0  0  0  0  0  0  0
   11.2280  -18.5533   27.2674 C   0  0  0  0  0  0  0  0  0  0  0  0
   10.1672  -18.7741   27.8806 O   0  0  0  0  0  0  0  0  0  0  0  0
   12.2343  -19.4948   27.2345 O   0  0  0  0  0  0  0  0  0  0  0  0
  1  2  1  0
  2  3  2  0
  4  2  1  0
  5  6  1  0
  5  4  1  0
  6  8  1  0
  6  7  1  1
  8  9  2  0
  8 10  1  0
 10 11  1  0
 11 12  1  1
 12 13  1  0
 13 18  2  0
 14 15  2  0
 14 13  1  0
 15 16  1  0
 16 17  2  0
 18 17  1  0
 19 11  1  0
 19 20  2  0
 21 19  1  0
 22 21  1  0
 22 23  1  0
 23 24  2  0
 23 25  1  0
M  END
$$$$
