QFG.pdb
     RDKit          3D

 25 25  0  0  1  0  0  0  0  0999 V2000
    6.0673  -19.3734   20.9500 N   0  0  0  0  0  0  0  0  0  0  0  0
    6.8552  -18.5845   20.0797 C   0  0  0  0  0  0  0  0  0  0  0  0
    7.7669  -19.1454   19.4476 O   0  0  0  0  0  0  0  0  0  0  0  0
    6.5909  -17.1517   19.9404 C   0  0  0  0  0  0  0  0  0  0  0  0
    7.6966  -16.2588   20.4283 C   0  0  0  0  0  0  0  0  0  0  0  0
    7.2534  -15.1030   21.2522 C   0  0  2  0  0  0  0  0  0  0  0  0
    7.5486  -13.8850   20.4964 N   0  0  0  0  0  0  0  0  0  0  0  0
    8.0040  -14.9832   22.5392 C   0  0  0  0  0  0  0  0  0  0  0  0
    9.0833  -14.3447   22.5294 O   0  0  0  0  0  0  0  0  0  0  0  0
    7.5499  -15.5543   23.7503 N   0  0  0  0  0  0  0  0  0  0  0  0
    8.2529  -15.4525   24.9825 C   0  0  1  0  0  0  0  0  0  0  0  0
    7.3868  -15.1211   26.1676 C   0  0  0  0  0  0  0  0  0  0  0  0
    7.0899  -13.6754   26.2739 C   0  0  0  0  0  0  0  0  0  0  0  0
    8.1461  -12.8070   26.4430 C   0  0  0  0  0  0  0  0  0  0  0  0
    7.9397  -11.4291   26.5508 C   0  0  0  0  0  0  0  0  0  0  0  0
    6.6775  -10.9257   26.4888 C   0  0  0  0  0  0  0  0  0  0  0  0
    5.6114  -11.7633   26.3216 C   0  0  0  0  0  0  0  0  0  0  0  0
    5.8284  -13.1251   26.2162 C   0  0  0  0  0  0  0  0  0  0  0  0
    9.0282  -16.6832   25.3268 C   0  0  0  0  0  0  0  0  0  0  0  0
    9.3704  -16.8283   26.5082 O   0  0  0  0  0  0  0  0  0  0  0  0
    9.3757  -17.6665   24.3650 N   0  0  0  0  0  0  0  0  0  0  0  0
   10.7093  -17.7030   23.8122 C   0  0  0  0  0  0  0  0  0  0  0  0
   11.5910  -18.4317   24.7447 C   0  0  0  0  0  0  0  0  0  0  0  0
   11.6236  -18.0925   25.9422 O   0  0  0  0  0  0  0  0  0  0  0  0
   12.3656  -19.4749   24.2845 O   0  0  0  0  0  0  0  0  0  0  0  0
  1  2  1  0
  2  3  2  0
  4  2  1  0
  5  6  1  0
  5  4  1  0
  6  8  1  0
  6  7  1  6
  8  9  2  0
  8 10  1  0
 10 11  1  0
 11 12  1  1
 12 13  1  0
 13 18  2  0
 14 15  2  0
 14 13  1  0
 15 16  1  0
 16 17  2  0
 18 17  1  0
 19 11  1  0
 19 20  2  0
 21 19  1  0
 22 21  1  0
 22 23  1  0
 23 24  2  0
 23 25  1  0
M  END
$$$$
