QFG.pdb
     RDKit          3D

 25 25  0  0  1  0  0  0  0  0999 V2000
    7.8935  -12.8336   17.1171 N   0  0  0  0  0  0  0  0  0  0  0  0
    8.0892  -14.1717   16.7026 C   0  0  0  0  0  0  0  0  0  0  0  0
    7.6324  -14.5137   15.5982 O   0  0  0  0  0  0  0  0  0  0  0  0
    8.8100  -15.1122   17.5618 C   0  0  0  0  0  0  0  0  0  0  0  0
    9.2764  -14.5375   18.8696 C   0  0  0  0  0  0  0  0  0  0  0  0
    9.3774  -15.5154   19.9851 C   0  0  2  0  0  0  0  0  0  0  0  0
    8.1916  -16.3713   19.9287 N   0  0  0  0  0  0  0  0  0  0  0  0
    9.3558  -14.8671   21.3318 C   0  0  0  0  0  0  0  0  0  0  0  0
   10.2662  -14.0478   21.6010 O   0  0  0  0  0  0  0  0  0  0  0  0
    8.3619  -15.1387   22.3001 N   0  0  0  0  0  0  0  0  0  0  0  0
    8.3812  -14.6089   23.6199 C   0  0  1  0  0  0  0  0  0  0  0  0
    7.0427  -14.1376   24.1209 C   0  0  0  0  0  0  0  0  0  0  0  0
    7.1466  -13.3189   25.3491 C   0  0  0  0  0  0  0  0  0  0  0  0
    6.2663  -13.5769   26.3770 C   0  0  0  0  0  0  0  0  0  0  0  0
    6.3070  -12.8431   27.5657 C   0  0  0  0  0  0  0  0  0  0  0  0
    7.2281  -11.8543   27.7209 C   0  0  0  0  0  0  0  0  0  0  0  0
    8.1134  -11.5767   26.7182 C   0  0  0  0  0  0  0  0  0  0  0  0
    8.0633  -12.3098   25.5466 C   0  0  0  0  0  0  0  0  0  0  0  0
    8.9268  -15.5619   24.6340 C   0  0  0  0  0  0  0  0  0  0  0  0
    8.9217  -15.1977   25.8177 O   0  0  0  0  0  0  0  0  0  0  0  0
    9.4379  -16.8399   24.2904 N   0  0  0  0  0  0  0  0  0  0  0  0
    9.8855  -17.7452   25.3227 C   0  0  0  0  0  0  0  0  0  0  0  0
   11.3527  -17.8784   25.2351 C   0  0  0  0  0  0  0  0  0  0  0  0
   11.9730  -17.2246   24.3761 O   0  0  0  0  0  0  0  0  0  0  0  0
   12.0190  -18.7201   26.0998 O   0  0  0  0  0  0  0  0  0  0  0  0
  1  2  1  0
  2  3  2  0
  4  2  1  0
  5  6  1  0
  5  4  1  0
  6  8  1  0
  6  7  1  1
  8  9  2  0
  8 10  1  0
 10 11  1  0
 11 12  1  1
 12 13  1  0
 13 18  2  0
 14 15  2  0
 14 13  1  0
 15 16  1  0
 16 17  2  0
 18 17  1  0
 19 11  1  0
 19 20  2  0
 21 19  1  0
 22 21  1  0
 22 23  1  0
 23 24  2  0
 23 25  1  0
M  END
$$$$
