QFG.pdb
     RDKit          3D

 25 25  0  0  1  0  0  0  0  0999 V2000
    8.4990  -12.2042   18.9524 N   0  0  0  0  0  0  0  0  0  0  0  0
    8.3585  -13.4369   18.2732 C   0  0  0  0  0  0  0  0  0  0  0  0
    8.1255  -13.4077   17.0523 O   0  0  0  0  0  0  0  0  0  0  0  0
    8.4863  -14.6997   19.0022 C   0  0  0  0  0  0  0  0  0  0  0  0
    8.7031  -14.5516   20.4817 C   0  0  0  0  0  0  0  0  0  0  0  0
    8.8300  -15.8306   21.2292 C   0  0  2  0  0  0  0  0  0  0  0  0
    7.5978  -16.5903   21.0136 N   0  0  0  0  0  0  0  0  0  0  0  0
    8.9410  -15.6333   22.7066 C   0  0  0  0  0  0  0  0  0  0  0  0
    9.9032  -14.9526   23.1350 O   0  0  0  0  0  0  0  0  0  0  0  0
    8.0156  -16.1774   23.6268 N   0  0  0  0  0  0  0  0  0  0  0  0
    8.1924  -16.1413   25.0376 C   0  0  1  0  0  0  0  0  0  0  0  0
    6.9835  -15.6778   25.8046 C   0  0  0  0  0  0  0  0  0  0  0  0
    6.9513  -14.2102   25.9911 C   0  0  0  0  0  0  0  0  0  0  0  0
    6.2848  -13.4517   25.0537 C   0  0  0  0  0  0  0  0  0  0  0  0
    6.2139  -12.0606   25.1664 C   0  0  0  0  0  0  0  0  0  0  0  0
    6.8101  -11.4342   26.2164 C   0  0  0  0  0  0  0  0  0  0  0  0
    7.4778  -12.1612   27.1608 C   0  0  0  0  0  0  0  0  0  0  0  0
    7.5410  -13.5373   27.0384 C   0  0  0  0  0  0  0  0  0  0  0  0
    8.6120  -17.4538   25.6169 C   0  0  0  0  0  0  0  0  0  0  0  0
    7.9868  -18.4606   25.2571 O   0  0  0  0  0  0  0  0  0  0  0  0
    9.6787  -17.5786   26.5438 N   0  0  0  0  0  0  0  0  0  0  0  0
   10.0976  -18.8837   26.9983 C   0  0  0  0  0  0  0  0  0  0  0  0
   11.1925  -18.7188   27.9740 C   0  0  0  0  0  0  0  0  0  0  0  0
   11.6249  -17.5766   28.2164 O   0  0  0  0  0  0  0  0  0  0  0  0
   11.7233  -19.8237   28.6044 O   0  0  0  0  0  0  0  0  0  0  0  0
  1  2  1  0
  2  3  2  0
  4  2  1  0
  5  6  1  0
  5  4  1  0
  6  8  1  0
  6  7  1  1
  8  9  2  0
  8 10  1  0
 10 11  1  0
 11 12  1  1
 12 13  1  0
 13 18  2  0
 14 15  2  0
 14 13  1  0
 15 16  1  0
 16 17  2  0
 18 17  1  0
 19 11  1  0
 19 20  2  0
 21 19  1  0
 22 21  1  0
 22 23  1  0
 23 24  2  0
 23 25  1  0
M  END
$$$$
