QFG.pdb
     RDKit          3D

 25 25  0  0  1  0  0  0  0  0999 V2000
    8.7590  -12.6539   17.3195 N   0  0  0  0  0  0  0  0  0  0  0  0
    8.5611  -13.9971   16.9228 C   0  0  0  0  0  0  0  0  0  0  0  0
    8.1176  -14.2095   15.7810 O   0  0  0  0  0  0  0  0  0  0  0  0
    8.8740  -15.0917   17.8427 C   0  0  0  0  0  0  0  0  0  0  0  0
    9.3230  -14.6553   19.2087 C   0  0  0  0  0  0  0  0  0  0  0  0
    9.2464  -15.7039   20.2600 C   0  0  2  0  0  0  0  0  0  0  0  0
    7.9636  -16.3909   20.1036 N   0  0  0  0  0  0  0  0  0  0  0  0
    9.2482  -15.1416   21.6449 C   0  0  0  0  0  0  0  0  0  0  0  0
   10.2618  -14.5028   22.0154 O   0  0  0  0  0  0  0  0  0  0  0  0
    8.1657  -15.3001   22.5406 N   0  0  0  0  0  0  0  0  0  0  0  0
    8.0881  -14.6548   23.8057 C   0  0  1  0  0  0  0  0  0  0  0  0
    6.7854  -13.9472   24.0645 C   0  0  0  0  0  0  0  0  0  0  0  0
    6.8009  -13.1577   25.3159 C   0  0  0  0  0  0  0  0  0  0  0  0
    7.7040  -12.1223   25.4184 C   0  0  0  0  0  0  0  0  0  0  0  0
    7.7741  -11.3350   26.5709 C   0  0  0  0  0  0  0  0  0  0  0  0
    6.9406  -11.5869   27.6159 C   0  0  0  0  0  0  0  0  0  0  0  0
    6.0352  -12.6072   27.5419 C   0  0  0  0  0  0  0  0  0  0  0  0
    5.9753  -13.3794   26.3961 C   0  0  0  0  0  0  0  0  0  0  0  0
    8.3321  -15.5756   24.9576 C   0  0  0  0  0  0  0  0  0  0  0  0
    8.1676  -15.1180   26.0967 O   0  0  0  0  0  0  0  0  0  0  0  0
    8.7366  -16.9250   24.7901 N   0  0  0  0  0  0  0  0  0  0  0  0
    8.8760  -17.7897   25.9383 C   0  0  0  0  0  0  0  0  0  0  0  0
   10.3049  -17.8783   26.2964 C   0  0  0  0  0  0  0  0  0  0  0  0
   11.1431  -17.2614   25.6129 O   0  0  0  0  0  0  0  0  0  0  0  0
   10.6964  -18.6381   27.3778 O   0  0  0  0  0  0  0  0  0  0  0  0
  1  2  1  0
  2  3  2  0
  4  2  1  0
  5  6  1  0
  5  4  1  0
  6  8  1  0
  6  7  1  6
  8  9  2  0
  8 10  1  0
 10 11  1  0
 11 12  1  1
 12 13  1  0
 13 18  2  0
 14 15  2  0
 14 13  1  0
 15 16  1  0
 16 17  2  0
 18 17  1  0
 19 11  1  0
 19 20  2  0
 21 19  1  0
 22 21  1  0
 22 23  1  0
 23 24  2  0
 23 25  1  0
M  END
$$$$
