QFG.pdb
     RDKit          3D

 25 25  0  0  1  0  0  0  0  0999 V2000
    6.2818  -21.4446   26.0547 N   0  0  0  0  0  0  0  0  0  0  0  0
    6.1580  -22.2899   24.9274 C   0  0  0  0  0  0  0  0  0  0  0  0
    5.6570  -23.4154   25.0937 O   0  0  0  0  0  0  0  0  0  0  0  0
    6.6123  -21.8365   23.6119 C   0  0  0  0  0  0  0  0  0  0  0  0
    7.0685  -20.4056   23.5638 C   0  0  0  0  0  0  0  0  0  0  0  0
    5.9754  -19.3988   23.5185 C   0  0  2  0  0  0  0  0  0  0  0  0
    5.3820  -19.4535   22.1818 N   0  0  0  0  0  0  0  0  0  0  0  0
    6.4657  -17.9980   23.6962 C   0  0  0  0  0  0  0  0  0  0  0  0
    6.9394  -17.4127   22.6934 O   0  0  0  0  0  0  0  0  0  0  0  0
    6.4165  -17.3173   24.9345 N   0  0  0  0  0  0  0  0  0  0  0  0
    6.9682  -16.0236   25.1456 C   0  0  1  0  0  0  0  0  0  0  0  0
    6.3313  -15.2510   26.2690 C   0  0  0  0  0  0  0  0  0  0  0  0
    6.8093  -13.8528   26.3460 C   0  0  0  0  0  0  0  0  0  0  0  0
    6.2944  -12.9411   25.4505 C   0  0  0  0  0  0  0  0  0  0  0  0
    6.7002  -11.6038   25.4655 C   0  0  0  0  0  0  0  0  0  0  0  0
    7.6194  -11.1845   26.3763 C   0  0  0  0  0  0  0  0  0  0  0  0
    8.1468  -12.0667   27.2762 C   0  0  0  0  0  0  0  0  0  0  0  0
    7.7373  -13.3874   27.2514 C   0  0  0  0  0  0  0  0  0  0  0  0
    8.4419  -16.0404   25.3951 C   0  0  0  0  0  0  0  0  0  0  0  0
    8.8193  -16.1913   26.5651 O   0  0  0  0  0  0  0  0  0  0  0  0
    9.3985  -15.8924   24.3580 N   0  0  0  0  0  0  0  0  0  0  0  0
   10.8059  -15.8175   24.6726 C   0  0  0  0  0  0  0  0  0  0  0  0
   11.5742  -15.7915   23.4129 C   0  0  0  0  0  0  0  0  0  0  0  0
   10.9691  -15.8853   22.3289 O   0  0  0  0  0  0  0  0  0  0  0  0
   12.9463  -15.6642   23.4475 O   0  0  0  0  0  0  0  0  0  0  0  0
  1  2  1  0
  2  3  2  0
  4  2  1  0
  5  6  1  0
  5  4  1  0
  6  8  1  0
  6  7  1  6
  8  9  2  0
  8 10  1  0
 10 11  1  0
 11 12  1  1
 12 13  1  0
 13 18  2  0
 14 15  2  0
 14 13  1  0
 15 16  1  0
 16 17  2  0
 18 17  1  0
 19 11  1  0
 19 20  2  0
 21 19  1  0
 22 21  1  0
 22 23  1  0
 23 24  2  0
 23 25  1  0
M  END
$$$$
