QFG.pdb
     RDKit          3D

 25 25  0  0  1  0  0  0  0  0999 V2000
    8.5424  -12.3546   18.2901 N   0  0  0  0  0  0  0  0  0  0  0  0
    8.0264  -13.5978   17.8556 C   0  0  0  0  0  0  0  0  0  0  0  0
    7.7943  -13.7420   16.6428 O   0  0  0  0  0  0  0  0  0  0  0  0
    7.7786  -14.6711   18.8194 C   0  0  0  0  0  0  0  0  0  0  0  0
    7.9660  -14.2792   20.2578 C   0  0  0  0  0  0  0  0  0  0  0  0
    8.1169  -15.4160   21.2042 C   0  0  2  0  0  0  0  0  0  0  0  0
    6.7730  -15.8678   21.5671 N   0  0  0  0  0  0  0  0  0  0  0  0
    8.7811  -15.0240   22.4845 C   0  0  0  0  0  0  0  0  0  0  0  0
    9.6405  -14.1117   22.4420 O   0  0  0  0  0  0  0  0  0  0  0  0
    8.4817  -15.6341   23.7244 N   0  0  0  0  0  0  0  0  0  0  0  0
    9.0923  -15.2624   24.9540 C   0  0  1  0  0  0  0  0  0  0  0  0
    8.1346  -15.1169   26.1056 C   0  0  0  0  0  0  0  0  0  0  0  0
    7.4202  -13.8211   26.0965 C   0  0  0  0  0  0  0  0  0  0  0  0
    8.1186  -12.6927   26.4666 C   0  0  0  0  0  0  0  0  0  0  0  0
    7.5076  -11.4360   26.4811 C   0  0  0  0  0  0  0  0  0  0  0  0
    6.2004  -11.3135   26.1253 C   0  0  0  0  0  0  0  0  0  0  0  0
    5.4835  -12.4154   25.7538 C   0  0  0  0  0  0  0  0  0  0  0  0
    6.0992  -13.6537   25.7434 C   0  0  0  0  0  0  0  0  0  0  0  0
   10.1723  -16.2004   25.3876 C   0  0  0  0  0  0  0  0  0  0  0  0
   10.5973  -16.0829   26.5450 O   0  0  0  0  0  0  0  0  0  0  0  0
   10.7122  -17.1973   24.5348 N   0  0  0  0  0  0  0  0  0  0  0  0
   11.7420  -18.0871   25.0178 C   0  0  0  0  0  0  0  0  0  0  0  0
   12.1589  -18.9751   23.9154 C   0  0  0  0  0  0  0  0  0  0  0  0
   13.3016  -19.4691   23.9307 O   0  0  0  0  0  0  0  0  0  0  0  0
   11.2847  -19.2483   22.8851 O   0  0  0  0  0  0  0  0  0  0  0  0
  1  2  1  0
  2  3  2  0
  4  2  1  0
  5  6  1  0
  5  4  1  0
  6  8  1  0
  6  7  1  1
  8  9  2  0
  8 10  1  0
 10 11  1  0
 11 12  1  1
 12 13  1  0
 13 18  2  0
 14 15  2  0
 14 13  1  0
 15 16  1  0
 16 17  2  0
 18 17  1  0
 19 11  1  0
 19 20  2  0
 21 19  1  0
 22 21  1  0
 22 23  1  0
 23 24  2  0
 23 25  1  0
M  END
$$$$
