QFG.pdb
     RDKit          3D

 25 25  0  0  1  0  0  0  0  0999 V2000
    8.1734  -12.2092   18.9407 N   0  0  0  0  0  0  0  0  0  0  0  0
    7.9491  -13.4773   18.3557 C   0  0  0  0  0  0  0  0  0  0  0  0
    7.5526  -13.5152   17.1780 O   0  0  0  0  0  0  0  0  0  0  0  0
    8.1816  -14.6980   19.1290 C   0  0  0  0  0  0  0  0  0  0  0  0
    8.4695  -14.4729   20.5865 C   0  0  0  0  0  0  0  0  0  0  0  0
    8.7607  -15.7045   21.3669 C   0  0  2  0  0  0  0  0  0  0  0  0
    7.5183  -16.4728   21.4565 N   0  0  0  0  0  0  0  0  0  0  0  0
    9.1723  -15.4183   22.7750 C   0  0  0  0  0  0  0  0  0  0  0  0
   10.1675  -14.6766   22.9541 O   0  0  0  0  0  0  0  0  0  0  0  0
    8.4918  -15.9445   23.8972 N   0  0  0  0  0  0  0  0  0  0  0  0
    8.9065  -15.7335   25.2412 C   0  0  1  0  0  0  0  0  0  0  0  0
    7.7844  -15.4387   26.1997 C   0  0  0  0  0  0  0  0  0  0  0  0
    7.3463  -14.0262   26.1520 C   0  0  0  0  0  0  0  0  0  0  0  0
    6.0333  -13.7649   25.8266 C   0  0  0  0  0  0  0  0  0  0  0  0
    5.5506  -12.4550   25.7628 C   0  0  0  0  0  0  0  0  0  0  0  0
    6.3836  -11.4120   26.0248 C   0  0  0  0  0  0  0  0  0  0  0  0
    7.6904  -11.6415   26.3501 C   0  0  0  0  0  0  0  0  0  0  0  0
    8.1564  -12.9423   26.4100 C   0  0  0  0  0  0  0  0  0  0  0  0
    9.6885  -16.8747   25.8071 C   0  0  0  0  0  0  0  0  0  0  0  0
    9.9454  -16.8434   27.0183 O   0  0  0  0  0  0  0  0  0  0  0  0
   10.1345  -17.9664   25.0185 N   0  0  0  0  0  0  0  0  0  0  0  0
   10.7775  -19.0989   25.6425 C   0  0  0  0  0  0  0  0  0  0  0  0
   12.2276  -19.0281   25.3777 C   0  0  0  0  0  0  0  0  0  0  0  0
   12.9428  -18.3050   26.0958 O   0  0  0  0  0  0  0  0  0  0  0  0
   12.7738  -19.7589   24.3444 O   0  0  0  0  0  0  0  0  0  0  0  0
  1  2  1  0
  2  3  2  0
  4  2  1  0
  5  6  1  0
  5  4  1  0
  6  8  1  0
  6  7  1  1
  8  9  2  0
  8 10  1  0
 10 11  1  0
 11 12  1  1
 12 13  1  0
 13 18  2  0
 14 15  2  0
 14 13  1  0
 15 16  1  0
 16 17  2  0
 18 17  1  0
 19 11  1  0
 19 20  2  0
 21 19  1  0
 22 21  1  0
 22 23  1  0
 23 24  2  0
 23 25  1  0
M  END
$$$$
