QFG.pdb
     RDKit          3D

 25 25  0  0  1  0  0  0  0  0999 V2000
    8.4654  -19.5770   20.9963 N   0  0  0  0  0  0  0  0  0  0  0  0
    8.6762  -18.6884   19.9162 C   0  0  0  0  0  0  0  0  0  0  0  0
    9.6226  -18.9213   19.1445 O   0  0  0  0  0  0  0  0  0  0  0  0
    7.7965  -17.5338   19.7285 C   0  0  0  0  0  0  0  0  0  0  0  0
    6.7376  -17.3730   20.7824 C   0  0  0  0  0  0  0  0  0  0  0  0
    6.5150  -15.9763   21.2414 C   0  0  2  0  0  0  0  0  0  0  0  0
    6.7305  -15.0959   20.0924 N   0  0  0  0  0  0  0  0  0  0  0  0
    7.4944  -15.5427   22.2840 C   0  0  0  0  0  0  0  0  0  0  0  0
    8.5441  -14.9741   21.8998 O   0  0  0  0  0  0  0  0  0  0  0  0
    7.2853  -15.7463   23.6675 N   0  0  0  0  0  0  0  0  0  0  0  0
    8.2217  -15.3711   24.6701 C   0  0  1  0  0  0  0  0  0  0  0  0
    7.6215  -15.1564   26.0333 C   0  0  0  0  0  0  0  0  0  0  0  0
    7.2667  -13.7424   26.2868 C   0  0  0  0  0  0  0  0  0  0  0  0
    8.2571  -12.7928   26.1626 C   0  0  0  0  0  0  0  0  0  0  0  0
    7.9936  -11.4388   26.3871 C   0  0  0  0  0  0  0  0  0  0  0  0
    6.7403  -11.0407   26.7349 C   0  0  0  0  0  0  0  0  0  0  0  0
    5.7387  -11.9606   26.8654 C   0  0  0  0  0  0  0  0  0  0  0  0
    6.0119  -13.2976   26.6407 C   0  0  0  0  0  0  0  0  0  0  0  0
    9.3460  -16.3437   24.8258 C   0  0  0  0  0  0  0  0  0  0  0  0
    9.2122  -17.2374   25.6728 O   0  0  0  0  0  0  0  0  0  0  0  0
   10.5331  -16.2761   24.0519 N   0  0  0  0  0  0  0  0  0  0  0  0
   11.8038  -16.6335   24.6376 C   0  0  0  0  0  0  0  0  0  0  0  0
   12.8578  -16.4824   23.6158 C   0  0  0  0  0  0  0  0  0  0  0  0
   12.5604  -16.0215   22.4980 O   0  0  0  0  0  0  0  0  0  0  0  0
   14.1541  -16.8504   23.9061 O   0  0  0  0  0  0  0  0  0  0  0  0
  1  2  1  0
  2  3  2  0
  4  2  1  0
  5  6  1  0
  5  4  1  0
  6  8  1  0
  6  7  1  6
  8  9  2  0
  8 10  1  0
 10 11  1  0
 11 12  1  1
 12 13  1  0
 13 18  2  0
 14 15  2  0
 14 13  1  0
 15 16  1  0
 16 17  2  0
 18 17  1  0
 19 11  1  0
 19 20  2  0
 21 19  1  0
 22 21  1  0
 22 23  1  0
 23 24  2  0
 23 25  1  0
M  END
$$$$
