LVE.pdb
     RDKit          3D

 25 24  0  0  1  0  0  0  0  0999 V2000
    7.8151  -14.6555   18.2664 C   0  0  0  0  0  0  0  0  0  0  0  0
    7.5443  -13.4563   19.1414 C   0  0  2  0  0  0  0  0  0  0  0  0
    7.9325  -12.1658   18.4022 C   0  0  0  0  0  0  0  0  0  0  0  0
    8.2753  -13.5067   20.4292 C   0  0  0  0  0  0  0  0  0  0  0  0
    7.9026  -14.5772   21.3863 C   0  0  2  0  0  0  0  0  0  0  0  0
    6.5153  -14.8862   21.4298 N   0  0  0  0  0  0  0  0  0  0  0  0
    8.4760  -14.3636   22.7494 C   0  0  0  0  0  0  0  0  0  0  0  0
    9.7199  -14.2472   22.9001 O   0  0  0  0  0  0  0  0  0  0  0  0
    5.9355  -13.7215   26.2064 C   0  0  0  0  0  0  0  0  0  0  0  0
    7.3056  -13.0806   25.9724 C   0  0  1  0  0  0  0  0  0  0  0  0
    7.8430  -12.6585   27.2926 C   0  0  0  0  0  0  0  0  0  0  0  0
    8.1337  -14.0643   25.2275 C   0  0  2  0  0  0  0  0  0  0  0  0
    7.6585  -14.2895   23.8762 N   0  0  0  0  0  0  0  0  0  0  0  0
    8.3845  -15.3264   25.9443 C   0  0  0  0  0  0  0  0  0  0  0  0
    7.4421  -16.1400   26.0538 O   0  0  0  0  0  0  0  0  0  0  0  0
    9.6289  -15.6412   26.5010 N   0  0  0  0  0  0  0  0  0  0  0  0
    9.9608  -17.0500   26.9015 C   0  0  1  0  0  0  0  0  0  0  0  0
   11.1911  -17.3547   26.1335 C   0  0  0  0  0  0  0  0  0  0  0  0
   11.9368  -18.5937   26.3734 C   0  0  0  0  0  0  0  0  0  0  0  0
   13.1726  -18.7682   25.6002 C   0  0  0  0  0  0  0  0  0  0  0  0
   13.1734  -19.0372   24.3630 O   0  0  0  0  0  0  0  0  0  0  0  0
   10.1329  -16.9579   28.3706 C   0  0  0  0  0  0  0  0  0  0  0  0
   10.3628  -15.7149   29.0201 O   0  0  0  0  0  0  0  0  0  0  0  0
   14.4051  -18.6371   26.2232 O   0  0  0  0  0  0  0  0  0  0  0  0
   10.0963  -17.9245   29.1667 O   0  0  0  0  0  0  0  0  0  0  0  0
  2  1  1  6
  3  2  1  0
  4  5  1  0
  4  2  1  0
  5  6  1  1
  7  5  1  0
  8  7  2  0
 10  9  1  1
 10 12  1  0
 11 10  1  0
 12 14  1  0
 12 13  1  6
 13  7  1  0
 14 16  1  0
 15 14  2  0
 16 17  1  0
 17 18  1  6
 17 22  1  0
 18 19  1  0
 19 20  1  0
 20 24  1  0
 21 20  2  0
 22 25  2  0
 22 23  1  0
M  END
$$$$
