LVE.pdb
     RDKit          3D

 25 24  0  0  1  0  0  0  0  0999 V2000
    5.0056  -16.5004   20.2226 C   0  0  0  0  0  0  0  0  0  0  0  0
    6.2350  -17.2856   20.6089 C   0  0  2  0  0  0  0  0  0  0  0  0
    5.8524  -18.7386   20.9327 C   0  0  0  0  0  0  0  0  0  0  0  0
    6.9441  -16.7079   21.7745 C   0  0  0  0  0  0  0  0  0  0  0  0
    7.2657  -15.2603   21.7314 C   0  0  2  0  0  0  0  0  0  0  0  0
    7.9380  -14.8303   20.5544 N   0  0  0  0  0  0  0  0  0  0  0  0
    7.9396  -14.7773   22.9744 C   0  0  0  0  0  0  0  0  0  0  0  0
    9.1951  -14.7928   23.0588 O   0  0  0  0  0  0  0  0  0  0  0  0
    7.5858  -12.7942   27.4763 C   0  0  0  0  0  0  0  0  0  0  0  0
    6.8469  -13.1411   26.1815 C   0  0  1  0  0  0  0  0  0  0  0  0
    6.3867  -11.8693   25.5644 C   0  0  0  0  0  0  0  0  0  0  0  0
    7.7677  -13.9604   25.3515 C   0  0  2  0  0  0  0  0  0  0  0  0
    7.2047  -14.3038   24.0601 N   0  0  0  0  0  0  0  0  0  0  0  0
    8.3366  -15.1332   26.0376 C   0  0  0  0  0  0  0  0  0  0  0  0
    7.6394  -16.1677   26.1137 O   0  0  0  0  0  0  0  0  0  0  0  0
    9.6172  -15.1275   26.6011 N   0  0  0  0  0  0  0  0  0  0  0  0
   10.2402  -16.3943   27.1133 C   0  0  1  0  0  0  0  0  0  0  0  0
   11.4708  -16.5364   26.2998 C   0  0  0  0  0  0  0  0  0  0  0  0
   12.4424  -17.5953   26.5890 C   0  0  0  0  0  0  0  0  0  0  0  0
   13.6263  -17.6450   25.7223 C   0  0  0  0  0  0  0  0  0  0  0  0
   13.7677  -16.8933   24.7133 O   0  0  0  0  0  0  0  0  0  0  0  0
   10.4565  -16.1133   28.5523 C   0  0  0  0  0  0  0  0  0  0  0  0
   10.7360  -17.1505   29.4829 O   0  0  0  0  0  0  0  0  0  0  0  0
   14.6494  -18.5408   25.9961 O   0  0  0  0  0  0  0  0  0  0  0  0
   10.4180  -14.9792   29.0831 O   0  0  0  0  0  0  0  0  0  0  0  0
  2  1  1  1
  3  2  1  0
  4  5  1  0
  4  2  1  0
  5  6  1  6
  7  5  1  0
  8  7  2  0
 10  9  1  1
 10 12  1  0
 11 10  1  0
 12 14  1  0
 12 13  1  6
 13  7  1  0
 14 16  1  0
 15 14  2  0
 16 17  1  0
 17 18  1  6
 17 22  1  0
 18 19  1  0
 19 20  1  0
 20 24  1  0
 21 20  2  0
 22 25  2  0
 22 23  1  0
M  END
$$$$
