LVE.pdb
     RDKit          3D

 25 24  0  0  1  0  0  0  0  0999 V2000
    4.6569  -16.3273   20.6697 C   0  0  0  0  0  0  0  0  0  0  0  0
    5.7144  -17.2942   21.1427 C   0  0  2  0  0  0  0  0  0  0  0  0
    5.0565  -18.5837   21.6594 C   0  0  0  0  0  0  0  0  0  0  0  0
    6.5697  -16.7326   22.2143 C   0  0  0  0  0  0  0  0  0  0  0  0
    7.2040  -15.4151   21.9637 C   0  0  2  0  0  0  0  0  0  0  0  0
    7.8663  -15.2970   20.7109 N   0  0  0  0  0  0  0  0  0  0  0  0
    8.0595  -14.9565   23.0996 C   0  0  0  0  0  0  0  0  0  0  0  0
    9.2871  -15.2328   23.1172 O   0  0  0  0  0  0  0  0  0  0  0  0
    6.2339  -13.2328   26.5438 C   0  0  0  0  0  0  0  0  0  0  0  0
    7.6065  -12.7279   26.0924 C   0  0  1  0  0  0  0  0  0  0  0  0
    8.3341  -12.2473   27.2965 C   0  0  0  0  0  0  0  0  0  0  0  0
    8.2617  -13.8329   25.3456 C   0  0  2  0  0  0  0  0  0  0  0  0
    7.5270  -14.2206   24.1571 N   0  0  0  0  0  0  0  0  0  0  0  0
    8.6369  -14.9952   26.1690 C   0  0  0  0  0  0  0  0  0  0  0  0
    7.7558  -15.8424   26.4299 O   0  0  0  0  0  0  0  0  0  0  0  0
    9.9326  -15.1802   26.6636 N   0  0  0  0  0  0  0  0  0  0  0  0
   10.3040  -16.4327   27.4042 C   0  0  1  0  0  0  0  0  0  0  0  0
   11.6128  -16.8122   26.8215 C   0  0  0  0  0  0  0  0  0  0  0  0
   11.6894  -17.7543   25.7010 C   0  0  0  0  0  0  0  0  0  0  0  0
   12.9166  -17.7083   24.8964 C   0  0  0  0  0  0  0  0  0  0  0  0
   13.5550  -18.7493   24.5622 O   0  0  0  0  0  0  0  0  0  0  0  0
   10.3393  -15.9968   28.8202 C   0  0  0  0  0  0  0  0  0  0  0  0
   10.3878  -16.9319   29.8894 O   0  0  0  0  0  0  0  0  0  0  0  0
   13.4204  -16.4886   24.4686 O   0  0  0  0  0  0  0  0  0  0  0  0
   10.3303  -14.8072   29.2129 O   0  0  0  0  0  0  0  0  0  0  0  0
  2  1  1  1
  3  2  1  0
  4  5  1  0
  4  2  1  0
  5  6  1  6
  7  5  1  0
  8  7  2  0
 10  9  1  1
 10 12  1  0
 11 10  1  0
 12 14  1  0
 12 13  1  6
 13  7  1  0
 14 16  1  0
 15 14  2  0
 16 17  1  0
 17 18  1  6
 17 22  1  0
 18 19  1  0
 19 20  1  0
 20 24  1  0
 21 20  2  0
 22 25  2  0
 22 23  1  0
M  END
$$$$
