LVE.pdb
     RDKit          3D

 25 24  0  0  1  0  0  0  0  0999 V2000
    5.2342  -16.4925   20.6433 C   0  0  0  0  0  0  0  0  0  0  0  0
    6.6916  -16.8837   20.6364 C   0  0  2  0  0  0  0  0  0  0  0  0
    6.8282  -18.4105   20.7489 C   0  0  0  0  0  0  0  0  0  0  0  0
    7.4618  -16.2536   21.7342 C   0  0  0  0  0  0  0  0  0  0  0  0
    7.3566  -14.7817   21.8869 C   0  0  2  0  0  0  0  0  0  0  0  0
    7.6761  -14.0336   20.7205 N   0  0  0  0  0  0  0  0  0  0  0  0
    8.0681  -14.2706   23.0973 C   0  0  0  0  0  0  0  0  0  0  0  0
    9.2907  -13.9792   23.0351 O   0  0  0  0  0  0  0  0  0  0  0  0
    6.9670  -11.6019   25.7950 C   0  0  0  0  0  0  0  0  0  0  0  0
    7.1783  -12.9631   26.4623 C   0  0  1  0  0  0  0  0  0  0  0  0
    5.8399  -13.5449   26.7453 C   0  0  0  0  0  0  0  0  0  0  0  0
    8.0500  -13.7658   25.5656 C   0  0  2  0  0  0  0  0  0  0  0  0
    7.4049  -14.1063   24.3124 N   0  0  0  0  0  0  0  0  0  0  0  0
    8.6767  -14.9369   26.2024 C   0  0  0  0  0  0  0  0  0  0  0  0
    8.0161  -15.9957   26.2698 O   0  0  0  0  0  0  0  0  0  0  0  0
    9.9725  -14.9036   26.7289 N   0  0  0  0  0  0  0  0  0  0  0  0
   10.6153  -16.1460   27.2754 C   0  0  1  0  0  0  0  0  0  0  0  0
   11.9814  -16.1182   26.7014 C   0  0  0  0  0  0  0  0  0  0  0  0
   12.1985  -16.3554   25.2712 C   0  0  0  0  0  0  0  0  0  0  0  0
   13.5877  -16.2759   24.8031 C   0  0  0  0  0  0  0  0  0  0  0  0
   14.5537  -15.9948   25.5717 O   0  0  0  0  0  0  0  0  0  0  0  0
   10.5368  -15.9563   28.7431 C   0  0  0  0  0  0  0  0  0  0  0  0
   10.8028  -17.0181   29.6496 O   0  0  0  0  0  0  0  0  0  0  0  0
   13.8852  -16.5154   23.4695 O   0  0  0  0  0  0  0  0  0  0  0  0
   10.2397  -14.8851   29.3207 O   0  0  0  0  0  0  0  0  0  0  0  0
  2  1  1  1
  3  2  1  0
  4  5  1  0
  4  2  1  0
  5  6  1  6
  7  5  1  0
  8  7  2  0
 10  9  1  6
 10 12  1  0
 11 10  1  0
 12 14  1  0
 12 13  1  6
 13  7  1  0
 14 16  1  0
 15 14  2  0
 16 17  1  0
 17 18  1  6
 17 22  1  0
 18 19  1  0
 19 20  1  0
 20 24  1  0
 21 20  2  0
 22 25  2  0
 22 23  1  0
M  END
$$$$
