LVE.pdb
     RDKit          3D

 25 24  0  0  1  0  0  0  0  0999 V2000
    8.5354  -12.3853   18.5594 C   0  0  0  0  0  0  0  0  0  0  0  0
    7.8118  -13.4055   19.4037 C   0  0  2  0  0  0  0  0  0  0  0  0
    6.2996  -13.3326   19.1381 C   0  0  0  0  0  0  0  0  0  0  0  0
    8.0506  -13.2250   20.8548 C   0  0  0  0  0  0  0  0  0  0  0  0
    7.8835  -14.4121   21.7287 C   0  0  2  0  0  0  0  0  0  0  0  0
    6.5562  -14.9163   21.8078 N   0  0  0  0  0  0  0  0  0  0  0  0
    8.4999  -14.2320   23.0779 C   0  0  0  0  0  0  0  0  0  0  0  0
    9.7443  -14.0818   23.1886 O   0  0  0  0  0  0  0  0  0  0  0  0
    7.1095  -11.9051   25.8201 C   0  0  0  0  0  0  0  0  0  0  0  0
    7.3114  -13.2838   26.4536 C   0  0  1  0  0  0  0  0  0  0  0  0
    5.9709  -13.8959   26.6503 C   0  0  0  0  0  0  0  0  0  0  0  0
    8.2406  -14.0427   25.5768 C   0  0  2  0  0  0  0  0  0  0  0  0
    7.7225  -14.2268   24.2351 N   0  0  0  0  0  0  0  0  0  0  0  0
    8.7429  -15.3011   26.1545 C   0  0  0  0  0  0  0  0  0  0  0  0
    8.0648  -16.3380   25.9894 O   0  0  0  0  0  0  0  0  0  0  0  0
    9.9405  -15.3736   26.8742 N   0  0  0  0  0  0  0  0  0  0  0  0
   10.5371  -16.7002   27.2475 C   0  0  1  0  0  0  0  0  0  0  0  0
   11.7928  -16.7559   26.4623 C   0  0  0  0  0  0  0  0  0  0  0  0
   12.7458  -17.8539   26.6496 C   0  0  0  0  0  0  0  0  0  0  0  0
   13.9753  -17.7904   25.8497 C   0  0  0  0  0  0  0  0  0  0  0  0
   14.8070  -16.8408   25.9475 O   0  0  0  0  0  0  0  0  0  0  0  0
   10.7078  -16.5990   28.7162 C   0  0  0  0  0  0  0  0  0  0  0  0
   11.0055  -17.7365   29.5145 O   0  0  0  0  0  0  0  0  0  0  0  0
   14.2656  -18.7989   24.9425 O   0  0  0  0  0  0  0  0  0  0  0  0
   10.6124  -15.5447   29.3861 O   0  0  0  0  0  0  0  0  0  0  0  0
  2  1  1  6
  3  2  1  0
  4  5  1  0
  4  2  1  0
  5  6  1  1
  7  5  1  0
  8  7  2  0
 10  9  1  6
 10 12  1  0
 11 10  1  0
 12 14  1  0
 12 13  1  6
 13  7  1  0
 14 16  1  0
 15 14  2  0
 16 17  1  0
 17 18  1  6
 17 22  1  0
 18 19  1  0
 19 20  1  0
 20 24  1  0
 21 20  2  0
 22 25  2  0
 22 23  1  0
M  END
$$$$
