LVE.pdb
     RDKit          3D

 25 24  0  0  1  0  0  0  0  0999 V2000
    5.3591  -11.9739   26.3966 C   0  0  0  0  0  0  0  0  0  0  0  0
    6.4844  -12.6979   27.0941 C   0  0  2  0  0  0  0  0  0  0  0  0
    7.4765  -11.6842   27.6864 C   0  0  0  0  0  0  0  0  0  0  0  0
    7.2212  -13.6175   26.1959 C   0  0  0  0  0  0  0  0  0  0  0  0
    6.4505  -14.7106   25.5539 C   0  0  2  0  0  0  0  0  0  0  0  0
    5.8426  -15.6258   26.4566 N   0  0  0  0  0  0  0  0  0  0  0  0
    7.2163  -15.4061   24.4758 C   0  0  0  0  0  0  0  0  0  0  0  0
    7.8340  -16.4731   24.7278 O   0  0  0  0  0  0  0  0  0  0  0  0
    8.2719  -13.2839   20.9640 C   0  0  0  0  0  0  0  0  0  0  0  0
    7.8698  -14.7530   20.8134 C   0  0  1  0  0  0  0  0  0  0  0  0
    8.6205  -15.3153   19.6600 C   0  0  0  0  0  0  0  0  0  0  0  0
    8.1126  -15.4154   22.1212 C   0  0  2  0  0  0  0  0  0  0  0  0
    7.2669  -14.8973   23.1789 N   0  0  0  0  0  0  0  0  0  0  0  0
    9.5277  -15.4809   22.5251 C   0  0  0  0  0  0  0  0  0  0  0  0
   10.0274  -14.4828   23.0875 O   0  0  0  0  0  0  0  0  0  0  0  0
   10.3224  -16.6107   22.3023 N   0  0  0  0  0  0  0  0  0  0  0  0
   11.6970  -16.7165   22.8975 C   0  0  1  0  0  0  0  0  0  0  0  0
   11.5317  -17.6989   23.9948 C   0  0  0  0  0  0  0  0  0  0  0  0
   12.6953  -18.2071   24.7273 C   0  0  0  0  0  0  0  0  0  0  0  0
   12.4220  -19.2047   25.7692 C   0  0  0  0  0  0  0  0  0  0  0  0
   13.3382  -19.7470   26.4544 O   0  0  0  0  0  0  0  0  0  0  0  0
   12.5308  -17.1677   21.7584 C   0  0  0  0  0  0  0  0  0  0  0  0
   12.0249  -18.0481   20.7640 O   0  0  0  0  0  0  0  0  0  0  0  0
   11.1159  -19.5873   26.0379 O   0  0  0  0  0  0  0  0  0  0  0  0
   13.7220  -16.8368   21.5562 O   0  0  0  0  0  0  0  0  0  0  0  0
  2  1  1  6
  3  2  1  0
  4  5  1  0
  4  2  1  0
  5  6  1  1
  7  5  1  0
  8  7  2  0
 10  9  1  1
 10 12  1  0
 11 10  1  0
 12 14  1  0
 12 13  1  1
 13  7  1  0
 14 16  1  0
 15 14  2  0
 16 17  1  0
 17 18  1  1
 17 22  1  0
 18 19  1  0
 19 20  1  0
 20 24  1  0
 21 20  2  0
 22 25  2  0
 22 23  1  0
M  END
$$$$
