LVE.pdb
     RDKit          3D

 25 24  0  0  1  0  0  0  0  0999 V2000
    8.8662  -13.5407   18.0267 C   0  0  0  0  0  0  0  0  0  0  0  0
    7.8637  -13.6886   19.1448 C   0  0  2  0  0  0  0  0  0  0  0  0
    6.8785  -12.5089   19.1292 C   0  0  0  0  0  0  0  0  0  0  0  0
    8.4991  -13.7618   20.4814 C   0  0  0  0  0  0  0  0  0  0  0  0
    7.9002  -14.6873   21.4741 C   0  0  2  0  0  0  0  0  0  0  0  0
    6.4837  -14.7973   21.4130 N   0  0  0  0  0  0  0  0  0  0  0  0
    8.3874  -14.4421   22.8651 C   0  0  0  0  0  0  0  0  0  0  0  0
    9.6214  -14.3542   23.0957 O   0  0  0  0  0  0  0  0  0  0  0  0
    7.5297  -12.8228   27.3717 C   0  0  0  0  0  0  0  0  0  0  0  0
    6.8932  -13.2272   26.0398 C   0  0  1  0  0  0  0  0  0  0  0  0
    6.4486  -11.9866   25.3516 C   0  0  0  0  0  0  0  0  0  0  0  0
    7.8896  -14.0474   25.3032 C   0  0  2  0  0  0  0  0  0  0  0  0
    7.4992  -14.3070   23.9310 N   0  0  0  0  0  0  0  0  0  0  0  0
    8.3138  -15.2738   26.0001 C   0  0  0  0  0  0  0  0  0  0  0  0
    7.4532  -16.1513   26.2267 O   0  0  0  0  0  0  0  0  0  0  0  0
    9.6337  -15.4865   26.4128 N   0  0  0  0  0  0  0  0  0  0  0  0
   10.0852  -16.8378   26.8877 C   0  0  1  0  0  0  0  0  0  0  0  0
   11.2830  -17.1200   26.0619 C   0  0  0  0  0  0  0  0  0  0  0  0
   12.1382  -18.2747   26.3519 C   0  0  0  0  0  0  0  0  0  0  0  0
   13.3194  -18.4395   25.4958 C   0  0  0  0  0  0  0  0  0  0  0  0
   13.5922  -19.5273   24.9082 O   0  0  0  0  0  0  0  0  0  0  0  0
   10.3422  -16.6261   28.3318 C   0  0  0  0  0  0  0  0  0  0  0  0
   10.3350  -15.3279   28.9102 O   0  0  0  0  0  0  0  0  0  0  0  0
   14.1898  -17.3768   25.3024 O   0  0  0  0  0  0  0  0  0  0  0  0
   10.5837  -17.5298   29.1652 O   0  0  0  0  0  0  0  0  0  0  0  0
  2  1  1  6
  3  2  1  0
  4  5  1  0
  4  2  1  0
  5  6  1  1
  7  5  1  0
  8  7  2  0
 10  9  1  1
 10 12  1  0
 11 10  1  0
 12 14  1  0
 12 13  1  6
 13  7  1  0
 14 16  1  0
 15 14  2  0
 16 17  1  0
 17 18  1  6
 17 22  1  0
 18 19  1  0
 19 20  1  0
 20 24  1  0
 21 20  2  0
 22 25  2  0
 22 23  1  0
M  END
$$$$
