LVE.pdb
     RDKit          3D

 25 24  0  0  1  0  0  0  0  0999 V2000
    7.9493  -14.7005   18.5717 C   0  0  0  0  0  0  0  0  0  0  0  0
    7.2756  -13.6057   19.3621 C   0  0  2  0  0  0  0  0  0  0  0  0
    7.3577  -12.2755   18.5963 C   0  0  0  0  0  0  0  0  0  0  0  0
    7.8681  -13.4191   20.7072 C   0  0  0  0  0  0  0  0  0  0  0  0
    7.7933  -14.5602   21.6523 C   0  0  2  0  0  0  0  0  0  0  0  0
    6.5145  -15.1744   21.7507 N   0  0  0  0  0  0  0  0  0  0  0  0
    8.3715  -14.2433   22.9931 C   0  0  0  0  0  0  0  0  0  0  0  0
    9.5711  -13.8764   23.0927 O   0  0  0  0  0  0  0  0  0  0  0  0
    7.7220  -12.9253   27.6217 C   0  0  0  0  0  0  0  0  0  0  0  0
    7.0383  -13.4084   26.3404 C   0  0  1  0  0  0  0  0  0  0  0  0
    6.3243  -12.2508   25.7402 C   0  0  0  0  0  0  0  0  0  0  0  0
    8.0843  -14.0295   25.4869 C   0  0  2  0  0  0  0  0  0  0  0  0
    7.6074  -14.3456   24.1546 N   0  0  0  0  0  0  0  0  0  0  0  0
    8.7911  -15.1637   26.1062 C   0  0  0  0  0  0  0  0  0  0  0  0
    8.1340  -16.1923   26.3752 O   0  0  0  0  0  0  0  0  0  0  0  0
   10.1585  -15.1283   26.4004 N   0  0  0  0  0  0  0  0  0  0  0  0
   10.8699  -16.3489   26.9097 C   0  0  1  0  0  0  0  0  0  0  0  0
   12.2593  -16.1760   26.4237 C   0  0  0  0  0  0  0  0  0  0  0  0
   13.0087  -17.3108   25.8766 C   0  0  0  0  0  0  0  0  0  0  0  0
   14.1618  -16.9804   25.0303 C   0  0  0  0  0  0  0  0  0  0  0  0
   14.9478  -16.0219   25.2884 O   0  0  0  0  0  0  0  0  0  0  0  0
   10.6930  -16.2618   28.3785 C   0  0  0  0  0  0  0  0  0  0  0  0
   10.8304  -17.4011   29.2170 O   0  0  0  0  0  0  0  0  0  0  0  0
   14.4278  -17.7327   23.8955 O   0  0  0  0  0  0  0  0  0  0  0  0
   10.4147  -15.2190   29.0145 O   0  0  0  0  0  0  0  0  0  0  0  0
  2  1  1  6
  3  2  1  0
  4  5  1  0
  4  2  1  0
  5  6  1  1
  7  5  1  0
  8  7  2  0
 10  9  1  1
 10 12  1  0
 11 10  1  0
 12 14  1  0
 12 13  1  6
 13  7  1  0
 14 16  1  0
 15 14  2  0
 16 17  1  0
 17 18  1  1
 17 22  1  0
 18 19  1  0
 19 20  1  0
 20 24  1  0
 21 20  2  0
 22 25  2  0
 22 23  1  0
M  END
$$$$
