LVE.pdb
     RDKit          3D

 25 24  0  0  1  0  0  0  0  0999 V2000
    5.1053  -18.1570   20.7461 C   0  0  0  0  0  0  0  0  0  0  0  0
    6.1167  -17.0501   20.5759 C   0  0  2  0  0  0  0  0  0  0  0  0
    7.4151  -17.6103   19.9736 C   0  0  0  0  0  0  0  0  0  0  0  0
    6.4386  -16.3640   21.8491 C   0  0  0  0  0  0  0  0  0  0  0  0
    7.0138  -14.9991   21.7646 C   0  0  2  0  0  0  0  0  0  0  0  0
    7.6237  -14.6815   20.5199 N   0  0  0  0  0  0  0  0  0  0  0  0
    7.8939  -14.6664   22.9252 C   0  0  0  0  0  0  0  0  0  0  0  0
    9.1405  -14.8131   22.8349 O   0  0  0  0  0  0  0  0  0  0  0  0
    7.3390  -11.6798   25.5300 C   0  0  0  0  0  0  0  0  0  0  0  0
    7.4730  -13.0155   26.2653 C   0  0  1  0  0  0  0  0  0  0  0  0
    6.1215  -13.4115   26.7415 C   0  0  0  0  0  0  0  0  0  0  0  0
    8.1303  -13.9697   25.3349 C   0  0  2  0  0  0  0  0  0  0  0  0
    7.3640  -14.1917   24.1241 N   0  0  0  0  0  0  0  0  0  0  0  0
    8.5659  -15.2330   25.9545 C   0  0  0  0  0  0  0  0  0  0  0  0
    7.7389  -16.1667   26.0345 O   0  0  0  0  0  0  0  0  0  0  0  0
    9.8604  -15.4204   26.4514 N   0  0  0  0  0  0  0  0  0  0  0  0
   10.2979  -16.7562   26.9801 C   0  0  1  0  0  0  0  0  0  0  0  0
   11.6658  -16.9210   26.4342 C   0  0  0  0  0  0  0  0  0  0  0  0
   11.8834  -17.0832   24.9936 C   0  0  0  0  0  0  0  0  0  0  0  0
   13.2699  -17.3096   24.5675 C   0  0  0  0  0  0  0  0  0  0  0  0
   14.0787  -16.3627   24.3390 O   0  0  0  0  0  0  0  0  0  0  0  0
   10.2144  -16.5878   28.4501 C   0  0  0  0  0  0  0  0  0  0  0  0
   10.3283  -17.6925   29.3370 O   0  0  0  0  0  0  0  0  0  0  0  0
   13.7424  -18.6033   24.4017 O   0  0  0  0  0  0  0  0  0  0  0  0
   10.0416  -15.4997   29.0464 O   0  0  0  0  0  0  0  0  0  0  0  0
  2  1  1  1
  3  2  1  0
  4  5  1  0
  4  2  1  0
  5  6  1  6
  7  5  1  0
  8  7  2  0
 10  9  1  6
 10 12  1  0
 11 10  1  0
 12 14  1  0
 12 13  1  6
 13  7  1  0
 14 16  1  0
 15 14  2  0
 16 17  1  0
 17 18  1  1
 17 22  1  0
 18 19  1  0
 19 20  1  0
 20 24  1  0
 21 20  2  0
 22 25  2  0
 22 23  1  0
M  END
$$$$
