LLD.pdb
     RDKit          3D

 25 24  0  0  1  0  0  0  0  0999 V2000
   27.5180  -19.1286  -17.5016 C   0  0  0  0  0  0  0  0  0  0  0  0
   26.4292  -20.0526  -18.0389 C   0  0  2  0  0  0  0  0  0  0  0  0
   25.4884  -19.2153  -18.8755 C   0  0  0  0  0  0  0  0  0  0  0  0
   25.6944  -20.7030  -16.8903 C   0  0  0  0  0  0  0  0  0  0  0  0
   26.5698  -21.4068  -15.9119 C   0  0  2  0  0  0  0  0  0  0  0  0
   27.0582  -22.6164  -16.5983 N   0  0  0  0  0  0  0  0  0  0  0  0
   25.8851  -21.7906  -14.6437 C   0  0  0  0  0  0  0  0  0  0  0  0
   25.2024  -22.8605  -14.6039 O   0  0  0  0  0  0  0  0  0  0  0  0
   24.1921  -21.3221   -9.3565 C   0  0  0  0  0  0  0  0  0  0  0  0
   25.5697  -20.9876   -9.7580 C   0  0  2  0  0  0  0  0  0  0  0  0
   25.9512  -19.6608   -9.0520 C   0  0  0  0  0  0  0  0  0  0  0  0
   25.9042  -20.8071  -11.1661 C   0  0  0  0  0  0  0  0  0  0  0  0
   25.1235  -21.3787  -12.2708 C   0  0  2  0  0  0  0  0  0  0  0  0
   25.9501  -21.0303  -13.4736 N   0  0  0  0  0  0  0  0  0  0  0  0
   23.7546  -20.9858  -12.5248 C   0  0  0  0  0  0  0  0  0  0  0  0
   22.8555  -21.2659  -11.6184 O   0  0  0  0  0  0  0  0  0  0  0  0
   23.2517  -20.3080  -13.6534 N   0  0  0  0  0  0  0  0  0  0  0  0
   21.8364  -19.8734  -13.6988 C   0  0  1  0  0  0  0  0  0  0  0  0
   21.7449  -18.6444  -14.5861 C   0  0  0  0  0  0  0  0  0  0  0  0
   20.3449  -18.2057  -14.6855 C   0  0  0  0  0  0  0  0  0  0  0  0
   19.3763  -18.6568  -14.0245 O   0  0  0  0  0  0  0  0  0  0  0  0
   21.0479  -20.9443  -14.3261 C   0  0  0  0  0  0  0  0  0  0  0  0
   19.6986  -21.1865  -14.1202 O   0  0  0  0  0  0  0  0  0  0  0  0
   20.0328  -17.1832  -15.6017 O   0  0  0  0  0  0  0  0  0  0  0  0
   21.6081  -21.7351  -15.1268 O   0  0  0  0  0  0  0  0  0  0  0  0
  2  1  1  1
  2  3  1  0
  4  5  1  0
  4  2  1  0
  5  6  1  6
  5  7  1  0
  7  8  2  0
 10  9  1  6
 11 10  1  0
 12 10  1  0
 13 12  1  1
 14  7  1  0
 14 13  1  0
 15 13  1  0
 15 16  2  0
 17 15  1  0
 18 17  1  0
 18 22  1  0
 18 19  1  6
 20 24  1  0
 20 19  1  0
 21 20  2  0
 22 23  1  0
 25 22  2  0
M  END
$$$$
