LLD.pdb
     RDKit          3D

 25 24  0  0  1  0  0  0  0  0999 V2000
   20.2923  -17.3539  -19.1640 C   0  0  0  0  0  0  0  0  0  0  0  0
   21.5684  -17.7760  -18.4419 C   0  0  2  0  0  0  0  0  0  0  0  0
   21.2896  -19.0900  -17.7479 C   0  0  0  0  0  0  0  0  0  0  0  0
   21.9693  -16.7146  -17.4444 C   0  0  0  0  0  0  0  0  0  0  0  0
   22.1689  -15.3583  -18.0272 C   0  0  2  0  0  0  0  0  0  0  0  0
   23.2402  -15.4990  -19.0299 N   0  0  0  0  0  0  0  0  0  0  0  0
   22.5465  -14.3140  -17.0316 C   0  0  0  0  0  0  0  0  0  0  0  0
   21.8520  -14.1790  -15.9772 O   0  0  0  0  0  0  0  0  0  0  0  0
   26.3470  -13.5558  -14.2031 C   0  0  0  0  0  0  0  0  0  0  0  0
   26.3404  -13.3261  -15.6585 C   0  0  2  0  0  0  0  0  0  0  0  0
   27.7724  -12.8948  -16.0682 C   0  0  0  0  0  0  0  0  0  0  0  0
   25.4382  -12.3420  -16.2456 C   0  0  0  0  0  0  0  0  0  0  0  0
   23.9743  -12.4219  -16.1591 C   0  0  2  0  0  0  0  0  0  0  0  0
   23.6390  -13.4583  -17.1910 N   0  0  0  0  0  0  0  0  0  0  0  0
   23.1301  -11.2674  -16.3764 C   0  0  0  0  0  0  0  0  0  0  0  0
   23.0087  -10.8145  -17.5965 O   0  0  0  0  0  0  0  0  0  0  0  0
   22.3889  -10.5529  -15.4140 N   0  0  0  0  0  0  0  0  0  0  0  0
   21.5676   -9.3868  -15.8134 C   0  0  1  0  0  0  0  0  0  0  0  0
   20.4054   -9.2695  -14.8430 C   0  0  0  0  0  0  0  0  0  0  0  0
   19.5487   -8.1379  -15.2275 C   0  0  0  0  0  0  0  0  0  0  0  0
   19.6322   -7.4695  -16.2881 O   0  0  0  0  0  0  0  0  0  0  0  0
   22.3930   -8.1773  -15.6795 C   0  0  0  0  0  0  0  0  0  0  0  0
   23.6146   -8.0957  -15.0295 O   0  0  0  0  0  0  0  0  0  0  0  0
   18.5289   -7.7453  -14.3396 O   0  0  0  0  0  0  0  0  0  0  0  0
   21.9922   -7.0978  -16.1838 O   0  0  0  0  0  0  0  0  0  0  0  0
  2  1  1  1
  2  3  1  0
  4  5  1  0
  4  2  1  0
  5  6  1  6
  5  7  1  0
  7  8  2  0
 10  9  1  1
 11 10  1  0
 12 10  1  0
 13 12  1  6
 14  7  1  0
 14 13  1  0
 15 13  1  0
 15 16  2  0
 17 15  1  0
 18 17  1  0
 18 22  1  0
 18 19  1  1
 20 24  1  0
 20 19  1  0
 21 20  2  0
 22 23  1  0
 25 22  2  0
M  END
$$$$
