LLD.pdb
     RDKit          3D

 25 24  0  0  1  0  0  0  0  0999 V2000
   27.7812  -18.5139  -19.1240 C   0  0  0  0  0  0  0  0  0  0  0  0
   28.4513  -17.9574  -17.8713 C   0  0  2  0  0  0  0  0  0  0  0  0
   29.9434  -17.9464  -18.1155 C   0  0  0  0  0  0  0  0  0  0  0  0
   28.1072  -18.8187  -16.6789 C   0  0  0  0  0  0  0  0  0  0  0  0
   26.6524  -19.0887  -16.5069 C   0  0  2  0  0  0  0  0  0  0  0  0
   26.0523  -17.8189  -16.0590 N   0  0  0  0  0  0  0  0  0  0  0  0
   26.3419  -20.1657  -15.5230 C   0  0  0  0  0  0  0  0  0  0  0  0
   26.7401  -21.3499  -15.7498 O   0  0  0  0  0  0  0  0  0  0  0  0
   24.8278  -20.3705   -9.6678 C   0  0  0  0  0  0  0  0  0  0  0  0
   25.2676  -21.1603  -10.8312 C   0  0  2  0  0  0  0  0  0  0  0  0
   26.5462  -21.9319  -10.4135 C   0  0  0  0  0  0  0  0  0  0  0  0
   25.5872  -20.5007  -12.0921 C   0  0  0  0  0  0  0  0  0  0  0  0
   25.2963  -21.0761  -13.4116 C   0  0  2  0  0  0  0  0  0  0  0  0
   25.6259  -19.9474  -14.3436 N   0  0  0  0  0  0  0  0  0  0  0  0
   23.9862  -21.5859  -13.7528 C   0  0  0  0  0  0  0  0  0  0  0  0
   23.6245  -22.7381  -13.2527 O   0  0  0  0  0  0  0  0  0  0  0  0
   23.0143  -20.9758  -14.5709 N   0  0  0  0  0  0  0  0  0  0  0  0
   21.5740  -21.1092  -14.2520 C   0  0  1  0  0  0  0  0  0  0  0  0
   21.3269  -20.4739  -12.8950 C   0  0  0  0  0  0  0  0  0  0  0  0
   19.9040  -20.5906  -12.5428 C   0  0  0  0  0  0  0  0  0  0  0  0
   19.0086  -21.1325  -13.2379 O   0  0  0  0  0  0  0  0  0  0  0  0
   20.8105  -20.3497  -15.2531 C   0  0  0  0  0  0  0  0  0  0  0  0
   21.3489  -19.5764  -16.2698 O   0  0  0  0  0  0  0  0  0  0  0  0
   19.4776  -20.0515  -11.3140 O   0  0  0  0  0  0  0  0  0  0  0  0
   19.5541  -20.3748  -15.2204 O   0  0  0  0  0  0  0  0  0  0  0  0
  2  1  1  6
  2  3  1  0
  4  5  1  0
  4  2  1  0
  5  6  1  1
  5  7  1  0
  7  8  2  0
 10  9  1  1
 11 10  1  0
 12 10  1  0
 13 12  1  1
 14  7  1  0
 14 13  1  0
 15 13  1  0
 15 16  2  0
 17 15  1  0
 18 17  1  0
 18 22  1  0
 18 19  1  1
 20 24  1  0
 20 19  1  0
 21 20  2  0
 22 23  1  0
 25 22  2  0
M  END
$$$$
