LLD.pdb
     RDKit          3D

 25 24  0  0  1  0  0  0  0  0999 V2000
   20.8794  -12.5584  -21.3480 C   0  0  0  0  0  0  0  0  0  0  0  0
   19.8368  -12.7042  -20.2435 C   0  0  2  0  0  0  0  0  0  0  0  0
   18.5271  -12.1673  -20.7752 C   0  0  0  0  0  0  0  0  0  0  0  0
   20.2756  -11.9371  -19.0183 C   0  0  0  0  0  0  0  0  0  0  0  0
   21.5912  -12.3575  -18.4604 C   0  0  2  0  0  0  0  0  0  0  0  0
   21.3969  -13.7244  -17.9438 N   0  0  0  0  0  0  0  0  0  0  0  0
   22.1037  -11.4769  -17.3713 C   0  0  0  0  0  0  0  0  0  0  0  0
   21.6070  -11.5736  -16.2067 O   0  0  0  0  0  0  0  0  0  0  0  0
   25.9363  -10.9753  -14.7221 C   0  0  0  0  0  0  0  0  0  0  0  0
   25.8917  -10.6012  -16.1464 C   0  0  2  0  0  0  0  0  0  0  0  0
   27.3182  -10.1505  -16.5543 C   0  0  0  0  0  0  0  0  0  0  0  0
   24.9893   -9.5513  -16.6052 C   0  0  0  0  0  0  0  0  0  0  0  0
   23.5296   -9.6049  -16.4533 C   0  0  2  0  0  0  0  0  0  0  0  0
   23.1170  -10.5335  -17.5573 N   0  0  0  0  0  0  0  0  0  0  0  0
   22.7082   -8.4160  -16.5222 C   0  0  0  0  0  0  0  0  0  0  0  0
   22.1006   -8.1519  -17.6489 O   0  0  0  0  0  0  0  0  0  0  0  0
   22.4613   -7.4830  -15.4952 N   0  0  0  0  0  0  0  0  0  0  0  0
   21.5472   -6.3401  -15.7236 C   0  0  1  0  0  0  0  0  0  0  0  0
   20.1518   -6.8884  -15.9646 C   0  0  0  0  0  0  0  0  0  0  0  0
   19.1991   -5.7778  -16.1103 C   0  0  0  0  0  0  0  0  0  0  0  0
   19.4248   -4.6734  -16.6655 O   0  0  0  0  0  0  0  0  0  0  0  0
   21.5099   -5.5307  -14.4966 C   0  0  0  0  0  0  0  0  0  0  0  0
   20.8010   -4.3522  -14.3224 O   0  0  0  0  0  0  0  0  0  0  0  0
   17.9027   -5.9417  -15.5863 O   0  0  0  0  0  0  0  0  0  0  0  0
   22.1661   -5.9033  -13.4913 O   0  0  0  0  0  0  0  0  0  0  0  0
  2  1  1  6
  2  3  1  0
  4  5  1  0
  4  2  1  0
  5  6  1  1
  5  7  1  0
  7  8  2  0
 10  9  1  1
 11 10  1  0
 12 10  1  0
 13 12  1  6
 14  7  1  0
 14 13  1  0
 15 13  1  0
 15 16  2  0
 17 15  1  0
 18 17  1  0
 18 22  1  0
 18 19  1  1
 20 24  1  0
 20 19  1  0
 21 20  2  0
 22 23  1  0
 25 22  2  0
M  END
$$$$
