LLD.pdb
     RDKit          3D

 25 24  0  0  1  0  0  0  0  0999 V2000
   26.5287  -34.4493   -8.8712 C   0  0  0  0  0  0  0  0  0  0  0  0
   25.6328  -33.2881   -8.4506 C   0  0  2  0  0  0  0  0  0  0  0  0
   25.9469  -32.1162   -9.3529 C   0  0  0  0  0  0  0  0  0  0  0  0
   25.8906  -32.9380   -7.0039 C   0  0  0  0  0  0  0  0  0  0  0  0
   25.5992  -34.0342   -6.0382 C   0  0  2  0  0  0  0  0  0  0  0  0
   24.1874  -34.4006   -6.2512 N   0  0  0  0  0  0  0  0  0  0  0  0
   25.8120  -33.6636   -4.6093 C   0  0  0  0  0  0  0  0  0  0  0  0
   26.9630  -33.2855   -4.2288 O   0  0  0  0  0  0  0  0  0  0  0  0
   25.1290  -30.3992   -0.8811 C   0  0  0  0  0  0  0  0  0  0  0  0
   24.1267  -30.9737   -1.7954 C   0  0  2  0  0  0  0  0  0  0  0  0
   22.7403  -30.4231   -1.3719 C   0  0  0  0  0  0  0  0  0  0  0  0
   23.9712  -32.4197   -1.9047 C   0  0  0  0  0  0  0  0  0  0  0  0
   25.0738  -33.3386   -2.2156 C   0  0  2  0  0  0  0  0  0  0  0  0
   24.8027  -33.7075   -3.6445 N   0  0  0  0  0  0  0  0  0  0  0  0
   25.2943  -34.5533   -1.4615 C   0  0  0  0  0  0  0  0  0  0  0  0
   24.4963  -35.5656   -1.6779 O   0  0  0  0  0  0  0  0  0  0  0  0
   26.2975  -34.7976   -0.5023 N   0  0  0  0  0  0  0  0  0  0  0  0
   26.3236  -36.0747    0.2476 C   0  0  1  0  0  0  0  0  0  0  0  0
   27.7215  -36.2679    0.8085 C   0  0  0  0  0  0  0  0  0  0  0  0
   27.7966  -37.5487    1.5270 C   0  0  0  0  0  0  0  0  0  0  0  0
   26.8839  -38.4081    1.6109 O   0  0  0  0  0  0  0  0  0  0  0  0
   25.3931  -35.9604    1.3803 C   0  0  0  0  0  0  0  0  0  0  0  0
   24.9405  -37.0071    2.1684 O   0  0  0  0  0  0  0  0  0  0  0  0
   28.9953  -37.8671    2.1935 O   0  0  0  0  0  0  0  0  0  0  0  0
   24.9417  -34.8305    1.6965 O   0  0  0  0  0  0  0  0  0  0  0  0
  2  1  1  6
  2  3  1  0
  4  5  1  0
  4  2  1  0
  5  6  1  1
  5  7  1  0
  7  8  2  0
 10  9  1  1
 11 10  1  0
 12 10  1  0
 13 12  1  1
 14  7  1  0
 14 13  1  0
 15 13  1  0
 15 16  2  0
 17 15  1  0
 18 17  1  0
 18 22  1  0
 18 19  1  1
 20 24  1  0
 20 19  1  0
 21 20  2  0
 22 23  1  0
 25 22  2  0
M  END
$$$$
