LLD.pdb
     RDKit          3D

 25 24  0  0  1  0  0  0  0  0999 V2000
   15.3050  -11.8792  -18.3227 C   0  0  0  0  0  0  0  0  0  0  0  0
   16.1926  -13.0408  -17.8859 C   0  0  2  0  0  0  0  0  0  0  0  0
   15.3037  -14.0803  -17.2414 C   0  0  0  0  0  0  0  0  0  0  0  0
   17.2395  -12.5500  -16.9136 C   0  0  0  0  0  0  0  0  0  0  0  0
   18.0726  -11.4216  -17.4152 C   0  0  2  0  0  0  0  0  0  0  0  0
   18.8384  -11.9557  -18.5559 N   0  0  0  0  0  0  0  0  0  0  0  0
   19.0094  -10.8551  -16.4023 C   0  0  0  0  0  0  0  0  0  0  0  0
   18.5488  -10.4259  -15.2996 O   0  0  0  0  0  0  0  0  0  0  0  0
   24.8518  -11.6752  -15.0445 C   0  0  0  0  0  0  0  0  0  0  0  0
   23.7017  -10.7672  -14.8908 C   0  0  2  0  0  0  0  0  0  0  0  0
   23.3965  -10.6550  -13.3746 C   0  0  0  0  0  0  0  0  0  0  0  0
   22.4304  -11.0714  -15.5377 C   0  0  0  0  0  0  0  0  0  0  0  0
   21.2845  -10.1532  -15.5589 C   0  0  2  0  0  0  0  0  0  0  0  0
   20.3899  -10.7661  -16.5960 N   0  0  0  0  0  0  0  0  0  0  0  0
   21.4363   -8.7458  -15.8571 C   0  0  0  0  0  0  0  0  0  0  0  0
   21.3611   -8.3697  -17.1066 O   0  0  0  0  0  0  0  0  0  0  0  0
   21.6494   -7.6934  -14.9443 N   0  0  0  0  0  0  0  0  0  0  0  0
   21.6835   -6.2888  -15.4132 C   0  0  1  0  0  0  0  0  0  0  0  0
   20.3166   -5.9428  -15.9772 C   0  0  0  0  0  0  0  0  0  0  0  0
   20.2994   -4.5385  -16.4131 C   0  0  0  0  0  0  0  0  0  0  0  0
   21.1799   -3.9630  -17.1001 O   0  0  0  0  0  0  0  0  0  0  0  0
   21.9257   -5.4229  -14.2498 C   0  0  0  0  0  0  0  0  0  0  0  0
   22.3462   -4.1027  -14.2935 O   0  0  0  0  0  0  0  0  0  0  0  0
   19.2018   -3.7402  -16.0383 O   0  0  0  0  0  0  0  0  0  0  0  0
   21.7489   -5.8806  -13.0924 O   0  0  0  0  0  0  0  0  0  0  0  0
  2  1  1  1
  2  3  1  0
  4  5  1  0
  4  2  1  0
  5  6  1  6
  5  7  1  0
  7  8  2  0
 10  9  1  1
 11 10  1  0
 12 10  1  0
 13 12  1  6
 14  7  1  0
 14 13  1  0
 15 13  1  0
 15 16  2  0
 17 15  1  0
 18 17  1  0
 18 22  1  0
 18 19  1  1
 20 24  1  0
 20 19  1  0
 21 20  2  0
 22 23  1  0
 25 22  2  0
M  END
$$$$
