LLD.pdb
     RDKit          3D

 25 24  0  0  1  0  0  0  0  0999 V2000
   17.7133   -9.2515  -21.5008 C   0  0  0  0  0  0  0  0  0  0  0  0
   18.8172  -10.0370  -20.7992 C   0  0  2  0  0  0  0  0  0  0  0  0
   18.7602  -11.4606  -21.3056 C   0  0  0  0  0  0  0  0  0  0  0  0
   18.6111   -9.9889  -19.3035 C   0  0  0  0  0  0  0  0  0  0  0  0
   19.6809  -10.6528  -18.5074 C   0  0  2  0  0  0  0  0  0  0  0  0
   19.1363  -11.9620  -18.1046 N   0  0  0  0  0  0  0  0  0  0  0  0
   20.1051   -9.8912  -17.2972 C   0  0  0  0  0  0  0  0  0  0  0  0
   19.3004   -9.7731  -16.3221 O   0  0  0  0  0  0  0  0  0  0  0  0
   23.9486  -11.2934  -14.5166 C   0  0  0  0  0  0  0  0  0  0  0  0
   23.1403  -10.0672  -14.3998 C   0  0  2  0  0  0  0  0  0  0  0  0
   21.7009  -10.4937  -14.0116 C   0  0  0  0  0  0  0  0  0  0  0  0
   23.0017   -9.1642  -15.5367 C   0  0  0  0  0  0  0  0  0  0  0  0
   21.7353   -8.5319  -15.9280 C   0  0  2  0  0  0  0  0  0  0  0  0
   21.3584   -9.2881  -17.1680 N   0  0  0  0  0  0  0  0  0  0  0  0
   21.6405   -7.1156  -16.2070 C   0  0  0  0  0  0  0  0  0  0  0  0
   22.2413   -6.6567  -17.2732 O   0  0  0  0  0  0  0  0  0  0  0  0
   20.9523   -6.1381  -15.4607 N   0  0  0  0  0  0  0  0  0  0  0  0
   20.9932   -4.7151  -15.8696 C   0  0  1  0  0  0  0  0  0  0  0  0
   19.7913   -4.0119  -15.2639 C   0  0  0  0  0  0  0  0  0  0  0  0
   18.5757   -4.3747  -16.0076 C   0  0  0  0  0  0  0  0  0  0  0  0
   18.5047   -4.6309  -17.2356 O   0  0  0  0  0  0  0  0  0  0  0  0
   22.2062   -4.1094  -15.3008 C   0  0  0  0  0  0  0  0  0  0  0  0
   22.9476   -3.0866  -15.8716 O   0  0  0  0  0  0  0  0  0  0  0  0
   17.3612   -4.4495  -15.2992 O   0  0  0  0  0  0  0  0  0  0  0  0
   22.6465   -4.5269  -14.1998 O   0  0  0  0  0  0  0  0  0  0  0  0
  2  1  1  6
  2  3  1  0
  4  5  1  0
  4  2  1  0
  5  6  1  1
  5  7  1  0
  7  8  2  0
 10  9  1  6
 11 10  1  0
 12 10  1  0
 13 12  1  6
 14  7  1  0
 14 13  1  0
 15 13  1  0
 15 16  2  0
 17 15  1  0
 18 17  1  0
 18 22  1  0
 18 19  1  1
 20 24  1  0
 20 19  1  0
 21 20  2  0
 22 23  1  0
 25 22  2  0
M  END
$$$$
