LLD.pdb
     RDKit          3D

 25 24  0  0  1  0  0  0  0  0999 V2000
   28.7620  -18.2027  -16.7399 C   0  0  0  0  0  0  0  0  0  0  0  0
   27.8628  -19.1119  -17.5721 C   0  0  2  0  0  0  0  0  0  0  0  0
   27.1484  -18.2472  -18.5861 C   0  0  0  0  0  0  0  0  0  0  0  0
   26.8738  -19.8178  -16.6744 C   0  0  0  0  0  0  0  0  0  0  0  0
   27.4907  -20.6458  -15.6007 C   0  0  2  0  0  0  0  0  0  0  0  0
   28.1477  -21.7750  -16.2834 N   0  0  0  0  0  0  0  0  0  0  0  0
   26.5203  -21.1635  -14.5934 C   0  0  0  0  0  0  0  0  0  0  0  0
   25.8491  -22.2091  -14.8554 O   0  0  0  0  0  0  0  0  0  0  0  0
   23.7922  -20.8341   -9.5153 C   0  0  0  0  0  0  0  0  0  0  0  0
   25.1945  -21.1488   -9.8397 C   0  0  2  0  0  0  0  0  0  0  0  0
   26.0788  -20.5431   -8.7191 C   0  0  0  0  0  0  0  0  0  0  0  0
   25.7777  -20.7035  -11.1001 C   0  0  0  0  0  0  0  0  0  0  0  0
   25.2384  -21.0568  -12.4196 C   0  0  2  0  0  0  0  0  0  0  0  0
   26.3001  -20.5568  -13.3546 N   0  0  0  0  0  0  0  0  0  0  0  0
   23.9558  -20.5694  -12.8782 C   0  0  0  0  0  0  0  0  0  0  0  0
   23.8417  -19.2954  -13.1469 O   0  0  0  0  0  0  0  0  0  0  0  0
   22.7800  -21.3167  -13.0909 N   0  0  0  0  0  0  0  0  0  0  0  0
   21.5488  -20.6550  -13.5811 C   0  0  1  0  0  0  0  0  0  0  0  0
   21.5031  -20.7959  -15.0924 C   0  0  0  0  0  0  0  0  0  0  0  0
   20.2808  -20.1665  -15.6140 C   0  0  0  0  0  0  0  0  0  0  0  0
   19.4377  -19.5157  -14.9475 O   0  0  0  0  0  0  0  0  0  0  0  0
   20.3911  -21.3707  -13.0245 C   0  0  0  0  0  0  0  0  0  0  0  0
   19.0592  -21.0579  -13.2474 O   0  0  0  0  0  0  0  0  0  0  0  0
   20.0051  -20.2900  -16.9892 O   0  0  0  0  0  0  0  0  0  0  0  0
   20.5805  -22.3604  -12.2730 O   0  0  0  0  0  0  0  0  0  0  0  0
  2  1  1  1
  2  3  1  0
  4  5  1  0
  4  2  1  0
  5  6  1  6
  5  7  1  0
  7  8  2  0
 10  9  1  1
 11 10  1  0
 12 10  1  0
 13 12  1  1
 14  7  1  0
 14 13  1  0
 15 13  1  0
 15 16  2  0
 17 15  1  0
 18 17  1  0
 18 22  1  0
 18 19  1  6
 20 24  1  0
 20 19  1  0
 21 20  2  0
 22 23  1  0
 25 22  2  0
M  END
$$$$
