DHV.pdb
     RDKit          3D

 26 26  0  0  1  0  0  0  0  0999 V2000
    9.5773  -16.6076   19.6865 N   0  0  0  0  0  0  0  0  0  0  0  0
    8.1790  -16.2168   19.7011 C   0  0  1  0  0  0  0  0  0  0  0  0
    7.3739  -17.1329   18.8131 C   0  0  0  0  0  0  0  0  0  0  0  0
    7.8668  -17.1344   17.4191 C   0  0  0  0  0  0  0  0  0  0  0  0
    8.9647  -17.6487   17.1437 O   0  0  0  0  0  0  0  0  0  0  0  0
    7.7079  -16.2554   21.1103 C   0  0  0  0  0  0  0  0  0  0  0  0
    6.5096  -15.9884   21.4114 O   0  0  0  0  0  0  0  0  0  0  0  0
    7.1098  -16.5656   16.4240 O   0  0  0  0  0  0  0  0  0  0  0  0
    8.5715  -16.5929   22.1964 N   0  0  0  0  0  0  0  0  0  0  0  0
    8.1541  -16.6712   23.5729 C   0  0  1  0  0  0  0  0  0  0  0  0
    8.7393  -17.9074   24.1908 C   0  0  0  0  0  0  0  0  0  0  0  0
    8.0341  -19.1485   23.7991 C   0  0  0  0  0  0  0  0  0  0  0  0
    6.9148  -19.3180   23.0320 C   0  0  0  0  0  0  0  0  0  0  0  0
    6.6521  -20.6355   22.9550 N   0  0  0  0  0  0  0  0  0  0  0  0
    7.5696  -21.3037   23.6489 C   0  0  0  0  0  0  0  0  0  0  0  0
    8.4054  -20.3885   24.1580 N   0  0  0  0  0  0  0  0  0  0  0  0
    8.5264  -15.4424   24.3352 C   0  0  0  0  0  0  0  0  0  0  0  0
    9.6835  -14.9673   24.2131 O   0  0  0  0  0  0  0  0  0  0  0  0
    7.2512  -11.5237   27.0876 C   0  0  0  0  0  0  0  0  0  0  0  0
    6.8616  -12.6603   26.1778 C   0  0  1  0  0  0  0  0  0  0  0  0
    6.3061  -12.0654   24.9111 C   0  0  0  0  0  0  0  0  0  0  0  0
    7.9912  -13.5913   25.9690 C   0  0  2  0  0  0  0  0  0  0  0  0
    7.6267  -14.7749   25.2027 N   0  0  0  0  0  0  0  0  0  0  0  0
    8.5398  -13.9822   27.3016 C   0  0  0  0  0  0  0  0  0  0  0  0
    8.3358  -15.1325   27.7373 O   0  0  0  0  0  0  0  0  0  0  0  0
    9.2801  -13.0764   28.0692 O   0  0  0  0  0  0  0  0  0  0  0  0
  2  1  1  1
  2  3  1  0
  2  6  1  0
  4  8  1  0
  4  3  1  0
  5  4  2  0
  6  7  2  0
  9  6  1  0
  9 10  1  0
 10 11  1  1
 11 12  1  0
 12 13  2  0
 14 13  1  0
 15 14  1  0
 16 15  2  0
 16 12  1  0
 17 10  1  0
 17 18  2  0
 20 19  1  1
 20 22  1  0
 21 20  1  0
 22 23  1  1
 22 24  1  0
 23 17  1  0
 24 26  1  0
 25 24  2  0
M  END
$$$$
