DHV.pdb
     RDKit          3D

 26 26  0  0  1  0  0  0  0  0999 V2000
   12.5440  -16.6562   20.5395 N   0  0  0  0  0  0  0  0  0  0  0  0
   12.0675  -17.0727   21.8463 C   0  0  1  0  0  0  0  0  0  0  0  0
   13.2333  -17.3018   22.7761 C   0  0  0  0  0  0  0  0  0  0  0  0
   14.0330  -18.4834   22.3882 C   0  0  0  0  0  0  0  0  0  0  0  0
   15.2741  -18.4173   22.3584 O   0  0  0  0  0  0  0  0  0  0  0  0
   11.1504  -16.0197   22.3557 C   0  0  0  0  0  0  0  0  0  0  0  0
   11.5804  -14.8809   22.6965 O   0  0  0  0  0  0  0  0  0  0  0  0
   13.4032  -19.6590   22.0593 O   0  0  0  0  0  0  0  0  0  0  0  0
    9.7441  -16.2293   22.4892 N   0  0  0  0  0  0  0  0  0  0  0  0
    8.8024  -15.2078   22.8698 C   0  0  1  0  0  0  0  0  0  0  0  0
    7.5709  -15.3391   22.0221 C   0  0  0  0  0  0  0  0  0  0  0  0
    7.7182  -14.7381   20.6774 C   0  0  0  0  0  0  0  0  0  0  0  0
    8.7664  -14.0483   20.1336 C   0  0  0  0  0  0  0  0  0  0  0  0
    8.4346  -13.6989   18.8772 N   0  0  0  0  0  0  0  0  0  0  0  0
    7.2104  -14.1458   18.6099 C   0  0  0  0  0  0  0  0  0  0  0  0
    6.7844  -14.7765   19.7126 N   0  0  0  0  0  0  0  0  0  0  0  0
    8.4800  -15.2670   24.3266 C   0  0  0  0  0  0  0  0  0  0  0  0
    8.7020  -16.3264   24.9653 O   0  0  0  0  0  0  0  0  0  0  0  0
    7.7659  -11.7679   26.7124 C   0  0  0  0  0  0  0  0  0  0  0  0
    6.9377  -13.0045   26.9502 C   0  0  1  0  0  0  0  0  0  0  0  0
    5.5821  -12.7746   26.3368 C   0  0  0  0  0  0  0  0  0  0  0  0
    7.6302  -14.2157   26.4608 C   0  0  2  0  0  0  0  0  0  0  0  0
    7.9278  -14.1718   25.0358 N   0  0  0  0  0  0  0  0  0  0  0  0
    6.7899  -15.4078   26.7808 C   0  0  0  0  0  0  0  0  0  0  0  0
    6.0661  -15.9057   25.8959 O   0  0  0  0  0  0  0  0  0  0  0  0
    6.8024  -15.9750   28.0598 O   0  0  0  0  0  0  0  0  0  0  0  0
  2  1  1  6
  2  3  1  0
  2  6  1  0
  4  8  1  0
  4  3  1  0
  5  4  2  0
  6  7  2  0
  9  6  1  0
  9 10  1  0
 10 11  1  6
 11 12  1  0
 12 13  2  0
 14 13  1  0
 15 14  1  0
 16 15  2  0
 16 12  1  0
 17 10  1  0
 17 18  2  0
 20 19  1  6
 20 22  1  0
 21 20  1  0
 22 23  1  6
 22 24  1  0
 23 17  1  0
 24 26  1  0
 25 24  2  0
M  END
$$$$
