DHV.pdb
     RDKit          3D

 26 26  0  0  1  0  0  0  0  0999 V2000
   11.1026  -16.5708   19.4458 N   0  0  0  0  0  0  0  0  0  0  0  0
   11.5894  -17.1066   20.7044 C   0  0  1  0  0  0  0  0  0  0  0  0
   13.0944  -17.2077   20.6790 C   0  0  0  0  0  0  0  0  0  0  0  0
   13.5630  -18.3617   19.8822 C   0  0  0  0  0  0  0  0  0  0  0  0
   14.6990  -18.3541   19.3771 O   0  0  0  0  0  0  0  0  0  0  0  0
   11.1117  -16.2173   21.7954 C   0  0  0  0  0  0  0  0  0  0  0  0
   11.5681  -15.0472   21.9383 O   0  0  0  0  0  0  0  0  0  0  0  0
   12.7409  -19.4467   19.6987 O   0  0  0  0  0  0  0  0  0  0  0  0
   10.1194  -16.6271   22.7370 N   0  0  0  0  0  0  0  0  0  0  0  0
    9.5657  -15.7744   23.7576 C   0  0  1  0  0  0  0  0  0  0  0  0
    8.0718  -15.9186   23.7566 C   0  0  0  0  0  0  0  0  0  0  0  0
    7.3859  -14.9190   24.6060 C   0  0  0  0  0  0  0  0  0  0  0  0
    7.8974  -13.8589   25.3021 C   0  0  0  0  0  0  0  0  0  0  0  0
    6.8820  -13.2364   25.9284 N   0  0  0  0  0  0  0  0  0  0  0  0
    5.7455  -13.8695   25.6502 C   0  0  0  0  0  0  0  0  0  0  0  0
    6.0644  -14.8916   24.8448 N   0  0  0  0  0  0  0  0  0  0  0  0
   10.1487  -16.0678   25.1006 C   0  0  0  0  0  0  0  0  0  0  0  0
   10.7623  -17.1492   25.2842 O   0  0  0  0  0  0  0  0  0  0  0  0
   11.1664  -13.0534   27.7459 C   0  0  0  0  0  0  0  0  0  0  0  0
   10.5925  -14.2787   28.4097 C   0  0  1  0  0  0  0  0  0  0  0  0
    9.2191  -13.9263   28.9162 C   0  0  0  0  0  0  0  0  0  0  0  0
   10.6260  -15.4455   27.5021 C   0  0  2  0  0  0  0  0  0  0  0  0
   10.0433  -15.1744   26.1953 N   0  0  0  0  0  0  0  0  0  0  0  0
    9.9192  -16.5835   28.1617 C   0  0  0  0  0  0  0  0  0  0  0  0
    8.8559  -17.0135   27.6726 O   0  0  0  0  0  0  0  0  0  0  0  0
   10.4325  -17.1750   29.3211 O   0  0  0  0  0  0  0  0  0  0  0  0
  2  1  1  6
  2  3  1  0
  2  6  1  0
  4  8  1  0
  4  3  1  0
  5  4  2  0
  6  7  2  0
  9  6  1  0
  9 10  1  0
 10 11  1  1
 11 12  1  0
 12 13  2  0
 14 13  1  0
 15 14  1  0
 16 15  2  0
 16 12  1  0
 17 10  1  0
 17 18  2  0
 20 19  1  6
 20 22  1  0
 21 20  1  0
 22 23  1  6
 22 24  1  0
 23 17  1  0
 24 26  1  0
 25 24  2  0
M  END
$$$$
