DHV.pdb
     RDKit          3D

 26 26  0  0  1  0  0  0  0  0999 V2000
    9.1480  -17.8642   20.4050 N   0  0  0  0  0  0  0  0  0  0  0  0
    8.1452  -16.8155   20.3528 C   0  0  1  0  0  0  0  0  0  0  0  0
    7.0368  -17.2027   19.4054 C   0  0  0  0  0  0  0  0  0  0  0  0
    7.5243  -17.3889   18.0220 C   0  0  0  0  0  0  0  0  0  0  0  0
    8.7313  -17.2482   17.7592 O   0  0  0  0  0  0  0  0  0  0  0  0
    7.6424  -16.5943   21.7339 C   0  0  0  0  0  0  0  0  0  0  0  0
    6.5792  -15.9460   21.9515 O   0  0  0  0  0  0  0  0  0  0  0  0
    6.6413  -17.7185   17.0229 O   0  0  0  0  0  0  0  0  0  0  0  0
    8.3228  -17.0955   22.8851 N   0  0  0  0  0  0  0  0  0  0  0  0
    7.8559  -16.9371   24.2386 C   0  0  1  0  0  0  0  0  0  0  0  0
    8.3221  -18.1065   25.0557 C   0  0  0  0  0  0  0  0  0  0  0  0
    7.5931  -19.3593   24.7551 C   0  0  0  0  0  0  0  0  0  0  0  0
    6.4512  -19.8661   25.3112 C   0  0  0  0  0  0  0  0  0  0  0  0
    6.1724  -21.0365   24.7085 N   0  0  0  0  0  0  0  0  0  0  0  0
    7.1015  -21.2852   23.7896 C   0  0  0  0  0  0  0  0  0  0  0  0
    7.9608  -20.2578   23.8269 N   0  0  0  0  0  0  0  0  0  0  0  0
    8.2983  -15.6387   24.8285 C   0  0  0  0  0  0  0  0  0  0  0  0
    9.4599  -15.2189   24.5958 O   0  0  0  0  0  0  0  0  0  0  0  0
    7.1901  -11.3895   27.1478 C   0  0  0  0  0  0  0  0  0  0  0  0
    6.7443  -12.6278   26.4136 C   0  0  1  0  0  0  0  0  0  0  0  0
    6.0516  -12.1890   25.1508 C   0  0  0  0  0  0  0  0  0  0  0  0
    7.8728  -13.5584   26.1973 C   0  0  2  0  0  0  0  0  0  0  0  0
    7.4614  -14.8439   25.6503 N   0  0  0  0  0  0  0  0  0  0  0  0
    8.5890  -13.7491   27.4935 C   0  0  0  0  0  0  0  0  0  0  0  0
    9.1223  -12.7699   28.0515 O   0  0  0  0  0  0  0  0  0  0  0  0
    8.6708  -15.0112   28.0919 O   0  0  0  0  0  0  0  0  0  0  0  0
  2  1  1  1
  2  3  1  0
  2  6  1  0
  4  8  1  0
  4  3  1  0
  5  4  2  0
  6  7  2  0
  9  6  1  0
  9 10  1  0
 10 11  1  1
 11 12  1  0
 12 13  2  0
 14 13  1  0
 15 14  1  0
 16 15  2  0
 16 12  1  0
 17 10  1  0
 17 18  2  0
 20 19  1  6
 20 22  1  0
 21 20  1  0
 22 23  1  1
 22 24  1  0
 23 17  1  0
 24 26  1  0
 25 24  2  0
M  END
$$$$
