DHV.pdb
     RDKit          3D

 26 26  0  0  1  0  0  0  0  0999 V2000
   12.9429  -18.1369   20.1141 N   0  0  0  0  0  0  0  0  0  0  0  0
   13.3970  -17.5548   21.3644 C   0  0  1  0  0  0  0  0  0  0  0  0
   14.3912  -16.4527   21.0940 C   0  0  0  0  0  0  0  0  0  0  0  0
   15.7692  -16.9679   20.9462 C   0  0  0  0  0  0  0  0  0  0  0  0
   16.6960  -16.1982   20.6391 O   0  0  0  0  0  0  0  0  0  0  0  0
   12.2035  -17.0574   22.0976 C   0  0  0  0  0  0  0  0  0  0  0  0
   11.5824  -16.0235   21.7195 O   0  0  0  0  0  0  0  0  0  0  0  0
   16.0275  -18.3017   21.1488 O   0  0  0  0  0  0  0  0  0  0  0  0
   11.6929  -17.7108   23.2602 N   0  0  0  0  0  0  0  0  0  0  0  0
   10.5444  -17.2633   24.0059 C   0  0  1  0  0  0  0  0  0  0  0  0
    9.4621  -18.2979   23.9026 C   0  0  0  0  0  0  0  0  0  0  0  0
    8.8180  -18.3413   22.5706 C   0  0  0  0  0  0  0  0  0  0  0  0
    8.9212  -19.2730   21.5750 C   0  0  0  0  0  0  0  0  0  0  0  0
    8.1466  -18.8795   20.5474 N   0  0  0  0  0  0  0  0  0  0  0  0
    7.5575  -17.7290   20.8620 C   0  0  0  0  0  0  0  0  0  0  0  0
    7.9734  -17.4112   22.0954 N   0  0  0  0  0  0  0  0  0  0  0  0
   10.8896  -16.9638   25.4274 C   0  0  0  0  0  0  0  0  0  0  0  0
   11.8712  -17.5411   25.9590 O   0  0  0  0  0  0  0  0  0  0  0  0
   10.2997  -14.0965   29.4495 C   0  0  0  0  0  0  0  0  0  0  0  0
    9.7641  -14.5404   28.1125 C   0  0  1  0  0  0  0  0  0  0  0  0
    9.7189  -13.3344   27.2123 C   0  0  0  0  0  0  0  0  0  0  0  0
   10.5436  -15.6747   27.5724 C   0  0  2  0  0  0  0  0  0  0  0  0
   10.1544  -16.0473   26.2193 N   0  0  0  0  0  0  0  0  0  0  0  0
   10.3952  -16.8385   28.4961 C   0  0  0  0  0  0  0  0  0  0  0  0
    9.5457  -17.7166   28.2475 O   0  0  0  0  0  0  0  0  0  0  0  0
   11.1958  -16.9585   29.6372 O   0  0  0  0  0  0  0  0  0  0  0  0
  2  1  1  6
  2  3  1  0
  2  6  1  0
  4  8  1  0
  4  3  1  0
  5  4  2  0
  6  7  2  0
  9  6  1  0
  9 10  1  0
 10 11  1  1
 11 12  1  0
 12 13  2  0
 14 13  1  0
 15 14  1  0
 16 15  2  0
 16 12  1  0
 17 10  1  0
 17 18  2  0
 20 19  1  1
 20 22  1  0
 21 20  1  0
 22 23  1  6
 22 24  1  0
 23 17  1  0
 24 26  1  0
 25 24  2  0
M  END
$$$$
