IAI.pdb
     RDKit          3D

 22 21  0  0  1  0  0  0  0  0999 V2000
    7.5613  -12.0083   18.8303 C   0  0  0  0  0  0  0  0  0  0  0  0
    7.8181  -13.5139   18.7051 C   0  0  0  0  0  0  0  0  0  0  0  0
    7.6945  -14.1102   20.0702 C   0  0  2  0  0  0  0  0  0  0  0  0
    8.6412  -13.3770   20.9966 C   0  0  0  0  0  0  0  0  0  0  0  0
    7.8651  -15.5916   20.1425 C   0  0  2  0  0  0  0  0  0  0  0  0
    6.8892  -16.1791   19.2437 N   0  0  0  0  0  0  0  0  0  0  0  0
    7.7176  -16.1210   21.5226 C   0  0  0  0  0  0  0  0  0  0  0  0
    6.6162  -16.0363   22.1154 O   0  0  0  0  0  0  0  0  0  0  0  0
    9.3190  -18.5143   23.7311 C   0  0  0  0  0  0  0  0  0  0  0  0
    8.6337  -17.1564   23.6094 C   0  0  2  0  0  0  0  0  0  0  0  0
    8.7745  -16.7356   22.2371 N   0  0  0  0  0  0  0  0  0  0  0  0
    9.2021  -16.1769   24.5624 C   0  0  0  0  0  0  0  0  0  0  0  0
   10.2653  -15.5904   24.2687 O   0  0  0  0  0  0  0  0  0  0  0  0
    6.5336  -12.1171   26.3267 C   0  0  0  0  0  0  0  0  0  0  0  0
    7.5971  -13.0894   25.9770 C   0  0  0  0  0  0  0  0  0  0  0  0
    8.2459  -13.8007   27.1099 C   0  0  2  0  0  0  0  0  0  0  0  0
    8.9417  -12.7931   28.0468 C   0  0  0  0  0  0  0  0  0  0  0  0
    9.1649  -14.9230   26.7710 C   0  0  2  0  0  0  0  0  0  0  0  0
    8.6040  -15.8580   25.8093 N   0  0  0  0  0  0  0  0  0  0  0  0
    9.8376  -15.5837   27.8903 C   0  0  0  0  0  0  0  0  0  0  0  0
    9.4932  -16.7011   28.3578 O   0  0  0  0  0  0  0  0  0  0  0  0
   10.9481  -15.0155   28.5542 O   0  0  0  0  0  0  0  0  0  0  0  0
  2  1  1  0
  3  5  1  0
  3  2  1  0
  3  4  1  1
  5  6  1  6
  7 11  1  0
  7  5  1  0
  8  7  2  0
 10  9  1  6
 10 12  1  0
 10 11  1  0
 12 19  1  0
 13 12  2  0
 14 15  1  0
 16 15  1  0
 16 17  1  6
 18 20  1  0
 18 16  1  0
 18 19  1  1
 20 22  1  0
 21 20  2  0
M  END
$$$$
