IAI.pdb
     RDKit          3D

 22 21  0  0  1  0  0  0  0  0999 V2000
    7.2302  -12.0973   18.9062 C   0  0  0  0  0  0  0  0  0  0  0  0
    7.5911  -13.5824   18.7939 C   0  0  0  0  0  0  0  0  0  0  0  0
    7.6934  -14.1303   20.1810 C   0  0  2  0  0  0  0  0  0  0  0  0
    8.6877  -13.2886   20.9523 C   0  0  0  0  0  0  0  0  0  0  0  0
    7.9934  -15.5899   20.2750 C   0  0  2  0  0  0  0  0  0  0  0  0
    7.0160  -16.2812   19.4552 N   0  0  0  0  0  0  0  0  0  0  0  0
    7.9788  -16.0911   21.6733 C   0  0  0  0  0  0  0  0  0  0  0  0
    6.9167  -16.0699   22.3391 O   0  0  0  0  0  0  0  0  0  0  0  0
    9.9813  -18.3342   23.7332 C   0  0  0  0  0  0  0  0  0  0  0  0
    9.0804  -17.1038   23.6801 C   0  0  2  0  0  0  0  0  0  0  0  0
    9.1238  -16.6087   22.3262 N   0  0  0  0  0  0  0  0  0  0  0  0
    9.4987  -16.0847   24.6685 C   0  0  0  0  0  0  0  0  0  0  0  0
   10.5166  -15.3979   24.4391 O   0  0  0  0  0  0  0  0  0  0  0  0
    6.8524  -11.9895   26.3635 C   0  0  0  0  0  0  0  0  0  0  0  0
    7.8655  -13.0319   26.0703 C   0  0  0  0  0  0  0  0  0  0  0  0
    8.3558  -13.8262   27.2273 C   0  0  2  0  0  0  0  0  0  0  0  0
    8.9567  -12.8957   28.2997 C   0  0  0  0  0  0  0  0  0  0  0  0
    9.2823  -14.9549   26.9332 C   0  0  2  0  0  0  0  0  0  0  0  0
    8.8032  -15.8357   25.8804 N   0  0  0  0  0  0  0  0  0  0  0  0
    9.8261  -15.6771   28.0842 C   0  0  0  0  0  0  0  0  0  0  0  0
    9.3177  -16.7260   28.5610 O   0  0  0  0  0  0  0  0  0  0  0  0
   10.9857  -15.2527   28.7712 O   0  0  0  0  0  0  0  0  0  0  0  0
  2  1  1  0
  3  5  1  0
  3  2  1  0
  3  4  1  1
  5  6  1  6
  7 11  1  0
  7  5  1  0
  8  7  2  0
 10  9  1  6
 10 12  1  0
 10 11  1  0
 12 19  1  0
 13 12  2  0
 14 15  1  0
 16 15  1  0
 16 17  1  1
 18 20  1  0
 18 16  1  0
 18 19  1  6
 20 22  1  0
 21 20  2  0
M  END
$$$$
