IAI.pdb
     RDKit          3D

 22 21  0  0  1  0  0  0  0  0999 V2000
    6.8811  -12.0821   20.7242 C   0  0  0  0  0  0  0  0  0  0  0  0
    6.9946  -13.5757   20.4008 C   0  0  0  0  0  0  0  0  0  0  0  0
    7.6808  -14.2381   21.5518 C   0  0  2  0  0  0  0  0  0  0  0  0
    8.9909  -13.5213   21.8004 C   0  0  0  0  0  0  0  0  0  0  0  0
    7.8576  -15.7157   21.4309 C   0  0  2  0  0  0  0  0  0  0  0  0
    6.5346  -16.2949   21.2912 N   0  0  0  0  0  0  0  0  0  0  0  0
    8.5871  -16.3039   22.5835 C   0  0  0  0  0  0  0  0  0  0  0  0
    7.9616  -16.9280   23.4728 O   0  0  0  0  0  0  0  0  0  0  0  0
   12.1364  -17.1437   23.1958 C   0  0  0  0  0  0  0  0  0  0  0  0
   10.7096  -16.9955   23.7161 C   0  0  2  0  0  0  0  0  0  0  0  0
    9.9897  -16.2028   22.7500 N   0  0  0  0  0  0  0  0  0  0  0  0
   10.6873  -16.3957   25.0690 C   0  0  0  0  0  0  0  0  0  0  0  0
   11.6039  -16.6727   25.8713 O   0  0  0  0  0  0  0  0  0  0  0  0
    7.0157  -12.2062   25.9049 C   0  0  0  0  0  0  0  0  0  0  0  0
    8.2459  -13.0291   25.8134 C   0  0  0  0  0  0  0  0  0  0  0  0
    8.5652  -13.8801   26.9898 C   0  0  2  0  0  0  0  0  0  0  0  0
    8.8126  -13.0033   28.2337 C   0  0  0  0  0  0  0  0  0  0  0  0
    9.6561  -14.8814   26.8284 C   0  0  2  0  0  0  0  0  0  0  0  0
    9.6724  -15.5111   25.5180 N   0  0  0  0  0  0  0  0  0  0  0  0
    9.8450  -15.8317   27.9254 C   0  0  0  0  0  0  0  0  0  0  0  0
    9.3328  -16.9817   27.9562 O   0  0  0  0  0  0  0  0  0  0  0  0
   10.6295  -15.5357   29.0628 O   0  0  0  0  0  0  0  0  0  0  0  0
  2  1  1  0
  3  5  1  0
  3  2  1  0
  3  4  1  6
  5  6  1  1
  7 11  1  0
  7  5  1  0
  8  7  2  0
 10  9  1  6
 10 12  1  0
 10 11  1  0
 12 19  1  0
 13 12  2  0
 14 15  1  0
 16 15  1  0
 16 17  1  1
 18 20  1  0
 18 16  1  0
 18 19  1  6
 20 22  1  0
 21 20  2  0
M  END
$$$$
