IAI.pdb
     RDKit          3D

 22 21  0  0  1  0  0  0  0  0999 V2000
    8.1402  -11.8396   20.0807 C   0  0  0  0  0  0  0  0  0  0  0  0
    8.7586  -13.2094   20.3799 C   0  0  0  0  0  0  0  0  0  0  0  0
    7.8642  -14.2500   19.7869 C   0  0  2  0  0  0  0  0  0  0  0  0
    6.4636  -14.0320   20.3187 C   0  0  0  0  0  0  0  0  0  0  0  0
    8.3207  -15.6616   19.9551 C   0  0  2  0  0  0  0  0  0  0  0  0
    7.5338  -16.4766   19.0485 N   0  0  0  0  0  0  0  0  0  0  0  0
    8.2021  -16.1414   21.3559 C   0  0  0  0  0  0  0  0  0  0  0  0
    7.0722  -16.3572   21.8544 O   0  0  0  0  0  0  0  0  0  0  0  0
   10.0591  -18.1245   23.6424 C   0  0  0  0  0  0  0  0  0  0  0  0
    9.1789  -16.8823   23.5383 C   0  0  2  0  0  0  0  0  0  0  0  0
    9.3185  -16.3792   22.1939 N   0  0  0  0  0  0  0  0  0  0  0  0
    9.5429  -15.8750   24.5597 C   0  0  0  0  0  0  0  0  0  0  0  0
   10.5563  -15.1669   24.3803 O   0  0  0  0  0  0  0  0  0  0  0  0
    6.3246  -12.1574   26.3180 C   0  0  0  0  0  0  0  0  0  0  0  0
    7.5005  -13.0016   25.9967 C   0  0  0  0  0  0  0  0  0  0  0  0
    8.1167  -13.7416   27.1293 C   0  0  2  0  0  0  0  0  0  0  0  0
    8.6062  -12.7565   28.2096 C   0  0  0  0  0  0  0  0  0  0  0  0
    9.1823  -14.7281   26.7973 C   0  0  2  0  0  0  0  0  0  0  0  0
    8.7995  -15.6606   25.7495 N   0  0  0  0  0  0  0  0  0  0  0  0
    9.8552  -15.3746   27.9248 C   0  0  0  0  0  0  0  0  0  0  0  0
    9.6810  -16.5780   28.2522 O   0  0  0  0  0  0  0  0  0  0  0  0
   10.7719  -14.6934   28.7570 O   0  0  0  0  0  0  0  0  0  0  0  0
  2  1  1  0
  3  5  1  0
  3  2  1  0
  3  4  1  1
  5  6  1  6
  7 11  1  0
  7  5  1  0
  8  7  2  0
 10  9  1  6
 10 12  1  0
 10 11  1  0
 12 19  1  0
 13 12  2  0
 14 15  1  0
 16 15  1  0
 16 17  1  1
 18 20  1  0
 18 16  1  0
 18 19  1  6
 20 22  1  0
 21 20  2  0
M  END
$$$$
