IAI.pdb
     RDKit          3D

 22 21  0  0  1  0  0  0  0  0999 V2000
    7.7195  -12.0667   18.9790 C   0  0  0  0  0  0  0  0  0  0  0  0
    7.8307  -13.5922   18.8857 C   0  0  0  0  0  0  0  0  0  0  0  0
    7.7216  -14.1406   20.2720 C   0  0  2  0  0  0  0  0  0  0  0  0
    8.7751  -13.4739   21.1310 C   0  0  0  0  0  0  0  0  0  0  0  0
    7.7618  -15.6292   20.3795 C   0  0  2  0  0  0  0  0  0  0  0  0
    6.6730  -16.1460   19.5716 N   0  0  0  0  0  0  0  0  0  0  0  0
    7.6689  -16.1072   21.7829 C   0  0  0  0  0  0  0  0  0  0  0  0
    6.6068  -15.9548   22.4313 O   0  0  0  0  0  0  0  0  0  0  0  0
    9.3298  -18.5027   23.9604 C   0  0  0  0  0  0  0  0  0  0  0  0
    8.6425  -17.1455   23.8421 C   0  0  2  0  0  0  0  0  0  0  0  0
    8.7367  -16.7452   22.4598 N   0  0  0  0  0  0  0  0  0  0  0  0
    9.2444  -16.1531   24.7605 C   0  0  0  0  0  0  0  0  0  0  0  0
   10.2926  -15.5661   24.4180 O   0  0  0  0  0  0  0  0  0  0  0  0
    6.4723  -12.2085   26.8406 C   0  0  0  0  0  0  0  0  0  0  0  0
    7.5546  -13.1038   26.3655 C   0  0  0  0  0  0  0  0  0  0  0  0
    8.3304  -13.8214   27.4112 C   0  0  2  0  0  0  0  0  0  0  0  0
    9.0353  -12.8139   28.3412 C   0  0  0  0  0  0  0  0  0  0  0  0
    9.2856  -14.8677   26.9509 C   0  0  2  0  0  0  0  0  0  0  0  0
    8.6951  -15.8220   26.0266 N   0  0  0  0  0  0  0  0  0  0  0  0
   10.1148  -15.4996   27.9781 C   0  0  0  0  0  0  0  0  0  0  0  0
   11.1328  -14.9628   28.4893 O   0  0  0  0  0  0  0  0  0  0  0  0
    9.8412  -16.7872   28.4920 O   0  0  0  0  0  0  0  0  0  0  0  0
  2  1  1  0
  3  5  1  0
  3  2  1  0
  3  4  1  1
  5  6  1  6
  7 11  1  0
  7  5  1  0
  8  7  2  0
 10  9  1  6
 10 12  1  0
 10 11  1  0
 12 19  1  0
 13 12  2  0
 14 15  1  0
 16 15  1  0
 16 17  1  6
 18 20  1  0
 18 16  1  0
 18 19  1  1
 20 22  1  0
 21 20  2  0
M  END
$$$$
