IAI.pdb
     RDKit          3D

 22 21  0  0  1  0  0  0  0  0999 V2000
    7.2298  -12.8137   17.5539 C   0  0  0  0  0  0  0  0  0  0  0  0
    8.2998  -13.7298   18.1574 C   0  0  0  0  0  0  0  0  0  0  0  0
    7.9344  -13.9740   19.5862 C   0  0  2  0  0  0  0  0  0  0  0  0
    7.8747  -12.6383   20.2964 C   0  0  0  0  0  0  0  0  0  0  0  0
    8.7894  -14.9620   20.3085 C   0  0  2  0  0  0  0  0  0  0  0  0
    8.8451  -16.1587   19.4900 N   0  0  0  0  0  0  0  0  0  0  0  0
    8.2909  -15.2634   21.6750 C   0  0  0  0  0  0  0  0  0  0  0  0
    8.0278  -14.3302   22.4698 O   0  0  0  0  0  0  0  0  0  0  0  0
    7.5744  -18.3635   23.6551 C   0  0  0  0  0  0  0  0  0  0  0  0
    7.6182  -16.8468   23.4934 C   0  0  2  0  0  0  0  0  0  0  0  0
    8.0862  -16.5796   22.1557 N   0  0  0  0  0  0  0  0  0  0  0  0
    8.4706  -16.2176   24.5269 C   0  0  0  0  0  0  0  0  0  0  0  0
    9.7058  -16.1668   24.3470 O   0  0  0  0  0  0  0  0  0  0  0  0
    6.2889  -11.9561   27.0578 C   0  0  0  0  0  0  0  0  0  0  0  0
    7.1984  -12.9278   26.4043 C   0  0  0  0  0  0  0  0  0  0  0  0
    8.0276  -13.7714   27.3048 C   0  0  2  0  0  0  0  0  0  0  0  0
    8.9877  -12.8910   28.1296 C   0  0  0  0  0  0  0  0  0  0  0  0
    8.7616  -14.9097   26.6849 C   0  0  2  0  0  0  0  0  0  0  0  0
    7.9628  -15.6595   25.7290 N   0  0  0  0  0  0  0  0  0  0  0  0
    9.5317  -15.7663   27.5878 C   0  0  0  0  0  0  0  0  0  0  0  0
    9.1745  -16.9224   27.9364 O   0  0  0  0  0  0  0  0  0  0  0  0
   10.7610  -15.3631   28.1563 O   0  0  0  0  0  0  0  0  0  0  0  0
  2  1  1  0
  3  5  1  0
  3  2  1  0
  3  4  1  1
  5  6  1  6
  7 11  1  0
  7  5  1  0
  8  7  2  0
 10  9  1  1
 10 12  1  0
 10 11  1  0
 12 19  1  0
 13 12  2  0
 14 15  1  0
 16 15  1  0
 16 17  1  6
 18 20  1  0
 18 16  1  0
 18 19  1  1
 20 22  1  0
 21 20  2  0
M  END
$$$$
