YWD.pdb
     RDKit          3D

 35 37  0  0  1  0  0  0  0  0999 V2000
   29.3038  -20.5813  -22.4463 O   0  0  0  0  0  0  0  0  0  0  0  0
   28.6882  -20.7685  -21.2053 C   0  0  0  0  0  0  0  0  0  0  0  0
   29.0899  -20.0657  -20.0896 C   0  0  0  0  0  0  0  0  0  0  0  0
   28.4609  -20.2721  -18.8713 C   0  0  0  0  0  0  0  0  0  0  0  0
   27.4338  -21.1861  -18.7954 C   0  0  0  0  0  0  0  0  0  0  0  0
   26.7556  -21.4133  -17.4930 C   0  0  0  0  0  0  0  0  0  0  0  0
   27.6442  -22.1248  -16.5121 C   0  0  2  0  0  0  0  0  0  0  0  0
   27.8900  -23.4706  -16.9216 N   0  0  0  0  0  0  0  0  0  0  0  0
   26.9784  -22.0559  -15.1718 C   0  0  0  0  0  0  0  0  0  0  0  0
   26.0041  -22.7946  -14.8913 O   0  0  0  0  0  0  0  0  0  0  0  0
   27.0255  -21.8910  -19.8985 C   0  0  0  0  0  0  0  0  0  0  0  0
   27.6597  -21.6760  -21.1040 C   0  0  0  0  0  0  0  0  0  0  0  0
   27.4431  -21.1366  -14.1702 N   0  0  0  0  0  0  0  0  0  0  0  0
   26.7512  -21.0358  -12.9437 C   0  0  1  0  0  0  0  0  0  0  0  0
   27.3793  -20.1807  -11.8816 C   0  0  0  0  0  0  0  0  0  0  0  0
   26.6484  -20.1732  -10.6033 C   0  0  0  0  0  0  0  0  0  0  0  0
   25.2690  -20.0298  -10.4265 C   0  0  0  0  0  0  0  0  0  0  0  0
   24.9815  -20.0578   -9.1237 N   0  0  0  0  0  0  0  0  0  0  0  0
   26.1136  -20.2156   -8.3991 C   0  0  0  0  0  0  0  0  0  0  0  0
   26.3192  -20.3062   -7.0377 C   0  0  0  0  0  0  0  0  0  0  0  0
   27.5896  -20.4746   -6.5546 C   0  0  0  0  0  0  0  0  0  0  0  0
   28.6244  -20.5475   -7.4623 C   0  0  0  0  0  0  0  0  0  0  0  0
   28.4264  -20.4576   -8.8219 C   0  0  0  0  0  0  0  0  0  0  0  0
   27.1506  -20.2871   -9.3268 C   0  0  0  0  0  0  0  0  0  0  0  0
   25.3378  -20.6027  -13.0715 C   0  0  0  0  0  0  0  0  0  0  0  0
   25.1438  -19.4430  -13.5208 O   0  0  0  0  0  0  0  0  0  0  0  0
   24.2231  -21.3816  -12.7328 N   0  0  0  0  0  0  0  0  0  0  0  0
   22.8516  -20.9599  -13.0044 C   0  0  1  0  0  0  0  0  0  0  0  0
   22.1312  -22.1818  -13.4976 C   0  0  0  0  0  0  0  0  0  0  0  0
   20.6982  -21.9757  -13.7845 C   0  0  0  0  0  0  0  0  0  0  0  0
   20.1755  -20.8090  -13.6870 O   0  0  0  0  0  0  0  0  0  0  0  0
   22.2188  -20.5555  -11.7028 C   0  0  0  0  0  0  0  0  0  0  0  0
   21.3325  -19.5237  -11.5570 O   0  0  0  0  0  0  0  0  0  0  0  0
   19.8851  -23.0309  -14.1620 O   0  0  0  0  0  0  0  0  0  0  0  0
   22.5405  -21.2266  -10.6845 O   0  0  0  0  0  0  0  0  0  0  0  0
  2  1  1  0
  3  2  2  0
  4  3  1  0
  5  4  2  0
  5 11  1  0
  6  5  1  0
  7  6  1  0
  7  8  1  6
  9  7  1  0
  9 13  1  0
 10  9  2  0
 11 12  2  0
 12  2  1  0
 14 13  1  0
 14 25  1  0
 14 15  1  1
 16 17  2  0
 16 15  1  0
 18 17  1  0
 19 24  2  0
 19 18  1  0
 20 19  1  0
 21 22  1  0
 21 20  2  0
 22 23  2  0
 23 24  1  0
 24 16  1  0
 25 27  1  0
 25 26  2  0
 27 28  1  0
 28 29  1  1
 30 31  2  0
 30 29  1  0
 32 28  1  0
 32 33  1  0
 34 30  1  0
 35 32  2  0
M  END
$$$$
