YWD.pdb
     RDKit          3D

 35 37  0  0  1  0  0  0  0  0999 V2000
   25.3925  -17.0452  -18.2064 O   0  0  0  0  0  0  0  0  0  0  0  0
   25.0823  -17.7575  -17.0442 C   0  0  0  0  0  0  0  0  0  0  0  0
   24.6177  -19.0541  -17.0975 C   0  0  0  0  0  0  0  0  0  0  0  0
   24.3180  -19.7362  -15.9281 C   0  0  0  0  0  0  0  0  0  0  0  0
   24.4914  -19.0998  -14.7194 C   0  0  0  0  0  0  0  0  0  0  0  0
   24.1713  -19.8240  -13.4622 C   0  0  0  0  0  0  0  0  0  0  0  0
   25.4005  -20.3927  -12.8114 C   0  0  2  0  0  0  0  0  0  0  0  0
   26.0498  -21.3321  -13.6690 N   0  0  0  0  0  0  0  0  0  0  0  0
   24.9760  -21.0124  -11.5152 C   0  0  0  0  0  0  0  0  0  0  0  0
   24.5224  -22.1811  -11.4712 O   0  0  0  0  0  0  0  0  0  0  0  0
   24.9530  -17.8101  -14.6541 C   0  0  0  0  0  0  0  0  0  0  0  0
   25.2473  -17.1433  -15.8247 C   0  0  0  0  0  0  0  0  0  0  0  0
   25.0792  -20.2780  -10.2846 N   0  0  0  0  0  0  0  0  0  0  0  0
   24.6526  -20.8767   -9.0793 C   0  0  1  0  0  0  0  0  0  0  0  0
   25.2350  -20.3282   -7.8090 C   0  0  0  0  0  0  0  0  0  0  0  0
   26.7055  -20.3773   -7.7495 C   0  0  0  0  0  0  0  0  0  0  0  0
   27.5695  -20.8592   -8.7374 C   0  0  0  0  0  0  0  0  0  0  0  0
   28.8312  -20.7539   -8.3160 N   0  0  0  0  0  0  0  0  0  0  0  0
   28.8653  -20.2167   -7.0742 C   0  0  0  0  0  0  0  0  0  0  0  0
   29.9225  -19.9137   -6.2410 C   0  0  0  0  0  0  0  0  0  0  0  0
   29.6790  -19.3583   -5.0130 C   0  0  0  0  0  0  0  0  0  0  0  0
   28.3687  -19.1220   -4.6562 C   0  0  0  0  0  0  0  0  0  0  0  0
   27.3091  -19.4221   -5.4826 C   0  0  0  0  0  0  0  0  0  0  0  0
   27.5367  -19.9834   -6.7255 C   0  0  0  0  0  0  0  0  0  0  0  0
   23.1799  -20.9150   -8.9019 C   0  0  0  0  0  0  0  0  0  0  0  0
   22.5479  -19.8754   -9.2247 O   0  0  0  0  0  0  0  0  0  0  0  0
   22.4563  -22.0090   -8.4086 N   0  0  0  0  0  0  0  0  0  0  0  0
   20.9971  -22.0334   -8.3564 C   0  0  1  0  0  0  0  0  0  0  0  0
   20.5478  -22.7177   -9.6154 C   0  0  0  0  0  0  0  0  0  0  0  0
   19.7339  -21.8765  -10.5144 C   0  0  0  0  0  0  0  0  0  0  0  0
   19.4160  -20.6808  -10.1775 O   0  0  0  0  0  0  0  0  0  0  0  0
   20.5836  -22.8977   -7.1988 C   0  0  0  0  0  0  0  0  0  0  0  0
   21.4315  -23.7018   -6.4875 O   0  0  0  0  0  0  0  0  0  0  0  0
   19.2929  -22.3542  -11.7369 O   0  0  0  0  0  0  0  0  0  0  0  0
   19.3648  -22.8661   -6.8758 O   0  0  0  0  0  0  0  0  0  0  0  0
  2  1  1  0
  3  2  2  0
  4  3  1  0
  5  4  2  0
  5 11  1  0
  6  5  1  0
  7  6  1  0
  7  8  1  6
  9  7  1  0
  9 13  1  0
 10  9  2  0
 11 12  2  0
 12  2  1  0
 14 13  1  0
 14 25  1  0
 14 15  1  1
 16 17  2  0
 16 15  1  0
 18 17  1  0
 19 24  2  0
 19 18  1  0
 20 19  1  0
 21 22  1  0
 21 20  2  0
 22 23  2  0
 23 24  1  0
 24 16  1  0
 25 27  1  0
 25 26  2  0
 27 28  1  0
 28 29  1  6
 30 31  2  0
 30 29  1  0
 32 28  1  0
 32 33  1  0
 34 30  1  0
 35 32  2  0
M  END
$$$$
