YWD.pdb
     RDKit          3D

 35 37  0  0  1  0  0  0  0  0999 V2000
   21.6971  -41.7895   -6.7371 O   0  0  0  0  0  0  0  0  0  0  0  0
   22.9009  -41.1683   -6.3916 C   0  0  0  0  0  0  0  0  0  0  0  0
   24.0905  -41.8642   -6.3741 C   0  0  0  0  0  0  0  0  0  0  0  0
   25.2694  -41.2219   -6.0272 C   0  0  0  0  0  0  0  0  0  0  0  0
   25.2316  -39.8844   -5.7023 C   0  0  0  0  0  0  0  0  0  0  0  0
   26.4906  -39.1895   -5.3286 C   0  0  0  0  0  0  0  0  0  0  0  0
   26.8958  -38.1683   -6.3537 C   0  0  2  0  0  0  0  0  0  0  0  0
   27.4318  -38.7937   -7.5203 N   0  0  0  0  0  0  0  0  0  0  0  0
   27.8827  -37.2474   -5.7038 C   0  0  0  0  0  0  0  0  0  0  0  0
   29.1146  -37.3656   -5.9086 O   0  0  0  0  0  0  0  0  0  0  0  0
   24.0540  -39.1817   -5.7163 C   0  0  0  0  0  0  0  0  0  0  0  0
   22.8889  -39.8327   -6.0631 C   0  0  0  0  0  0  0  0  0  0  0  0
   27.4385  -36.2008   -4.8254 N   0  0  0  0  0  0  0  0  0  0  0  0
   28.3898  -35.3592   -4.2091 C   0  0  1  0  0  0  0  0  0  0  0  0
   28.2042  -33.8809   -4.3928 C   0  0  0  0  0  0  0  0  0  0  0  0
   27.9544  -33.4732   -5.7856 C   0  0  0  0  0  0  0  0  0  0  0  0
   28.6520  -33.8952   -6.9213 C   0  0  0  0  0  0  0  0  0  0  0  0
   28.1465  -33.2980   -8.0022 N   0  0  0  0  0  0  0  0  0  0  0  0
   27.1265  -32.4811   -7.6501 C   0  0  0  0  0  0  0  0  0  0  0  0
   26.3047  -31.6712   -8.4068 C   0  0  0  0  0  0  0  0  0  0  0  0
   25.3251  -30.9376   -7.7921 C   0  0  0  0  0  0  0  0  0  0  0  0
   25.1997  -31.0410   -6.4233 C   0  0  0  0  0  0  0  0  0  0  0  0
   26.0164  -31.8470   -5.6623 C   0  0  0  0  0  0  0  0  0  0  0  0
   27.0106  -32.5941   -6.2663 C   0  0  0  0  0  0  0  0  0  0  0  0
   28.5685  -35.5980   -2.7555 C   0  0  0  0  0  0  0  0  0  0  0  0
   27.5784  -36.0696   -2.1377 O   0  0  0  0  0  0  0  0  0  0  0  0
   29.7425  -35.3397   -2.0352 N   0  0  0  0  0  0  0  0  0  0  0  0
   29.9098  -35.7162   -0.6342 C   0  0  1  0  0  0  0  0  0  0  0  0
   31.2652  -35.2131   -0.2279 C   0  0  0  0  0  0  0  0  0  0  0  0
   32.3388  -36.2242   -0.2878 C   0  0  0  0  0  0  0  0  0  0  0  0
   32.0622  -37.4552   -0.5158 O   0  0  0  0  0  0  0  0  0  0  0  0
   28.8881  -34.9706    0.1770 C   0  0  0  0  0  0  0  0  0  0  0  0
   28.2857  -33.8058   -0.2126 O   0  0  0  0  0  0  0  0  0  0  0  0
   33.6644  -35.8724   -0.0984 O   0  0  0  0  0  0  0  0  0  0  0  0
   28.5774  -35.4697    1.2930 O   0  0  0  0  0  0  0  0  0  0  0  0
  2  1  1  0
  3  2  2  0
  4  3  1  0
  5  4  2  0
  5 11  1  0
  6  5  1  0
  7  6  1  0
  7  8  1  6
  9  7  1  0
  9 13  1  0
 10  9  2  0
 11 12  2  0
 12  2  1  0
 14 13  1  0
 14 25  1  0
 14 15  1  1
 16 17  2  0
 16 15  1  0
 18 17  1  0
 19 24  2  0
 19 18  1  0
 20 19  1  0
 21 22  1  0
 21 20  2  0
 22 23  2  0
 23 24  1  0
 24 16  1  0
 25 27  1  0
 25 26  2  0
 27 28  1  0
 28 29  1  1
 30 31  2  0
 30 29  1  0
 32 28  1  0
 32 33  1  0
 34 30  1  0
 35 32  2  0
M  END
$$$$
