YWD.pdb
     RDKit          3D

 35 37  0  0  1  0  0  0  0  0999 V2000
   29.9825  -16.0042  -18.9105 O   0  0  0  0  0  0  0  0  0  0  0  0
   29.1908  -16.7923  -18.0701 C   0  0  0  0  0  0  0  0  0  0  0  0
   28.9356  -16.4226  -16.7670 C   0  0  0  0  0  0  0  0  0  0  0  0
   28.1466  -17.2244  -15.9562 C   0  0  0  0  0  0  0  0  0  0  0  0
   27.6251  -18.3896  -16.4722 C   0  0  0  0  0  0  0  0  0  0  0  0
   26.7795  -19.2543  -15.6092 C   0  0  0  0  0  0  0  0  0  0  0  0
   27.6046  -20.1494  -14.7283 C   0  0  2  0  0  0  0  0  0  0  0  0
   28.3367  -21.1008  -15.5017 N   0  0  0  0  0  0  0  0  0  0  0  0
   26.6716  -20.8088  -13.7593 C   0  0  0  0  0  0  0  0  0  0  0  0
   26.1469  -21.9191  -14.0151 O   0  0  0  0  0  0  0  0  0  0  0  0
   27.8721  -18.7676  -17.7671 C   0  0  0  0  0  0  0  0  0  0  0  0
   28.6584  -17.9610  -18.5626 C   0  0  0  0  0  0  0  0  0  0  0  0
   26.3540  -20.1811  -12.5065 N   0  0  0  0  0  0  0  0  0  0  0  0
   25.4848  -20.8308  -11.6034 C   0  0  1  0  0  0  0  0  0  0  0  0
   25.6931  -20.5491  -10.1436 C   0  0  0  0  0  0  0  0  0  0  0  0
   27.0662  -20.7952   -9.6720 C   0  0  0  0  0  0  0  0  0  0  0  0
   28.0603  -21.5270  -10.3286 C   0  0  0  0  0  0  0  0  0  0  0  0
   29.1677  -21.5417   -9.5843 N   0  0  0  0  0  0  0  0  0  0  0  0
   28.9705  -20.8462   -8.4402 C   0  0  0  0  0  0  0  0  0  0  0  0
   29.8109  -20.5810   -7.3785 C   0  0  0  0  0  0  0  0  0  0  0  0
   29.3568  -19.8307   -6.3267 C   0  0  0  0  0  0  0  0  0  0  0  0
   28.0602  -19.3653   -6.3738 C   0  0  0  0  0  0  0  0  0  0  0  0
   27.2162  -19.6264   -7.4300 C   0  0  0  0  0  0  0  0  0  0  0  0
   27.6581  -20.3824   -8.4998 C   0  0  0  0  0  0  0  0  0  0  0  0
   24.0427  -20.6241  -11.8850 C   0  0  0  0  0  0  0  0  0  0  0  0
   23.6499  -19.4305  -11.9580 O   0  0  0  0  0  0  0  0  0  0  0  0
   23.1040  -21.6476  -12.0722 N   0  0  0  0  0  0  0  0  0  0  0  0
   21.6977  -21.3867  -12.3673 C   0  0  1  0  0  0  0  0  0  0  0  0
   21.1135  -22.7006  -12.8005 C   0  0  0  0  0  0  0  0  0  0  0  0
   19.6939  -22.6395  -13.1997 C   0  0  0  0  0  0  0  0  0  0  0  0
   19.2826  -21.7323  -14.0070 O   0  0  0  0  0  0  0  0  0  0  0  0
   21.0165  -20.9876  -11.0888 C   0  0  0  0  0  0  0  0  0  0  0  0
   21.5052  -21.2398   -9.8362 O   0  0  0  0  0  0  0  0  0  0  0  0
   18.7741  -23.5533  -12.7141 O   0  0  0  0  0  0  0  0  0  0  0  0
   19.9175  -20.3785  -11.1991 O   0  0  0  0  0  0  0  0  0  0  0  0
  2  1  1  0
  3  2  2  0
  4  3  1  0
  5  4  2  0
  5 11  1  0
  6  5  1  0
  7  6  1  0
  7  8  1  6
  9  7  1  0
  9 13  1  0
 10  9  2  0
 11 12  2  0
 12  2  1  0
 14 13  1  0
 14 25  1  0
 14 15  1  1
 16 17  2  0
 16 15  1  0
 18 17  1  0
 19 24  2  0
 19 18  1  0
 20 19  1  0
 21 22  1  0
 21 20  2  0
 22 23  2  0
 23 24  1  0
 24 16  1  0
 25 27  1  0
 25 26  2  0
 27 28  1  0
 28 29  1  1
 30 31  2  0
 30 29  1  0
 32 28  1  0
 32 33  1  0
 34 30  1  0
 35 32  2  0
M  END
$$$$
