YWD.pdb
     RDKit          3D

 35 37  0  0  1  0  0  0  0  0999 V2000
   20.3746  -12.0208  -23.8972 O   0  0  0  0  0  0  0  0  0  0  0  0
   20.2805  -11.4163  -22.6402 C   0  0  0  0  0  0  0  0  0  0  0  0
   19.2386  -11.6976  -21.7828 C   0  0  0  0  0  0  0  0  0  0  0  0
   19.1711  -11.0827  -20.5418 C   0  0  0  0  0  0  0  0  0  0  0  0
   20.1572  -10.1914  -20.1826 C   0  0  0  0  0  0  0  0  0  0  0  0
   20.0911   -9.5279  -18.8548 C   0  0  0  0  0  0  0  0  0  0  0  0
   21.1497  -10.0368  -17.9176 C   0  0  2  0  0  0  0  0  0  0  0  0
   20.9624  -11.4237  -17.6330 N   0  0  0  0  0  0  0  0  0  0  0  0
   21.0954   -9.1948  -16.6797 C   0  0  0  0  0  0  0  0  0  0  0  0
   20.2736   -9.4380  -15.7637 O   0  0  0  0  0  0  0  0  0  0  0  0
   21.1986   -9.9038  -21.0272 C   0  0  0  0  0  0  0  0  0  0  0  0
   21.2536  -10.5224  -22.2584 C   0  0  0  0  0  0  0  0  0  0  0  0
   21.9889   -8.0823  -16.5116 N   0  0  0  0  0  0  0  0  0  0  0  0
   21.8841   -7.2738  -15.3591 C   0  0  1  0  0  0  0  0  0  0  0  0
   23.0564   -7.2784  -14.4212 C   0  0  0  0  0  0  0  0  0  0  0  0
   23.7389   -8.5790  -14.3157 C   0  0  0  0  0  0  0  0  0  0  0  0
   23.4086   -9.6327  -13.4581 C   0  0  0  0  0  0  0  0  0  0  0  0
   24.2641  -10.6403  -13.6403 N   0  0  0  0  0  0  0  0  0  0  0  0
   25.1701  -10.3172  -14.5924 C   0  0  0  0  0  0  0  0  0  0  0  0
   26.2296  -11.0261  -15.1203 C   0  0  0  0  0  0  0  0  0  0  0  0
   27.0018  -10.4602  -16.0997 C   0  0  0  0  0  0  0  0  0  0  0  0
   26.6833   -9.1876  -16.5227 C   0  0  0  0  0  0  0  0  0  0  0  0
   25.6277   -8.4746  -16.0000 C   0  0  0  0  0  0  0  0  0  0  0  0
   24.8380   -9.0304  -15.0106 C   0  0  0  0  0  0  0  0  0  0  0  0
   21.5531   -5.8539  -15.6349 C   0  0  0  0  0  0  0  0  0  0  0  0
   22.1100   -5.3312  -16.6354 O   0  0  0  0  0  0  0  0  0  0  0  0
   20.6789   -5.0679  -14.8722 N   0  0  0  0  0  0  0  0  0  0  0  0
   20.2843   -3.7173  -15.2631 C   0  0  1  0  0  0  0  0  0  0  0  0
   19.0666   -3.3880  -14.4481 C   0  0  0  0  0  0  0  0  0  0  0  0
   18.5031   -2.0475  -14.7004 C   0  0  0  0  0  0  0  0  0  0  0  0
   18.4378   -1.5821  -15.8934 O   0  0  0  0  0  0  0  0  0  0  0  0
   21.3759   -2.7714  -14.8488 C   0  0  0  0  0  0  0  0  0  0  0  0
   21.7039   -1.6231  -15.5161 O   0  0  0  0  0  0  0  0  0  0  0  0
   18.0350   -1.2610  -13.6615 O   0  0  0  0  0  0  0  0  0  0  0  0
   22.0243   -3.0752  -13.8105 O   0  0  0  0  0  0  0  0  0  0  0  0
  2  1  1  0
  3  2  2  0
  4  3  1  0
  5  4  2  0
  5 11  1  0
  6  5  1  0
  7  6  1  0
  7  8  1  1
  9  7  1  0
  9 13  1  0
 10  9  2  0
 11 12  2  0
 12  2  1  0
 14 13  1  0
 14 25  1  0
 14 15  1  6
 16 17  2  0
 16 15  1  0
 18 17  1  0
 19 24  2  0
 19 18  1  0
 20 19  1  0
 21 22  1  0
 21 20  2  0
 22 23  2  0
 23 24  1  0
 24 16  1  0
 25 27  1  0
 25 26  2  0
 27 28  1  0
 28 29  1  1
 30 31  2  0
 30 29  1  0
 32 28  1  0
 32 33  1  0
 34 30  1  0
 35 32  2  0
M  END
$$$$
