YWD.pdb
     RDKit          3D

 35 37  0  0  1  0  0  0  0  0999 V2000
   32.6662  -25.2811   16.0493 O   0  0  0  0  0  0  0  0  0  0  0  0
   31.7225  -25.8320   15.1773 C   0  0  0  0  0  0  0  0  0  0  0  0
   32.0296  -26.0993   13.8604 C   0  0  0  0  0  0  0  0  0  0  0  0
   31.0732  -26.6459   13.0183 C   0  0  0  0  0  0  0  0  0  0  0  0
   29.8185  -26.9157   13.5172 C   0  0  0  0  0  0  0  0  0  0  0  0
   28.7882  -27.5006   12.6205 C   0  0  0  0  0  0  0  0  0  0  0  0
   28.2837  -26.5030   11.6165 C   0  0  2  0  0  0  0  0  0  0  0  0
   27.3742  -25.5810   12.2183 N   0  0  0  0  0  0  0  0  0  0  0  0
   27.6490  -27.2728   10.4990 C   0  0  0  0  0  0  0  0  0  0  0  0
   26.4062  -27.4335   10.4441 O   0  0  0  0  0  0  0  0  0  0  0  0
   29.5015  -26.6542   14.8255 C   0  0  0  0  0  0  0  0  0  0  0  0
   30.4621  -26.1105   15.6522 C   0  0  0  0  0  0  0  0  0  0  0  0
   28.4541  -27.8487    9.4575 N   0  0  0  0  0  0  0  0  0  0  0  0
   27.8271  -28.5019    8.3743 C   0  0  1  0  0  0  0  0  0  0  0  0
   28.2588  -28.0917    6.9961 C   0  0  0  0  0  0  0  0  0  0  0  0
   27.5950  -28.8332    5.9108 C   0  0  0  0  0  0  0  0  0  0  0  0
   26.4034  -28.4885    5.2658 C   0  0  0  0  0  0  0  0  0  0  0  0
   26.1112  -29.4109    4.3470 N   0  0  0  0  0  0  0  0  0  0  0  0
   27.0591  -30.3768    4.3372 C   0  0  0  0  0  0  0  0  0  0  0  0
   27.1921  -31.5155    3.5695 C   0  0  0  0  0  0  0  0  0  0  0  0
   28.2713  -32.3373    3.7587 C   0  0  0  0  0  0  0  0  0  0  0  0
   29.1925  -31.9869    4.7222 C   0  0  0  0  0  0  0  0  0  0  0  0
   29.0658  -30.8522    5.4919 C   0  0  0  0  0  0  0  0  0  0  0  0
   27.9826  -30.0116    5.3145 C   0  0  0  0  0  0  0  0  0  0  0  0
   27.8961  -29.9831    8.4290 C   0  0  0  0  0  0  0  0  0  0  0  0
   29.0256  -30.4845    8.6678 O   0  0  0  0  0  0  0  0  0  0  0  0
   26.8100  -30.8475    8.2367 N   0  0  0  0  0  0  0  0  0  0  0  0
   26.9298  -32.3002    8.3266 C   0  0  1  0  0  0  0  0  0  0  0  0
   27.2908  -32.5998    9.7532 C   0  0  0  0  0  0  0  0  0  0  0  0
   27.3907  -34.0373   10.0724 C   0  0  0  0  0  0  0  0  0  0  0  0
   26.4023  -34.6567   10.6048 O   0  0  0  0  0  0  0  0  0  0  0  0
   25.5765  -32.8993    8.0664 C   0  0  0  0  0  0  0  0  0  0  0  0
   25.3644  -34.0998    7.4457 O   0  0  0  0  0  0  0  0  0  0  0  0
   28.5482  -34.7500    9.8089 O   0  0  0  0  0  0  0  0  0  0  0  0
   24.5784  -32.2331    8.4547 O   0  0  0  0  0  0  0  0  0  0  0  0
  2  1  1  0
  3  2  2  0
  4  3  1  0
  5  4  2  0
  5 11  1  0
  6  5  1  0
  7  6  1  0
  7  8  1  1
  9  7  1  0
  9 13  1  0
 10  9  2  0
 11 12  2  0
 12  2  1  0
 14 13  1  0
 14 25  1  0
 14 15  1  6
 16 17  2  0
 16 15  1  0
 18 17  1  0
 19 24  2  0
 19 18  1  0
 20 19  1  0
 21 22  1  0
 21 20  2  0
 22 23  2  0
 23 24  1  0
 24 16  1  0
 25 27  1  0
 25 26  2  0
 27 28  1  0
 28 29  1  1
 30 31  2  0
 30 29  1  0
 32 28  1  0
 32 33  1  0
 34 30  1  0
 35 32  2  0
M  END
$$$$
