YWD.pdb
     RDKit          3D

 35 37  0  0  1  0  0  0  0  0999 V2000
   16.7657  -17.5640  -21.4623 O   0  0  0  0  0  0  0  0  0  0  0  0
   17.4133  -16.5896  -20.6972 C   0  0  0  0  0  0  0  0  0  0  0  0
   17.7039  -15.3451  -21.2136 C   0  0  0  0  0  0  0  0  0  0  0  0
   18.3473  -14.3981  -20.4313 C   0  0  0  0  0  0  0  0  0  0  0  0
   18.6891  -14.7204  -19.1370 C   0  0  0  0  0  0  0  0  0  0  0  0
   19.3796  -13.7112  -18.2930 C   0  0  0  0  0  0  0  0  0  0  0  0
   20.8725  -13.8789  -18.3226 C   0  0  2  0  0  0  0  0  0  0  0  0
   21.2632  -15.1211  -17.7362 N   0  0  0  0  0  0  0  0  0  0  0  0
   21.4701  -12.7055  -17.6082 C   0  0  0  0  0  0  0  0  0  0  0  0
   21.7890  -12.7754  -16.3970 O   0  0  0  0  0  0  0  0  0  0  0  0
   18.4051  -15.9553  -18.6124 C   0  0  0  0  0  0  0  0  0  0  0  0
   17.7649  -16.8876  -19.4013 C   0  0  0  0  0  0  0  0  0  0  0  0
   21.6932  -11.4650  -18.2979 N   0  0  0  0  0  0  0  0  0  0  0  0
   22.3155  -10.3943  -17.6200 C   0  0  1  0  0  0  0  0  0  0  0  0
   23.6253   -9.9135  -18.1739 C   0  0  0  0  0  0  0  0  0  0  0  0
   24.7108  -10.9059  -18.1023 C   0  0  0  0  0  0  0  0  0  0  0  0
   24.9246  -11.9797  -18.9719 C   0  0  0  0  0  0  0  0  0  0  0  0
   25.9988  -12.6658  -18.5770 N   0  0  0  0  0  0  0  0  0  0  0  0
   26.5309  -12.1020  -17.4676 C   0  0  0  0  0  0  0  0  0  0  0  0
   27.6314  -12.4451  -16.7093 C   0  0  0  0  0  0  0  0  0  0  0  0
   27.9641  -11.6878  -15.6178 C   0  0  0  0  0  0  0  0  0  0  0  0
   27.1739  -10.5988  -15.3185 C   0  0  0  0  0  0  0  0  0  0  0  0
   26.0744  -10.2509  -16.0708 C   0  0  0  0  0  0  0  0  0  0  0  0
   25.7239  -11.0044  -17.1757 C   0  0  0  0  0  0  0  0  0  0  0  0
   21.4540   -9.1995  -17.4405 C   0  0  0  0  0  0  0  0  0  0  0  0
   20.7460   -8.8643  -18.4258 O   0  0  0  0  0  0  0  0  0  0  0  0
   21.3752   -8.4318  -16.2709 N   0  0  0  0  0  0  0  0  0  0  0  0
   20.4909   -7.2768  -16.1409 C   0  0  1  0  0  0  0  0  0  0  0  0
   19.5962   -7.5683  -14.9705 C   0  0  0  0  0  0  0  0  0  0  0  0
   18.6080   -6.5126  -14.6752 C   0  0  0  0  0  0  0  0  0  0  0  0
   18.5973   -5.4229  -15.3509 O   0  0  0  0  0  0  0  0  0  0  0  0
   21.3293   -6.0821  -15.7836 C   0  0  0  0  0  0  0  0  0  0  0  0
   20.9088   -4.7833  -15.8713 O   0  0  0  0  0  0  0  0  0  0  0  0
   17.6736   -6.6692  -13.6655 O   0  0  0  0  0  0  0  0  0  0  0  0
   22.5005   -6.3138  -15.3768 O   0  0  0  0  0  0  0  0  0  0  0  0
  2  1  1  0
  3  2  2  0
  4  3  1  0
  5  4  2  0
  5 11  1  0
  6  5  1  0
  7  6  1  0
  7  8  1  1
  9  7  1  0
  9 13  1  0
 10  9  2  0
 11 12  2  0
 12  2  1  0
 14 13  1  0
 14 25  1  0
 14 15  1  6
 16 17  2  0
 16 15  1  0
 18 17  1  0
 19 24  2  0
 19 18  1  0
 20 19  1  0
 21 22  1  0
 21 20  2  0
 22 23  2  0
 23 24  1  0
 24 16  1  0
 25 27  1  0
 25 26  2  0
 27 28  1  0
 28 29  1  1
 30 31  2  0
 30 29  1  0
 32 28  1  0
 32 33  1  0
 34 30  1  0
 35 32  2  0
M  END
$$$$
