YWD.pdb
     RDKit          3D

 35 37  0  0  1  0  0  0  0  0999 V2000
   19.6909  -40.7055   -5.8153 O   0  0  0  0  0  0  0  0  0  0  0  0
   20.9611  -40.2126   -5.5026 C   0  0  0  0  0  0  0  0  0  0  0  0
   22.0673  -41.0348   -5.4836 C   0  0  0  0  0  0  0  0  0  0  0  0
   23.3152  -40.5180   -5.1697 C   0  0  0  0  0  0  0  0  0  0  0  0
   23.4298  -39.1770   -4.8790 C   0  0  0  0  0  0  0  0  0  0  0  0
   24.7636  -38.6163   -4.5408 C   0  0  0  0  0  0  0  0  0  0  0  0
   25.3484  -37.8288   -5.6790 C   0  0  2  0  0  0  0  0  0  0  0  0
   25.5967  -38.6647   -6.8101 N   0  0  0  0  0  0  0  0  0  0  0  0
   26.5988  -37.1747   -5.1762 C   0  0  0  0  0  0  0  0  0  0  0  0
   27.6944  -37.7855   -5.1693 O   0  0  0  0  0  0  0  0  0  0  0  0
   22.3364  -38.3494   -4.8948 C   0  0  0  0  0  0  0  0  0  0  0  0
   21.1013  -38.8763   -5.2086 C   0  0  0  0  0  0  0  0  0  0  0  0
   26.5723  -35.8239   -4.6872 N   0  0  0  0  0  0  0  0  0  0  0  0
   27.7515  -35.2499   -4.1646 C   0  0  1  0  0  0  0  0  0  0  0  0
   28.0133  -33.8122   -4.5085 C   0  0  0  0  0  0  0  0  0  0  0  0
   26.8618  -33.1162   -5.1069 C   0  0  0  0  0  0  0  0  0  0  0  0
   25.6033  -32.9259   -4.5285 C   0  0  0  0  0  0  0  0  0  0  0  0
   24.8174  -32.2636   -5.3795 N   0  0  0  0  0  0  0  0  0  0  0  0
   25.4906  -31.9917   -6.5217 C   0  0  0  0  0  0  0  0  0  0  0  0
   25.1063  -31.3324   -7.6712 C   0  0  0  0  0  0  0  0  0  0  0  0
   26.0007  -31.1839   -8.6976 C   0  0  0  0  0  0  0  0  0  0  0  0
   27.2657  -31.7071   -8.5365 C   0  0  0  0  0  0  0  0  0  0  0  0
   27.6557  -32.3663   -7.3923 C   0  0  0  0  0  0  0  0  0  0  0  0
   26.7655  -32.5255   -6.3465 C   0  0  0  0  0  0  0  0  0  0  0  0
   27.8957  -35.3786   -2.6934 C   0  0  0  0  0  0  0  0  0  0  0  0
   26.8383  -35.5797   -2.0407 O   0  0  0  0  0  0  0  0  0  0  0  0
   29.1060  -35.2934   -1.9923 N   0  0  0  0  0  0  0  0  0  0  0  0
   29.1802  -35.3361   -0.5344 C   0  0  1  0  0  0  0  0  0  0  0  0
   28.6346  -36.6753   -0.1296 C   0  0  0  0  0  0  0  0  0  0  0  0
   28.6660  -36.9377    1.3224 C   0  0  0  0  0  0  0  0  0  0  0  0
   28.2104  -36.0717    2.1510 O   0  0  0  0  0  0  0  0  0  0  0  0
   30.6290  -35.2984   -0.1373 C   0  0  0  0  0  0  0  0  0  0  0  0
   31.1379  -34.5304    0.8739 O   0  0  0  0  0  0  0  0  0  0  0  0
   29.1872  -38.1178    1.8252 O   0  0  0  0  0  0  0  0  0  0  0  0
   31.4154  -36.0332   -0.7949 O   0  0  0  0  0  0  0  0  0  0  0  0
  2  1  1  0
  3  2  2  0
  4  3  1  0
  5  4  2  0
  5 11  1  0
  6  5  1  0
  7  6  1  0
  7  8  1  6
  9  7  1  0
  9 13  1  0
 10  9  2  0
 11 12  2  0
 12  2  1  0
 14 13  1  0
 14 25  1  0
 14 15  1  1
 16 17  2  0
 16 15  1  0
 18 17  1  0
 19 24  2  0
 19 18  1  0
 20 19  1  0
 21 22  1  0
 21 20  2  0
 22 23  2  0
 23 24  1  0
 24 16  1  0
 25 27  1  0
 25 26  2  0
 27 28  1  0
 28 29  1  6
 30 31  2  0
 30 29  1  0
 32 28  1  0
 32 33  1  0
 34 30  1  0
 35 32  2  0
M  END
$$$$
