TDK.pdb
     RDKit          3D

 25 24  0  0  1  0  0  0  0  0999 V2000
    8.9521  -12.9061   17.4832 C   0  0  0  0  0  0  0  0  0  0  0  0
    9.0461  -13.7843   18.6858 C   0  0  1  0  0  0  0  0  0  0  0  0
    9.6802  -13.1114   19.7053 O   0  0  0  0  0  0  0  0  0  0  0  0
    7.6950  -14.2528   19.1978 C   0  0  2  0  0  0  0  0  0  0  0  0
    6.8072  -13.1711   19.5050 N   0  0  0  0  0  0  0  0  0  0  0  0
    7.9457  -15.1640   20.3230 C   0  0  0  0  0  0  0  0  0  0  0  0
    7.6167  -14.7591   21.4751 O   0  0  0  0  0  0  0  0  0  0  0  0
    8.5262  -16.4590   20.2201 N   0  0  0  0  0  0  0  0  0  0  0  0
    8.6631  -17.3470   21.3372 C   0  0  1  0  0  0  0  0  0  0  0  0
    9.0267  -18.7256   20.8397 C   0  0  0  0  0  0  0  0  0  0  0  0
    9.1341  -19.7219   21.9152 C   0  0  0  0  0  0  0  0  0  0  0  0
    8.8020  -19.3985   23.0785 O   0  0  0  0  0  0  0  0  0  0  0  0
    9.6217  -16.8496   22.3535 C   0  0  0  0  0  0  0  0  0  0  0  0
   10.8326  -16.6425   22.0589 O   0  0  0  0  0  0  0  0  0  0  0  0
    9.5884  -21.0094   21.6994 O   0  0  0  0  0  0  0  0  0  0  0  0
    9.2540  -16.5781   23.6957 N   0  0  0  0  0  0  0  0  0  0  0  0
   10.1973  -16.0805   24.7038 C   0  0  1  0  0  0  0  0  0  0  0  0
    9.4994  -15.6550   25.9341 C   0  0  0  0  0  0  0  0  0  0  0  0
   10.4587  -15.2553   27.0148 C   0  0  0  0  0  0  0  0  0  0  0  0
    9.7069  -14.8789   28.2983 C   0  0  0  0  0  0  0  0  0  0  0  0
   10.7398  -14.5825   29.3554 C   0  0  0  0  0  0  0  0  0  0  0  0
   10.1709  -14.2954   30.6354 N   0  0  0  0  0  0  0  0  0  0  0  0
   11.1918  -17.1289   24.9773 C   0  0  0  0  0  0  0  0  0  0  0  0
   12.4140  -16.8011   25.0078 O   0  0  0  0  0  0  0  0  0  0  0  0
   10.9236  -18.4572   25.2117 O   0  0  0  0  0  0  0  0  0  0  0  0
  2  1  1  6
  2  3  1  0
  4  2  1  0
  4  5  1  1
  6  8  1  0
  6  4  1  0
  7  6  2  0
  9 10  1  6
  9  8  1  0
 11 10  1  0
 12 11  2  0
 13 14  2  0
 13  9  1  0
 15 11  1  0
 16 13  1  0
 17 23  1  0
 17 16  1  0
 17 18  1  1
 19 20  1  0
 19 18  1  0
 20 21  1  0
 21 22  1  0
 23 25  1  0
 24 23  2  0
M  END
$$$$
