TDK.pdb
     RDKit          3D

 25 24  0  0  1  0  0  0  0  0999 V2000
    7.7833  -12.5412   17.7706 C   0  0  0  0  0  0  0  0  0  0  0  0
    8.3748  -13.7313   18.4488 C   0  0  1  0  0  0  0  0  0  0  0  0
    9.2820  -14.3407   17.6123 O   0  0  0  0  0  0  0  0  0  0  0  0
    9.0838  -13.3942   19.7491 C   0  0  2  0  0  0  0  0  0  0  0  0
   10.2048  -12.5213   19.5654 N   0  0  0  0  0  0  0  0  0  0  0  0
    9.4121  -14.6649   20.4103 C   0  0  0  0  0  0  0  0  0  0  0  0
   10.6374  -14.9158   20.5975 O   0  0  0  0  0  0  0  0  0  0  0  0
    8.4659  -15.6305   20.8542 N   0  0  0  0  0  0  0  0  0  0  0  0
    8.8418  -16.8982   21.4080 C   0  0  1  0  0  0  0  0  0  0  0  0
    9.2306  -17.8372   20.2911 C   0  0  0  0  0  0  0  0  0  0  0  0
    8.1575  -18.0474   19.3086 C   0  0  0  0  0  0  0  0  0  0  0  0
    6.9811  -18.1874   19.7143 O   0  0  0  0  0  0  0  0  0  0  0  0
    9.9039  -16.7846   22.4367 C   0  0  0  0  0  0  0  0  0  0  0  0
   10.8774  -17.5896   22.4580 O   0  0  0  0  0  0  0  0  0  0  0  0
    8.3896  -18.0981   17.9470 O   0  0  0  0  0  0  0  0  0  0  0  0
    9.9005  -15.7874   23.4447 N   0  0  0  0  0  0  0  0  0  0  0  0
   10.6339  -15.9185   24.7091 C   0  0  1  0  0  0  0  0  0  0  0  0
    9.8499  -15.3943   25.8458 C   0  0  0  0  0  0  0  0  0  0  0  0
   10.5288  -15.6435   27.1593 C   0  0  0  0  0  0  0  0  0  0  0  0
    9.8785  -14.8140   28.2743 C   0  0  0  0  0  0  0  0  0  0  0  0
   10.6248  -15.1100   29.5501 C   0  0  0  0  0  0  0  0  0  0  0  0
   10.1862  -14.3182   30.6570 N   0  0  0  0  0  0  0  0  0  0  0  0
   10.9934  -17.3315   24.9015 C   0  0  0  0  0  0  0  0  0  0  0  0
   10.0592  -18.1829   24.9682 O   0  0  0  0  0  0  0  0  0  0  0  0
   12.2686  -17.8337   25.0156 O   0  0  0  0  0  0  0  0  0  0  0  0
  2  1  1  6
  2  3  1  0
  4  2  1  0
  4  5  1  6
  6  8  1  0
  6  4  1  0
  7  6  2  0
  9 10  1  6
  9  8  1  0
 11 10  1  0
 12 11  2  0
 13 14  2  0
 13  9  1  0
 15 11  1  0
 16 13  1  0
 17 23  1  0
 17 16  1  0
 17 18  1  1
 19 20  1  0
 19 18  1  0
 20 21  1  0
 21 22  1  0
 23 25  1  0
 24 23  2  0
M  END
$$$$
