TDK.pdb
     RDKit          3D

 25 24  0  0  1  0  0  0  0  0999 V2000
    6.7515  -18.4594   17.5930 C   0  0  0  0  0  0  0  0  0  0  0  0
    6.2221  -19.6847   16.9261 C   0  0  1  0  0  0  0  0  0  0  0  0
    5.1856  -19.3465   16.0863 O   0  0  0  0  0  0  0  0  0  0  0  0
    7.2670  -20.4273   16.1114 C   0  0  2  0  0  0  0  0  0  0  0  0
    6.7149  -21.4979   15.3359 N   0  0  0  0  0  0  0  0  0  0  0  0
    8.3306  -20.8407   17.0372 C   0  0  0  0  0  0  0  0  0  0  0  0
    8.1822  -21.9509   17.6245 O   0  0  0  0  0  0  0  0  0  0  0  0
    9.5082  -20.0952   17.3240 N   0  0  0  0  0  0  0  0  0  0  0  0
   10.5115  -20.5401   18.2462 C   0  0  1  0  0  0  0  0  0  0  0  0
   11.8114  -19.8297   17.9532 C   0  0  0  0  0  0  0  0  0  0  0  0
   12.9831  -20.4968   18.5391 C   0  0  0  0  0  0  0  0  0  0  0  0
   12.8141  -21.3083   19.4778 O   0  0  0  0  0  0  0  0  0  0  0  0
   10.0993  -20.3878   19.6626 C   0  0  0  0  0  0  0  0  0  0  0  0
    9.7276  -19.2683   20.1149 O   0  0  0  0  0  0  0  0  0  0  0  0
   14.2727  -20.2674   18.0979 O   0  0  0  0  0  0  0  0  0  0  0  0
   10.0938  -21.4636   20.5862 N   0  0  0  0  0  0  0  0  0  0  0  0
    9.6858  -21.3186   21.9885 C   0  0  1  0  0  0  0  0  0  0  0  0
    8.7556  -22.3916   22.3947 C   0  0  0  0  0  0  0  0  0  0  0  0
    7.4224  -21.8500   22.8156 C   0  0  0  0  0  0  0  0  0  0  0  0
    6.4263  -22.9898   23.0666 C   0  0  0  0  0  0  0  0  0  0  0  0
    5.1115  -22.3624   23.4538 C   0  0  0  0  0  0  0  0  0  0  0  0
    4.0680  -23.3188   23.6566 N   0  0  0  0  0  0  0  0  0  0  0  0
   10.8914  -21.2958   22.8304 C   0  0  0  0  0  0  0  0  0  0  0  0
   11.7844  -22.1681   22.6207 O   0  0  0  0  0  0  0  0  0  0  0  0
   11.1551  -20.4023   23.8420 O   0  0  0  0  0  0  0  0  0  0  0  0
  2  1  1  6
  2  3  1  0
  4  2  1  0
  4  5  1  1
  6  8  1  0
  6  4  1  0
  7  6  2  0
  9 10  1  1
  9  8  1  0
 11 10  1  0
 12 11  2  0
 13 14  2  0
 13  9  1  0
 15 11  1  0
 16 13  1  0
 17 23  1  0
 17 16  1  0
 17 18  1  1
 19 20  1  0
 19 18  1  0
 20 21  1  0
 21 22  1  0
 23 25  1  0
 24 23  2  0
M  END
$$$$
