TDK.pdb
     RDKit          3D

 25 24  0  0  1  0  0  0  0  0999 V2000
    7.3292  -12.4657   19.7346 C   0  0  0  0  0  0  0  0  0  0  0  0
    7.9917  -13.6228   20.4045 C   0  0  1  0  0  0  0  0  0  0  0  0
    7.0781  -14.2946   21.1843 O   0  0  0  0  0  0  0  0  0  0  0  0
    8.6016  -14.6155   19.4301 C   0  0  2  0  0  0  0  0  0  0  0  0
    7.6494  -15.1419   18.4980 N   0  0  0  0  0  0  0  0  0  0  0  0
    9.2950  -15.6386   20.2250 C   0  0  0  0  0  0  0  0  0  0  0  0
    8.7416  -16.7725   20.3111 O   0  0  0  0  0  0  0  0  0  0  0  0
   10.5332  -15.4560   20.9019 N   0  0  0  0  0  0  0  0  0  0  0  0
   11.1232  -16.4588   21.7393 C   0  0  1  0  0  0  0  0  0  0  0  0
   12.6204  -16.2648   21.7742 C   0  0  0  0  0  0  0  0  0  0  0  0
   13.3005  -16.7746   20.5748 C   0  0  0  0  0  0  0  0  0  0  0  0
   12.7981  -17.7402   19.9556 O   0  0  0  0  0  0  0  0  0  0  0  0
   10.5331  -16.4929   23.0994 C   0  0  0  0  0  0  0  0  0  0  0  0
   10.6178  -15.4955   23.8702 O   0  0  0  0  0  0  0  0  0  0  0  0
   14.4783  -16.2327   20.0956 O   0  0  0  0  0  0  0  0  0  0  0  0
    9.8485  -17.6214   23.6172 N   0  0  0  0  0  0  0  0  0  0  0  0
    9.2908  -17.6721   24.9737 C   0  0  1  0  0  0  0  0  0  0  0  0
    8.4799  -18.8893   25.1799 C   0  0  0  0  0  0  0  0  0  0  0  0
    7.9229  -18.9647   26.5699 C   0  0  0  0  0  0  0  0  0  0  0  0
    7.3015  -20.3427   26.8334 C   0  0  0  0  0  0  0  0  0  0  0  0
    6.6134  -20.2782   28.1730 C   0  0  0  0  0  0  0  0  0  0  0  0
    5.8206  -21.4340   28.4562 N   0  0  0  0  0  0  0  0  0  0  0  0
   10.3949  -17.5835   25.9412 C   0  0  0  0  0  0  0  0  0  0  0  0
   10.3019  -16.7391   26.8796 O   0  0  0  0  0  0  0  0  0  0  0  0
   11.5414  -18.3429   25.9323 O   0  0  0  0  0  0  0  0  0  0  0  0
  2  1  1  6
  2  3  1  0
  4  2  1  0
  4  5  1  1
  6  8  1  0
  6  4  1  0
  7  6  2  0
  9 10  1  1
  9  8  1  0
 11 10  1  0
 12 11  2  0
 13 14  2  0
 13  9  1  0
 15 11  1  0
 16 13  1  0
 17 23  1  0
 17 16  1  0
 17 18  1  6
 19 20  1  0
 19 18  1  0
 20 21  1  0
 21 22  1  0
 23 25  1  0
 24 23  2  0
M  END
$$$$
