TDK.pdb
     RDKit          3D

 25 24  0  0  1  0  0  0  0  0999 V2000
    8.0006  -12.4831   19.2113 C   0  0  0  0  0  0  0  0  0  0  0  0
    8.4289  -13.4835   20.2321 C   0  0  1  0  0  0  0  0  0  0  0  0
    7.7987  -13.2269   21.4283 O   0  0  0  0  0  0  0  0  0  0  0  0
    8.1243  -14.9178   19.8359 C   0  0  2  0  0  0  0  0  0  0  0  0
    6.7484  -15.1239   19.4941 N   0  0  0  0  0  0  0  0  0  0  0  0
    8.6120  -15.7835   20.9186 C   0  0  0  0  0  0  0  0  0  0  0  0
    7.7517  -16.2237   21.7344 O   0  0  0  0  0  0  0  0  0  0  0  0
    9.9681  -16.1637   21.1211 N   0  0  0  0  0  0  0  0  0  0  0  0
   10.4108  -16.9063   22.2647 C   0  0  1  0  0  0  0  0  0  0  0  0
   11.8196  -17.3962   22.0291 C   0  0  0  0  0  0  0  0  0  0  0  0
   11.9366  -18.2944   20.8713 C   0  0  0  0  0  0  0  0  0  0  0  0
   11.0165  -19.1121   20.6412 O   0  0  0  0  0  0  0  0  0  0  0  0
   10.2900  -16.1415   23.5295 C   0  0  0  0  0  0  0  0  0  0  0  0
   10.9658  -15.0916   23.7216 O   0  0  0  0  0  0  0  0  0  0  0  0
   13.0242  -18.2776   20.0185 O   0  0  0  0  0  0  0  0  0  0  0  0
    9.4273  -16.5268   24.5867 N   0  0  0  0  0  0  0  0  0  0  0  0
    9.3162  -15.7827   25.8468 C   0  0  1  0  0  0  0  0  0  0  0  0
    7.9539  -15.2452   26.0390 C   0  0  0  0  0  0  0  0  0  0  0  0
    7.9419  -13.7465   26.0808 C   0  0  0  0  0  0  0  0  0  0  0  0
    6.5195  -13.2197   26.3122 C   0  0  0  0  0  0  0  0  0  0  0  0
    6.5948  -11.7145   26.3380 C   0  0  0  0  0  0  0  0  0  0  0  0
    5.3235  -11.0891   26.5312 N   0  0  0  0  0  0  0  0  0  0  0  0
    9.7136  -16.6666   26.9530 C   0  0  0  0  0  0  0  0  0  0  0  0
    9.8250  -16.1646   28.1096 O   0  0  0  0  0  0  0  0  0  0  0  0
    9.9792  -18.0126   26.8579 O   0  0  0  0  0  0  0  0  0  0  0  0
  2  1  1  6
  2  3  1  0
  4  2  1  0
  4  5  1  1
  6  8  1  0
  6  4  1  0
  7  6  2  0
  9 10  1  6
  9  8  1  0
 11 10  1  0
 12 11  2  0
 13 14  2  0
 13  9  1  0
 15 11  1  0
 16 13  1  0
 17 23  1  0
 17 16  1  0
 17 18  1  1
 19 20  1  0
 19 18  1  0
 20 21  1  0
 21 22  1  0
 23 25  1  0
 24 23  2  0
M  END
$$$$
