ALH.pdb
     RDKit          3D

 24 24  0  0  1  0  0  0  0  0999 V2000
    6.3205  -16.1305   20.8936 C   0  0  0  0  0  0  0  0  0  0  0  0
    7.3148  -16.6694   21.9112 C   0  0  2  0  0  0  0  0  0  0  0  0
    6.5977  -17.4463   22.8821 N   0  0  0  0  0  0  0  0  0  0  0  0
    7.9931  -15.5184   22.5509 C   0  0  0  0  0  0  0  0  0  0  0  0
    8.7826  -14.7658   21.8973 O   0  0  0  0  0  0  0  0  0  0  0  0
    5.6960  -12.2225   26.2388 C   0  0  0  0  0  0  0  0  0  0  0  0
    6.5850  -12.7309   25.1024 C   0  0  1  0  0  0  0  0  0  0  0  0
    7.2228  -11.5304   24.3906 C   0  0  0  0  0  0  0  0  0  0  0  0
    7.7096  -13.5274   25.6728 C   0  0  0  0  0  0  0  0  0  0  0  0
    8.5436  -14.1422   24.6007 C   0  0  2  0  0  0  0  0  0  0  0  0
    7.7834  -15.2152   23.9230 N   0  0  0  0  0  0  0  0  0  0  0  0
    9.7767  -14.7437   25.2002 C   0  0  0  0  0  0  0  0  0  0  0  0
   10.7456  -14.0477   25.5944 O   0  0  0  0  0  0  0  0  0  0  0  0
    9.8761  -16.1644   25.3384 N   0  0  0  0  0  0  0  0  0  0  0  0
   11.1128  -16.7393   25.8750 C   0  0  1  0  0  0  0  0  0  0  0  0
   10.8555  -17.3987   27.2040 C   0  0  0  0  0  0  0  0  0  0  0  0
   10.6727  -16.3709   28.2409 C   0  0  0  0  0  0  0  0  0  0  0  0
   11.2433  -15.1225   28.2976 C   0  0  0  0  0  0  0  0  0  0  0  0
   10.8287  -14.5175   29.4116 N   0  0  0  0  0  0  0  0  0  0  0  0
   10.0152  -15.3558   30.0501 C   0  0  0  0  0  0  0  0  0  0  0  0
    9.9081  -16.4952   29.3481 N   0  0  0  0  0  0  0  0  0  0  0  0
   11.7602  -17.5997   24.8762 C   0  0  0  0  0  0  0  0  0  0  0  0
   12.9874  -18.2074   25.0352 O   0  0  0  0  0  0  0  0  0  0  0  0
   11.1650  -17.8141   23.7738 O   0  0  0  0  0  0  0  0  0  0  0  0
  2  1  1  6
  2  3  1  0
  4  2  1  0
  4  5  2  0
  7  6  1  1
  7  9  1  0
  7  8  1  0
 10  9  1  1
 10 11  1  0
 10 12  1  0
 11  4  1  0
 12 14  1  0
 13 12  2  0
 14 15  1  0
 15 22  1  0
 16 17  1  0
 15 16  1  1
 17 18  2  0
 19 18  1  0
 20 19  1  0
 21 20  2  0
 21 17  1  0
 22 24  2  0
 22 23  1  0
M  END
$$$$
