ALH.pdb
     RDKit          3D

 24 24  0  0  1  0  0  0  0  0999 V2000
    5.9193  -16.8265   21.4037 C   0  0  0  0  0  0  0  0  0  0  0  0
    6.9408  -17.3475   22.4034 C   0  0  2  0  0  0  0  0  0  0  0  0
    6.2387  -17.8951   23.5293 N   0  0  0  0  0  0  0  0  0  0  0  0
    7.8036  -16.2167   22.8167 C   0  0  0  0  0  0  0  0  0  0  0  0
    8.6318  -15.6846   22.0117 O   0  0  0  0  0  0  0  0  0  0  0  0
    5.6372  -12.9245   26.2119 C   0  0  0  0  0  0  0  0  0  0  0  0
    6.5100  -13.3561   25.0320 C   0  0  1  0  0  0  0  0  0  0  0  0
    6.6802  -12.1690   24.0748 C   0  0  0  0  0  0  0  0  0  0  0  0
    7.8755  -13.6970   25.5258 C   0  0  0  0  0  0  0  0  0  0  0  0
    8.6045  -14.5686   24.5604 C   0  0  2  0  0  0  0  0  0  0  0  0
    7.7344  -15.6859   24.1328 N   0  0  0  0  0  0  0  0  0  0  0  0
    9.8221  -15.1429   25.2159 C   0  0  0  0  0  0  0  0  0  0  0  0
   10.8265  -14.4458   25.5054 O   0  0  0  0  0  0  0  0  0  0  0  0
    9.8641  -16.5375   25.5333 N   0  0  0  0  0  0  0  0  0  0  0  0
   11.1310  -17.1251   25.9775 C   0  0  1  0  0  0  0  0  0  0  0  0
   11.0357  -17.5606   27.4157 C   0  0  0  0  0  0  0  0  0  0  0  0
   10.9958  -16.3783   28.2907 C   0  0  0  0  0  0  0  0  0  0  0  0
   11.5008  -15.1262   28.0364 C   0  0  0  0  0  0  0  0  0  0  0  0
   11.2700  -14.3527   29.0981 N   0  0  0  0  0  0  0  0  0  0  0  0
   10.6348  -15.0896   30.0067 C   0  0  0  0  0  0  0  0  0  0  0  0
   10.4585  -16.3321   29.5297 N   0  0  0  0  0  0  0  0  0  0  0  0
   11.5718  -18.1714   25.0457 C   0  0  0  0  0  0  0  0  0  0  0  0
   12.7529  -18.8745   25.1505 O   0  0  0  0  0  0  0  0  0  0  0  0
   10.8262  -18.4679   24.0599 O   0  0  0  0  0  0  0  0  0  0  0  0
  2  1  1  6
  2  3  1  0
  4  2  1  0
  4  5  2  0
  7  6  1  1
  7  9  1  0
  7  8  1  0
 10  9  1  1
 10 11  1  0
 10 12  1  0
 11  4  1  0
 12 14  1  0
 13 12  2  0
 14 15  1  0
 15 22  1  0
 16 17  1  0
 15 16  1  1
 17 18  2  0
 19 18  1  0
 20 19  1  0
 21 20  2  0
 21 17  1  0
 22 24  2  0
 22 23  1  0
M  END
$$$$
