ALH.pdb
     RDKit          3D

 24 24  0  0  1  0  0  0  0  0999 V2000
    7.1379  -16.3011   20.3118 C   0  0  0  0  0  0  0  0  0  0  0  0
    7.2023  -14.7821   20.3653 C   0  0  2  0  0  0  0  0  0  0  0  0
    7.9268  -14.3157   19.2173 N   0  0  0  0  0  0  0  0  0  0  0  0
    7.8880  -14.3911   21.6186 C   0  0  0  0  0  0  0  0  0  0  0  0
    9.1522  -14.2642   21.6722 O   0  0  0  0  0  0  0  0  0  0  0  0
    7.5108  -11.1934   26.4712 C   0  0  0  0  0  0  0  0  0  0  0  0
    7.5285  -12.7099   26.2709 C   0  0  1  0  0  0  0  0  0  0  0  0
    6.6609  -13.3676   27.3522 C   0  0  0  0  0  0  0  0  0  0  0  0
    6.8943  -13.0433   24.9628 C   0  0  0  0  0  0  0  0  0  0  0  0
    7.8314  -13.7895   24.0749 C   0  0  2  0  0  0  0  0  0  0  0  0
    7.1529  -14.1434   22.8089 N   0  0  0  0  0  0  0  0  0  0  0  0
    8.2666  -15.0548   24.7468 C   0  0  0  0  0  0  0  0  0  0  0  0
    7.4613  -15.9691   25.0536 O   0  0  0  0  0  0  0  0  0  0  0  0
    9.6489  -15.2503   25.0609 N   0  0  0  0  0  0  0  0  0  0  0  0
   10.0489  -16.4694   25.7691 C   0  0  1  0  0  0  0  0  0  0  0  0
   11.4713  -16.8323   25.4340 C   0  0  0  0  0  0  0  0  0  0  0  0
   11.5466  -17.3147   24.0459 C   0  0  0  0  0  0  0  0  0  0  0  0
   10.5077  -17.5335   23.1740 C   0  0  0  0  0  0  0  0  0  0  0  0
   11.0083  -17.9875   22.0242 N   0  0  0  0  0  0  0  0  0  0  0  0
   12.3310  -18.0575   22.1568 C   0  0  0  0  0  0  0  0  0  0  0  0
   12.6782  -17.6495   23.3879 N   0  0  0  0  0  0  0  0  0  0  0  0
    9.7663  -16.3505   27.2055 C   0  0  0  0  0  0  0  0  0  0  0  0
    9.5387  -17.4119   28.0552 O   0  0  0  0  0  0  0  0  0  0  0  0
    9.7215  -15.1924   27.7276 O   0  0  0  0  0  0  0  0  0  0  0  0
  2  1  1  6
  2  3  1  0
  4  2  1  0
  4  5  2  0
  7  6  1  1
  7  9  1  0
  7  8  1  0
 10  9  1  1
 10 11  1  0
 10 12  1  0
 11  4  1  0
 12 14  1  0
 13 12  2  0
 14 15  1  0
 15 22  1  0
 16 17  1  0
 15 16  1  1
 17 18  2  0
 19 18  1  0
 20 19  1  0
 21 20  2  0
 21 17  1  0
 22 24  2  0
 22 23  1  0
M  END
$$$$
