ALH.pdb
     RDKit          3D

 24 24  0  0  1  0  0  0  0  0999 V2000
    9.0169  -19.1930   17.2977 C   0  0  0  0  0  0  0  0  0  0  0  0
    8.9666  -17.7400   16.8500 C   0  0  2  0  0  0  0  0  0  0  0  0
    9.6852  -17.6187   15.6133 N   0  0  0  0  0  0  0  0  0  0  0  0
    9.5872  -16.9076   17.9064 C   0  0  0  0  0  0  0  0  0  0  0  0
   10.8492  -16.7770   17.9932 O   0  0  0  0  0  0  0  0  0  0  0  0
    6.8288  -12.6116   20.0248 C   0  0  0  0  0  0  0  0  0  0  0  0
    7.9878  -13.4439   19.4734 C   0  0  1  0  0  0  0  0  0  0  0  0
    9.2031  -12.5314   19.2621 C   0  0  0  0  0  0  0  0  0  0  0  0
    8.3952  -14.4580   20.4884 C   0  0  0  0  0  0  0  0  0  0  0  0
    9.4008  -15.4107   19.9369 C   0  0  2  0  0  0  0  0  0  0  0  0
    8.7896  -16.2240   18.8630 N   0  0  0  0  0  0  0  0  0  0  0  0
    9.8708  -16.3335   21.0183 C   0  0  0  0  0  0  0  0  0  0  0  0
    9.1212  -17.1913   21.5483 O   0  0  0  0  0  0  0  0  0  0  0  0
   11.2224  -16.2517   21.4810 N   0  0  0  0  0  0  0  0  0  0  0  0
   11.6434  -17.1077   22.5936 C   0  0  1  0  0  0  0  0  0  0  0  0
   12.8986  -17.8587   22.2365 C   0  0  0  0  0  0  0  0  0  0  0  0
   12.6118  -18.8224   21.1622 C   0  0  0  0  0  0  0  0  0  0  0  0
   11.7539  -19.8947   21.2011 C   0  0  0  0  0  0  0  0  0  0  0  0
   11.8034  -20.5197   20.0239 N   0  0  0  0  0  0  0  0  0  0  0  0
   12.6692  -19.8654   19.2531 C   0  0  0  0  0  0  0  0  0  0  0  0
   13.1738  -18.8237   19.9333 N   0  0  0  0  0  0  0  0  0  0  0  0
   11.7220  -16.3355   23.8404 C   0  0  0  0  0  0  0  0  0  0  0  0
   12.0296  -16.8624   25.0766 O   0  0  0  0  0  0  0  0  0  0  0  0
   11.4920  -15.0859   23.8031 O   0  0  0  0  0  0  0  0  0  0  0  0
  2  1  1  1
  2  3  1  0
  4  2  1  0
  4  5  2  0
  7  6  1  1
  7  9  1  0
  7  8  1  0
 10  9  1  1
 10 11  1  0
 10 12  1  0
 11  4  1  0
 12 14  1  0
 13 12  2  0
 14 15  1  0
 15 22  1  0
 16 17  1  0
 15 16  1  6
 17 18  2  0
 19 18  1  0
 20 19  1  0
 21 20  2  0
 21 17  1  0
 22 24  2  0
 22 23  1  0
M  END
$$$$
