ALH.pdb
     RDKit          3D

 24 24  0  0  1  0  0  0  0  0999 V2000
    7.2887  -17.4042   21.2159 C   0  0  0  0  0  0  0  0  0  0  0  0
    7.7138  -15.9656   20.9624 C   0  0  2  0  0  0  0  0  0  0  0  0
    8.7160  -15.9606   19.9347 N   0  0  0  0  0  0  0  0  0  0  0  0
    8.2498  -15.4109   22.2269 C   0  0  0  0  0  0  0  0  0  0  0  0
    9.4948  -15.4297   22.4852 O   0  0  0  0  0  0  0  0  0  0  0  0
    8.3886  -11.7363   26.0772 C   0  0  0  0  0  0  0  0  0  0  0  0
    7.3659  -12.8313   26.3863 C   0  0  1  0  0  0  0  0  0  0  0  0
    6.1466  -12.1986   27.0701 C   0  0  0  0  0  0  0  0  0  0  0  0
    6.8721  -13.4215   25.1086 C   0  0  0  0  0  0  0  0  0  0  0  0
    7.9141  -14.2661   24.4574 C   0  0  2  0  0  0  0  0  0  0  0  0
    7.3868  -14.8365   23.1984 N   0  0  0  0  0  0  0  0  0  0  0  0
    8.2915  -15.3951   25.3654 C   0  0  0  0  0  0  0  0  0  0  0  0
    7.4539  -16.2290   25.7916 O   0  0  0  0  0  0  0  0  0  0  0  0
    9.6536  -15.5483   25.7761 N   0  0  0  0  0  0  0  0  0  0  0  0
   10.0399  -16.7545   26.5135 C   0  0  1  0  0  0  0  0  0  0  0  0
   11.2421  -17.4002   25.8772 C   0  0  0  0  0  0  0  0  0  0  0  0
   10.8876  -17.8990   24.5390 C   0  0  0  0  0  0  0  0  0  0  0  0
   10.0281  -18.9233   24.2236 C   0  0  0  0  0  0  0  0  0  0  0  0
   10.0050  -19.0637   22.8975 N   0  0  0  0  0  0  0  0  0  0  0  0
   10.8272  -18.1543   22.3787 C   0  0  0  0  0  0  0  0  0  0  0  0
   11.3761  -17.4325   23.3687 N   0  0  0  0  0  0  0  0  0  0  0  0
   10.1841  -16.4623   27.9456 C   0  0  0  0  0  0  0  0  0  0  0  0
   10.2837  -17.4134   28.9386 O   0  0  0  0  0  0  0  0  0  0  0  0
   10.2209  -15.2491   28.3230 O   0  0  0  0  0  0  0  0  0  0  0  0
  2  1  1  1
  2  3  1  0
  4  2  1  0
  4  5  2  0
  7  6  1  6
  7  9  1  0
  7  8  1  0
 10  9  1  1
 10 11  1  0
 10 12  1  0
 11  4  1  0
 12 14  1  0
 13 12  2  0
 14 15  1  0
 15 22  1  0
 16 17  1  0
 15 16  1  6
 17 18  2  0
 19 18  1  0
 20 19  1  0
 21 20  2  0
 21 17  1  0
 22 24  2  0
 22 23  1  0
M  END
$$$$
