ALH.pdb
     RDKit          3D

 24 24  0  0  1  0  0  0  0  0999 V2000
    8.5033  -19.3661   20.0275 C   0  0  0  0  0  0  0  0  0  0  0  0
    8.9762  -18.2543   19.1031 C   0  0  2  0  0  0  0  0  0  0  0  0
   10.0511  -18.7584   18.2962 N   0  0  0  0  0  0  0  0  0  0  0  0
    9.4295  -17.1182   19.9384 C   0  0  0  0  0  0  0  0  0  0  0  0
   10.6449  -16.9975   20.2923 O   0  0  0  0  0  0  0  0  0  0  0  0
    6.7681  -12.3952   19.5417 C   0  0  0  0  0  0  0  0  0  0  0  0
    7.9156  -13.3980   19.6754 C   0  0  1  0  0  0  0  0  0  0  0  0
    9.2389  -12.6898   19.3563 C   0  0  0  0  0  0  0  0  0  0  0  0
    8.0130  -13.8518   21.0929 C   0  0  0  0  0  0  0  0  0  0  0  0
    8.9534  -14.9999   21.2364 C   0  0  2  0  0  0  0  0  0  0  0  0
    8.5170  -16.1203   20.3747 N   0  0  0  0  0  0  0  0  0  0  0  0
    8.9626  -15.4728   22.6569 C   0  0  0  0  0  0  0  0  0  0  0  0
    9.4192  -14.7771   23.5983 O   0  0  0  0  0  0  0  0  0  0  0  0
    8.4358  -16.7643   22.9766 N   0  0  0  0  0  0  0  0  0  0  0  0
    8.4606  -17.2142   24.3711 C   0  0  1  0  0  0  0  0  0  0  0  0
    7.3947  -18.2503   24.6109 C   0  0  0  0  0  0  0  0  0  0  0  0
    7.5528  -18.8227   25.9571 C   0  0  0  0  0  0  0  0  0  0  0  0
    8.3914  -18.3975   26.9588 C   0  0  0  0  0  0  0  0  0  0  0  0
    8.2378  -19.2034   28.0103 N   0  0  0  0  0  0  0  0  0  0  0  0
    7.3260  -20.1190   27.6904 C   0  0  0  0  0  0  0  0  0  0  0  0
    6.8958  -19.9014   26.4373 N   0  0  0  0  0  0  0  0  0  0  0  0
    9.8163  -17.6249   24.7590 C   0  0  0  0  0  0  0  0  0  0  0  0
   10.3413  -17.5137   26.0289 O   0  0  0  0  0  0  0  0  0  0  0  0
   10.5828  -18.1217   23.8750 O   0  0  0  0  0  0  0  0  0  0  0  0
  2  1  1  1
  2  3  1  0
  4  2  1  0
  4  5  2  0
  7  6  1  1
  7  9  1  0
  7  8  1  0
 10  9  1  1
 10 11  1  0
 10 12  1  0
 11  4  1  0
 12 14  1  0
 13 12  2  0
 14 15  1  0
 15 22  1  0
 16 17  1  0
 15 16  1  6
 17 18  2  0
 19 18  1  0
 20 19  1  0
 21 20  2  0
 21 17  1  0
 22 24  2  0
 22 23  1  0
M  END
$$$$
