ALH.pdb
     RDKit          3D

 24 24  0  0  1  0  0  0  0  0999 V2000
    7.9469  -12.4937   20.1589 C   0  0  0  0  0  0  0  0  0  0  0  0
    7.8152  -13.9376   20.6196 C   0  0  2  0  0  0  0  0  0  0  0  0
    6.4268  -14.3009   20.5898 N   0  0  0  0  0  0  0  0  0  0  0  0
    8.3589  -14.0373   21.9938 C   0  0  0  0  0  0  0  0  0  0  0  0
    9.6041  -13.9239   22.2251 O   0  0  0  0  0  0  0  0  0  0  0  0
    5.4692  -12.4194   26.3392 C   0  0  0  0  0  0  0  0  0  0  0  0
    6.6994  -12.6807   25.4683 C   0  0  1  0  0  0  0  0  0  0  0  0
    7.9100  -11.9679   26.0853 C   0  0  0  0  0  0  0  0  0  0  0  0
    7.0163  -14.1380   25.4848 C   0  0  0  0  0  0  0  0  0  0  0  0
    8.0454  -14.4857   24.4634 C   0  0  2  0  0  0  0  0  0  0  0  0
    7.5031  -14.2641   23.1050 N   0  0  0  0  0  0  0  0  0  0  0  0
    8.4197  -15.9297   24.5924 C   0  0  0  0  0  0  0  0  0  0  0  0
    8.0075  -16.8089   23.7951 O   0  0  0  0  0  0  0  0  0  0  0  0
    9.2789  -16.3459   25.6582 N   0  0  0  0  0  0  0  0  0  0  0  0
   10.3552  -17.2979   25.3700 C   0  0  1  0  0  0  0  0  0  0  0  0
   11.1790  -16.8258   24.2014 C   0  0  0  0  0  0  0  0  0  0  0  0
   10.6993  -17.4644   22.9657 C   0  0  0  0  0  0  0  0  0  0  0  0
   10.6233  -16.9140   21.7092 C   0  0  0  0  0  0  0  0  0  0  0  0
   10.1147  -17.8246   20.8780 N   0  0  0  0  0  0  0  0  0  0  0  0
    9.8719  -18.9272   21.5832 C   0  0  0  0  0  0  0  0  0  0  0  0
   10.2236  -18.7250   22.8630 N   0  0  0  0  0  0  0  0  0  0  0  0
   11.1245  -17.5938   26.5857 C   0  0  0  0  0  0  0  0  0  0  0  0
   11.5529  -16.6522   27.4969 O   0  0  0  0  0  0  0  0  0  0  0  0
   11.4319  -18.8011   26.8378 O   0  0  0  0  0  0  0  0  0  0  0  0
  2  1  1  1
  2  3  1  0
  4  2  1  0
  4  5  2  0
  7  6  1  1
  7  9  1  0
  7  8  1  0
 10  9  1  1
 10 11  1  0
 10 12  1  0
 11  4  1  0
 12 14  1  0
 13 12  2  0
 14 15  1  0
 15 22  1  0
 16 17  1  0
 15 16  1  6
 17 18  2  0
 19 18  1  0
 20 19  1  0
 21 20  2  0
 21 17  1  0
 22 24  2  0
 22 23  1  0
M  END
$$$$
