ALH.pdb
     RDKit          3D

 24 24  0  0  1  0  0  0  0  0999 V2000
    6.3881  -14.6729   20.6960 C   0  0  0  0  0  0  0  0  0  0  0  0
    6.9246  -15.7667   21.6070 C   0  0  2  0  0  0  0  0  0  0  0  0
    5.8147  -16.4044   22.2566 N   0  0  0  0  0  0  0  0  0  0  0  0
    7.8301  -15.1415   22.5986 C   0  0  0  0  0  0  0  0  0  0  0  0
    8.9325  -14.6120   22.2501 O   0  0  0  0  0  0  0  0  0  0  0  0
    5.6692  -12.3793   26.8827 C   0  0  0  0  0  0  0  0  0  0  0  0
    6.5828  -12.7388   25.7096 C   0  0  1  0  0  0  0  0  0  0  0  0
    7.5370  -11.5675   25.4412 C   0  0  0  0  0  0  0  0  0  0  0  0
    7.4389  -13.9002   26.0873 C   0  0  0  0  0  0  0  0  0  0  0  0
    8.2991  -14.3384   24.9510 C   0  0  2  0  0  0  0  0  0  0  0  0
    7.4956  -15.1120   23.9792 N   0  0  0  0  0  0  0  0  0  0  0  0
    9.4002  -15.2169   25.4584 C   0  0  0  0  0  0  0  0  0  0  0  0
   10.2530  -14.8195   26.2912 O   0  0  0  0  0  0  0  0  0  0  0  0
    9.5036  -16.5648   24.9895 N   0  0  0  0  0  0  0  0  0  0  0  0
   10.5540  -17.4272   25.5380 C   0  0  1  0  0  0  0  0  0  0  0  0
   11.9146  -16.8488   25.2528 C   0  0  0  0  0  0  0  0  0  0  0  0
   12.1119  -16.7374   23.7989 C   0  0  0  0  0  0  0  0  0  0  0  0
   11.2210  -17.0550   22.8025 C   0  0  0  0  0  0  0  0  0  0  0  0
   11.8026  -16.8235   21.6248 N   0  0  0  0  0  0  0  0  0  0  0  0
   13.0318  -16.3704   21.8612 C   0  0  0  0  0  0  0  0  0  0  0  0
   13.2384  -16.3112   23.1865 N   0  0  0  0  0  0  0  0  0  0  0  0
   10.2953  -17.7227   26.9532 C   0  0  0  0  0  0  0  0  0  0  0  0
   11.0967  -18.5077   27.7545 O   0  0  0  0  0  0  0  0  0  0  0  0
    9.2603  -17.2305   27.5029 O   0  0  0  0  0  0  0  0  0  0  0  0
  2  1  1  6
  2  3  1  0
  4  2  1  0
  4  5  2  0
  7  6  1  1
  7  9  1  0
  7  8  1  0
 10  9  1  1
 10 11  1  0
 10 12  1  0
 11  4  1  0
 12 14  1  0
 13 12  2  0
 14 15  1  0
 15 22  1  0
 16 17  1  0
 15 16  1  1
 17 18  2  0
 19 18  1  0
 20 19  1  0
 21 20  2  0
 21 17  1  0
 22 24  2  0
 22 23  1  0
M  END
$$$$
