HII.pdb
     RDKit          3D

 27 27  0  0  1  0  0  0  0  0999 V2000
   26.2111  -19.7701  -18.4783 N   0  0  0  0  0  0  0  0  0  0  0  0
   26.0174  -19.0539  -17.2355 C   0  0  1  0  0  0  0  0  0  0  0  0
   24.7006  -18.3369  -17.1476 C   0  0  0  0  0  0  0  0  0  0  0  0
   24.5658  -17.1828  -18.0532 C   0  0  0  0  0  0  0  0  0  0  0  0
   24.9428  -17.0594  -19.3674 C   0  0  0  0  0  0  0  0  0  0  0  0
   24.6302  -15.8118  -19.7867 N   0  0  0  0  0  0  0  0  0  0  0  0
   24.0706  -15.1727  -18.7545 C   0  0  0  0  0  0  0  0  0  0  0  0
   24.0195  -15.9805  -17.6917 N   0  0  0  0  0  0  0  0  0  0  0  0
   26.2388  -19.9754  -16.1068 C   0  0  0  0  0  0  0  0  0  0  0  0
   25.6800  -21.0924  -16.0794 O   0  0  0  0  0  0  0  0  0  0  0  0
   30.6487  -20.8353  -12.1247 C   0  0  0  0  0  0  0  0  0  0  0  0
   29.1535  -21.1473  -12.3068 C   0  0  0  0  0  0  0  0  0  0  0  0
   28.7084  -20.3555  -13.4852 C   0  0  2  0  0  0  0  0  0  0  0  0
   29.1154  -18.9115  -13.2844 C   0  0  0  0  0  0  0  0  0  0  0  0
   27.2620  -20.5197  -13.8719 C   0  0  2  0  0  0  0  0  0  0  0  0
   27.0816  -19.6279  -15.0314 N   0  0  0  0  0  0  0  0  0  0  0  0
   26.3009  -20.0937  -12.8424 C   0  0  0  0  0  0  0  0  0  0  0  0
   26.1492  -18.8667  -12.6121 O   0  0  0  0  0  0  0  0  0  0  0  0
   21.4284  -20.8754  -12.8568 C   0  0  0  0  0  0  0  0  0  0  0  0
   22.7830  -20.3305  -12.5377 C   0  0  0  0  0  0  0  0  0  0  0  0
   23.2595  -20.9218  -11.2514 C   0  0  2  0  0  0  0  0  0  0  0  0
   22.3469  -20.5131  -10.1423 C   0  0  0  0  0  0  0  0  0  0  0  0
   24.6999  -20.5149  -10.9392 C   0  0  2  0  0  0  0  0  0  0  0  0
   25.4992  -20.9745  -12.0583 N   0  0  0  0  0  0  0  0  0  0  0  0
   25.1249  -21.0692   -9.6579 C   0  0  0  0  0  0  0  0  0  0  0  0
   24.8884  -20.4664   -8.5857 O   0  0  0  0  0  0  0  0  0  0  0  0
   25.8003  -22.2713   -9.5710 O   0  0  0  0  0  0  0  0  0  0  0  0
  2  1  1  6
  3  2  1  0
  3  4  1  0
  4  5  2  0
  5  6  1  0
  7  6  1  0
  8  4  1  0
  8  7  2  0
  9 10  2  0
  9  2  1  0
 12 11  1  0
 13 12  1  0
 13 14  1  1
 15 13  1  0
 15 16  1  6
 16  9  1  0
 17 15  1  0
 18 17  2  0
 19 20  1  0
 21 22  1  1
 21 20  1  0
 23 21  1  0
 23 24  1  6
 24 17  1  0
 25 27  1  0
 25 23  1  0
 26 25  2  0
M  END
$$$$
