HII.pdb
     RDKit          3D

 27 27  0  0  1  0  0  0  0  0999 V2000
   19.9523  -21.4059  -11.7617 N   0  0  0  0  0  0  0  0  0  0  0  0
   20.6691  -21.6396  -12.9972 C   0  0  1  0  0  0  0  0  0  0  0  0
   19.8024  -21.5770  -14.2223 C   0  0  0  0  0  0  0  0  0  0  0  0
   18.8719  -22.7085  -14.3773 C   0  0  0  0  0  0  0  0  0  0  0  0
   18.7666  -23.8567  -13.6323 C   0  0  0  0  0  0  0  0  0  0  0  0
   17.7742  -24.6146  -14.1526 N   0  0  0  0  0  0  0  0  0  0  0  0
   17.2730  -23.9515  -15.1995 C   0  0  0  0  0  0  0  0  0  0  0  0
   17.9201  -22.7935  -15.3579 N   0  0  0  0  0  0  0  0  0  0  0  0
   21.8210  -20.7230  -13.0689 C   0  0  0  0  0  0  0  0  0  0  0  0
   21.7164  -19.5396  -12.6827 O   0  0  0  0  0  0  0  0  0  0  0  0
   26.4672  -21.8499  -11.1080 C   0  0  0  0  0  0  0  0  0  0  0  0
   25.1748  -21.1615  -11.5794 C   0  0  0  0  0  0  0  0  0  0  0  0
   25.3516  -20.9062  -13.0344 C   0  0  2  0  0  0  0  0  0  0  0  0
   26.6791  -20.2115  -13.2498 C   0  0  0  0  0  0  0  0  0  0  0  0
   24.2000  -20.2188  -13.7200 C   0  0  2  0  0  0  0  0  0  0  0  0
   23.0671  -21.1498  -13.5715 N   0  0  0  0  0  0  0  0  0  0  0  0
   24.3916  -19.9942  -15.1615 C   0  0  0  0  0  0  0  0  0  0  0  0
   24.5732  -20.9811  -15.9195 O   0  0  0  0  0  0  0  0  0  0  0  0
   21.1690  -17.2940  -18.0607 C   0  0  0  0  0  0  0  0  0  0  0  0
   22.2089  -18.2588  -17.5900 C   0  0  0  0  0  0  0  0  0  0  0  0
   23.5599  -17.6431  -17.7540 C   0  0  2  0  0  0  0  0  0  0  0  0
   23.7983  -17.3316  -19.1948 C   0  0  0  0  0  0  0  0  0  0  0  0
   24.6656  -18.5484  -17.2103 C   0  0  2  0  0  0  0  0  0  0  0  0
   24.3883  -18.7177  -15.7971 N   0  0  0  0  0  0  0  0  0  0  0  0
   25.9798  -17.9728  -17.4774 C   0  0  0  0  0  0  0  0  0  0  0  0
   26.3665  -16.9449  -16.8752 O   0  0  0  0  0  0  0  0  0  0  0  0
   26.8472  -18.5300  -18.3971 O   0  0  0  0  0  0  0  0  0  0  0  0
  2  1  1  1
  3  2  1  0
  3  4  1  0
  4  5  2  0
  5  6  1  0
  7  6  1  0
  8  4  1  0
  8  7  2  0
  9 10  2  0
  9  2  1  0
 12 11  1  0
 13 12  1  0
 13 14  1  1
 15 13  1  0
 15 16  1  6
 16  9  1  0
 17 15  1  0
 18 17  2  0
 19 20  1  0
 21 22  1  6
 21 20  1  0
 23 21  1  0
 23 24  1  1
 24 17  1  0
 25 27  1  0
 25 23  1  0
 26 25  2  0
M  END
$$$$
