HII.pdb
     RDKit          3D

 27 27  0  0  1  0  0  0  0  0999 V2000
   28.2428  -20.8797  -15.4282 N   0  0  0  0  0  0  0  0  0  0  0  0
   27.3621  -19.9406  -14.7669 C   0  0  1  0  0  0  0  0  0  0  0  0
   26.7235  -18.9496  -15.6974 C   0  0  0  0  0  0  0  0  0  0  0  0
   27.6725  -18.1199  -16.4597 C   0  0  0  0  0  0  0  0  0  0  0  0
   28.4731  -17.0925  -16.0261 C   0  0  0  0  0  0  0  0  0  0  0  0
   29.1696  -16.6173  -17.0840 N   0  0  0  0  0  0  0  0  0  0  0  0
   28.8093  -17.3342  -18.1532 C   0  0  0  0  0  0  0  0  0  0  0  0
   27.9034  -18.2514  -17.8028 N   0  0  0  0  0  0  0  0  0  0  0  0
   26.3746  -20.6856  -13.9657 C   0  0  0  0  0  0  0  0  0  0  0  0
   25.8410  -21.7209  -14.4172 O   0  0  0  0  0  0  0  0  0  0  0  0
   26.8638  -20.6861   -8.6096 C   0  0  0  0  0  0  0  0  0  0  0  0
   26.6472  -21.2034  -10.0420 C   0  0  0  0  0  0  0  0  0  0  0  0
   25.3118  -20.7007  -10.4636 C   0  0  2  0  0  0  0  0  0  0  0  0
   24.2698  -21.2096   -9.4907 C   0  0  0  0  0  0  0  0  0  0  0  0
   24.9503  -20.9419  -11.9057 C   0  0  2  0  0  0  0  0  0  0  0  0
   26.0043  -20.2564  -12.6748 N   0  0  0  0  0  0  0  0  0  0  0  0
   23.6632  -20.3613  -12.3195 C   0  0  0  0  0  0  0  0  0  0  0  0
   23.5761  -19.1189  -12.4941 O   0  0  0  0  0  0  0  0  0  0  0  0
   20.5385  -19.5583  -16.6785 C   0  0  0  0  0  0  0  0  0  0  0  0
   20.2440  -19.7686  -15.2285 C   0  0  0  0  0  0  0  0  0  0  0  0
   21.4311  -20.3938  -14.5719 C   0  0  2  0  0  0  0  0  0  0  0  0
   21.6778  -21.7436  -15.1609 C   0  0  0  0  0  0  0  0  0  0  0  0
   21.2544  -20.4933  -13.0565 C   0  0  2  0  0  0  0  0  0  0  0  0
   22.4678  -21.1040  -12.5493 N   0  0  0  0  0  0  0  0  0  0  0  0
   20.0472  -21.2444  -12.7275 C   0  0  0  0  0  0  0  0  0  0  0  0
   18.9445  -20.6648  -12.5964 O   0  0  0  0  0  0  0  0  0  0  0  0
   20.0662  -22.6141  -12.5477 O   0  0  0  0  0  0  0  0  0  0  0  0
  2  1  1  6
  3  2  1  0
  3  4  1  0
  4  5  2  0
  5  6  1  0
  7  6  1  0
  8  4  1  0
  8  7  2  0
  9 10  2  0
  9  2  1  0
 12 11  1  0
 13 12  1  0
 13 14  1  1
 15 13  1  0
 15 16  1  6
 16  9  1  0
 17 15  1  0
 18 17  2  0
 19 20  1  0
 21 22  1  6
 21 20  1  0
 23 21  1  0
 23 24  1  1
 24 17  1  0
 25 27  1  0
 25 23  1  0
 26 25  2  0
M  END
$$$$
