HII.pdb
     RDKit          3D

 27 27  0  0  1  0  0  0  0  0999 V2000
   20.3767  -20.9221  -12.4029 N   0  0  0  0  0  0  0  0  0  0  0  0
   21.2958  -21.4041  -13.4119 C   0  0  1  0  0  0  0  0  0  0  0  0
   20.7209  -21.4171  -14.7993 C   0  0  0  0  0  0  0  0  0  0  0  0
   19.5758  -22.3253  -14.9834 C   0  0  0  0  0  0  0  0  0  0  0  0
   19.5659  -23.6831  -15.1850 C   0  0  0  0  0  0  0  0  0  0  0  0
   18.2812  -24.0872  -15.3123 N   0  0  0  0  0  0  0  0  0  0  0  0
   17.5083  -23.0031  -15.1925 C   0  0  0  0  0  0  0  0  0  0  0  0
   18.2673  -21.9221  -14.9926 N   0  0  0  0  0  0  0  0  0  0  0  0
   22.5531  -20.6401  -13.3251 C   0  0  0  0  0  0  0  0  0  0  0  0
   22.5378  -19.4189  -13.0622 O   0  0  0  0  0  0  0  0  0  0  0  0
   27.7038  -21.4277  -10.8203 C   0  0  0  0  0  0  0  0  0  0  0  0
   27.1455  -20.5921  -11.9848 C   0  0  0  0  0  0  0  0  0  0  0  0
   25.7903  -21.1362  -12.2692 C   0  0  2  0  0  0  0  0  0  0  0  0
   25.8809  -22.6440  -12.3671 C   0  0  0  0  0  0  0  0  0  0  0  0
   25.0649  -20.5053  -13.4286 C   0  0  2  0  0  0  0  0  0  0  0  0
   23.8026  -21.2587  -13.5343 N   0  0  0  0  0  0  0  0  0  0  0  0
   25.7543  -20.6292  -14.7226 C   0  0  0  0  0  0  0  0  0  0  0  0
   25.5878  -21.6679  -15.4118 O   0  0  0  0  0  0  0  0  0  0  0  0
   28.3636  -16.8658  -18.8078 C   0  0  0  0  0  0  0  0  0  0  0  0
   28.0643  -18.2834  -18.4413 C   0  0  0  0  0  0  0  0  0  0  0  0
   27.5270  -18.3275  -17.0483 C   0  0  2  0  0  0  0  0  0  0  0  0
   28.5305  -17.7513  -16.1045 C   0  0  0  0  0  0  0  0  0  0  0  0
   27.1509  -19.7492  -16.6300 C   0  0  2  0  0  0  0  0  0  0  0  0
   26.6207  -19.6457  -15.2844 N   0  0  0  0  0  0  0  0  0  0  0  0
   28.3045  -20.6374  -16.7310 C   0  0  0  0  0  0  0  0  0  0  0  0
   28.6365  -21.1386  -17.8298 O   0  0  0  0  0  0  0  0  0  0  0  0
   29.0741  -20.9618  -15.6304 O   0  0  0  0  0  0  0  0  0  0  0  0
  2  1  1  1
  3  2  1  0
  3  4  1  0
  4  5  2  0
  5  6  1  0
  7  6  1  0
  8  4  1  0
  8  7  2  0
  9 10  2  0
  9  2  1  0
 12 11  1  0
 13 12  1  0
 13 14  1  6
 15 13  1  0
 15 16  1  6
 16  9  1  0
 17 15  1  0
 18 17  2  0
 19 20  1  0
 21 22  1  1
 21 20  1  0
 23 21  1  0
 23 24  1  1
 24 17  1  0
 25 27  1  0
 25 23  1  0
 26 25  2  0
M  END
$$$$
