HII.pdb
     RDKit          3D

 27 27  0  0  1  0  0  0  0  0999 V2000
   28.5995  -20.1916  -15.1819 N   0  0  0  0  0  0  0  0  0  0  0  0
   27.5725  -19.4982  -14.4339 C   0  0  1  0  0  0  0  0  0  0  0  0
   26.7447  -18.5610  -15.2659 C   0  0  0  0  0  0  0  0  0  0  0  0
   27.4942  -17.4428  -15.8643 C   0  0  0  0  0  0  0  0  0  0  0  0
   27.8875  -16.2564  -15.2967 C   0  0  0  0  0  0  0  0  0  0  0  0
   28.5428  -15.5313  -16.2320 N   0  0  0  0  0  0  0  0  0  0  0  0
   28.5562  -16.2517  -17.3579 C   0  0  0  0  0  0  0  0  0  0  0  0
   27.9277  -17.4142  -17.1628 N   0  0  0  0  0  0  0  0  0  0  0  0
   26.7547  -20.4849  -13.7063 C   0  0  0  0  0  0  0  0  0  0  0  0
   26.3743  -21.5335  -14.2686 O   0  0  0  0  0  0  0  0  0  0  0  0
   26.6942  -20.6186   -8.2014 C   0  0  0  0  0  0  0  0  0  0  0  0
   26.7378  -21.1484   -9.6449 C   0  0  0  0  0  0  0  0  0  0  0  0
   25.4349  -20.7765  -10.2593 C   0  0  2  0  0  0  0  0  0  0  0  0
   24.3172  -21.3719   -9.4302 C   0  0  0  0  0  0  0  0  0  0  0  0
   25.3034  -21.0633  -11.7321 C   0  0  2  0  0  0  0  0  0  0  0  0
   26.3790  -20.2778  -12.3632 N   0  0  0  0  0  0  0  0  0  0  0  0
   24.0341  -20.6215  -12.3310 C   0  0  0  0  0  0  0  0  0  0  0  0
   23.7538  -19.3956  -12.3447 O   0  0  0  0  0  0  0  0  0  0  0  0
   20.8888  -21.0948  -17.1950 C   0  0  0  0  0  0  0  0  0  0  0  0
   20.6982  -20.8574  -15.7318 C   0  0  0  0  0  0  0  0  0  0  0  0
   21.9184  -21.3092  -14.9981 C   0  0  2  0  0  0  0  0  0  0  0  0
   22.1199  -22.7732  -15.2124 C   0  0  0  0  0  0  0  0  0  0  0  0
   21.8324  -20.9919  -13.5049 C   0  0  2  0  0  0  0  0  0  0  0  0
   23.0628  -21.4853  -12.9173 N   0  0  0  0  0  0  0  0  0  0  0  0
   20.6336  -21.5850  -12.9210 C   0  0  0  0  0  0  0  0  0  0  0  0
   20.6483  -22.7531  -12.4691 O   0  0  0  0  0  0  0  0  0  0  0  0
   19.4411  -20.8918  -12.8415 O   0  0  0  0  0  0  0  0  0  0  0  0
  2  1  1  6
  3  2  1  0
  3  4  1  0
  4  5  2  0
  5  6  1  0
  7  6  1  0
  8  4  1  0
  8  7  2  0
  9 10  2  0
  9  2  1  0
 12 11  1  0
 13 12  1  0
 13 14  1  1
 15 13  1  0
 15 16  1  6
 16  9  1  0
 17 15  1  0
 18 17  2  0
 19 20  1  0
 21 22  1  1
 21 20  1  0
 23 21  1  0
 23 24  1  1
 24 17  1  0
 25 27  1  0
 25 23  1  0
 26 25  2  0
M  END
$$$$
