VVN.pdb
     RDKit          3D

 23 22  0  0  1  0  0  0  0  0999 V2000
   14.1456  -11.4547  -12.9079 C   0  0  0  0  0  0  0  0  0  0  0  0
   14.5842  -11.7735  -11.5194 C   0  0  2  0  0  0  0  0  0  0  0  0
   14.3204  -13.2381  -11.2402 C   0  0  0  0  0  0  0  0  0  0  0  0
   13.9882  -10.8991  -10.4612 C   0  0  2  0  0  0  0  0  0  0  0  0
   12.5820  -11.2309  -10.3565 N   0  0  0  0  0  0  0  0  0  0  0  0
   14.1397   -9.4716  -10.6753 C   0  0  0  0  0  0  0  0  0  0  0  0
   13.4205   -8.7638  -11.4270 O   0  0  0  0  0  0  0  0  0  0  0  0
   15.7970   -7.3365   -7.7219 C   0  0  0  0  0  0  0  0  0  0  0  0
   15.0533   -6.6947   -8.8326 C   0  0  2  0  0  0  0  0  0  0  0  0
   13.5480   -6.8085   -8.5937 C   0  0  0  0  0  0  0  0  0  0  0  0
   15.3623   -7.3239  -10.1520 C   0  0  2  0  0  0  0  0  0  0  0  0
   15.1781   -8.7800   -9.9949 N   0  0  0  0  0  0  0  0  0  0  0  0
   16.7454   -7.1244  -10.5914 C   0  0  0  0  0  0  0  0  0  0  0  0
   17.7281   -7.5383   -9.8800 O   0  0  0  0  0  0  0  0  0  0  0  0
   20.5717   -8.8412  -14.0528 N   0  0  0  0  0  0  0  0  0  0  0  0
   20.2848   -7.8765  -13.0585 C   0  0  0  0  0  0  0  0  0  0  0  0
   21.1876   -7.0688  -12.7328 O   0  0  0  0  0  0  0  0  0  0  0  0
   18.9515   -7.8317  -12.4272 C   0  0  0  0  0  0  0  0  0  0  0  0
   18.4776   -6.3950  -12.2091 C   0  0  2  0  0  0  0  0  0  0  0  0
   17.0670   -6.4853  -11.7949 N   0  0  0  0  0  0  0  0  0  0  0  0
   18.5291   -5.6423  -13.4735 C   0  0  0  0  0  0  0  0  0  0  0  0
   17.3770   -5.4594  -14.2385 O   0  0  0  0  0  0  0  0  0  0  0  0
   19.5816   -5.1339  -13.9297 O   0  0  0  0  0  0  0  0  0  0  0  0
  2  1  1  6
  2  3  1  0
  2  4  1  0
  4  6  1  0
  4  5  1  6
  6 12  1  0
  6  7  2  0
  9  8  1  1
  9 11  1  0
 10  9  1  0
 11 13  1  0
 11 12  1  1
 13 14  2  0
 15 16  1  0
 16 17  2  0
 18 16  1  0
 19 18  1  6
 19 21  1  0
 20 13  1  0
 20 19  1  0
 21 22  1  0
 23 21  2  0
M  END
$$$$
