VVN.pdb
     RDKit          3D

 23 22  0  0  1  0  0  0  0  0999 V2000
   38.0828  -10.6209  -15.2549 C   0  0  0  0  0  0  0  0  0  0  0  0
   38.0606   -9.2886  -14.5867 C   0  0  2  0  0  0  0  0  0  0  0  0
   38.7503   -9.3964  -13.2430 C   0  0  0  0  0  0  0  0  0  0  0  0
   36.6999   -8.6797  -14.4556 C   0  0  2  0  0  0  0  0  0  0  0  0
   35.9837   -9.4179  -13.4356 N   0  0  0  0  0  0  0  0  0  0  0  0
   35.9144   -8.6427  -15.6756 C   0  0  0  0  0  0  0  0  0  0  0  0
   36.3179   -8.2295  -16.7935 O   0  0  0  0  0  0  0  0  0  0  0  0
   33.7338  -11.3945  -17.3031 C   0  0  0  0  0  0  0  0  0  0  0  0
   32.8927  -10.2369  -16.9146 C   0  0  2  0  0  0  0  0  0  0  0  0
   31.7838  -10.0224  -17.9443 C   0  0  0  0  0  0  0  0  0  0  0  0
   33.6860   -8.9745  -16.8177 C   0  0  2  0  0  0  0  0  0  0  0  0
   34.5708   -9.1042  -15.6434 N   0  0  0  0  0  0  0  0  0  0  0  0
   32.8685   -7.7798  -16.5930 C   0  0  0  0  0  0  0  0  0  0  0  0
   32.1977   -7.6356  -15.5104 O   0  0  0  0  0  0  0  0  0  0  0  0
   32.7088   -2.2503  -16.3296 N   0  0  0  0  0  0  0  0  0  0  0  0
   32.0304   -3.4405  -15.9762 C   0  0  0  0  0  0  0  0  0  0  0  0
   30.8821   -3.3478  -15.4801 O   0  0  0  0  0  0  0  0  0  0  0  0
   32.6692   -4.7536  -16.1911 C   0  0  0  0  0  0  0  0  0  0  0  0
   31.9238   -5.5798  -17.2388 C   0  0  2  0  0  0  0  0  0  0  0  0
   32.7788   -6.7433  -17.5300 N   0  0  0  0  0  0  0  0  0  0  0  0
   31.7716   -4.8090  -18.4840 C   0  0  0  0  0  0  0  0  0  0  0  0
   30.7052   -3.9244  -18.6459 O   0  0  0  0  0  0  0  0  0  0  0  0
   32.5677   -4.8973  -19.4500 O   0  0  0  0  0  0  0  0  0  0  0  0
  2  1  1  1
  2  3  1  0
  2  4  1  0
  4  6  1  0
  4  5  1  1
  6 12  1  0
  6  7  2  0
  9  8  1  6
  9 11  1  0
 10  9  1  0
 11 13  1  0
 11 12  1  1
 13 14  2  0
 15 16  1  0
 16 17  2  0
 18 16  1  0
 19 18  1  1
 19 21  1  0
 20 13  1  0
 20 19  1  0
 21 22  1  0
 23 21  2  0
M  END
$$$$
