VVN.pdb
     RDKit          3D

 23 22  0  0  1  0  0  0  0  0999 V2000
   18.3670  -14.0516  -18.7988 C   0  0  0  0  0  0  0  0  0  0  0  0
   18.5172  -13.0126  -17.7405 C   0  0  2  0  0  0  0  0  0  0  0  0
   18.2256  -11.6518  -18.3368 C   0  0  0  0  0  0  0  0  0  0  0  0
   19.8364  -13.0288  -17.0340 C   0  0  2  0  0  0  0  0  0  0  0  0
   19.9885  -14.3298  -16.4154 N   0  0  0  0  0  0  0  0  0  0  0  0
   20.0224  -11.9887  -16.0389 C   0  0  0  0  0  0  0  0  0  0  0  0
   19.3495  -11.8564  -14.9840 O   0  0  0  0  0  0  0  0  0  0  0  0
   23.4389   -9.5655  -16.3718 C   0  0  0  0  0  0  0  0  0  0  0  0
   22.7287   -9.7769  -15.0875 C   0  0  2  0  0  0  0  0  0  0  0  0
   23.2420  -11.0439  -14.4040 C   0  0  0  0  0  0  0  0  0  0  0  0
   21.2537   -9.9183  -15.2788 C   0  0  2  0  0  0  0  0  0  0  0  0
   21.0417  -11.0190  -16.2391 N   0  0  0  0  0  0  0  0  0  0  0  0
   20.6175   -8.7325  -15.8578 C   0  0  0  0  0  0  0  0  0  0  0  0
   20.6093   -8.5429  -17.1255 O   0  0  0  0  0  0  0  0  0  0  0  0
   16.6484   -5.3063  -17.1869 N   0  0  0  0  0  0  0  0  0  0  0  0
   17.2159   -5.4074  -15.8948 C   0  0  0  0  0  0  0  0  0  0  0  0
   17.1221   -4.4229  -15.1233 O   0  0  0  0  0  0  0  0  0  0  0  0
   17.8994   -6.6470  -15.4767 C   0  0  0  0  0  0  0  0  0  0  0  0
   19.4056   -6.5730  -15.7253 C   0  0  2  0  0  0  0  0  0  0  0  0
   19.9890   -7.7579  -15.0732 N   0  0  0  0  0  0  0  0  0  0  0  0
   19.9723   -5.3776  -15.0788 C   0  0  0  0  0  0  0  0  0  0  0  0
   20.0061   -4.1556  -15.7507 O   0  0  0  0  0  0  0  0  0  0  0  0
   20.4472   -5.3829  -13.9173 O   0  0  0  0  0  0  0  0  0  0  0  0
  2  1  1  6
  2  3  1  0
  2  4  1  0
  4  6  1  0
  4  5  1  1
  6 12  1  0
  6  7  2  0
  9  8  1  6
  9 11  1  0
 10  9  1  0
 11 13  1  0
 11 12  1  6
 13 14  2  0
 15 16  1  0
 16 17  2  0
 18 16  1  0
 19 18  1  1
 19 21  1  0
 20 13  1  0
 20 19  1  0
 21 22  1  0
 23 21  2  0
M  END
$$$$
