VVN.pdb
     RDKit          3D

 23 22  0  0  1  0  0  0  0  0999 V2000
   17.6113  -12.5152  -16.8698 C   0  0  0  0  0  0  0  0  0  0  0  0
   18.5657  -12.9389  -17.9337 C   0  0  2  0  0  0  0  0  0  0  0  0
   17.9021  -13.9816  -18.8083 C   0  0  0  0  0  0  0  0  0  0  0  0
   19.8921  -13.4130  -17.4282 C   0  0  2  0  0  0  0  0  0  0  0  0
   19.7360  -14.7901  -17.0068 N   0  0  0  0  0  0  0  0  0  0  0  0
   20.4612  -12.6313  -16.3458 C   0  0  0  0  0  0  0  0  0  0  0  0
   20.1024  -12.6797  -15.1407 O   0  0  0  0  0  0  0  0  0  0  0  0
   24.2137  -10.8702  -16.8025 C   0  0  0  0  0  0  0  0  0  0  0  0
   23.5280  -11.0932  -15.5069 C   0  0  2  0  0  0  0  0  0  0  0  0
   23.7200  -12.5394  -15.0514 C   0  0  0  0  0  0  0  0  0  0  0  0
   22.0607  -10.8259  -15.5954 C   0  0  2  0  0  0  0  0  0  0  0  0
   21.5155  -11.7229  -16.6332 N   0  0  0  0  0  0  0  0  0  0  0  0
   21.7340   -9.4601  -16.0122 C   0  0  0  0  0  0  0  0  0  0  0  0
   21.6070   -9.1632  -17.2527 O   0  0  0  0  0  0  0  0  0  0  0  0
   18.1036   -5.4639  -16.7003 N   0  0  0  0  0  0  0  0  0  0  0  0
   19.4606   -5.8458  -16.8209 C   0  0  0  0  0  0  0  0  0  0  0  0
   20.2621   -5.0404  -17.3521 O   0  0  0  0  0  0  0  0  0  0  0  0
   19.9099   -7.1631  -16.3294 C   0  0  0  0  0  0  0  0  0  0  0  0
   21.2450   -7.0655  -15.5919 C   0  0  2  0  0  0  0  0  0  0  0  0
   21.5405   -8.4202  -15.0948 N   0  0  0  0  0  0  0  0  0  0  0  0
   21.1211   -6.1745  -14.4263 C   0  0  0  0  0  0  0  0  0  0  0  0
   21.1992   -4.7901  -14.5792 O   0  0  0  0  0  0  0  0  0  0  0  0
   20.9438   -6.5919  -13.2564 O   0  0  0  0  0  0  0  0  0  0  0  0
  2  1  1  1
  2  3  1  0
  2  4  1  0
  4  6  1  0
  4  5  1  1
  6 12  1  0
  6  7  2  0
  9  8  1  6
  9 11  1  0
 10  9  1  0
 11 13  1  0
 11 12  1  6
 13 14  2  0
 15 16  1  0
 16 17  2  0
 18 16  1  0
 19 18  1  1
 19 21  1  0
 20 13  1  0
 20 19  1  0
 21 22  1  0
 23 21  2  0
M  END
$$$$
