VVN.pdb
     RDKit          3D

 23 22  0  0  1  0  0  0  0  0999 V2000
   28.8248  -21.0474  -14.7557 C   0  0  0  0  0  0  0  0  0  0  0  0
   28.0262  -20.2722  -15.7474 C   0  0  2  0  0  0  0  0  0  0  0  0
   28.9070  -19.2110  -16.3723 C   0  0  0  0  0  0  0  0  0  0  0  0
   26.7614  -19.6837  -15.2057 C   0  0  2  0  0  0  0  0  0  0  0  0
   27.1261  -18.6078  -14.3069 N   0  0  0  0  0  0  0  0  0  0  0  0
   25.8838  -20.6162  -14.5223 C   0  0  0  0  0  0  0  0  0  0  0  0
   25.4807  -21.7148  -14.9847 O   0  0  0  0  0  0  0  0  0  0  0  0
   24.5370  -19.7962  -10.4517 C   0  0  0  0  0  0  0  0  0  0  0  0
   24.8566  -21.1169  -11.0451 C   0  0  2  0  0  0  0  0  0  0  0  0
   26.3527  -21.4029  -10.9189 C   0  0  0  0  0  0  0  0  0  0  0  0
   24.4920  -21.1846  -12.4924 C   0  0  2  0  0  0  0  0  0  0  0  0
   25.4196  -20.2949  -13.2182 N   0  0  0  0  0  0  0  0  0  0  0  0
   23.1396  -20.7025  -12.7833 C   0  0  0  0  0  0  0  0  0  0  0  0
   22.8033  -19.4923  -12.5278 O   0  0  0  0  0  0  0  0  0  0  0  0
   19.0229  -19.3949  -15.0092 N   0  0  0  0  0  0  0  0  0  0  0  0
   19.4528  -20.5772  -15.6565 C   0  0  0  0  0  0  0  0  0  0  0  0
   19.0118  -20.8227  -16.8048 O   0  0  0  0  0  0  0  0  0  0  0  0
   20.3977  -21.4917  -14.9861 C   0  0  0  0  0  0  0  0  0  0  0  0
   20.8180  -20.9639  -13.6147 C   0  0  2  0  0  0  0  0  0  0  0  0
   22.1559  -21.5209  -13.3516 N   0  0  0  0  0  0  0  0  0  0  0  0
   19.9073  -21.4666  -12.5726 C   0  0  0  0  0  0  0  0  0  0  0  0
   18.9065  -20.6480  -12.0488 O   0  0  0  0  0  0  0  0  0  0  0  0
   19.9728  -22.6285  -12.1032 O   0  0  0  0  0  0  0  0  0  0  0  0
  2  1  1  1
  2  3  1  0
  2  4  1  0
  4  6  1  0
  4  5  1  1
  6 12  1  0
  6  7  2  0
  9  8  1  6
  9 11  1  0
 10  9  1  0
 11 13  1  0
 11 12  1  6
 13 14  2  0
 15 16  1  0
 16 17  2  0
 18 16  1  0
 19 18  1  6
 19 21  1  0
 20 13  1  0
 20 19  1  0
 21 22  1  0
 23 21  2  0
M  END
$$$$
