VVN.pdb
     RDKit          3D

 23 22  0  0  1  0  0  0  0  0999 V2000
   20.4820  -35.3108  -11.6809 C   0  0  0  0  0  0  0  0  0  0  0  0
   21.7935  -35.6459  -11.0565 C   0  0  2  0  0  0  0  0  0  0  0  0
   21.5950  -35.8594   -9.5707 C   0  0  0  0  0  0  0  0  0  0  0  0
   22.8831  -34.6560  -11.3259 C   0  0  2  0  0  0  0  0  0  0  0  0
   23.2289  -34.7532  -12.7292 N   0  0  0  0  0  0  0  0  0  0  0  0
   24.0774  -34.8091  -10.5156 C   0  0  0  0  0  0  0  0  0  0  0  0
   24.8738  -35.7822  -10.5622 O   0  0  0  0  0  0  0  0  0  0  0  0
   27.5321  -32.4423   -8.0458 C   0  0  0  0  0  0  0  0  0  0  0  0
   26.3008  -32.5173   -8.8684 C   0  0  2  0  0  0  0  0  0  0  0  0
   25.2917  -31.4679   -8.4031 C   0  0  0  0  0  0  0  0  0  0  0  0
   25.6485  -33.8586   -8.7809 C   0  0  2  0  0  0  0  0  0  0  0  0
   24.4080  -33.7935   -9.5782 N   0  0  0  0  0  0  0  0  0  0  0  0
   25.2507  -34.2337   -7.4219 C   0  0  0  0  0  0  0  0  0  0  0  0
   24.1615  -33.7929   -6.9098 O   0  0  0  0  0  0  0  0  0  0  0  0
   25.5038  -38.7390   -3.4074 N   0  0  0  0  0  0  0  0  0  0  0  0
   25.5455  -37.3612   -3.7264 C   0  0  0  0  0  0  0  0  0  0  0  0
   25.5249  -36.5304   -2.7869 O   0  0  0  0  0  0  0  0  0  0  0  0
   25.6115  -36.9247   -5.1348 C   0  0  0  0  0  0  0  0  0  0  0  0
   25.5644  -35.4019   -5.2570 C   0  0  2  0  0  0  0  0  0  0  0  0
   26.0221  -35.0841   -6.6206 N   0  0  0  0  0  0  0  0  0  0  0  0
   26.5067  -34.7836   -4.3095 C   0  0  0  0  0  0  0  0  0  0  0  0
   26.0539  -34.2550   -3.1005 O   0  0  0  0  0  0  0  0  0  0  0  0
   27.7399  -34.6950   -4.5238 O   0  0  0  0  0  0  0  0  0  0  0  0
  2  1  1  1
  2  3  1  0
  2  4  1  0
  4  6  1  0
  4  5  1  6
  6 12  1  0
  6  7  2  0
  9  8  1  1
  9 11  1  0
 10  9  1  0
 11 13  1  0
 11 12  1  6
 13 14  2  0
 15 16  1  0
 16 17  2  0
 18 16  1  0
 19 18  1  6
 19 21  1  0
 20 13  1  0
 20 19  1  0
 21 22  1  0
 23 21  2  0
M  END
$$$$
