VVN.pdb
     RDKit          3D

 23 22  0  0  1  0  0  0  0  0999 V2000
   21.8436  -21.1227  -13.6227 C   0  0  0  0  0  0  0  0  0  0  0  0
   22.6171  -19.8674  -13.4035 C   0  0  2  0  0  0  0  0  0  0  0  0
   22.6254  -19.0602  -14.6846 C   0  0  0  0  0  0  0  0  0  0  0  0
   24.0030  -20.0730  -12.8777 C   0  0  2  0  0  0  0  0  0  0  0  0
   24.7639  -20.7619  -13.8999 N   0  0  0  0  0  0  0  0  0  0  0  0
   24.0919  -20.8025  -11.6261 C   0  0  0  0  0  0  0  0  0  0  0  0
   24.0815  -22.0550  -11.5065 O   0  0  0  0  0  0  0  0  0  0  0  0
   26.5444  -19.7762   -8.6784 C   0  0  0  0  0  0  0  0  0  0  0  0
   25.1382  -19.8825   -8.2201 C   0  0  2  0  0  0  0  0  0  0  0  0
   25.0873  -20.4613   -6.8065 C   0  0  0  0  0  0  0  0  0  0  0  0
   24.3228  -20.7620   -9.1110 C   0  0  2  0  0  0  0  0  0  0  0  0
   24.2012  -20.0737  -10.4110 N   0  0  0  0  0  0  0  0  0  0  0  0
   22.9576  -20.9863   -8.6294 C   0  0  0  0  0  0  0  0  0  0  0  0
   22.0718  -20.0632   -8.7088 O   0  0  0  0  0  0  0  0  0  0  0  0
   18.4724  -23.3011   -7.4404 N   0  0  0  0  0  0  0  0  0  0  0  0
   19.5324  -24.1583   -7.0617 C   0  0  0  0  0  0  0  0  0  0  0  0
   19.2643  -25.1672   -6.3663 O   0  0  0  0  0  0  0  0  0  0  0  0
   20.9161  -23.8617   -7.4811 C   0  0  0  0  0  0  0  0  0  0  0  0
   21.1529  -22.3585   -7.6246 C   0  0  2  0  0  0  0  0  0  0  0  0
   22.5486  -22.2023   -8.0688 N   0  0  0  0  0  0  0  0  0  0  0  0
   21.0183  -21.6929   -6.3181 C   0  0  0  0  0  0  0  0  0  0  0  0
   22.1197  -21.5586   -5.4726 O   0  0  0  0  0  0  0  0  0  0  0  0
   19.9360  -21.2193   -5.8950 O   0  0  0  0  0  0  0  0  0  0  0  0
  2  1  1  6
  2  3  1  0
  2  4  1  0
  4  6  1  0
  4  5  1  6
  6 12  1  0
  6  7  2  0
  9  8  1  6
  9 11  1  0
 10  9  1  0
 11 13  1  0
 11 12  1  6
 13 14  2  0
 15 16  1  0
 16 17  2  0
 18 16  1  0
 19 18  1  1
 19 21  1  0
 20 13  1  0
 20 19  1  0
 21 22  1  0
 23 21  2  0
M  END
$$$$
