VVN.pdb
     RDKit          3D

 23 22  0  0  1  0  0  0  0  0999 V2000
   26.5217  -18.0294  -15.3441 C   0  0  0  0  0  0  0  0  0  0  0  0
   27.2778  -19.2025  -15.8681 C   0  0  2  0  0  0  0  0  0  0  0  0
   26.4843  -19.8441  -16.9867 C   0  0  0  0  0  0  0  0  0  0  0  0
   27.6689  -20.2063  -14.8295 C   0  0  2  0  0  0  0  0  0  0  0  0
   28.5618  -21.1608  -15.4540 N   0  0  0  0  0  0  0  0  0  0  0  0
   26.5674  -20.9081  -14.1962 C   0  0  0  0  0  0  0  0  0  0  0  0
   25.8781  -21.8178  -14.7257 O   0  0  0  0  0  0  0  0  0  0  0  0
   25.2386  -19.7661  -10.2022 C   0  0  0  0  0  0  0  0  0  0  0  0
   25.3898  -21.1555  -10.6973 C   0  0  2  0  0  0  0  0  0  0  0  0
   26.8131  -21.6523  -10.4462 C   0  0  0  0  0  0  0  0  0  0  0  0
   25.1129  -21.2624  -12.1616 C   0  0  2  0  0  0  0  0  0  0  0  0
   26.2077  -20.5655  -12.8648 N   0  0  0  0  0  0  0  0  0  0  0  0
   23.8693  -20.6086  -12.5762 C   0  0  0  0  0  0  0  0  0  0  0  0
   23.8583  -19.3745  -12.9224 O   0  0  0  0  0  0  0  0  0  0  0  0
   19.3106  -19.5836  -14.5745 N   0  0  0  0  0  0  0  0  0  0  0  0
   20.1877  -20.4254  -15.2983 C   0  0  0  0  0  0  0  0  0  0  0  0
   19.9301  -20.6606  -16.5031 O   0  0  0  0  0  0  0  0  0  0  0  0
   21.3740  -21.0068  -14.6400 C   0  0  0  0  0  0  0  0  0  0  0  0
   21.4616  -20.5978  -13.1700 C   0  0  2  0  0  0  0  0  0  0  0  0
   22.6438  -21.2842  -12.6215 N   0  0  0  0  0  0  0  0  0  0  0  0
   20.2797  -21.0778  -12.4346 C   0  0  0  0  0  0  0  0  0  0  0  0
   20.2216  -22.3891  -11.9620 O   0  0  0  0  0  0  0  0  0  0  0  0
   19.2795  -20.3592  -12.1944 O   0  0  0  0  0  0  0  0  0  0  0  0
  2  1  1  1
  2  3  1  0
  2  4  1  0
  4  6  1  0
  4  5  1  6
  6 12  1  0
  6  7  2  0
  9  8  1  6
  9 11  1  0
 10  9  1  0
 11 13  1  0
 11 12  1  6
 13 14  2  0
 15 16  1  0
 16 17  2  0
 18 16  1  0
 19 18  1  6
 19 21  1  0
 20 13  1  0
 20 19  1  0
 21 22  1  0
 23 21  2  0
M  END
$$$$
