VVN.pdb
     RDKit          3D

 23 22  0  0  1  0  0  0  0  0999 V2000
   20.8704  -16.5224  -15.6091 C   0  0  0  0  0  0  0  0  0  0  0  0
   20.1109  -15.8712  -16.7142 C   0  0  2  0  0  0  0  0  0  0  0  0
   19.9513  -16.8558  -17.8534 C   0  0  0  0  0  0  0  0  0  0  0  0
   20.6892  -14.5751  -17.1886 C   0  0  2  0  0  0  0  0  0  0  0  0
   21.8922  -14.8775  -17.9369 N   0  0  0  0  0  0  0  0  0  0  0  0
   20.9900  -13.6096  -16.1475 C   0  0  0  0  0  0  0  0  0  0  0  0
   20.2384  -13.3166  -15.1818 O   0  0  0  0  0  0  0  0  0  0  0  0
   24.7513  -11.6527  -16.3105 C   0  0  0  0  0  0  0  0  0  0  0  0
   24.0255  -11.8436  -15.0317 C   0  0  2  0  0  0  0  0  0  0  0  0
   24.4234  -13.1742  -14.3937 C   0  0  0  0  0  0  0  0  0  0  0  0
   22.5437  -11.8457  -15.2226 C   0  0  2  0  0  0  0  0  0  0  0  0
   22.2297  -12.9162  -16.1891 N   0  0  0  0  0  0  0  0  0  0  0  0
   22.0207  -10.6023  -15.7941 C   0  0  0  0  0  0  0  0  0  0  0  0
   22.1674  -10.3378  -17.0397 O   0  0  0  0  0  0  0  0  0  0  0  0
   18.3828   -7.0488  -17.5429 N   0  0  0  0  0  0  0  0  0  0  0  0
   18.7946   -7.1864  -16.1963 C   0  0  0  0  0  0  0  0  0  0  0  0
   18.6540   -6.2061  -15.4264 O   0  0  0  0  0  0  0  0  0  0  0  0
   19.3743   -8.4578  -15.7211 C   0  0  0  0  0  0  0  0  0  0  0  0
   20.9001   -8.3943  -15.6578 C   0  0  2  0  0  0  0  0  0  0  0  0
   21.3385   -9.6508  -15.0263 N   0  0  0  0  0  0  0  0  0  0  0  0
   21.3300   -7.2817  -14.7945 C   0  0  0  0  0  0  0  0  0  0  0  0
   21.4634   -5.9927  -15.3110 O   0  0  0  0  0  0  0  0  0  0  0  0
   21.5965   -7.4190  -13.5761 O   0  0  0  0  0  0  0  0  0  0  0  0
  2  1  1  1
  2  3  1  0
  2  4  1  0
  4  6  1  0
  4  5  1  1
  6 12  1  0
  6  7  2  0
  9  8  1  6
  9 11  1  0
 10  9  1  0
 11 13  1  0
 11 12  1  6
 13 14  2  0
 15 16  1  0
 16 17  2  0
 18 16  1  0
 19 18  1  1
 19 21  1  0
 20 13  1  0
 20 19  1  0
 21 22  1  0
 23 21  2  0
M  END
$$$$
