VVN.pdb
     RDKit          3D

 23 22  0  0  1  0  0  0  0  0999 V2000
   28.8953  -21.5086  -19.1653 C   0  0  0  0  0  0  0  0  0  0  0  0
   28.3252  -22.8223  -18.7512 C   0  0  2  0  0  0  0  0  0  0  0  0
   27.7050  -23.4958  -19.9572 C   0  0  0  0  0  0  0  0  0  0  0  0
   27.3613  -22.7511  -17.6087 C   0  0  2  0  0  0  0  0  0  0  0  0
   26.1316  -22.1688  -18.1058 N   0  0  0  0  0  0  0  0  0  0  0  0
   27.8224  -22.0070  -16.4509 C   0  0  0  0  0  0  0  0  0  0  0  0
   28.9118  -22.1912  -15.8488 O   0  0  0  0  0  0  0  0  0  0  0  0
   26.0190  -18.3867  -15.6468 C   0  0  0  0  0  0  0  0  0  0  0  0
   27.3345  -18.7645  -15.0766 C   0  0  2  0  0  0  0  0  0  0  0  0
   28.4478  -18.4735  -16.0824 C   0  0  0  0  0  0  0  0  0  0  0  0
   27.3969  -20.2147  -14.7225 C   0  0  2  0  0  0  0  0  0  0  0  0
   27.0001  -20.9747  -15.9241 N   0  0  0  0  0  0  0  0  0  0  0  0
   26.4675  -20.6028  -13.6588 C   0  0  0  0  0  0  0  0  0  0  0  0
   25.3431  -21.1525  -13.9354 O   0  0  0  0  0  0  0  0  0  0  0  0
   24.1204  -21.2027   -9.0996 N   0  0  0  0  0  0  0  0  0  0  0  0
   25.3933  -20.6453   -8.8334 C   0  0  0  0  0  0  0  0  0  0  0  0
   25.7073  -20.4177   -7.6405 O   0  0  0  0  0  0  0  0  0  0  0  0
   26.3204  -20.3432   -9.9415 C   0  0  0  0  0  0  0  0  0  0  0  0
   25.7357  -20.7495  -11.2939 C   0  0  2  0  0  0  0  0  0  0  0  0
   26.7517  -20.4029  -12.3024 N   0  0  0  0  0  0  0  0  0  0  0  0
   24.5253  -19.9630  -11.5845 C   0  0  0  0  0  0  0  0  0  0  0  0
   23.2580  -20.5211  -11.4148 O   0  0  0  0  0  0  0  0  0  0  0  0
   24.5564  -18.7766  -11.9918 O   0  0  0  0  0  0  0  0  0  0  0  0
  2  1  1  6
  2  3  1  0
  2  4  1  0
  4  6  1  0
  4  5  1  6
  6 12  1  0
  6  7  2  0
  9  8  1  6
  9 11  1  0
 10  9  1  0
 11 13  1  0
 11 12  1  6
 13 14  2  0
 15 16  1  0
 16 17  2  0
 18 16  1  0
 19 18  1  1
 19 21  1  0
 20 13  1  0
 20 19  1  0
 21 22  1  0
 23 21  2  0
M  END
$$$$
