NDN.pdb
     RDKit          3D

 25 24  0  0  1  0  0  0  0  0999 V2000
    8.4000  -12.9581   14.3431 N   0  0  0  0  0  0  0  0  0  0  0  0
    7.3111  -13.8336   14.6731 C   0  0  0  0  0  0  0  0  0  0  0  0
    6.1904  -13.6836   14.1683 O   0  0  0  0  0  0  0  0  0  0  0  0
    7.5570  -14.9235   15.6284 C   0  0  0  0  0  0  0  0  0  0  0  0
    8.9774  -14.8655   16.1814 C   0  0  2  0  0  0  0  0  0  0  0  0
    9.9541  -15.0479   15.1523 N   0  0  0  0  0  0  0  0  0  0  0  0
    9.0853  -15.9059   17.2413 C   0  0  0  0  0  0  0  0  0  0  0  0
    8.3251  -15.8956   18.2436 O   0  0  0  0  0  0  0  0  0  0  0  0
   10.0662  -16.9493   17.1439 N   0  0  0  0  0  0  0  0  0  0  0  0
   10.2013  -17.9238   18.2051 C   0  0  1  0  0  0  0  0  0  0  0  0
   10.9380  -19.1626   17.7547 C   0  0  0  0  0  0  0  0  0  0  0  0
   10.2033  -19.9616   16.7845 C   0  0  0  0  0  0  0  0  0  0  0  0
    8.9794  -20.1905   16.9192 O   0  0  0  0  0  0  0  0  0  0  0  0
   10.8463  -17.3185   19.4100 C   0  0  0  0  0  0  0  0  0  0  0  0
   11.8533  -16.5622   19.3029 O   0  0  0  0  0  0  0  0  0  0  0  0
   10.8467  -20.4876   15.6833 O   0  0  0  0  0  0  0  0  0  0  0  0
   10.6972  -15.3795   24.6733 N   0  0  0  0  0  0  0  0  0  0  0  0
   10.5292  -16.7289   24.3361 C   0  0  0  0  0  0  0  0  0  0  0  0
   10.8411  -17.5864   25.2434 O   0  0  0  0  0  0  0  0  0  0  0  0
   10.0310  -17.2053   23.0480 C   0  0  0  0  0  0  0  0  0  0  0  0
   11.0026  -16.9866   21.9294 C   0  0  2  0  0  0  0  0  0  0  0  0
   10.3749  -17.5513   20.7167 N   0  0  0  0  0  0  0  0  0  0  0  0
   12.3167  -17.6169   22.1271 C   0  0  0  0  0  0  0  0  0  0  0  0
   12.4347  -18.9928   21.8311 O   0  0  0  0  0  0  0  0  0  0  0  0
   13.3366  -17.0279   22.5351 O   0  0  0  0  0  0  0  0  0  0  0  0
  2  1  1  0
  2  3  2  0
  4  2  1  0
  5  4  1  0
  5  6  1  6
  7  5  1  0
  8  7  2  0
  9  7  1  0
 10  9  1  0
 10 11  1  6
 12 11  1  0
 12 13  2  0
 14 10  1  0
 14 22  1  0
 15 14  2  0
 16 12  1  0
 18 17  1  0
 18 19  2  0
 21 20  1  1
 20 18  1  0
 21 22  1  0
 21 23  1  0
 23 25  2  0
 23 24  1  0
M  END
$$$$
