NDN.pdb
     RDKit          3D

 25 24  0  0  1  0  0  0  0  0999 V2000
    7.1269  -12.0862   19.0851 N   0  0  0  0  0  0  0  0  0  0  0  0
    7.6074  -13.3221   18.5350 C   0  0  0  0  0  0  0  0  0  0  0  0
    8.3845  -13.3373   17.5711 O   0  0  0  0  0  0  0  0  0  0  0  0
    7.1568  -14.5803   19.1472 C   0  0  0  0  0  0  0  0  0  0  0  0
    7.9727  -14.9142   20.3920 C   0  0  2  0  0  0  0  0  0  0  0  0
    9.3082  -14.4097   20.3007 N   0  0  0  0  0  0  0  0  0  0  0  0
    7.9472  -16.3939   20.5573 C   0  0  0  0  0  0  0  0  0  0  0  0
    6.8602  -17.0194   20.6564 O   0  0  0  0  0  0  0  0  0  0  0  0
    9.1696  -17.1445   20.6095 N   0  0  0  0  0  0  0  0  0  0  0  0
    9.1459  -18.5537   20.9372 C   0  0  1  0  0  0  0  0  0  0  0  0
   10.2341  -19.3248   20.2291 C   0  0  0  0  0  0  0  0  0  0  0  0
   10.2045  -20.7564   20.4920 C   0  0  0  0  0  0  0  0  0  0  0  0
    9.1398  -21.3439   20.7916 O   0  0  0  0  0  0  0  0  0  0  0  0
    9.2099  -18.7615   22.4160 C   0  0  0  0  0  0  0  0  0  0  0  0
    9.1315  -19.9187   22.9184 O   0  0  0  0  0  0  0  0  0  0  0  0
   11.3612  -21.5043   20.4141 O   0  0  0  0  0  0  0  0  0  0  0  0
    6.1104  -16.8622   25.9550 N   0  0  0  0  0  0  0  0  0  0  0  0
    7.2797  -17.6073   26.1567 C   0  0  0  0  0  0  0  0  0  0  0  0
    7.7675  -17.5915   27.3473 O   0  0  0  0  0  0  0  0  0  0  0  0
    7.9573  -18.3825   25.1203 C   0  0  0  0  0  0  0  0  0  0  0  0
    9.3192  -17.8528   24.7919 C   0  0  2  0  0  0  0  0  0  0  0  0
    9.3610  -17.6947   23.3232 N   0  0  0  0  0  0  0  0  0  0  0  0
   10.4313  -18.7182   25.2130 C   0  0  0  0  0  0  0  0  0  0  0  0
   11.4320  -18.1480   26.0306 O   0  0  0  0  0  0  0  0  0  0  0  0
   10.5576  -19.9191   24.9042 O   0  0  0  0  0  0  0  0  0  0  0  0
  2  1  1  0
  2  3  2  0
  4  2  1  0
  5  4  1  0
  5  6  1  6
  7  5  1  0
  8  7  2  0
  9  7  1  0
 10  9  1  0
 10 11  1  6
 12 11  1  0
 12 13  2  0
 14 10  1  0
 14 22  1  0
 15 14  2  0
 16 12  1  0
 18 17  1  0
 18 19  2  0
 21 20  1  6
 20 18  1  0
 21 22  1  0
 21 23  1  0
 23 25  2  0
 23 24  1  0
M  END
$$$$
