NDN.pdb
     RDKit          3D

 25 24  0  0  1  0  0  0  0  0999 V2000
    9.1231  -14.4207   16.3370 N   0  0  0  0  0  0  0  0  0  0  0  0
    7.8663  -13.7596   16.5479 C   0  0  0  0  0  0  0  0  0  0  0  0
    7.3171  -13.1192   15.6415 O   0  0  0  0  0  0  0  0  0  0  0  0
    7.2377  -13.8622   17.8727 C   0  0  0  0  0  0  0  0  0  0  0  0
    8.2244  -13.5142   18.9826 C   0  0  2  0  0  0  0  0  0  0  0  0
    9.5537  -13.3555   18.4788 N   0  0  0  0  0  0  0  0  0  0  0  0
    8.1425  -14.5933   20.0056 C   0  0  0  0  0  0  0  0  0  0  0  0
    7.0644  -14.8427   20.6041 O   0  0  0  0  0  0  0  0  0  0  0  0
    9.2990  -15.3768   20.3354 N   0  0  0  0  0  0  0  0  0  0  0  0
    9.2774  -16.2616   21.4802 C   0  0  1  0  0  0  0  0  0  0  0  0
   10.2027  -17.4427   21.3089 C   0  0  0  0  0  0  0  0  0  0  0  0
   10.2530  -18.3213   22.4686 C   0  0  0  0  0  0  0  0  0  0  0  0
    9.2291  -18.9069   22.8897 O   0  0  0  0  0  0  0  0  0  0  0  0
    9.5793  -15.5160   22.7400 C   0  0  0  0  0  0  0  0  0  0  0  0
   10.3227  -14.4939   22.7335 O   0  0  0  0  0  0  0  0  0  0  0  0
   11.4430  -18.5307   23.1343 O   0  0  0  0  0  0  0  0  0  0  0  0
    6.2849  -13.3002   26.1254 N   0  0  0  0  0  0  0  0  0  0  0  0
    7.1698  -14.2314   25.5660 C   0  0  0  0  0  0  0  0  0  0  0  0
    6.6719  -15.3774   25.2583 O   0  0  0  0  0  0  0  0  0  0  0  0
    8.5873  -13.9812   25.3166 C   0  0  0  0  0  0  0  0  0  0  0  0
    9.4013  -15.2374   25.2645 C   0  0  2  0  0  0  0  0  0  0  0  0
    9.0586  -15.9027   23.9903 N   0  0  0  0  0  0  0  0  0  0  0  0
    9.1580  -16.1718   26.3741 C   0  0  0  0  0  0  0  0  0  0  0  0
    9.5137  -15.7515   27.6747 O   0  0  0  0  0  0  0  0  0  0  0  0
    8.6593  -17.3077   26.2541 O   0  0  0  0  0  0  0  0  0  0  0  0
  2  1  1  0
  2  3  2  0
  4  2  1  0
  5  4  1  0
  5  6  1  6
  7  5  1  0
  8  7  2  0
  9  7  1  0
 10  9  1  0
 10 11  1  6
 12 11  1  0
 12 13  2  0
 14 10  1  0
 14 22  1  0
 15 14  2  0
 16 12  1  0
 18 17  1  0
 18 19  2  0
 21 20  1  1
 20 18  1  0
 21 22  1  0
 21 23  1  0
 23 25  2  0
 23 24  1  0
M  END
$$$$
