NDN.pdb
     RDKit          3D

 25 24  0  0  1  0  0  0  0  0999 V2000
   10.9128  -17.8769   16.6552 N   0  0  0  0  0  0  0  0  0  0  0  0
   10.2763  -18.5933   17.7242 C   0  0  0  0  0  0  0  0  0  0  0  0
    9.1822  -19.1500   17.5626 O   0  0  0  0  0  0  0  0  0  0  0  0
   10.9579  -18.6558   19.0251 C   0  0  0  0  0  0  0  0  0  0  0  0
    9.9782  -18.4425   20.1747 C   0  0  2  0  0  0  0  0  0  0  0  0
    9.1707  -17.2791   19.9731 N   0  0  0  0  0  0  0  0  0  0  0  0
   10.7759  -18.3554   21.4291 C   0  0  0  0  0  0  0  0  0  0  0  0
   10.9868  -19.3726   22.1387 O   0  0  0  0  0  0  0  0  0  0  0  0
   11.3242  -17.1010   21.8607 N   0  0  0  0  0  0  0  0  0  0  0  0
   12.0226  -17.0074   23.1246 C   0  0  1  0  0  0  0  0  0  0  0  0
   12.9996  -15.8563   23.1553 C   0  0  0  0  0  0  0  0  0  0  0  0
   14.1716  -16.0595   22.3159 C   0  0  0  0  0  0  0  0  0  0  0  0
   14.6865  -17.1925   22.1757 O   0  0  0  0  0  0  0  0  0  0  0  0
   11.0595  -16.9303   24.2651 C   0  0  0  0  0  0  0  0  0  0  0  0
   10.6665  -15.8168   24.7158 O   0  0  0  0  0  0  0  0  0  0  0  0
   14.7449  -14.9967   21.6488 O   0  0  0  0  0  0  0  0  0  0  0  0
    7.2263  -16.5282   25.6255 N   0  0  0  0  0  0  0  0  0  0  0  0
    7.2169  -17.9170   25.4409 C   0  0  0  0  0  0  0  0  0  0  0  0
    6.0926  -18.4387   25.0952 O   0  0  0  0  0  0  0  0  0  0  0  0
    8.3807  -18.7834   25.6116 C   0  0  0  0  0  0  0  0  0  0  0  0
    9.6066  -18.0366   26.0392 C   0  0  2  0  0  0  0  0  0  0  0  0
   10.5398  -18.0784   24.8941 N   0  0  0  0  0  0  0  0  0  0  0  0
   10.2780  -18.5889   27.2255 C   0  0  0  0  0  0  0  0  0  0  0  0
    9.8644  -18.1182   28.4912 O   0  0  0  0  0  0  0  0  0  0  0  0
   11.1849  -19.4436   27.1991 O   0  0  0  0  0  0  0  0  0  0  0  0
  2  1  1  0
  2  3  2  0
  4  2  1  0
  5  4  1  0
  5  6  1  6
  7  5  1  0
  8  7  2  0
  9  7  1  0
 10  9  1  0
 10 11  1  6
 12 11  1  0
 12 13  2  0
 14 10  1  0
 14 22  1  0
 15 14  2  0
 16 12  1  0
 18 17  1  0
 18 19  2  0
 21 20  1  6
 20 18  1  0
 21 22  1  0
 21 23  1  0
 23 25  2  0
 23 24  1  0
M  END
$$$$
