NDN.pdb
     RDKit          3D

 25 24  0  0  1  0  0  0  0  0999 V2000
    7.9298  -12.0798   18.8001 N   0  0  0  0  0  0  0  0  0  0  0  0
    7.8847  -13.5121   18.8865 C   0  0  0  0  0  0  0  0  0  0  0  0
    7.9976  -14.2205   17.8772 O   0  0  0  0  0  0  0  0  0  0  0  0
    7.7036  -14.1260   20.2098 C   0  0  0  0  0  0  0  0  0  0  0  0
    9.0443  -14.4885   20.8405 C   0  0  2  0  0  0  0  0  0  0  0  0
    9.7903  -15.3896   20.0173 N   0  0  0  0  0  0  0  0  0  0  0  0
    8.7628  -15.0659   22.1839 C   0  0  0  0  0  0  0  0  0  0  0  0
    8.0420  -14.4572   23.0163 O   0  0  0  0  0  0  0  0  0  0  0  0
    9.3120  -16.3368   22.5628 N   0  0  0  0  0  0  0  0  0  0  0  0
    9.0428  -16.8850   23.8747 C   0  0  1  0  0  0  0  0  0  0  0  0
    8.9847  -18.3939   23.8640 C   0  0  0  0  0  0  0  0  0  0  0  0
    8.1128  -18.9398   22.8339 C   0  0  0  0  0  0  0  0  0  0  0  0
    6.8725  -18.7700   22.8701 O   0  0  0  0  0  0  0  0  0  0  0  0
   10.0344  -16.3886   24.8770 C   0  0  0  0  0  0  0  0  0  0  0  0
   11.1419  -16.9735   25.0470 O   0  0  0  0  0  0  0  0  0  0  0  0
    8.6406  -19.6623   21.7838 O   0  0  0  0  0  0  0  0  0  0  0  0
    7.5258  -12.4617   27.4285 N   0  0  0  0  0  0  0  0  0  0  0  0
    8.7411  -13.1511   27.3250 C   0  0  0  0  0  0  0  0  0  0  0  0
    9.7172  -12.5082   26.7867 O   0  0  0  0  0  0  0  0  0  0  0  0
    8.9583  -14.5211   27.7835 C   0  0  0  0  0  0  0  0  0  0  0  0
   10.1256  -15.1815   27.1169 C   0  0  2  0  0  0  0  0  0  0  0  0
    9.7962  -15.2549   25.6781 N   0  0  0  0  0  0  0  0  0  0  0  0
   10.4279  -16.5341   27.6093 C   0  0  0  0  0  0  0  0  0  0  0  0
   11.7306  -16.7777   28.0976 O   0  0  0  0  0  0  0  0  0  0  0  0
    9.6202  -17.4831   27.6301 O   0  0  0  0  0  0  0  0  0  0  0  0
  2  1  1  0
  2  3  2  0
  4  2  1  0
  5  4  1  0
  5  6  1  6
  7  5  1  0
  8  7  2  0
  9  7  1  0
 10  9  1  0
 10 11  1  6
 12 11  1  0
 12 13  2  0
 14 10  1  0
 14 22  1  0
 15 14  2  0
 16 12  1  0
 18 17  1  0
 18 19  2  0
 21 20  1  1
 20 18  1  0
 21 22  1  0
 21 23  1  0
 23 25  2  0
 23 24  1  0
M  END
$$$$
