PVE.pdb
     RDKit          3D

 24 24  0  0  1  0  0  0  0  0999 V2000
    6.8162  -15.3412   21.6451 N   0  0  0  0  0  0  0  0  0  0  0  0
    6.3199  -14.2763   20.8217 C   0  0  0  0  0  0  0  0  0  0  0  0
    7.4966  -13.3927   20.4615 C   0  0  0  0  0  0  0  0  0  0  0  0
    8.6270  -14.4160   20.4889 C   0  0  0  0  0  0  0  0  0  0  0  0
    8.2428  -15.2477   21.6833 C   0  0  1  0  0  0  0  0  0  0  0  0
    8.6714  -14.6732   22.9583 C   0  0  0  0  0  0  0  0  0  0  0  0
    9.8786  -14.4820   23.1857 O   0  0  0  0  0  0  0  0  0  0  0  0
    6.6633  -12.0147   25.1436 C   0  0  0  0  0  0  0  0  0  0  0  0
    7.0281  -13.2011   25.9797 C   0  0  2  0  0  0  0  0  0  0  0  0
    7.3987  -12.8321   27.3994 C   0  0  0  0  0  0  0  0  0  0  0  0
    8.2151  -13.8929   25.3109 C   0  0  2  0  0  0  0  0  0  0  0  0
    7.7571  -14.3031   24.0000 N   0  0  0  0  0  0  0  0  0  0  0  0
    8.5772  -15.0630   26.1537 C   0  0  0  0  0  0  0  0  0  0  0  0
    7.7447  -15.9785   26.2811 O   0  0  0  0  0  0  0  0  0  0  0  0
    9.8336  -15.1672   26.8124 N   0  0  0  0  0  0  0  0  0  0  0  0
   10.2413  -16.3785   27.5265 C   0  0  1  0  0  0  0  0  0  0  0  0
   11.3118  -17.0403   26.7281 C   0  0  0  0  0  0  0  0  0  0  0  0
   11.9101  -18.2657   27.3285 C   0  0  0  0  0  0  0  0  0  0  0  0
   13.0239  -18.8153   26.5282 C   0  0  0  0  0  0  0  0  0  0  0  0
   13.4614  -18.3267   25.4628 O   0  0  0  0  0  0  0  0  0  0  0  0
   10.6672  -16.0343   28.9048 C   0  0  0  0  0  0  0  0  0  0  0  0
   10.8537  -17.0222   29.8375 O   0  0  0  0  0  0  0  0  0  0  0  0
   13.6560  -19.9780   26.9811 O   0  0  0  0  0  0  0  0  0  0  0  0
   10.8540  -14.8466   29.2102 O   0  0  0  0  0  0  0  0  0  0  0  0
  2  1  1  0
  3  4  1  0
  3  2  1  0
  4  5  1  0
  5  1  1  0
  5  6  1  1
  7  6  2  0
  9  8  1  6
  9 10  1  0
  9 11  1  0
 11 12  1  6
 11 13  1  0
 12  6  1  0
 13 15  1  0
 14 13  2  0
 15 16  1  0
 16 17  1  6
 16 21  1  0
 17 18  1  0
 18 19  1  0
 19 23  1  0
 20 19  2  0
 21 22  1  0
 24 21  2  0
M  END
$$$$
