PVE.pdb
     RDKit          3D

 24 24  0  0  1  0  0  0  0  0999 V2000
    7.5643  -14.5005   20.2052 N   0  0  0  0  0  0  0  0  0  0  0  0
    7.9334  -15.7898   19.6956 C   0  0  0  0  0  0  0  0  0  0  0  0
    7.4651  -16.8262   20.6964 C   0  0  0  0  0  0  0  0  0  0  0  0
    6.2575  -16.1088   21.2901 C   0  0  0  0  0  0  0  0  0  0  0  0
    6.7676  -14.6953   21.3768 C   0  0  1  0  0  0  0  0  0  0  0  0
    7.5676  -14.4345   22.5734 C   0  0  0  0  0  0  0  0  0  0  0  0
    8.8031  -14.5699   22.5434 O   0  0  0  0  0  0  0  0  0  0  0  0
    6.5574  -11.8317   25.5294 C   0  0  0  0  0  0  0  0  0  0  0  0
    6.9065  -13.1898   26.0523 C   0  0  2  0  0  0  0  0  0  0  0  0
    7.6239  -13.1441   27.3836 C   0  0  0  0  0  0  0  0  0  0  0  0
    7.8029  -13.8691   25.0181 C   0  0  2  0  0  0  0  0  0  0  0  0
    6.9991  -14.0181   23.8229 N   0  0  0  0  0  0  0  0  0  0  0  0
    8.2011  -15.1883   25.5764 C   0  0  0  0  0  0  0  0  0  0  0  0
    7.3266  -16.0639   25.7021 O   0  0  0  0  0  0  0  0  0  0  0  0
    9.5378  -15.4775   25.9674 N   0  0  0  0  0  0  0  0  0  0  0  0
    9.9571  -16.8186   26.3782 C   0  0  1  0  0  0  0  0  0  0  0  0
   11.2636  -17.1090   25.7225 C   0  0  0  0  0  0  0  0  0  0  0  0
   11.9010  -18.4062   26.0847 C   0  0  0  0  0  0  0  0  0  0  0  0
   13.3002  -18.5105   25.6215 C   0  0  0  0  0  0  0  0  0  0  0  0
   13.6597  -18.8204   24.4640 O   0  0  0  0  0  0  0  0  0  0  0  0
   10.0139  -16.9001   27.8580 C   0  0  0  0  0  0  0  0  0  0  0  0
    9.9742  -18.1191   28.4850 O   0  0  0  0  0  0  0  0  0  0  0  0
   14.3239  -18.2449   26.5370 O   0  0  0  0  0  0  0  0  0  0  0  0
   10.0975  -15.8585   28.5265 O   0  0  0  0  0  0  0  0  0  0  0  0
  2  1  1  0
  3  4  1  0
  3  2  1  0
  4  5  1  0
  5  1  1  0
  5  6  1  1
  7  6  2  0
  9  8  1  6
  9 10  1  0
  9 11  1  0
 11 12  1  6
 11 13  1  0
 12  6  1  0
 13 15  1  0
 14 13  2  0
 15 16  1  0
 16 17  1  6
 16 21  1  0
 17 18  1  0
 18 19  1  0
 19 23  1  0
 20 19  2  0
 21 22  1  0
 24 21  2  0
M  END
$$$$
