PVE.pdb
     RDKit          3D

 24 24  0  0  1  0  0  0  0  0999 V2000
    8.4440  -17.2195   16.7164 N   0  0  0  0  0  0  0  0  0  0  0  0
    8.8972  -18.5797   16.6648 C   0  0  0  0  0  0  0  0  0  0  0  0
    8.5409  -19.2290   17.9864 C   0  0  0  0  0  0  0  0  0  0  0  0
    7.2990  -18.4269   18.3605 C   0  0  0  0  0  0  0  0  0  0  0  0
    7.6997  -17.0428   17.9248 C   0  0  1  0  0  0  0  0  0  0  0  0
    8.5118  -16.3312   18.9116 C   0  0  0  0  0  0  0  0  0  0  0  0
    9.7528  -16.3657   18.8447 O   0  0  0  0  0  0  0  0  0  0  0  0
    6.6659  -14.1953   21.9666 C   0  0  0  0  0  0  0  0  0  0  0  0
    7.9145  -13.6289   21.3670 C   0  0  2  0  0  0  0  0  0  0  0  0
    7.6434  -12.7051   20.1999 C   0  0  0  0  0  0  0  0  0  0  0  0
    8.7757  -14.7997   20.8957 C   0  0  2  0  0  0  0  0  0  0  0  0
    7.9495  -15.5694   19.9893 N   0  0  0  0  0  0  0  0  0  0  0  0
    9.1466  -15.5889   22.1000 C   0  0  0  0  0  0  0  0  0  0  0  0
    8.3965  -16.5170   22.4511 O   0  0  0  0  0  0  0  0  0  0  0  0
   10.3209  -15.3182   22.8557 N   0  0  0  0  0  0  0  0  0  0  0  0
   10.8372  -16.2543   23.8559 C   0  0  1  0  0  0  0  0  0  0  0  0
   12.3120  -16.0587   23.9454 C   0  0  0  0  0  0  0  0  0  0  0  0
   13.1491  -17.2406   23.5954 C   0  0  0  0  0  0  0  0  0  0  0  0
   14.5890  -16.9215   23.5061 C   0  0  0  0  0  0  0  0  0  0  0  0
   15.0938  -15.7913   23.6876 O   0  0  0  0  0  0  0  0  0  0  0  0
   10.1401  -16.0491   25.1487 C   0  0  0  0  0  0  0  0  0  0  0  0
   10.2709  -16.9684   26.1579 O   0  0  0  0  0  0  0  0  0  0  0  0
   15.4796  -17.9540   23.1941 O   0  0  0  0  0  0  0  0  0  0  0  0
    9.4370  -15.0403   25.3127 O   0  0  0  0  0  0  0  0  0  0  0  0
  2  1  1  0
  3  4  1  0
  3  2  1  0
  4  5  1  0
  5  1  1  0
  5  6  1  1
  7  6  2  0
  9  8  1  6
  9 10  1  0
  9 11  1  0
 11 12  1  6
 11 13  1  0
 12  6  1  0
 13 15  1  0
 14 13  2  0
 15 16  1  0
 16 17  1  1
 16 21  1  0
 17 18  1  0
 18 19  1  0
 19 23  1  0
 20 19  2  0
 21 22  1  0
 24 21  2  0
M  END
$$$$
