PVE.pdb
     RDKit          3D

 24 24  0  0  1  0  0  0  0  0999 V2000
    7.5860  -13.7202   20.2955 N   0  0  0  0  0  0  0  0  0  0  0  0
    7.8039  -14.9601   19.6075 C   0  0  0  0  0  0  0  0  0  0  0  0
    7.2704  -16.0703   20.4895 C   0  0  0  0  0  0  0  0  0  0  0  0
    6.1640  -15.3258   21.2292 C   0  0  0  0  0  0  0  0  0  0  0  0
    6.8173  -13.9912   21.4706 C   0  0  1  0  0  0  0  0  0  0  0  0
    7.6829  -13.9684   22.6495 C   0  0  0  0  0  0  0  0  0  0  0  0
    8.8993  -14.2003   22.5388 O   0  0  0  0  0  0  0  0  0  0  0  0
    5.9472  -13.7567   26.3222 C   0  0  0  0  0  0  0  0  0  0  0  0
    7.2852  -13.0882   26.2738 C   0  0  2  0  0  0  0  0  0  0  0  0
    7.1918  -11.5934   26.0600 C   0  0  0  0  0  0  0  0  0  0  0  0
    8.0758  -13.7146   25.1260 C   0  0  2  0  0  0  0  0  0  0  0  0
    7.2025  -13.6858   23.9714 N   0  0  0  0  0  0  0  0  0  0  0  0
    8.4068  -15.1079   25.5256 C   0  0  0  0  0  0  0  0  0  0  0  0
    7.5566  -15.9950   25.3319 O   0  0  0  0  0  0  0  0  0  0  0  0
    9.6532  -15.4547   26.1168 N   0  0  0  0  0  0  0  0  0  0  0  0
   10.0841  -16.8456   26.2682 C   0  0  1  0  0  0  0  0  0  0  0  0
   11.4064  -16.9894   25.5959 C   0  0  0  0  0  0  0  0  0  0  0  0
   12.0771  -18.3107   25.7518 C   0  0  0  0  0  0  0  0  0  0  0  0
   13.3932  -18.3719   25.0830 C   0  0  0  0  0  0  0  0  0  0  0  0
   14.0547  -17.3845   24.6923 O   0  0  0  0  0  0  0  0  0  0  0  0
   10.1150  -17.2124   27.7049 C   0  0  0  0  0  0  0  0  0  0  0  0
   10.2328  -18.5261   28.0803 O   0  0  0  0  0  0  0  0  0  0  0  0
   13.9656  -19.6282   24.8580 O   0  0  0  0  0  0  0  0  0  0  0  0
   10.0335  -16.3236   28.5664 O   0  0  0  0  0  0  0  0  0  0  0  0
  2  1  1  0
  3  4  1  0
  3  2  1  0
  4  5  1  0
  5  1  1  0
  5  6  1  1
  7  6  2  0
  9  8  1  6
  9 10  1  0
  9 11  1  0
 11 12  1  6
 11 13  1  0
 12  6  1  0
 13 15  1  0
 14 13  2  0
 15 16  1  0
 16 17  1  1
 16 21  1  0
 17 18  1  0
 18 19  1  0
 19 23  1  0
 20 19  2  0
 21 22  1  0
 24 21  2  0
M  END
$$$$
