PVE.pdb
     RDKit          3D

 24 24  0  0  1  0  0  0  0  0999 V2000
    7.6506  -13.9959   20.4378 N   0  0  0  0  0  0  0  0  0  0  0  0
    7.8530  -15.2639   19.7978 C   0  0  0  0  0  0  0  0  0  0  0  0
    7.3117  -16.3332   20.7244 C   0  0  0  0  0  0  0  0  0  0  0  0
    6.2160  -15.5490   21.4385 C   0  0  0  0  0  0  0  0  0  0  0  0
    6.8838  -14.2130   21.6254 C   0  0  1  0  0  0  0  0  0  0  0  0
    7.7543  -14.1532   22.7993 C   0  0  0  0  0  0  0  0  0  0  0  0
    8.9788  -14.3339   22.6819 O   0  0  0  0  0  0  0  0  0  0  0  0
    6.0376  -13.7350   26.4757 C   0  0  0  0  0  0  0  0  0  0  0  0
    7.3900  -13.1035   26.3669 C   0  0  2  0  0  0  0  0  0  0  0  0
    7.3285  -11.6281   26.0372 C   0  0  0  0  0  0  0  0  0  0  0  0
    8.1571  -13.8358   25.2668 C   0  0  2  0  0  0  0  0  0  0  0  0
    7.2700  -13.8905   24.1238 N   0  0  0  0  0  0  0  0  0  0  0  0
    8.4733  -15.1956   25.7783 C   0  0  0  0  0  0  0  0  0  0  0  0
    7.5900  -16.0692   25.7165 O   0  0  0  0  0  0  0  0  0  0  0  0
    9.7420  -15.5253   26.3307 N   0  0  0  0  0  0  0  0  0  0  0  0
   10.0788  -16.8862   26.7522 C   0  0  1  0  0  0  0  0  0  0  0  0
   11.3741  -17.2542   26.1134 C   0  0  0  0  0  0  0  0  0  0  0  0
   11.3491  -17.4124   24.6321 C   0  0  0  0  0  0  0  0  0  0  0  0
   12.6707  -17.7535   24.0661 C   0  0  0  0  0  0  0  0  0  0  0  0
   13.7270  -17.8907   24.7222 O   0  0  0  0  0  0  0  0  0  0  0  0
   10.1135  -16.9635   28.2328 C   0  0  0  0  0  0  0  0  0  0  0  0
   10.2513  -18.1761   28.8584 O   0  0  0  0  0  0  0  0  0  0  0  0
   12.7718  -17.9433   22.6840 O   0  0  0  0  0  0  0  0  0  0  0  0
   10.0170  -15.9244   28.9034 O   0  0  0  0  0  0  0  0  0  0  0  0
  2  1  1  0
  3  4  1  0
  3  2  1  0
  4  5  1  0
  5  1  1  0
  5  6  1  1
  7  6  2  0
  9  8  1  6
  9 10  1  0
  9 11  1  0
 11 12  1  6
 11 13  1  0
 12  6  1  0
 13 15  1  0
 14 13  2  0
 15 16  1  0
 16 17  1  6
 16 21  1  0
 17 18  1  0
 18 19  1  0
 19 23  1  0
 20 19  2  0
 21 22  1  0
 24 21  2  0
M  END
$$$$
