YCM.pdb
     RDKit          3D

 27 27  0  0  1  0  0  0  0  0999 V2000
   19.5242  -19.1277   18.5260 O   0  0  0  0  0  0  0  0  0  0  0  0
   18.3973  -18.6316   19.1595 C   0  0  0  0  0  0  0  0  0  0  0  0
   17.6536  -19.4749   19.9630 C   0  0  0  0  0  0  0  0  0  0  0  0
   16.5314  -19.0045   20.6018 C   0  0  0  0  0  0  0  0  0  0  0  0
   16.0948  -17.6910   20.4782 C   0  0  0  0  0  0  0  0  0  0  0  0
   14.8725  -17.2129   21.1824 C   0  0  0  0  0  0  0  0  0  0  0  0
   13.6217  -17.8086   20.5391 C   0  0  2  0  0  0  0  0  0  0  0  0
   13.4977  -17.1702   19.2372 N   0  0  0  0  0  0  0  0  0  0  0  0
   12.4237  -17.5477   21.3778 C   0  0  0  0  0  0  0  0  0  0  0  0
   11.3386  -17.1354   20.8997 O   0  0  0  0  0  0  0  0  0  0  0  0
   16.8443  -16.8544   19.6730 C   0  0  0  0  0  0  0  0  0  0  0  0
   17.9666  -17.3284   19.0354 C   0  0  0  0  0  0  0  0  0  0  0  0
   12.4581  -17.7582   22.7805 N   0  0  0  0  0  0  0  0  0  0  0  0
   11.2109  -17.8639   23.5611 C   0  0  1  0  0  0  0  0  0  0  0  0
   10.4518  -19.0857   23.0889 C   0  0  0  0  0  0  0  0  0  0  0  0
    9.0113  -19.4007   24.1104 S   0  0  0  0  0  0  0  0  0  0  0  0
   11.5257  -17.8897   24.9984 C   0  0  0  0  0  0  0  0  0  0  0  0
   12.3294  -18.7617   25.4558 O   0  0  0  0  0  0  0  0  0  0  0  0
   10.2037  -12.8882   29.5338 C   0  0  0  0  0  0  0  0  0  0  0  0
    9.3599  -13.3771   27.9928 S   0  0  0  0  0  0  0  0  0  0  0  0
   10.4005  -14.6022   27.1047 C   0  0  0  0  0  0  0  0  0  0  0  0
   10.5280  -15.8406   27.9293 C   0  0  0  0  0  0  0  0  0  0  0  0
   11.3512  -16.9328   27.2920 C   0  0  2  0  0  0  0  0  0  0  0  0
   10.9513  -16.9563   25.8836 N   0  0  0  0  0  0  0  0  0  0  0  0
   11.0338  -18.2348   27.8809 C   0  0  0  0  0  0  0  0  0  0  0  0
   10.0862  -18.9576   27.4584 O   0  0  0  0  0  0  0  0  0  0  0  0
   11.7730  -18.7262   28.9381 O   0  0  0  0  0  0  0  0  0  0  0  0
  2  1  1  0
  2 12  2  0
  3  2  1  0
  4  3  2  0
  4  5  1  0
  5 11  2  0
  6  7  1  0
  6  5  1  0
  7  9  1  0
  7  8  1  6
  9 10  2  0
  9 13  1  0
 11 12  1  0
 13 14  1  0
 14 17  1  0
 14 15  1  6
 16 15  1  0
 17 18  2  0
 20 21  1  0
 20 19  1  0
 22 21  1  0
 23 22  1  1
 24 23  1  0
 24 17  1  0
 25 27  1  0
 25 23  1  0
 26 25  2  0
M  END
$$$$
