YCM.pdb
     RDKit          3D

 27 27  0  0  1  0  0  0  0  0999 V2000
   10.9679  -23.1846   31.4848 O   0  0  0  0  0  0  0  0  0  0  0  0
   11.1192  -22.1461   30.5816 C   0  0  0  0  0  0  0  0  0  0  0  0
   12.0491  -21.1583   30.8449 C   0  0  0  0  0  0  0  0  0  0  0  0
   12.2166  -20.1179   29.9628 C   0  0  0  0  0  0  0  0  0  0  0  0
   11.4801  -20.0050   28.7897 C   0  0  0  0  0  0  0  0  0  0  0  0
   11.6842  -18.8631   27.8554 C   0  0  0  0  0  0  0  0  0  0  0  0
   12.4218  -19.3283   26.6013 C   0  0  2  0  0  0  0  0  0  0  0  0
   13.8141  -19.4913   26.9925 N   0  0  0  0  0  0  0  0  0  0  0  0
   12.2873  -18.3288   25.5107 C   0  0  0  0  0  0  0  0  0  0  0  0
   12.9368  -17.2546   25.4921 O   0  0  0  0  0  0  0  0  0  0  0  0
   10.5524  -20.9970   28.5341 C   0  0  0  0  0  0  0  0  0  0  0  0
   10.3875  -22.0366   29.4189 C   0  0  0  0  0  0  0  0  0  0  0  0
   11.4020  -18.5521   24.4247 N   0  0  0  0  0  0  0  0  0  0  0  0
   10.7706  -17.4218   23.7178 C   0  0  1  0  0  0  0  0  0  0  0  0
   10.6355  -17.7866   22.2546 C   0  0  0  0  0  0  0  0  0  0  0  0
    9.6407  -16.5869   21.3666 S   0  0  0  0  0  0  0  0  0  0  0  0
    9.4883  -17.0893   24.3588 C   0  0  0  0  0  0  0  0  0  0  0  0
    8.7156  -18.0192   24.7507 O   0  0  0  0  0  0  0  0  0  0  0  0
    7.9340  -11.2284   27.4143 C   0  0  0  0  0  0  0  0  0  0  0  0
    6.6859  -11.5793   26.1317 S   0  0  0  0  0  0  0  0  0  0  0  0
    6.5321  -13.3980   25.9294 C   0  0  0  0  0  0  0  0  0  0  0  0
    7.7593  -13.9326   25.2675 C   0  0  0  0  0  0  0  0  0  0  0  0
    7.8021  -15.4365   25.1535 C   0  0  2  0  0  0  0  0  0  0  0  0
    9.0998  -15.7489   24.5514 N   0  0  0  0  0  0  0  0  0  0  0  0
    6.7516  -15.9207   24.2565 C   0  0  0  0  0  0  0  0  0  0  0  0
    5.6161  -16.2859   24.6765 O   0  0  0  0  0  0  0  0  0  0  0  0
    6.9700  -15.9963   22.8957 O   0  0  0  0  0  0  0  0  0  0  0  0
  2  1  1  0
  2 12  2  0
  3  2  1  0
  4  3  2  0
  4  5  1  0
  5 11  2  0
  6  7  1  0
  6  5  1  0
  7  9  1  0
  7  8  1  1
  9 10  2  0
  9 13  1  0
 11 12  1  0
 13 14  1  0
 14 17  1  0
 14 15  1  6
 16 15  1  0
 17 18  2  0
 20 21  1  0
 20 19  1  0
 22 21  1  0
 23 22  1  6
 24 23  1  0
 24 17  1  0
 25 27  1  0
 25 23  1  0
 26 25  2  0
M  END
$$$$
