YCM.pdb
     RDKit          3D

 27 27  0  0  1  0  0  0  0  0999 V2000
    9.7451  -23.2147   17.3192 O   0  0  0  0  0  0  0  0  0  0  0  0
    8.9548  -22.4822   18.1887 C   0  0  0  0  0  0  0  0  0  0  0  0
    9.0677  -22.7057   19.5479 C   0  0  0  0  0  0  0  0  0  0  0  0
    8.2935  -21.9904   20.4296 C   0  0  0  0  0  0  0  0  0  0  0  0
    7.3794  -21.0295   20.0144 C   0  0  0  0  0  0  0  0  0  0  0  0
    6.5533  -20.2729   20.9961 C   0  0  0  0  0  0  0  0  0  0  0  0
    6.4915  -21.0208   22.3264 C   0  0  2  0  0  0  0  0  0  0  0  0
    5.4937  -22.0659   22.1527 N   0  0  0  0  0  0  0  0  0  0  0  0
    6.1143  -20.1008   23.4301 C   0  0  0  0  0  0  0  0  0  0  0  0
    4.9207  -19.8237   23.7032 O   0  0  0  0  0  0  0  0  0  0  0  0
    7.2728  -20.8122   18.6538 C   0  0  0  0  0  0  0  0  0  0  0  0
    8.0492  -21.5297   17.7743 C   0  0  0  0  0  0  0  0  0  0  0  0
    7.1072  -19.4861   24.2358 N   0  0  0  0  0  0  0  0  0  0  0  0
    6.7331  -18.5937   25.3492 C   0  0  1  0  0  0  0  0  0  0  0  0
    7.0669  -19.2875   26.6528 C   0  0  0  0  0  0  0  0  0  0  0  0
    8.8391  -19.3771   26.9155 S   0  0  0  0  0  0  0  0  0  0  0  0
    7.4036  -17.2934   25.1899 C   0  0  0  0  0  0  0  0  0  0  0  0
    8.4721  -17.2106   24.5066 O   0  0  0  0  0  0  0  0  0  0  0  0
    6.6102   -9.5861   26.9191 C   0  0  0  0  0  0  0  0  0  0  0  0
    5.9676  -11.2903   27.0133 S   0  0  0  0  0  0  0  0  0  0  0  0
    7.2064  -12.4367   26.2899 C   0  0  0  0  0  0  0  0  0  0  0  0
    6.6359  -13.8155   26.2299 C   0  0  0  0  0  0  0  0  0  0  0  0
    7.5407  -14.8378   25.5873 C   0  0  2  0  0  0  0  0  0  0  0  0
    6.8771  -16.1285   25.7820 N   0  0  0  0  0  0  0  0  0  0  0  0
    8.8384  -14.8825   26.2631 C   0  0  0  0  0  0  0  0  0  0  0  0
    9.1236  -15.7610   27.1267 O   0  0  0  0  0  0  0  0  0  0  0  0
    9.8129  -13.9484   25.9745 O   0  0  0  0  0  0  0  0  0  0  0  0
  2  1  1  0
  2 12  2  0
  3  2  1  0
  4  3  2  0
  4  5  1  0
  5 11  2  0
  6  7  1  0
  6  5  1  0
  7  9  1  0
  7  8  1  6
  9 10  2  0
  9 13  1  0
 11 12  1  0
 13 14  1  0
 14 17  1  0
 14 15  1  1
 16 15  1  0
 17 18  2  0
 20 21  1  0
 20 19  1  0
 22 21  1  0
 23 22  1  1
 24 23  1  0
 24 17  1  0
 25 27  1  0
 25 23  1  0
 26 25  2  0
M  END
$$$$
