YCM.pdb
     RDKit          3D

 27 27  0  0  1  0  0  0  0  0999 V2000
    8.5741  -21.7255   30.5499 O   0  0  0  0  0  0  0  0  0  0  0  0
    8.4281  -21.0503   29.3499 C   0  0  0  0  0  0  0  0  0  0  0  0
    7.1850  -21.0149   28.7470 C   0  0  0  0  0  0  0  0  0  0  0  0
    7.0165  -20.3508   27.5557 C   0  0  0  0  0  0  0  0  0  0  0  0
    8.0583  -19.6963   26.9096 C   0  0  0  0  0  0  0  0  0  0  0  0
    7.8429  -18.9872   25.6175 C   0  0  0  0  0  0  0  0  0  0  0  0
    7.4253  -19.9770   24.5317 C   0  0  2  0  0  0  0  0  0  0  0  0
    8.3175  -21.1189   24.6656 N   0  0  0  0  0  0  0  0  0  0  0  0
    7.5446  -19.3616   23.1849 C   0  0  0  0  0  0  0  0  0  0  0  0
    8.6158  -19.3665   22.5301 O   0  0  0  0  0  0  0  0  0  0  0  0
    9.2979  -19.7365   27.5192 C   0  0  0  0  0  0  0  0  0  0  0  0
    9.4629  -20.4019   28.7112 C   0  0  0  0  0  0  0  0  0  0  0  0
    6.4310  -18.7312   22.5722 N   0  0  0  0  0  0  0  0  0  0  0  0
    6.6108  -17.8341   21.4151 C   0  0  1  0  0  0  0  0  0  0  0  0
    5.2698  -17.6522   20.7364 C   0  0  0  0  0  0  0  0  0  0  0  0
    3.9802  -17.2635   21.9211 S   0  0  0  0  0  0  0  0  0  0  0  0
    7.2192  -16.5692   21.8575 C   0  0  0  0  0  0  0  0  0  0  0  0
    7.4113  -15.6316   21.0213 O   0  0  0  0  0  0  0  0  0  0  0  0
    6.6039  -11.9587   27.6485 C   0  0  0  0  0  0  0  0  0  0  0  0
    6.0668  -12.4050   25.9638 S   0  0  0  0  0  0  0  0  0  0  0  0
    7.4900  -13.1260   25.0544 C   0  0  0  0  0  0  0  0  0  0  0  0
    7.0667  -14.3934   24.3878 C   0  0  0  0  0  0  0  0  0  0  0  0
    8.1658  -15.0980   23.6312 C   0  0  2  0  0  0  0  0  0  0  0  0
    7.5922  -16.3751   23.2021 N   0  0  0  0  0  0  0  0  0  0  0  0
    9.3044  -15.3777   24.5076 C   0  0  0  0  0  0  0  0  0  0  0  0
    9.5896  -16.5464   24.8972 O   0  0  0  0  0  0  0  0  0  0  0  0
   10.1205  -14.3546   24.9466 O   0  0  0  0  0  0  0  0  0  0  0  0
  2  1  1  0
  2 12  2  0
  3  2  1  0
  4  3  2  0
  4  5  1  0
  5 11  2  0
  6  7  1  0
  6  5  1  0
  7  9  1  0
  7  8  1  6
  9 10  2  0
  9 13  1  0
 11 12  1  0
 13 14  1  0
 14 17  1  0
 14 15  1  1
 16 15  1  0
 17 18  2  0
 20 21  1  0
 20 19  1  0
 22 21  1  0
 23 22  1  1
 24 23  1  0
 24 17  1  0
 25 27  1  0
 25 23  1  0
 26 25  2  0
M  END
$$$$
