YCM.pdb
     RDKit          3D

 27 27  0  0  1  0  0  0  0  0999 V2000
    8.3342  -13.1018   16.2425 O   0  0  0  0  0  0  0  0  0  0  0  0
    8.0665  -13.5377   17.5292 C   0  0  0  0  0  0  0  0  0  0  0  0
    7.6974  -12.6129   18.4875 C   0  0  0  0  0  0  0  0  0  0  0  0
    7.4269  -13.0224   19.7711 C   0  0  0  0  0  0  0  0  0  0  0  0
    7.5075  -14.3527   20.1652 C   0  0  0  0  0  0  0  0  0  0  0  0
    7.2099  -14.7637   21.5656 C   0  0  0  0  0  0  0  0  0  0  0  0
    6.8276  -16.2416   21.6155 C   0  0  2  0  0  0  0  0  0  0  0  0
    5.4245  -16.3058   21.2346 N   0  0  0  0  0  0  0  0  0  0  0  0
    7.0363  -16.7933   22.9789 C   0  0  0  0  0  0  0  0  0  0  0  0
    6.3008  -16.4933   23.9511 O   0  0  0  0  0  0  0  0  0  0  0  0
    7.8771  -15.2709   19.2007 C   0  0  0  0  0  0  0  0  0  0  0  0
    8.1470  -14.8576   17.9173 C   0  0  0  0  0  0  0  0  0  0  0  0
    8.0960  -17.6991   23.2426 N   0  0  0  0  0  0  0  0  0  0  0  0
    8.2553  -18.3107   24.5754 C   0  0  1  0  0  0  0  0  0  0  0  0
    7.9493  -19.7892   24.4642 C   0  0  0  0  0  0  0  0  0  0  0  0
    6.1832  -20.0910   24.3786 S   0  0  0  0  0  0  0  0  0  0  0  0
    9.6040  -18.0294   25.0926 C   0  0  0  0  0  0  0  0  0  0  0  0
   10.5916  -17.9798   24.2941 O   0  0  0  0  0  0  0  0  0  0  0  0
    9.5657  -13.8333   30.8059 C   0  0  0  0  0  0  0  0  0  0  0  0
   10.2877  -14.0255   29.1423 S   0  0  0  0  0  0  0  0  0  0  0  0
   10.4612  -15.8152   28.7695 C   0  0  0  0  0  0  0  0  0  0  0  0
   11.0187  -15.9875   27.3949 C   0  0  0  0  0  0  0  0  0  0  0  0
   11.1498  -17.4232   26.9499 C   0  0  2  0  0  0  0  0  0  0  0  0
    9.8223  -17.8084   26.4668 N   0  0  0  0  0  0  0  0  0  0  0  0
   11.4962  -18.2885   28.0787 C   0  0  0  0  0  0  0  0  0  0  0  0
   12.5989  -18.1962   28.6908 O   0  0  0  0  0  0  0  0  0  0  0  0
   10.6132  -19.2529   28.5209 O   0  0  0  0  0  0  0  0  0  0  0  0
  2  1  1  0
  2 12  2  0
  3  2  1  0
  4  3  2  0
  4  5  1  0
  5 11  2  0
  6  7  1  0
  6  5  1  0
  7  9  1  0
  7  8  1  1
  9 10  2  0
  9 13  1  0
 11 12  1  0
 13 14  1  0
 14 17  1  0
 14 15  1  6
 16 15  1  0
 17 18  2  0
 20 21  1  0
 20 19  1  0
 22 21  1  0
 23 22  1  1
 24 23  1  0
 24 17  1  0
 25 27  1  0
 25 23  1  0
 26 25  2  0
M  END
$$$$
