YCM.pdb
     RDKit          3D

 27 27  0  0  1  0  0  0  0  0999 V2000
    7.6172  -11.6558   26.4755 O   0  0  0  0  0  0  0  0  0  0  0  0
    7.2913  -12.7833   25.7407 C   0  0  0  0  0  0  0  0  0  0  0  0
    6.2718  -13.6029   26.1865 C   0  0  0  0  0  0  0  0  0  0  0  0
    5.9309  -14.7272   25.4736 C   0  0  0  0  0  0  0  0  0  0  0  0
    6.5752  -15.0918   24.2975 C   0  0  0  0  0  0  0  0  0  0  0  0
    6.1831  -16.3187   23.5493 C   0  0  0  0  0  0  0  0  0  0  0  0
    6.9222  -17.5362   24.1010 C   0  0  2  0  0  0  0  0  0  0  0  0
    6.7097  -17.5157   25.5405 N   0  0  0  0  0  0  0  0  0  0  0  0
    8.3696  -17.4656   23.7740 C   0  0  0  0  0  0  0  0  0  0  0  0
    9.2671  -17.7284   24.6116 O   0  0  0  0  0  0  0  0  0  0  0  0
    7.5934  -14.2668   23.8587 C   0  0  0  0  0  0  0  0  0  0  0  0
    7.9318  -13.1426   24.5745 C   0  0  0  0  0  0  0  0  0  0  0  0
    8.8046  -17.0909   22.4766 N   0  0  0  0  0  0  0  0  0  0  0  0
   10.2391  -17.0787   22.1331 C   0  0  1  0  0  0  0  0  0  0  0  0
   10.3786  -16.7187   20.6692 C   0  0  0  0  0  0  0  0  0  0  0  0
    9.4299  -17.8272   19.6258 S   0  0  0  0  0  0  0  0  0  0  0  0
   10.9571  -16.1614   23.0324 C   0  0  0  0  0  0  0  0  0  0  0  0
   10.4718  -15.0147   23.2876 O   0  0  0  0  0  0  0  0  0  0  0  0
   10.1177  -13.9341   28.5524 C   0  0  0  0  0  0  0  0  0  0  0  0
   10.8036  -15.6191   28.4265 S   0  0  0  0  0  0  0  0  0  0  0  0
   12.2059  -15.6063   27.2409 C   0  0  0  0  0  0  0  0  0  0  0  0
   11.7283  -16.0494   25.8972 C   0  0  0  0  0  0  0  0  0  0  0  0
   12.7009  -15.7915   24.7728 C   0  0  2  0  0  0  0  0  0  0  0  0
   12.1801  -16.5347   23.6237 N   0  0  0  0  0  0  0  0  0  0  0  0
   14.0261  -16.3206   25.0992 C   0  0  0  0  0  0  0  0  0  0  0  0
   14.4477  -17.4223   24.6438 O   0  0  0  0  0  0  0  0  0  0  0  0
   14.8761  -15.6206   25.9317 O   0  0  0  0  0  0  0  0  0  0  0  0
  2  1  1  0
  2 12  2  0
  3  2  1  0
  4  3  2  0
  4  5  1  0
  5 11  2  0
  6  7  1  0
  6  5  1  0
  7  9  1  0
  7  8  1  1
  9 10  2  0
  9 13  1  0
 11 12  1  0
 13 14  1  0
 14 17  1  0
 14 15  1  6
 16 15  1  0
 17 18  2  0
 20 21  1  0
 20 19  1  0
 22 21  1  0
 23 22  1  1
 24 23  1  0
 24 17  1  0
 25 27  1  0
 25 23  1  0
 26 25  2  0
M  END
$$$$
