YCM.pdb
     RDKit          3D

 27 27  0  0  1  0  0  0  0  0999 V2000
    6.9674  -21.8498   29.9292 O   0  0  0  0  0  0  0  0  0  0  0  0
    7.3409  -21.2615   28.7327 C   0  0  0  0  0  0  0  0  0  0  0  0
    6.3693  -20.6860   27.9361 C   0  0  0  0  0  0  0  0  0  0  0  0
    6.7166  -20.0964   26.7443 C   0  0  0  0  0  0  0  0  0  0  0  0
    8.0281  -20.0479   26.2873 C   0  0  0  0  0  0  0  0  0  0  0  0
    8.3712  -19.4030   24.9892 C   0  0  0  0  0  0  0  0  0  0  0  0
    7.2552  -19.6311   23.9715 C   0  0  2  0  0  0  0  0  0  0  0  0
    7.3369  -21.0344   23.5948 N   0  0  0  0  0  0  0  0  0  0  0  0
    7.4335  -18.7497   22.7890 C   0  0  0  0  0  0  0  0  0  0  0  0
    8.3020  -18.9647   21.9084 O   0  0  0  0  0  0  0  0  0  0  0  0
    8.9935  -20.6256   27.0899 C   0  0  0  0  0  0  0  0  0  0  0  0
    8.6423  -21.2147   28.2818 C   0  0  0  0  0  0  0  0  0  0  0  0
    6.6133  -17.6070   22.6036 N   0  0  0  0  0  0  0  0  0  0  0  0
    7.0635  -16.4799   21.7651 C   0  0  1  0  0  0  0  0  0  0  0  0
    5.8498  -15.6741   21.3530 C   0  0  0  0  0  0  0  0  0  0  0  0
    6.3103  -14.2503   20.3638 S   0  0  0  0  0  0  0  0  0  0  0  0
    8.0702  -15.6909   22.4929 C   0  0  0  0  0  0  0  0  0  0  0  0
    8.8297  -14.8929   21.8591 O   0  0  0  0  0  0  0  0  0  0  0  0
    5.3950  -11.7287   26.9980 C   0  0  0  0  0  0  0  0  0  0  0  0
    6.6346  -13.0387   27.2684 S   0  0  0  0  0  0  0  0  0  0  0  0
    7.4923  -13.3862   25.6822 C   0  0  0  0  0  0  0  0  0  0  0  0
    8.4462  -14.5200   25.8679 C   0  0  0  0  0  0  0  0  0  0  0  0
    9.1573  -14.9501   24.6086 C   0  0  2  0  0  0  0  0  0  0  0  0
    8.2066  -15.8015   23.8908 N   0  0  0  0  0  0  0  0  0  0  0  0
   10.3408  -15.7506   24.9266 C   0  0  0  0  0  0  0  0  0  0  0  0
   11.4323  -15.2304   25.2968 O   0  0  0  0  0  0  0  0  0  0  0  0
   10.3038  -17.1272   24.8309 O   0  0  0  0  0  0  0  0  0  0  0  0
  2  1  1  0
  2 12  2  0
  3  2  1  0
  4  3  2  0
  4  5  1  0
  5 11  2  0
  6  7  1  0
  6  5  1  0
  7  9  1  0
  7  8  1  6
  9 10  2  0
  9 13  1  0
 11 12  1  0
 13 14  1  0
 14 17  1  0
 14 15  1  1
 16 15  1  0
 17 18  2  0
 20 21  1  0
 20 19  1  0
 22 21  1  0
 23 22  1  1
 24 23  1  0
 24 17  1  0
 25 27  1  0
 25 23  1  0
 26 25  2  0
M  END
$$$$
