LSD.pdb
     RDKit          3D

 23 22  0  0  1  0  0  0  0  0999 V2000
   27.3280  -10.6127  -14.9509 C   0  0  0  0  0  0  0  0  0  0  0  0
   26.8258  -11.0749  -16.3076 C   0  0  2  0  0  0  0  0  0  0  0  0
   27.9734  -11.3199  -17.2581 C   0  0  0  0  0  0  0  0  0  0  0  0
   25.9140  -10.0203  -16.8661 C   0  0  0  0  0  0  0  0  0  0  0  0
   24.7681   -9.6893  -15.9444 C   0  0  2  0  0  0  0  0  0  0  0  0
   23.8819  -10.7962  -15.7359 N   0  0  0  0  0  0  0  0  0  0  0  0
   23.9894   -8.5970  -16.6184 C   0  0  0  0  0  0  0  0  0  0  0  0
   24.5750   -7.5825  -17.0108 O   0  0  0  0  0  0  0  0  0  0  0  0
   19.8598   -9.0564  -16.8478 O   0  0  0  0  0  0  0  0  0  0  0  0
   20.4803   -8.3937  -17.8947 C   0  0  0  0  0  0  0  0  0  0  0  0
   21.7619   -7.7855  -17.3727 C   0  0  2  0  0  0  0  0  0  0  0  0
   22.6112   -8.7713  -16.7796 N   0  0  0  0  0  0  0  0  0  0  0  0
   21.4920   -6.6299  -16.4775 C   0  0  0  0  0  0  0  0  0  0  0  0
   21.5082   -6.7305  -15.2434 O   0  0  0  0  0  0  0  0  0  0  0  0
   21.2088   -5.3785  -17.0431 N   0  0  0  0  0  0  0  0  0  0  0  0
   20.9697   -4.1792  -16.2217 C   0  0  1  0  0  0  0  0  0  0  0  0
   21.5522   -3.0311  -16.9748 C   0  0  0  0  0  0  0  0  0  0  0  0
   21.3686   -1.7222  -16.3346 C   0  0  0  0  0  0  0  0  0  0  0  0
   20.9891   -1.6174  -15.1408 O   0  0  0  0  0  0  0  0  0  0  0  0
   19.5067   -4.0533  -16.0183 C   0  0  0  0  0  0  0  0  0  0  0  0
   19.0465   -3.3674  -15.0738 O   0  0  0  0  0  0  0  0  0  0  0  0
   21.6142   -0.5536  -17.0461 O   0  0  0  0  0  0  0  0  0  0  0  0
   18.5738   -4.6764  -16.8468 O   0  0  0  0  0  0  0  0  0  0  0  0
  2  1  1  1
  2  4  1  0
  2  3  1  0
  4  5  1  0
  5  7  1  0
  5  6  1  6
  7  8  2  0
  9 10  1  0
 11 10  1  1
 12 11  1  0
 12  7  1  0
 13 11  1  0
 14 13  2  0
 15 13  1  0
 16 15  1  0
 16 17  1  6
 17 18  1  0
 18 19  2  0
 18 22  1  0
 20 16  1  0
 21 20  2  0
 23 20  1  0
M  END
$$$$
