LSD.pdb
     RDKit          3D

 23 22  0  0  1  0  0  0  0  0999 V2000
   28.7630  -10.7389  -16.8587 C   0  0  0  0  0  0  0  0  0  0  0  0
   27.6771  -11.7258  -17.2503 C   0  0  2  0  0  0  0  0  0  0  0  0
   27.9826  -12.3713  -18.5809 C   0  0  0  0  0  0  0  0  0  0  0  0
   26.3679  -10.9937  -17.3244 C   0  0  0  0  0  0  0  0  0  0  0  0
   25.9944  -10.3293  -16.0239 C   0  0  2  0  0  0  0  0  0  0  0  0
   25.7396  -11.2676  -14.9708 N   0  0  0  0  0  0  0  0  0  0  0  0
   24.7224   -9.5767  -16.2873 C   0  0  0  0  0  0  0  0  0  0  0  0
   24.6785   -8.7558  -17.2094 O   0  0  0  0  0  0  0  0  0  0  0  0
   21.4775  -10.1644  -13.6831 O   0  0  0  0  0  0  0  0  0  0  0  0
   21.2292  -10.0067  -15.0373 C   0  0  0  0  0  0  0  0  0  0  0  0
   22.3545   -9.1895  -15.6297 C   0  0  2  0  0  0  0  0  0  0  0  0
   23.6193   -9.8367  -15.4679 N   0  0  0  0  0  0  0  0  0  0  0  0
   22.3416   -7.7933  -15.1197 C   0  0  0  0  0  0  0  0  0  0  0  0
   23.0551   -7.4264  -14.1766 O   0  0  0  0  0  0  0  0  0  0  0  0
   21.4945   -6.8529  -15.7231 N   0  0  0  0  0  0  0  0  0  0  0  0
   21.4427   -5.4465  -15.2879 C   0  0  1  0  0  0  0  0  0  0  0  0
   21.7252   -4.6214  -16.4979 C   0  0  0  0  0  0  0  0  0  0  0  0
   21.6656   -3.1706  -16.2778 C   0  0  0  0  0  0  0  0  0  0  0  0
   21.5919   -2.6796  -15.1230 O   0  0  0  0  0  0  0  0  0  0  0  0
   20.0960   -5.1967  -14.7207 C   0  0  0  0  0  0  0  0  0  0  0  0
   19.8878   -4.2131  -13.9701 O   0  0  0  0  0  0  0  0  0  0  0  0
   21.6897   -2.2965  -17.3582 O   0  0  0  0  0  0  0  0  0  0  0  0
   19.0029   -6.0225  -14.9817 O   0  0  0  0  0  0  0  0  0  0  0  0
  2  1  1  6
  2  4  1  0
  2  3  1  0
  4  5  1  0
  5  7  1  0
  5  6  1  1
  7  8  2  0
  9 10  1  0
 11 10  1  1
 12 11  1  0
 12  7  1  0
 13 11  1  0
 14 13  2  0
 15 13  1  0
 16 15  1  0
 16 17  1  6
 17 18  1  0
 18 19  2  0
 18 22  1  0
 20 16  1  0
 21 20  2  0
 23 20  1  0
M  END
$$$$
