LSD.pdb
     RDKit          3D

 23 22  0  0  1  0  0  0  0  0999 V2000
   27.9848  -13.2508  -15.2501 C   0  0  0  0  0  0  0  0  0  0  0  0
   28.2358  -12.6209  -16.6090 C   0  0  2  0  0  0  0  0  0  0  0  0
   29.7125  -12.5722  -16.9217 C   0  0  0  0  0  0  0  0  0  0  0  0
   27.6666  -11.2311  -16.6058 C   0  0  0  0  0  0  0  0  0  0  0  0
   26.1669  -11.2132  -16.4542 C   0  0  2  0  0  0  0  0  0  0  0  0
   25.5069  -12.1413  -17.3243 N   0  0  0  0  0  0  0  0  0  0  0  0
   25.7231   -9.8304  -16.8347 C   0  0  0  0  0  0  0  0  0  0  0  0
   26.1945   -8.8536  -16.2433 O   0  0  0  0  0  0  0  0  0  0  0  0
   22.6978   -9.4856  -19.7004 O   0  0  0  0  0  0  0  0  0  0  0  0
   23.6564   -8.4863  -19.6467 C   0  0  0  0  0  0  0  0  0  0  0  0
   24.2119   -8.4425  -18.2415 C   0  0  2  0  0  0  0  0  0  0  0  0
   24.7800   -9.6978  -17.8588 N   0  0  0  0  0  0  0  0  0  0  0  0
   23.2049   -7.9357  -17.2726 C   0  0  0  0  0  0  0  0  0  0  0  0
   22.5119   -8.6934  -16.5808 O   0  0  0  0  0  0  0  0  0  0  0  0
   23.0284   -6.5519  -17.1312 N   0  0  0  0  0  0  0  0  0  0  0  0
   21.9736   -5.9758  -16.2794 C   0  0  1  0  0  0  0  0  0  0  0  0
   22.6703   -5.2989  -15.1475 C   0  0  0  0  0  0  0  0  0  0  0  0
   21.7814   -4.5968  -14.2128 C   0  0  0  0  0  0  0  0  0  0  0  0
   20.5323   -4.6077  -14.3537 O   0  0  0  0  0  0  0  0  0  0  0  0
   21.1800   -5.0397  -17.1111 C   0  0  0  0  0  0  0  0  0  0  0  0
   21.6679   -4.5320  -18.1496 O   0  0  0  0  0  0  0  0  0  0  0  0
   22.3105   -3.8946  -13.1362 O   0  0  0  0  0  0  0  0  0  0  0  0
   19.8713   -4.6750  -16.7960 O   0  0  0  0  0  0  0  0  0  0  0  0
  2  1  1  1
  2  4  1  0
  2  3  1  0
  4  5  1  0
  5  7  1  0
  5  6  1  6
  7  8  2  0
  9 10  1  0
 11 10  1  6
 12 11  1  0
 12  7  1  0
 13 11  1  0
 14 13  2  0
 15 13  1  0
 16 15  1  0
 16 17  1  1
 17 18  1  0
 18 19  2  0
 18 22  1  0
 20 16  1  0
 21 20  2  0
 23 20  1  0
M  END
$$$$
