LSD.pdb
     RDKit          3D

 23 22  0  0  1  0  0  0  0  0999 V2000
   18.4271  -11.6092  -19.8102 C   0  0  0  0  0  0  0  0  0  0  0  0
   17.2894  -11.5807  -18.8046 C   0  0  2  0  0  0  0  0  0  0  0  0
   16.0616  -10.9249  -19.3905 C   0  0  0  0  0  0  0  0  0  0  0  0
   17.7430  -10.8250  -17.5886 C   0  0  0  0  0  0  0  0  0  0  0  0
   18.9862  -11.4083  -16.9670 C   0  0  2  0  0  0  0  0  0  0  0  0
   18.7763  -12.7174  -16.4224 N   0  0  0  0  0  0  0  0  0  0  0  0
   19.3587  -10.4938  -15.8361 C   0  0  0  0  0  0  0  0  0  0  0  0
   18.5946  -10.3710  -14.8733 O   0  0  0  0  0  0  0  0  0  0  0  0
   23.2782   -9.5979  -15.1869 O   0  0  0  0  0  0  0  0  0  0  0  0
   22.2910   -9.4767  -14.2220 C   0  0  0  0  0  0  0  0  0  0  0  0
   21.0474   -8.9327  -14.8872 C   0  0  2  0  0  0  0  0  0  0  0  0
   20.5737   -9.8059  -15.9158 N   0  0  0  0  0  0  0  0  0  0  0  0
   21.2442   -7.5342  -15.3509 C   0  0  0  0  0  0  0  0  0  0  0  0
   21.6592   -7.2653  -16.4861 O   0  0  0  0  0  0  0  0  0  0  0  0
   20.9514   -6.4769  -14.4777 N   0  0  0  0  0  0  0  0  0  0  0  0
   21.1194   -5.0658  -14.8658 C   0  0  1  0  0  0  0  0  0  0  0  0
   19.8457   -4.3770  -14.5082 C   0  0  0  0  0  0  0  0  0  0  0  0
   19.8164   -2.9424  -14.8207 C   0  0  0  0  0  0  0  0  0  0  0  0
   20.7518   -2.3828  -15.4469 O   0  0  0  0  0  0  0  0  0  0  0  0
   22.2909   -4.5301  -14.1319 C   0  0  0  0  0  0  0  0  0  0  0  0
   22.5157   -4.8705  -12.9454 O   0  0  0  0  0  0  0  0  0  0  0  0
   18.7372   -2.1609  -14.4247 O   0  0  0  0  0  0  0  0  0  0  0  0
   23.1941   -3.6347  -14.7040 O   0  0  0  0  0  0  0  0  0  0  0  0
  2  1  1  6
  2  4  1  0
  2  3  1  0
  4  5  1  0
  5  7  1  0
  5  6  1  1
  7  8  2  0
  9 10  1  0
 11 10  1  6
 12 11  1  0
 12  7  1  0
 13 11  1  0
 14 13  2  0
 15 13  1  0
 16 15  1  0
 16 17  1  1
 17 18  1  0
 18 19  2  0
 18 22  1  0
 20 16  1  0
 21 20  2  0
 23 20  1  0
M  END
$$$$
