LSD.pdb
     RDKit          3D

 23 22  0  0  1  0  0  0  0  0999 V2000
   28.4580  -20.8236   -5.5145 C   0  0  0  0  0  0  0  0  0  0  0  0
   28.4188  -19.7781   -6.6153 C   0  0  2  0  0  0  0  0  0  0  0  0
   28.8137  -18.4188   -6.0890 C   0  0  0  0  0  0  0  0  0  0  0  0
   27.0270  -19.7255   -7.1772 C   0  0  0  0  0  0  0  0  0  0  0  0
   26.7328  -20.8646   -8.1195 C   0  0  2  0  0  0  0  0  0  0  0  0
   27.9041  -21.6085   -8.4788 N   0  0  0  0  0  0  0  0  0  0  0  0
   26.1811  -20.2431   -9.3699 C   0  0  0  0  0  0  0  0  0  0  0  0
   25.3532  -19.3304   -9.2839 O   0  0  0  0  0  0  0  0  0  0  0  0
   27.9289  -21.5831  -12.5335 O   0  0  0  0  0  0  0  0  0  0  0  0
   26.9301  -20.7538  -13.0182 C   0  0  0  0  0  0  0  0  0  0  0  0
   26.0653  -20.3288  -11.8535 C   0  0  2  0  0  0  0  0  0  0  0  0
   26.6314  -20.7271  -10.6022 N   0  0  0  0  0  0  0  0  0  0  0  0
   24.6580  -20.7747  -12.0279 C   0  0  0  0  0  0  0  0  0  0  0  0
   24.0481  -21.4002  -11.1504 O   0  0  0  0  0  0  0  0  0  0  0  0
   23.9910  -20.4800  -13.2256 N   0  0  0  0  0  0  0  0  0  0  0  0
   22.5860  -20.8574  -13.4577 C   0  0  1  0  0  0  0  0  0  0  0  0
   21.7820  -20.1387  -12.4273 C   0  0  0  0  0  0  0  0  0  0  0  0
   20.3296  -20.3189  -12.5481 C   0  0  0  0  0  0  0  0  0  0  0  0
   19.8249  -21.4245  -12.8696 O   0  0  0  0  0  0  0  0  0  0  0  0
   22.2337  -20.4634  -14.8428 C   0  0  0  0  0  0  0  0  0  0  0  0
   22.8008  -19.4915  -15.3978 O   0  0  0  0  0  0  0  0  0  0  0  0
   19.4689  -19.2546  -12.3059 O   0  0  0  0  0  0  0  0  0  0  0  0
   21.2713  -21.1352  -15.5961 O   0  0  0  0  0  0  0  0  0  0  0  0
  2  1  1  1
  2  4  1  0
  2  3  1  0
  4  5  1  0
  5  7  1  0
  5  6  1  6
  7  8  2  0
  9 10  1  0
 11 10  1  6
 12 11  1  0
 12  7  1  0
 13 11  1  0
 14 13  2  0
 15 13  1  0
 16 15  1  0
 16 17  1  1
 17 18  1  0
 18 19  2  0
 18 22  1  0
 20 16  1  0
 21 20  2  0
 23 20  1  0
M  END
$$$$
