VTD.pdb
     RDKit          3D

 23 22  0  0  1  0  0  0  0  0999 V2000
   11.8756  -17.8343   13.9769 C   0  0  0  0  0  0  0  0  0  0  0  0
   11.7991  -17.3356   15.3882 C   0  0  2  0  0  0  0  0  0  0  0  0
   11.1723  -18.4284   16.2288 C   0  0  0  0  0  0  0  0  0  0  0  0
   11.0660  -16.0522   15.5558 C   0  0  2  0  0  0  0  0  0  0  0  0
   11.5906  -15.0877   14.6181 N   0  0  0  0  0  0  0  0  0  0  0  0
   11.0476  -15.4924   16.8938 C   0  0  0  0  0  0  0  0  0  0  0  0
   12.0344  -14.9820   17.4873 O   0  0  0  0  0  0  0  0  0  0  0  0
    8.2687  -13.0296   18.3105 C   0  0  0  0  0  0  0  0  0  0  0  0
    8.4901  -14.1962   19.2249 C   0  0  1  0  0  0  0  0  0  0  0  0
    7.3811  -15.0407   19.1830 O   0  0  0  0  0  0  0  0  0  0  0  0
    9.7742  -14.9149   18.9796 C   0  0  2  0  0  0  0  0  0  0  0  0
    9.8333  -15.5005   17.6333 N   0  0  0  0  0  0  0  0  0  0  0  0
    9.8952  -16.0043   20.0054 C   0  0  0  0  0  0  0  0  0  0  0  0
   10.0528  -17.1795   19.6275 O   0  0  0  0  0  0  0  0  0  0  0  0
    9.8296  -15.6897   21.3876 N   0  0  0  0  0  0  0  0  0  0  0  0
   10.5678  -16.4948   22.3985 C   0  0  1  0  0  0  0  0  0  0  0  0
   12.0223  -16.3235   22.0389 C   0  0  0  0  0  0  0  0  0  0  0  0
   12.9702  -17.0079   22.9024 C   0  0  0  0  0  0  0  0  0  0  0  0
   13.0561  -16.7724   24.1221 O   0  0  0  0  0  0  0  0  0  0  0  0
   10.2745  -15.9036   23.7469 C   0  0  0  0  0  0  0  0  0  0  0  0
   10.1469  -14.6789   23.9219 O   0  0  0  0  0  0  0  0  0  0  0  0
   13.8564  -17.9853   22.4147 O   0  0  0  0  0  0  0  0  0  0  0  0
   10.1315  -16.7261   24.8765 O   0  0  0  0  0  0  0  0  0  0  0  0
  2  1  1  6
  2  3  1  0
  2  4  1  0
  4  6  1  0
  4  5  1  6
  6  7  2  0
  9 10  1  0
  9  8  1  6
 11  9  1  0
 12  6  1  0
 11 12  1  6
 13 14  2  0
 13 11  1  0
 15 13  1  0
 16 17  1  6
 16 15  1  0
 17 18  1  0
 18 19  2  0
 18 22  1  0
 20 16  1  0
 21 20  2  0
 23 20  1  0
M  END
$$$$
