VTD.pdb
     RDKit          3D

 23 22  0  0  1  0  0  0  0  0999 V2000
    8.1001  -12.2522   27.1736 C   0  0  0  0  0  0  0  0  0  0  0  0
    7.1837  -11.9874   26.0176 C   0  0  2  0  0  0  0  0  0  0  0  0
    6.3154  -10.8011   26.3813 C   0  0  0  0  0  0  0  0  0  0  0  0
    6.3494  -13.1482   25.6064 C   0  0  2  0  0  0  0  0  0  0  0  0
    5.4748  -13.5059   26.6981 N   0  0  0  0  0  0  0  0  0  0  0  0
    7.0644  -14.3180   25.1325 C   0  0  0  0  0  0  0  0  0  0  0  0
    7.3702  -15.3212   25.8299 O   0  0  0  0  0  0  0  0  0  0  0  0
    6.7387  -15.4149   21.1500 C   0  0  0  0  0  0  0  0  0  0  0  0
    8.0993  -15.6177   21.7448 C   0  0  1  0  0  0  0  0  0  0  0  0
    8.9972  -14.7134   21.1782 O   0  0  0  0  0  0  0  0  0  0  0  0
    8.1120  -15.5878   23.2363 C   0  0  2  0  0  0  0  0  0  0  0  0
    7.4734  -14.3779   23.7721 N   0  0  0  0  0  0  0  0  0  0  0  0
    9.5436  -15.6394   23.6856 C   0  0  0  0  0  0  0  0  0  0  0  0
   10.1161  -14.5837   24.0117 O   0  0  0  0  0  0  0  0  0  0  0  0
   10.2288  -16.8811   23.7350 N   0  0  0  0  0  0  0  0  0  0  0  0
   11.6189  -16.9755   24.2581 C   0  0  1  0  0  0  0  0  0  0  0  0
   11.7620  -18.4059   24.7136 C   0  0  0  0  0  0  0  0  0  0  0  0
   11.1592  -18.7219   25.9979 C   0  0  0  0  0  0  0  0  0  0  0  0
   10.6648  -17.8512   26.7382 O   0  0  0  0  0  0  0  0  0  0  0  0
   12.5502  -16.6788   23.1186 C   0  0  0  0  0  0  0  0  0  0  0  0
   13.7443  -16.3805   23.2968 O   0  0  0  0  0  0  0  0  0  0  0  0
   11.0946  -20.0378   26.4908 O   0  0  0  0  0  0  0  0  0  0  0  0
   12.0983  -16.7285   21.7895 O   0  0  0  0  0  0  0  0  0  0  0  0
  2  1  1  1
  2  3  1  0
  2  4  1  0
  4  6  1  0
  4  5  1  1
  6  7  2  0
  9 10  1  0
  9  8  1  6
 11  9  1  0
 12  6  1  0
 11 12  1  6
 13 14  2  0
 13 11  1  0
 15 13  1  0
 16 17  1  6
 16 15  1  0
 17 18  1  0
 18 19  2  0
 18 22  1  0
 20 16  1  0
 21 20  2  0
 23 20  1  0
M  END
$$$$
