VTD.pdb
     RDKit          3D

 23 22  0  0  1  0  0  0  0  0999 V2000
    7.5478  -12.5399   19.4764 C   0  0  0  0  0  0  0  0  0  0  0  0
    8.3220  -13.4110   18.5340 C   0  0  2  0  0  0  0  0  0  0  0  0
    7.4386  -13.6919   17.3365 C   0  0  0  0  0  0  0  0  0  0  0  0
    8.8259  -14.6777   19.1293 C   0  0  2  0  0  0  0  0  0  0  0  0
    7.7301  -15.6114   19.2394 N   0  0  0  0  0  0  0  0  0  0  0  0
    9.5154  -14.5611   20.4001 C   0  0  0  0  0  0  0  0  0  0  0  0
   10.5355  -13.8549   20.6172 O   0  0  0  0  0  0  0  0  0  0  0  0
    7.6818  -13.9319   23.8903 C   0  0  0  0  0  0  0  0  0  0  0  0
    8.6125  -15.1057   23.9361 C   0  0  1  0  0  0  0  0  0  0  0  0
    7.8732  -16.2875   23.9809 O   0  0  0  0  0  0  0  0  0  0  0  0
    9.6342  -15.1034   22.8490 C   0  0  2  0  0  0  0  0  0  0  0  0
    9.0320  -15.2889   21.5218 N   0  0  0  0  0  0  0  0  0  0  0  0
   10.5991  -16.2207   23.1219 C   0  0  0  0  0  0  0  0  0  0  0  0
   10.4773  -17.2931   22.5024 O   0  0  0  0  0  0  0  0  0  0  0  0
   11.6350  -16.0481   24.0763 N   0  0  0  0  0  0  0  0  0  0  0  0
   12.6399  -17.1170   24.3267 C   0  0  1  0  0  0  0  0  0  0  0  0
   13.9343  -16.3801   24.5629 C   0  0  0  0  0  0  0  0  0  0  0  0
   14.7004  -16.0534   23.3716 C   0  0  0  0  0  0  0  0  0  0  0  0
   14.3219  -16.3623   22.2263 O   0  0  0  0  0  0  0  0  0  0  0  0
   12.2112  -17.8587   25.5595 C   0  0  0  0  0  0  0  0  0  0  0  0
   12.6711  -18.9753   25.8568 O   0  0  0  0  0  0  0  0  0  0  0  0
   15.9248  -15.3641   23.4349 O   0  0  0  0  0  0  0  0  0  0  0  0
   11.2603  -17.3086   26.4348 O   0  0  0  0  0  0  0  0  0  0  0  0
  2  1  1  1
  2  3  1  0
  2  4  1  0
  4  6  1  0
  4  5  1  1
  6  7  2  0
  9 10  1  0
  9  8  1  6
 11  9  1  0
 12  6  1  0
 11 12  1  6
 13 14  2  0
 13 11  1  0
 15 13  1  0
 16 17  1  1
 16 15  1  0
 17 18  1  0
 18 19  2  0
 18 22  1  0
 20 16  1  0
 21 20  2  0
 23 20  1  0
M  END
$$$$
