VTD.pdb
     RDKit          3D

 23 22  0  0  1  0  0  0  0  0999 V2000
    7.6676  -12.4966   20.3963 C   0  0  0  0  0  0  0  0  0  0  0  0
    8.6290  -13.0043   19.3647 C   0  0  2  0  0  0  0  0  0  0  0  0
    8.6811  -11.9868   18.2442 C   0  0  0  0  0  0  0  0  0  0  0  0
    8.3162  -14.3590   18.8359 C   0  0  2  0  0  0  0  0  0  0  0  0
    7.1076  -14.2868   18.0493 N   0  0  0  0  0  0  0  0  0  0  0  0
    8.2143  -15.4238   19.8157 C   0  0  0  0  0  0  0  0  0  0  0  0
    7.1916  -16.1279   20.0275 O   0  0  0  0  0  0  0  0  0  0  0  0
    7.6714  -18.1781   20.1527 C   0  0  0  0  0  0  0  0  0  0  0  0
    9.0182  -18.1606   20.8098 C   0  0  1  0  0  0  0  0  0  0  0  0
    9.9987  -18.4960   19.8764 O   0  0  0  0  0  0  0  0  0  0  0  0
    9.3169  -16.8892   21.5310 C   0  0  2  0  0  0  0  0  0  0  0  0
    9.3407  -15.7314   20.6268 N   0  0  0  0  0  0  0  0  0  0  0  0
   10.6576  -17.0378   22.1900 C   0  0  0  0  0  0  0  0  0  0  0  0
   11.6648  -16.5679   21.6302 O   0  0  0  0  0  0  0  0  0  0  0  0
   10.7667  -17.7074   23.4364 N   0  0  0  0  0  0  0  0  0  0  0  0
   12.0703  -17.8078   24.1473 C   0  0  1  0  0  0  0  0  0  0  0  0
   11.7481  -17.4953   25.5870 C   0  0  0  0  0  0  0  0  0  0  0  0
   12.8917  -17.3548   26.4730 C   0  0  0  0  0  0  0  0  0  0  0  0
   14.0626  -17.5341   26.0889 O   0  0  0  0  0  0  0  0  0  0  0  0
   12.5564  -19.2205   23.9999 C   0  0  0  0  0  0  0  0  0  0  0  0
   11.7768  -20.1843   23.8999 O   0  0  0  0  0  0  0  0  0  0  0  0
   12.7502  -17.0054   27.8281 O   0  0  0  0  0  0  0  0  0  0  0  0
   13.9309  -19.5080   23.9692 O   0  0  0  0  0  0  0  0  0  0  0  0
  2  1  1  1
  2  3  1  0
  2  4  1  0
  4  6  1  0
  4  5  1  1
  6  7  2  0
  9 10  1  0
  9  8  1  6
 11  9  1  0
 12  6  1  0
 11 12  1  6
 13 14  2  0
 13 11  1  0
 15 13  1  0
 16 17  1  1
 16 15  1  0
 17 18  1  0
 18 19  2  0
 18 22  1  0
 20 16  1  0
 21 20  2  0
 23 20  1  0
M  END
$$$$
