VTD.pdb
     RDKit          3D

 23 22  0  0  1  0  0  0  0  0999 V2000
    7.9786  -12.7879   27.2888 C   0  0  0  0  0  0  0  0  0  0  0  0
    7.3856  -12.1305   26.0795 C   0  0  2  0  0  0  0  0  0  0  0  0
    6.8189  -10.7948   26.5135 C   0  0  0  0  0  0  0  0  0  0  0  0
    6.3554  -12.9390   25.3740 C   0  0  2  0  0  0  0  0  0  0  0  0
    5.2404  -13.1567   26.2651 N   0  0  0  0  0  0  0  0  0  0  0  0
    6.8016  -14.1993   24.8114 C   0  0  0  0  0  0  0  0  0  0  0  0
    6.7141  -15.3233   25.3731 O   0  0  0  0  0  0  0  0  0  0  0  0
    6.7149  -15.0287   20.7812 C   0  0  0  0  0  0  0  0  0  0  0  0
    8.0014  -15.3990   21.4549 C   0  0  1  0  0  0  0  0  0  0  0  0
    9.0194  -14.5524   21.0171 O   0  0  0  0  0  0  0  0  0  0  0  0
    7.9023  -15.4639   22.9420 C   0  0  2  0  0  0  0  0  0  0  0  0
    7.3937  -14.2119   23.5189 N   0  0  0  0  0  0  0  0  0  0  0  0
    9.2745  -15.7436   23.4830 C   0  0  0  0  0  0  0  0  0  0  0  0
    9.9061  -14.8272   24.0397 O   0  0  0  0  0  0  0  0  0  0  0  0
    9.8376  -17.0400   23.3571 N   0  0  0  0  0  0  0  0  0  0  0  0
   11.1737  -17.3603   23.9292 C   0  0  1  0  0  0  0  0  0  0  0  0
   10.9540  -18.6114   24.7419 C   0  0  0  0  0  0  0  0  0  0  0  0
   11.6768  -18.6804   26.0010 C   0  0  0  0  0  0  0  0  0  0  0  0
   12.4740  -17.7958   26.3651 O   0  0  0  0  0  0  0  0  0  0  0  0
   12.1046  -17.6220   22.7808 C   0  0  0  0  0  0  0  0  0  0  0  0
   11.7025  -18.0463   21.6830 O   0  0  0  0  0  0  0  0  0  0  0  0
   11.5224  -19.7556   26.8947 O   0  0  0  0  0  0  0  0  0  0  0  0
   13.4846  -17.3933   22.9079 O   0  0  0  0  0  0  0  0  0  0  0  0
  2  1  1  1
  2  3  1  0
  2  4  1  0
  4  6  1  0
  4  5  1  1
  6  7  2  0
  9 10  1  0
  9  8  1  6
 11  9  1  0
 12  6  1  0
 11 12  1  1
 13 14  2  0
 13 11  1  0
 15 13  1  0
 16 17  1  1
 16 15  1  0
 17 18  1  0
 18 19  2  0
 18 22  1  0
 20 16  1  0
 21 20  2  0
 23 20  1  0
M  END
$$$$
