VTD.pdb
     RDKit          3D

 23 22  0  0  1  0  0  0  0  0999 V2000
    2.8826  -17.2918   20.5287 C   0  0  0  0  0  0  0  0  0  0  0  0
    3.2145  -18.7382   20.3187 C   0  0  2  0  0  0  0  0  0  0  0  0
    2.0286  -19.5549   20.7880 C   0  0  0  0  0  0  0  0  0  0  0  0
    4.4661  -19.1921   20.9821 C   0  0  2  0  0  0  0  0  0  0  0  0
    4.2756  -19.1599   22.4129 N   0  0  0  0  0  0  0  0  0  0  0  0
    5.6787  -18.4824   20.6213 C   0  0  0  0  0  0  0  0  0  0  0  0
    6.2036  -18.4655   19.4765 O   0  0  0  0  0  0  0  0  0  0  0  0
    6.5107  -14.8872   22.1966 C   0  0  0  0  0  0  0  0  0  0  0  0
    7.2683  -15.5120   21.0645 C   0  0  1  0  0  0  0  0  0  0  0  0
    8.4093  -14.7577   20.7923 O   0  0  0  0  0  0  0  0  0  0  0  0
    7.5668  -16.9592   21.2695 C   0  0  2  0  0  0  0  0  0  0  0  0
    6.3644  -17.7301   21.6139 N   0  0  0  0  0  0  0  0  0  0  0  0
    8.5683  -17.0694   22.3825 C   0  0  0  0  0  0  0  0  0  0  0  0
    8.1751  -17.0065   23.5616 O   0  0  0  0  0  0  0  0  0  0  0  0
    9.9450  -17.2432   22.0854 N   0  0  0  0  0  0  0  0  0  0  0  0
   10.9591  -17.3641   23.1679 C   0  0  1  0  0  0  0  0  0  0  0  0
   12.2713  -17.5453   22.4470 C   0  0  0  0  0  0  0  0  0  0  0  0
   13.3721  -18.0411   23.2563 C   0  0  0  0  0  0  0  0  0  0  0  0
   13.2950  -18.1561   24.4938 O   0  0  0  0  0  0  0  0  0  0  0  0
   10.9454  -16.0790   23.9438 C   0  0  0  0  0  0  0  0  0  0  0  0
   10.8195  -14.9713   23.3925 O   0  0  0  0  0  0  0  0  0  0  0  0
   14.6021  -18.4251   22.6921 O   0  0  0  0  0  0  0  0  0  0  0  0
   11.0762  -16.0824   25.3423 O   0  0  0  0  0  0  0  0  0  0  0  0
  2  1  1  1
  2  3  1  0
  2  4  1  0
  4  6  1  0
  4  5  1  1
  6  7  2  0
  9 10  1  0
  9  8  1  1
 11  9  1  0
 12  6  1  0
 11 12  1  1
 13 14  2  0
 13 11  1  0
 15 13  1  0
 16 17  1  6
 16 15  1  0
 17 18  1  0
 18 19  2  0
 18 22  1  0
 20 16  1  0
 21 20  2  0
 23 20  1  0
M  END
$$$$
