VTD.pdb
     RDKit          3D

 23 22  0  0  1  0  0  0  0  0999 V2000
    6.5743  -11.1608   26.9655 C   0  0  0  0  0  0  0  0  0  0  0  0
    7.2773  -12.4353   26.6081 C   0  0  2  0  0  0  0  0  0  0  0  0
    8.5588  -12.0678   25.8898 C   0  0  0  0  0  0  0  0  0  0  0  0
    6.4693  -13.3852   25.7972 C   0  0  2  0  0  0  0  0  0  0  0  0
    5.2083  -13.6133   26.4624 N   0  0  0  0  0  0  0  0  0  0  0  0
    7.1002  -14.6499   25.4707 C   0  0  0  0  0  0  0  0  0  0  0  0
    7.0517  -15.6947   26.1725 O   0  0  0  0  0  0  0  0  0  0  0  0
    7.4708  -15.5946   21.4895 C   0  0  0  0  0  0  0  0  0  0  0  0
    8.6104  -16.0770   22.3350 C   0  0  1  0  0  0  0  0  0  0  0  0
    9.7651  -15.3632   22.0153 O   0  0  0  0  0  0  0  0  0  0  0  0
    8.3150  -16.0744   23.7972 C   0  0  2  0  0  0  0  0  0  0  0  0
    7.8466  -14.7630   24.2659 N   0  0  0  0  0  0  0  0  0  0  0  0
    9.5765  -16.4442   24.5224 C   0  0  0  0  0  0  0  0  0  0  0  0
   10.3281  -15.5411   24.9326 O   0  0  0  0  0  0  0  0  0  0  0  0
    9.9009  -17.8094   24.7335 N   0  0  0  0  0  0  0  0  0  0  0  0
   11.1352  -18.2055   25.4646 C   0  0  1  0  0  0  0  0  0  0  0  0
   10.7985  -19.5327   26.0966 C   0  0  0  0  0  0  0  0  0  0  0  0
   10.2416  -19.4691   27.4377 C   0  0  0  0  0  0  0  0  0  0  0  0
   10.1370  -18.4013   28.0696 O   0  0  0  0  0  0  0  0  0  0  0  0
   12.2312  -18.3564   24.4497 C   0  0  0  0  0  0  0  0  0  0  0  0
   11.9987  -18.4793   23.2341 O   0  0  0  0  0  0  0  0  0  0  0  0
    9.7824  -20.6148   28.1124 O   0  0  0  0  0  0  0  0  0  0  0  0
   13.5794  -18.3641   24.8437 O   0  0  0  0  0  0  0  0  0  0  0  0
  2  1  1  6
  2  3  1  0
  2  4  1  0
  4  6  1  0
  4  5  1  1
  6  7  2  0
  9 10  1  0
  9  8  1  6
 11  9  1  0
 12  6  1  0
 11 12  1  1
 13 14  2  0
 13 11  1  0
 15 13  1  0
 16 17  1  6
 16 15  1  0
 17 18  1  0
 18 19  2  0
 18 22  1  0
 20 16  1  0
 21 20  2  0
 23 20  1  0
M  END
$$$$
