CLF.pdb
     RDKit          3D

 26 26  0  0  1  0  0  0  0  0999 V2000
   29.7592  -23.5509  -17.7764 N   0  0  0  0  0  0  0  0  0  0  0  0
   28.4237  -23.0379  -17.9527 C   0  0  1  0  0  0  0  0  0  0  0  0
   27.4736  -24.1508  -18.3381 C   0  0  0  0  0  0  0  0  0  0  0  0
   27.8409  -24.6220  -20.0505 S   0  0  0  0  0  0  0  0  0  0  0  0
   28.0101  -22.3271  -16.7436 C   0  0  0  0  0  0  0  0  0  0  0  0
   28.2976  -22.6983  -15.5728 O   0  0  0  0  0  0  0  0  0  0  0  0
   25.2409  -17.9824  -14.5906 C   0  0  0  0  0  0  0  0  0  0  0  0
   26.6598  -17.9165  -15.0465 C   0  0  2  0  0  0  0  0  0  0  0  0
   26.9103  -16.5202  -15.5871 C   0  0  0  0  0  0  0  0  0  0  0  0
   27.0020  -18.8808  -16.1326 C   0  0  0  0  0  0  0  0  0  0  0  0
   26.8859  -20.3279  -15.7135 C   0  0  2  0  0  0  0  0  0  0  0  0
   27.2413  -21.1495  -16.8472 N   0  0  0  0  0  0  0  0  0  0  0  0
   25.4616  -20.5580  -15.3685 C   0  0  0  0  0  0  0  0  0  0  0  0
   24.5994  -20.3655  -16.2552 O   0  0  0  0  0  0  0  0  0  0  0  0
   25.0725  -20.9826  -14.0789 N   0  0  0  0  0  0  0  0  0  0  0  0
   23.6916  -21.3303  -13.7168 C   0  0  1  0  0  0  0  0  0  0  0  0
   23.7404  -22.3467  -12.6366 C   0  0  0  0  0  0  0  0  0  0  0  0
   24.4653  -21.8376  -11.4644 C   0  0  0  0  0  0  0  0  0  0  0  0
   23.8335  -21.1910  -10.4301 C   0  0  0  0  0  0  0  0  0  0  0  0
   24.5430  -20.7245   -9.3321 C   0  0  0  0  0  0  0  0  0  0  0  0
   25.9078  -20.9170   -9.2851 C   0  0  0  0  0  0  0  0  0  0  0  0
   26.5593  -21.5646  -10.3157 C   0  0  0  0  0  0  0  0  0  0  0  0
   25.8448  -22.0279  -11.4092 C   0  0  0  0  0  0  0  0  0  0  0  0
   22.9271  -20.1257  -13.3435 C   0  0  0  0  0  0  0  0  0  0  0  0
   21.5203  -20.2067  -13.3313 O   0  0  0  0  0  0  0  0  0  0  0  0
   23.4360  -19.0336  -13.0345 O   0  0  0  0  0  0  0  0  0  0  0  0
  2  5  1  0
  2  1  1  1
  3  2  1  0
  4  3  1  0
  5  6  2  0
  8  7  1  6
  8  9  1  0
 10  8  1  0
 11 10  1  6
 12 11  1  0
 12  5  1  0
 13 11  1  0
 13 14  2  0
 15 13  1  0
 16 15  1  0
 16 24  1  0
 16 17  1  1
 18 19  2  0
 18 17  1  0
 20 19  1  0
 21 20  2  0
 22 21  1  0
 22 23  2  0
 23 18  1  0
 24 26  2  0
 24 25  1  0
M  END
$$$$
