CLF.pdb
     RDKit          3D

 26 26  0  0  1  0  0  0  0  0999 V2000
   27.4526  -21.1513  -18.6969 N   0  0  0  0  0  0  0  0  0  0  0  0
   28.2948  -21.5520  -17.5979 C   0  0  1  0  0  0  0  0  0  0  0  0
   29.7488  -21.2784  -17.9154 C   0  0  0  0  0  0  0  0  0  0  0  0
   30.2444  -22.4050  -19.2474 S   0  0  0  0  0  0  0  0  0  0  0  0
   27.8443  -20.8938  -16.3723 C   0  0  0  0  0  0  0  0  0  0  0  0
   28.4077  -21.0259  -15.2515 O   0  0  0  0  0  0  0  0  0  0  0  0
   27.6521  -16.8409  -14.6509 C   0  0  0  0  0  0  0  0  0  0  0  0
   26.7819  -17.0778  -15.8392 C   0  0  2  0  0  0  0  0  0  0  0  0
   26.1468  -15.7531  -16.2222 C   0  0  0  0  0  0  0  0  0  0  0  0
   25.6742  -18.0500  -15.6062 C   0  0  0  0  0  0  0  0  0  0  0  0
   26.1538  -19.4305  -15.2221 C   0  0  2  0  0  0  0  0  0  0  0  0
   26.7142  -20.0507  -16.4002 N   0  0  0  0  0  0  0  0  0  0  0  0
   24.9563  -20.1919  -14.7897 C   0  0  0  0  0  0  0  0  0  0  0  0
   24.0749  -20.4428  -15.6423 O   0  0  0  0  0  0  0  0  0  0  0  0
   24.7999  -20.6289  -13.4557 N   0  0  0  0  0  0  0  0  0  0  0  0
   23.6726  -21.4500  -12.9933 C   0  0  1  0  0  0  0  0  0  0  0  0
   24.1623  -22.3360  -11.9083 C   0  0  0  0  0  0  0  0  0  0  0  0
   24.8365  -21.5614  -10.8574 C   0  0  0  0  0  0  0  0  0  0  0  0
   26.2018  -21.4185  -10.8074 C   0  0  0  0  0  0  0  0  0  0  0  0
   26.8119  -20.6765   -9.8055 C   0  0  0  0  0  0  0  0  0  0  0  0
   26.0265  -20.0742   -8.8451 C   0  0  0  0  0  0  0  0  0  0  0  0
   24.6529  -20.2072   -8.8796 C   0  0  0  0  0  0  0  0  0  0  0  0
   24.0501  -20.9495   -9.8830 C   0  0  0  0  0  0  0  0  0  0  0  0
   22.5393  -20.6015  -12.5801 C   0  0  0  0  0  0  0  0  0  0  0  0
   22.7384  -19.2079  -12.5180 O   0  0  0  0  0  0  0  0  0  0  0  0
   21.4098  -21.0279  -12.2808 O   0  0  0  0  0  0  0  0  0  0  0  0
  2  5  1  0
  2  1  1  6
  3  2  1  0
  4  3  1  0
  5  6  2  0
  8  7  1  1
  8  9  1  0
 10  8  1  0
 11 10  1  6
 12 11  1  0
 12  5  1  0
 13 11  1  0
 13 14  2  0
 15 13  1  0
 16 15  1  0
 16 24  1  0
 16 17  1  1
 18 19  2  0
 18 17  1  0
 20 19  1  0
 21 20  2  0
 22 21  1  0
 22 23  2  0
 23 18  1  0
 24 26  2  0
 24 25  1  0
M  END
$$$$
