CLF.pdb
     RDKit          3D

 26 26  0  0  1  0  0  0  0  0999 V2000
   21.0984  -30.5646  -16.2839 N   0  0  0  0  0  0  0  0  0  0  0  0
   21.7606  -29.6147  -17.1424 C   0  0  1  0  0  0  0  0  0  0  0  0
   20.8771  -28.4100  -17.3831 C   0  0  0  0  0  0  0  0  0  0  0  0
   20.4988  -27.6719  -15.7703 S   0  0  0  0  0  0  0  0  0  0  0  0
   23.0607  -29.2645  -16.5720 C   0  0  0  0  0  0  0  0  0  0  0  0
   23.3457  -29.3677  -15.3475 O   0  0  0  0  0  0  0  0  0  0  0  0
   27.2558  -30.4026  -15.7485 C   0  0  0  0  0  0  0  0  0  0  0  0
   26.7925  -30.4278  -17.1664 C   0  0  2  0  0  0  0  0  0  0  0  0
   27.9225  -30.9825  -18.0151 C   0  0  0  0  0  0  0  0  0  0  0  0
   26.4370  -29.0890  -17.7209 C   0  0  0  0  0  0  0  0  0  0  0  0
   25.3825  -28.3637  -16.9176 C   0  0  2  0  0  0  0  0  0  0  0  0
   24.0878  -28.7775  -17.4065 N   0  0  0  0  0  0  0  0  0  0  0  0
   25.5669  -26.9158  -17.1824 C   0  0  0  0  0  0  0  0  0  0  0  0
   25.1902  -26.4636  -18.2871 O   0  0  0  0  0  0  0  0  0  0  0  0
   26.1503  -26.0574  -16.2246 N   0  0  0  0  0  0  0  0  0  0  0  0
   26.3683  -24.6207  -16.4422 C   0  0  1  0  0  0  0  0  0  0  0  0
   25.8824  -23.8940  -15.2430 C   0  0  0  0  0  0  0  0  0  0  0  0
   24.4342  -24.0707  -15.0690 C   0  0  0  0  0  0  0  0  0  0  0  0
   23.9007  -25.0872  -14.3145 C   0  0  0  0  0  0  0  0  0  0  0  0
   22.5281  -25.2273  -14.1632 C   0  0  0  0  0  0  0  0  0  0  0  0
   21.6898  -24.3257  -14.7848 C   0  0  0  0  0  0  0  0  0  0  0  0
   22.2085  -23.2981  -15.5469 C   0  0  0  0  0  0  0  0  0  0  0  0
   23.5801  -23.1638  -15.6939 C   0  0  0  0  0  0  0  0  0  0  0  0
   27.7837  -24.3450  -16.7517 C   0  0  0  0  0  0  0  0  0  0  0  0
   28.1005  -23.1333  -17.3976 O   0  0  0  0  0  0  0  0  0  0  0  0
   28.7276  -25.1086  -16.4816 O   0  0  0  0  0  0  0  0  0  0  0  0
  2  5  1  0
  2  1  1  1
  3  2  1  0
  4  3  1  0
  5  6  2  0
  8  7  1  1
  8  9  1  0
 10  8  1  0
 11 10  1  6
 12 11  1  0
 12  5  1  0
 13 11  1  0
 13 14  2  0
 15 13  1  0
 16 15  1  0
 16 24  1  0
 16 17  1  1
 18 19  2  0
 18 17  1  0
 20 19  1  0
 21 20  2  0
 22 21  1  0
 22 23  2  0
 23 18  1  0
 24 26  2  0
 24 25  1  0
M  END
$$$$
