CLF.pdb
     RDKit          3D

 26 26  0  0  1  0  0  0  0  0999 V2000
   29.0733  -21.9566  -17.0753 N   0  0  0  0  0  0  0  0  0  0  0  0
   27.6801  -21.6780  -17.3180 C   0  0  1  0  0  0  0  0  0  0  0  0
   26.8959  -22.9654  -17.4501 C   0  0  0  0  0  0  0  0  0  0  0  0
   27.7996  -24.0476  -18.5907 S   0  0  0  0  0  0  0  0  0  0  0  0
   27.1667  -20.8021  -16.2656 C   0  0  0  0  0  0  0  0  0  0  0  0
   27.7770  -20.5590  -15.1888 O   0  0  0  0  0  0  0  0  0  0  0  0
   23.6561  -15.8482  -16.1513 C   0  0  0  0  0  0  0  0  0  0  0  0
   24.4345  -16.8822  -15.4094 C   0  0  2  0  0  0  0  0  0  0  0  0
   25.6212  -16.1936  -14.7595 C   0  0  0  0  0  0  0  0  0  0  0  0
   24.9725  -17.9790  -16.2663 C   0  0  0  0  0  0  0  0  0  0  0  0
   25.3875  -19.2052  -15.4870 C   0  0  2  0  0  0  0  0  0  0  0  0
   25.9162  -20.1698  -16.4234 N   0  0  0  0  0  0  0  0  0  0  0  0
   24.1565  -19.7503  -14.8640 C   0  0  0  0  0  0  0  0  0  0  0  0
   23.6326  -19.1067  -13.9271 O   0  0  0  0  0  0  0  0  0  0  0  0
   23.5789  -20.9616  -15.3046 N   0  0  0  0  0  0  0  0  0  0  0  0
   22.3360  -21.5200  -14.7548 C   0  0  1  0  0  0  0  0  0  0  0  0
   22.6063  -21.9667  -13.3658 C   0  0  0  0  0  0  0  0  0  0  0  0
   21.4353  -22.6430  -12.7910 C   0  0  0  0  0  0  0  0  0  0  0  0
   21.1629  -23.9696  -13.0217 C   0  0  0  0  0  0  0  0  0  0  0  0
   20.0517  -24.5843  -12.4615 C   0  0  0  0  0  0  0  0  0  0  0  0
   19.2092  -23.8436  -11.6594 C   0  0  0  0  0  0  0  0  0  0  0  0
   19.4673  -22.5092  -11.4169 C   0  0  0  0  0  0  0  0  0  0  0  0
   20.5788  -21.9015  -11.9793 C   0  0  0  0  0  0  0  0  0  0  0  0
   21.2359  -20.5419  -14.8443 C   0  0  0  0  0  0  0  0  0  0  0  0
   20.0227  -20.9555  -15.4300 O   0  0  0  0  0  0  0  0  0  0  0  0
   21.2989  -19.3685  -14.4365 O   0  0  0  0  0  0  0  0  0  0  0  0
  2  5  1  0
  2  1  1  1
  3  2  1  0
  4  3  1  0
  5  6  2  0
  8  7  1  6
  8  9  1  0
 10  8  1  0
 11 10  1  6
 12 11  1  0
 12  5  1  0
 13 11  1  0
 13 14  2  0
 15 13  1  0
 16 15  1  0
 16 24  1  0
 16 17  1  1
 18 19  2  0
 18 17  1  0
 20 19  1  0
 21 20  2  0
 22 21  1  0
 22 23  2  0
 23 18  1  0
 24 26  2  0
 24 25  1  0
M  END
$$$$
