CLF.pdb
     RDKit          3D

 26 26  0  0  1  0  0  0  0  0999 V2000
   28.5283  -35.7870    2.3857 N   0  0  0  0  0  0  0  0  0  0  0  0
   28.4922  -34.4697    2.9696 C   0  0  1  0  0  0  0  0  0  0  0  0
   27.6571  -33.5352    2.1216 C   0  0  0  0  0  0  0  0  0  0  0  0
   28.5547  -33.2448    0.5727 S   0  0  0  0  0  0  0  0  0  0  0  0
   28.0220  -34.5607    4.3512 C   0  0  0  0  0  0  0  0  0  0  0  0
   27.1387  -35.3707    4.7448 O   0  0  0  0  0  0  0  0  0  0  0  0
   29.3079  -35.5352    8.8172 C   0  0  0  0  0  0  0  0  0  0  0  0
   30.0972  -34.5444    8.0295 C   0  0  2  0  0  0  0  0  0  0  0  0
   31.2215  -34.0363    8.9142 C   0  0  0  0  0  0  0  0  0  0  0  0
   29.3164  -33.3558    7.5776 C   0  0  0  0  0  0  0  0  0  0  0  0
   28.1274  -33.7077    6.7141 C   0  0  2  0  0  0  0  0  0  0  0  0
   28.5627  -33.7092    5.3367 N   0  0  0  0  0  0  0  0  0  0  0  0
   27.1255  -32.6314    6.9105 C   0  0  0  0  0  0  0  0  0  0  0  0
   27.4129  -31.4772    6.5210 O   0  0  0  0  0  0  0  0  0  0  0  0
   25.8767  -32.8860    7.5192 N   0  0  0  0  0  0  0  0  0  0  0  0
   24.8160  -31.8785    7.6569 C   0  0  1  0  0  0  0  0  0  0  0  0
   23.7377  -32.2097    6.6927 C   0  0  0  0  0  0  0  0  0  0  0  0
   24.1260  -31.8503    5.3219 C   0  0  0  0  0  0  0  0  0  0  0  0
   24.0242  -30.5684    4.8387 C   0  0  0  0  0  0  0  0  0  0  0  0
   24.4032  -30.2562    3.5404 C   0  0  0  0  0  0  0  0  0  0  0  0
   24.8900  -31.2566    2.7255 C   0  0  0  0  0  0  0  0  0  0  0  0
   24.9991  -32.5505    3.1943 C   0  0  0  0  0  0  0  0  0  0  0  0
   24.6189  -32.8554    4.4919 C   0  0  0  0  0  0  0  0  0  0  0  0
   24.3418  -31.8022    9.0513 C   0  0  0  0  0  0  0  0  0  0  0  0
   23.4024  -30.8051    9.3818 O   0  0  0  0  0  0  0  0  0  0  0  0
   24.7115  -32.5600    9.9657 O   0  0  0  0  0  0  0  0  0  0  0  0
  2  5  1  0
  2  1  1  6
  3  2  1  0
  4  3  1  0
  5  6  2  0
  8  7  1  1
  8  9  1  0
 10  8  1  0
 11 10  1  1
 12 11  1  0
 12  5  1  0
 13 11  1  0
 13 14  2  0
 15 13  1  0
 16 15  1  0
 16 24  1  0
 16 17  1  6
 18 19  2  0
 18 17  1  0
 20 19  1  0
 21 20  2  0
 22 21  1  0
 22 23  2  0
 23 18  1  0
 24 26  2  0
 24 25  1  0
M  END
$$$$
