AWL.pdb
     RDKit          3D

 28 29  0  0  1  0  0  0  0  0999 V2000
   39.0227  -27.5013    4.9692 C   0  0  0  0  0  0  0  0  0  0  0  0
   39.3335  -26.0432    5.1360 C   0  0  2  0  0  0  0  0  0  0  0  0
   40.6026  -25.8357    5.7912 N   0  0  0  0  0  0  0  0  0  0  0  0
   38.2163  -25.4022    5.8845 C   0  0  0  0  0  0  0  0  0  0  0  0
   38.1482  -25.4851    7.1369 O   0  0  0  0  0  0  0  0  0  0  0  0
   37.1823  -24.6736    5.2345 N   0  0  0  0  0  0  0  0  0  0  0  0
   36.1847  -23.9330    5.9731 C   0  0  1  0  0  0  0  0  0  0  0  0
   35.3494  -23.0323    5.1021 C   0  0  0  0  0  0  0  0  0  0  0  0
   34.3568  -22.2556    5.8675 C   0  0  0  0  0  0  0  0  0  0  0  0
   34.4013  -21.9347    7.2033 C   0  0  0  0  0  0  0  0  0  0  0  0
   33.2992  -21.2173    7.4974 N   0  0  0  0  0  0  0  0  0  0  0  0
   32.5282  -21.0485    6.4199 C   0  0  0  0  0  0  0  0  0  0  0  0
   31.3291  -20.4037    6.2159 C   0  0  0  0  0  0  0  0  0  0  0  0
   30.7690  -20.4047    4.9556 C   0  0  0  0  0  0  0  0  0  0  0  0
   31.4278  -21.0590    3.9111 C   0  0  0  0  0  0  0  0  0  0  0  0
   32.6287  -21.7033    4.1212 C   0  0  0  0  0  0  0  0  0  0  0  0
   33.1915  -21.7039    5.3815 C   0  0  0  0  0  0  0  0  0  0  0  0
   35.2922  -24.9057    6.6507 C   0  0  0  0  0  0  0  0  0  0  0  0
   35.1054  -26.0481    6.1288 O   0  0  0  0  0  0  0  0  0  0  0  0
   33.7227  -28.8094    8.9665 C   0  0  0  0  0  0  0  0  0  0  0  0
   34.6013  -27.8806    9.8769 C   0  0  1  0  0  0  0  0  0  0  0  0
   35.7753  -28.7955   10.2293 C   0  0  0  0  0  0  0  0  0  0  0  0
   34.9633  -26.7243    9.0221 C   0  0  0  0  0  0  0  0  0  0  0  0
   33.9430  -25.7264    8.6408 C   0  0  2  0  0  0  0  0  0  0  0  0
   34.6267  -24.6436    7.8550 N   0  0  0  0  0  0  0  0  0  0  0  0
   33.1680  -25.0510    9.6661 C   0  0  0  0  0  0  0  0  0  0  0  0
   31.8476  -25.3383    9.9210 O   0  0  0  0  0  0  0  0  0  0  0  0
   33.6620  -24.1271   10.4071 O   0  0  0  0  0  0  0  0  0  0  0  0
  2  1  1  1
  2  3  1  0
  4  5  2  0
  4  2  1  0
  6  4  1  0
  7  6  1  0
  7  8  1  6
  9  8  1  0
  9 17  1  0
 10 11  1  0
 10  9  2  0
 11 12  1  0
 12 13  1  0
 12 17  2  0
 13 14  2  0
 14 15  1  0
 16 15  2  0
 17 16  1  0
 18 19  2  0
 18  7  1  0
 21 20  1  6
 21 23  1  0
 21 22  1  0
 24 23  1  1
 24 25  1  0
 25 18  1  0
 26 24  1  0
 27 26  1  0
 28 26  2  0
M  END
$$$$
