AWL.pdb
     RDKit          3D

 28 29  0  0  1  0  0  0  0  0999 V2000
   28.9305  -37.6338  -17.0713 C   0  0  0  0  0  0  0  0  0  0  0  0
   29.9982  -36.8670  -16.3484 C   0  0  2  0  0  0  0  0  0  0  0  0
   30.7904  -37.7214  -15.4967 N   0  0  0  0  0  0  0  0  0  0  0  0
   29.3537  -35.7669  -15.5782 C   0  0  0  0  0  0  0  0  0  0  0  0
   29.1349  -35.8849  -14.3460 O   0  0  0  0  0  0  0  0  0  0  0  0
   28.9566  -34.5430  -16.1839 N   0  0  0  0  0  0  0  0  0  0  0  0
   28.4757  -33.4230  -15.4070 C   0  0  1  0  0  0  0  0  0  0  0  0
   28.7644  -32.0904  -16.0463 C   0  0  0  0  0  0  0  0  0  0  0  0
   30.2022  -31.8715  -16.2890 C   0  0  0  0  0  0  0  0  0  0  0  0
   31.2534  -32.5831  -15.7617 C   0  0  0  0  0  0  0  0  0  0  0  0
   32.3970  -32.0550  -16.2400 N   0  0  0  0  0  0  0  0  0  0  0  0
   32.1524  -31.0282  -17.0585 C   0  0  0  0  0  0  0  0  0  0  0  0
   32.9702  -30.1854  -17.7767 C   0  0  0  0  0  0  0  0  0  0  0  0
   32.4038  -29.1950  -18.5515 C   0  0  0  0  0  0  0  0  0  0  0  0
   31.0129  -29.0657  -18.5930 C   0  0  0  0  0  0  0  0  0  0  0  0
   30.1985  -29.9128  -17.8715 C   0  0  0  0  0  0  0  0  0  0  0  0
   30.7627  -30.9049  -17.0953 C   0  0  0  0  0  0  0  0  0  0  0  0
   27.0080  -33.5678  -15.2439 C   0  0  0  0  0  0  0  0  0  0  0  0
   26.3025  -33.9203  -16.2391 O   0  0  0  0  0  0  0  0  0  0  0  0
   22.8707  -35.6598  -15.7446 C   0  0  0  0  0  0  0  0  0  0  0  0
   23.4060  -35.7766  -14.2739 C   0  0  1  0  0  0  0  0  0  0  0  0
   23.4467  -37.2916  -14.0672 C   0  0  0  0  0  0  0  0  0  0  0  0
   24.7386  -35.1264  -14.2899 C   0  0  0  0  0  0  0  0  0  0  0  0
   24.8945  -33.7271  -13.8432 C   0  0  2  0  0  0  0  0  0  0  0  0
   26.3321  -33.3370  -14.0390 N   0  0  0  0  0  0  0  0  0  0  0  0
   24.5598  -33.3578  -12.4795 C   0  0  0  0  0  0  0  0  0  0  0  0
   23.2665  -33.1953  -12.0412 O   0  0  0  0  0  0  0  0  0  0  0  0
   25.4535  -33.1487  -11.5828 O   0  0  0  0  0  0  0  0  0  0  0  0
  2  1  1  1
  2  3  1  0
  4  5  2  0
  4  2  1  0
  6  4  1  0
  7  6  1  0
  7  8  1  6
  9  8  1  0
  9 17  1  0
 10 11  1  0
 10  9  2  0
 11 12  1  0
 12 13  1  0
 12 17  2  0
 13 14  2  0
 14 15  1  0
 16 15  2  0
 17 16  1  0
 18 19  2  0
 18  7  1  0
 21 20  1  6
 21 23  1  0
 21 22  1  0
 24 23  1  1
 24 25  1  0
 25 18  1  0
 26 24  1  0
 27 26  1  0
 28 26  2  0
M  END
$$$$
