AWL.pdb
     RDKit          3D

 28 29  0  0  1  0  0  0  0  0999 V2000
   27.5243  -20.5359  -15.7324 C   0  0  0  0  0  0  0  0  0  0  0  0
   28.2001  -21.1750  -14.5554 C   0  0  2  0  0  0  0  0  0  0  0  0
   28.8978  -22.3827  -14.9267 N   0  0  0  0  0  0  0  0  0  0  0  0
   27.1780  -21.4314  -13.5025 C   0  0  0  0  0  0  0  0  0  0  0  0
   26.4273  -22.4377  -13.5642 O   0  0  0  0  0  0  0  0  0  0  0  0
   26.9976  -20.5663  -12.3883 N   0  0  0  0  0  0  0  0  0  0  0  0
   26.0436  -20.8529  -11.3409 C   0  0  1  0  0  0  0  0  0  0  0  0
   26.3123  -20.0918  -10.0696 C   0  0  0  0  0  0  0  0  0  0  0  0
   27.4721  -20.6142   -9.3239 C   0  0  0  0  0  0  0  0  0  0  0  0
   28.4949  -21.3915   -9.8130 C   0  0  0  0  0  0  0  0  0  0  0  0
   29.3461  -21.6472   -8.8003 N   0  0  0  0  0  0  0  0  0  0  0  0
   28.9352  -21.0761   -7.6649 C   0  0  0  0  0  0  0  0  0  0  0  0
   29.4508  -21.0479   -6.3887 C   0  0  0  0  0  0  0  0  0  0  0  0
   28.7779  -20.3538   -5.4051 C   0  0  0  0  0  0  0  0  0  0  0  0
   27.5877  -19.6933   -5.7216 C   0  0  0  0  0  0  0  0  0  0  0  0
   27.0759  -19.7249   -7.0016 C   0  0  0  0  0  0  0  0  0  0  0  0
   27.7472  -20.4188   -7.9880 C   0  0  0  0  0  0  0  0  0  0  0  0
   24.6908  -20.4965  -11.8355 C   0  0  0  0  0  0  0  0  0  0  0  0
   24.4915  -19.3431  -12.3278 O   0  0  0  0  0  0  0  0  0  0  0  0
   22.0883  -23.2008  -15.5427 C   0  0  0  0  0  0  0  0  0  0  0  0
   22.5655  -21.9142  -14.7810 C   0  0  1  0  0  0  0  0  0  0  0  0
   22.0025  -20.7952  -15.6588 C   0  0  0  0  0  0  0  0  0  0  0  0
   21.9483  -22.0045  -13.4359 C   0  0  0  0  0  0  0  0  0  0  0  0
   22.2655  -21.0027  -12.3977 C   0  0  2  0  0  0  0  0  0  0  0  0
   23.5933  -21.3658  -11.7956 N   0  0  0  0  0  0  0  0  0  0  0  0
   21.3594  -20.8010  -11.2812 C   0  0  0  0  0  0  0  0  0  0  0  0
   20.2670  -19.9680  -11.3415 O   0  0  0  0  0  0  0  0  0  0  0  0
   21.5192  -21.3845  -10.1496 O   0  0  0  0  0  0  0  0  0  0  0  0
  2  1  1  6
  2  3  1  0
  4  5  2  0
  4  2  1  0
  6  4  1  0
  7  6  1  0
  7  8  1  1
  9  8  1  0
  9 17  1  0
 10 11  1  0
 10  9  2  0
 11 12  1  0
 12 13  1  0
 12 17  2  0
 13 14  2  0
 14 15  1  0
 16 15  2  0
 17 16  1  0
 18 19  2  0
 18  7  1  0
 21 20  1  6
 21 23  1  0
 21 22  1  0
 24 23  1  6
 24 25  1  0
 25 18  1  0
 26 24  1  0
 27 26  1  0
 28 26  2  0
M  END
$$$$
