AWL.pdb
     RDKit          3D

 28 29  0  0  1  0  0  0  0  0999 V2000
   27.3845  -19.5637  -15.0590 C   0  0  0  0  0  0  0  0  0  0  0  0
   28.1128  -20.7387  -14.4764 C   0  0  2  0  0  0  0  0  0  0  0  0
   28.1483  -21.8557  -15.3897 N   0  0  0  0  0  0  0  0  0  0  0  0
   27.4676  -21.1043  -13.1844 C   0  0  0  0  0  0  0  0  0  0  0  0
   26.5359  -21.9471  -13.1449 O   0  0  0  0  0  0  0  0  0  0  0  0
   27.8631  -20.5295  -11.9453 N   0  0  0  0  0  0  0  0  0  0  0  0
   27.1508  -20.7927  -10.7153 C   0  0  1  0  0  0  0  0  0  0  0  0
   27.8593  -20.2659   -9.4954 C   0  0  0  0  0  0  0  0  0  0  0  0
   27.0756  -20.4399   -8.2586 C   0  0  0  0  0  0  0  0  0  0  0  0
   25.8152  -20.9754   -8.1400 C   0  0  0  0  0  0  0  0  0  0  0  0
   25.4704  -20.9476   -6.8377 N   0  0  0  0  0  0  0  0  0  0  0  0
   26.4426  -20.4194   -6.0894 C   0  0  0  0  0  0  0  0  0  0  0  0
   26.5629  -20.1816   -4.7388 C   0  0  0  0  0  0  0  0  0  0  0  0
   27.7207  -19.6088   -4.2557 C   0  0  0  0  0  0  0  0  0  0  0  0
   28.7482  -19.2810   -5.1445 C   0  0  0  0  0  0  0  0  0  0  0  0
   28.6222  -19.5214   -6.4964 C   0  0  0  0  0  0  0  0  0  0  0  0
   27.4646  -20.0946   -6.9827 C   0  0  0  0  0  0  0  0  0  0  0  0
   25.8151  -20.1529  -10.8069 C   0  0  0  0  0  0  0  0  0  0  0  0
   25.7363  -18.9015  -11.0072 O   0  0  0  0  0  0  0  0  0  0  0  0
   22.4328  -19.3347  -14.3682 C   0  0  0  0  0  0  0  0  0  0  0  0
   22.0015  -20.5372  -13.4565 C   0  0  1  0  0  0  0  0  0  0  0  0
   21.6418  -21.6081  -14.4878 C   0  0  0  0  0  0  0  0  0  0  0  0
   23.1958  -20.8550  -12.6373 C   0  0  0  0  0  0  0  0  0  0  0  0
   23.3220  -20.3301  -11.2622 C   0  0  2  0  0  0  0  0  0  0  0  0
   24.6073  -20.8516  -10.6848 N   0  0  0  0  0  0  0  0  0  0  0  0
   22.2937  -20.6160  -10.2779 C   0  0  0  0  0  0  0  0  0  0  0  0
   21.1963  -19.8106  -10.0825 O   0  0  0  0  0  0  0  0  0  0  0  0
   22.3403  -21.6435   -9.5108 O   0  0  0  0  0  0  0  0  0  0  0  0
  2  1  1  6
  2  3  1  0
  4  5  2  0
  4  2  1  0
  6  4  1  0
  7  6  1  0
  7  8  1  1
  9  8  1  0
  9 17  1  0
 10 11  1  0
 10  9  2  0
 11 12  1  0
 12 13  1  0
 12 17  2  0
 13 14  2  0
 14 15  1  0
 16 15  2  0
 17 16  1  0
 18 19  2  0
 18  7  1  0
 21 20  1  6
 21 23  1  0
 21 22  1  0
 24 23  1  6
 24 25  1  0
 25 18  1  0
 26 24  1  0
 27 26  1  0
 28 26  2  0
M  END
$$$$
