AWL.pdb
     RDKit          3D

 28 29  0  0  1  0  0  0  0  0999 V2000
   30.0002  -20.4419  -12.7123 C   0  0  0  0  0  0  0  0  0  0  0  0
   30.2119  -20.7704  -11.2639 C   0  0  2  0  0  0  0  0  0  0  0  0
   31.1832  -21.8233  -11.0881 N   0  0  0  0  0  0  0  0  0  0  0  0
   28.8974  -21.1278  -10.6611 C   0  0  0  0  0  0  0  0  0  0  0  0
   28.5810  -22.3293  -10.4703 O   0  0  0  0  0  0  0  0  0  0  0  0
   27.9436  -20.1462  -10.2749 N   0  0  0  0  0  0  0  0  0  0  0  0
   26.6574  -20.5027   -9.7201 C   0  0  1  0  0  0  0  0  0  0  0  0
   26.1796  -19.5406   -8.6648 C   0  0  0  0  0  0  0  0  0  0  0  0
   27.1531  -19.3595   -7.5723 C   0  0  0  0  0  0  0  0  0  0  0  0
   28.1262  -18.3935   -7.4758 C   0  0  0  0  0  0  0  0  0  0  0  0
   28.7950  -18.5880   -6.3224 N   0  0  0  0  0  0  0  0  0  0  0  0
   28.3107  -19.6365   -5.6514 C   0  0  0  0  0  0  0  0  0  0  0  0
   28.6495  -20.2205   -4.4517 C   0  0  0  0  0  0  0  0  0  0  0  0
   27.9432  -21.3215   -4.0147 C   0  0  0  0  0  0  0  0  0  0  0  0
   26.8989  -21.8228   -4.7964 C   0  0  0  0  0  0  0  0  0  0  0  0
   26.5638  -21.2339   -5.9973 C   0  0  0  0  0  0  0  0  0  0  0  0
   27.2689  -20.1318   -6.4370 C   0  0  0  0  0  0  0  0  0  0  0  0
   25.6675  -20.5314  -10.8251 C   0  0  0  0  0  0  0  0  0  0  0  0
   25.7378  -19.6611  -11.7471 O   0  0  0  0  0  0  0  0  0  0  0  0
   23.4629  -23.0787  -14.8773 C   0  0  0  0  0  0  0  0  0  0  0  0
   22.6357  -23.3575  -13.5729 C   0  0  1  0  0  0  0  0  0  0  0  0
   22.3731  -24.8609  -13.6755 C   0  0  0  0  0  0  0  0  0  0  0  0
   23.5271  -22.9682  -12.4538 C   0  0  0  0  0  0  0  0  0  0  0  0
   23.7288  -21.5439  -12.1177 C   0  0  2  0  0  0  0  0  0  0  0  0
   24.6372  -21.4753  -10.9230 N   0  0  0  0  0  0  0  0  0  0  0  0
   22.5879  -20.7024  -11.8043 C   0  0  0  0  0  0  0  0  0  0  0  0
   21.8139  -20.0975  -12.7666 O   0  0  0  0  0  0  0  0  0  0  0  0
   22.2232  -20.4563  -10.5990 O   0  0  0  0  0  0  0  0  0  0  0  0
  2  1  1  6
  2  3  1  0
  4  5  2  0
  4  2  1  0
  6  4  1  0
  7  6  1  0
  7  8  1  1
  9  8  1  0
  9 17  1  0
 10 11  1  0
 10  9  2  0
 11 12  1  0
 12 13  1  0
 12 17  2  0
 13 14  2  0
 14 15  1  0
 16 15  2  0
 17 16  1  0
 18 19  2  0
 18  7  1  0
 21 20  1  6
 21 23  1  0
 21 22  1  0
 24 23  1  1
 24 25  1  0
 25 18  1  0
 26 24  1  0
 27 26  1  0
 28 26  2  0
M  END
$$$$
