AWL.pdb
     RDKit          3D

 28 29  0  0  1  0  0  0  0  0999 V2000
   27.7095  -19.5982  -15.2303 C   0  0  0  0  0  0  0  0  0  0  0  0
   28.3871  -20.7740  -14.5907 C   0  0  2  0  0  0  0  0  0  0  0  0
   28.4578  -21.9051  -15.4843 N   0  0  0  0  0  0  0  0  0  0  0  0
   27.6651  -21.1111  -13.3320 C   0  0  0  0  0  0  0  0  0  0  0  0
   26.6190  -21.8075  -13.3556 O   0  0  0  0  0  0  0  0  0  0  0  0
   28.1117  -20.6709  -12.0556 N   0  0  0  0  0  0  0  0  0  0  0  0
   27.3549  -20.9208  -10.8497 C   0  0  1  0  0  0  0  0  0  0  0  0
   28.0811  -20.5062   -9.5973 C   0  0  0  0  0  0  0  0  0  0  0  0
   27.2572  -20.6521   -8.3832 C   0  0  0  0  0  0  0  0  0  0  0  0
   26.0063  -21.2139   -8.2884 C   0  0  0  0  0  0  0  0  0  0  0  0
   25.6138  -21.1447   -7.0012 N   0  0  0  0  0  0  0  0  0  0  0  0
   26.5454  -20.5641   -6.2403 C   0  0  0  0  0  0  0  0  0  0  0  0
   26.6109  -20.2717   -4.8966 C   0  0  0  0  0  0  0  0  0  0  0  0
   27.7365  -19.6520   -4.3957 C   0  0  0  0  0  0  0  0  0  0  0  0
   28.7876  -19.3331   -5.2597 C   0  0  0  0  0  0  0  0  0  0  0  0
   28.7166  -19.6283   -6.6048 C   0  0  0  0  0  0  0  0  0  0  0  0
   27.5913  -20.2484   -7.1088 C   0  0  0  0  0  0  0  0  0  0  0  0
   26.0809  -20.1651  -10.9368 C   0  0  0  0  0  0  0  0  0  0  0  0
   26.1075  -18.9320  -11.2384 O   0  0  0  0  0  0  0  0  0  0  0  0
   23.3190  -19.5716  -15.1037 C   0  0  0  0  0  0  0  0  0  0  0  0
   22.6966  -19.5930  -13.6630 C   0  0  1  0  0  0  0  0  0  0  0  0
   21.5274  -20.5644  -13.8338 C   0  0  0  0  0  0  0  0  0  0  0  0
   23.7776  -20.0882  -12.7772 C   0  0  0  0  0  0  0  0  0  0  0  0
   23.5690  -20.1745  -11.3174 C   0  0  2  0  0  0  0  0  0  0  0  0
   24.8217  -20.7327  -10.7038 N   0  0  0  0  0  0  0  0  0  0  0  0
   22.4737  -20.9651  -10.7851 C   0  0  0  0  0  0  0  0  0  0  0  0
   21.2281  -20.4437  -10.5248 O   0  0  0  0  0  0  0  0  0  0  0  0
   22.5936  -22.2130  -10.5116 O   0  0  0  0  0  0  0  0  0  0  0  0
  2  1  1  6
  2  3  1  0
  4  5  2  0
  4  2  1  0
  6  4  1  0
  7  6  1  0
  7  8  1  1
  9  8  1  0
  9 17  1  0
 10 11  1  0
 10  9  2  0
 11 12  1  0
 12 13  1  0
 12 17  2  0
 13 14  2  0
 14 15  1  0
 16 15  2  0
 17 16  1  0
 18 19  2  0
 18  7  1  0
 21 20  1  6
 21 23  1  0
 21 22  1  0
 24 23  1  6
 24 25  1  0
 25 18  1  0
 26 24  1  0
 27 26  1  0
 28 26  2  0
M  END
$$$$
