AWL.pdb
     RDKit          3D

 28 29  0  0  1  0  0  0  0  0999 V2000
   27.0608  -20.0203  -15.3057 C   0  0  0  0  0  0  0  0  0  0  0  0
   27.7203  -21.0858  -14.4810 C   0  0  2  0  0  0  0  0  0  0  0  0
   27.7693  -22.3499  -15.1758 N   0  0  0  0  0  0  0  0  0  0  0  0
   26.9964  -21.1983  -13.1839 C   0  0  0  0  0  0  0  0  0  0  0  0
   26.0188  -21.9781  -13.0567 O   0  0  0  0  0  0  0  0  0  0  0  0
   27.3649  -20.4423  -12.0371 N   0  0  0  0  0  0  0  0  0  0  0  0
   26.6671  -20.5693  -10.7776 C   0  0  1  0  0  0  0  0  0  0  0  0
   27.2979  -19.7713   -9.6672 C   0  0  0  0  0  0  0  0  0  0  0  0
   26.8147  -20.1678   -8.3317 C   0  0  0  0  0  0  0  0  0  0  0  0
   25.6907  -20.9021   -8.0371 C   0  0  0  0  0  0  0  0  0  0  0  0
   25.6188  -21.0367   -6.6983 N   0  0  0  0  0  0  0  0  0  0  0  0
   26.6415  -20.4266   -6.0935 C   0  0  0  0  0  0  0  0  0  0  0  0
   27.0015  -20.2858   -4.7722 C   0  0  0  0  0  0  0  0  0  0  0  0
   28.1439  -19.5807   -4.4563 C   0  0  0  0  0  0  0  0  0  0  0  0
   28.9133  -19.0235   -5.4813 C   0  0  0  0  0  0  0  0  0  0  0  0
   28.5480  -19.1677   -6.8031 C   0  0  0  0  0  0  0  0  0  0  0  0
   27.4051  -19.8728   -7.1221 C   0  0  0  0  0  0  0  0  0  0  0  0
   25.2724  -20.1013  -10.9709 C   0  0  0  0  0  0  0  0  0  0  0  0
   25.0598  -18.8890  -11.2832 O   0  0  0  0  0  0  0  0  0  0  0  0
   22.7066  -21.3948  -15.0125 C   0  0  0  0  0  0  0  0  0  0  0  0
   23.0729  -20.4288  -13.8310 C   0  0  1  0  0  0  0  0  0  0  0  0
   22.3463  -19.1436  -14.2312 C   0  0  0  0  0  0  0  0  0  0  0  0
   22.5353  -21.0801  -12.6123 C   0  0  0  0  0  0  0  0  0  0  0  0
   22.7812  -20.4933  -11.2791 C   0  0  2  0  0  0  0  0  0  0  0  0
   24.1482  -20.9248  -10.8293 N   0  0  0  0  0  0  0  0  0  0  0  0
   21.8831  -20.7898  -10.1775 C   0  0  0  0  0  0  0  0  0  0  0  0
   20.7362  -20.0728   -9.9295 O   0  0  0  0  0  0  0  0  0  0  0  0
   22.1014  -21.7440   -9.3479 O   0  0  0  0  0  0  0  0  0  0  0  0
  2  1  1  6
  2  3  1  0
  4  5  2  0
  4  2  1  0
  6  4  1  0
  7  6  1  0
  7  8  1  1
  9  8  1  0
  9 17  1  0
 10 11  1  0
 10  9  2  0
 11 12  1  0
 12 13  1  0
 12 17  2  0
 13 14  2  0
 14 15  1  0
 16 15  2  0
 17 16  1  0
 18 19  2  0
 18  7  1  0
 21 20  1  6
 21 23  1  0
 21 22  1  0
 24 23  1  6
 24 25  1  0
 25 18  1  0
 26 24  1  0
 27 26  1  0
 28 26  2  0
M  END
$$$$
