AWL.pdb
     RDKit          3D

 28 29  0  0  1  0  0  0  0  0999 V2000
   27.0856  -22.0705  -17.1707 C   0  0  0  0  0  0  0  0  0  0  0  0
   27.7613  -22.6565  -15.9664 C   0  0  2  0  0  0  0  0  0  0  0  0
   28.0550  -24.0584  -16.1438 N   0  0  0  0  0  0  0  0  0  0  0  0
   26.8974  -22.4214  -14.7758 C   0  0  0  0  0  0  0  0  0  0  0  0
   26.1177  -23.3147  -14.3586 O   0  0  0  0  0  0  0  0  0  0  0  0
   26.9065  -21.1940  -14.0577 N   0  0  0  0  0  0  0  0  0  0  0  0
   26.1651  -21.0182  -12.8294 C   0  0  1  0  0  0  0  0  0  0  0  0
   26.7830  -20.0037  -11.9038 C   0  0  0  0  0  0  0  0  0  0  0  0
   27.8068  -20.5867  -11.0172 C   0  0  0  0  0  0  0  0  0  0  0  0
   28.9599  -21.2351  -11.3905 C   0  0  0  0  0  0  0  0  0  0  0  0
   29.6099  -21.6092  -10.2710 N   0  0  0  0  0  0  0  0  0  0  0  0
   28.9417  -21.2391   -9.1753 C   0  0  0  0  0  0  0  0  0  0  0  0
   29.1907  -21.3881   -7.8295 C   0  0  0  0  0  0  0  0  0  0  0  0
   28.2876  -20.8840   -6.9171 C   0  0  0  0  0  0  0  0  0  0  0  0
   27.1390  -20.2327   -7.3748 C   0  0  0  0  0  0  0  0  0  0  0  0
   26.8947  -20.0864   -8.7240 C   0  0  0  0  0  0  0  0  0  0  0  0
   27.7968  -20.5899   -9.6393 C   0  0  0  0  0  0  0  0  0  0  0  0
   24.7917  -20.5760  -13.1759 C   0  0  0  0  0  0  0  0  0  0  0  0
   24.6341  -19.5888  -13.9588 O   0  0  0  0  0  0  0  0  0  0  0  0
   20.8941  -23.5757  -15.2182 C   0  0  0  0  0  0  0  0  0  0  0  0
   21.8021  -22.3124  -15.0112 C   0  0  1  0  0  0  0  0  0  0  0  0
   21.3018  -21.3748  -16.1113 C   0  0  0  0  0  0  0  0  0  0  0  0
   21.5146  -21.8456  -13.6336 C   0  0  0  0  0  0  0  0  0  0  0  0
   22.2571  -20.7050  -13.0591 C   0  0  2  0  0  0  0  0  0  0  0  0
   23.6303  -21.1879  -12.6872 N   0  0  0  0  0  0  0  0  0  0  0  0
   21.7418  -20.0176  -11.8886 C   0  0  0  0  0  0  0  0  0  0  0  0
   20.6943  -19.1282  -11.9404 O   0  0  0  0  0  0  0  0  0  0  0  0
   22.2354  -20.1874  -10.7165 O   0  0  0  0  0  0  0  0  0  0  0  0
  2  1  1  6
  2  3  1  0
  4  5  2  0
  4  2  1  0
  6  4  1  0
  7  6  1  0
  7  8  1  1
  9  8  1  0
  9 17  1  0
 10 11  1  0
 10  9  2  0
 11 12  1  0
 12 13  1  0
 12 17  2  0
 13 14  2  0
 14 15  1  0
 16 15  2  0
 17 16  1  0
 18 19  2  0
 18  7  1  0
 21 20  1  6
 21 23  1  0
 21 22  1  0
 24 23  1  1
 24 25  1  0
 25 18  1  0
 26 24  1  0
 27 26  1  0
 28 26  2  0
M  END
$$$$
