GPM.pdb
     RDKit          3D

 20 20  0  0  1  0  0  0  0  0999 V2000
   28.8276  -22.0185  -15.3453 N   0  0  0  0  0  0  0  0  0  0  0  0
   27.4870  -22.1175  -14.9194 C   0  0  0  0  0  0  0  0  0  0  0  0
   26.9962  -21.2235  -13.8925 C   0  0  0  0  0  0  0  0  0  0  0  0
   27.8745  -20.8753  -13.0095 O   0  0  0  0  0  0  0  0  0  0  0  0
   25.7241  -20.6943  -13.7297 N   0  0  0  0  0  0  0  0  0  0  0  0
   24.7629  -20.4174  -14.7748 C   0  0  0  0  0  0  0  0  0  0  0  0
   23.5308  -21.1660  -14.2290 C   0  0  0  0  0  0  0  0  0  0  0  0
   23.6271  -20.8341  -12.7592 C   0  0  0  0  0  0  0  0  0  0  0  0
   25.0162  -20.3104  -12.5140 C   0  0  1  0  0  0  0  0  0  0  0  0
   25.5686  -20.7881  -11.2659 C   0  0  0  0  0  0  0  0  0  0  0  0
   25.8529  -22.0277  -11.1061 O   0  0  0  0  0  0  0  0  0  0  0  0
   28.8821  -19.9034   -4.1692 C   0  0  0  0  0  0  0  0  0  0  0  0
   28.3853  -19.0489   -5.6884 S   0  0  0  0  0  0  0  0  0  0  0  0
   27.3859  -20.1979   -6.6775 C   0  0  0  0  0  0  0  0  0  0  0  0
   27.0226  -19.5618   -8.0124 C   0  0  0  0  0  0  0  0  0  0  0  0
   26.2405  -20.5519   -8.8474 C   0  0  2  0  0  0  0  0  0  0  0  0
   25.8472  -19.9839  -10.1201 N   0  0  0  0  0  0  0  0  0  0  0  0
   25.0202  -20.9856   -8.1414 C   0  0  0  0  0  0  0  0  0  0  0  0
   25.0833  -21.9935   -7.2054 O   0  0  0  0  0  0  0  0  0  0  0  0
   23.9137  -20.4461   -8.3813 O   0  0  0  0  0  0  0  0  0  0  0  0
  2  1  1  0
  3  2  1  0
  4  3  2  0
  5  9  1  0
  5  3  1  0
  6  5  1  0
  7  6  1  0
  7  8  1  0
  8  9  1  0
  9 10  1  1
 10 17  1  0
 10 11  2  0
 13 12  1  0
 14 15  1  0
 14 13  1  0
 16 15  1  1
 16 18  1  0
 17 16  1  0
 18 20  2  0
 18 19  1  0
M  END
$$$$
