GPM.pdb
     RDKit          3D

 20 20  0  0  1  0  0  0  0  0999 V2000
   26.3213  -23.4134  -16.8213 N   0  0  0  0  0  0  0  0  0  0  0  0
   26.0572  -22.1082  -16.3577 C   0  0  0  0  0  0  0  0  0  0  0  0
   26.6825  -21.6434  -15.1381 C   0  0  0  0  0  0  0  0  0  0  0  0
   26.8232  -22.5448  -14.2215 O   0  0  0  0  0  0  0  0  0  0  0  0
   27.1475  -20.3749  -14.8229 N   0  0  0  0  0  0  0  0  0  0  0  0
   27.5821  -19.3573  -15.7549 C   0  0  0  0  0  0  0  0  0  0  0  0
   26.7231  -18.1648  -15.2896 C   0  0  0  0  0  0  0  0  0  0  0  0
   26.7950  -18.3330  -13.7908 C   0  0  0  0  0  0  0  0  0  0  0  0
   27.2977  -19.7261  -13.5256 C   0  0  1  0  0  0  0  0  0  0  0  0
   26.6213  -20.3485  -12.4093 C   0  0  0  0  0  0  0  0  0  0  0  0
   25.4816  -20.9141  -12.5655 O   0  0  0  0  0  0  0  0  0  0  0  0
   27.9240  -19.1958   -6.1479 C   0  0  0  0  0  0  0  0  0  0  0  0
   26.7319  -20.5370   -5.8929 S   0  0  0  0  0  0  0  0  0  0  0  0
   25.9965  -20.9477   -7.5015 C   0  0  0  0  0  0  0  0  0  0  0  0
   26.9055  -20.4780   -8.6292 C   0  0  0  0  0  0  0  0  0  0  0  0
   26.2932  -20.8528   -9.9610 C   0  0  2  0  0  0  0  0  0  0  0  0
   27.1100  -20.4043  -11.0695 N   0  0  0  0  0  0  0  0  0  0  0  0
   24.9519  -20.2571  -10.1084 C   0  0  0  0  0  0  0  0  0  0  0  0
   24.8154  -18.9593  -10.5476 O   0  0  0  0  0  0  0  0  0  0  0  0
   23.9219  -20.9196   -9.8377 O   0  0  0  0  0  0  0  0  0  0  0  0
  2  1  1  0
  3  2  1  0
  4  3  2  0
  5  9  1  0
  5  3  1  0
  6  5  1  0
  7  6  1  0
  7  8  1  0
  8  9  1  0
  9 10  1  1
 10 17  1  0
 10 11  2  0
 13 12  1  0
 14 15  1  0
 14 13  1  0
 16 15  1  1
 16 18  1  0
 17 16  1  0
 18 20  2  0
 18 19  1  0
M  END
$$$$
