GPM.pdb
     RDKit          3D

 20 20  0  0  1  0  0  0  0  0999 V2000
   23.1415  -20.9867  -13.1332 N   0  0  0  0  0  0  0  0  0  0  0  0
   24.2689  -20.2192  -12.7751 C   0  0  0  0  0  0  0  0  0  0  0  0
   25.1045  -20.6485  -11.6742 C   0  0  0  0  0  0  0  0  0  0  0  0
   24.5737  -20.5110  -10.5029 O   0  0  0  0  0  0  0  0  0  0  0  0
   26.3844  -21.1829  -11.7053 N   0  0  0  0  0  0  0  0  0  0  0  0
   27.0589  -21.7446  -12.8552 C   0  0  0  0  0  0  0  0  0  0  0  0
   28.3773  -20.9463  -12.8254 C   0  0  0  0  0  0  0  0  0  0  0  0
   28.6548  -20.9150  -11.3416 C   0  0  0  0  0  0  0  0  0  0  0  0
   27.3782  -21.3000  -10.6445 C   0  0  1  0  0  0  0  0  0  0  0  0
   27.1474  -20.5144   -9.4526 C   0  0  0  0  0  0  0  0  0  0  0  0
   26.6896  -19.3198   -9.5328 O   0  0  0  0  0  0  0  0  0  0  0  0
   25.1192  -21.7888   -3.6542 C   0  0  0  0  0  0  0  0  0  0  0  0
   26.0226  -20.3014   -3.1477 S   0  0  0  0  0  0  0  0  0  0  0  0
   26.9036  -19.6583   -4.5995 C   0  0  0  0  0  0  0  0  0  0  0  0
   26.7251  -20.6012   -5.7817 C   0  0  0  0  0  0  0  0  0  0  0  0
   27.4260  -20.0290   -6.9944 C   0  0  2  0  0  0  0  0  0  0  0  0
   27.3902  -20.9466   -8.1142 N   0  0  0  0  0  0  0  0  0  0  0  0
   28.8380  -19.7288   -6.6916 C   0  0  0  0  0  0  0  0  0  0  0  0
   29.1809  -18.5301   -6.1073 O   0  0  0  0  0  0  0  0  0  0  0  0
   29.7419  -20.5558   -6.9600 O   0  0  0  0  0  0  0  0  0  0  0  0
  2  1  1  0
  3  2  1  0
  4  3  2  0
  5  9  1  0
  5  3  1  0
  6  5  1  0
  7  6  1  0
  7  8  1  0
  8  9  1  0
  9 10  1  1
 10 17  1  0
 10 11  2  0
 13 12  1  0
 14 15  1  0
 14 13  1  0
 16 15  1  1
 16 18  1  0
 17 16  1  0
 18 20  2  0
 18 19  1  0
M  END
$$$$
