GPM.pdb
     RDKit          3D

 20 20  0  0  1  0  0  0  0  0999 V2000
   22.7624  -21.5967  -14.2466 N   0  0  0  0  0  0  0  0  0  0  0  0
   23.9001  -20.8158  -13.9566 C   0  0  0  0  0  0  0  0  0  0  0  0
   24.8902  -21.3145  -13.0261 C   0  0  0  0  0  0  0  0  0  0  0  0
   24.4106  -21.9820  -12.0277 O   0  0  0  0  0  0  0  0  0  0  0  0
   26.2701  -21.1754  -13.0607 N   0  0  0  0  0  0  0  0  0  0  0  0
   27.0896  -20.9751  -14.2360 C   0  0  0  0  0  0  0  0  0  0  0  0
   27.8873  -19.7258  -13.8129 C   0  0  0  0  0  0  0  0  0  0  0  0
   28.1678  -20.0471  -12.3645 C   0  0  0  0  0  0  0  0  0  0  0  0
   27.2395  -21.1641  -11.9713 C   0  0  1  0  0  0  0  0  0  0  0  0
   26.7104  -20.9915  -10.6367 C   0  0  0  0  0  0  0  0  0  0  0  0
   25.6038  -20.3737  -10.4446 O   0  0  0  0  0  0  0  0  0  0  0  0
   29.8944  -20.9213   -4.3404 C   0  0  0  0  0  0  0  0  0  0  0  0
   29.0686  -19.4412   -4.9826 S   0  0  0  0  0  0  0  0  0  0  0  0
   27.6460  -19.9783   -5.9751 C   0  0  0  0  0  0  0  0  0  0  0  0
   28.1109  -20.4492   -7.3465 C   0  0  0  0  0  0  0  0  0  0  0  0
   26.9283  -20.9827   -8.1250 C   0  0  2  0  0  0  0  0  0  0  0  0
   27.3221  -21.4587   -9.4348 N   0  0  0  0  0  0  0  0  0  0  0  0
   25.9036  -19.9371   -8.3053 C   0  0  0  0  0  0  0  0  0  0  0  0
   24.6877  -20.0422   -7.6679 O   0  0  0  0  0  0  0  0  0  0  0  0
   26.1233  -18.9426   -9.0373 O   0  0  0  0  0  0  0  0  0  0  0  0
  2  1  1  0
  3  2  1  0
  4  3  2  0
  5  9  1  0
  5  3  1  0
  6  5  1  0
  7  6  1  0
  7  8  1  0
  8  9  1  0
  9 10  1  1
 10 17  1  0
 10 11  2  0
 13 12  1  0
 14 15  1  0
 14 13  1  0
 16 15  1  6
 16 18  1  0
 17 16  1  0
 18 20  2  0
 18 19  1  0
M  END
$$$$
