GPM.pdb
     RDKit          3D

 20 20  0  0  1  0  0  0  0  0999 V2000
   29.5419  -21.9772  -17.5892 N   0  0  0  0  0  0  0  0  0  0  0  0
   28.5265  -20.9988  -17.5922 C   0  0  0  0  0  0  0  0  0  0  0  0
   28.1990  -20.3058  -16.3646 C   0  0  0  0  0  0  0  0  0  0  0  0
   28.1820  -21.0506  -15.3076 O   0  0  0  0  0  0  0  0  0  0  0  0
   27.9047  -18.9639  -16.1704 N   0  0  0  0  0  0  0  0  0  0  0  0
   28.4034  -17.8487  -16.9453 C   0  0  0  0  0  0  0  0  0  0  0  0
   27.0805  -17.1469  -17.3111 C   0  0  0  0  0  0  0  0  0  0  0  0
   26.3204  -17.2834  -16.0137 C   0  0  0  0  0  0  0  0  0  0  0  0
   27.0287  -18.3273  -15.1937 C   0  0  1  0  0  0  0  0  0  0  0  0
   26.1054  -19.1919  -14.4929 C   0  0  0  0  0  0  0  0  0  0  0  0
   25.4123  -20.0635  -15.1278 O   0  0  0  0  0  0  0  0  0  0  0  0
   26.0339  -20.6140   -8.1968 C   0  0  0  0  0  0  0  0  0  0  0  0
   24.3179  -21.0976   -8.5233 S   0  0  0  0  0  0  0  0  0  0  0  0
   24.0292  -20.9692  -10.3114 C   0  0  0  0  0  0  0  0  0  0  0  0
   25.0247  -20.0006  -10.9354 C   0  0  0  0  0  0  0  0  0  0  0  0
   24.9728  -20.1241  -12.4425 C   0  0  2  0  0  0  0  0  0  0  0  0
   25.8626  -19.1803  -13.0865 N   0  0  0  0  0  0  0  0  0  0  0  0
   23.6064  -19.8816  -12.9423 C   0  0  0  0  0  0  0  0  0  0  0  0
   22.7221  -20.9285  -13.0755 O   0  0  0  0  0  0  0  0  0  0  0  0
   23.2317  -18.7252  -13.2514 O   0  0  0  0  0  0  0  0  0  0  0  0
  2  1  1  0
  3  2  1  0
  4  3  2  0
  5  9  1  0
  5  3  1  0
  6  5  1  0
  7  6  1  0
  7  8  1  0
  8  9  1  0
  9 10  1  6
 10 17  1  0
 10 11  2  0
 13 12  1  0
 14 15  1  0
 14 13  1  0
 16 15  1  1
 16 18  1  0
 17 16  1  0
 18 20  2  0
 18 19  1  0
M  END
$$$$
