GPM.pdb
     RDKit          3D

 20 20  0  0  1  0  0  0  0  0999 V2000
   25.0379  -14.8056  -18.2868 N   0  0  0  0  0  0  0  0  0  0  0  0
   25.2912  -13.4301  -18.4668 C   0  0  0  0  0  0  0  0  0  0  0  0
   24.8682  -12.4875  -17.4533 C   0  0  0  0  0  0  0  0  0  0  0  0
   23.6051  -12.2104  -17.4617 O   0  0  0  0  0  0  0  0  0  0  0  0
   25.6268  -11.8484  -16.4833 N   0  0  0  0  0  0  0  0  0  0  0  0
   26.9286  -12.2525  -15.9987 C   0  0  0  0  0  0  0  0  0  0  0  0
   27.7161  -10.9399  -16.1805 C   0  0  0  0  0  0  0  0  0  0  0  0
   26.6852   -9.9288  -15.7392 C   0  0  0  0  0  0  0  0  0  0  0  0
   25.3537  -10.6294  -15.7310 C   0  0  1  0  0  0  0  0  0  0  0  0
   24.2892   -9.7869  -16.2293 C   0  0  0  0  0  0  0  0  0  0  0  0
   24.3741   -9.2365  -17.3839 O   0  0  0  0  0  0  0  0  0  0  0  0
   17.0428   -8.2044  -18.0922 C   0  0  0  0  0  0  0  0  0  0  0  0
   18.1791   -9.3274  -17.2362 S   0  0  0  0  0  0  0  0  0  0  0  0
   19.7388   -8.4410  -16.9556 C   0  0  0  0  0  0  0  0  0  0  0  0
   20.7870   -9.3898  -16.3902 C   0  0  0  0  0  0  0  0  0  0  0  0
   22.0573   -8.6220  -16.0964 C   0  0  2  0  0  0  0  0  0  0  0  0
   23.0811   -9.4784  -15.5347 N   0  0  0  0  0  0  0  0  0  0  0  0
   21.8001   -7.5270  -15.1421 C   0  0  0  0  0  0  0  0  0  0  0  0
   21.4036   -6.2900  -15.5984 O   0  0  0  0  0  0  0  0  0  0  0  0
   21.9376   -7.7054  -13.9083 O   0  0  0  0  0  0  0  0  0  0  0  0
  2  1  1  0
  3  2  1  0
  4  3  2  0
  5  9  1  0
  5  3  1  0
  6  5  1  0
  7  6  1  0
  7  8  1  0
  8  9  1  0
  9 10  1  6
 10 17  1  0
 10 11  2  0
 13 12  1  0
 14 15  1  0
 14 13  1  0
 16 15  1  1
 16 18  1  0
 17 16  1  0
 18 20  2  0
 18 19  1  0
M  END
$$$$
