GPM.pdb
     RDKit          3D

 20 20  0  0  1  0  0  0  0  0999 V2000
   25.0476  -23.7223  -16.1869 N   0  0  0  0  0  0  0  0  0  0  0  0
   25.2349  -22.3732  -15.8219 C   0  0  0  0  0  0  0  0  0  0  0  0
   26.0671  -22.0506  -14.6827 C   0  0  0  0  0  0  0  0  0  0  0  0
   26.0396  -22.9198  -13.7256 O   0  0  0  0  0  0  0  0  0  0  0  0
   26.8828  -20.9466  -14.4811 N   0  0  0  0  0  0  0  0  0  0  0  0
   27.4741  -20.1106  -15.5031 C   0  0  0  0  0  0  0  0  0  0  0  0
   27.0161  -18.7179  -15.0265 C   0  0  0  0  0  0  0  0  0  0  0  0
   27.1945  -18.8575  -13.5338 C   0  0  0  0  0  0  0  0  0  0  0  0
   27.3330  -20.3267  -13.2403 C   0  0  1  0  0  0  0  0  0  0  0  0
   26.6340  -20.7120  -12.0344 C   0  0  0  0  0  0  0  0  0  0  0  0
   25.3819  -20.9847  -12.0607 O   0  0  0  0  0  0  0  0  0  0  0  0
   28.6002  -19.2013   -6.1212 C   0  0  0  0  0  0  0  0  0  0  0  0
   27.1161  -20.1004   -5.5978 S   0  0  0  0  0  0  0  0  0  0  0  0
   26.2544  -20.6771   -7.0884 C   0  0  0  0  0  0  0  0  0  0  0  0
   27.1298  -20.4639   -8.3160 C   0  0  0  0  0  0  0  0  0  0  0  0
   26.4253  -21.0081   -9.5394 C   0  0  2  0  0  0  0  0  0  0  0  0
   27.2185  -20.8266  -10.7373 N   0  0  0  0  0  0  0  0  0  0  0  0
   25.1283  -20.3352   -9.7411 C   0  0  0  0  0  0  0  0  0  0  0  0
   23.9727  -20.8971   -9.2466 O   0  0  0  0  0  0  0  0  0  0  0  0
   25.0591  -19.2477  -10.3622 O   0  0  0  0  0  0  0  0  0  0  0  0
  2  1  1  0
  3  2  1  0
  4  3  2  0
  5  9  1  0
  5  3  1  0
  6  5  1  0
  7  6  1  0
  7  8  1  0
  8  9  1  0
  9 10  1  1
 10 17  1  0
 10 11  2  0
 13 12  1  0
 14 15  1  0
 14 13  1  0
 16 15  1  1
 16 18  1  0
 17 16  1  0
 18 20  2  0
 18 19  1  0
M  END
$$$$
