GPM.pdb
     RDKit          3D

 20 20  0  0  1  0  0  0  0  0999 V2000
   14.8740  -12.1608  -14.3368 N   0  0  0  0  0  0  0  0  0  0  0  0
   15.5404  -10.9227  -14.4435 C   0  0  0  0  0  0  0  0  0  0  0  0
   16.1305  -10.3254  -13.2646 C   0  0  0  0  0  0  0  0  0  0  0  0
   15.3615  -10.2996  -12.2252 O   0  0  0  0  0  0  0  0  0  0  0  0
   17.3969   -9.7833  -13.1005 N   0  0  0  0  0  0  0  0  0  0  0  0
   18.5832  -10.1122  -13.8605 C   0  0  0  0  0  0  0  0  0  0  0  0
   19.0331   -8.7054  -14.3020 C   0  0  0  0  0  0  0  0  0  0  0  0
   18.7625   -7.9149  -13.0444 C   0  0  0  0  0  0  0  0  0  0  0  0
   17.8653   -8.7560  -12.1775 C   0  0  1  0  0  0  0  0  0  0  0  0
   16.8485   -7.9686  -11.5163 C   0  0  0  0  0  0  0  0  0  0  0  0
   16.0358   -7.2447  -12.1934 O   0  0  0  0  0  0  0  0  0  0  0  0
   12.5327   -9.5582   -7.6795 C   0  0  0  0  0  0  0  0  0  0  0  0
   12.4307   -7.8475   -7.0894 S   0  0  0  0  0  0  0  0  0  0  0  0
   13.7247   -6.8871   -7.9264 C   0  0  0  0  0  0  0  0  0  0  0  0
   14.7651   -7.8218   -8.5286 C   0  0  0  0  0  0  0  0  0  0  0  0
   15.6244   -7.0556   -9.5103 C   0  0  2  0  0  0  0  0  0  0  0  0
   16.6377   -7.9012  -10.1062 N   0  0  0  0  0  0  0  0  0  0  0  0
   16.3015   -5.9263   -8.8454 C   0  0  0  0  0  0  0  0  0  0  0  0
   15.6801   -4.7008   -8.7583 O   0  0  0  0  0  0  0  0  0  0  0  0
   17.4464   -6.0648   -8.3522 O   0  0  0  0  0  0  0  0  0  0  0  0
  2  1  1  0
  3  2  1  0
  4  3  2  0
  5  9  1  0
  5  3  1  0
  6  5  1  0
  7  6  1  0
  7  8  1  0
  8  9  1  0
  9 10  1  6
 10 17  1  0
 10 11  2  0
 13 12  1  0
 14 15  1  0
 14 13  1  0
 16 15  1  1
 16 18  1  0
 17 16  1  0
 18 20  2  0
 18 19  1  0
M  END
$$$$
