GPM.pdb
     RDKit          3D

 20 20  0  0  1  0  0  0  0  0999 V2000
   24.4726  -24.5278  -14.7275 N   0  0  0  0  0  0  0  0  0  0  0  0
   24.6136  -23.1284  -14.6262 C   0  0  0  0  0  0  0  0  0  0  0  0
   25.6298  -22.5742  -13.7574 C   0  0  0  0  0  0  0  0  0  0  0  0
   25.9042  -23.2900  -12.7158 O   0  0  0  0  0  0  0  0  0  0  0  0
   26.3427  -21.3914  -13.8901 N   0  0  0  0  0  0  0  0  0  0  0  0
   26.5951  -20.6673  -15.1168 C   0  0  0  0  0  0  0  0  0  0  0  0
   26.1037  -19.2613  -14.7193 C   0  0  0  0  0  0  0  0  0  0  0  0
   26.6247  -19.1694  -13.3051 C   0  0  0  0  0  0  0  0  0  0  0  0
   26.9866  -20.5652  -12.8755 C   0  0  1  0  0  0  0  0  0  0  0  0
   26.6210  -20.8268  -11.5011 C   0  0  0  0  0  0  0  0  0  0  0  0
   25.4442  -21.2377  -11.2022 O   0  0  0  0  0  0  0  0  0  0  0  0
   27.8759  -19.8984   -3.7514 C   0  0  0  0  0  0  0  0  0  0  0  0
   28.4849  -19.5020   -5.4118 S   0  0  0  0  0  0  0  0  0  0  0  0
   27.3514  -20.2480   -6.6183 C   0  0  0  0  0  0  0  0  0  0  0  0
   27.9147  -20.1046   -8.0257 C   0  0  0  0  0  0  0  0  0  0  0  0
   27.0013  -20.8034   -9.0089 C   0  0  2  0  0  0  0  0  0  0  0  0
   27.4764  -20.6656  -10.3700 N   0  0  0  0  0  0  0  0  0  0  0  0
   25.6355  -20.2504   -8.9411 C   0  0  0  0  0  0  0  0  0  0  0  0
   24.6474  -20.9276   -8.2623 O   0  0  0  0  0  0  0  0  0  0  0  0
   25.3555  -19.1616   -9.4971 O   0  0  0  0  0  0  0  0  0  0  0  0
  2  1  1  0
  3  2  1  0
  4  3  2  0
  5  9  1  0
  5  3  1  0
  6  5  1  0
  7  6  1  0
  7  8  1  0
  8  9  1  0
  9 10  1  1
 10 17  1  0
 10 11  2  0
 13 12  1  0
 14 15  1  0
 14 13  1  0
 16 15  1  1
 16 18  1  0
 17 16  1  0
 18 20  2  0
 18 19  1  0
M  END
$$$$
