GPM.pdb
     RDKit          3D

 20 20  0  0  1  0  0  0  0  0999 V2000
   22.7881  -22.0476  -14.0420 N   0  0  0  0  0  0  0  0  0  0  0  0
   23.7094  -21.0689  -13.6158 C   0  0  0  0  0  0  0  0  0  0  0  0
   24.7355  -21.4229  -12.6585 C   0  0  0  0  0  0  0  0  0  0  0  0
   24.2953  -21.9156  -11.5468 O   0  0  0  0  0  0  0  0  0  0  0  0
   26.1134  -21.3073  -12.7716 N   0  0  0  0  0  0  0  0  0  0  0  0
   26.8790  -21.2584  -13.9982 C   0  0  0  0  0  0  0  0  0  0  0  0
   27.7052  -19.9785  -13.7629 C   0  0  0  0  0  0  0  0  0  0  0  0
   28.0501  -20.1299  -12.3008 C   0  0  0  0  0  0  0  0  0  0  0  0
   27.1323  -21.1801  -11.7362 C   0  0  1  0  0  0  0  0  0  0  0  0
   26.6670  -20.8437  -10.4090 C   0  0  0  0  0  0  0  0  0  0  0  0
   25.6345  -20.1022  -10.2442 O   0  0  0  0  0  0  0  0  0  0  0  0
   29.7831  -21.8990   -4.5910 C   0  0  0  0  0  0  0  0  0  0  0  0
   28.9849  -20.2847   -4.3864 S   0  0  0  0  0  0  0  0  0  0  0  0
   27.6304  -20.1717   -5.5906 C   0  0  0  0  0  0  0  0  0  0  0  0
   28.0582  -20.7790   -6.9198 C   0  0  0  0  0  0  0  0  0  0  0  0
   26.9118  -20.6988   -7.9039 C   0  0  2  0  0  0  0  0  0  0  0  0
   27.2682  -21.2693   -9.1864 N   0  0  0  0  0  0  0  0  0  0  0  0
   26.5039  -19.2981   -8.1218 C   0  0  0  0  0  0  0  0  0  0  0  0
   25.3962  -18.7919   -7.4796 O   0  0  0  0  0  0  0  0  0  0  0  0
   27.1562  -18.5518   -8.8903 O   0  0  0  0  0  0  0  0  0  0  0  0
  2  1  1  0
  3  2  1  0
  4  3  2  0
  5  9  1  0
  5  3  1  0
  6  5  1  0
  7  6  1  0
  7  8  1  0
  8  9  1  0
  9 10  1  1
 10 17  1  0
 10 11  2  0
 13 12  1  0
 14 15  1  0
 14 13  1  0
 16 15  1  1
 16 18  1  0
 17 16  1  0
 18 20  2  0
 18 19  1  0
M  END
$$$$
