GPM.pdb
     RDKit          3D

 20 20  0  0  1  0  0  0  0  0999 V2000
   25.7093  -19.3035  -15.5154 N   0  0  0  0  0  0  0  0  0  0  0  0
   26.6240  -19.0981  -14.4621 C   0  0  0  0  0  0  0  0  0  0  0  0
   26.6681  -20.0367  -13.3614 C   0  0  0  0  0  0  0  0  0  0  0  0
   25.5357  -20.2336  -12.7689 O   0  0  0  0  0  0  0  0  0  0  0  0
   27.7499  -20.7474  -12.8618 N   0  0  0  0  0  0  0  0  0  0  0  0
   28.9406  -21.1326  -13.5876 C   0  0  0  0  0  0  0  0  0  0  0  0
   30.0324  -20.5832  -12.6482 C   0  0  0  0  0  0  0  0  0  0  0  0
   29.4490  -20.9355  -11.3009 C   0  0  0  0  0  0  0  0  0  0  0  0
   27.9962  -21.2603  -11.5191 C   0  0  1  0  0  0  0  0  0  0  0  0
   27.1549  -20.7405  -10.4640 C   0  0  0  0  0  0  0  0  0  0  0  0
   26.9208  -19.4837  -10.3709 O   0  0  0  0  0  0  0  0  0  0  0  0
   28.1239  -19.9707   -3.9114 C   0  0  0  0  0  0  0  0  0  0  0  0
   28.3891  -19.1563   -5.5087 S   0  0  0  0  0  0  0  0  0  0  0  0
   26.8391  -19.2492   -6.4501 C   0  0  0  0  0  0  0  0  0  0  0  0
   27.1121  -19.7502   -7.8619 C   0  0  0  0  0  0  0  0  0  0  0  0
   26.3761  -21.0529   -8.0867 C   0  0  2  0  0  0  0  0  0  0  0  0
   26.5192  -21.5186   -9.4504 N   0  0  0  0  0  0  0  0  0  0  0  0
   24.9369  -20.8986   -7.8027 C   0  0  0  0  0  0  0  0  0  0  0  0
   24.0341  -20.7980   -8.8373 O   0  0  0  0  0  0  0  0  0  0  0  0
   24.5166  -20.8572   -6.6217 O   0  0  0  0  0  0  0  0  0  0  0  0
  2  1  1  0
  3  2  1  0
  4  3  2  0
  5  9  1  0
  5  3  1  0
  6  5  1  0
  7  6  1  0
  7  8  1  0
  8  9  1  0
  9 10  1  1
 10 17  1  0
 10 11  2  0
 13 12  1  0
 14 15  1  0
 14 13  1  0
 16 15  1  6
 16 18  1  0
 17 16  1  0
 18 20  2  0
 18 19  1  0
M  END
$$$$
