GPM.pdb
     RDKit          3D

 20 20  0  0  1  0  0  0  0  0999 V2000
   23.4033  -22.6363  -15.2117 N   0  0  0  0  0  0  0  0  0  0  0  0
   24.1096  -21.5172  -14.7247 C   0  0  0  0  0  0  0  0  0  0  0  0
   25.2234  -21.7134  -13.8217 C   0  0  0  0  0  0  0  0  0  0  0  0
   25.0551  -22.6500  -12.9460 O   0  0  0  0  0  0  0  0  0  0  0  0
   26.4353  -21.0401  -13.7697 N   0  0  0  0  0  0  0  0  0  0  0  0
   27.1251  -20.4151  -14.8772 C   0  0  0  0  0  0  0  0  0  0  0  0
   27.3555  -19.0029  -14.3038 C   0  0  0  0  0  0  0  0  0  0  0  0
   27.7194  -19.3337  -12.8762 C   0  0  0  0  0  0  0  0  0  0  0  0
   27.3047  -20.7594  -12.6331 C   0  0  1  0  0  0  0  0  0  0  0  0
   26.7311  -20.9458  -11.3188 C   0  0  0  0  0  0  0  0  0  0  0  0
   25.4601  -20.9828  -11.1570 O   0  0  0  0  0  0  0  0  0  0  0  0
   28.9852  -20.8226   -4.2673 C   0  0  0  0  0  0  0  0  0  0  0  0
   28.2116  -19.4987   -5.2337 S   0  0  0  0  0  0  0  0  0  0  0  0
   27.0961  -20.2656   -6.4440 C   0  0  0  0  0  0  0  0  0  0  0  0
   27.8281  -20.4973   -7.7589 C   0  0  0  0  0  0  0  0  0  0  0  0
   26.8497  -20.9937   -8.8009 C   0  0  2  0  0  0  0  0  0  0  0  0
   27.4679  -21.0998  -10.1061 N   0  0  0  0  0  0  0  0  0  0  0  0
   25.6947  -20.0830   -8.9125 C   0  0  0  0  0  0  0  0  0  0  0  0
   24.4576  -20.4746   -8.4522 O   0  0  0  0  0  0  0  0  0  0  0  0
   25.8215  -18.9453   -9.4250 O   0  0  0  0  0  0  0  0  0  0  0  0
  2  1  1  0
  3  2  1  0
  4  3  2  0
  5  9  1  0
  5  3  1  0
  6  5  1  0
  7  6  1  0
  7  8  1  0
  8  9  1  0
  9 10  1  1
 10 17  1  0
 10 11  2  0
 13 12  1  0
 14 15  1  0
 14 13  1  0
 16 15  1  1
 16 18  1  0
 17 16  1  0
 18 20  2  0
 18 19  1  0
M  END
$$$$
