GPM.pdb
     RDKit          3D

 20 20  0  0  1  0  0  0  0  0999 V2000
   28.6802  -22.8964  -16.0980 N   0  0  0  0  0  0  0  0  0  0  0  0
   27.5557  -22.2508  -15.5438 C   0  0  0  0  0  0  0  0  0  0  0  0
   27.7153  -21.4229  -14.3675 C   0  0  0  0  0  0  0  0  0  0  0  0
   28.1545  -22.0434  -13.3214 O   0  0  0  0  0  0  0  0  0  0  0  0
   27.4643  -20.0672  -14.2125 N   0  0  0  0  0  0  0  0  0  0  0  0
   27.4203  -19.0709  -15.2604 C   0  0  0  0  0  0  0  0  0  0  0  0
   26.0478  -18.4277  -14.9792 C   0  0  0  0  0  0  0  0  0  0  0  0
   26.0613  -18.3822  -13.4701 C   0  0  0  0  0  0  0  0  0  0  0  0
   27.1603  -19.3009  -13.0096 C   0  0  1  0  0  0  0  0  0  0  0  0
   26.7838  -20.0597  -11.8375 C   0  0  0  0  0  0  0  0  0  0  0  0
   25.9723  -21.0477  -11.9285 O   0  0  0  0  0  0  0  0  0  0  0  0
   29.2613  -19.7695   -5.7925 C   0  0  0  0  0  0  0  0  0  0  0  0
   27.6025  -20.3579   -5.3602 S   0  0  0  0  0  0  0  0  0  0  0  0
   26.7488  -20.8095   -6.8979 C   0  0  0  0  0  0  0  0  0  0  0  0
   27.3289  -20.0281   -8.0690 C   0  0  0  0  0  0  0  0  0  0  0  0
   26.7106  -20.5191   -9.3597 C   0  0  2  0  0  0  0  0  0  0  0  0
   27.2411  -19.8141  -10.5080 N   0  0  0  0  0  0  0  0  0  0  0  0
   25.2471  -20.3356   -9.3439 C   0  0  0  0  0  0  0  0  0  0  0  0
   24.4253  -21.3614   -8.9342 O   0  0  0  0  0  0  0  0  0  0  0  0
   24.7326  -19.2489   -9.7011 O   0  0  0  0  0  0  0  0  0  0  0  0
  2  1  1  0
  3  2  1  0
  4  3  2  0
  5  9  1  0
  5  3  1  0
  6  5  1  0
  7  6  1  0
  7  8  1  0
  8  9  1  0
  9 10  1  1
 10 17  1  0
 10 11  2  0
 13 12  1  0
 14 15  1  0
 14 13  1  0
 16 15  1  1
 16 18  1  0
 17 16  1  0
 18 20  2  0
 18 19  1  0
M  END
$$$$
