CEE.pdb
     RDKit          3D

 25 24  0  0  1  0  0  0  0  0999 V2000
    6.9397  -12.8592   19.0375 N   0  0  0  0  0  0  0  0  0  0  0  0
    8.0728  -13.5239   18.4509 C   0  0  1  0  0  0  0  0  0  0  0  0
    9.3426  -12.6944   18.5686 C   0  0  0  0  0  0  0  0  0  0  0  0
    9.6280  -12.2707   20.3191 S   0  0  0  0  0  0  0  0  0  0  0  0
    8.3073  -14.7961   19.1752 C   0  0  0  0  0  0  0  0  0  0  0  0
    7.8154  -14.9923   20.2911 O   0  0  0  0  0  0  0  0  0  0  0  0
    9.1072  -15.8387   18.6130 N   0  0  0  0  0  0  0  0  0  0  0  0
    9.4520  -17.0336   19.3096 C   0  0  1  0  0  0  0  0  0  0  0  0
    9.7128  -18.1994   18.3922 C   0  0  0  0  0  0  0  0  0  0  0  0
    9.7976  -19.4936   19.1586 C   0  0  0  0  0  0  0  0  0  0  0  0
    9.9685  -20.6580   18.2511 C   0  0  0  0  0  0  0  0  0  0  0  0
    9.1257  -20.8266   17.3366 O   0  0  0  0  0  0  0  0  0  0  0  0
   10.5328  -16.8314   20.2937 C   0  0  0  0  0  0  0  0  0  0  0  0
   11.4350  -16.0141   20.0288 O   0  0  0  0  0  0  0  0  0  0  0  0
   11.0106  -21.5538   18.3756 O   0  0  0  0  0  0  0  0  0  0  0  0
   10.5612  -17.5352   21.5064 N   0  0  0  0  0  0  0  0  0  0  0  0
   11.6492  -17.2284   22.4650 C   0  0  1  0  0  0  0  0  0  0  0  0
   11.2824  -17.7503   23.8045 C   0  0  0  0  0  0  0  0  0  0  0  0
   12.2699  -17.5483   24.8910 C   0  0  0  0  0  0  0  0  0  0  0  0
   11.8736  -18.0419   26.2162 C   0  0  0  0  0  0  0  0  0  0  0  0
   12.3775  -19.0580   26.7984 O   0  0  0  0  0  0  0  0  0  0  0  0
   12.9008  -17.6367   21.8608 C   0  0  0  0  0  0  0  0  0  0  0  0
   14.0307  -16.8353   21.9210 O   0  0  0  0  0  0  0  0  0  0  0  0
   10.8717  -17.3555   26.8993 O   0  0  0  0  0  0  0  0  0  0  0  0
   13.0006  -18.7355   21.2610 O   0  0  0  0  0  0  0  0  0  0  0  0
  2  5  1  0
  2  1  1  1
  3  2  1  0
  4  3  1  0
  5  6  2  0
  7  8  1  0
  7  5  1  0
  8  9  1  6
  9 10  1  0
 10 11  1  0
 11 15  1  0
 11 12  2  0
 13  8  1  0
 14 13  2  0
 16 13  1  0
 17 18  1  1
 17 16  1  0
 18 19  1  0
 20 19  1  0
 20 21  2  0
 22 23  1  0
 22 17  1  0
 24 20  1  0
 25 22  2  0
M  END
$$$$
