CEE.pdb
     RDKit          3D

 25 24  0  0  1  0  0  0  0  0999 V2000
    6.4088  -13.8446   19.2321 N   0  0  0  0  0  0  0  0  0  0  0  0
    7.6348  -14.2570   19.8619 C   0  0  1  0  0  0  0  0  0  0  0  0
    8.5324  -13.0731   20.1891 C   0  0  0  0  0  0  0  0  0  0  0  0
    9.2421  -12.4078   18.6468 S   0  0  0  0  0  0  0  0  0  0  0  0
    7.3103  -14.9323   21.1413 C   0  0  0  0  0  0  0  0  0  0  0  0
    6.6237  -14.3703   22.0006 O   0  0  0  0  0  0  0  0  0  0  0  0
    7.7769  -16.2526   21.4277 N   0  0  0  0  0  0  0  0  0  0  0  0
    7.5227  -16.9321   22.6548 C   0  0  1  0  0  0  0  0  0  0  0  0
    7.1245  -18.3720   22.4627 C   0  0  0  0  0  0  0  0  0  0  0  0
    6.7517  -19.0184   23.7713 C   0  0  0  0  0  0  0  0  0  0  0  0
    6.2603  -20.4074   23.5764 C   0  0  0  0  0  0  0  0  0  0  0  0
    5.3469  -20.6017   22.7380 O   0  0  0  0  0  0  0  0  0  0  0  0
    8.6127  -16.7695   23.6361 C   0  0  0  0  0  0  0  0  0  0  0  0
    9.7902  -16.8101   23.2314 O   0  0  0  0  0  0  0  0  0  0  0  0
    6.7666  -21.4826   24.2774 O   0  0  0  0  0  0  0  0  0  0  0  0
    8.3484  -16.5730   24.9993 N   0  0  0  0  0  0  0  0  0  0  0  0
    9.4991  -16.3577   25.9083 C   0  0  1  0  0  0  0  0  0  0  0  0
    9.1370  -15.3370   26.9224 C   0  0  0  0  0  0  0  0  0  0  0  0
   10.0954  -15.1341   28.0345 C   0  0  0  0  0  0  0  0  0  0  0  0
    9.7188  -14.1194   29.0271 C   0  0  0  0  0  0  0  0  0  0  0  0
    8.6391  -13.4417   29.0061 O   0  0  0  0  0  0  0  0  0  0  0  0
    9.9698  -17.6567   26.3434 C   0  0  0  0  0  0  0  0  0  0  0  0
    9.1004  -18.7232   26.5145 O   0  0  0  0  0  0  0  0  0  0  0  0
   10.6003  -13.8695   30.0769 O   0  0  0  0  0  0  0  0  0  0  0  0
   11.1867  -17.8571   26.5800 O   0  0  0  0  0  0  0  0  0  0  0  0
  2  5  1  0
  2  1  1  1
  3  2  1  0
  4  3  1  0
  5  6  2  0
  7  8  1  0
  7  5  1  0
  8  9  1  6
  9 10  1  0
 10 11  1  0
 11 15  1  0
 11 12  2  0
 13  8  1  0
 14 13  2  0
 16 13  1  0
 17 18  1  1
 17 16  1  0
 18 19  1  0
 20 19  1  0
 20 21  2  0
 22 23  1  0
 22 17  1  0
 24 20  1  0
 25 22  2  0
M  END
$$$$
