CEE.pdb
     RDKit          3D

 25 24  0  0  1  0  0  0  0  0999 V2000
   -0.7852  -25.9221   29.0472 N   0  0  0  0  0  0  0  0  0  0  0  0
   -2.1539  -26.3282   28.8691 C   0  0  1  0  0  0  0  0  0  0  0  0
   -2.6726  -27.1178   30.0615 C   0  0  0  0  0  0  0  0  0  0  0  0
   -1.8083  -28.7212   30.1472 S   0  0  0  0  0  0  0  0  0  0  0  0
   -2.9982  -25.1163   28.7406 C   0  0  0  0  0  0  0  0  0  0  0  0
   -3.0718  -24.2925   29.6579 O   0  0  0  0  0  0  0  0  0  0  0  0
   -3.7553  -24.8562   27.5565 N   0  0  0  0  0  0  0  0  0  0  0  0
   -4.5680  -23.6991   27.3760 C   0  0  1  0  0  0  0  0  0  0  0  0
   -4.3203  -23.0003   26.0648 C   0  0  0  0  0  0  0  0  0  0  0  0
   -2.9404  -22.3982   26.0150 C   0  0  0  0  0  0  0  0  0  0  0  0
   -2.6956  -21.6939   24.7294 C   0  0  0  0  0  0  0  0  0  0  0  0
   -2.3796  -20.4800   24.7684 O   0  0  0  0  0  0  0  0  0  0  0  0
   -5.9997  -23.9608   27.6195 C   0  0  0  0  0  0  0  0  0  0  0  0
   -6.5227  -24.9574   27.0854 O   0  0  0  0  0  0  0  0  0  0  0  0
   -2.8024  -22.3196   23.5042 O   0  0  0  0  0  0  0  0  0  0  0  0
   -6.7715  -23.1170   28.4312 N   0  0  0  0  0  0  0  0  0  0  0  0
   -8.1951  -23.4684   28.6469 C   0  0  1  0  0  0  0  0  0  0  0  0
   -8.3334  -24.1746   29.9444 C   0  0  0  0  0  0  0  0  0  0  0  0
   -9.7112  -24.5055   30.3788 C   0  0  0  0  0  0  0  0  0  0  0  0
   -9.8290  -25.1695   31.6834 C   0  0  0  0  0  0  0  0  0  0  0  0
   -8.8636  -25.3688   32.4919 O   0  0  0  0  0  0  0  0  0  0  0  0
   -8.9879  -22.2825   28.3947 C   0  0  0  0  0  0  0  0  0  0  0  0
   -8.4637  -21.0101   28.5643 O   0  0  0  0  0  0  0  0  0  0  0  0
  -11.0868  -25.6202   32.0790 O   0  0  0  0  0  0  0  0  0  0  0  0
  -10.1808  -22.3720   28.0124 O   0  0  0  0  0  0  0  0  0  0  0  0
  2  5  1  0
  2  1  1  1
  3  2  1  0
  4  3  1  0
  5  6  2  0
  7  8  1  0
  7  5  1  0
  8  9  1  6
  9 10  1  0
 10 11  1  0
 11 15  1  0
 11 12  2  0
 13  8  1  0
 14 13  2  0
 16 13  1  0
 17 18  1  1
 17 16  1  0
 18 19  1  0
 20 19  1  0
 20 21  2  0
 22 23  1  0
 22 17  1  0
 24 20  1  0
 25 22  2  0
M  END
$$$$
