CEE.pdb
     RDKit          3D

 25 24  0  0  1  0  0  0  0  0999 V2000
    8.7593  -16.3719   17.4270 N   0  0  0  0  0  0  0  0  0  0  0  0
    9.3458  -15.2006   18.0222 C   0  0  1  0  0  0  0  0  0  0  0  0
    8.5321  -14.6951   19.2039 C   0  0  0  0  0  0  0  0  0  0  0  0
    8.0197  -16.1093   20.2347 S   0  0  0  0  0  0  0  0  0  0  0  0
   10.6944  -15.5482   18.5305 C   0  0  0  0  0  0  0  0  0  0  0  0
   10.9255  -16.6632   19.0091 O   0  0  0  0  0  0  0  0  0  0  0  0
   11.7730  -14.6115   18.4865 N   0  0  0  0  0  0  0  0  0  0  0  0
   13.0968  -14.9089   18.9238 C   0  0  1  0  0  0  0  0  0  0  0  0
   14.1521  -14.1151   18.1992 C   0  0  0  0  0  0  0  0  0  0  0  0
   15.5378  -14.5384   18.6112 C   0  0  0  0  0  0  0  0  0  0  0  0
   16.5813  -13.6935   17.9741 C   0  0  0  0  0  0  0  0  0  0  0  0
   17.0786  -14.0817   16.8892 O   0  0  0  0  0  0  0  0  0  0  0  0
   13.2435  -14.8442   20.3907 C   0  0  0  0  0  0  0  0  0  0  0  0
   12.6809  -13.9185   21.0058 O   0  0  0  0  0  0  0  0  0  0  0  0
   17.0207  -12.5079   18.5265 O   0  0  0  0  0  0  0  0  0  0  0  0
   13.9965  -15.7951   21.0947 N   0  0  0  0  0  0  0  0  0  0  0  0
   14.0575  -15.6815   22.5712 C   0  0  1  0  0  0  0  0  0  0  0  0
   13.0086  -16.5422   23.1717 C   0  0  0  0  0  0  0  0  0  0  0  0
   13.0345  -16.6930   24.6458 C   0  0  0  0  0  0  0  0  0  0  0  0
   12.0315  -17.6029   25.2139 C   0  0  0  0  0  0  0  0  0  0  0  0
   11.1292  -18.2058   24.5448 O   0  0  0  0  0  0  0  0  0  0  0  0
   15.4380  -15.8574   22.9731 C   0  0  0  0  0  0  0  0  0  0  0  0
   16.3747  -16.4235   22.1217 O   0  0  0  0  0  0  0  0  0  0  0  0
   12.0578  -17.8330   26.5880 O   0  0  0  0  0  0  0  0  0  0  0  0
   15.8301  -15.5004   24.1114 O   0  0  0  0  0  0  0  0  0  0  0  0
  2  5  1  0
  2  1  1  1
  3  2  1  0
  4  3  1  0
  5  6  2  0
  7  8  1  0
  7  5  1  0
  8  9  1  6
  9 10  1  0
 10 11  1  0
 11 15  1  0
 11 12  2  0
 13  8  1  0
 14 13  2  0
 16 13  1  0
 17 18  1  1
 17 16  1  0
 18 19  1  0
 20 19  1  0
 20 21  2  0
 22 23  1  0
 22 17  1  0
 24 20  1  0
 25 22  2  0
M  END
$$$$
