CEE.pdb
     RDKit          3D

 25 24  0  0  1  0  0  0  0  0999 V2000
    7.4751  -14.1454   18.3220 N   0  0  0  0  0  0  0  0  0  0  0  0
    8.6453  -13.3424   18.5583 C   0  0  1  0  0  0  0  0  0  0  0  0
    8.4631  -12.4068   19.7439 C   0  0  0  0  0  0  0  0  0  0  0  0
    7.9293  -13.3695   21.1976 S   0  0  0  0  0  0  0  0  0  0  0  0
    9.7833  -14.2388   18.8736 C   0  0  0  0  0  0  0  0  0  0  0  0
    9.5934  -15.3722   19.3264 O   0  0  0  0  0  0  0  0  0  0  0  0
   11.1366  -13.8280   18.6667 N   0  0  0  0  0  0  0  0  0  0  0  0
   12.2611  -14.6807   18.8677 C   0  0  1  0  0  0  0  0  0  0  0  0
   13.3577  -14.4622   17.8585 C   0  0  0  0  0  0  0  0  0  0  0  0
   14.4790  -15.4511   18.0425 C   0  0  0  0  0  0  0  0  0  0  0  0
   15.6342  -15.1406   17.1606 C   0  0  0  0  0  0  0  0  0  0  0  0
   16.7817  -15.1257   17.6686 O   0  0  0  0  0  0  0  0  0  0  0  0
   12.7551  -14.6592   20.2580 C   0  0  0  0  0  0  0  0  0  0  0  0
   12.9116  -13.5574   20.8180 O   0  0  0  0  0  0  0  0  0  0  0  0
   15.4933  -14.8699   15.8149 O   0  0  0  0  0  0  0  0  0  0  0  0
   13.0480  -15.8431   20.9504 N   0  0  0  0  0  0  0  0  0  0  0  0
   13.3181  -15.7513   22.4048 C   0  0  1  0  0  0  0  0  0  0  0  0
   12.4127  -16.6766   23.1297 C   0  0  0  0  0  0  0  0  0  0  0  0
   12.6179  -16.7992   24.5923 C   0  0  0  0  0  0  0  0  0  0  0  0
   11.6790  -17.6799   25.2990 C   0  0  0  0  0  0  0  0  0  0  0  0
   10.8822  -18.5008   24.7362 O   0  0  0  0  0  0  0  0  0  0  0  0
   14.7495  -15.8603   22.5979 C   0  0  0  0  0  0  0  0  0  0  0  0
   15.5796  -16.3577   21.6048 O   0  0  0  0  0  0  0  0  0  0  0  0
   11.6473  -17.6234   26.6909 O   0  0  0  0  0  0  0  0  0  0  0  0
   15.2848  -15.5054   23.6771 O   0  0  0  0  0  0  0  0  0  0  0  0
  2  5  1  0
  2  1  1  1
  3  2  1  0
  4  3  1  0
  5  6  2  0
  7  8  1  0
  7  5  1  0
  8  9  1  6
  9 10  1  0
 10 11  1  0
 11 15  1  0
 11 12  2  0
 13  8  1  0
 14 13  2  0
 16 13  1  0
 17 18  1  1
 17 16  1  0
 18 19  1  0
 20 19  1  0
 20 21  2  0
 22 23  1  0
 22 17  1  0
 24 20  1  0
 25 22  2  0
M  END
$$$$
