CEE.pdb
     RDKit          3D

 25 24  0  0  1  0  0  0  0  0999 V2000
    5.5654  -13.6293   26.7437 N   0  0  0  0  0  0  0  0  0  0  0  0
    6.2547  -12.9983   25.6498 C   0  0  1  0  0  0  0  0  0  0  0  0
    7.1654  -11.8755   26.1233 C   0  0  0  0  0  0  0  0  0  0  0  0
    8.3416  -12.5291   27.3539 S   0  0  0  0  0  0  0  0  0  0  0  0
    7.1091  -14.0071   24.9788 C   0  0  0  0  0  0  0  0  0  0  0  0
    7.5516  -14.9793   25.5992 O   0  0  0  0  0  0  0  0  0  0  0  0
    7.4517  -13.8942   23.5958 N   0  0  0  0  0  0  0  0  0  0  0  0
    8.2412  -14.8528   22.8960 C   0  0  1  0  0  0  0  0  0  0  0  0
    8.3229  -14.5854   21.4159 C   0  0  0  0  0  0  0  0  0  0  0  0
    6.9917  -14.8001   20.7443 C   0  0  0  0  0  0  0  0  0  0  0  0
    6.8094  -16.2150   20.3280 C   0  0  0  0  0  0  0  0  0  0  0  0
    5.7391  -16.7920   20.6387 O   0  0  0  0  0  0  0  0  0  0  0  0
    9.5665  -15.0616   23.5103 C   0  0  0  0  0  0  0  0  0  0  0  0
   10.3069  -14.0742   23.6804 O   0  0  0  0  0  0  0  0  0  0  0  0
    7.7655  -16.9127   19.6186 O   0  0  0  0  0  0  0  0  0  0  0  0
   10.0011  -16.3366   23.9003 N   0  0  0  0  0  0  0  0  0  0  0  0
   11.3374  -16.4550   24.5304 C   0  0  1  0  0  0  0  0  0  0  0  0
   11.1793  -16.9326   25.9262 C   0  0  0  0  0  0  0  0  0  0  0  0
   10.3217  -18.1242   26.1291 C   0  0  0  0  0  0  0  0  0  0  0  0
   10.3430  -18.7063   27.4772 C   0  0  0  0  0  0  0  0  0  0  0  0
   11.1249  -18.3448   28.4171 O   0  0  0  0  0  0  0  0  0  0  0  0
   12.1936  -17.1881   23.6206 C   0  0  0  0  0  0  0  0  0  0  0  0
   11.6940  -17.7722   22.4665 O   0  0  0  0  0  0  0  0  0  0  0  0
    9.4449  -19.7326   27.7630 O   0  0  0  0  0  0  0  0  0  0  0  0
   13.4212  -17.3173   23.8512 O   0  0  0  0  0  0  0  0  0  0  0  0
  2  5  1  0
  2  1  1  1
  3  2  1  0
  4  3  1  0
  5  6  2  0
  7  8  1  0
  7  5  1  0
  8  9  1  6
  9 10  1  0
 10 11  1  0
 11 15  1  0
 11 12  2  0
 13  8  1  0
 14 13  2  0
 16 13  1  0
 17 18  1  1
 17 16  1  0
 18 19  1  0
 20 19  1  0
 20 21  2  0
 22 23  1  0
 22 17  1  0
 24 20  1  0
 25 22  2  0
M  END
$$$$
