CEE.pdb
     RDKit          3D

 25 24  0  0  1  0  0  0  0  0999 V2000
    5.1382  -13.7772   26.3462 N   0  0  0  0  0  0  0  0  0  0  0  0
    6.2949  -13.2279   25.6903 C   0  0  1  0  0  0  0  0  0  0  0  0
    7.2304  -12.5370   26.6710 C   0  0  0  0  0  0  0  0  0  0  0  0
    6.4750  -10.9737   27.2283 S   0  0  0  0  0  0  0  0  0  0  0  0
    7.0549  -14.3331   25.0586 C   0  0  0  0  0  0  0  0  0  0  0  0
    7.2610  -15.3901   25.6636 O   0  0  0  0  0  0  0  0  0  0  0  0
    7.5752  -14.2186   23.7323 N   0  0  0  0  0  0  0  0  0  0  0  0
    8.3823  -15.2158   23.1108 C   0  0  1  0  0  0  0  0  0  0  0  0
    8.5116  -15.0295   21.6217 C   0  0  0  0  0  0  0  0  0  0  0  0
    7.3240  -15.5998   20.8913 C   0  0  0  0  0  0  0  0  0  0  0  0
    7.4037  -15.3424   19.4298 C   0  0  0  0  0  0  0  0  0  0  0  0
    6.7013  -14.4196   18.9504 O   0  0  0  0  0  0  0  0  0  0  0  0
    9.6868  -15.3940   23.7771 C   0  0  0  0  0  0  0  0  0  0  0  0
   10.0105  -14.5958   24.6771 O   0  0  0  0  0  0  0  0  0  0  0  0
    8.2146  -16.0746   18.5869 O   0  0  0  0  0  0  0  0  0  0  0  0
   10.5573  -16.4334   23.4183 N   0  0  0  0  0  0  0  0  0  0  0  0
   11.5918  -16.8451   24.3965 C   0  0  1  0  0  0  0  0  0  0  0  0
   10.9312  -17.2953   25.6465 C   0  0  0  0  0  0  0  0  0  0  0  0
   11.8188  -17.7625   26.7376 C   0  0  0  0  0  0  0  0  0  0  0  0
   11.1528  -18.1151   27.9980 C   0  0  0  0  0  0  0  0  0  0  0  0
   11.7463  -18.5305   29.0471 O   0  0  0  0  0  0  0  0  0  0  0  0
   12.5139  -17.7338   23.7196 C   0  0  0  0  0  0  0  0  0  0  0  0
   13.8397  -17.8390   24.1116 O   0  0  0  0  0  0  0  0  0  0  0  0
    9.7666  -17.9903   28.0649 O   0  0  0  0  0  0  0  0  0  0  0  0
   12.1378  -18.4398   22.7515 O   0  0  0  0  0  0  0  0  0  0  0  0
  2  5  1  0
  2  1  1  1
  3  2  1  0
  4  3  1  0
  5  6  2  0
  7  8  1  0
  7  5  1  0
  8  9  1  6
  9 10  1  0
 10 11  1  0
 11 15  1  0
 11 12  2  0
 13  8  1  0
 14 13  2  0
 16 13  1  0
 17 18  1  1
 17 16  1  0
 18 19  1  0
 20 19  1  0
 20 21  2  0
 22 23  1  0
 22 17  1  0
 24 20  1  0
 25 22  2  0
M  END
$$$$
