CEE.pdb
     RDKit          3D

 25 24  0  0  1  0  0  0  0  0999 V2000
    7.3156  -18.2769   18.3180 N   0  0  0  0  0  0  0  0  0  0  0  0
    8.6829  -18.0100   18.6776 C   0  0  1  0  0  0  0  0  0  0  0  0
    9.2300  -16.7839   17.9625 C   0  0  0  0  0  0  0  0  0  0  0  0
   10.9641  -16.5175   18.4595 S   0  0  0  0  0  0  0  0  0  0  0  0
    8.7489  -17.7385   20.1337 C   0  0  0  0  0  0  0  0  0  0  0  0
    8.7153  -16.5823   20.5670 O   0  0  0  0  0  0  0  0  0  0  0  0
    8.8534  -18.7986   21.0866 N   0  0  0  0  0  0  0  0  0  0  0  0
    9.0208  -18.5895   22.4867 C   0  0  1  0  0  0  0  0  0  0  0  0
    8.0502  -19.3806   23.3238 C   0  0  0  0  0  0  0  0  0  0  0  0
    8.2014  -20.8609   23.0891 C   0  0  0  0  0  0  0  0  0  0  0  0
    7.2784  -21.6491   23.9466 C   0  0  0  0  0  0  0  0  0  0  0  0
    6.5155  -21.0276   24.7254 O   0  0  0  0  0  0  0  0  0  0  0  0
   10.4192  -18.7558   22.9275 C   0  0  0  0  0  0  0  0  0  0  0  0
   11.1314  -19.5969   22.3466 O   0  0  0  0  0  0  0  0  0  0  0  0
    7.2295  -23.0278   23.9189 O   0  0  0  0  0  0  0  0  0  0  0  0
   10.9529  -17.9931   23.9764 N   0  0  0  0  0  0  0  0  0  0  0  0
   12.3812  -18.1862   24.3220 C   0  0  1  0  0  0  0  0  0  0  0  0
   13.2025  -17.2021   23.5747 C   0  0  0  0  0  0  0  0  0  0  0  0
   14.6513  -17.1715   23.8855 C   0  0  0  0  0  0  0  0  0  0  0  0
   15.4640  -16.2681   23.0608 C   0  0  0  0  0  0  0  0  0  0  0  0
   16.7039  -16.4251   22.8090 O   0  0  0  0  0  0  0  0  0  0  0  0
   12.4839  -18.2480   25.7655 C   0  0  0  0  0  0  0  0  0  0  0  0
   11.4134  -17.9201   26.5835 O   0  0  0  0  0  0  0  0  0  0  0  0
   14.8439  -15.1505   22.5056 O   0  0  0  0  0  0  0  0  0  0  0  0
   13.5520  -18.6028   26.3227 O   0  0  0  0  0  0  0  0  0  0  0  0
  2  5  1  0
  2  1  1  6
  3  2  1  0
  4  3  1  0
  5  6  2  0
  7  8  1  0
  7  5  1  0
  8  9  1  1
  9 10  1  0
 10 11  1  0
 11 15  1  0
 11 12  2  0
 13  8  1  0
 14 13  2  0
 16 13  1  0
 17 18  1  1
 17 16  1  0
 18 19  1  0
 20 19  1  0
 20 21  2  0
 22 23  1  0
 22 17  1  0
 24 20  1  0
 25 22  2  0
M  END
$$$$
