CEE.pdb
     RDKit          3D

 25 24  0  0  1  0  0  0  0  0999 V2000
    6.8330  -14.7721   21.3440 N   0  0  0  0  0  0  0  0  0  0  0  0
    7.5476  -14.8363   20.0970 C   0  0  1  0  0  0  0  0  0  0  0  0
    8.5455  -13.6971   19.9539 C   0  0  0  0  0  0  0  0  0  0  0  0
    7.6451  -12.1163   19.8301 S   0  0  0  0  0  0  0  0  0  0  0  0
    8.3148  -16.1042   20.0515 C   0  0  0  0  0  0  0  0  0  0  0  0
    8.7525  -16.6198   21.0851 O   0  0  0  0  0  0  0  0  0  0  0  0
    8.5758  -16.7749   18.8167 N   0  0  0  0  0  0  0  0  0  0  0  0
    9.3246  -17.9837   18.7165 C   0  0  1  0  0  0  0  0  0  0  0  0
    9.2675  -18.6035   17.3448 C   0  0  0  0  0  0  0  0  0  0  0  0
   10.0436  -19.8935   17.2919 C   0  0  0  0  0  0  0  0  0  0  0  0
    9.9385  -20.5423   15.9590 C   0  0  0  0  0  0  0  0  0  0  0  0
    8.8935  -21.1838   15.6918 O   0  0  0  0  0  0  0  0  0  0  0  0
   10.7043  -17.8465   19.2216 C   0  0  0  0  0  0  0  0  0  0  0  0
   11.2702  -16.7416   19.1171 O   0  0  0  0  0  0  0  0  0  0  0  0
   10.9392  -20.4668   15.0120 O   0  0  0  0  0  0  0  0  0  0  0  0
   11.3805  -18.9254   19.8093 N   0  0  0  0  0  0  0  0  0  0  0  0
   12.5548  -18.6298   20.6638 C   0  0  1  0  0  0  0  0  0  0  0  0
   12.1800  -17.6102   21.6745 C   0  0  0  0  0  0  0  0  0  0  0  0
   13.1715  -17.3338   22.7408 C   0  0  0  0  0  0  0  0  0  0  0  0
   12.7997  -16.2913   23.7060 C   0  0  0  0  0  0  0  0  0  0  0  0
   11.7369  -16.2928   24.4103 O   0  0  0  0  0  0  0  0  0  0  0  0
   13.1145  -19.8923   21.1010 C   0  0  0  0  0  0  0  0  0  0  0  0
   12.3319  -21.0309   21.2177 O   0  0  0  0  0  0  0  0  0  0  0  0
   13.6665  -15.2133   23.8739 O   0  0  0  0  0  0  0  0  0  0  0  0
   14.3326  -19.9940   21.3890 O   0  0  0  0  0  0  0  0  0  0  0  0
  2  5  1  0
  2  1  1  1
  3  2  1  0
  4  3  1  0
  5  6  2  0
  7  8  1  0
  7  5  1  0
  8  9  1  6
  9 10  1  0
 10 11  1  0
 11 15  1  0
 11 12  2  0
 13  8  1  0
 14 13  2  0
 16 13  1  0
 17 18  1  1
 17 16  1  0
 18 19  1  0
 20 19  1  0
 20 21  2  0
 22 23  1  0
 22 17  1  0
 24 20  1  0
 25 22  2  0
M  END
$$$$
