CEE.pdb
     RDKit          3D

 25 24  0  0  1  0  0  0  0  0999 V2000
   11.4936  -17.4588   31.5352 N   0  0  0  0  0  0  0  0  0  0  0  0
   12.0076  -18.4501   30.6280 C   0  0  1  0  0  0  0  0  0  0  0  0
   11.9230  -17.9937   29.1793 C   0  0  0  0  0  0  0  0  0  0  0  0
   10.2157  -18.2090   28.5761 S   0  0  0  0  0  0  0  0  0  0  0  0
   13.4394  -18.6815   30.9356 C   0  0  0  0  0  0  0  0  0  0  0  0
   14.1814  -17.7455   31.2503 O   0  0  0  0  0  0  0  0  0  0  0  0
   14.0128  -19.9895   30.8801 N   0  0  0  0  0  0  0  0  0  0  0  0
   15.3897  -20.2604   31.1310 C   0  0  1  0  0  0  0  0  0  0  0  0
   15.6053  -21.4581   32.0186 C   0  0  0  0  0  0  0  0  0  0  0  0
   15.0399  -21.2303   33.3961 C   0  0  0  0  0  0  0  0  0  0  0  0
   15.2671  -22.4012   34.2826 C   0  0  0  0  0  0  0  0  0  0  0  0
   16.1443  -22.3086   35.1752 O   0  0  0  0  0  0  0  0  0  0  0  0
   16.1970  -20.3143   29.8969 C   0  0  0  0  0  0  0  0  0  0  0  0
   15.6337  -20.6212   28.8290 O   0  0  0  0  0  0  0  0  0  0  0  0
   14.5554  -23.5772   34.1617 O   0  0  0  0  0  0  0  0  0  0  0  0
   17.5702  -20.0299   29.9063 N   0  0  0  0  0  0  0  0  0  0  0  0
   18.2726  -19.9417   28.6041 C   0  0  1  0  0  0  0  0  0  0  0  0
   19.4560  -19.0580   28.7456 C   0  0  0  0  0  0  0  0  0  0  0  0
   20.4685  -19.4571   29.7515 C   0  0  0  0  0  0  0  0  0  0  0  0
   21.5126  -18.4647   30.0375 C   0  0  0  0  0  0  0  0  0  0  0  0
   21.6341  -17.3410   29.4477 O   0  0  0  0  0  0  0  0  0  0  0  0
   18.4472  -21.2893   28.1022 C   0  0  0  0  0  0  0  0  0  0  0  0
   18.6787  -21.5382   26.7580 O   0  0  0  0  0  0  0  0  0  0  0  0
   22.4475  -18.7625   31.0269 O   0  0  0  0  0  0  0  0  0  0  0  0
   18.3940  -22.2783   28.8743 O   0  0  0  0  0  0  0  0  0  0  0  0
  2  5  1  0
  2  1  1  1
  3  2  1  0
  4  3  1  0
  5  6  2  0
  7  8  1  0
  7  5  1  0
  8  9  1  6
  9 10  1  0
 10 11  1  0
 11 15  1  0
 11 12  2  0
 13  8  1  0
 14 13  2  0
 16 13  1  0
 17 18  1  1
 17 16  1  0
 18 19  1  0
 20 19  1  0
 20 21  2  0
 22 23  1  0
 22 17  1  0
 24 20  1  0
 25 22  2  0
M  END
$$$$
