WHF.pdb
     RDKit          3D

 36 39  0  0  1  0  0  0  0  0999 V2000
   20.7994  -11.7822  -21.3274 N   0  0  0  0  0  0  0  0  0  0  0  0
   21.1464  -10.4751  -20.8579 C   0  0  1  0  0  0  0  0  0  0  0  0
   20.7042   -9.3766  -21.8020 C   0  0  0  0  0  0  0  0  0  0  0  0
   21.3161   -9.4901  -23.1287 C   0  0  0  0  0  0  0  0  0  0  0  0
   22.1993  -10.4188  -23.6347 C   0  0  0  0  0  0  0  0  0  0  0  0
   22.4691  -10.0927  -24.9142 N   0  0  0  0  0  0  0  0  0  0  0  0
   21.8007   -8.9845  -25.2796 C   0  0  0  0  0  0  0  0  0  0  0  0
   21.7571   -8.2790  -26.4715 C   0  0  0  0  0  0  0  0  0  0  0  0
   20.9498   -7.1408  -26.5425 C   0  0  0  0  0  0  0  0  0  0  0  0
   20.2207   -6.7439  -25.4423 C   0  0  0  0  0  0  0  0  0  0  0  0
   20.2886   -7.4661  -24.2806 C   0  0  0  0  0  0  0  0  0  0  0  0
   21.0810   -8.6092  -24.1636 C   0  0  0  0  0  0  0  0  0  0  0  0
   20.6120  -10.2036  -19.4984 C   0  0  0  0  0  0  0  0  0  0  0  0
   19.4159  -10.4851  -19.2267 O   0  0  0  0  0  0  0  0  0  0  0  0
   21.4543   -9.6330  -18.5296 N   0  0  0  0  0  0  0  0  0  0  0  0
   20.9221   -9.3062  -17.1492 C   0  0  1  0  0  0  0  0  0  0  0  0
   22.0616   -9.5352  -16.2177 C   0  0  0  0  0  0  0  0  0  0  0  0
   21.8717   -9.2612  -14.7952 C   0  0  0  0  0  0  0  0  0  0  0  0
   20.6790   -8.7506  -14.2342 C   0  0  0  0  0  0  0  0  0  0  0  0
   20.9064   -8.6449  -12.9281 N   0  0  0  0  0  0  0  0  0  0  0  0
   22.1476   -9.0497  -12.6310 C   0  0  0  0  0  0  0  0  0  0  0  0
   22.6993   -9.4132  -13.7767 N   0  0  0  0  0  0  0  0  0  0  0  0
   20.4810   -7.8971  -17.2843 C   0  0  0  0  0  0  0  0  0  0  0  0
   21.2244   -7.0742  -17.9392 O   0  0  0  0  0  0  0  0  0  0  0  0
   19.3000   -7.3240  -16.7701 N   0  0  0  0  0  0  0  0  0  0  0  0
   19.0363   -5.8918  -16.8420 C   0  0  1  0  0  0  0  0  0  0  0  0
   17.5607   -5.6907  -17.2021 C   0  0  0  0  0  0  0  0  0  0  0  0
   17.2357   -4.2343  -17.3047 C   0  0  0  0  0  0  0  0  0  0  0  0
   17.6546   -3.4394  -18.3341 C   0  0  0  0  0  0  0  0  0  0  0  0
   17.3047   -2.0854  -18.3472 C   0  0  0  0  0  0  0  0  0  0  0  0
   16.5404   -1.5345  -17.3346 C   0  0  0  0  0  0  0  0  0  0  0  0
   16.1165   -2.3252  -16.2989 C   0  0  0  0  0  0  0  0  0  0  0  0
   16.4734   -3.6489  -16.3102 C   0  0  0  0  0  0  0  0  0  0  0  0
   19.2680   -5.2172  -15.5471 C   0  0  0  0  0  0  0  0  0  0  0  0
   18.9498   -5.7116  -14.4363 O   0  0  0  0  0  0  0  0  0  0  0  0
   19.8694   -3.9737  -15.5735 O   0  0  0  0  0  0  0  0  0  0  0  0
  2  1  1  6
  3  2  1  0
  4  3  1  0
  5  4  2  0
  6  7  1  0
  6  5  1  0
  7 12  2  0
  8  7  1  0
  8  9  2  0
  9 10  1  0
 10 11  2  0
 12  4  1  0
 12 11  1  0
 13 14  2  0
 13  2  1  0
 15 13  1  0
 16 15  1  0
 16 17  1  1
 18 17  1  0
 19 18  2  0
 20 19  1  0
 21 20  1  0
 21 22  2  0
 22 18  1  0
 23 16  1  0
 24 23  2  0
 25 23  1  0
 26 34  1  0
 26 25  1  0
 26 27  1  1
 28 33  1  0
 28 27  1  0
 29 28  2  0
 30 31  2  0
 30 29  1  0
 31 32  1  0
 32 33  2  0
 34 36  1  0
 35 34  2  0
M  END
$$$$
