WHF.pdb
     RDKit          3D

 36 39  0  0  1  0  0  0  0  0999 V2000
   27.2067  -20.6464  -17.6867 N   0  0  0  0  0  0  0  0  0  0  0  0
   26.1317  -20.7968  -16.7532 C   0  0  1  0  0  0  0  0  0  0  0  0
   25.8744  -19.5402  -15.9482 C   0  0  0  0  0  0  0  0  0  0  0  0
   26.7470  -19.4302  -14.7760 C   0  0  0  0  0  0  0  0  0  0  0  0
   27.8898  -18.6878  -14.5727 C   0  0  0  0  0  0  0  0  0  0  0  0
   28.3323  -18.9263  -13.3223 N   0  0  0  0  0  0  0  0  0  0  0  0
   27.5297  -19.7975  -12.6857 C   0  0  0  0  0  0  0  0  0  0  0  0
   27.5743  -20.3374  -11.4103 C   0  0  0  0  0  0  0  0  0  0  0  0
   26.5740  -21.2369  -11.0326 C   0  0  0  0  0  0  0  0  0  0  0  0
   25.5739  -21.5678  -11.9214 C   0  0  0  0  0  0  0  0  0  0  0  0
   25.5621  -21.0140  -13.1740 C   0  0  0  0  0  0  0  0  0  0  0  0
   26.5400  -20.1114  -13.5948 C   0  0  0  0  0  0  0  0  0  0  0  0
   24.8712  -21.2306  -17.4094 C   0  0  0  0  0  0  0  0  0  0  0  0
   24.5247  -20.7163  -18.5044 O   0  0  0  0  0  0  0  0  0  0  0  0
   24.0791  -22.2145  -16.7945 N   0  0  0  0  0  0  0  0  0  0  0  0
   22.7387  -22.5989  -17.3872 C   0  0  1  0  0  0  0  0  0  0  0  0
   22.6710  -24.0838  -17.2912 C   0  0  0  0  0  0  0  0  0  0  0  0
   21.4951  -24.7689  -17.8226 C   0  0  0  0  0  0  0  0  0  0  0  0
   20.2256  -24.7715  -17.2011 C   0  0  0  0  0  0  0  0  0  0  0  0
   19.4355  -25.4958  -17.9886 N   0  0  0  0  0  0  0  0  0  0  0  0
   20.1132  -25.9449  -19.0524 C   0  0  0  0  0  0  0  0  0  0  0  0
   21.3477  -25.4891  -18.9203 N   0  0  0  0  0  0  0  0  0  0  0  0
   21.7724  -21.8595  -16.5399 C   0  0  0  0  0  0  0  0  0  0  0  0
   20.5141  -21.9717  -16.7908 O   0  0  0  0  0  0  0  0  0  0  0  0
   22.0702  -21.0203  -15.4468 N   0  0  0  0  0  0  0  0  0  0  0  0
   21.0284  -20.4149  -14.6258 C   0  0  1  0  0  0  0  0  0  0  0  0
   21.6945  -19.4665  -13.6236 C   0  0  0  0  0  0  0  0  0  0  0  0
   22.5742  -18.4845  -14.3299 C   0  0  0  0  0  0  0  0  0  0  0  0
   23.8221  -18.7898  -14.7956 C   0  0  0  0  0  0  0  0  0  0  0  0
   24.5766  -17.8064  -15.4434 C   0  0  0  0  0  0  0  0  0  0  0  0
   24.0819  -16.5272  -15.6219 C   0  0  0  0  0  0  0  0  0  0  0  0
   22.8313  -16.2135  -15.1577 C   0  0  0  0  0  0  0  0  0  0  0  0
   22.1127  -17.1957  -14.5263 C   0  0  0  0  0  0  0  0  0  0  0  0
   20.0831  -19.6110  -15.4293 C   0  0  0  0  0  0  0  0  0  0  0  0
   20.2725  -19.3106  -16.6349 O   0  0  0  0  0  0  0  0  0  0  0  0
   18.9299  -19.1717  -14.8080 O   0  0  0  0  0  0  0  0  0  0  0  0
  2  1  1  6
  3  2  1  0
  4  3  1  0
  5  4  2  0
  6  7  1  0
  6  5  1  0
  7 12  2  0
  8  7  1  0
  8  9  2  0
  9 10  1  0
 10 11  2  0
 12  4  1  0
 12 11  1  0
 13 14  2  0
 13  2  1  0
 15 13  1  0
 16 15  1  0
 16 17  1  1
 18 17  1  0
 19 18  2  0
 20 19  1  0
 21 20  1  0
 21 22  2  0
 22 18  1  0
 23 16  1  0
 24 23  2  0
 25 23  1  0
 26 34  1  0
 26 25  1  0
 26 27  1  1
 28 33  1  0
 28 27  1  0
 29 28  2  0
 30 31  2  0
 30 29  1  0
 31 32  1  0
 32 33  2  0
 34 36  1  0
 35 34  2  0
M  END
$$$$
