WHF.pdb
     RDKit          3D

 36 39  0  0  1  0  0  0  0  0999 V2000
   30.8102  -22.7839  -17.5727 N   0  0  0  0  0  0  0  0  0  0  0  0
   29.8470  -23.2708  -16.6322 C   0  0  1  0  0  0  0  0  0  0  0  0
   30.4793  -23.7619  -15.3467 C   0  0  0  0  0  0  0  0  0  0  0  0
   31.7020  -24.5361  -15.5771 C   0  0  0  0  0  0  0  0  0  0  0  0
   32.1365  -25.2195  -16.6919 C   0  0  0  0  0  0  0  0  0  0  0  0
   33.3315  -25.7745  -16.4086 N   0  0  0  0  0  0  0  0  0  0  0  0
   33.7093  -25.4877  -15.1503 C   0  0  0  0  0  0  0  0  0  0  0  0
   34.8368  -25.8286  -14.4206 C   0  0  0  0  0  0  0  0  0  0  0  0
   34.9435  -25.3683  -13.1057 C   0  0  0  0  0  0  0  0  0  0  0  0
   33.9403  -24.5941  -12.5636 C   0  0  0  0  0  0  0  0  0  0  0  0
   32.8400  -24.2770  -13.3150 C   0  0  0  0  0  0  0  0  0  0  0  0
   32.6907  -24.7142  -14.6321 C   0  0  0  0  0  0  0  0  0  0  0  0
   28.8057  -22.2592  -16.3162 C   0  0  0  0  0  0  0  0  0  0  0  0
   29.0289  -21.0399  -16.5336 O   0  0  0  0  0  0  0  0  0  0  0  0
   27.5793  -22.6804  -15.7757 N   0  0  0  0  0  0  0  0  0  0  0  0
   26.4557  -21.6868  -15.5611 C   0  0  1  0  0  0  0  0  0  0  0  0
   25.3238  -22.1781  -16.3955 C   0  0  0  0  0  0  0  0  0  0  0  0
   24.0459  -21.4729  -16.3306 C   0  0  0  0  0  0  0  0  0  0  0  0
   23.7938  -20.3546  -15.5038 C   0  0  0  0  0  0  0  0  0  0  0  0
   22.5302  -20.0088  -15.7333 N   0  0  0  0  0  0  0  0  0  0  0  0
   21.9749  -20.8241  -16.6386 C   0  0  0  0  0  0  0  0  0  0  0  0
   22.9141  -21.6920  -16.9759 N   0  0  0  0  0  0  0  0  0  0  0  0
   26.2376  -21.7379  -14.0954 C   0  0  0  0  0  0  0  0  0  0  0  0
   26.3448  -22.8702  -13.4911 O   0  0  0  0  0  0  0  0  0  0  0  0
   25.9208  -20.6582  -13.2459 N   0  0  0  0  0  0  0  0  0  0  0  0
   25.7901  -20.8178  -11.8025 C   0  0  1  0  0  0  0  0  0  0  0  0
   26.1617  -19.4898  -11.1349 C   0  0  0  0  0  0  0  0  0  0  0  0
   26.8588  -19.7296   -9.8335 C   0  0  0  0  0  0  0  0  0  0  0  0
   26.2714  -19.5294   -8.6160 C   0  0  0  0  0  0  0  0  0  0  0  0
   27.0006  -19.7777   -7.4487 C   0  0  0  0  0  0  0  0  0  0  0  0
   28.3088  -20.2235   -7.5039 C   0  0  0  0  0  0  0  0  0  0  0  0
   28.9046  -20.4266   -8.7210 C   0  0  0  0  0  0  0  0  0  0  0  0
   28.1678  -20.1756   -9.8497 C   0  0  0  0  0  0  0  0  0  0  0  0
   24.4039  -21.1382  -11.4010 C   0  0  0  0  0  0  0  0  0  0  0  0
   23.3951  -20.8689  -12.1006 O   0  0  0  0  0  0  0  0  0  0  0  0
   24.2207  -21.7697  -10.1859 O   0  0  0  0  0  0  0  0  0  0  0  0
  2  1  1  6
  3  2  1  0
  4  3  1  0
  5  4  2  0
  6  7  1  0
  6  5  1  0
  7 12  2  0
  8  7  1  0
  8  9  2  0
  9 10  1  0
 10 11  2  0
 12  4  1  0
 12 11  1  0
 13 14  2  0
 13  2  1  0
 15 13  1  0
 16 15  1  0
 16 17  1  6
 18 17  1  0
 19 18  2  0
 20 19  1  0
 21 20  1  0
 21 22  2  0
 22 18  1  0
 23 16  1  0
 24 23  2  0
 25 23  1  0
 26 34  1  0
 26 25  1  0
 26 27  1  1
 28 33  1  0
 28 27  1  0
 29 28  2  0
 30 31  2  0
 30 29  1  0
 31 32  1  0
 32 33  2  0
 34 36  1  0
 35 34  2  0
M  END
$$$$
