WHF.pdb
     RDKit          3D

 36 39  0  0  1  0  0  0  0  0999 V2000
   25.2615  -12.7096  -20.2362 N   0  0  0  0  0  0  0  0  0  0  0  0
   24.9843  -13.4105  -19.0192 C   0  0  1  0  0  0  0  0  0  0  0  0
   23.9580  -12.7053  -18.1573 C   0  0  0  0  0  0  0  0  0  0  0  0
   24.4579  -11.4469  -17.5972 C   0  0  0  0  0  0  0  0  0  0  0  0
   24.1070  -10.1416  -17.8651 C   0  0  0  0  0  0  0  0  0  0  0  0
   24.8552   -9.3343  -17.0875 N   0  0  0  0  0  0  0  0  0  0  0  0
   25.6897  -10.0502  -16.3131 C   0  0  0  0  0  0  0  0  0  0  0  0
   26.6324   -9.6726  -15.3703 C   0  0  0  0  0  0  0  0  0  0  0  0
   27.3590  -10.6719  -14.7178 C   0  0  0  0  0  0  0  0  0  0  0  0
   27.1298  -11.9975  -15.0181 C   0  0  0  0  0  0  0  0  0  0  0  0
   26.1898  -12.3331  -15.9558 C   0  0  0  0  0  0  0  0  0  0  0  0
   25.4404  -11.3694  -16.6324 C   0  0  0  0  0  0  0  0  0  0  0  0
   24.5492  -14.8105  -19.2608 C   0  0  0  0  0  0  0  0  0  0  0  0
   23.8851  -15.0919  -20.2921 O   0  0  0  0  0  0  0  0  0  0  0  0
   24.8871  -15.8062  -18.3293 N   0  0  0  0  0  0  0  0  0  0  0  0
   24.5342  -17.2555  -18.5958 C   0  0  1  0  0  0  0  0  0  0  0  0
   25.7482  -18.0359  -18.2274 C   0  0  0  0  0  0  0  0  0  0  0  0
   25.7031  -19.4929  -18.3267 C   0  0  0  0  0  0  0  0  0  0  0  0
   24.5338  -20.2370  -18.6036 C   0  0  0  0  0  0  0  0  0  0  0  0
   24.9069  -21.5136  -18.6105 N   0  0  0  0  0  0  0  0  0  0  0  0
   26.2176  -21.6234  -18.3595 C   0  0  0  0  0  0  0  0  0  0  0  0
   26.6642  -20.3896  -18.1941 N   0  0  0  0  0  0  0  0  0  0  0  0
   23.3476  -17.4760  -17.7347 C   0  0  0  0  0  0  0  0  0  0  0  0
   23.3411  -16.9770  -16.5473 O   0  0  0  0  0  0  0  0  0  0  0  0
   22.1767  -18.1868  -18.0682 N   0  0  0  0  0  0  0  0  0  0  0  0
   21.0745  -18.3532  -17.1282 C   0  0  1  0  0  0  0  0  0  0  0  0
   19.7588  -18.2774  -17.9095 C   0  0  0  0  0  0  0  0  0  0  0  0
   19.7602  -19.2537  -19.0427 C   0  0  0  0  0  0  0  0  0  0  0  0
   19.3157  -20.5408  -18.9288 C   0  0  0  0  0  0  0  0  0  0  0  0
   19.3561  -21.3860  -20.0424 C   0  0  0  0  0  0  0  0  0  0  0  0
   19.8390  -20.9419  -21.2601 C   0  0  0  0  0  0  0  0  0  0  0  0
   20.2865  -19.6525  -21.3821 C   0  0  0  0  0  0  0  0  0  0  0  0
   20.2359  -18.8449  -20.2752 C   0  0  0  0  0  0  0  0  0  0  0  0
   21.1104  -19.6692  -16.4555 C   0  0  0  0  0  0  0  0  0  0  0  0
   21.9002  -20.5937  -16.7732 O   0  0  0  0  0  0  0  0  0  0  0  0
   20.2203  -19.8816  -15.4203 O   0  0  0  0  0  0  0  0  0  0  0  0
  2  1  1  6
  3  2  1  0
  4  3  1  0
  5  4  2  0
  6  7  1  0
  6  5  1  0
  7 12  2  0
  8  7  1  0
  8  9  2  0
  9 10  1  0
 10 11  2  0
 12  4  1  0
 12 11  1  0
 13 14  2  0
 13  2  1  0
 15 13  1  0
 16 15  1  0
 16 17  1  1
 18 17  1  0
 19 18  2  0
 20 19  1  0
 21 20  1  0
 21 22  2  0
 22 18  1  0
 23 16  1  0
 24 23  2  0
 25 23  1  0
 26 34  1  0
 26 25  1  0
 26 27  1  6
 28 33  1  0
 28 27  1  0
 29 28  2  0
 30 31  2  0
 30 29  1  0
 31 32  1  0
 32 33  2  0
 34 36  1  0
 35 34  2  0
M  END
$$$$
