WHF.pdb
     RDKit          3D

 36 39  0  0  1  0  0  0  0  0999 V2000
   13.9028  -16.4629    5.1018 N   0  0  0  0  0  0  0  0  0  0  0  0
   15.3117  -16.7164    5.1122 C   0  0  1  0  0  0  0  0  0  0  0  0
   16.0701  -15.8518    4.1269 C   0  0  0  0  0  0  0  0  0  0  0  0
   16.6931  -16.6305    3.0531 C   0  0  0  0  0  0  0  0  0  0  0  0
   16.4572  -17.9182    2.6234 C   0  0  0  0  0  0  0  0  0  0  0  0
   17.2907  -18.1812    1.5976 N   0  0  0  0  0  0  0  0  0  0  0  0
   18.0716  -17.1202    1.3277 C   0  0  0  0  0  0  0  0  0  0  0  0
   19.0628  -16.9156    0.3814 C   0  0  0  0  0  0  0  0  0  0  0  0
   19.7082  -15.6768    0.3499 C   0  0  0  0  0  0  0  0  0  0  0  0
   19.3538  -14.6927    1.2475 C   0  0  0  0  0  0  0  0  0  0  0  0
   18.3690  -14.9308    2.1691 C   0  0  0  0  0  0  0  0  0  0  0  0
   17.6973  -16.1523    2.2375 C   0  0  0  0  0  0  0  0  0  0  0  0
   15.9034  -16.5589    6.4660 C   0  0  0  0  0  0  0  0  0  0  0  0
   15.7005  -15.5033    7.1204 O   0  0  0  0  0  0  0  0  0  0  0  0
   16.6858  -17.5965    6.9996 N   0  0  0  0  0  0  0  0  0  0  0  0
   17.2741  -17.4742    8.3905 C   0  0  1  0  0  0  0  0  0  0  0  0
   16.9683  -18.7651    9.0679 C   0  0  0  0  0  0  0  0  0  0  0  0
   15.6585  -18.9375    9.6921 C   0  0  0  0  0  0  0  0  0  0  0  0
   15.0970  -18.0389   10.6276 C   0  0  0  0  0  0  0  0  0  0  0  0
   13.9103  -18.5443   10.9517 N   0  0  0  0  0  0  0  0  0  0  0  0
   13.6881  -19.6877   10.2913 C   0  0  0  0  0  0  0  0  0  0  0  0
   14.7593  -19.8937    9.5435 N   0  0  0  0  0  0  0  0  0  0  0  0
   18.7100  -17.2161    8.1263 C   0  0  0  0  0  0  0  0  0  0  0  0
   19.2502  -17.7308    7.0765 O   0  0  0  0  0  0  0  0  0  0  0  0
   19.5916  -16.4423    8.9084 N   0  0  0  0  0  0  0  0  0  0  0  0
   20.9732  -16.1992    8.5110 C   0  0  1  0  0  0  0  0  0  0  0  0
   21.4026  -14.8377    9.0673 C   0  0  0  0  0  0  0  0  0  0  0  0
   20.6929  -13.7292    8.3569 C   0  0  0  0  0  0  0  0  0  0  0  0
   21.1920  -13.1022    7.2501 C   0  0  0  0  0  0  0  0  0  0  0  0
   20.4595  -12.0723    6.6511 C   0  0  0  0  0  0  0  0  0  0  0  0
   19.2360  -11.6755    7.1596 C   0  0  0  0  0  0  0  0  0  0  0  0
   18.7288  -12.2996    8.2692 C   0  0  0  0  0  0  0  0  0  0  0  0
   19.4669  -13.3058    8.8370 C   0  0  0  0  0  0  0  0  0  0  0  0
   21.8981  -17.2110    9.0645 C   0  0  0  0  0  0  0  0  0  0  0  0
   23.1031  -17.3154    8.7233 O   0  0  0  0  0  0  0  0  0  0  0  0
   21.3968  -18.0851   10.0098 O   0  0  0  0  0  0  0  0  0  0  0  0
  2  1  1  1
  3  2  1  0
  4  3  1  0
  5  4  2  0
  6  7  1  0
  6  5  1  0
  7 12  2  0
  8  7  1  0
  8  9  2  0
  9 10  1  0
 10 11  2  0
 12  4  1  0
 12 11  1  0
 13 14  2  0
 13  2  1  0
 15 13  1  0
 16 15  1  0
 16 17  1  1
 18 17  1  0
 19 18  2  0
 20 19  1  0
 21 20  1  0
 21 22  2  0
 22 18  1  0
 23 16  1  0
 24 23  2  0
 25 23  1  0
 26 34  1  0
 26 25  1  0
 26 27  1  1
 28 33  1  0
 28 27  1  0
 29 28  2  0
 30 31  2  0
 30 29  1  0
 31 32  1  0
 32 33  2  0
 34 36  1  0
 35 34  2  0
M  END
$$$$
