WHF.pdb
     RDKit          3D

 36 39  0  0  1  0  0  0  0  0999 V2000
   23.5086  -19.7548  -15.9602 N   0  0  0  0  0  0  0  0  0  0  0  0
   24.1459  -19.1249  -14.8437 C   0  0  1  0  0  0  0  0  0  0  0  0
   23.1691  -18.3917  -13.9482 C   0  0  0  0  0  0  0  0  0  0  0  0
   22.3299  -17.4420  -14.6840 C   0  0  0  0  0  0  0  0  0  0  0  0
   20.9730  -17.4399  -14.9238 C   0  0  0  0  0  0  0  0  0  0  0  0
   20.6741  -16.3467  -15.6529 N   0  0  0  0  0  0  0  0  0  0  0  0
   21.7776  -15.6215  -15.9077 C   0  0  0  0  0  0  0  0  0  0  0  0
   21.9695  -14.4397  -16.6053 C   0  0  0  0  0  0  0  0  0  0  0  0
   23.2645  -13.9234  -16.6973 C   0  0  0  0  0  0  0  0  0  0  0  0
   24.3148  -14.5881  -16.1015 C   0  0  0  0  0  0  0  0  0  0  0  0
   24.0872  -15.7540  -15.4199 C   0  0  0  0  0  0  0  0  0  0  0  0
   22.8110  -16.3067  -15.3019 C   0  0  0  0  0  0  0  0  0  0  0  0
   24.9376  -20.0842  -14.0309 C   0  0  0  0  0  0  0  0  0  0  0  0
   24.5540  -21.2775  -13.9188 O   0  0  0  0  0  0  0  0  0  0  0  0
   26.1102  -19.6431  -13.3954 N   0  0  0  0  0  0  0  0  0  0  0  0
   26.9828  -20.6208  -12.6347 C   0  0  1  0  0  0  0  0  0  0  0  0
   28.3851  -20.1948  -12.9011 C   0  0  0  0  0  0  0  0  0  0  0  0
   29.4624  -20.7972  -12.1193 C   0  0  0  0  0  0  0  0  0  0  0  0
   29.2629  -21.7044  -11.0540 C   0  0  0  0  0  0  0  0  0  0  0  0
   30.4767  -22.0175  -10.6094 N   0  0  0  0  0  0  0  0  0  0  0  0
   31.4173  -21.3763  -11.3144 C   0  0  0  0  0  0  0  0  0  0  0  0
   30.7721  -20.6518  -12.2133 N   0  0  0  0  0  0  0  0  0  0  0  0
   26.5224  -20.4625  -11.2342 C   0  0  0  0  0  0  0  0  0  0  0  0
   26.1897  -19.2895  -10.8191 O   0  0  0  0  0  0  0  0  0  0  0  0
   26.3927  -21.4764  -10.2633 N   0  0  0  0  0  0  0  0  0  0  0  0
   26.3357  -21.1828   -8.8362 C   0  0  1  0  0  0  0  0  0  0  0  0
   27.2624  -19.9967   -8.5505 C   0  0  0  0  0  0  0  0  0  0  0  0
   27.6339  -19.9533   -7.1023 C   0  0  0  0  0  0  0  0  0  0  0  0
   28.5940  -20.7510   -6.5465 C   0  0  0  0  0  0  0  0  0  0  0  0
   28.8746  -20.6437   -5.1805 C   0  0  0  0  0  0  0  0  0  0  0  0
   28.1964  -19.7428   -4.3797 C   0  0  0  0  0  0  0  0  0  0  0  0
   27.2322  -18.9394   -4.9299 C   0  0  0  0  0  0  0  0  0  0  0  0
   26.9767  -19.0646   -6.2710 C   0  0  0  0  0  0  0  0  0  0  0  0
   24.9774  -20.7933   -8.4017 C   0  0  0  0  0  0  0  0  0  0  0  0
   24.1064  -20.3208   -9.1747 O   0  0  0  0  0  0  0  0  0  0  0  0
   24.6603  -20.9638   -7.0678 O   0  0  0  0  0  0  0  0  0  0  0  0
  2  1  1  6
  3  2  1  0
  4  3  1  0
  5  4  2  0
  6  7  1  0
  6  5  1  0
  7 12  2  0
  8  7  1  0
  8  9  2  0
  9 10  1  0
 10 11  2  0
 12  4  1  0
 12 11  1  0
 13 14  2  0
 13  2  1  0
 15 13  1  0
 16 15  1  0
 16 17  1  1
 18 17  1  0
 19 18  2  0
 20 19  1  0
 21 20  1  0
 21 22  2  0
 22 18  1  0
 23 16  1  0
 24 23  2  0
 25 23  1  0
 26 34  1  0
 26 25  1  0
 26 27  1  6
 28 33  1  0
 28 27  1  0
 29 28  2  0
 30 31  2  0
 30 29  1  0
 31 32  1  0
 32 33  2  0
 34 36  1  0
 35 34  2  0
M  END
$$$$
