WHF.pdb
     RDKit          3D

 36 39  0  0  1  0  0  0  0  0999 V2000
   28.6173  -29.4147  -21.6568 N   0  0  0  0  0  0  0  0  0  0  0  0
   29.0023  -28.3957  -20.7280 C   0  0  1  0  0  0  0  0  0  0  0  0
   29.1219  -27.0303  -21.3722 C   0  0  0  0  0  0  0  0  0  0  0  0
   30.1958  -26.9660  -22.3672 C   0  0  0  0  0  0  0  0  0  0  0  0
   30.1718  -27.1688  -23.7299 C   0  0  0  0  0  0  0  0  0  0  0  0
   31.4207  -26.9944  -24.2055 N   0  0  0  0  0  0  0  0  0  0  0  0
   32.2743  -26.6838  -23.2139 C   0  0  0  0  0  0  0  0  0  0  0  0
   33.6343  -26.4182  -23.2109 C   0  0  0  0  0  0  0  0  0  0  0  0
   34.2521  -26.1209  -21.9934 C   0  0  0  0  0  0  0  0  0  0  0  0
   33.5098  -26.0970  -20.8323 C   0  0  0  0  0  0  0  0  0  0  0  0
   32.1673  -26.3647  -20.8738 C   0  0  0  0  0  0  0  0  0  0  0  0
   31.5080  -26.6663  -22.0664 C   0  0  0  0  0  0  0  0  0  0  0  0
   28.0810  -28.3148  -19.5651 C   0  0  0  0  0  0  0  0  0  0  0  0
   26.9066  -28.7561  -19.6633 O   0  0  0  0  0  0  0  0  0  0  0  0
   28.5365  -27.7435  -18.3653 N   0  0  0  0  0  0  0  0  0  0  0  0
   27.6165  -27.6477  -17.1652 C   0  0  1  0  0  0  0  0  0  0  0  0
   28.2819  -28.4333  -16.0887 C   0  0  0  0  0  0  0  0  0  0  0  0
   28.0776  -29.8793  -16.0461 C   0  0  0  0  0  0  0  0  0  0  0  0
   27.1301  -30.5738  -16.8321 C   0  0  0  0  0  0  0  0  0  0  0  0
   27.2553  -31.8569  -16.5051 N   0  0  0  0  0  0  0  0  0  0  0  0
   28.2068  -32.0166  -15.5767 C   0  0  0  0  0  0  0  0  0  0  0  0
   28.6798  -30.8075  -15.3243 N   0  0  0  0  0  0  0  0  0  0  0  0
   27.5261  -26.1871  -16.9271 C   0  0  0  0  0  0  0  0  0  0  0  0
   28.6104  -25.5240  -16.7184 O   0  0  0  0  0  0  0  0  0  0  0  0
   26.3559  -25.4011  -16.9054 N   0  0  0  0  0  0  0  0  0  0  0  0
   26.3822  -23.9770  -16.5933 C   0  0  1  0  0  0  0  0  0  0  0  0
   26.2102  -23.1940  -17.8990 C   0  0  0  0  0  0  0  0  0  0  0  0
   24.9755  -23.6333  -18.6198 C   0  0  0  0  0  0  0  0  0  0  0  0
   23.7409  -23.0907  -18.3991 C   0  0  0  0  0  0  0  0  0  0  0  0
   22.6396  -23.5657  -19.1186 C   0  0  0  0  0  0  0  0  0  0  0  0
   22.7774  -24.5771  -20.0519 C   0  0  0  0  0  0  0  0  0  0  0  0
   24.0122  -25.1261  -20.2788 C   0  0  0  0  0  0  0  0  0  0  0  0
   25.0749  -24.6424  -19.5602 C   0  0  0  0  0  0  0  0  0  0  0  0
   25.2752  -23.5832  -15.6962 C   0  0  0  0  0  0  0  0  0  0  0  0
   24.3721  -24.3701  -15.3156 O   0  0  0  0  0  0  0  0  0  0  0  0
   25.2434  -22.2732  -15.2582 O   0  0  0  0  0  0  0  0  0  0  0  0
  2  1  1  6
  3  2  1  0
  4  3  1  0
  5  4  2  0
  6  7  1  0
  6  5  1  0
  7 12  2  0
  8  7  1  0
  8  9  2  0
  9 10  1  0
 10 11  2  0
 12  4  1  0
 12 11  1  0
 13 14  2  0
 13  2  1  0
 15 13  1  0
 16 15  1  0
 16 17  1  1
 18 17  1  0
 19 18  2  0
 20 19  1  0
 21 20  1  0
 21 22  2  0
 22 18  1  0
 23 16  1  0
 24 23  2  0
 25 23  1  0
 26 34  1  0
 26 25  1  0
 26 27  1  6
 28 33  1  0
 28 27  1  0
 29 28  2  0
 30 31  2  0
 30 29  1  0
 31 32  1  0
 32 33  2  0
 34 36  1  0
 35 34  2  0
M  END
$$$$
