WHF.pdb
     RDKit          3D

 36 39  0  0  1  0  0  0  0  0999 V2000
   23.0014  -18.5362  -20.3049 N   0  0  0  0  0  0  0  0  0  0  0  0
   22.1672  -17.7558  -19.4420 C   0  0  1  0  0  0  0  0  0  0  0  0
   20.9646  -17.1758  -20.1567 C   0  0  0  0  0  0  0  0  0  0  0  0
   21.3365  -16.2645  -21.2423 C   0  0  0  0  0  0  0  0  0  0  0  0
   21.5963  -16.5105  -22.5730 C   0  0  0  0  0  0  0  0  0  0  0  0
   21.8964  -15.3395  -23.1688 N   0  0  0  0  0  0  0  0  0  0  0  0
   21.8466  -14.3246  -22.2880 C   0  0  0  0  0  0  0  0  0  0  0  0
   22.0725  -12.9646  -22.4272 C   0  0  0  0  0  0  0  0  0  0  0  0
   21.9399  -12.1487  -21.3007 C   0  0  0  0  0  0  0  0  0  0  0  0
   21.5916  -12.7016  -20.0871 C   0  0  0  0  0  0  0  0  0  0  0  0
   21.3759  -14.0504  -19.9873 C   0  0  0  0  0  0  0  0  0  0  0  0
   21.4968  -14.9037  -21.0852 C   0  0  0  0  0  0  0  0  0  0  0  0
   21.7136  -18.5213  -18.2520 C   0  0  0  0  0  0  0  0  0  0  0  0
   21.4611  -19.7498  -18.3552 O   0  0  0  0  0  0  0  0  0  0  0  0
   21.5722  -17.8590  -17.0212 N   0  0  0  0  0  0  0  0  0  0  0  0
   21.0567  -18.6033  -15.8062 C   0  0  1  0  0  0  0  0  0  0  0  0
   21.7676  -18.0063  -14.6414 C   0  0  0  0  0  0  0  0  0  0  0  0
   21.3867  -18.4275  -13.2952 C   0  0  0  0  0  0  0  0  0  0  0  0
   20.3843  -17.8031  -12.5185 C   0  0  0  0  0  0  0  0  0  0  0  0
   20.3403  -18.4749  -11.3715 N   0  0  0  0  0  0  0  0  0  0  0  0
   21.2370  -19.4693  -11.3725 C   0  0  0  0  0  0  0  0  0  0  0  0
   21.8480  -19.4114  -12.5440 N   0  0  0  0  0  0  0  0  0  0  0  0
   19.5954  -18.3575  -15.8569 C   0  0  0  0  0  0  0  0  0  0  0  0
   19.1726  -17.2112  -16.2646 O   0  0  0  0  0  0  0  0  0  0  0  0
   18.5700  -19.2592  -15.5062 N   0  0  0  0  0  0  0  0  0  0  0  0
   17.1640  -18.8729  -15.5006 C   0  0  1  0  0  0  0  0  0  0  0  0
   16.4391  -19.6753  -16.5860 C   0  0  0  0  0  0  0  0  0  0  0  0
   16.5625  -21.1435  -16.3288 C   0  0  0  0  0  0  0  0  0  0  0  0
   15.6833  -21.8498  -15.5572 C   0  0  0  0  0  0  0  0  0  0  0  0
   15.8782  -23.2220  -15.3690 C   0  0  0  0  0  0  0  0  0  0  0  0
   16.9470  -23.8790  -15.9509 C   0  0  0  0  0  0  0  0  0  0  0  0
   17.8329  -23.1775  -16.7261 C   0  0  0  0  0  0  0  0  0  0  0  0
   17.6190  -21.8337  -16.8945 C   0  0  0  0  0  0  0  0  0  0  0  0
   16.5067  -19.1825  -14.2131 C   0  0  0  0  0  0  0  0  0  0  0  0
   17.0463  -19.8545  -13.2983 O   0  0  0  0  0  0  0  0  0  0  0  0
   15.2272  -18.6996  -14.0170 O   0  0  0  0  0  0  0  0  0  0  0  0
  2  1  1  6
  3  2  1  0
  4  3  1  0
  5  4  2  0
  6  7  1  0
  6  5  1  0
  7 12  2  0
  8  7  1  0
  8  9  2  0
  9 10  1  0
 10 11  2  0
 12  4  1  0
 12 11  1  0
 13 14  2  0
 13  2  1  0
 15 13  1  0
 16 15  1  0
 16 17  1  1
 18 17  1  0
 19 18  2  0
 20 19  1  0
 21 20  1  0
 21 22  2  0
 22 18  1  0
 23 16  1  0
 24 23  2  0
 25 23  1  0
 26 34  1  0
 26 25  1  0
 26 27  1  6
 28 33  1  0
 28 27  1  0
 29 28  2  0
 30 31  2  0
 30 29  1  0
 31 32  1  0
 32 33  2  0
 34 36  1  0
 35 34  2  0
M  END
$$$$
