WHF.pdb
     RDKit          3D

 36 39  0  0  1  0  0  0  0  0999 V2000
   26.6632  -20.1549  -12.0497 N   0  0  0  0  0  0  0  0  0  0  0  0
   25.9197  -21.3738  -12.1546 C   0  0  1  0  0  0  0  0  0  0  0  0
   25.6178  -21.9941  -10.8063 C   0  0  0  0  0  0  0  0  0  0  0  0
   26.2258  -21.2570   -9.6953 C   0  0  0  0  0  0  0  0  0  0  0  0
   25.6852  -20.3347   -8.8258 C   0  0  0  0  0  0  0  0  0  0  0  0
   26.6515  -19.9399   -7.9735 N   0  0  0  0  0  0  0  0  0  0  0  0
   27.8131  -20.5624   -8.2410 C   0  0  0  0  0  0  0  0  0  0  0  0
   29.0637  -20.4854   -7.6493 C   0  0  0  0  0  0  0  0  0  0  0  0
   30.0946  -21.2746   -8.1658 C   0  0  0  0  0  0  0  0  0  0  0  0
   29.8545  -22.1046   -9.2397 C   0  0  0  0  0  0  0  0  0  0  0  0
   28.6054  -22.1545   -9.7990 C   0  0  0  0  0  0  0  0  0  0  0  0
   27.5458  -21.3847   -9.3166 C   0  0  0  0  0  0  0  0  0  0  0  0
   24.6541  -21.1993  -12.9132 C   0  0  0  0  0  0  0  0  0  0  0  0
   23.8692  -20.2614  -12.6167 O   0  0  0  0  0  0  0  0  0  0  0  0
   24.3496  -22.0891  -13.9568 N   0  0  0  0  0  0  0  0  0  0  0  0
   23.0666  -21.9314  -14.7473 C   0  0  1  0  0  0  0  0  0  0  0  0
   23.3400  -22.5432  -16.0776 C   0  0  0  0  0  0  0  0  0  0  0  0
   24.0625  -21.7586  -17.0761 C   0  0  0  0  0  0  0  0  0  0  0  0
   24.3977  -20.3935  -16.9271 C   0  0  0  0  0  0  0  0  0  0  0  0
   25.0440  -20.0533  -18.0386 N   0  0  0  0  0  0  0  0  0  0  0  0
   25.1379  -21.0995  -18.8689 C   0  0  0  0  0  0  0  0  0  0  0  0
   24.5374  -22.1075  -18.2585 N   0  0  0  0  0  0  0  0  0  0  0  0
   22.0680  -22.6403  -13.9115 C   0  0  0  0  0  0  0  0  0  0  0  0
   22.4653  -23.5996  -13.1495 O   0  0  0  0  0  0  0  0  0  0  0  0
   20.6840  -22.3816  -13.8394 N   0  0  0  0  0  0  0  0  0  0  0  0
   19.8006  -23.1223  -12.9466 C   0  0  1  0  0  0  0  0  0  0  0  0
   20.0039  -22.5967  -11.5219 C   0  0  0  0  0  0  0  0  0  0  0  0
   19.9514  -21.1021  -11.4977 C   0  0  0  0  0  0  0  0  0  0  0  0
   19.7894  -20.3356  -12.6173 C   0  0  0  0  0  0  0  0  0  0  0  0
   19.7539  -18.9423  -12.5006 C   0  0  0  0  0  0  0  0  0  0  0  0
   19.8800  -18.3243  -11.2698 C   0  0  0  0  0  0  0  0  0  0  0  0
   20.0427  -19.0862  -10.1425 C   0  0  0  0  0  0  0  0  0  0  0  0
   20.0741  -20.4495  -10.2846 C   0  0  0  0  0  0  0  0  0  0  0  0
   18.3751  -22.9284  -13.2869 C   0  0  0  0  0  0  0  0  0  0  0  0
   17.4321  -23.5205  -12.7041 O   0  0  0  0  0  0  0  0  0  0  0  0
   18.0763  -22.0434  -14.3049 O   0  0  0  0  0  0  0  0  0  0  0  0
  2  1  1  1
  3  2  1  0
  4  3  1  0
  5  4  2  0
  6  7  1  0
  6  5  1  0
  7 12  2  0
  8  7  1  0
  8  9  2  0
  9 10  1  0
 10 11  2  0
 12  4  1  0
 12 11  1  0
 13 14  2  0
 13  2  1  0
 15 13  1  0
 16 15  1  0
 16 17  1  6
 18 17  1  0
 19 18  2  0
 20 19  1  0
 21 20  1  0
 21 22  2  0
 22 18  1  0
 23 16  1  0
 24 23  2  0
 25 23  1  0
 26 34  1  0
 26 25  1  0
 26 27  1  1
 28 33  1  0
 28 27  1  0
 29 28  2  0
 30 31  2  0
 30 29  1  0
 31 32  1  0
 32 33  2  0
 34 36  1  0
 35 34  2  0
M  END
$$$$
