WHF.pdb
     RDKit          3D

 36 39  0  0  1  0  0  0  0  0999 V2000
   32.1100  -28.0120  -23.4743 N   0  0  0  0  0  0  0  0  0  0  0  0
   31.4613  -28.2437  -22.2193 C   0  0  1  0  0  0  0  0  0  0  0  0
   29.9535  -28.3140  -22.3431 C   0  0  0  0  0  0  0  0  0  0  0  0
   29.3519  -27.0196  -22.6750 C   0  0  0  0  0  0  0  0  0  0  0  0
   29.7942  -26.0077  -23.4991 C   0  0  0  0  0  0  0  0  0  0  0  0
   28.8831  -25.0149  -23.4762 N   0  0  0  0  0  0  0  0  0  0  0  0
   27.8526  -25.3258  -22.6702 C   0  0  0  0  0  0  0  0  0  0  0  0
   26.6991  -24.6362  -22.3325 C   0  0  0  0  0  0  0  0  0  0  0  0
   25.7986  -25.2368  -21.4490 C   0  0  0  0  0  0  0  0  0  0  0  0
   26.0682  -26.4870  -20.9351 C   0  0  0  0  0  0  0  0  0  0  0  0
   27.2186  -27.1389  -21.2915 C   0  0  0  0  0  0  0  0  0  0  0  0
   28.1466  -26.5782  -22.1704 C   0  0  0  0  0  0  0  0  0  0  0  0
   31.9598  -29.4699  -21.5444 C   0  0  0  0  0  0  0  0  0  0  0  0
   32.4301  -30.4155  -22.2287 O   0  0  0  0  0  0  0  0  0  0  0  0
   31.8986  -29.5571  -20.1436 N   0  0  0  0  0  0  0  0  0  0  0  0
   32.4516  -30.7724  -19.4274 C   0  0  1  0  0  0  0  0  0  0  0  0
   32.9854  -30.2640  -18.1331 C   0  0  0  0  0  0  0  0  0  0  0  0
   33.5580  -31.2183  -17.1864 C   0  0  0  0  0  0  0  0  0  0  0  0
   33.7043  -32.6013  -17.4389 C   0  0  0  0  0  0  0  0  0  0  0  0
   34.2597  -33.1150  -16.3450 N   0  0  0  0  0  0  0  0  0  0  0  0
   34.4710  -32.1603  -15.4303 C   0  0  0  0  0  0  0  0  0  0  0  0
   34.0375  -31.0331  -15.9694 N   0  0  0  0  0  0  0  0  0  0  0  0
   31.2735  -31.6668  -19.3250 C   0  0  0  0  0  0  0  0  0  0  0  0
   30.1882  -31.2068  -18.8059 O   0  0  0  0  0  0  0  0  0  0  0  0
   31.1874  -33.0093  -19.7468 N   0  0  0  0  0  0  0  0  0  0  0  0
   29.9729  -33.7992  -19.5818 C   0  0  1  0  0  0  0  0  0  0  0  0
   29.2363  -33.8373  -20.9247 C   0  0  0  0  0  0  0  0  0  0  0  0
   27.9854  -34.6503  -20.8182 C   0  0  0  0  0  0  0  0  0  0  0  0
   27.9110  -35.9683  -21.1712 C   0  0  0  0  0  0  0  0  0  0  0  0
   26.6971  -36.6504  -21.0400 C   0  0  0  0  0  0  0  0  0  0  0  0
   25.5675  -36.0141  -20.5583 C   0  0  0  0  0  0  0  0  0  0  0  0
   25.6343  -34.6925  -20.2022 C   0  0  0  0  0  0  0  0  0  0  0  0
   26.8361  -34.0473  -20.3407 C   0  0  0  0  0  0  0  0  0  0  0  0
   30.2655  -35.1975  -19.2017 C   0  0  0  0  0  0  0  0  0  0  0  0
   31.2383  -35.8537  -19.6517 O   0  0  0  0  0  0  0  0  0  0  0  0
   29.4138  -35.8056  -18.2996 O   0  0  0  0  0  0  0  0  0  0  0  0
  2  1  1  6
  3  2  1  0
  4  3  1  0
  5  4  2  0
  6  7  1  0
  6  5  1  0
  7 12  2  0
  8  7  1  0
  8  9  2  0
  9 10  1  0
 10 11  2  0
 12  4  1  0
 12 11  1  0
 13 14  2  0
 13  2  1  0
 15 13  1  0
 16 15  1  0
 16 17  1  1
 18 17  1  0
 19 18  2  0
 20 19  1  0
 21 20  1  0
 21 22  2  0
 22 18  1  0
 23 16  1  0
 24 23  2  0
 25 23  1  0
 26 34  1  0
 26 25  1  0
 26 27  1  6
 28 33  1  0
 28 27  1  0
 29 28  2  0
 30 31  2  0
 30 29  1  0
 31 32  1  0
 32 33  2  0
 34 36  1  0
 35 34  2  0
M  END
$$$$
