WHF.pdb
     RDKit          3D

 36 39  0  0  1  0  0  0  0  0999 V2000
   19.4604  -21.9524  -14.0245 N   0  0  0  0  0  0  0  0  0  0  0  0
   20.4270  -21.3065  -14.8599 C   0  0  1  0  0  0  0  0  0  0  0  0
   20.3217  -19.7963  -14.8187 C   0  0  0  0  0  0  0  0  0  0  0  0
   19.2177  -19.2834  -15.6346 C   0  0  0  0  0  0  0  0  0  0  0  0
   17.9364  -18.9168  -15.2849 C   0  0  0  0  0  0  0  0  0  0  0  0
   17.2955  -18.5060  -16.3969 N   0  0  0  0  0  0  0  0  0  0  0  0
   18.0991  -18.5846  -17.4723 C   0  0  0  0  0  0  0  0  0  0  0  0
   17.8925  -18.2795  -18.8081 C   0  0  0  0  0  0  0  0  0  0  0  0
   18.9453  -18.4730  -19.7060 C   0  0  0  0  0  0  0  0  0  0  0  0
   20.1546  -18.9571  -19.2554 C   0  0  0  0  0  0  0  0  0  0  0  0
   20.3223  -19.2477  -17.9276 C   0  0  0  0  0  0  0  0  0  0  0  0
   19.2994  -19.0703  -16.9948 C   0  0  0  0  0  0  0  0  0  0  0  0
   21.8178  -21.7143  -14.5327 C   0  0  0  0  0  0  0  0  0  0  0  0
   22.1409  -21.9395  -13.3375 O   0  0  0  0  0  0  0  0  0  0  0  0
   22.7582  -21.8436  -15.5683 N   0  0  0  0  0  0  0  0  0  0  0  0
   24.1393  -22.3978  -15.2835 C   0  0  1  0  0  0  0  0  0  0  0  0
   24.4594  -23.2839  -16.4373 C   0  0  0  0  0  0  0  0  0  0  0  0
   25.7939  -23.8727  -16.5214 C   0  0  0  0  0  0  0  0  0  0  0  0
   26.1509  -25.1209  -15.9626 C   0  0  0  0  0  0  0  0  0  0  0  0
   27.4367  -25.2964  -16.2538 N   0  0  0  0  0  0  0  0  0  0  0  0
   27.9092  -24.2552  -16.9505 C   0  0  0  0  0  0  0  0  0  0  0  0
   26.8949  -23.4185  -17.0931 N   0  0  0  0  0  0  0  0  0  0  0  0
   24.9730  -21.1775  -15.1650 C   0  0  0  0  0  0  0  0  0  0  0  0
   24.5527  -20.0843  -15.7008 O   0  0  0  0  0  0  0  0  0  0  0  0
   26.2148  -21.0579  -14.5082 N   0  0  0  0  0  0  0  0  0  0  0  0
   26.9693  -19.8103  -14.4943 C   0  0  1  0  0  0  0  0  0  0  0  0
   27.9975  -19.8812  -13.3606 C   0  0  0  0  0  0  0  0  0  0  0  0
   27.3225  -20.1364  -12.0505 C   0  0  0  0  0  0  0  0  0  0  0  0
   26.7159  -19.1595  -11.3124 C   0  0  0  0  0  0  0  0  0  0  0  0
   26.1104  -19.4893  -10.0956 C   0  0  0  0  0  0  0  0  0  0  0  0
   26.1141  -20.7896   -9.6243 C   0  0  0  0  0  0  0  0  0  0  0  0
   26.7203  -21.7749  -10.3588 C   0  0  0  0  0  0  0  0  0  0  0  0
   27.3065  -21.4247  -11.5477 C   0  0  0  0  0  0  0  0  0  0  0  0
   27.7166  -19.5976  -15.7520 C   0  0  0  0  0  0  0  0  0  0  0  0
   27.9224  -20.4999  -16.6023 O   0  0  0  0  0  0  0  0  0  0  0  0
   28.2112  -18.3305  -15.9944 O   0  0  0  0  0  0  0  0  0  0  0  0
  2  1  1  1
  3  2  1  0
  4  3  1  0
  5  4  2  0
  6  7  1  0
  6  5  1  0
  7 12  2  0
  8  7  1  0
  8  9  2  0
  9 10  1  0
 10 11  2  0
 12  4  1  0
 12 11  1  0
 13 14  2  0
 13  2  1  0
 15 13  1  0
 16 15  1  0
 16 17  1  6
 18 17  1  0
 19 18  2  0
 20 19  1  0
 21 20  1  0
 21 22  2  0
 22 18  1  0
 23 16  1  0
 24 23  2  0
 25 23  1  0
 26 34  1  0
 26 25  1  0
 26 27  1  1
 28 33  1  0
 28 27  1  0
 29 28  2  0
 30 31  2  0
 30 29  1  0
 31 32  1  0
 32 33  2  0
 34 36  1  0
 35 34  2  0
M  END
$$$$
