WHF.pdb
     RDKit          3D

 36 39  0  0  1  0  0  0  0  0999 V2000
   27.4711  -18.8927  -10.3050 N   0  0  0  0  0  0  0  0  0  0  0  0
   26.9551  -20.2238  -10.1994 C   0  0  1  0  0  0  0  0  0  0  0  0
   26.2187  -20.4655   -8.8983 C   0  0  0  0  0  0  0  0  0  0  0  0
   26.9193  -19.9063   -7.7390 C   0  0  0  0  0  0  0  0  0  0  0  0
   26.6518  -18.7872   -6.9809 C   0  0  0  0  0  0  0  0  0  0  0  0
   27.5903  -18.6942   -6.0183 N   0  0  0  0  0  0  0  0  0  0  0  0
   28.4713  -19.7064   -6.1056 C   0  0  0  0  0  0  0  0  0  0  0  0
   29.5881  -20.0307   -5.3522 C   0  0  0  0  0  0  0  0  0  0  0  0
   30.3167  -21.1716   -5.6984 C   0  0  0  0  0  0  0  0  0  0  0  0
   29.9187  -21.9446   -6.7679 C   0  0  0  0  0  0  0  0  0  0  0  0
   28.8092  -21.5931   -7.4898 C   0  0  0  0  0  0  0  0  0  0  0  0
   28.0510  -20.4627   -7.1807 C   0  0  0  0  0  0  0  0  0  0  0  0
   26.0724  -20.5790  -11.3406 C   0  0  0  0  0  0  0  0  0  0  0  0
   25.3245  -19.7050  -11.8509 O   0  0  0  0  0  0  0  0  0  0  0  0
   26.0851  -21.8932  -11.8368 N   0  0  0  0  0  0  0  0  0  0  0  0
   25.2635  -22.2591  -13.0562 C   0  0  1  0  0  0  0  0  0  0  0  0
   25.6815  -23.6422  -13.4185 C   0  0  0  0  0  0  0  0  0  0  0  0
   25.0566  -24.2849  -14.5722 C   0  0  0  0  0  0  0  0  0  0  0  0
   24.0300  -23.7026  -15.3499 C   0  0  0  0  0  0  0  0  0  0  0  0
   23.7379  -24.5930  -16.2937 N   0  0  0  0  0  0  0  0  0  0  0  0
   24.5022  -25.6848  -16.1652 C   0  0  0  0  0  0  0  0  0  0  0  0
   25.2830  -25.4653  -15.1206 N   0  0  0  0  0  0  0  0  0  0  0  0
   23.8680  -22.1190  -12.5753 C   0  0  0  0  0  0  0  0  0  0  0  0
   23.6312  -22.2369  -11.3148 O   0  0  0  0  0  0  0  0  0  0  0  0
   22.7233  -21.8568  -13.3554 N   0  0  0  0  0  0  0  0  0  0  0  0
   21.4047  -21.6702  -12.7618 C   0  0  1  0  0  0  0  0  0  0  0  0
   21.2673  -20.2025  -12.3440 C   0  0  0  0  0  0  0  0  0  0  0  0
   21.6648  -19.2949  -13.4644 C   0  0  0  0  0  0  0  0  0  0  0  0
   22.8811  -18.6766  -13.5379 C   0  0  0  0  0  0  0  0  0  0  0  0
   23.1665  -17.8415  -14.6229 C   0  0  0  0  0  0  0  0  0  0  0  0
   22.2378  -17.6293  -15.6257 C   0  0  0  0  0  0  0  0  0  0  0  0
   21.0159  -18.2459  -15.5590 C   0  0  0  0  0  0  0  0  0  0  0  0
   20.7617  -19.0592  -14.4850 C   0  0  0  0  0  0  0  0  0  0  0  0
   20.3167  -21.9574  -13.7208 C   0  0  0  0  0  0  0  0  0  0  0  0
   19.0980  -21.9560  -13.4138 O   0  0  0  0  0  0  0  0  0  0  0  0
   20.6735  -22.2415  -15.0249 O   0  0  0  0  0  0  0  0  0  0  0  0
  2  1  1  6
  3  2  1  0
  4  3  1  0
  5  4  2  0
  6  7  1  0
  6  5  1  0
  7 12  2  0
  8  7  1  0
  8  9  2  0
  9 10  1  0
 10 11  2  0
 12  4  1  0
 12 11  1  0
 13 14  2  0
 13  2  1  0
 15 13  1  0
 16 15  1  0
 16 17  1  1
 18 17  1  0
 19 18  2  0
 20 19  1  0
 21 20  1  0
 21 22  2  0
 22 18  1  0
 23 16  1  0
 24 23  2  0
 25 23  1  0
 26 34  1  0
 26 25  1  0
 26 27  1  6
 28 33  1  0
 28 27  1  0
 29 28  2  0
 30 31  2  0
 30 29  1  0
 31 32  1  0
 32 33  2  0
 34 36  1  0
 35 34  2  0
M  END
$$$$
