CIL.pdb
     RDKit          3D

 23 22  0  0  1  0  0  0  0  0999 V2000
   11.2831  -14.5207   18.4016 N   0  0  0  0  0  0  0  0  0  0  0  0
   11.3576  -15.0139   19.7437 C   0  0  1  0  0  0  0  0  0  0  0  0
   12.3508  -14.2190   20.5882 C   0  0  0  0  0  0  0  0  0  0  0  0
   14.0374  -14.7205   20.1443 S   0  0  0  0  0  0  0  0  0  0  0  0
   10.0485  -14.9651   20.4455 C   0  0  0  0  0  0  0  0  0  0  0  0
    9.2759  -14.0128   20.1634 O   0  0  0  0  0  0  0  0  0  0  0  0
    6.4940  -18.4143   19.7764 C   0  0  0  0  0  0  0  0  0  0  0  0
    7.3234  -17.1760   20.0744 C   0  0  0  0  0  0  0  0  0  0  0  0
    7.5786  -17.1583   21.5556 C   0  0  2  0  0  0  0  0  0  0  0  0
    6.3218  -17.1812   22.3592 C   0  0  0  0  0  0  0  0  0  0  0  0
    8.3978  -15.9587   21.9828 C   0  0  2  0  0  0  0  0  0  0  0  0
    9.7122  -15.9666   21.3902 N   0  0  0  0  0  0  0  0  0  0  0  0
    8.5348  -15.8945   23.4626 C   0  0  0  0  0  0  0  0  0  0  0  0
    9.4602  -16.5301   24.0238 O   0  0  0  0  0  0  0  0  0  0  0  0
    8.4595  -12.2738   26.5091 C   0  0  0  0  0  0  0  0  0  0  0  0
    7.1651  -12.7363   25.8121 C   0  0  2  0  0  0  0  0  0  0  0  0
    6.0638  -11.7688   26.1865 C   0  0  0  0  0  0  0  0  0  0  0  0
    6.7972  -14.1132   26.2606 C   0  0  0  0  0  0  0  0  0  0  0  0
    7.7658  -15.1343   25.7518 C   0  0  2  0  0  0  0  0  0  0  0  0
    7.6586  -15.1393   24.2867 N   0  0  0  0  0  0  0  0  0  0  0  0
    7.5792  -16.4929   26.2900 C   0  0  0  0  0  0  0  0  0  0  0  0
    8.3277  -17.0586   27.3087 O   0  0  0  0  0  0  0  0  0  0  0  0
    6.6488  -17.2028   25.7684 O   0  0  0  0  0  0  0  0  0  0  0  0
  2  1  1  6
  2  3  1  0
  4  3  1  0
  5  6  2  0
  5  2  1  0
  7  8  1  0
  8  9  1  0
  9 11  1  0
  9 10  1  1
 11 12  1  6
 12  5  1  0
 13 11  1  0
 13 20  1  0
 14 13  2  0
 16 15  1  1
 16 17  1  0
 18 16  1  0
 19 20  1  0
 19 18  1  1
 21 19  1  0
 22 21  1  0
 23 21  2  0
M  END
$$$$
