CIL.pdb
     RDKit          3D

 23 22  0  0  1  0  0  0  0  0999 V2000
    7.6562  -15.5339   20.9425 N   0  0  0  0  0  0  0  0  0  0  0  0
    7.1091  -15.8993   22.2142 C   0  0  1  0  0  0  0  0  0  0  0  0
    7.1089  -17.4122   22.4205 C   0  0  0  0  0  0  0  0  0  0  0  0
    5.5949  -18.1063   21.6998 S   0  0  0  0  0  0  0  0  0  0  0  0
    7.8557  -15.3022   23.3520 C   0  0  0  0  0  0  0  0  0  0  0  0
    9.0814  -15.0731   23.1833 O   0  0  0  0  0  0  0  0  0  0  0  0
    7.0939  -11.3479   25.5462 C   0  0  0  0  0  0  0  0  0  0  0  0
    6.2110  -12.5658   25.7633 C   0  0  0  0  0  0  0  0  0  0  0  0
    7.0200  -13.5683   26.5378 C   0  0  2  0  0  0  0  0  0  0  0  0
    7.8601  -12.9386   27.5978 C   0  0  0  0  0  0  0  0  0  0  0  0
    7.9193  -14.3948   25.6429 C   0  0  2  0  0  0  0  0  0  0  0  0
    7.1854  -15.0133   24.5669 N   0  0  0  0  0  0  0  0  0  0  0  0
    8.6294  -15.4506   26.4136 C   0  0  0  0  0  0  0  0  0  0  0  0
    7.9627  -16.3194   27.0267 O   0  0  0  0  0  0  0  0  0  0  0  0
   11.4244  -18.2552   24.8620 C   0  0  0  0  0  0  0  0  0  0  0  0
   12.0940  -16.9085   25.1984 C   0  0  2  0  0  0  0  0  0  0  0  0
   13.5104  -16.9480   24.6680 C   0  0  0  0  0  0  0  0  0  0  0  0
   12.1176  -16.6951   26.6769 C   0  0  0  0  0  0  0  0  0  0  0  0
   10.7348  -16.5887   27.2392 C   0  0  2  0  0  0  0  0  0  0  0  0
   10.0453  -15.5277   26.4929 N   0  0  0  0  0  0  0  0  0  0  0  0
   10.6692  -16.3302   28.6880 C   0  0  0  0  0  0  0  0  0  0  0  0
   10.1431  -15.1907   29.2734 O   0  0  0  0  0  0  0  0  0  0  0  0
   11.1395  -17.2360   29.4626 O   0  0  0  0  0  0  0  0  0  0  0  0
  2  1  1  6
  2  3  1  0
  4  3  1  0
  5  6  2  0
  5  2  1  0
  7  8  1  0
  8  9  1  0
  9 11  1  0
  9 10  1  1
 11 12  1  6
 12  5  1  0
 13 11  1  0
 13 20  1  0
 14 13  2  0
 16 15  1  1
 16 17  1  0
 18 16  1  0
 19 20  1  0
 19 18  1  6
 21 19  1  0
 22 21  1  0
 23 21  2  0
M  END
$$$$
