CIL.pdb
     RDKit          3D

 23 22  0  0  1  0  0  0  0  0999 V2000
   11.7710  -17.4703   18.9536 N   0  0  0  0  0  0  0  0  0  0  0  0
   10.7954  -17.8264   19.9392 C   0  0  1  0  0  0  0  0  0  0  0  0
   11.2680  -18.9837   20.8160 C   0  0  0  0  0  0  0  0  0  0  0  0
    9.8286  -19.7400   21.6219 S   0  0  0  0  0  0  0  0  0  0  0  0
   10.4595  -16.6983   20.8465 C   0  0  0  0  0  0  0  0  0  0  0  0
   11.4071  -15.9693   21.2388 O   0  0  0  0  0  0  0  0  0  0  0  0
    8.0187  -12.9194   20.3586 C   0  0  0  0  0  0  0  0  0  0  0  0
    7.3033  -14.2600   20.3913 C   0  0  0  0  0  0  0  0  0  0  0  0
    7.4247  -14.7940   21.7911 C   0  0  2  0  0  0  0  0  0  0  0  0
    7.1028  -13.7724   22.8297 C   0  0  0  0  0  0  0  0  0  0  0  0
    8.8047  -15.3479   22.0767 C   0  0  2  0  0  0  0  0  0  0  0  0
    9.1149  -16.4779   21.2367 N   0  0  0  0  0  0  0  0  0  0  0  0
    8.9428  -15.7521   23.5016 C   0  0  0  0  0  0  0  0  0  0  0  0
    8.4262  -16.8281   23.8896 O   0  0  0  0  0  0  0  0  0  0  0  0
    9.8330  -13.0442   28.9327 C   0  0  0  0  0  0  0  0  0  0  0  0
    9.8991  -14.3618   28.1360 C   0  0  2  0  0  0  0  0  0  0  0  0
   11.2172  -15.0326   28.4549 C   0  0  0  0  0  0  0  0  0  0  0  0
    9.8180  -14.0867   26.6697 C   0  0  0  0  0  0  0  0  0  0  0  0
    9.7209  -15.3527   25.8775 C   0  0  2  0  0  0  0  0  0  0  0  0
    9.6402  -14.9711   24.4612 N   0  0  0  0  0  0  0  0  0  0  0  0
    8.5964  -16.2317   26.2426 C   0  0  0  0  0  0  0  0  0  0  0  0
    8.7132  -17.4563   26.8786 O   0  0  0  0  0  0  0  0  0  0  0  0
    7.4188  -15.8247   25.9436 O   0  0  0  0  0  0  0  0  0  0  0  0
  2  1  1  6
  2  3  1  0
  4  3  1  0
  5  6  2  0
  5  2  1  0
  7  8  1  0
  8  9  1  0
  9 11  1  0
  9 10  1  1
 11 12  1  6
 12  5  1  0
 13 11  1  0
 13 20  1  0
 14 13  2  0
 16 15  1  1
 16 17  1  0
 18 16  1  0
 19 20  1  0
 19 18  1  1
 21 19  1  0
 22 21  1  0
 23 21  2  0
M  END
$$$$
