CIL.pdb
     RDKit          3D

 23 22  0  0  1  0  0  0  0  0999 V2000
   10.9668  -18.8070   19.3757 N   0  0  0  0  0  0  0  0  0  0  0  0
    9.7987  -18.4619   20.1283 C   0  0  1  0  0  0  0  0  0  0  0  0
    9.3809  -19.5827   21.0772 C   0  0  0  0  0  0  0  0  0  0  0  0
   10.6460  -19.7683   22.3650 S   0  0  0  0  0  0  0  0  0  0  0  0
    9.9881  -17.2390   20.9513 C   0  0  0  0  0  0  0  0  0  0  0  0
   11.1455  -16.7477   20.9998 O   0  0  0  0  0  0  0  0  0  0  0  0
    6.8305  -13.1431   20.2097 C   0  0  0  0  0  0  0  0  0  0  0  0
    8.0435  -14.0142   20.4921 C   0  0  0  0  0  0  0  0  0  0  0  0
    7.9722  -14.4195   21.9378 C   0  0  2  0  0  0  0  0  0  0  0  0
    8.0508  -13.2565   22.8690 C   0  0  0  0  0  0  0  0  0  0  0  0
    9.0583  -15.4060   22.3118 C   0  0  2  0  0  0  0  0  0  0  0  0
    8.8886  -16.6719   21.6427 N   0  0  0  0  0  0  0  0  0  0  0  0
    9.0989  -15.6370   23.7807 C   0  0  0  0  0  0  0  0  0  0  0  0
    8.1029  -16.1434   24.3525 O   0  0  0  0  0  0  0  0  0  0  0  0
    8.6683  -12.9711   28.5259 C   0  0  0  0  0  0  0  0  0  0  0  0
    9.6106  -14.0754   28.0084 C   0  0  2  0  0  0  0  0  0  0  0  0
   11.0300  -13.5620   28.1120 C   0  0  0  0  0  0  0  0  0  0  0  0
    9.2972  -14.4002   26.5841 C   0  0  0  0  0  0  0  0  0  0  0  0
   10.2165  -15.4509   26.0448 C   0  0  2  0  0  0  0  0  0  0  0  0
   10.2243  -15.3091   24.5826 N   0  0  0  0  0  0  0  0  0  0  0  0
    9.8785  -16.8321   26.4300 C   0  0  0  0  0  0  0  0  0  0  0  0
    9.1983  -17.7396   25.6353 O   0  0  0  0  0  0  0  0  0  0  0  0
   10.2455  -17.2175   27.5956 O   0  0  0  0  0  0  0  0  0  0  0  0
  2  1  1  1
  2  3  1  0
  4  3  1  0
  5  6  2  0
  5  2  1  0
  7  8  1  0
  8  9  1  0
  9 11  1  0
  9 10  1  1
 11 12  1  6
 12  5  1  0
 13 11  1  0
 13 20  1  0
 14 13  2  0
 16 15  1  6
 16 17  1  0
 18 16  1  0
 19 20  1  0
 19 18  1  1
 21 19  1  0
 22 21  1  0
 23 21  2  0
M  END
$$$$
