CIL.pdb
     RDKit          3D

 23 22  0  0  1  0  0  0  0  0999 V2000
    6.4951  -16.6081   20.5759 N   0  0  0  0  0  0  0  0  0  0  0  0
    6.2983  -16.7498   21.9870 C   0  0  1  0  0  0  0  0  0  0  0  0
    6.4456  -18.2005   22.4397 C   0  0  0  0  0  0  0  0  0  0  0  0
    5.8764  -18.3440   24.1569 S   0  0  0  0  0  0  0  0  0  0  0  0
    7.2592  -15.9427   22.7833 C   0  0  0  0  0  0  0  0  0  0  0  0
    8.4336  -15.8412   22.3432 O   0  0  0  0  0  0  0  0  0  0  0  0
    5.4107  -11.7828   25.7786 C   0  0  0  0  0  0  0  0  0  0  0  0
    6.2454  -12.5898   24.7978 C   0  0  0  0  0  0  0  0  0  0  0  0
    7.1174  -13.5081   25.6074 C   0  0  2  0  0  0  0  0  0  0  0  0
    8.1685  -12.7794   26.3756 C   0  0  0  0  0  0  0  0  0  0  0  0
    7.7925  -14.5602   24.7529 C   0  0  2  0  0  0  0  0  0  0  0  0
    6.8390  -15.3239   23.9871 N   0  0  0  0  0  0  0  0  0  0  0  0
    8.6051  -15.4917   25.5805 C   0  0  0  0  0  0  0  0  0  0  0  0
    8.0264  -16.3504   26.2897 O   0  0  0  0  0  0  0  0  0  0  0  0
   10.1864  -14.3875   30.3252 C   0  0  0  0  0  0  0  0  0  0  0  0
   10.8015  -15.2894   29.2374 C   0  0  2  0  0  0  0  0  0  0  0  0
   12.3071  -15.2122   29.3657 C   0  0  0  0  0  0  0  0  0  0  0  0
   10.3890  -14.8210   27.8799 C   0  0  0  0  0  0  0  0  0  0  0  0
   10.7941  -15.7928   26.8164 C   0  0  2  0  0  0  0  0  0  0  0  0
   10.0247  -15.4592   25.6103 N   0  0  0  0  0  0  0  0  0  0  0  0
   10.6164  -17.2122   27.1687 C   0  0  0  0  0  0  0  0  0  0  0  0
   11.6046  -18.1805   27.1076 O   0  0  0  0  0  0  0  0  0  0  0  0
    9.4512  -17.5729   27.5612 O   0  0  0  0  0  0  0  0  0  0  0  0
  2  1  1  6
  2  3  1  0
  4  3  1  0
  5  6  2  0
  5  2  1  0
  7  8  1  0
  8  9  1  0
  9 11  1  0
  9 10  1  6
 11 12  1  1
 12  5  1  0
 13 11  1  0
 13 20  1  0
 14 13  2  0
 16 15  1  1
 16 17  1  0
 18 16  1  0
 19 20  1  0
 19 18  1  1
 21 19  1  0
 22 21  1  0
 23 21  2  0
M  END
$$$$
