CIL.pdb
     RDKit          3D

 23 22  0  0  1  0  0  0  0  0999 V2000
   12.7144  -16.9052   19.0952 N   0  0  0  0  0  0  0  0  0  0  0  0
   11.8548  -17.4403   20.1075 C   0  0  1  0  0  0  0  0  0  0  0  0
   12.5573  -18.5049   20.9467 C   0  0  0  0  0  0  0  0  0  0  0  0
   11.3743  -19.1932   22.1383 S   0  0  0  0  0  0  0  0  0  0  0  0
   11.3582  -16.4002   21.0458 C   0  0  0  0  0  0  0  0  0  0  0  0
   12.2043  -15.6013   21.5246 O   0  0  0  0  0  0  0  0  0  0  0  0
    6.7732  -13.6465   20.1141 C   0  0  0  0  0  0  0  0  0  0  0  0
    8.1941  -14.0677   20.4516 C   0  0  0  0  0  0  0  0  0  0  0  0
    8.1462  -14.7655   21.7820 C   0  0  2  0  0  0  0  0  0  0  0  0
    7.5949  -13.9035   22.8677 C   0  0  0  0  0  0  0  0  0  0  0  0
    9.5068  -15.2691   22.2155 C   0  0  2  0  0  0  0  0  0  0  0  0
    9.9798  -16.3363   21.3692 N   0  0  0  0  0  0  0  0  0  0  0  0
    9.4858  -15.7431   23.6254 C   0  0  0  0  0  0  0  0  0  0  0  0
    9.2127  -16.9439   23.8677 O   0  0  0  0  0  0  0  0  0  0  0  0
    9.6789  -13.4020   29.3365 C   0  0  0  0  0  0  0  0  0  0  0  0
   10.0581  -14.5966   28.4397 C   0  0  2  0  0  0  0  0  0  0  0  0
   11.4652  -15.0202   28.7996 C   0  0  0  0  0  0  0  0  0  0  0  0
   10.0058  -14.2021   26.9996 C   0  0  0  0  0  0  0  0  0  0  0  0
    9.8197  -15.3913   26.1102 C   0  0  2  0  0  0  0  0  0  0  0  0
    9.7633  -14.8936   24.7292 N   0  0  0  0  0  0  0  0  0  0  0  0
    8.6375  -16.2167   26.4126 C   0  0  0  0  0  0  0  0  0  0  0  0
    7.3420  -15.9337   26.0133 O   0  0  0  0  0  0  0  0  0  0  0  0
    8.8307  -17.2797   27.1014 O   0  0  0  0  0  0  0  0  0  0  0  0
  2  1  1  6
  2  3  1  0
  4  3  1  0
  5  6  2  0
  5  2  1  0
  7  8  1  0
  8  9  1  0
  9 11  1  0
  9 10  1  1
 11 12  1  6
 12  5  1  0
 13 11  1  0
 13 20  1  0
 14 13  2  0
 16 15  1  1
 16 17  1  0
 18 16  1  0
 19 20  1  0
 19 18  1  1
 21 19  1  0
 22 21  1  0
 23 21  2  0
M  END
$$$$
