CIL.pdb
     RDKit          3D

 23 22  0  0  1  0  0  0  0  0999 V2000
    5.5111  -18.9790   20.7645 N   0  0  0  0  0  0  0  0  0  0  0  0
    5.5807  -18.0788   21.8757 C   0  0  1  0  0  0  0  0  0  0  0  0
    5.5905  -18.8209   23.2100 C   0  0  0  0  0  0  0  0  0  0  0  0
    5.4318  -17.6155   24.5573 S   0  0  0  0  0  0  0  0  0  0  0  0
    6.7937  -17.2208   21.8428 C   0  0  0  0  0  0  0  0  0  0  0  0
    7.9060  -17.7957   21.7179 O   0  0  0  0  0  0  0  0  0  0  0  0
    6.9952  -12.8476   18.9542 C   0  0  0  0  0  0  0  0  0  0  0  0
    7.3129  -14.1466   19.6764 C   0  0  0  0  0  0  0  0  0  0  0  0
    7.7314  -13.7865   21.0744 C   0  0  2  0  0  0  0  0  0  0  0  0
    9.0167  -13.0301   21.1167 C   0  0  0  0  0  0  0  0  0  0  0  0
    7.8631  -15.0034   21.9658 C   0  0  2  0  0  0  0  0  0  0  0  0
    6.6701  -15.8130   21.9501 N   0  0  0  0  0  0  0  0  0  0  0  0
    8.1670  -14.6171   23.3698 C   0  0  0  0  0  0  0  0  0  0  0  0
    8.0046  -13.4258   23.7299 O   0  0  0  0  0  0  0  0  0  0  0  0
    8.4892  -12.4052   26.7686 C   0  0  0  0  0  0  0  0  0  0  0  0
    7.3918  -13.1974   26.0315 C   0  0  2  0  0  0  0  0  0  0  0  0
    6.0512  -12.7412   26.5643 C   0  0  0  0  0  0  0  0  0  0  0  0
    7.5563  -14.6623   26.2751 C   0  0  0  0  0  0  0  0  0  0  0  0
    8.8612  -15.1651   25.7420 C   0  0  2  0  0  0  0  0  0  0  0  0
    8.6390  -15.5412   24.3395 N   0  0  0  0  0  0  0  0  0  0  0  0
    9.4503  -16.2874   26.4928 C   0  0  0  0  0  0  0  0  0  0  0  0
   10.2259  -16.1660   27.6337 O   0  0  0  0  0  0  0  0  0  0  0  0
    9.2236  -17.4676   26.0483 O   0  0  0  0  0  0  0  0  0  0  0  0
  2  1  1  6
  2  3  1  0
  4  3  1  0
  5  6  2  0
  5  2  1  0
  7  8  1  0
  8  9  1  0
  9 11  1  0
  9 10  1  6
 11 12  1  1
 12  5  1  0
 13 11  1  0
 13 20  1  0
 14 13  2  0
 16 15  1  1
 16 17  1  0
 18 16  1  0
 19 20  1  0
 19 18  1  1
 21 19  1  0
 22 21  1  0
 23 21  2  0
M  END
$$$$
