RYM.pdb
     RDKit          3D

 32 32  0  0  1  0  0  0  0  0999 V2000
    7.9224  -19.9445   15.2130 N   0  0  0  0  0  0  0  0  0  0  0  0
    6.8789  -20.5580   15.9856 C   0  0  0  0  0  0  0  0  0  0  0  0
    6.7163  -21.8345   15.9967 N   0  0  0  0  0  0  0  0  0  0  0  0
    6.0125  -19.7193   16.7515 N   0  0  0  0  0  0  0  0  0  0  0  0
    6.1378  -18.2935   16.7448 C   0  0  0  0  0  0  0  0  0  0  0  0
    7.2283  -17.7683   17.5898 C   0  0  0  0  0  0  0  0  0  0  0  0
    6.9840  -17.5080   19.0276 C   0  0  0  0  0  0  0  0  0  0  0  0
    8.0186  -16.9206   19.8809 C   0  0  2  0  0  0  0  0  0  0  0  0
    9.3860  -17.2436   19.5438 N   0  0  0  0  0  0  0  0  0  0  0  0
    7.7748  -17.1358   21.3389 C   0  0  0  0  0  0  0  0  0  0  0  0
    6.6533  -16.7164   21.7622 O   0  0  0  0  0  0  0  0  0  0  0  0
    5.9898  -22.3313   16.5361 O   0  0  0  0  0  0  0  0  0  0  0  0
    8.2194  -19.6718   29.7736 C   0  0  0  0  0  0  0  0  0  0  0  0
    8.4893  -19.5066   28.4069 C   0  0  0  0  0  0  0  0  0  0  0  0
    9.7656  -19.2743   27.9454 C   0  0  0  0  0  0  0  0  0  0  0  0
   10.0073  -19.1146   26.5901 C   0  0  0  0  0  0  0  0  0  0  0  0
    8.9994  -19.1792   25.6531 C   0  0  0  0  0  0  0  0  0  0  0  0
    9.2468  -19.0143   24.2023 C   0  0  2  0  0  0  0  0  0  0  0  0
    8.4828  -17.8527   23.6008 N   0  0  0  0  0  0  0  0  0  0  0  0
    8.7196  -17.7595   22.1840 C   0  0  0  0  0  0  0  0  0  0  0  0
    8.9775  -16.5957   24.2342 O   0  0  0  0  0  0  0  0  0  0  0  0
   10.1212  -16.1456   23.9616 C   0  0  0  0  0  0  0  0  0  0  0  0
    7.7149  -19.4134   26.1268 C   0  0  0  0  0  0  0  0  0  0  0  0
    7.4719  -19.5734   27.4813 C   0  0  0  0  0  0  0  0  0  0  0  0
    5.5487  -11.5060   25.2469 S   0  0  0  0  0  0  0  0  0  0  0  0
    6.5228  -11.3533   26.7706 C   0  0  0  0  0  0  0  0  0  0  0  0
    7.9970  -12.4370   26.6453 C   0  0  0  0  0  0  0  0  0  0  0  0
    7.5580  -13.7111   26.0004 C   0  0  1  0  0  0  0  0  0  0  0  0
    8.7071  -14.6562   25.7366 N   0  0  0  0  0  0  0  0  0  0  0  0
    8.1869  -15.8684   25.1579 C   0  0  0  0  0  0  0  0  0  0  0  0
    9.5271  -14.9344   26.9426 O   0  0  0  0  0  0  0  0  0  0  0  0
   10.3417  -14.1349   27.4489 O   0  0  0  0  0  0  0  0  0  0  0  0
  1  2  1  0
  2  3  2  0
  2  4  1  0
  4  5  1  0
  5  6  1  0
  7  8  1  0
  7  6  1  0
  8  9  1  6
  8 10  1  0
 10 11  2  0
 12 13  1  0
 13 23  2  0
 13 14  1  0
 14 15  2  0
 15 16  1  0
 16 17  1  0
 18 17  1  6
 18 20  1  0
 19 10  1  0
 19 18  1  0
 20 29  1  0
 21 20  2  0
 22 16  2  0
 23 22  1  0
 25 24  1  0
 26 25  1  0
 27 26  1  0
 28 30  1  0
 28 27  1  6
 29 28  1  0
 30 32  1  0
 31 30  2  0
M  END
$$$$
