RYM.pdb
     RDKit          3D

 32 32  0  0  1  0  0  0  0  0999 V2000
   14.0318  -22.3609   18.2129 N   0  0  0  0  0  0  0  0  0  0  0  0
   14.0920  -21.3932   17.1536 C   0  0  0  0  0  0  0  0  0  0  0  0
   14.8014  -21.5976   16.0996 N   0  0  0  0  0  0  0  0  0  0  0  0
   13.3428  -20.1844   17.2889 N   0  0  0  0  0  0  0  0  0  0  0  0
   12.5288  -19.9223   18.4366 C   0  0  0  0  0  0  0  0  0  0  0  0
   11.8550  -18.6088   18.4252 C   0  0  0  0  0  0  0  0  0  0  0  0
   10.8885  -18.2691   19.4953 C   0  0  0  0  0  0  0  0  0  0  0  0
   10.0365  -17.0821   19.4020 C   0  0  2  0  0  0  0  0  0  0  0  0
   10.3709  -16.1339   18.3645 N   0  0  0  0  0  0  0  0  0  0  0  0
    9.8514  -16.3832   20.7093 C   0  0  0  0  0  0  0  0  0  0  0  0
   10.8788  -15.7749   21.1418 O   0  0  0  0  0  0  0  0  0  0  0  0
   14.8818  -20.9412   15.3070 O   0  0  0  0  0  0  0  0  0  0  0  0
    6.2019  -12.0718   27.4958 C   0  0  0  0  0  0  0  0  0  0  0  0
    6.4028  -12.8324   26.3343 C   0  0  0  0  0  0  0  0  0  0  0  0
    5.9812  -14.1402   26.2451 C   0  0  0  0  0  0  0  0  0  0  0  0
    6.1909  -14.8713   25.0866 C   0  0  0  0  0  0  0  0  0  0  0  0
    6.8214  -14.3349   23.9853 C   0  0  0  0  0  0  0  0  0  0  0  0
    7.0469  -15.1056   22.7408 C   0  0  1  0  0  0  0  0  0  0  0  0
    8.4652  -15.6226   22.6149 N   0  0  0  0  0  0  0  0  0  0  0  0
    8.6259  -16.3966   21.4119 C   0  0  0  0  0  0  0  0  0  0  0  0
    8.7370  -16.5169   23.7778 O   0  0  0  0  0  0  0  0  0  0  0  0
    8.6057  -17.7646   23.6734 C   0  0  0  0  0  0  0  0  0  0  0  0
    7.2439  -13.0154   24.0835 C   0  0  0  0  0  0  0  0  0  0  0  0
    7.0347  -12.2834   25.2409 C   0  0  0  0  0  0  0  0  0  0  0  0
   11.2356  -12.1643   28.1084 S   0  0  0  0  0  0  0  0  0  0  0  0
   10.5539  -13.7985   28.5070 C   0  0  0  0  0  0  0  0  0  0  0  0
   10.5464  -14.8264   26.9882 C   0  0  0  0  0  0  0  0  0  0  0  0
    9.8547  -16.1076   27.3225 C   0  0  2  0  0  0  0  0  0  0  0  0
    9.4901  -16.9100   26.0951 N   0  0  0  0  0  0  0  0  0  0  0  0
    9.1483  -16.0008   25.0315 C   0  0  0  0  0  0  0  0  0  0  0  0
    8.4083  -17.8972   26.3391 O   0  0  0  0  0  0  0  0  0  0  0  0
    7.2331  -17.7793   25.9343 O   0  0  0  0  0  0  0  0  0  0  0  0
  1  2  1  0
  2  3  2  0
  2  4  1  0
  4  5  1  0
  5  6  1  0
  7  8  1  0
  7  6  1  0
  8  9  1  6
  8 10  1  0
 10 11  2  0
 12 13  1  0
 13 23  2  0
 13 14  1  0
 14 15  2  0
 15 16  1  0
 16 17  1  0
 18 17  1  6
 18 20  1  0
 19 10  1  0
 19 18  1  0
 20 29  1  0
 21 20  2  0
 22 16  2  0
 23 22  1  0
 25 24  1  0
 26 25  1  0
 27 26  1  0
 28 30  1  0
 28 27  1  6
 29 28  1  0
 30 32  1  0
 31 30  2  0
M  END
$$$$
