RYM.pdb
     RDKit          3D

 32 32  0  0  1  0  0  0  0  0999 V2000
    7.2270  -13.3914   17.3798 N   0  0  0  0  0  0  0  0  0  0  0  0
    7.7430  -13.9583   16.1655 C   0  0  0  0  0  0  0  0  0  0  0  0
    8.0065  -13.2233   15.1426 N   0  0  0  0  0  0  0  0  0  0  0  0
    7.9622  -15.3687   16.1090 N   0  0  0  0  0  0  0  0  0  0  0  0
    8.5334  -16.0910   17.2047 C   0  0  0  0  0  0  0  0  0  0  0  0
    7.5890  -16.3998   18.2964 C   0  0  0  0  0  0  0  0  0  0  0  0
    8.0738  -17.0886   19.5150 C   0  0  0  0  0  0  0  0  0  0  0  0
    9.2883  -16.6495   20.2049 C   0  0  2  0  0  0  0  0  0  0  0  0
   10.5380  -17.1566   19.6866 N   0  0  0  0  0  0  0  0  0  0  0  0
    9.2248  -16.8304   21.6864 C   0  0  0  0  0  0  0  0  0  0  0  0
    8.1761  -16.3732   22.2376 O   0  0  0  0  0  0  0  0  0  0  0  0
    8.3984  -13.5702   14.2529 O   0  0  0  0  0  0  0  0  0  0  0  0
   11.0618  -19.1106   30.0509 C   0  0  0  0  0  0  0  0  0  0  0  0
   11.1367  -18.9192   28.6632 C   0  0  0  0  0  0  0  0  0  0  0  0
   11.9164  -17.9273   28.1116 C   0  0  0  0  0  0  0  0  0  0  0  0
   11.9744  -17.7580   26.7373 C   0  0  0  0  0  0  0  0  0  0  0  0
   11.2664  -18.5602   25.8694 C   0  0  0  0  0  0  0  0  0  0  0  0
   11.3242  -18.3910   24.3992 C   0  0  1  0  0  0  0  0  0  0  0  0
   10.1350  -17.6343   23.8443 N   0  0  0  0  0  0  0  0  0  0  0  0
   10.2530  -17.4631   22.4199 C   0  0  0  0  0  0  0  0  0  0  0  0
   10.1145  -16.2804   24.4708 O   0  0  0  0  0  0  0  0  0  0  0  0
   10.7928  -15.3374   23.9856 C   0  0  0  0  0  0  0  0  0  0  0  0
   10.4821  -19.5581   26.4337 C   0  0  0  0  0  0  0  0  0  0  0  0
   10.4234  -19.7285   27.8073 C   0  0  0  0  0  0  0  0  0  0  0  0
    6.4458  -10.2442   27.1889 S   0  0  0  0  0  0  0  0  0  0  0  0
    6.4461  -11.9395   26.5406 C   0  0  0  0  0  0  0  0  0  0  0  0
    8.0997  -12.6822   26.8184 C   0  0  0  0  0  0  0  0  0  0  0  0
    8.1148  -14.0048   26.1237 C   0  0  1  0  0  0  0  0  0  0  0  0
    9.4400  -14.7181   26.2586 N   0  0  0  0  0  0  0  0  0  0  0  0
    9.3390  -16.0076   25.6247 C   0  0  0  0  0  0  0  0  0  0  0  0
    9.9034  -14.8349   27.6643 O   0  0  0  0  0  0  0  0  0  0  0  0
    9.9794  -15.9058   28.3016 O   0  0  0  0  0  0  0  0  0  0  0  0
  1  2  1  0
  2  3  2  0
  2  4  1  0
  4  5  1  0
  5  6  1  0
  7  8  1  0
  7  6  1  0
  8  9  1  6
  8 10  1  0
 10 11  2  0
 12 13  1  0
 13 23  2  0
 13 14  1  0
 14 15  2  0
 15 16  1  0
 16 17  1  0
 18 17  1  6
 18 20  1  0
 19 10  1  0
 19 18  1  0
 20 29  1  0
 21 20  2  0
 22 16  2  0
 23 22  1  0
 25 24  1  0
 26 25  1  0
 27 26  1  0
 28 30  1  0
 28 27  1  6
 29 28  1  0
 30 32  1  0
 31 30  2  0
M  END
$$$$
