RYM.pdb
     RDKit          3D

 32 32  0  0  1  0  0  0  0  0999 V2000
    7.0806  -18.9919   22.9620 N   0  0  0  0  0  0  0  0  0  0  0  0
    6.1765  -19.8600   22.2612 C   0  0  0  0  0  0  0  0  0  0  0  0
    5.1902  -20.4262   22.8633 N   0  0  0  0  0  0  0  0  0  0  0  0
    6.3911  -20.0889   20.8676 N   0  0  0  0  0  0  0  0  0  0  0  0
    7.4289  -19.4224   20.1415 C   0  0  0  0  0  0  0  0  0  0  0  0
    8.7882  -19.6365   20.6761 C   0  0  0  0  0  0  0  0  0  0  0  0
    9.9396  -18.9392   20.0576 C   0  0  0  0  0  0  0  0  0  0  0  0
    9.9338  -17.4885   19.8602 C   0  0  2  0  0  0  0  0  0  0  0  0
   11.0095  -16.9466   19.0622 N   0  0  0  0  0  0  0  0  0  0  0  0
    9.7880  -16.7193   21.1325 C   0  0  0  0  0  0  0  0  0  0  0  0
   10.8814  -16.4034   21.6959 O   0  0  0  0  0  0  0  0  0  0  0  0
    4.5280  -21.0827   22.4205 O   0  0  0  0  0  0  0  0  0  0  0  0
    6.4428  -11.7338   27.6476 C   0  0  0  0  0  0  0  0  0  0  0  0
    6.5742  -12.6046   26.5556 C   0  0  0  0  0  0  0  0  0  0  0  0
    6.3225  -13.9533   26.6726 C   0  0  0  0  0  0  0  0  0  0  0  0
    6.4591  -14.7937   25.5790 C   0  0  0  0  0  0  0  0  0  0  0  0
    6.8472  -14.3292   24.3414 C   0  0  0  0  0  0  0  0  0  0  0  0
    6.9922  -15.2173   23.1652 C   0  0  1  0  0  0  0  0  0  0  0  0
    8.4382  -15.4811   22.7987 N   0  0  0  0  0  0  0  0  0  0  0  0
    8.5291  -16.3687   21.6691 C   0  0  0  0  0  0  0  0  0  0  0  0
    9.0965  -16.1459   23.9609 O   0  0  0  0  0  0  0  0  0  0  0  0
    9.0450  -17.3960   24.1001 C   0  0  0  0  0  0  0  0  0  0  0  0
    7.0996  -12.9677   24.2319 C   0  0  0  0  0  0  0  0  0  0  0  0
    6.9633  -12.1265   25.3242 C   0  0  0  0  0  0  0  0  0  0  0  0
   11.4362  -12.7305   28.6951 S   0  0  0  0  0  0  0  0  0  0  0  0
   11.5332  -14.3094   29.5848 C   0  0  0  0  0  0  0  0  0  0  0  0
   11.1768  -15.6749   28.4136 C   0  0  0  0  0  0  0  0  0  0  0  0
   10.6218  -15.0601   27.1703 C   0  0  1  0  0  0  0  0  0  0  0  0
   10.3402  -16.0804   26.0918 N   0  0  0  0  0  0  0  0  0  0  0  0
    9.7970  -15.4025   24.9428 C   0  0  0  0  0  0  0  0  0  0  0  0
    9.4559  -17.1838   26.5442 O   0  0  0  0  0  0  0  0  0  0  0  0
    9.8411  -18.3423   26.8060 O   0  0  0  0  0  0  0  0  0  0  0  0
  1  2  1  0
  2  3  2  0
  2  4  1  0
  4  5  1  0
  5  6  1  0
  7  8  1  0
  7  6  1  0
  8  9  1  1
  8 10  1  0
 10 11  2  0
 12 13  1  0
 13 23  2  0
 13 14  1  0
 14 15  2  0
 15 16  1  0
 16 17  1  0
 18 17  1  6
 18 20  1  0
 19 10  1  0
 19 18  1  0
 20 29  1  0
 21 20  2  0
 22 16  2  0
 23 22  1  0
 25 24  1  0
 26 25  1  0
 27 26  1  0
 28 30  1  0
 28 27  1  6
 29 28  1  0
 30 32  1  0
 31 30  2  0
M  END
$$$$
