RYM.pdb
     RDKit          3D

 32 32  0  0  1  0  0  0  0  0999 V2000
    7.7072  -13.5813   15.2867 N   0  0  0  0  0  0  0  0  0  0  0  0
    8.4632  -13.4246   16.4975 C   0  0  0  0  0  0  0  0  0  0  0  0
    8.4955  -12.3022   17.1261 N   0  0  0  0  0  0  0  0  0  0  0  0
    9.1887  -14.5477   17.0004 N   0  0  0  0  0  0  0  0  0  0  0  0
    8.8025  -15.8935   16.7033 C   0  0  0  0  0  0  0  0  0  0  0  0
    7.9924  -16.5460   17.7508 C   0  0  0  0  0  0  0  0  0  0  0  0
    8.4736  -17.7985   18.3788 C   0  0  0  0  0  0  0  0  0  0  0  0
    9.5025  -17.7807   19.4203 C   0  0  2  0  0  0  0  0  0  0  0  0
    9.8291  -19.0543   20.0193 N   0  0  0  0  0  0  0  0  0  0  0  0
    9.2564  -16.7537   20.4768 C   0  0  0  0  0  0  0  0  0  0  0  0
    9.4695  -15.5543   20.1182 O   0  0  0  0  0  0  0  0  0  0  0  0
    9.0501  -12.1192   17.9773 O   0  0  0  0  0  0  0  0  0  0  0  0
    6.6329  -12.0427   27.3671 C   0  0  0  0  0  0  0  0  0  0  0  0
    6.7773  -12.9900   26.3426 C   0  0  0  0  0  0  0  0  0  0  0  0
    6.2893  -14.2713   26.4692 C   0  0  0  0  0  0  0  0  0  0  0  0
    6.4440  -15.1896   25.4428 C   0  0  0  0  0  0  0  0  0  0  0  0
    7.0834  -14.8713   24.2646 C   0  0  0  0  0  0  0  0  0  0  0  0
    7.2506  -15.8432   23.1597 C   0  0  1  0  0  0  0  0  0  0  0  0
    8.7017  -16.0774   22.7934 N   0  0  0  0  0  0  0  0  0  0  0  0
    8.8190  -17.0903   21.7772 C   0  0  0  0  0  0  0  0  0  0  0  0
    9.4142  -16.5621   24.0113 O   0  0  0  0  0  0  0  0  0  0  0  0
    9.3497  -17.7714   24.3550 C   0  0  0  0  0  0  0  0  0  0  0  0
    7.5730  -13.5771   24.1449 C   0  0  0  0  0  0  0  0  0  0  0  0
    7.4188  -12.6581   25.1702 C   0  0  0  0  0  0  0  0  0  0  0  0
   10.1183  -14.9045   31.3931 S   0  0  0  0  0  0  0  0  0  0  0  0
   10.0135  -14.2818   29.6915 C   0  0  0  0  0  0  0  0  0  0  0  0
   10.5641  -15.5995   28.5410 C   0  0  0  0  0  0  0  0  0  0  0  0
   10.2450  -15.1410   27.1554 C   0  0  1  0  0  0  0  0  0  0  0  0
   10.6581  -16.1418   26.1013 N   0  0  0  0  0  0  0  0  0  0  0  0
   10.1825  -15.6881   24.8196 C   0  0  0  0  0  0  0  0  0  0  0  0
   10.2039  -17.5245   26.3947 O   0  0  0  0  0  0  0  0  0  0  0  0
    9.0757  -17.9779   26.1111 O   0  0  0  0  0  0  0  0  0  0  0  0
  1  2  1  0
  2  3  2  0
  2  4  1  0
  4  5  1  0
  5  6  1  0
  7  8  1  0
  7  6  1  0
  8  9  1  1
  8 10  1  0
 10 11  2  0
 12 13  1  0
 13 23  2  0
 13 14  1  0
 14 15  2  0
 15 16  1  0
 16 17  1  0
 18 17  1  6
 18 20  1  0
 19 10  1  0
 19 18  1  0
 20 29  1  0
 21 20  2  0
 22 16  2  0
 23 22  1  0
 25 24  1  0
 26 25  1  0
 27 26  1  0
 28 30  1  0
 28 27  1  6
 29 28  1  0
 30 32  1  0
 31 30  2  0
M  END
$$$$
