RYM.pdb
     RDKit          3D

 32 32  0  0  1  0  0  0  0  0999 V2000
    7.6614  -17.1184   16.9688 N   0  0  0  0  0  0  0  0  0  0  0  0
    7.6276  -18.4974   16.5697 C   0  0  0  0  0  0  0  0  0  0  0  0
    6.8833  -18.8952   15.5983 N   0  0  0  0  0  0  0  0  0  0  0  0
    8.4432  -19.4335   17.2763 N   0  0  0  0  0  0  0  0  0  0  0  0
    9.0518  -19.1120   18.5312 C   0  0  0  0  0  0  0  0  0  0  0  0
   10.2758  -18.2932   18.4288 C   0  0  0  0  0  0  0  0  0  0  0  0
   11.0653  -17.9959   19.6465 C   0  0  0  0  0  0  0  0  0  0  0  0
   10.4383  -17.9571   20.9691 C   0  0  2  0  0  0  0  0  0  0  0  0
    9.1890  -18.6698   21.1065 N   0  0  0  0  0  0  0  0  0  0  0  0
   10.3163  -16.5760   21.5252 C   0  0  0  0  0  0  0  0  0  0  0  0
   11.3579  -15.8585   21.4110 O   0  0  0  0  0  0  0  0  0  0  0  0
    6.7824  -19.8774   15.2971 O   0  0  0  0  0  0  0  0  0  0  0  0
    7.9016  -13.8223   16.1771 C   0  0  0  0  0  0  0  0  0  0  0  0
    7.8669  -13.8824   17.5783 C   0  0  0  0  0  0  0  0  0  0  0  0
    8.3122  -12.8381   18.3575 C   0  0  0  0  0  0  0  0  0  0  0  0
    8.2677  -12.9210   19.7402 C   0  0  0  0  0  0  0  0  0  0  0  0
    7.7839  -14.0337   20.3927 C   0  0  0  0  0  0  0  0  0  0  0  0
    7.7277  -14.1313   21.8695 C   0  0  2  0  0  0  0  0  0  0  0  0
    8.9911  -14.7108   22.4718 N   0  0  0  0  0  0  0  0  0  0  0  0
    9.1317  -16.1025   22.1320 C   0  0  0  0  0  0  0  0  0  0  0  0
    8.8857  -14.6075   23.9564 O   0  0  0  0  0  0  0  0  0  0  0  0
    8.9034  -13.4846   24.5254 C   0  0  0  0  0  0  0  0  0  0  0  0
    7.3370  -15.0828   19.5996 C   0  0  0  0  0  0  0  0  0  0  0  0
    7.3809  -15.0012   18.2173 C   0  0  0  0  0  0  0  0  0  0  0  0
    7.4500  -11.6917   27.8805 S   0  0  0  0  0  0  0  0  0  0  0  0
    6.2108  -12.5209   26.8458 C   0  0  0  0  0  0  0  0  0  0  0  0
    7.0631  -13.6889   25.7177 C   0  0  0  0  0  0  0  0  0  0  0  0
    7.2554  -14.9679   26.4654 C   0  0  2  0  0  0  0  0  0  0  0  0
    8.6000  -15.6028   26.1969 N   0  0  0  0  0  0  0  0  0  0  0  0
    8.7637  -15.7580   24.7742 C   0  0  0  0  0  0  0  0  0  0  0  0
    8.7956  -16.8886   26.9130 O   0  0  0  0  0  0  0  0  0  0  0  0
    8.7720  -17.0223   28.1542 O   0  0  0  0  0  0  0  0  0  0  0  0
  1  2  1  0
  2  3  2  0
  2  4  1  0
  4  5  1  0
  5  6  1  0
  7  8  1  0
  7  6  1  0
  8  9  1  6
  8 10  1  0
 10 11  2  0
 12 13  1  0
 13 23  2  0
 13 14  1  0
 14 15  2  0
 15 16  1  0
 16 17  1  0
 18 17  1  6
 18 20  1  0
 19 10  1  0
 19 18  1  0
 20 29  1  0
 21 20  2  0
 22 16  2  0
 23 22  1  0
 25 24  1  0
 26 25  1  0
 27 26  1  0
 28 30  1  0
 28 27  1  6
 29 28  1  0
 30 32  1  0
 31 30  2  0
M  END
$$$$
