RYM.pdb
     RDKit          3D

 32 32  0  0  1  0  0  0  0  0999 V2000
   11.1467  -20.8843   23.8608 N   0  0  0  0  0  0  0  0  0  0  0  0
   10.9838  -21.0640   25.2762 C   0  0  0  0  0  0  0  0  0  0  0  0
   11.9253  -20.7670   26.1015 N   0  0  0  0  0  0  0  0  0  0  0  0
    9.7447  -21.5843   25.7608 N   0  0  0  0  0  0  0  0  0  0  0  0
    8.8220  -22.2648   24.9040 C   0  0  0  0  0  0  0  0  0  0  0  0
    8.3870  -21.4865   23.7276 C   0  0  0  0  0  0  0  0  0  0  0  0
    7.0972  -20.7587   23.7636 C   0  0  0  0  0  0  0  0  0  0  0  0
    6.5492  -20.1221   22.5644 C   0  0  2  0  0  0  0  0  0  0  0  0
    6.4808  -20.9436   21.3778 N   0  0  0  0  0  0  0  0  0  0  0  0
    7.1819  -18.8051   22.2527 C   0  0  0  0  0  0  0  0  0  0  0  0
    8.3865  -18.8699   21.8559 O   0  0  0  0  0  0  0  0  0  0  0  0
   11.8692  -20.8822   27.1258 O   0  0  0  0  0  0  0  0  0  0  0  0
    8.8199  -11.3408   18.3864 C   0  0  0  0  0  0  0  0  0  0  0  0
    8.1778  -12.3326   19.1427 C   0  0  0  0  0  0  0  0  0  0  0  0
    8.0532  -13.6246   18.6829 C   0  0  0  0  0  0  0  0  0  0  0  0
    7.4146  -14.5872   19.4486 C   0  0  0  0  0  0  0  0  0  0  0  0
    6.8816  -14.3039   20.6870 C   0  0  0  0  0  0  0  0  0  0  0  0
    6.2010  -15.3256   21.5155 C   0  0  2  0  0  0  0  0  0  0  0  0
    7.1595  -16.3328   22.1170 N   0  0  0  0  0  0  0  0  0  0  0  0
    6.4927  -17.5794   22.3880 C   0  0  0  0  0  0  0  0  0  0  0  0
    7.6546  -15.7840   23.4129 O   0  0  0  0  0  0  0  0  0  0  0  0
    6.9039  -15.0866   24.1443 C   0  0  0  0  0  0  0  0  0  0  0  0
    7.0111  -12.9985   21.1434 C   0  0  0  0  0  0  0  0  0  0  0  0
    7.6493  -12.0353   20.3791 C   0  0  0  0  0  0  0  0  0  0  0  0
    6.1623  -12.2052   26.7482 S   0  0  0  0  0  0  0  0  0  0  0  0
    7.6754  -13.2073   26.7237 C   0  0  0  0  0  0  0  0  0  0  0  0
    7.2559  -14.9043   26.1691 C   0  0  0  0  0  0  0  0  0  0  0  0
    8.5165  -15.7054   26.1986 C   0  0  2  0  0  0  0  0  0  0  0  0
    9.4476  -15.3681   25.0573 N   0  0  0  0  0  0  0  0  0  0  0  0
    8.9759  -16.0238   23.8648 C   0  0  0  0  0  0  0  0  0  0  0  0
   10.8667  -15.7013   25.3394 O   0  0  0  0  0  0  0  0  0  0  0  0
   11.5197  -15.2675   26.3111 O   0  0  0  0  0  0  0  0  0  0  0  0
  1  2  1  0
  2  3  2  0
  2  4  1  0
  4  5  1  0
  5  6  1  0
  7  8  1  0
  7  6  1  0
  8  9  1  6
  8 10  1  0
 10 11  2  0
 12 13  1  0
 13 23  2  0
 13 14  1  0
 14 15  2  0
 15 16  1  0
 16 17  1  0
 18 17  1  6
 18 20  1  0
 19 10  1  0
 19 18  1  0
 20 29  1  0
 21 20  2  0
 22 16  2  0
 23 22  1  0
 25 24  1  0
 26 25  1  0
 27 26  1  0
 28 30  1  0
 28 27  1  6
 29 28  1  0
 30 32  1  0
 31 30  2  0
M  END
$$$$
