RYM.pdb
     RDKit          3D

 32 32  0  0  1  0  0  0  0  0999 V2000
   10.0913  -13.7455   19.8627 N   0  0  0  0  0  0  0  0  0  0  0  0
    9.0873  -13.3903   18.8995 C   0  0  0  0  0  0  0  0  0  0  0  0
    8.5033  -12.2441   18.9328 N   0  0  0  0  0  0  0  0  0  0  0  0
    8.7417  -14.3406   17.8904 N   0  0  0  0  0  0  0  0  0  0  0  0
    8.4310  -15.7016   18.2062 C   0  0  0  0  0  0  0  0  0  0  0  0
    7.0626  -15.9172   18.7163 C   0  0  0  0  0  0  0  0  0  0  0  0
    6.8620  -16.5875   20.0220 C   0  0  0  0  0  0  0  0  0  0  0  0
    7.7620  -17.6481   20.4790 C   0  0  2  0  0  0  0  0  0  0  0  0
    7.4517  -18.9871   20.0336 N   0  0  0  0  0  0  0  0  0  0  0  0
    7.9971  -17.6291   21.9541 C   0  0  0  0  0  0  0  0  0  0  0  0
    6.9446  -17.6039   22.6642 O   0  0  0  0  0  0  0  0  0  0  0  0
    7.8505  -11.8942   18.2138 O   0  0  0  0  0  0  0  0  0  0  0  0
   11.5755  -17.9338   30.0166 C   0  0  0  0  0  0  0  0  0  0  0  0
   11.4007  -17.9565   28.6249 C   0  0  0  0  0  0  0  0  0  0  0  0
   12.1768  -17.1878   27.7866 C   0  0  0  0  0  0  0  0  0  0  0  0
   11.9855  -17.2274   26.4146 C   0  0  0  0  0  0  0  0  0  0  0  0
   11.0250  -18.0245   25.8311 C   0  0  0  0  0  0  0  0  0  0  0  0
   10.8147  -18.0779   24.3661 C   0  0  2  0  0  0  0  0  0  0  0  0
    9.4702  -17.5238   23.9417 N   0  0  0  0  0  0  0  0  0  0  0  0
    9.2924  -17.6391   22.5178 C   0  0  0  0  0  0  0  0  0  0  0  0
    9.4344  -16.0747   24.2945 O   0  0  0  0  0  0  0  0  0  0  0  0
   10.0539  -15.2282   23.5984 C   0  0  0  0  0  0  0  0  0  0  0  0
   10.2462  -18.7965   26.6836 C   0  0  0  0  0  0  0  0  0  0  0  0
   10.4366  -18.7578   28.0553 C   0  0  0  0  0  0  0  0  0  0  0  0
    5.3019  -10.1155   26.9622 S   0  0  0  0  0  0  0  0  0  0  0  0
    5.4540  -11.8774   26.5541 C   0  0  0  0  0  0  0  0  0  0  0  0
    7.2259  -12.2797   26.3063 C   0  0  0  0  0  0  0  0  0  0  0  0
    7.3076  -13.7304   25.9588 C   0  0  1  0  0  0  0  0  0  0  0  0
    8.7270  -14.1952   25.7294 N   0  0  0  0  0  0  0  0  0  0  0  0
    8.7095  -15.6009   25.4159 C   0  0  0  0  0  0  0  0  0  0  0  0
    9.6325  -13.9004   26.8685 O   0  0  0  0  0  0  0  0  0  0  0  0
    9.9458  -12.7536   27.2498 O   0  0  0  0  0  0  0  0  0  0  0  0
  1  2  1  0
  2  3  2  0
  2  4  1  0
  4  5  1  0
  5  6  1  0
  7  8  1  0
  7  6  1  0
  8  9  1  1
  8 10  1  0
 10 11  2  0
 12 13  1  0
 13 23  2  0
 13 14  1  0
 14 15  2  0
 15 16  1  0
 16 17  1  0
 18 17  1  1
 18 20  1  0
 19 10  1  0
 19 18  1  0
 20 29  1  0
 21 20  2  0
 22 16  2  0
 23 22  1  0
 25 24  1  0
 26 25  1  0
 27 26  1  0
 28 30  1  0
 28 27  1  6
 29 28  1  0
 30 32  1  0
 31 30  2  0
M  END
$$$$
