RYM.pdb
     RDKit          3D

 32 32  0  0  1  0  0  0  0  0999 V2000
    8.2146  -13.1738   14.5374 N   0  0  0  0  0  0  0  0  0  0  0  0
    8.6074  -14.4282   13.9594 C   0  0  0  0  0  0  0  0  0  0  0  0
    8.3405  -14.7132   12.7332 N   0  0  0  0  0  0  0  0  0  0  0  0
    9.3079  -15.3676   14.7765 N   0  0  0  0  0  0  0  0  0  0  0  0
    9.3652  -15.2380   16.2007 C   0  0  0  0  0  0  0  0  0  0  0  0
    8.2714  -14.4408   16.7899 C   0  0  0  0  0  0  0  0  0  0  0  0
    8.2704  -14.1553   18.2435 C   0  0  0  0  0  0  0  0  0  0  0  0
    8.3685  -15.2324   19.2304 C   0  0  2  0  0  0  0  0  0  0  0  0
    7.3144  -16.2203   19.2068 N   0  0  0  0  0  0  0  0  0  0  0  0
    8.5922  -14.7398   20.6228 C   0  0  0  0  0  0  0  0  0  0  0  0
    9.6495  -14.0555   20.7857 O   0  0  0  0  0  0  0  0  0  0  0  0
    8.5779  -15.6048   12.2703 O   0  0  0  0  0  0  0  0  0  0  0  0
    7.4945  -11.5746   28.7371 C   0  0  0  0  0  0  0  0  0  0  0  0
    7.3072  -12.1327   27.4638 C   0  0  0  0  0  0  0  0  0  0  0  0
    8.0418  -11.7150   26.3766 C   0  0  0  0  0  0  0  0  0  0  0  0
    7.8387  -12.2819   25.1283 C   0  0  0  0  0  0  0  0  0  0  0  0
    6.9072  -13.2747   24.9169 C   0  0  0  0  0  0  0  0  0  0  0  0
    6.6849  -13.8905   23.5884 C   0  0  2  0  0  0  0  0  0  0  0  0
    7.9426  -14.4957   22.9998 N   0  0  0  0  0  0  0  0  0  0  0  0
    7.6954  -15.0134   21.6795 C   0  0  0  0  0  0  0  0  0  0  0  0
    8.3599  -15.6335   23.8700 O   0  0  0  0  0  0  0  0  0  0  0  0
    7.5011  -16.3411   24.4585 C   0  0  0  0  0  0  0  0  0  0  0  0
    6.1702  -13.6901   26.0185 C   0  0  0  0  0  0  0  0  0  0  0  0
    6.3723  -13.1244   27.2668 C   0  0  0  0  0  0  0  0  0  0  0  0
   14.0029  -20.8268   25.4987 S   0  0  0  0  0  0  0  0  0  0  0  0
   13.4792  -19.3269   24.6212 C   0  0  0  0  0  0  0  0  0  0  0  0
   11.8480  -18.7968   25.2705 C   0  0  0  0  0  0  0  0  0  0  0  0
   11.4226  -17.6022   24.4807 C   0  0  2  0  0  0  0  0  0  0  0  0
   10.0768  -17.0678   24.9127 N   0  0  0  0  0  0  0  0  0  0  0  0
    9.7254  -15.9571   24.0655 C   0  0  0  0  0  0  0  0  0  0  0  0
   10.0261  -16.6969   26.3494 O   0  0  0  0  0  0  0  0  0  0  0  0
   10.4414  -15.6178   26.8205 O   0  0  0  0  0  0  0  0  0  0  0  0
  1  2  1  0
  2  3  2  0
  2  4  1  0
  4  5  1  0
  5  6  1  0
  7  8  1  0
  7  6  1  0
  8  9  1  1
  8 10  1  0
 10 11  2  0
 12 13  1  0
 13 23  2  0
 13 14  1  0
 14 15  2  0
 15 16  1  0
 16 17  1  0
 18 17  1  6
 18 20  1  0
 19 10  1  0
 19 18  1  0
 20 29  1  0
 21 20  2  0
 22 16  2  0
 23 22  1  0
 25 24  1  0
 26 25  1  0
 27 26  1  0
 28 30  1  0
 28 27  1  6
 29 28  1  0
 30 32  1  0
 31 30  2  0
M  END
$$$$
