GNG.pdb
     RDKit          3D

 17 16  0  0  1  0  0  0  0  0999 V2000
   18.0443  -10.0959  -15.5160 N   0  0  0  0  0  0  0  0  0  0  0  0
   18.2858   -8.9195  -16.3645 C   0  0  0  0  0  0  0  0  0  0  0  0
   19.0727   -7.9472  -15.5696 C   0  0  0  0  0  0  0  0  0  0  0  0
   18.6879   -7.6146  -14.4094 O   0  0  0  0  0  0  0  0  0  0  0  0
   22.7466   -9.1237  -14.4698 N   0  0  0  0  0  0  0  0  0  0  0  0
   22.3528   -7.8233  -14.0574 C   0  0  0  0  0  0  0  0  0  0  0  0
   21.9895   -7.6827  -12.8614 O   0  0  0  0  0  0  0  0  0  0  0  0
   22.3455   -6.6358  -14.9620 C   0  0  0  0  0  0  0  0  0  0  0  0
   20.8898   -6.3198  -15.2845 C   0  0  2  0  0  0  0  0  0  0  0  0
   20.2733   -7.3514  -16.0557 N   0  0  0  0  0  0  0  0  0  0  0  0
   20.8140   -5.0509  -16.0396 C   0  0  0  0  0  0  0  0  0  0  0  0
   20.8878   -5.0255  -17.2923 O   0  0  0  0  0  0  0  0  0  0  0  0
   20.6511   -3.7847  -15.3765 N   0  0  0  0  0  0  0  0  0  0  0  0
   20.6672   -2.5420  -16.1108 C   0  0  0  0  0  0  0  0  0  0  0  0
   20.4595   -1.3930  -15.1978 C   0  0  0  0  0  0  0  0  0  0  0  0
   20.2162   -1.5913  -13.9961 O   0  0  0  0  0  0  0  0  0  0  0  0
   20.5332   -0.0814  -15.6610 O   0  0  0  0  0  0  0  0  0  0  0  0
  1  2  1  0
  2  3  1  0
  3  4  2  0
  3 10  1  0
  6  7  2  0
  6  5  1  0
  9  8  1  6
  8  6  1  0
  9 11  1  0
 10  9  1  0
 11 12  2  0
 13 11  1  0
 13 14  1  0
 15 14  1  0
 15 17  1  0
 16 15  2  0
M  END
$$$$
