GNG.pdb
     RDKit          3D

 17 16  0  0  1  0  0  0  0  0999 V2000
   20.3119  -12.0352  -16.9842 N   0  0  0  0  0  0  0  0  0  0  0  0
   19.3021  -11.7799  -15.9463 C   0  0  0  0  0  0  0  0  0  0  0  0
   18.9076  -10.3547  -16.0454 C   0  0  0  0  0  0  0  0  0  0  0  0
   18.7991   -9.8022  -17.1802 O   0  0  0  0  0  0  0  0  0  0  0  0
   14.9573   -7.9254  -15.9518 N   0  0  0  0  0  0  0  0  0  0  0  0
   15.8079   -8.5708  -15.0158 C   0  0  0  0  0  0  0  0  0  0  0  0
   15.5829   -9.7844  -14.7730 O   0  0  0  0  0  0  0  0  0  0  0  0
   16.9351   -7.8877  -14.3150 C   0  0  0  0  0  0  0  0  0  0  0  0
   18.2091   -8.2028  -15.0901 C   0  0  2  0  0  0  0  0  0  0  0  0
   18.6355   -9.5521  -14.8990 N   0  0  0  0  0  0  0  0  0  0  0  0
   19.2915   -7.2950  -14.6540 C   0  0  0  0  0  0  0  0  0  0  0  0
   19.1286   -6.0513  -14.6081 O   0  0  0  0  0  0  0  0  0  0  0  0
   20.5828   -7.7921  -14.2601 N   0  0  0  0  0  0  0  0  0  0  0  0
   21.6530   -6.8977  -13.8878 C   0  0  0  0  0  0  0  0  0  0  0  0
   22.1010   -6.1042  -15.0568 C   0  0  0  0  0  0  0  0  0  0  0  0
   22.1386   -6.6257  -16.1833 O   0  0  0  0  0  0  0  0  0  0  0  0
   22.4836   -4.7718  -14.9199 O   0  0  0  0  0  0  0  0  0  0  0  0
  1  2  1  0
  2  3  1  0
  3  4  2  0
  3 10  1  0
  6  7  2  0
  6  5  1  0
  9  8  1  1
  8  6  1  0
  9 11  1  0
 10  9  1  0
 11 12  2  0
 13 11  1  0
 13 14  1  0
 15 14  1  0
 15 17  1  0
 16 15  2  0
M  END
$$$$
