GNG.pdb
     RDKit          3D

 17 16  0  0  1  0  0  0  0  0999 V2000
   26.0162  -11.6487  -20.7993 N   0  0  0  0  0  0  0  0  0  0  0  0
   25.5736  -10.2764  -20.5110 C   0  0  0  0  0  0  0  0  0  0  0  0
   24.8986  -10.2908  -19.1917 C   0  0  0  0  0  0  0  0  0  0  0  0
   23.7579  -10.8272  -19.0666 O   0  0  0  0  0  0  0  0  0  0  0  0
   27.4645   -9.7002  -16.6372 N   0  0  0  0  0  0  0  0  0  0  0  0
   26.7430  -10.5956  -15.8042 C   0  0  0  0  0  0  0  0  0  0  0  0
   27.4118  -11.3452  -15.0473 O   0  0  0  0  0  0  0  0  0  0  0  0
   25.2533  -10.6907  -15.7877 C   0  0  0  0  0  0  0  0  0  0  0  0
   24.7236   -9.6972  -16.8150 C   0  0  2  0  0  0  0  0  0  0  0  0
   25.4827   -9.7175  -18.0243 N   0  0  0  0  0  0  0  0  0  0  0  0
   24.7643   -8.3316  -16.2501 C   0  0  0  0  0  0  0  0  0  0  0  0
   25.7957   -7.6200  -16.3230 O   0  0  0  0  0  0  0  0  0  0  0  0
   23.6249   -7.7515  -15.5907 N   0  0  0  0  0  0  0  0  0  0  0  0
   23.6476   -6.3932  -15.1025 C   0  0  0  0  0  0  0  0  0  0  0  0
   22.3816   -6.0681  -14.4036 C   0  0  0  0  0  0  0  0  0  0  0  0
   21.4540   -6.8937  -14.3838 O   0  0  0  0  0  0  0  0  0  0  0  0
   22.2068   -4.8452  -13.7598 O   0  0  0  0  0  0  0  0  0  0  0  0
  1  2  1  0
  2  3  1  0
  3  4  2  0
  3 10  1  0
  6  7  2  0
  6  5  1  0
  9  8  1  1
  8  6  1  0
  9 11  1  0
 10  9  1  0
 11 12  2  0
 13 11  1  0
 13 14  1  0
 15 14  1  0
 15 17  1  0
 16 15  2  0
M  END
$$$$
