GNG.pdb
     RDKit          3D

 17 16  0  0  1  0  0  0  0  0999 V2000
   26.1429  -20.1516   -8.9215 N   0  0  0  0  0  0  0  0  0  0  0  0
   25.9026  -21.2054   -9.9183 C   0  0  0  0  0  0  0  0  0  0  0  0
   25.3700  -20.5551  -11.1390 C   0  0  0  0  0  0  0  0  0  0  0  0
   25.1556  -19.3066  -11.1526 O   0  0  0  0  0  0  0  0  0  0  0  0
   27.7123  -21.6543  -14.6716 N   0  0  0  0  0  0  0  0  0  0  0  0
   26.6491  -20.7209  -14.7919 C   0  0  0  0  0  0  0  0  0  0  0  0
   26.9578  -19.5081  -14.9184 O   0  0  0  0  0  0  0  0  0  0  0  0
   25.2064  -21.1039  -14.7713 C   0  0  0  0  0  0  0  0  0  0  0  0
   24.6123  -20.5656  -13.4751 C   0  0  2  0  0  0  0  0  0  0  0  0
   25.0795  -21.2811  -12.3311 N   0  0  0  0  0  0  0  0  0  0  0  0
   23.1380  -20.6628  -13.5280 C   0  0  0  0  0  0  0  0  0  0  0  0
   22.5337  -21.7012  -13.1649 O   0  0  0  0  0  0  0  0  0  0  0  0
   22.3245  -19.5728  -13.9969 N   0  0  0  0  0  0  0  0  0  0  0  0
   20.8836  -19.6227  -13.9248 C   0  0  0  0  0  0  0  0  0  0  0  0
   20.3418  -20.5555  -14.9413 C   0  0  0  0  0  0  0  0  0  0  0  0
   20.6612  -20.4269  -16.1345 O   0  0  0  0  0  0  0  0  0  0  0  0
   19.4742  -21.5855  -14.5851 O   0  0  0  0  0  0  0  0  0  0  0  0
  1  2  1  0
  2  3  1  0
  3  4  2  0
  3 10  1  0
  6  7  2  0
  6  5  1  0
  9  8  1  6
  8  6  1  0
  9 11  1  0
 10  9  1  0
 11 12  2  0
 13 11  1  0
 13 14  1  0
 15 14  1  0
 15 17  1  0
 16 15  2  0
M  END
$$$$
