GNG.pdb
     RDKit          3D

 17 16  0  0  1  0  0  0  0  0999 V2000
   25.6504  -33.0998   -9.3873 N   0  0  0  0  0  0  0  0  0  0  0  0
   25.5477  -32.2668   -8.1799 C   0  0  0  0  0  0  0  0  0  0  0  0
   26.0133  -33.0811   -7.0324 C   0  0  0  0  0  0  0  0  0  0  0  0
   26.5269  -34.2223   -7.2290 O   0  0  0  0  0  0  0  0  0  0  0  0
   28.7292  -34.5530   -5.6369 N   0  0  0  0  0  0  0  0  0  0  0  0
   28.8360  -33.5727   -4.6152 C   0  0  0  0  0  0  0  0  0  0  0  0
   29.9930  -33.2673   -4.2275 O   0  0  0  0  0  0  0  0  0  0  0  0
   27.6597  -32.9018   -3.9871 C   0  0  0  0  0  0  0  0  0  0  0  0
   26.4077  -33.4750   -4.6406 C   0  0  2  0  0  0  0  0  0  0  0  0
   25.9114  -32.6341   -5.6824 N   0  0  0  0  0  0  0  0  0  0  0  0
   25.3504  -33.6447   -3.6212 C   0  0  0  0  0  0  0  0  0  0  0  0
   24.8642  -32.6633   -3.0080 O   0  0  0  0  0  0  0  0  0  0  0  0
   24.8266  -34.9413   -3.2833 N   0  0  0  0  0  0  0  0  0  0  0  0
   23.8166  -35.1038   -2.2648 C   0  0  0  0  0  0  0  0  0  0  0  0
   23.5046  -36.5386   -2.0629 C   0  0  0  0  0  0  0  0  0  0  0  0
   22.5770  -36.8717   -1.3073 O   0  0  0  0  0  0  0  0  0  0  0  0
   24.2348  -37.5332   -2.7095 O   0  0  0  0  0  0  0  0  0  0  0  0
  1  2  1  0
  2  3  1  0
  3  4  2  0
  3 10  1  0
  6  7  2  0
  6  5  1  0
  9  8  1  1
  8  6  1  0
  9 11  1  0
 10  9  1  0
 11 12  2  0
 13 11  1  0
 13 14  1  0
 15 14  1  0
 15 17  1  0
 16 15  2  0
M  END
$$$$
