GNG.pdb
     RDKit          3D

 17 16  0  0  1  0  0  0  0  0999 V2000
   25.9325  -25.2272  -15.6014 N   0  0  0  0  0  0  0  0  0  0  0  0
   26.4422  -23.8643  -15.8130 C   0  0  0  0  0  0  0  0  0  0  0  0
   25.5115  -22.9279  -15.1396 C   0  0  0  0  0  0  0  0  0  0  0  0
   24.2650  -23.0084  -15.3504 O   0  0  0  0  0  0  0  0  0  0  0  0
   25.5454  -22.6851  -11.6506 N   0  0  0  0  0  0  0  0  0  0  0  0
   25.8052  -21.3018  -11.4624 C   0  0  0  0  0  0  0  0  0  0  0  0
   26.3029  -20.9530  -10.3611 O   0  0  0  0  0  0  0  0  0  0  0  0
   25.5164  -20.2590  -12.4908 C   0  0  0  0  0  0  0  0  0  0  0  0
   25.0077  -20.9772  -13.7351 C   0  0  2  0  0  0  0  0  0  0  0  0
   25.9584  -21.9144  -14.2420 N   0  0  0  0  0  0  0  0  0  0  0  0
   24.7065  -19.9865  -14.7904 C   0  0  0  0  0  0  0  0  0  0  0  0
   25.6161  -19.4557  -15.4734 O   0  0  0  0  0  0  0  0  0  0  0  0
   23.3577  -19.5835  -15.0868 N   0  0  0  0  0  0  0  0  0  0  0  0
   23.0641  -18.6688  -16.1643 C   0  0  0  0  0  0  0  0  0  0  0  0
   21.6264  -18.3086  -16.1664 C   0  0  0  0  0  0  0  0  0  0  0  0
   20.7918  -19.0885  -16.6539 O   0  0  0  0  0  0  0  0  0  0  0  0
   21.1844  -17.1027  -15.6269 O   0  0  0  0  0  0  0  0  0  0  0  0
  1  2  1  0
  2  3  1  0
  3  4  2  0
  3 10  1  0
  6  7  2  0
  6  5  1  0
  9  8  1  1
  8  6  1  0
  9 11  1  0
 10  9  1  0
 11 12  2  0
 13 11  1  0
 13 14  1  0
 15 14  1  0
 15 17  1  0
 16 15  2  0
M  END
$$$$
