GNG.pdb
     RDKit          3D

 17 16  0  0  1  0  0  0  0  0999 V2000
   21.2511  -13.0483  -18.1404 N   0  0  0  0  0  0  0  0  0  0  0  0
   20.7845  -12.7488  -16.7785 C   0  0  0  0  0  0  0  0  0  0  0  0
   19.7212  -11.7219  -16.8845 C   0  0  0  0  0  0  0  0  0  0  0  0
   19.3838  -11.2702  -18.0189 O   0  0  0  0  0  0  0  0  0  0  0  0
   16.2097  -13.1016  -14.5067 N   0  0  0  0  0  0  0  0  0  0  0  0
   16.3494  -12.0571  -15.4583 C   0  0  0  0  0  0  0  0  0  0  0  0
   16.1334  -12.3426  -16.6641 O   0  0  0  0  0  0  0  0  0  0  0  0
   16.7381  -10.6606  -15.1019 C   0  0  0  0  0  0  0  0  0  0  0  0
   17.9532  -10.2978  -15.9475 C   0  0  2  0  0  0  0  0  0  0  0  0
   19.0392  -11.2027  -15.7452 N   0  0  0  0  0  0  0  0  0  0  0  0
   18.4028   -8.9309  -15.6078 C   0  0  0  0  0  0  0  0  0  0  0  0
   19.1056   -8.7027  -14.5933 O   0  0  0  0  0  0  0  0  0  0  0  0
   18.0581   -7.7968  -16.4231 N   0  0  0  0  0  0  0  0  0  0  0  0
   18.5791   -6.4803  -16.1417 C   0  0  0  0  0  0  0  0  0  0  0  0
   17.7386   -5.7902  -15.1347 C   0  0  0  0  0  0  0  0  0  0  0  0
   16.7472   -6.3643  -14.6553 O   0  0  0  0  0  0  0  0  0  0  0  0
   18.0392   -4.4988  -14.7076 O   0  0  0  0  0  0  0  0  0  0  0  0
  1  2  1  0
  2  3  1  0
  3  4  2  0
  3 10  1  0
  6  7  2  0
  6  5  1  0
  9  8  1  1
  8  6  1  0
  9 11  1  0
 10  9  1  0
 11 12  2  0
 13 11  1  0
 13 14  1  0
 15 14  1  0
 15 17  1  0
 16 15  2  0
M  END
$$$$
