GNG.pdb
     RDKit          3D

 17 16  0  0  1  0  0  0  0  0999 V2000
   18.6420  -13.1371  -15.9771 N   0  0  0  0  0  0  0  0  0  0  0  0
   18.8661  -11.8307  -16.6138 C   0  0  0  0  0  0  0  0  0  0  0  0
   19.9702  -11.1609  -15.8866 C   0  0  0  0  0  0  0  0  0  0  0  0
   19.8618  -10.9197  -14.6477 O   0  0  0  0  0  0  0  0  0  0  0  0
   24.3625  -12.5484  -14.9245 N   0  0  0  0  0  0  0  0  0  0  0  0
   23.7651  -11.9467  -16.0635 C   0  0  0  0  0  0  0  0  0  0  0  0
   23.3658  -12.7128  -16.9779 O   0  0  0  0  0  0  0  0  0  0  0  0
   23.5951  -10.4726  -16.2263 C   0  0  0  0  0  0  0  0  0  0  0  0
   22.1912  -10.1220  -15.7475 C   0  0  2  0  0  0  0  0  0  0  0  0
   21.1811  -10.7642  -16.5262 N   0  0  0  0  0  0  0  0  0  0  0  0
   21.9929   -8.6589  -15.8238 C   0  0  0  0  0  0  0  0  0  0  0  0
   21.7102   -8.0888  -16.9057 O   0  0  0  0  0  0  0  0  0  0  0  0
   22.1130   -7.8178  -14.6628 N   0  0  0  0  0  0  0  0  0  0  0  0
   21.8807   -6.3949  -14.7359 C   0  0  0  0  0  0  0  0  0  0  0  0
   22.0988   -5.7615  -13.4138 C   0  0  0  0  0  0  0  0  0  0  0  0
   22.3032   -6.4682  -12.4132 O   0  0  0  0  0  0  0  0  0  0  0  0
   22.0814   -4.3764  -13.2662 O   0  0  0  0  0  0  0  0  0  0  0  0
  1  2  1  0
  2  3  1  0
  3  4  2  0
  3 10  1  0
  6  7  2  0
  6  5  1  0
  9  8  1  6
  8  6  1  0
  9 11  1  0
 10  9  1  0
 11 12  2  0
 13 11  1  0
 13 14  1  0
 15 14  1  0
 15 17  1  0
 16 15  2  0
M  END
$$$$
