GNG.pdb
     RDKit          3D

 17 16  0  0  1  0  0  0  0  0999 V2000
   25.7638  -24.8814  -15.8158 N   0  0  0  0  0  0  0  0  0  0  0  0
   26.2027  -23.4920  -15.6179 C   0  0  0  0  0  0  0  0  0  0  0  0
   25.2324  -22.8406  -14.7065 C   0  0  0  0  0  0  0  0  0  0  0  0
   24.0820  -23.3433  -14.5376 O   0  0  0  0  0  0  0  0  0  0  0  0
   25.6137  -22.3041  -11.0031 N   0  0  0  0  0  0  0  0  0  0  0  0
   25.6919  -20.8878  -11.0671 C   0  0  0  0  0  0  0  0  0  0  0  0
   26.3050  -20.3014  -10.1383 O   0  0  0  0  0  0  0  0  0  0  0  0
   25.0877  -20.0751  -12.1638 C   0  0  0  0  0  0  0  0  0  0  0  0
   24.5160  -21.0484  -13.1879 C   0  0  2  0  0  0  0  0  0  0  0  0
   25.5352  -21.6459  -13.9899 N   0  0  0  0  0  0  0  0  0  0  0  0
   23.5696  -20.3367  -14.0732 C   0  0  0  0  0  0  0  0  0  0  0  0
   23.9677  -19.6520  -15.0469 O   0  0  0  0  0  0  0  0  0  0  0  0
   22.1476  -20.3946  -13.8629 N   0  0  0  0  0  0  0  0  0  0  0  0
   21.2293  -19.6869  -14.7230 C   0  0  0  0  0  0  0  0  0  0  0  0
   20.5326  -20.6288  -15.6308 C   0  0  0  0  0  0  0  0  0  0  0  0
   21.0578  -20.9560  -16.7076 O   0  0  0  0  0  0  0  0  0  0  0  0
   19.2893  -21.1629  -15.2998 O   0  0  0  0  0  0  0  0  0  0  0  0
  1  2  1  0
  2  3  1  0
  3  4  2  0
  3 10  1  0
  6  7  2  0
  6  5  1  0
  9  8  1  1
  8  6  1  0
  9 11  1  0
 10  9  1  0
 11 12  2  0
 13 11  1  0
 13 14  1  0
 15 14  1  0
 15 17  1  0
 16 15  2  0
M  END
$$$$
