YKQ.pdb
     RDKit          3D

 31 31  0  0  1  0  0  0  0  0999 V2000
   29.4799  -19.8791   -4.3093 O   0  0  0  0  0  0  0  0  0  0  0  0
   28.6179  -19.9578   -5.3886 C   0  0  0  0  0  0  0  0  0  0  0  0
   28.1859  -18.8266   -6.0371 C   0  0  0  0  0  0  0  0  0  0  0  0
   27.3153  -18.9139   -7.1264 C   0  0  0  0  0  0  0  0  0  0  0  0
   26.8623  -20.1332   -7.5854 C   0  0  0  0  0  0  0  0  0  0  0  0
   25.9484  -20.2252   -8.7288 C   0  0  0  0  0  0  0  0  0  0  0  0
   26.5439  -20.9732   -9.9034 C   0  0  2  0  0  0  0  0  0  0  0  0
   27.8921  -20.4455  -10.1035 N   0  0  0  0  0  0  0  0  0  0  0  0
   25.6846  -20.6466  -11.0733 C   0  0  0  0  0  0  0  0  0  0  0  0
   25.5159  -19.4306  -11.3395 O   0  0  0  0  0  0  0  0  0  0  0  0
   27.3102  -21.2548   -6.9177 C   0  0  0  0  0  0  0  0  0  0  0  0
   28.1714  -21.1820   -5.8389 C   0  0  0  0  0  0  0  0  0  0  0  0
   25.0538  -21.6172  -11.8934 N   0  0  0  0  0  0  0  0  0  0  0  0
   24.2071  -21.2992  -13.0135 C   0  0  1  0  0  0  0  0  0  0  0  0
   24.8258  -21.8330  -14.2859 C   0  0  0  0  0  0  0  0  0  0  0  0
   25.0492  -23.3267  -14.1772 C   0  0  0  0  0  0  0  0  0  0  0  0
   25.6115  -23.8786  -15.4878 C   0  0  0  0  0  0  0  0  0  0  0  0
   25.7350  -25.3988  -15.3535 C   0  0  0  0  0  0  0  0  0  0  0  0
   26.2594  -25.9828  -16.5605 N   0  0  0  0  0  0  0  0  0  0  0  0
   22.8334  -21.8340  -12.8624 C   0  0  0  0  0  0  0  0  0  0  0  0
   22.6857  -22.9555  -12.3122 O   0  0  0  0  0  0  0  0  0  0  0  0
   17.6140  -18.7503  -12.0088 N   0  0  0  0  0  0  0  0  0  0  0  0
   18.8781  -18.3413  -12.4544 C   0  0  0  0  0  0  0  0  0  0  0  0
   19.1698  -17.1426  -12.5469 O   0  0  0  0  0  0  0  0  0  0  0  0
   19.8939  -19.3685  -12.8250 C   0  0  0  0  0  0  0  0  0  0  0  0
   19.3557  -20.7585  -12.6580 C   0  0  0  0  0  0  0  0  0  0  0  0
   20.3419  -21.7773  -13.1119 C   0  0  2  0  0  0  0  0  0  0  0  0
   21.6677  -21.1579  -13.3012 N   0  0  0  0  0  0  0  0  0  0  0  0
   19.9654  -22.3901  -14.3776 C   0  0  0  0  0  0  0  0  0  0  0  0
   20.7674  -22.1614  -15.5144 O   0  0  0  0  0  0  0  0  0  0  0  0
   18.9534  -23.1138  -14.4936 O   0  0  0  0  0  0  0  0  0  0  0  0
  2  1  1  0
  3  2  2  0
  4  3  1  0
  5  4  2  0
  5 11  1  0
  6  5  1  0
  7  9  1  0
  7  6  1  0
  7  8  1  6
  9 10  2  0
 11 12  2  0
 12  2  1  0
 13 14  1  0
 13  9  1  0
 14 20  1  0
 14 15  1  6
 16 15  1  0
 17 16  1  0
 18 17  1  0
 19 18  1  0
 20 21  2  0
 20 28  1  0
 22 23  1  0
 23 24  2  0
 23 25  1  0
 25 26  1  0
 27 26  1  6
 27 29  1  0
 28 27  1  0
 29 31  2  0
 29 30  1  0
M  END
$$$$
