YKQ.pdb
     RDKit          3D

 31 31  0  0  1  0  0  0  0  0999 V2000
   29.6541  -16.0805  -19.0784 O   0  0  0  0  0  0  0  0  0  0  0  0
   28.8510  -16.8208  -18.2294 C   0  0  0  0  0  0  0  0  0  0  0  0
   29.2133  -17.0445  -16.9235 C   0  0  0  0  0  0  0  0  0  0  0  0
   28.3970  -17.7933  -16.0718 C   0  0  0  0  0  0  0  0  0  0  0  0
   27.2052  -18.3307  -16.5117 C   0  0  0  0  0  0  0  0  0  0  0  0
   26.3481  -19.1167  -15.6180 C   0  0  0  0  0  0  0  0  0  0  0  0
   27.0599  -20.3088  -15.0128 C   0  0  2  0  0  0  0  0  0  0  0  0
   27.3764  -21.2177  -16.1127 N   0  0  0  0  0  0  0  0  0  0  0  0
   26.0817  -20.9416  -14.0874 C   0  0  0  0  0  0  0  0  0  0  0  0
   25.3930  -21.8891  -14.5411 O   0  0  0  0  0  0  0  0  0  0  0  0
   26.8630  -18.0923  -17.8271 C   0  0  0  0  0  0  0  0  0  0  0  0
   27.6617  -17.3534  -18.6797 C   0  0  0  0  0  0  0  0  0  0  0  0
   25.8855  -20.5409  -12.7407 N   0  0  0  0  0  0  0  0  0  0  0  0
   24.8078  -21.0091  -11.9089 C   0  0  1  0  0  0  0  0  0  0  0  0
   25.0981  -20.6718  -10.4636 C   0  0  0  0  0  0  0  0  0  0  0  0
   23.9593  -21.1296   -9.5766 C   0  0  0  0  0  0  0  0  0  0  0  0
   24.2223  -20.7323   -8.1235 C   0  0  0  0  0  0  0  0  0  0  0  0
   23.0729  -21.2673   -7.2651 C   0  0  0  0  0  0  0  0  0  0  0  0
   23.2531  -20.9119   -5.8816 N   0  0  0  0  0  0  0  0  0  0  0  0
   23.4953  -20.4438  -12.3008 C   0  0  0  0  0  0  0  0  0  0  0  0
   23.4020  -19.1985  -12.4522 O   0  0  0  0  0  0  0  0  0  0  0  0
   20.0129  -21.9993  -16.8619 N   0  0  0  0  0  0  0  0  0  0  0  0
   19.2005  -21.0125  -16.2874 C   0  0  0  0  0  0  0  0  0  0  0  0
   18.2203  -20.5570  -16.8891 O   0  0  0  0  0  0  0  0  0  0  0  0
   19.5210  -20.4995  -14.9242 C   0  0  0  0  0  0  0  0  0  0  0  0
   20.7944  -21.0930  -14.3992 C   0  0  0  0  0  0  0  0  0  0  0  0
   21.1049  -20.5844  -13.0348 C   0  0  2  0  0  0  0  0  0  0  0  0
   22.3308  -21.2219  -12.5174 N   0  0  0  0  0  0  0  0  0  0  0  0
   20.0385  -20.8600  -12.0830 C   0  0  0  0  0  0  0  0  0  0  0  0
   18.9228  -19.9992  -12.0364 O   0  0  0  0  0  0  0  0  0  0  0  0
   20.0760  -21.8353  -11.3027 O   0  0  0  0  0  0  0  0  0  0  0  0
  2  1  1  0
  3  2  2  0
  4  3  1  0
  5  4  2  0
  5 11  1  0
  6  5  1  0
  7  9  1  0
  7  6  1  0
  7  8  1  6
  9 10  2  0
 11 12  2  0
 12  2  1  0
 13 14  1  0
 13  9  1  0
 14 20  1  0
 14 15  1  1
 16 15  1  0
 17 16  1  0
 18 17  1  0
 19 18  1  0
 20 21  2  0
 20 28  1  0
 22 23  1  0
 23 24  2  0
 23 25  1  0
 25 26  1  0
 27 26  1  6
 27 29  1  0
 28 27  1  0
 29 31  2  0
 29 30  1  0
M  END
$$$$
