YKQ.pdb
     RDKit          3D

 31 31  0  0  1  0  0  0  0  0999 V2000
   15.9871  -18.2451  -12.1853 O   0  0  0  0  0  0  0  0  0  0  0  0
   17.2435  -18.5387  -12.6843 C   0  0  0  0  0  0  0  0  0  0  0  0
   17.6274  -18.1200  -13.9349 C   0  0  0  0  0  0  0  0  0  0  0  0
   18.8981  -18.4203  -14.4322 C   0  0  0  0  0  0  0  0  0  0  0  0
   19.8059  -19.1443  -13.6876 C   0  0  0  0  0  0  0  0  0  0  0  0
   21.1399  -19.4597  -14.2093 C   0  0  0  0  0  0  0  0  0  0  0  0
   21.1047  -20.0600  -15.5993 C   0  0  2  0  0  0  0  0  0  0  0  0
   20.3413  -21.3028  -15.5061 N   0  0  0  0  0  0  0  0  0  0  0  0
   22.5201  -20.3508  -15.9542 C   0  0  0  0  0  0  0  0  0  0  0  0
   22.9671  -21.4839  -15.6475 O   0  0  0  0  0  0  0  0  0  0  0  0
   19.3972  -19.5536  -12.4347 C   0  0  0  0  0  0  0  0  0  0  0  0
   18.1430  -19.2630  -11.9312 C   0  0  0  0  0  0  0  0  0  0  0  0
   23.3810  -19.4337  -16.6100 N   0  0  0  0  0  0  0  0  0  0  0  0
   24.7275  -19.7409  -17.0165 C   0  0  1  0  0  0  0  0  0  0  0  0
   24.8174  -19.7309  -18.5261 C   0  0  0  0  0  0  0  0  0  0  0  0
   25.2877  -21.0773  -19.0350 C   0  0  0  0  0  0  0  0  0  0  0  0
   25.4373  -21.0496  -20.5566 C   0  0  0  0  0  0  0  0  0  0  0  0
   25.9218  -22.4276  -21.0154 C   0  0  0  0  0  0  0  0  0  0  0  0
   26.2045  -22.4317  -22.4271 N   0  0  0  0  0  0  0  0  0  0  0  0
   25.7246  -18.8026  -16.4496 C   0  0  0  0  0  0  0  0  0  0  0  0
   26.5156  -18.2232  -17.2374 O   0  0  0  0  0  0  0  0  0  0  0  0
   26.1996  -22.1767  -11.4453 N   0  0  0  0  0  0  0  0  0  0  0  0
   26.1450  -20.8629  -10.9609 C   0  0  0  0  0  0  0  0  0  0  0  0
   26.0858  -20.6275   -9.7478 O   0  0  0  0  0  0  0  0  0  0  0  0
   26.1584  -19.7241  -11.9237 C   0  0  0  0  0  0  0  0  0  0  0  0
   26.1467  -20.2055  -13.3442 C   0  0  0  0  0  0  0  0  0  0  0  0
   26.8330  -19.2407  -14.2468 C   0  0  2  0  0  0  0  0  0  0  0  0
   25.8445  -18.5148  -15.0671 N   0  0  0  0  0  0  0  0  0  0  0  0
   27.7570  -19.8960  -15.1612 C   0  0  0  0  0  0  0  0  0  0  0  0
   27.3671  -21.1000  -15.7826 O   0  0  0  0  0  0  0  0  0  0  0  0
   28.8875  -19.4286  -15.4161 O   0  0  0  0  0  0  0  0  0  0  0  0
  2  1  1  0
  3  2  2  0
  4  3  1  0
  5  4  2  0
  5 11  1  0
  6  5  1  0
  7  9  1  0
  7  6  1  0
  7  8  1  1
  9 10  2  0
 11 12  2  0
 12  2  1  0
 13 14  1  0
 13  9  1  0
 14 20  1  0
 14 15  1  6
 16 15  1  0
 17 16  1  0
 18 17  1  0
 19 18  1  0
 20 21  2  0
 20 28  1  0
 22 23  1  0
 23 24  2  0
 23 25  1  0
 25 26  1  0
 27 26  1  6
 27 29  1  0
 28 27  1  0
 29 31  2  0
 29 30  1  0
M  END
$$$$
