YKQ.pdb
     RDKit          3D

 31 31  0  0  1  0  0  0  0  0999 V2000
   21.8923  -11.2906  -19.1925 O   0  0  0  0  0  0  0  0  0  0  0  0
   22.0296  -12.6244  -18.8521 C   0  0  0  0  0  0  0  0  0  0  0  0
   22.4254  -12.9991  -17.5913 C   0  0  0  0  0  0  0  0  0  0  0  0
   22.5620  -14.3483  -17.2547 C   0  0  0  0  0  0  0  0  0  0  0  0
   22.3051  -15.3451  -18.1730 C   0  0  0  0  0  0  0  0  0  0  0  0
   22.4483  -16.7614  -17.8200 C   0  0  0  0  0  0  0  0  0  0  0  0
   23.7994  -17.3317  -18.1984 C   0  0  2  0  0  0  0  0  0  0  0  0
   23.8887  -17.2808  -19.6563 N   0  0  0  0  0  0  0  0  0  0  0  0
   23.7910  -18.7446  -17.7323 C   0  0  0  0  0  0  0  0  0  0  0  0
   23.9729  -19.6356  -18.5988 O   0  0  0  0  0  0  0  0  0  0  0  0
   21.9090  -14.9438  -19.4324 C   0  0  0  0  0  0  0  0  0  0  0  0
   21.7702  -13.6125  -19.7780 C   0  0  0  0  0  0  0  0  0  0  0  0
   23.5919  -19.1369  -16.3836 N   0  0  0  0  0  0  0  0  0  0  0  0
   23.9715  -20.4200  -15.8525 C   0  0  1  0  0  0  0  0  0  0  0  0
   25.4588  -20.6251  -16.0333 C   0  0  0  0  0  0  0  0  0  0  0  0
   25.8806  -21.9606  -15.4574 C   0  0  0  0  0  0  0  0  0  0  0  0
   25.7949  -23.0525  -16.5246 C   0  0  0  0  0  0  0  0  0  0  0  0
   26.2953  -24.3627  -15.9105 C   0  0  0  0  0  0  0  0  0  0  0  0
   26.1312  -25.4592  -16.8291 N   0  0  0  0  0  0  0  0  0  0  0  0
   23.6151  -20.5756  -14.4225 C   0  0  0  0  0  0  0  0  0  0  0  0
   24.2432  -19.8937  -13.5723 O   0  0  0  0  0  0  0  0  0  0  0  0
   17.4176  -19.0761  -12.9649 N   0  0  0  0  0  0  0  0  0  0  0  0
   18.7075  -18.7033  -13.3662 C   0  0  0  0  0  0  0  0  0  0  0  0
   18.8881  -17.9622  -14.3402 O   0  0  0  0  0  0  0  0  0  0  0  0
   19.8875  -19.2080  -12.6066 C   0  0  0  0  0  0  0  0  0  0  0  0
   20.9616  -19.7059  -13.5274 C   0  0  0  0  0  0  0  0  0  0  0  0
   21.5850  -20.9531  -13.0052 C   0  0  2  0  0  0  0  0  0  0  0  0
   22.6050  -21.4495  -13.9488 N   0  0  0  0  0  0  0  0  0  0  0  0
   20.6148  -22.0215  -12.8145 C   0  0  0  0  0  0  0  0  0  0  0  0
   19.9363  -22.1184  -11.5824 O   0  0  0  0  0  0  0  0  0  0  0  0
   20.3607  -22.8591  -13.7063 O   0  0  0  0  0  0  0  0  0  0  0  0
  2  1  1  0
  3  2  2  0
  4  3  1  0
  5  4  2  0
  5 11  1  0
  6  5  1  0
  7  9  1  0
  7  6  1  0
  7  8  1  6
  9 10  2  0
 11 12  2  0
 12  2  1  0
 13 14  1  0
 13  9  1  0
 14 20  1  0
 14 15  1  1
 16 15  1  0
 17 16  1  0
 18 17  1  0
 19 18  1  0
 20 21  2  0
 20 28  1  0
 22 23  1  0
 23 24  2  0
 23 25  1  0
 25 26  1  0
 27 26  1  6
 27 29  1  0
 28 27  1  0
 29 31  2  0
 29 30  1  0
M  END
$$$$
