YKQ.pdb
     RDKit          3D

 31 31  0  0  1  0  0  0  0  0999 V2000
   29.7984  -16.1678  -18.9072 O   0  0  0  0  0  0  0  0  0  0  0  0
   28.5602  -16.5967  -18.4635 C   0  0  0  0  0  0  0  0  0  0  0  0
   28.4478  -17.5086  -17.4424 C   0  0  0  0  0  0  0  0  0  0  0  0
   27.1938  -17.9372  -16.9997 C   0  0  0  0  0  0  0  0  0  0  0  0
   26.0316  -17.4613  -17.5704 C   0  0  0  0  0  0  0  0  0  0  0  0
   24.7151  -17.9110  -17.1058 C   0  0  0  0  0  0  0  0  0  0  0  0
   24.5790  -19.4192  -17.0837 C   0  0  2  0  0  0  0  0  0  0  0  0
   24.8842  -19.8930  -18.4323 N   0  0  0  0  0  0  0  0  0  0  0  0
   23.1555  -19.6957  -16.7509 C   0  0  0  0  0  0  0  0  0  0  0  0
   22.3307  -19.6761  -17.6981 O   0  0  0  0  0  0  0  0  0  0  0  0
   26.1704  -16.5464  -18.5940 C   0  0  0  0  0  0  0  0  0  0  0  0
   27.4050  -16.1144  -19.0413 C   0  0  0  0  0  0  0  0  0  0  0  0
   22.6837  -19.9762  -15.4428 N   0  0  0  0  0  0  0  0  0  0  0  0
   21.3152  -20.2958  -15.1303 C   0  0  1  0  0  0  0  0  0  0  0  0
   21.2665  -21.1736  -13.8998 C   0  0  0  0  0  0  0  0  0  0  0  0
   19.8674  -21.7150  -13.6936 C   0  0  0  0  0  0  0  0  0  0  0  0
   19.8374  -22.6759  -12.5044 C   0  0  0  0  0  0  0  0  0  0  0  0
   18.4454  -23.3099  -12.4359 C   0  0  0  0  0  0  0  0  0  0  0  0
   18.3866  -24.3164  -11.4081 N   0  0  0  0  0  0  0  0  0  0  0  0
   20.4800  -19.0902  -14.9183 C   0  0  0  0  0  0  0  0  0  0  0  0
   20.7299  -18.3565  -13.9276 O   0  0  0  0  0  0  0  0  0  0  0  0
   19.2472  -13.7228  -16.9308 N   0  0  0  0  0  0  0  0  0  0  0  0
   18.0273  -14.3064  -17.2986 C   0  0  0  0  0  0  0  0  0  0  0  0
   17.1341  -13.6418  -17.8379 O   0  0  0  0  0  0  0  0  0  0  0  0
   17.7984  -15.7565  -17.0362 C   0  0  0  0  0  0  0  0  0  0  0  0
   19.0190  -16.4098  -16.4593 C   0  0  0  0  0  0  0  0  0  0  0  0
   18.6522  -17.4745  -15.4854 C   0  0  2  0  0  0  0  0  0  0  0  0
   19.4106  -18.7087  -15.7664 N   0  0  0  0  0  0  0  0  0  0  0  0
   17.2376  -17.8136  -15.5394 C   0  0  0  0  0  0  0  0  0  0  0  0
   16.3026  -16.9486  -14.9349 O   0  0  0  0  0  0  0  0  0  0  0  0
   16.8202  -18.8473  -16.1039 O   0  0  0  0  0  0  0  0  0  0  0  0
  2  1  1  0
  3  2  2  0
  4  3  1  0
  5  4  2  0
  5 11  1  0
  6  5  1  0
  7  9  1  0
  7  6  1  0
  7  8  1  6
  9 10  2  0
 11 12  2  0
 12  2  1  0
 13 14  1  0
 13  9  1  0
 14 20  1  0
 14 15  1  1
 16 15  1  0
 17 16  1  0
 18 17  1  0
 19 18  1  0
 20 21  2  0
 20 28  1  0
 22 23  1  0
 23 24  2  0
 23 25  1  0
 25 26  1  0
 27 26  1  6
 27 29  1  0
 28 27  1  0
 29 31  2  0
 29 30  1  0
M  END
$$$$
