YKQ.pdb
     RDKit          3D

 31 31  0  0  1  0  0  0  0  0999 V2000
   17.0324  -21.5022  -10.9176 O   0  0  0  0  0  0  0  0  0  0  0  0
   18.2182  -21.3067  -11.6028 C   0  0  0  0  0  0  0  0  0  0  0  0
   19.1566  -22.3051  -11.6990 C   0  0  0  0  0  0  0  0  0  0  0  0
   20.3520  -22.1003  -12.3927 C   0  0  0  0  0  0  0  0  0  0  0  0
   20.6289  -20.8940  -13.0018 C   0  0  0  0  0  0  0  0  0  0  0  0
   21.8836  -20.6786  -13.7301 C   0  0  0  0  0  0  0  0  0  0  0  0
   21.7417  -20.8778  -15.2248 C   0  0  2  0  0  0  0  0  0  0  0  0
   21.4534  -22.2946  -15.4389 N   0  0  0  0  0  0  0  0  0  0  0  0
   23.0638  -20.5275  -15.8105 C   0  0  0  0  0  0  0  0  0  0  0  0
   23.9515  -21.4160  -15.7956 O   0  0  0  0  0  0  0  0  0  0  0  0
   19.6711  -19.9068  -12.8913 C   0  0  0  0  0  0  0  0  0  0  0  0
   18.4846  -20.0968  -12.2079 C   0  0  0  0  0  0  0  0  0  0  0  0
   23.3740  -19.2643  -16.3769 N   0  0  0  0  0  0  0  0  0  0  0  0
   24.6482  -18.9326  -16.9591 C   0  0  1  0  0  0  0  0  0  0  0  0
   24.5930  -17.5385  -17.5423 C   0  0  0  0  0  0  0  0  0  0  0  0
   24.4458  -17.6024  -19.0481 C   0  0  0  0  0  0  0  0  0  0  0  0
   24.2627  -16.1986  -19.6261 C   0  0  0  0  0  0  0  0  0  0  0  0
   24.1613  -16.3172  -21.1492 C   0  0  0  0  0  0  0  0  0  0  0  0
   23.8837  -15.0382  -21.7493 N   0  0  0  0  0  0  0  0  0  0  0  0
   25.7629  -19.0247  -15.9871 C   0  0  0  0  0  0  0  0  0  0  0  0
   25.7701  -18.2336  -15.0091 O   0  0  0  0  0  0  0  0  0  0  0  0
   25.2768  -21.5730  -11.6448 N   0  0  0  0  0  0  0  0  0  0  0  0
   26.6594  -21.4822  -11.4352 C   0  0  0  0  0  0  0  0  0  0  0  0
   27.1639  -21.7707  -10.3432 O   0  0  0  0  0  0  0  0  0  0  0  0
   27.5426  -21.0295  -12.5484 C   0  0  0  0  0  0  0  0  0  0  0  0
   26.7455  -20.6301  -13.7545 C   0  0  0  0  0  0  0  0  0  0  0  0
   27.6335  -20.2851  -14.8986 C   0  0  2  0  0  0  0  0  0  0  0  0
   26.8284  -19.9535  -16.0898 N   0  0  0  0  0  0  0  0  0  0  0  0
   28.5185  -21.3812  -15.2653 C   0  0  0  0  0  0  0  0  0  0  0  0
   28.4081  -21.9496  -16.5509 O   0  0  0  0  0  0  0  0  0  0  0  0
   29.3754  -21.8386  -14.4792 O   0  0  0  0  0  0  0  0  0  0  0  0
  2  1  1  0
  3  2  2  0
  4  3  1  0
  5  4  2  0
  5 11  1  0
  6  5  1  0
  7  9  1  0
  7  6  1  0
  7  8  1  1
  9 10  2  0
 11 12  2  0
 12  2  1  0
 13 14  1  0
 13  9  1  0
 14 20  1  0
 14 15  1  1
 16 15  1  0
 17 16  1  0
 18 17  1  0
 19 18  1  0
 20 21  2  0
 20 28  1  0
 22 23  1  0
 23 24  2  0
 23 25  1  0
 25 26  1  0
 27 26  1  1
 27 29  1  0
 28 27  1  0
 29 31  2  0
 29 30  1  0
M  END
$$$$
