YKQ.pdb
     RDKit          3D

 31 31  0  0  1  0  0  0  0  0999 V2000
   22.9668  -11.5193  -20.9140 O   0  0  0  0  0  0  0  0  0  0  0  0
   22.5378  -12.7764  -20.5274 C   0  0  0  0  0  0  0  0  0  0  0  0
   23.1090  -13.4252  -19.4599 C   0  0  0  0  0  0  0  0  0  0  0  0
   22.6704  -14.6948  -19.0753 C   0  0  0  0  0  0  0  0  0  0  0  0
   21.6537  -15.3367  -19.7513 C   0  0  0  0  0  0  0  0  0  0  0  0
   21.1931  -16.6694  -19.3477 C   0  0  0  0  0  0  0  0  0  0  0  0
   22.1589  -17.7707  -19.7325 C   0  0  2  0  0  0  0  0  0  0  0  0
   22.1021  -17.8963  -21.1875 N   0  0  0  0  0  0  0  0  0  0  0  0
   21.6433  -19.0090  -19.0886 C   0  0  0  0  0  0  0  0  0  0  0  0
   20.6960  -19.6020  -19.6619 O   0  0  0  0  0  0  0  0  0  0  0  0
   21.0959  -14.6648  -20.8198 C   0  0  0  0  0  0  0  0  0  0  0  0
   21.5206  -13.4086  -21.2104 C   0  0  0  0  0  0  0  0  0  0  0  0
   22.1540  -19.5501  -17.8807 N   0  0  0  0  0  0  0  0  0  0  0  0
   21.7021  -20.7855  -17.2959 C   0  0  1  0  0  0  0  0  0  0  0  0
   22.8364  -21.4310  -16.5319 C   0  0  0  0  0  0  0  0  0  0  0  0
   23.4399  -22.5609  -17.3394 C   0  0  0  0  0  0  0  0  0  0  0  0
   24.4971  -23.2987  -16.5169 C   0  0  0  0  0  0  0  0  0  0  0  0
   24.9722  -24.5101  -17.3237 C   0  0  0  0  0  0  0  0  0  0  0  0
   25.9947  -25.2341  -16.6142 N   0  0  0  0  0  0  0  0  0  0  0  0
   20.5361  -20.6018  -16.4000 C   0  0  0  0  0  0  0  0  0  0  0  0
   20.5696  -19.6666  -15.5594 O   0  0  0  0  0  0  0  0  0  0  0  0
   14.4662  -21.7594  -17.2082 N   0  0  0  0  0  0  0  0  0  0  0  0
   14.5055  -21.2811  -15.8915 C   0  0  0  0  0  0  0  0  0  0  0  0
   13.4667  -21.0564  -15.2584 O   0  0  0  0  0  0  0  0  0  0  0  0
   15.8236  -21.0371  -15.2380 C   0  0  0  0  0  0  0  0  0  0  0  0
   16.9619  -21.3979  -16.1455 C   0  0  0  0  0  0  0  0  0  0  0  0
   18.2749  -21.1665  -15.4829 C   0  0  2  0  0  0  0  0  0  0  0  0
   19.3779  -21.4180  -16.4302 N   0  0  0  0  0  0  0  0  0  0  0  0
   18.4806  -22.0401  -14.3368 C   0  0  0  0  0  0  0  0  0  0  0  0
   18.0908  -21.5942  -13.0572 O   0  0  0  0  0  0  0  0  0  0  0  0
   18.9921  -23.1749  -14.4460 O   0  0  0  0  0  0  0  0  0  0  0  0
  2  1  1  0
  3  2  2  0
  4  3  1  0
  5  4  2  0
  5 11  1  0
  6  5  1  0
  7  9  1  0
  7  6  1  0
  7  8  1  6
  9 10  2  0
 11 12  2  0
 12  2  1  0
 13 14  1  0
 13  9  1  0
 14 20  1  0
 14 15  1  1
 16 15  1  0
 17 16  1  0
 18 17  1  0
 19 18  1  0
 20 21  2  0
 20 28  1  0
 22 23  1  0
 23 24  2  0
 23 25  1  0
 25 26  1  0
 27 26  1  6
 27 29  1  0
 28 27  1  0
 29 31  2  0
 29 30  1  0
M  END
$$$$
