YKQ.pdb
     RDKit          3D

 31 31  0  0  1  0  0  0  0  0999 V2000
   34.3733   -9.1910  -18.3779 O   0  0  0  0  0  0  0  0  0  0  0  0
   32.9902   -9.2099  -18.3554 C   0  0  0  0  0  0  0  0  0  0  0  0
   32.2822  -10.1937  -19.0016 C   0  0  0  0  0  0  0  0  0  0  0  0
   30.8853  -10.2063  -18.9745 C   0  0  0  0  0  0  0  0  0  0  0  0
   30.1732   -9.2356  -18.3010 C   0  0  0  0  0  0  0  0  0  0  0  0
   28.7069   -9.2485  -18.2723 C   0  0  0  0  0  0  0  0  0  0  0  0
   28.1413  -10.3830  -17.4435 C   0  0  2  0  0  0  0  0  0  0  0  0
   28.5311  -11.6270  -18.1043 N   0  0  0  0  0  0  0  0  0  0  0  0
   26.6630  -10.2202  -17.4837 C   0  0  0  0  0  0  0  0  0  0  0  0
   26.0095  -11.0725  -18.1353 O   0  0  0  0  0  0  0  0  0  0  0  0
   30.9066   -8.2582  -17.6599 C   0  0  0  0  0  0  0  0  0  0  0  0
   32.2886   -8.2345  -17.6791 C   0  0  0  0  0  0  0  0  0  0  0  0
   25.9596   -9.1716  -16.8370 N   0  0  0  0  0  0  0  0  0  0  0  0
   24.5251   -9.0506  -16.8242 C   0  0  1  0  0  0  0  0  0  0  0  0
   23.9119  -10.3293  -16.2989 C   0  0  0  0  0  0  0  0  0  0  0  0
   23.0331  -10.9653  -17.3554 C   0  0  0  0  0  0  0  0  0  0  0  0
   22.4675  -12.2931  -16.8500 C   0  0  0  0  0  0  0  0  0  0  0  0
   21.7736  -12.9947  -18.0206 C   0  0  0  0  0  0  0  0  0  0  0  0
   21.1843  -14.2394  -17.6005 N   0  0  0  0  0  0  0  0  0  0  0  0
   24.0549   -7.9012  -16.0158 C   0  0  0  0  0  0  0  0  0  0  0  0
   24.4760   -7.7882  -14.8359 O   0  0  0  0  0  0  0  0  0  0  0  0
   21.4516   -2.4245  -17.8221 N   0  0  0  0  0  0  0  0  0  0  0  0
   21.5045   -2.2967  -16.4276 C   0  0  0  0  0  0  0  0  0  0  0  0
   21.1801   -1.2431  -15.8663 O   0  0  0  0  0  0  0  0  0  0  0  0
   21.9603   -3.4515  -15.6012 C   0  0  0  0  0  0  0  0  0  0  0  0
   22.2961   -4.6388  -16.4540 C   0  0  0  0  0  0  0  0  0  0  0  0
   22.7903   -5.7745  -15.6278 C   0  0  2  0  0  0  0  0  0  0  0  0
   23.1551   -6.9145  -16.4905 N   0  0  0  0  0  0  0  0  0  0  0  0
   21.7911   -6.2495  -14.6817 C   0  0  0  0  0  0  0  0  0  0  0  0
   21.7378   -5.6744  -13.3956 O   0  0  0  0  0  0  0  0  0  0  0  0
   20.9760   -7.1520  -14.9691 O   0  0  0  0  0  0  0  0  0  0  0  0
  2  1  1  0
  3  2  2  0
  4  3  1  0
  5  4  2  0
  5 11  1  0
  6  5  1  0
  7  9  1  0
  7  6  1  0
  7  8  1  6
  9 10  2  0
 11 12  2  0
 12  2  1  0
 13 14  1  0
 13  9  1  0
 14 20  1  0
 14 15  1  1
 16 15  1  0
 17 16  1  0
 18 17  1  0
 19 18  1  0
 20 21  2  0
 20 28  1  0
 22 23  1  0
 23 24  2  0
 23 25  1  0
 25 26  1  0
 27 26  1  6
 27 29  1  0
 28 27  1  0
 29 31  2  0
 29 30  1  0
M  END
$$$$
