YKQ.pdb
     RDKit          3D

 31 31  0  0  1  0  0  0  0  0999 V2000
   19.9394  -10.8916    4.0101 O   0  0  0  0  0  0  0  0  0  0  0  0
   19.3741  -12.1394    4.2031 C   0  0  0  0  0  0  0  0  0  0  0  0
   18.9670  -12.5504    5.4489 C   0  0  0  0  0  0  0  0  0  0  0  0
   18.3968  -13.8121    5.6361 C   0  0  0  0  0  0  0  0  0  0  0  0
   18.2241  -14.6838    4.5811 C   0  0  0  0  0  0  0  0  0  0  0  0
   17.6256  -16.0083    4.7773 C   0  0  0  0  0  0  0  0  0  0  0  0
   16.1819  -16.0780    4.3249 C   0  0  2  0  0  0  0  0  0  0  0  0
   15.4067  -15.2540    5.2502 N   0  0  0  0  0  0  0  0  0  0  0  0
   15.7835  -17.5061    4.4501 C   0  0  0  0  0  0  0  0  0  0  0  0
   15.2503  -17.8603    5.5308 O   0  0  0  0  0  0  0  0  0  0  0  0
   18.6408  -14.2483    3.3397 C   0  0  0  0  0  0  0  0  0  0  0  0
   19.2063  -13.0027    3.1412 C   0  0  0  0  0  0  0  0  0  0  0  0
   15.9692  -18.4766    3.4321 N   0  0  0  0  0  0  0  0  0  0  0  0
   15.6962  -19.8805    3.5969 C   0  0  1  0  0  0  0  0  0  0  0  0
   15.6047  -20.5430    2.2405 C   0  0  0  0  0  0  0  0  0  0  0  0
   15.0822  -21.9575    2.3790 C   0  0  0  0  0  0  0  0  0  0  0  0
   14.8611  -22.5816    1.0006 C   0  0  0  0  0  0  0  0  0  0  0  0
   14.1369  -23.9172    1.1901 C   0  0  0  0  0  0  0  0  0  0  0  0
   13.8204  -24.5176   -0.0796 N   0  0  0  0  0  0  0  0  0  0  0  0
   16.7164  -20.5688    4.4223 C   0  0  0  0  0  0  0  0  0  0  0  0
   17.9277  -20.2879    4.2325 O   0  0  0  0  0  0  0  0  0  0  0  0
   17.9154  -20.1114   10.6601 N   0  0  0  0  0  0  0  0  0  0  0  0
   16.9404  -20.4254    9.7037 C   0  0  0  0  0  0  0  0  0  0  0  0
   15.7606  -20.6110   10.0260 O   0  0  0  0  0  0  0  0  0  0  0  0
   17.3296  -20.5389    8.2684 C   0  0  0  0  0  0  0  0  0  0  0  0
   17.0577  -21.9131    7.7325 C   0  0  0  0  0  0  0  0  0  0  0  0
   17.4772  -22.0300    6.3087 C   0  0  2  0  0  0  0  0  0  0  0  0
   16.4121  -21.5299    5.4184 N   0  0  0  0  0  0  0  0  0  0  0  0
   17.7542  -23.4059    5.9223 C   0  0  0  0  0  0  0  0  0  0  0  0
   18.9501  -24.0121    6.3586 O   0  0  0  0  0  0  0  0  0  0  0  0
   16.9679  -24.0717    5.2152 O   0  0  0  0  0  0  0  0  0  0  0  0
  2  1  1  0
  3  2  2  0
  4  3  1  0
  5  4  2  0
  5 11  1  0
  6  5  1  0
  7  9  1  0
  7  6  1  0
  7  8  1  1
  9 10  2  0
 11 12  2  0
 12  2  1  0
 13 14  1  0
 13  9  1  0
 14 20  1  0
 14 15  1  6
 16 15  1  0
 17 16  1  0
 18 17  1  0
 19 18  1  0
 20 21  2  0
 20 28  1  0
 22 23  1  0
 23 24  2  0
 23 25  1  0
 25 26  1  0
 27 26  1  1
 27 29  1  0
 28 27  1  0
 29 31  2  0
 29 30  1  0
M  END
$$$$
