MTR.pdb
     RDKit          3D

 27 26  0  0  1  0  0  0  0  0999 V2000
    6.0344  -10.8330   25.7758 C   0  0  0  0  0  0  0  0  0  0  0  0
    6.1852  -11.3217   27.4862 S   0  0  0  0  0  0  0  0  0  0  0  0
    5.7024  -12.9908   27.7746 C   0  0  0  0  0  0  0  0  0  0  0  0
    5.8632  -13.9314   26.6379 C   0  0  0  0  0  0  0  0  0  0  0  0
    7.1134  -14.6941   26.4849 C   0  0  2  0  0  0  0  0  0  0  0  0
    8.2729  -13.8092   26.4794 N   0  0  0  0  0  0  0  0  0  0  0  0
    7.1186  -15.4473   25.1604 C   0  0  0  0  0  0  0  0  0  0  0  0
    6.2114  -16.2780   24.9754 O   0  0  0  0  0  0  0  0  0  0  0  0
    6.8750  -14.8304   21.6432 C   0  0  0  0  0  0  0  0  0  0  0  0
    8.1649  -15.5686   21.7653 C   0  0  1  0  0  0  0  0  0  0  0  0
    9.1696  -14.5530   21.7283 O   0  0  0  0  0  0  0  0  0  0  0  0
    8.3861  -16.2300   23.1229 C   0  0  2  0  0  0  0  0  0  0  0  0
    8.0997  -15.2295   24.1694 N   0  0  0  0  0  0  0  0  0  0  0  0
    9.7153  -16.7991   23.3149 C   0  0  0  0  0  0  0  0  0  0  0  0
   10.6233  -16.0288   23.7996 O   0  0  0  0  0  0  0  0  0  0  0  0
   11.1013  -23.7903   21.5885 N   0  0  0  0  0  0  0  0  0  0  0  0
   12.4862  -23.9128   21.8157 C   0  0  0  0  0  0  0  0  0  0  0  0
   13.1742  -24.7007   21.0807 N   0  0  0  0  0  0  0  0  0  0  0  0
   13.1097  -23.1718   22.8423 N   0  0  0  0  0  0  0  0  0  0  0  0
   12.3705  -22.3465   23.7220 C   0  0  0  0  0  0  0  0  0  0  0  0
   12.5657  -20.8852   23.5510 C   0  0  0  0  0  0  0  0  0  0  0  0
   11.3318  -20.0735   23.4333 C   0  0  0  0  0  0  0  0  0  0  0  0
   11.4632  -18.6097   23.2468 C   0  0  2  0  0  0  0  0  0  0  0  0
   10.0771  -18.1149   23.0160 N   0  0  0  0  0  0  0  0  0  0  0  0
   12.1770  -18.3271   21.9371 C   0  0  0  0  0  0  0  0  0  0  0  0
   11.5497  -18.1732   20.8560 O   0  0  0  0  0  0  0  0  0  0  0  0
   13.5336  -18.2338   21.8957 O   0  0  0  0  0  0  0  0  0  0  0  0
  2  1  1  0
  3  2  1  0
  4  5  1  0
  4  3  1  0
  5  7  1  0
  5  6  1  6
  7  8  2  0
 10  9  1  1
 10 12  1  0
 11 10  1  0
 12 13  1  1
 13  7  1  0
 14 12  1  0
 14 15  2  0
 17 16  1  0
 18 17  2  0
 19 17  1  0
 20 19  1  0
 21 20  1  0
 21 22  1  0
 23 22  1  6
 23 24  1  0
 23 25  1  0
 24 14  1  0
 25 26  2  0
 25 27  1  0
M  END
$$$$
