MTR.pdb
     RDKit          3D

 27 26  0  0  1  0  0  0  0  0999 V2000
    7.1041  -11.3684   19.0248 C   0  0  0  0  0  0  0  0  0  0  0  0
    7.0386  -12.3415   17.5295 S   0  0  0  0  0  0  0  0  0  0  0  0
    8.0276  -13.7968   17.6065 C   0  0  0  0  0  0  0  0  0  0  0  0
    9.0106  -13.8702   18.7160 C   0  0  0  0  0  0  0  0  0  0  0  0
    9.8138  -15.0893   18.9083 C   0  0  2  0  0  0  0  0  0  0  0  0
    9.0321  -16.2862   18.6184 N   0  0  0  0  0  0  0  0  0  0  0  0
   10.2786  -15.1976   20.3553 C   0  0  0  0  0  0  0  0  0  0  0  0
   11.3614  -14.6590   20.6463 O   0  0  0  0  0  0  0  0  0  0  0  0
    7.6850  -14.6679   23.2374 C   0  0  0  0  0  0  0  0  0  0  0  0
    8.6057  -15.7878   23.5864 C   0  0  1  0  0  0  0  0  0  0  0  0
    7.9201  -16.9675   23.1615 O   0  0  0  0  0  0  0  0  0  0  0  0
    9.8956  -15.8202   22.7711 C   0  0  2  0  0  0  0  0  0  0  0  0
    9.5304  -15.8745   21.3422 N   0  0  0  0  0  0  0  0  0  0  0  0
   10.8013  -16.9135   23.1056 C   0  0  0  0  0  0  0  0  0  0  0  0
   10.4961  -18.0860   22.6756 O   0  0  0  0  0  0  0  0  0  0  0  0
   17.0489  -14.2185   20.7834 N   0  0  0  0  0  0  0  0  0  0  0  0
   15.9765  -14.6759   19.9927 C   0  0  0  0  0  0  0  0  0  0  0  0
   15.7767  -14.1511   18.8442 N   0  0  0  0  0  0  0  0  0  0  0  0
   15.1319  -15.7049   20.4613 N   0  0  0  0  0  0  0  0  0  0  0  0
   15.0792  -16.0630   21.8289 C   0  0  0  0  0  0  0  0  0  0  0  0
   14.2623  -17.2597   22.1504 C   0  0  0  0  0  0  0  0  0  0  0  0
   14.1696  -17.6178   23.5851 C   0  0  0  0  0  0  0  0  0  0  0  0
   12.8413  -17.9614   24.1440 C   0  0  2  0  0  0  0  0  0  0  0  0
   11.9743  -16.7853   23.8534 N   0  0  0  0  0  0  0  0  0  0  0  0
   12.9215  -17.9932   25.6597 C   0  0  0  0  0  0  0  0  0  0  0  0
   13.6021  -18.8572   26.2730 O   0  0  0  0  0  0  0  0  0  0  0  0
   12.2482  -17.0769   26.4065 O   0  0  0  0  0  0  0  0  0  0  0  0
  2  1  1  0
  3  2  1  0
  4  5  1  0
  4  3  1  0
  5  7  1  0
  5  6  1  1
  7  8  2  0
 10  9  1  6
 10 12  1  0
 11 10  1  0
 12 13  1  6
 13  7  1  0
 14 12  1  0
 14 15  2  0
 17 16  1  0
 18 17  2  0
 19 17  1  0
 20 19  1  0
 21 20  1  0
 21 22  1  0
 23 22  1  6
 23 24  1  0
 23 25  1  0
 24 14  1  0
 25 26  2  0
 25 27  1  0
M  END
$$$$
