MTR.pdb
     RDKit          3D

 27 26  0  0  1  0  0  0  0  0999 V2000
    7.4650  -12.1857   21.2159 C   0  0  0  0  0  0  0  0  0  0  0  0
    8.0578  -12.0629   19.5364 S   0  0  0  0  0  0  0  0  0  0  0  0
    8.1122  -13.6150   18.7060 C   0  0  0  0  0  0  0  0  0  0  0  0
    8.5707  -14.7775   19.5067 C   0  0  0  0  0  0  0  0  0  0  0  0
    8.6851  -16.1045   18.8788 C   0  0  2  0  0  0  0  0  0  0  0  0
    7.4270  -16.5037   18.2580 N   0  0  0  0  0  0  0  0  0  0  0  0
    9.0236  -17.1604   19.9239 C   0  0  0  0  0  0  0  0  0  0  0  0
    8.1015  -17.5403   20.6673 O   0  0  0  0  0  0  0  0  0  0  0  0
   11.0559  -20.3696   19.2677 C   0  0  0  0  0  0  0  0  0  0  0  0
   11.5768  -19.7299   20.5099 C   0  0  1  0  0  0  0  0  0  0  0  0
   12.7017  -18.9613   20.0785 O   0  0  0  0  0  0  0  0  0  0  0  0
   10.6480  -18.6809   21.1153 C   0  0  2  0  0  0  0  0  0  0  0  0
   10.3203  -17.7002   20.0623 N   0  0  0  0  0  0  0  0  0  0  0  0
   11.1786  -18.0032   22.2929 C   0  0  0  0  0  0  0  0  0  0  0  0
   11.7757  -16.8797   22.1090 O   0  0  0  0  0  0  0  0  0  0  0  0
    9.6975  -14.5673   28.7855 N   0  0  0  0  0  0  0  0  0  0  0  0
    9.3175  -13.7303   27.7179 C   0  0  0  0  0  0  0  0  0  0  0  0
    8.5772  -12.7145   27.9513 N   0  0  0  0  0  0  0  0  0  0  0  0
    9.7512  -14.0076   26.4039 N   0  0  0  0  0  0  0  0  0  0  0  0
    9.6781  -15.3083   25.8522 C   0  0  0  0  0  0  0  0  0  0  0  0
   10.5555  -16.3256   26.4829 C   0  0  0  0  0  0  0  0  0  0  0  0
   10.6752  -17.6163   25.7652 C   0  0  0  0  0  0  0  0  0  0  0  0
   11.7320  -17.7583   24.7366 C   0  0  2  0  0  0  0  0  0  0  0  0
   11.0861  -18.4782   23.6035 N   0  0  0  0  0  0  0  0  0  0  0  0
   12.7929  -18.7260   25.2296 C   0  0  0  0  0  0  0  0  0  0  0  0
   12.7963  -19.9394   24.8927 O   0  0  0  0  0  0  0  0  0  0  0  0
   13.7813  -18.3019   26.0626 O   0  0  0  0  0  0  0  0  0  0  0  0
  2  1  1  0
  3  2  1  0
  4  5  1  0
  4  3  1  0
  5  7  1  0
  5  6  1  1
  7  8  2  0
 10  9  1  6
 10 12  1  0
 11 10  1  0
 12 13  1  6
 13  7  1  0
 14 12  1  0
 14 15  2  0
 17 16  1  0
 18 17  2  0
 19 17  1  0
 20 19  1  0
 21 20  1  0
 21 22  1  0
 23 22  1  1
 23 24  1  0
 23 25  1  0
 24 14  1  0
 25 26  2  0
 25 27  1  0
M  END
$$$$
