MTR.pdb
     RDKit          3D

 27 26  0  0  1  0  0  0  0  0999 V2000
    8.1601  -12.4207   21.6455 C   0  0  0  0  0  0  0  0  0  0  0  0
    8.2493  -13.3929   20.1508 S   0  0  0  0  0  0  0  0  0  0  0  0
    7.1449  -14.7648   20.1502 C   0  0  0  0  0  0  0  0  0  0  0  0
    7.1063  -15.5819   18.9118 C   0  0  0  0  0  0  0  0  0  0  0  0
    8.3619  -15.9881   18.2586 C   0  0  2  0  0  0  0  0  0  0  0  0
    8.1007  -16.7119   17.0194 N   0  0  0  0  0  0  0  0  0  0  0  0
    9.1550  -16.9222   19.1641 C   0  0  0  0  0  0  0  0  0  0  0  0
    8.5786  -17.9484   19.5666 O   0  0  0  0  0  0  0  0  0  0  0  0
   12.4771  -18.2757   18.2356 C   0  0  0  0  0  0  0  0  0  0  0  0
   12.6014  -17.8484   19.6589 C   0  0  1  0  0  0  0  0  0  0  0  0
   13.1818  -16.5440   19.5972 O   0  0  0  0  0  0  0  0  0  0  0  0
   11.2688  -17.6053   20.3622 C   0  0  2  0  0  0  0  0  0  0  0  0
   10.4880  -16.6569   19.5442 N   0  0  0  0  0  0  0  0  0  0  0  0
   11.3821  -17.1197   21.7329 C   0  0  0  0  0  0  0  0  0  0  0  0
   11.1660  -15.8688   21.9362 O   0  0  0  0  0  0  0  0  0  0  0  0
    6.8965  -15.4936   23.6199 N   0  0  0  0  0  0  0  0  0  0  0  0
    6.3994  -16.5479   24.4110 C   0  0  0  0  0  0  0  0  0  0  0  0
    5.2782  -17.0828   24.1090 N   0  0  0  0  0  0  0  0  0  0  0  0
    7.1319  -17.0119   25.5245 N   0  0  0  0  0  0  0  0  0  0  0  0
    8.2815  -17.8231   25.3767 C   0  0  0  0  0  0  0  0  0  0  0  0
    9.5777  -17.1016   25.3332 C   0  0  0  0  0  0  0  0  0  0  0  0
   10.7684  -17.9222   25.0107 C   0  0  0  0  0  0  0  0  0  0  0  0
   11.8483  -17.3136   24.1993 C   0  0  2  0  0  0  0  0  0  0  0  0
   11.7042  -17.9076   22.8407 N   0  0  0  0  0  0  0  0  0  0  0  0
   13.1943  -17.8232   24.6822 C   0  0  0  0  0  0  0  0  0  0  0  0
   13.8237  -18.7260   24.0699 O   0  0  0  0  0  0  0  0  0  0  0  0
   13.7635  -17.3121   25.8072 O   0  0  0  0  0  0  0  0  0  0  0  0
  2  1  1  0
  3  2  1  0
  4  5  1  0
  4  3  1  0
  5  7  1  0
  5  6  1  6
  7  8  2  0
 10  9  1  6
 10 12  1  0
 11 10  1  0
 12 13  1  6
 13  7  1  0
 14 12  1  0
 14 15  2  0
 17 16  1  0
 18 17  2  0
 19 17  1  0
 20 19  1  0
 21 20  1  0
 21 22  1  0
 23 22  1  1
 23 24  1  0
 23 25  1  0
 24 14  1  0
 25 26  2  0
 25 27  1  0
M  END
$$$$
