MTR.pdb
     RDKit          3D

 27 26  0  0  1  0  0  0  0  0999 V2000
    8.3661  -12.8878   22.1564 C   0  0  0  0  0  0  0  0  0  0  0  0
    7.9473  -12.4037   20.4899 S   0  0  0  0  0  0  0  0  0  0  0  0
    8.2531  -13.6690   19.3036 C   0  0  0  0  0  0  0  0  0  0  0  0
    8.9428  -14.8865   19.7984 C   0  0  0  0  0  0  0  0  0  0  0  0
    9.3749  -15.9251   18.8483 C   0  0  2  0  0  0  0  0  0  0  0  0
    8.2723  -16.3468   17.9915 N   0  0  0  0  0  0  0  0  0  0  0  0
    9.8597  -17.1614   19.5954 C   0  0  0  0  0  0  0  0  0  0  0  0
    9.0021  -18.0018   19.9202 O   0  0  0  0  0  0  0  0  0  0  0  0
   12.4948  -19.4858   18.3677 C   0  0  0  0  0  0  0  0  0  0  0  0
   12.8350  -19.1755   19.7860 C   0  0  1  0  0  0  0  0  0  0  0  0
   13.7617  -18.0904   19.7082 O   0  0  0  0  0  0  0  0  0  0  0  0
   11.6812  -18.5925   20.5975 C   0  0  2  0  0  0  0  0  0  0  0  0
   11.2184  -17.3676   19.9167 N   0  0  0  0  0  0  0  0  0  0  0  0
   11.9987  -18.3089   21.9925 C   0  0  0  0  0  0  0  0  0  0  0  0
   11.9588  -17.0804   22.3695 O   0  0  0  0  0  0  0  0  0  0  0  0
   11.9637  -21.9093   30.6575 N   0  0  0  0  0  0  0  0  0  0  0  0
   12.2646  -20.8028   29.8390 C   0  0  0  0  0  0  0  0  0  0  0  0
   13.3597  -20.1687   30.0207 N   0  0  0  0  0  0  0  0  0  0  0  0
   11.3683  -20.3990   28.8265 N   0  0  0  0  0  0  0  0  0  0  0  0
   11.5349  -20.7976   27.4793 C   0  0  0  0  0  0  0  0  0  0  0  0
   12.3611  -19.8961   26.6383 C   0  0  0  0  0  0  0  0  0  0  0  0
   11.9327  -19.7486   25.2276 C   0  0  0  0  0  0  0  0  0  0  0  0
   12.7297  -18.8764   24.3338 C   0  0  2  0  0  0  0  0  0  0  0  0
   12.3398  -19.2672   22.9501 N   0  0  0  0  0  0  0  0  0  0  0  0
   14.1955  -19.2608   24.4249 C   0  0  0  0  0  0  0  0  0  0  0  0
   14.7409  -20.0140   23.5756 O   0  0  0  0  0  0  0  0  0  0  0  0
   14.9696  -18.7966   25.4428 O   0  0  0  0  0  0  0  0  0  0  0  0
  2  1  1  0
  3  2  1  0
  4  5  1  0
  4  3  1  0
  5  7  1  0
  5  6  1  6
  7  8  2  0
 10  9  1  6
 10 12  1  0
 11 10  1  0
 12 13  1  6
 13  7  1  0
 14 12  1  0
 14 15  2  0
 17 16  1  0
 18 17  2  0
 19 17  1  0
 20 19  1  0
 21 20  1  0
 21 22  1  0
 23 22  1  1
 23 24  1  0
 23 25  1  0
 24 14  1  0
 25 26  2  0
 25 27  1  0
M  END
$$$$
