MTR.pdb
     RDKit          3D

 27 26  0  0  1  0  0  0  0  0999 V2000
    6.9367  -10.8351   25.4614 C   0  0  0  0  0  0  0  0  0  0  0  0
    5.8453  -11.7711   26.5196 S   0  0  0  0  0  0  0  0  0  0  0  0
    5.3777  -13.3237   25.8321 C   0  0  0  0  0  0  0  0  0  0  0  0
    6.4735  -14.1606   25.2831 C   0  0  0  0  0  0  0  0  0  0  0  0
    6.1612  -15.4296   24.6046 C   0  0  2  0  0  0  0  0  0  0  0  0
    5.5253  -16.3726   25.5179 N   0  0  0  0  0  0  0  0  0  0  0  0
    7.4372  -16.0895   24.0965 C   0  0  0  0  0  0  0  0  0  0  0  0
    7.9895  -16.9125   24.8480 O   0  0  0  0  0  0  0  0  0  0  0  0
    7.8803  -16.4374   20.0833 C   0  0  0  0  0  0  0  0  0  0  0  0
    9.1908  -16.2997   20.7812 C   0  0  1  0  0  0  0  0  0  0  0  0
    9.5041  -14.9081   20.6947 O   0  0  0  0  0  0  0  0  0  0  0  0
    9.1331  -16.5522   22.2854 C   0  0  2  0  0  0  0  0  0  0  0  0
    7.9888  -15.7965   22.8309 N   0  0  0  0  0  0  0  0  0  0  0  0
   10.3546  -16.2154   23.0079 C   0  0  0  0  0  0  0  0  0  0  0  0
   10.4458  -15.0284   23.4930 O   0  0  0  0  0  0  0  0  0  0  0  0
   11.9715  -17.4282   30.2201 N   0  0  0  0  0  0  0  0  0  0  0  0
   11.8392  -16.4035   29.2625 C   0  0  0  0  0  0  0  0  0  0  0  0
   11.2050  -15.3369   29.5699 N   0  0  0  0  0  0  0  0  0  0  0  0
   12.4031  -16.5503   27.9771 N   0  0  0  0  0  0  0  0  0  0  0  0
   12.9768  -17.7703   27.5482 C   0  0  0  0  0  0  0  0  0  0  0  0
   13.6100  -17.7477   26.2062 C   0  0  0  0  0  0  0  0  0  0  0  0
   12.6909  -17.8740   25.0510 C   0  0  0  0  0  0  0  0  0  0  0  0
   12.5508  -16.7225   24.1294 C   0  0  2  0  0  0  0  0  0  0  0  0
   11.4305  -17.0820   23.2156 N   0  0  0  0  0  0  0  0  0  0  0  0
   13.7618  -16.6532   23.2164 C   0  0  0  0  0  0  0  0  0  0  0  0
   14.8928  -16.2917   23.6360 O   0  0  0  0  0  0  0  0  0  0  0  0
   13.6549  -16.9824   21.9008 O   0  0  0  0  0  0  0  0  0  0  0  0
  2  1  1  0
  3  2  1  0
  4  5  1  0
  4  3  1  0
  5  7  1  0
  5  6  1  1
  7  8  2  0
 10  9  1  6
 10 12  1  0
 11 10  1  0
 12 13  1  1
 13  7  1  0
 14 12  1  0
 14 15  2  0
 17 16  1  0
 18 17  2  0
 19 17  1  0
 20 19  1  0
 21 20  1  0
 21 22  1  0
 23 22  1  1
 23 24  1  0
 23 25  1  0
 24 14  1  0
 25 26  2  0
 25 27  1  0
M  END
$$$$
