MTR.pdb
     RDKit          3D

 27 26  0  0  1  0  0  0  0  0999 V2000
    6.3791  -12.1389   19.6829 C   0  0  0  0  0  0  0  0  0  0  0  0
    7.5396  -12.0449   18.3295 S   0  0  0  0  0  0  0  0  0  0  0  0
    9.1810  -12.4840   18.7930 C   0  0  0  0  0  0  0  0  0  0  0  0
    9.3326  -13.7246   19.5934 C   0  0  0  0  0  0  0  0  0  0  0  0
   10.6543  -14.1039   20.1199 C   0  0  2  0  0  0  0  0  0  0  0  0
   11.6254  -14.2599   19.0427 N   0  0  0  0  0  0  0  0  0  0  0  0
   10.5739  -15.4404   20.8472 C   0  0  0  0  0  0  0  0  0  0  0  0
    9.5399  -15.6715   21.4988 O   0  0  0  0  0  0  0  0  0  0  0  0
   12.8061  -18.6894   19.5462 C   0  0  0  0  0  0  0  0  0  0  0  0
   12.6800  -18.5632   21.0266 C   0  0  1  0  0  0  0  0  0  0  0  0
   13.8271  -17.8104   21.4261 O   0  0  0  0  0  0  0  0  0  0  0  0
   11.5133  -17.6938   21.4877 C   0  0  2  0  0  0  0  0  0  0  0  0
   11.6148  -16.3923   20.7991 N   0  0  0  0  0  0  0  0  0  0  0  0
   11.4303  -17.4995   22.9309 C   0  0  0  0  0  0  0  0  0  0  0  0
   12.1083  -16.5313   23.4365 O   0  0  0  0  0  0  0  0  0  0  0  0
    4.8154  -20.1516   24.2980 N   0  0  0  0  0  0  0  0  0  0  0  0
    5.8856  -20.6029   25.0953 C   0  0  0  0  0  0  0  0  0  0  0  0
    6.0609  -21.8591   25.2558 N   0  0  0  0  0  0  0  0  0  0  0  0
    6.7578  -19.6788   25.7092 N   0  0  0  0  0  0  0  0  0  0  0  0
    6.7475  -18.3048   25.3724 C   0  0  0  0  0  0  0  0  0  0  0  0
    8.0730  -17.7019   25.0856 C   0  0  0  0  0  0  0  0  0  0  0  0
    9.2423  -18.3867   25.6846 C   0  0  0  0  0  0  0  0  0  0  0  0
   10.5995  -17.9709   25.2601 C   0  0  2  0  0  0  0  0  0  0  0  0
   10.6704  -18.2809   23.8047 N   0  0  0  0  0  0  0  0  0  0  0  0
   11.6311  -18.8943   25.8830 C   0  0  0  0  0  0  0  0  0  0  0  0
   12.1868  -19.8131   25.2250 O   0  0  0  0  0  0  0  0  0  0  0  0
   11.9859  -18.7530   27.1887 O   0  0  0  0  0  0  0  0  0  0  0  0
  2  1  1  0
  3  2  1  0
  4  5  1  0
  4  3  1  0
  5  7  1  0
  5  6  1  6
  7  8  2  0
 10  9  1  6
 10 12  1  0
 11 10  1  0
 12 13  1  6
 13  7  1  0
 14 12  1  0
 14 15  2  0
 17 16  1  0
 18 17  2  0
 19 17  1  0
 20 19  1  0
 21 20  1  0
 21 22  1  0
 23 22  1  1
 23 24  1  0
 23 25  1  0
 24 14  1  0
 25 26  2  0
 25 27  1  0
M  END
$$$$
