PHC.pdb
     RDKit          3D

 24 25  0  0  1  0  0  0  0  0999 V2000
    8.8171  -14.9934   19.6194 N   0  0  0  0  0  0  0  0  0  0  0  0
    8.6461  -14.7020   18.2229 C   0  0  0  0  0  0  0  0  0  0  0  0
    7.9552  -13.3671   18.1208 C   0  0  0  0  0  0  0  0  0  0  0  0
    7.3097  -13.2641   19.5096 C   0  0  0  0  0  0  0  0  0  0  0  0
    8.3579  -13.8695   20.3766 C   0  0  1  0  0  0  0  0  0  0  0  0
    7.8843  -14.2364   21.7291 C   0  0  0  0  0  0  0  0  0  0  0  0
    7.2653  -13.3507   22.3753 O   0  0  0  0  0  0  0  0  0  0  0  0
    8.0786  -15.4896   22.3274 N   0  0  0  0  0  0  0  0  0  0  0  0
    7.5638  -15.8599   23.6280 C   0  0  1  0  0  0  0  0  0  0  0  0
    7.7131  -17.3180   23.9170 C   0  0  0  0  0  0  0  0  0  0  0  0
    6.9744  -18.1883   23.0022 C   0  0  0  0  0  0  0  0  0  0  0  0
    6.0895  -17.7568   22.0408 C   0  0  0  0  0  0  0  0  0  0  0  0
    5.6165  -18.8547   21.4057 N   0  0  0  0  0  0  0  0  0  0  0  0
    6.1745  -19.9407   21.9376 C   0  0  0  0  0  0  0  0  0  0  0  0
    6.9974  -19.5230   22.9062 N   0  0  0  0  0  0  0  0  0  0  0  0
    8.3000  -15.1217   24.7164 C   0  0  0  0  0  0  0  0  0  0  0  0
    9.5607  -15.0461   24.7229 O   0  0  0  0  0  0  0  0  0  0  0  0
    7.6003  -14.4844   25.7740 N   0  0  0  0  0  0  0  0  0  0  0  0
    8.2822  -13.6883   26.7979 C   0  0  1  0  0  0  0  0  0  0  0  0
    7.2513  -12.7667   27.4020 C   0  0  0  0  0  0  0  0  0  0  0  0
    6.2390  -11.9504   26.1722 S   0  0  0  0  0  0  0  0  0  0  0  0
    8.7825  -14.5755   27.8883 C   0  0  0  0  0  0  0  0  0  0  0  0
    9.5917  -14.0808   28.8903 O   0  0  0  0  0  0  0  0  0  0  0  0
    8.4847  -15.7891   27.9267 O   0  0  0  0  0  0  0  0  0  0  0  0
  1  5  1  0
  1  2  1  0
  2  3  1  0
  4  3  1  0
  5  4  1  0
  5  6  1  1
  6  8  1  0
  7  6  2  0
  9  8  1  0
  9 10  1  1
 10 11  1  0
 11 15  1  0
 11 12  2  0
 12 13  1  0
 14 13  1  0
 15 14  2  0
 16  9  1  0
 17 16  2  0
 18 16  1  0
 19 22  1  0
 19 18  1  0
 19 20  1  1
 21 20  1  0
 22 23  1  0
 24 22  2  0
M  END
$$$$
