PHC.pdb
     RDKit          3D

 24 25  0  0  1  0  0  0  0  0999 V2000
    9.2308  -14.3694   19.4637 N   0  0  0  0  0  0  0  0  0  0  0  0
    9.0258  -14.0393   18.0804 C   0  0  0  0  0  0  0  0  0  0  0  0
    7.8212  -13.1377   18.0044 C   0  0  0  0  0  0  0  0  0  0  0  0
    7.1213  -13.4713   19.3291 C   0  0  0  0  0  0  0  0  0  0  0  0
    8.2795  -13.6441   20.2487 C   0  0  1  0  0  0  0  0  0  0  0  0
    7.9438  -14.3187   21.5216 C   0  0  0  0  0  0  0  0  0  0  0  0
    6.9430  -13.8838   22.1498 O   0  0  0  0  0  0  0  0  0  0  0  0
    8.6593  -15.3957   22.0642 N   0  0  0  0  0  0  0  0  0  0  0  0
    8.3931  -15.9799   23.3609 C   0  0  1  0  0  0  0  0  0  0  0  0
    9.1219  -17.2658   23.5783 C   0  0  0  0  0  0  0  0  0  0  0  0
    8.7759  -18.3187   22.6235 C   0  0  0  0  0  0  0  0  0  0  0  0
    7.5320  -18.8929   22.4950 C   0  0  0  0  0  0  0  0  0  0  0  0
    7.6147  -19.8191   21.5112 N   0  0  0  0  0  0  0  0  0  0  0  0
    8.8570  -19.8365   21.0316 C   0  0  0  0  0  0  0  0  0  0  0  0
    9.5528  -18.9208   21.7152 N   0  0  0  0  0  0  0  0  0  0  0  0
    8.8240  -15.0429   24.4600 C   0  0  0  0  0  0  0  0  0  0  0  0
    9.9954  -14.5727   24.5016 O   0  0  0  0  0  0  0  0  0  0  0  0
    7.9260  -14.6557   25.4886 N   0  0  0  0  0  0  0  0  0  0  0  0
    8.3063  -13.7207   26.5508 C   0  0  1  0  0  0  0  0  0  0  0  0
    7.0338  -13.0958   27.0676 C   0  0  0  0  0  0  0  0  0  0  0  0
    5.9739  -12.4874   25.7599 S   0  0  0  0  0  0  0  0  0  0  0  0
    8.9338  -14.4603   27.6846 C   0  0  0  0  0  0  0  0  0  0  0  0
    9.4806  -13.7848   28.7562 O   0  0  0  0  0  0  0  0  0  0  0  0
    8.9828  -15.7095   27.6977 O   0  0  0  0  0  0  0  0  0  0  0  0
  1  5  1  0
  1  2  1  0
  2  3  1  0
  4  3  1  0
  5  4  1  0
  5  6  1  1
  6  8  1  0
  7  6  2  0
  9  8  1  0
  9 10  1  6
 10 11  1  0
 11 15  1  0
 11 12  2  0
 12 13  1  0
 14 13  1  0
 15 14  2  0
 16  9  1  0
 17 16  2  0
 18 16  1  0
 19 22  1  0
 19 18  1  0
 19 20  1  1
 21 20  1  0
 22 23  1  0
 24 22  2  0
M  END
$$$$
