PHC.pdb
     RDKit          3D

 24 25  0  0  1  0  0  0  0  0999 V2000
    9.3125  -14.6956   19.0111 N   0  0  0  0  0  0  0  0  0  0  0  0
    9.1422  -14.4484   17.6060 C   0  0  0  0  0  0  0  0  0  0  0  0
    8.0907  -13.3795   17.4592 C   0  0  0  0  0  0  0  0  0  0  0  0
    7.3658  -13.4942   18.8073 C   0  0  0  0  0  0  0  0  0  0  0  0
    8.4958  -13.7714   19.7364 C   0  0  1  0  0  0  0  0  0  0  0  0
    8.0772  -14.2826   21.0598 C   0  0  0  0  0  0  0  0  0  0  0  0
    7.2016  -13.6194   21.6754 O   0  0  0  0  0  0  0  0  0  0  0  0
    8.5866  -15.4417   21.6626 N   0  0  0  0  0  0  0  0  0  0  0  0
    8.0971  -15.9954   22.9066 C   0  0  1  0  0  0  0  0  0  0  0  0
    8.7414  -17.2975   23.2550 C   0  0  0  0  0  0  0  0  0  0  0  0
    8.4499  -18.3799   22.3152 C   0  0  0  0  0  0  0  0  0  0  0  0
    7.1921  -18.7425   21.8911 C   0  0  0  0  0  0  0  0  0  0  0  0
    7.3388  -19.7784   21.0320 N   0  0  0  0  0  0  0  0  0  0  0  0
    8.6337  -20.0656   20.9120 C   0  0  0  0  0  0  0  0  0  0  0  0
    9.2984  -19.2094   21.6962 N   0  0  0  0  0  0  0  0  0  0  0  0
    8.3740  -15.0520   24.0489 C   0  0  0  0  0  0  0  0  0  0  0  0
    9.5516  -14.7024   24.3422 O   0  0  0  0  0  0  0  0  0  0  0  0
    7.3184  -14.5226   24.8361 N   0  0  0  0  0  0  0  0  0  0  0  0
    7.5494  -13.5430   25.9011 C   0  0  1  0  0  0  0  0  0  0  0  0
    6.2241  -12.8820   26.1902 C   0  0  0  0  0  0  0  0  0  0  0  0
    6.3196  -11.6734   27.5069 S   0  0  0  0  0  0  0  0  0  0  0  0
    7.9853  -14.2353   27.1489 C   0  0  0  0  0  0  0  0  0  0  0  0
    8.7535  -13.5827   28.0910 O   0  0  0  0  0  0  0  0  0  0  0  0
    7.6690  -15.4231   27.3774 O   0  0  0  0  0  0  0  0  0  0  0  0
  1  5  1  0
  1  2  1  0
  2  3  1  0
  4  3  1  0
  5  4  1  0
  5  6  1  1
  6  8  1  0
  7  6  2  0
  9  8  1  0
  9 10  1  1
 10 11  1  0
 11 15  1  0
 11 12  2  0
 12 13  1  0
 14 13  1  0
 15 14  2  0
 16  9  1  0
 17 16  2  0
 18 16  1  0
 19 22  1  0
 19 18  1  0
 19 20  1  1
 21 20  1  0
 22 23  1  0
 24 22  2  0
M  END
$$$$
