PHC.pdb
     RDKit          3D

 24 25  0  0  1  0  0  0  0  0999 V2000
    8.5807  -14.9629   19.4174 N   0  0  0  0  0  0  0  0  0  0  0  0
    8.2211  -14.5819   18.0794 C   0  0  0  0  0  0  0  0  0  0  0  0
    7.5224  -13.2497   18.1609 C   0  0  0  0  0  0  0  0  0  0  0  0
    7.0719  -13.2443   19.6282 C   0  0  0  0  0  0  0  0  0  0  0  0
    8.2284  -13.8955   20.3029 C   0  0  1  0  0  0  0  0  0  0  0  0
    7.9433  -14.3550   21.6797 C   0  0  0  0  0  0  0  0  0  0  0  0
    7.5186  -13.4913   22.4915 O   0  0  0  0  0  0  0  0  0  0  0  0
    8.1139  -15.6717   22.1305 N   0  0  0  0  0  0  0  0  0  0  0  0
    7.7228  -16.1407   23.4423 C   0  0  1  0  0  0  0  0  0  0  0  0
    8.1232  -17.5578   23.6946 C   0  0  0  0  0  0  0  0  0  0  0  0
    7.7523  -18.0579   25.0184 C   0  0  0  0  0  0  0  0  0  0  0  0
    8.6406  -18.4232   26.0037 C   0  0  0  0  0  0  0  0  0  0  0  0
    7.9143  -18.8292   27.0716 N   0  0  0  0  0  0  0  0  0  0  0  0
    6.6184  -18.7281   26.7817 C   0  0  0  0  0  0  0  0  0  0  0  0
    6.5328  -18.2584   25.5319 N   0  0  0  0  0  0  0  0  0  0  0  0
    8.3722  -15.3059   24.5161 C   0  0  0  0  0  0  0  0  0  0  0  0
    9.6146  -15.0793   24.5114 O   0  0  0  0  0  0  0  0  0  0  0  0
    7.6081  -14.7444   25.5721 N   0  0  0  0  0  0  0  0  0  0  0  0
    8.1806  -13.8073   26.5421 C   0  0  1  0  0  0  0  0  0  0  0  0
    7.0353  -13.0120   27.1190 C   0  0  0  0  0  0  0  0  0  0  0  0
    5.8923  -12.4288   25.8713 S   0  0  0  0  0  0  0  0  0  0  0  0
    8.8155  -14.5563   27.6656 C   0  0  0  0  0  0  0  0  0  0  0  0
    9.4582  -13.8902   28.6887 O   0  0  0  0  0  0  0  0  0  0  0  0
    8.7843  -15.8053   27.7136 O   0  0  0  0  0  0  0  0  0  0  0  0
  1  5  1  0
  1  2  1  0
  2  3  1  0
  4  3  1  0
  5  4  1  0
  5  6  1  1
  6  8  1  0
  7  6  2  0
  9  8  1  0
  9 10  1  1
 10 11  1  0
 11 15  1  0
 11 12  2  0
 12 13  1  0
 14 13  1  0
 15 14  2  0
 16  9  1  0
 17 16  2  0
 18 16  1  0
 19 22  1  0
 19 18  1  0
 19 20  1  1
 21 20  1  0
 22 23  1  0
 24 22  2  0
M  END
$$$$
