PHC.pdb
     RDKit          3D

 24 25  0  0  1  0  0  0  0  0999 V2000
    8.9601  -14.8521   18.8955 N   0  0  0  0  0  0  0  0  0  0  0  0
    8.8118  -14.4781   17.5161 C   0  0  0  0  0  0  0  0  0  0  0  0
    7.9861  -13.2187   17.4753 C   0  0  0  0  0  0  0  0  0  0  0  0
    7.2811  -13.2862   18.8371 C   0  0  0  0  0  0  0  0  0  0  0  0
    8.3545  -13.8411   19.7070 C   0  0  1  0  0  0  0  0  0  0  0  0
    7.8721  -14.3540   21.0078 C   0  0  0  0  0  0  0  0  0  0  0  0
    7.3056  -13.5280   21.7707 O   0  0  0  0  0  0  0  0  0  0  0  0
    8.0041  -15.6821   21.4380 N   0  0  0  0  0  0  0  0  0  0  0  0
    7.5953  -16.1609   22.7408 C   0  0  1  0  0  0  0  0  0  0  0  0
    8.1046  -17.5330   23.0404 C   0  0  0  0  0  0  0  0  0  0  0  0
    7.7394  -18.0307   24.3666 C   0  0  0  0  0  0  0  0  0  0  0  0
    8.6131  -18.2019   25.4158 C   0  0  0  0  0  0  0  0  0  0  0  0
    7.8983  -18.6765   26.4629 N   0  0  0  0  0  0  0  0  0  0  0  0
    6.6234  -18.8033   26.0992 C   0  0  0  0  0  0  0  0  0  0  0  0
    6.5395  -18.4079   24.8238 N   0  0  0  0  0  0  0  0  0  0  0  0
    8.1201  -15.2543   23.8244 C   0  0  0  0  0  0  0  0  0  0  0  0
    9.3223  -14.8675   23.8329 O   0  0  0  0  0  0  0  0  0  0  0  0
    7.2795  -14.8030   24.8751 N   0  0  0  0  0  0  0  0  0  0  0  0
    7.7491  -13.8847   25.9158 C   0  0  1  0  0  0  0  0  0  0  0  0
    6.5405  -13.1416   26.4294 C   0  0  0  0  0  0  0  0  0  0  0  0
    6.9357  -11.9862   27.7380 S   0  0  0  0  0  0  0  0  0  0  0  0
    8.3199  -14.6546   27.0594 C   0  0  0  0  0  0  0  0  0  0  0  0
    9.2587  -14.0889   27.8974 O   0  0  0  0  0  0  0  0  0  0  0  0
    7.9660  -15.8310   27.2919 O   0  0  0  0  0  0  0  0  0  0  0  0
  1  5  1  0
  1  2  1  0
  2  3  1  0
  4  3  1  0
  5  4  1  0
  5  6  1  1
  6  8  1  0
  7  6  2  0
  9  8  1  0
  9 10  1  1
 10 11  1  0
 11 15  1  0
 11 12  2  0
 12 13  1  0
 14 13  1  0
 15 14  2  0
 16  9  1  0
 17 16  2  0
 18 16  1  0
 19 22  1  0
 19 18  1  0
 19 20  1  1
 21 20  1  0
 22 23  1  0
 24 22  2  0
M  END
$$$$
