PHC.pdb
     RDKit          3D

 24 25  0  0  1  0  0  0  0  0999 V2000
    8.6911  -15.1426   19.4354 N   0  0  0  0  0  0  0  0  0  0  0  0
    8.4816  -14.8217   18.0506 C   0  0  0  0  0  0  0  0  0  0  0  0
    7.9285  -13.4216   17.9897 C   0  0  0  0  0  0  0  0  0  0  0  0
    7.3675  -13.2659   19.4099 C   0  0  0  0  0  0  0  0  0  0  0  0
    8.3893  -13.9847   20.2199 C   0  0  1  0  0  0  0  0  0  0  0  0
    7.9486  -14.3137   21.5930 C   0  0  0  0  0  0  0  0  0  0  0  0
    7.5924  -13.3513   22.3226 O   0  0  0  0  0  0  0  0  0  0  0  0
    7.9032  -15.6104   22.1249 N   0  0  0  0  0  0  0  0  0  0  0  0
    7.3042  -15.9481   23.3981 C   0  0  1  0  0  0  0  0  0  0  0  0
    7.1552  -17.4214   23.5961 C   0  0  0  0  0  0  0  0  0  0  0  0
    6.3057  -18.0761   22.6014 C   0  0  0  0  0  0  0  0  0  0  0  0
    4.9911  -17.7567   22.3500 C   0  0  0  0  0  0  0  0  0  0  0  0
    4.5561  -18.5809   21.3681 N   0  0  0  0  0  0  0  0  0  0  0  0
    5.5491  -19.3918   21.0074 C   0  0  0  0  0  0  0  0  0  0  0  0
    6.6065  -19.0755   21.7635 N   0  0  0  0  0  0  0  0  0  0  0  0
    8.1554  -15.4391   24.5330 C   0  0  0  0  0  0  0  0  0  0  0  0
    9.4117  -15.5672   24.5213 O   0  0  0  0  0  0  0  0  0  0  0  0
    7.5730  -14.7967   25.6566 N   0  0  0  0  0  0  0  0  0  0  0  0
    8.3798  -14.1822   26.7141 C   0  0  1  0  0  0  0  0  0  0  0  0
    7.5603  -13.0591   27.3006 C   0  0  0  0  0  0  0  0  0  0  0  0
    6.9030  -11.9519   26.0575 S   0  0  0  0  0  0  0  0  0  0  0  0
    8.6324  -15.1683   27.8050 C   0  0  0  0  0  0  0  0  0  0  0  0
    9.5070  -14.8811   28.8326 O   0  0  0  0  0  0  0  0  0  0  0  0
    8.0613  -16.2804   27.8207 O   0  0  0  0  0  0  0  0  0  0  0  0
  1  5  1  0
  1  2  1  0
  2  3  1  0
  4  3  1  0
  5  4  1  0
  5  6  1  1
  6  8  1  0
  7  6  2  0
  9  8  1  0
  9 10  1  1
 10 11  1  0
 11 15  1  0
 11 12  2  0
 12 13  1  0
 14 13  1  0
 15 14  2  0
 16  9  1  0
 17 16  2  0
 18 16  1  0
 19 22  1  0
 19 18  1  0
 19 20  1  1
 21 20  1  0
 22 23  1  0
 24 22  2  0
M  END
$$$$
