PHC.pdb
     RDKit          3D

 24 25  0  0  1  0  0  0  0  0999 V2000
    9.0488  -14.7738   19.4834 N   0  0  0  0  0  0  0  0  0  0  0  0
    8.7968  -14.4030   18.1183 C   0  0  0  0  0  0  0  0  0  0  0  0
    7.8257  -13.2513   18.1345 C   0  0  0  0  0  0  0  0  0  0  0  0
    7.1941  -13.4199   19.5233 C   0  0  0  0  0  0  0  0  0  0  0  0
    8.3630  -13.8530   20.3373 C   0  0  1  0  0  0  0  0  0  0  0  0
    8.0027  -14.4363   21.6480 C   0  0  0  0  0  0  0  0  0  0  0  0
    7.2645  -13.7429   22.3962 O   0  0  0  0  0  0  0  0  0  0  0  0
    8.4251  -15.6938   22.1026 N   0  0  0  0  0  0  0  0  0  0  0  0
    8.0732  -16.2554   23.3888 C   0  0  1  0  0  0  0  0  0  0  0  0
    8.1300  -17.7482   23.4048 C   0  0  0  0  0  0  0  0  0  0  0  0
    7.0863  -18.3955   22.6101 C   0  0  0  0  0  0  0  0  0  0  0  0
    5.8391  -18.7443   23.0753 C   0  0  0  0  0  0  0  0  0  0  0  0
    5.1697  -19.3153   22.0466 N   0  0  0  0  0  0  0  0  0  0  0  0
    5.9543  -19.3309   20.9706 C   0  0  0  0  0  0  0  0  0  0  0  0
    7.1158  -18.7696   21.3254 N   0  0  0  0  0  0  0  0  0  0  0  0
    9.0235  -15.7711   24.4536 C   0  0  0  0  0  0  0  0  0  0  0  0
   10.2511  -15.6005   24.2111 O   0  0  0  0  0  0  0  0  0  0  0  0
    8.5705  -15.4892   25.7688 N   0  0  0  0  0  0  0  0  0  0  0  0
    9.4528  -14.9389   26.8012 C   0  0  1  0  0  0  0  0  0  0  0  0
    8.6541  -13.9116   27.5651 C   0  0  0  0  0  0  0  0  0  0  0  0
    9.5828  -13.1523   28.8934 S   0  0  0  0  0  0  0  0  0  0  0  0
    9.8436  -16.0087   27.7651 C   0  0  0  0  0  0  0  0  0  0  0  0
   10.9766  -15.8838   28.5425 O   0  0  0  0  0  0  0  0  0  0  0  0
    9.1589  -17.0464   27.8970 O   0  0  0  0  0  0  0  0  0  0  0  0
  1  5  1  0
  1  2  1  0
  2  3  1  0
  4  3  1  0
  5  4  1  0
  5  6  1  1
  6  8  1  0
  7  6  2  0
  9  8  1  0
  9 10  1  6
 10 11  1  0
 11 15  1  0
 11 12  2  0
 12 13  1  0
 14 13  1  0
 15 14  2  0
 16  9  1  0
 17 16  2  0
 18 16  1  0
 19 22  1  0
 19 18  1  0
 19 20  1  1
 21 20  1  0
 22 23  1  0
 24 22  2  0
M  END
$$$$
