PHC.pdb
     RDKit          3D

 24 25  0  0  1  0  0  0  0  0999 V2000
    9.1891  -14.7531   19.1264 N   0  0  0  0  0  0  0  0  0  0  0  0
    9.1412  -14.4390   17.7251 C   0  0  0  0  0  0  0  0  0  0  0  0
    8.2180  -13.2604   17.5571 C   0  0  0  0  0  0  0  0  0  0  0  0
    7.3951  -13.3460   18.8500 C   0  0  0  0  0  0  0  0  0  0  0  0
    8.4245  -13.7742   19.8368 C   0  0  1  0  0  0  0  0  0  0  0  0
    7.8663  -14.2854   21.1077 C   0  0  0  0  0  0  0  0  0  0  0  0
    7.0205  -13.5579   21.6914 O   0  0  0  0  0  0  0  0  0  0  0  0
    8.2148  -15.5105   21.6941 N   0  0  0  0  0  0  0  0  0  0  0  0
    7.6884  -15.9895   22.9539 C   0  0  1  0  0  0  0  0  0  0  0  0
    8.1134  -17.3874   23.2660 C   0  0  0  0  0  0  0  0  0  0  0  0
    7.5228  -18.4016   22.3929 C   0  0  0  0  0  0  0  0  0  0  0  0
    6.4143  -18.2145   21.5994 C   0  0  0  0  0  0  0  0  0  0  0  0
    6.1832  -19.3783   20.9478 N   0  0  0  0  0  0  0  0  0  0  0  0
    7.1036  -20.2706   21.3086 C   0  0  0  0  0  0  0  0  0  0  0  0
    7.9116  -19.6655   22.1867 N   0  0  0  0  0  0  0  0  0  0  0  0
    8.1689  -15.1234   24.0898 C   0  0  0  0  0  0  0  0  0  0  0  0
    9.3918  -14.8406   24.2292 O   0  0  0  0  0  0  0  0  0  0  0  0
    7.2615  -14.5943   25.0443 N   0  0  0  0  0  0  0  0  0  0  0  0
    7.6943  -13.7193   26.1371 C   0  0  1  0  0  0  0  0  0  0  0  0
    6.4857  -12.9317   26.5794 C   0  0  0  0  0  0  0  0  0  0  0  0
    6.8191  -11.8707   27.9817 S   0  0  0  0  0  0  0  0  0  0  0  0
    8.1455  -14.5371   27.3007 C   0  0  0  0  0  0  0  0  0  0  0  0
    9.1258  -14.0755   28.1548 O   0  0  0  0  0  0  0  0  0  0  0  0
    7.6507  -15.6610   27.5360 O   0  0  0  0  0  0  0  0  0  0  0  0
  1  5  1  0
  1  2  1  0
  2  3  1  0
  4  3  1  0
  5  4  1  0
  5  6  1  1
  6  8  1  0
  7  6  2  0
  9  8  1  0
  9 10  1  1
 10 11  1  0
 11 15  1  0
 11 12  2  0
 12 13  1  0
 14 13  1  0
 15 14  2  0
 16  9  1  0
 17 16  2  0
 18 16  1  0
 19 22  1  0
 19 18  1  0
 19 20  1  1
 21 20  1  0
 22 23  1  0
 24 22  2  0
M  END
$$$$
