PHC.pdb
     RDKit          3D

 24 25  0  0  1  0  0  0  0  0999 V2000
    9.3107  -14.3645   18.6970 N   0  0  0  0  0  0  0  0  0  0  0  0
    8.9365  -14.1187   17.3317 C   0  0  0  0  0  0  0  0  0  0  0  0
    7.5989  -13.4257   17.3472 C   0  0  0  0  0  0  0  0  0  0  0  0
    7.0793  -13.8224   18.7360 C   0  0  0  0  0  0  0  0  0  0  0  0
    8.3248  -13.7754   19.5504 C   0  0  1  0  0  0  0  0  0  0  0  0
    8.2145  -14.4517   20.8613 C   0  0  0  0  0  0  0  0  0  0  0  0
    7.1905  -14.1977   21.5485 O   0  0  0  0  0  0  0  0  0  0  0  0
    9.1642  -15.3442   21.3787 N   0  0  0  0  0  0  0  0  0  0  0  0
    9.0395  -16.0179   22.6532 C   0  0  1  0  0  0  0  0  0  0  0  0
   10.1297  -17.0108   22.8934 C   0  0  0  0  0  0  0  0  0  0  0  0
   10.0416  -18.2097   22.0600 C   0  0  0  0  0  0  0  0  0  0  0  0
   10.3410  -18.2644   20.7180 C   0  0  0  0  0  0  0  0  0  0  0  0
   10.1361  -19.5389   20.3103 N   0  0  0  0  0  0  0  0  0  0  0  0
    9.7237  -20.2673   21.3462 C   0  0  0  0  0  0  0  0  0  0  0  0
    9.6702  -19.4489   22.4032 N   0  0  0  0  0  0  0  0  0  0  0  0
    9.0986  -15.0229   23.7837 C   0  0  0  0  0  0  0  0  0  0  0  0
    9.8703  -14.0241   23.7408 O   0  0  0  0  0  0  0  0  0  0  0  0
    8.2870  -15.1743   24.9381 N   0  0  0  0  0  0  0  0  0  0  0  0
    8.2496  -14.1731   26.0074 C   0  0  1  0  0  0  0  0  0  0  0  0
    6.9127  -13.4792   25.9180 C   0  0  0  0  0  0  0  0  0  0  0  0
    6.6458  -12.3055   27.2427 S   0  0  0  0  0  0  0  0  0  0  0  0
    8.3178  -14.8425   27.3392 C   0  0  0  0  0  0  0  0  0  0  0  0
    8.6752  -14.1375   28.4700 O   0  0  0  0  0  0  0  0  0  0  0  0
    8.0541  -16.0576   27.4700 O   0  0  0  0  0  0  0  0  0  0  0  0
  1  5  1  0
  1  2  1  0
  2  3  1  0
  4  3  1  0
  5  4  1  0
  5  6  1  1
  6  8  1  0
  7  6  2  0
  9  8  1  0
  9 10  1  1
 10 11  1  0
 11 15  1  0
 11 12  2  0
 12 13  1  0
 14 13  1  0
 15 14  2  0
 16  9  1  0
 17 16  2  0
 18 16  1  0
 19 22  1  0
 19 18  1  0
 19 20  1  1
 21 20  1  0
 22 23  1  0
 24 22  2  0
M  END
$$$$
