PHC.pdb
     RDKit          3D

 24 25  0  0  1  0  0  0  0  0999 V2000
    9.0728  -14.6512   19.5698 N   0  0  0  0  0  0  0  0  0  0  0  0
    8.9676  -14.3349   18.1721 C   0  0  0  0  0  0  0  0  0  0  0  0
    8.0485  -13.1479   18.0451 C   0  0  0  0  0  0  0  0  0  0  0  0
    7.2812  -13.2280   19.3720 C   0  0  0  0  0  0  0  0  0  0  0  0
    8.3482  -13.6665   20.3132 C   0  0  1  0  0  0  0  0  0  0  0  0
    7.8406  -14.1744   21.6065 C   0  0  0  0  0  0  0  0  0  0  0  0
    7.0052  -13.4535   22.2129 O   0  0  0  0  0  0  0  0  0  0  0  0
    8.2255  -15.3898   22.1904 N   0  0  0  0  0  0  0  0  0  0  0  0
    7.7778  -15.8481   23.4877 C   0  0  1  0  0  0  0  0  0  0  0  0
    8.1339  -17.2745   23.7535 C   0  0  0  0  0  0  0  0  0  0  0  0
    7.5050  -18.2286   22.8403 C   0  0  0  0  0  0  0  0  0  0  0  0
    6.3668  -17.9882   22.1053 C   0  0  0  0  0  0  0  0  0  0  0  0
    6.1052  -19.1066   21.3889 N   0  0  0  0  0  0  0  0  0  0  0  0
    7.0353  -20.0221   21.6541 C   0  0  0  0  0  0  0  0  0  0  0  0
    7.8800  -19.4770   22.5369 N   0  0  0  0  0  0  0  0  0  0  0  0
    8.4100  -15.0290   24.5835 C   0  0  0  0  0  0  0  0  0  0  0  0
    9.6463  -14.7710   24.5817 O   0  0  0  0  0  0  0  0  0  0  0  0
    7.6361  -14.5180   25.6579 N   0  0  0  0  0  0  0  0  0  0  0  0
    8.2188  -13.7000   26.7247 C   0  0  1  0  0  0  0  0  0  0  0  0
    7.0996  -12.8769   27.3135 C   0  0  0  0  0  0  0  0  0  0  0  0
    6.1885  -11.9540   26.0800 S   0  0  0  0  0  0  0  0  0  0  0  0
    8.7492  -14.5752   27.8105 C   0  0  0  0  0  0  0  0  0  0  0  0
    9.4413  -14.0412   28.8779 O   0  0  0  0  0  0  0  0  0  0  0  0
    8.5829  -15.8142   27.7860 O   0  0  0  0  0  0  0  0  0  0  0  0
  1  5  1  0
  1  2  1  0
  2  3  1  0
  4  3  1  0
  5  4  1  0
  5  6  1  1
  6  8  1  0
  7  6  2  0
  9  8  1  0
  9 10  1  1
 10 11  1  0
 11 15  1  0
 11 12  2  0
 12 13  1  0
 14 13  1  0
 15 14  2  0
 16  9  1  0
 17 16  2  0
 18 16  1  0
 19 22  1  0
 19 18  1  0
 19 20  1  1
 21 20  1  0
 22 23  1  0
 24 22  2  0
M  END
$$$$
