CVK.pdb
     RDKit          3D

 23 22  0  0  1  0  0  0  0  0999 V2000
    7.5604  -16.5642   21.4580 N   0  0  0  0  0  0  0  0  0  0  0  0
    6.9001  -16.5873   22.7384 C   0  0  1  0  0  0  0  0  0  0  0  0
    6.7990  -17.9724   23.3290 C   0  0  0  0  0  0  0  0  0  0  0  0
    6.0604  -17.9466   24.9817 S   0  0  0  0  0  0  0  0  0  0  0  0
    7.5844  -15.7163   23.7317 C   0  0  0  0  0  0  0  0  0  0  0  0
    8.8435  -15.6757   23.6723 O   0  0  0  0  0  0  0  0  0  0  0  0
    6.1302  -12.1020   25.1115 C   0  0  0  0  0  0  0  0  0  0  0  0
    6.6474  -13.0574   26.1566 C   0  0  2  0  0  0  0  0  0  0  0  0
    7.3857  -12.2570   27.2030 C   0  0  0  0  0  0  0  0  0  0  0  0
    7.5658  -14.0894   25.6065 C   0  0  2  0  0  0  0  0  0  0  0  0
    6.8730  -14.9637   24.7024 N   0  0  0  0  0  0  0  0  0  0  0  0
    8.2398  -14.8904   26.6649 C   0  0  0  0  0  0  0  0  0  0  0  0
    7.5498  -15.6274   27.3984 O   0  0  0  0  0  0  0  0  0  0  0  0
    9.6374  -14.8729   26.9003 N   0  0  0  0  0  0  0  0  0  0  0  0
   10.2865  -15.7232   27.8783 C   0  0  1  0  0  0  0  0  0  0  0  0
   11.5511  -16.3131   27.3418 C   0  0  0  0  0  0  0  0  0  0  0  0
   11.4071  -17.2295   26.1904 C   0  0  0  0  0  0  0  0  0  0  0  0
   12.7705  -17.7687   25.7678 C   0  0  0  0  0  0  0  0  0  0  0  0
   12.6709  -18.7333   24.6192 C   0  0  0  0  0  0  0  0  0  0  0  0
   14.0295  -19.0529   24.2165 N   0  0  0  0  0  0  0  0  0  0  0  0
   10.4398  -15.0629   29.1893 C   0  0  0  0  0  0  0  0  0  0  0  0
   10.3116  -13.8161   29.3070 O   0  0  0  0  0  0  0  0  0  0  0  0
   10.7281  -15.7352   30.3640 O   0  0  0  0  0  0  0  0  0  0  0  0
  2  1  1  6
  3  2  1  0
  4  3  1  0
  5  2  1  0
  6  5  2  0
  8  7  1  6
  8 10  1  0
  9  8  1  0
 10 11  1  6
 10 12  1  0
 11  5  1  0
 12 14  1  0
 13 12  2  0
 14 15  1  0
 15 16  1  6
 15 21  1  0
 17 18  1  0
 17 16  1  0
 19 20  1  0
 19 18  1  0
 21 22  2  0
 21 23  1  0
M  END
$$$$
