CVK.pdb
     RDKit          3D

 23 22  0  0  1  0  0  0  0  0999 V2000
    9.0736  -17.5700   16.1982 N   0  0  0  0  0  0  0  0  0  0  0  0
    8.1110  -17.3859   17.2543 C   0  0  1  0  0  0  0  0  0  0  0  0
    7.6763  -18.6819   17.8936 C   0  0  0  0  0  0  0  0  0  0  0  0
    6.8552  -19.7751   16.7068 S   0  0  0  0  0  0  0  0  0  0  0  0
    8.6295  -16.4978   18.3294 C   0  0  0  0  0  0  0  0  0  0  0  0
    9.8759  -16.5144   18.5214 O   0  0  0  0  0  0  0  0  0  0  0  0
    7.0746  -12.8424   19.4866 C   0  0  0  0  0  0  0  0  0  0  0  0
    7.3588  -13.8227   20.5960 C   0  0  2  0  0  0  0  0  0  0  0  0
    7.9472  -13.0605   21.7594 C   0  0  0  0  0  0  0  0  0  0  0  0
    8.3052  -14.8995   20.2009 C   0  0  2  0  0  0  0  0  0  0  0  0
    7.7803  -15.6688   19.1080 N   0  0  0  0  0  0  0  0  0  0  0  0
    8.6600  -15.8036   21.3290 C   0  0  0  0  0  0  0  0  0  0  0  0
    7.8673  -16.7128   21.6488 O   0  0  0  0  0  0  0  0  0  0  0  0
    9.8589  -15.7005   22.0781 N   0  0  0  0  0  0  0  0  0  0  0  0
   10.3765  -16.7787   22.8967 C   0  0  1  0  0  0  0  0  0  0  0  0
   10.7197  -17.9787   22.0737 C   0  0  0  0  0  0  0  0  0  0  0  0
   11.2033  -19.1628   22.8156 C   0  0  0  0  0  0  0  0  0  0  0  0
   11.5228  -20.3000   21.8497 C   0  0  0  0  0  0  0  0  0  0  0  0
   12.0950  -21.4999   22.5514 C   0  0  0  0  0  0  0  0  0  0  0  0
   12.3327  -22.5103   21.5352 N   0  0  0  0  0  0  0  0  0  0  0  0
   11.4600  -16.3365   23.7960 C   0  0  0  0  0  0  0  0  0  0  0  0
   11.7301  -16.9722   24.8484 O   0  0  0  0  0  0  0  0  0  0  0  0
   12.2471  -15.2215   23.5674 O   0  0  0  0  0  0  0  0  0  0  0  0
  2  1  1  6
  3  2  1  0
  4  3  1  0
  5  2  1  0
  6  5  2  0
  8  7  1  6
  8 10  1  0
  9  8  1  0
 10 11  1  6
 10 12  1  0
 11  5  1  0
 12 14  1  0
 13 12  2  0
 14 15  1  0
 15 16  1  6
 15 21  1  0
 17 18  1  0
 17 16  1  0
 19 20  1  0
 19 18  1  0
 21 22  2  0
 21 23  1  0
M  END
$$$$
