CVK.pdb
     RDKit          3D

 23 22  0  0  1  0  0  0  0  0999 V2000
    5.0814  -13.1626   25.9967 N   0  0  0  0  0  0  0  0  0  0  0  0
    6.3399  -12.7614   25.4212 C   0  0  1  0  0  0  0  0  0  0  0  0
    7.3121  -12.2189   26.4399 C   0  0  0  0  0  0  0  0  0  0  0  0
    6.9670  -10.4882   26.8440 S   0  0  0  0  0  0  0  0  0  0  0  0
    7.0061  -13.8832   24.7064 C   0  0  0  0  0  0  0  0  0  0  0  0
    6.9535  -15.0148   25.2608 O   0  0  0  0  0  0  0  0  0  0  0  0
    7.2919  -13.8782   20.6279 C   0  0  0  0  0  0  0  0  0  0  0  0
    8.4800  -14.4818   21.3328 C   0  0  2  0  0  0  0  0  0  0  0  0
    8.8822  -15.7341   20.5907 C   0  0  0  0  0  0  0  0  0  0  0  0
    8.2058  -14.8328   22.7515 C   0  0  2  0  0  0  0  0  0  0  0  0
    7.6708  -13.7071   23.4646 N   0  0  0  0  0  0  0  0  0  0  0  0
    9.4045  -15.3561   23.4623 C   0  0  0  0  0  0  0  0  0  0  0  0
   10.2230  -14.5476   23.9457 O   0  0  0  0  0  0  0  0  0  0  0  0
    9.6844  -16.7353   23.6309 N   0  0  0  0  0  0  0  0  0  0  0  0
   10.8524  -17.2262   24.3348 C   0  0  1  0  0  0  0  0  0  0  0  0
   10.4735  -18.0119   25.5489 C   0  0  0  0  0  0  0  0  0  0  0  0
   11.5856  -18.6419   26.2924 C   0  0  0  0  0  0  0  0  0  0  0  0
   11.0542  -19.3770   27.5194 C   0  0  0  0  0  0  0  0  0  0  0  0
   12.1534  -20.0161   28.3212 C   0  0  0  0  0  0  0  0  0  0  0  0
   11.5313  -20.6140   29.4898 N   0  0  0  0  0  0  0  0  0  0  0  0
   11.8015  -17.9193   23.4420 C   0  0  0  0  0  0  0  0  0  0  0  0
   11.3981  -18.5500   22.4300 O   0  0  0  0  0  0  0  0  0  0  0  0
   13.1719  -17.9350   23.6337 O   0  0  0  0  0  0  0  0  0  0  0  0
  2  1  1  1
  3  2  1  0
  4  3  1  0
  5  2  1  0
  6  5  2  0
  8  7  1  6
  8 10  1  0
  9  8  1  0
 10 11  1  1
 10 12  1  0
 11  5  1  0
 12 14  1  0
 13 12  2  0
 14 15  1  0
 15 16  1  1
 15 21  1  0
 17 18  1  0
 17 16  1  0
 19 20  1  0
 19 18  1  0
 21 22  2  0
 21 23  1  0
M  END
$$$$
