CVK.pdb
     RDKit          3D

 23 22  0  0  1  0  0  0  0  0999 V2000
    8.9696  -17.6264   16.4401 N   0  0  0  0  0  0  0  0  0  0  0  0
    7.9685  -17.3281   17.4325 C   0  0  1  0  0  0  0  0  0  0  0  0
    7.2740  -18.5582   17.9632 C   0  0  0  0  0  0  0  0  0  0  0  0
    6.5537  -19.5512   16.6317 S   0  0  0  0  0  0  0  0  0  0  0  0
    8.5386  -16.5898   18.5915 C   0  0  0  0  0  0  0  0  0  0  0  0
    9.7482  -16.8188   18.8654 O   0  0  0  0  0  0  0  0  0  0  0  0
    7.3569  -12.7633   19.5898 C   0  0  0  0  0  0  0  0  0  0  0  0
    7.5535  -13.7135   20.7435 C   0  0  2  0  0  0  0  0  0  0  0  0
    8.2194  -12.9577   21.8686 C   0  0  0  0  0  0  0  0  0  0  0  0
    8.3904  -14.8930   20.3974 C   0  0  2  0  0  0  0  0  0  0  0  0
    7.7755  -15.6721   19.3597 N   0  0  0  0  0  0  0  0  0  0  0  0
    8.6854  -15.7600   21.5709 C   0  0  0  0  0  0  0  0  0  0  0  0
    7.7565  -16.4098   22.0926 O   0  0  0  0  0  0  0  0  0  0  0  0
    9.9731  -15.9008   22.1462 N   0  0  0  0  0  0  0  0  0  0  0  0
   10.2431  -16.7578   23.2835 C   0  0  1  0  0  0  0  0  0  0  0  0
   11.1062  -17.9185   22.9054 C   0  0  0  0  0  0  0  0  0  0  0  0
   11.4671  -18.8471   23.9980 C   0  0  0  0  0  0  0  0  0  0  0  0
   12.3169  -19.9945   23.4599 C   0  0  0  0  0  0  0  0  0  0  0  0
   12.5654  -21.0544   24.4965 C   0  0  0  0  0  0  0  0  0  0  0  0
   13.3424  -22.1001   23.8540 N   0  0  0  0  0  0  0  0  0  0  0  0
   10.7277  -16.0052   24.4569 C   0  0  0  0  0  0  0  0  0  0  0  0
   11.3226  -14.9041   24.3213 O   0  0  0  0  0  0  0  0  0  0  0  0
   10.5749  -16.4307   25.7647 O   0  0  0  0  0  0  0  0  0  0  0  0
  2  1  1  6
  3  2  1  0
  4  3  1  0
  5  2  1  0
  6  5  2  0
  8  7  1  6
  8 10  1  0
  9  8  1  0
 10 11  1  6
 10 12  1  0
 11  5  1  0
 12 14  1  0
 13 12  2  0
 14 15  1  0
 15 16  1  6
 15 21  1  0
 17 18  1  0
 17 16  1  0
 19 20  1  0
 19 18  1  0
 21 22  2  0
 21 23  1  0
M  END
$$$$
