CVK.pdb
     RDKit          3D

 23 22  0  0  1  0  0  0  0  0999 V2000
    4.9484  -18.8238   22.1394 N   0  0  0  0  0  0  0  0  0  0  0  0
    5.4574  -17.6880   22.8652 C   0  0  1  0  0  0  0  0  0  0  0  0
    5.8893  -18.0271   24.2709 C   0  0  0  0  0  0  0  0  0  0  0  0
    6.3130  -16.5450   25.2203 S   0  0  0  0  0  0  0  0  0  0  0  0
    6.6134  -17.0587   22.1717 C   0  0  0  0  0  0  0  0  0  0  0  0
    7.4426  -17.8424   21.6344 O   0  0  0  0  0  0  0  0  0  0  0  0
    6.5442  -13.7054   19.8914 C   0  0  0  0  0  0  0  0  0  0  0  0
    7.6278  -13.7202   20.9394 C   0  0  2  0  0  0  0  0  0  0  0  0
    8.8809  -13.1380   20.3301 C   0  0  0  0  0  0  0  0  0  0  0  0
    7.9322  -15.0829   21.4508 C   0  0  2  0  0  0  0  0  0  0  0  0
    6.7894  -15.6516   22.1085 N   0  0  0  0  0  0  0  0  0  0  0  0
    9.1059  -15.1109   22.3659 C   0  0  0  0  0  0  0  0  0  0  0  0
    8.9736  -14.6914   23.5337 O   0  0  0  0  0  0  0  0  0  0  0  0
   10.3869  -15.5907   21.9946 N   0  0  0  0  0  0  0  0  0  0  0  0
   11.3853  -16.0105   22.9579 C   0  0  1  0  0  0  0  0  0  0  0  0
   10.9543  -17.2352   23.6990 C   0  0  0  0  0  0  0  0  0  0  0  0
   11.9046  -17.7588   24.7036 C   0  0  0  0  0  0  0  0  0  0  0  0
   11.3180  -18.9824   25.4015 C   0  0  0  0  0  0  0  0  0  0  0  0
   12.3010  -19.6318   26.3351 C   0  0  0  0  0  0  0  0  0  0  0  0
   11.6665  -20.8336   26.8479 N   0  0  0  0  0  0  0  0  0  0  0  0
   12.7347  -16.1083   22.3682 C   0  0  0  0  0  0  0  0  0  0  0  0
   12.8917  -16.3572   21.1442 O   0  0  0  0  0  0  0  0  0  0  0  0
   13.9056  -15.9400   23.0862 O   0  0  0  0  0  0  0  0  0  0  0  0
  2  1  1  6
  3  2  1  0
  4  3  1  0
  5  2  1  0
  6  5  2  0
  8  7  1  6
  8 10  1  0
  9  8  1  0
 10 11  1  1
 10 12  1  0
 11  5  1  0
 12 14  1  0
 13 12  2  0
 14 15  1  0
 15 16  1  6
 15 21  1  0
 17 18  1  0
 17 16  1  0
 19 20  1  0
 19 18  1  0
 21 22  2  0
 21 23  1  0
M  END
$$$$
