CVK.pdb
     RDKit          3D

 23 22  0  0  1  0  0  0  0  0999 V2000
    7.4458  -15.2611   20.8787 N   0  0  0  0  0  0  0  0  0  0  0  0
    6.8773  -15.6236   22.1520 C   0  0  1  0  0  0  0  0  0  0  0  0
    6.9058  -17.1097   22.4131 C   0  0  0  0  0  0  0  0  0  0  0  0
    5.8853  -18.0206   21.2272 S   0  0  0  0  0  0  0  0  0  0  0  0
    7.5704  -14.9481   23.2819 C   0  0  0  0  0  0  0  0  0  0  0  0
    8.8235  -14.8393   23.1898 O   0  0  0  0  0  0  0  0  0  0  0  0
    6.1875  -11.8269   25.5897 C   0  0  0  0  0  0  0  0  0  0  0  0
    6.7046  -13.0231   26.3474 C   0  0  2  0  0  0  0  0  0  0  0  0
    7.4834  -12.5243   27.5413 C   0  0  0  0  0  0  0  0  0  0  0  0
    7.5868  -13.8991   25.5318 C   0  0  2  0  0  0  0  0  0  0  0  0
    6.8735  -14.4465   24.4122 N   0  0  0  0  0  0  0  0  0  0  0  0
    8.2043  -14.9990   26.3224 C   0  0  0  0  0  0  0  0  0  0  0  0
    7.5150  -15.9984   26.6109 O   0  0  0  0  0  0  0  0  0  0  0  0
    9.5466  -14.9884   26.7777 N   0  0  0  0  0  0  0  0  0  0  0  0
   10.1655  -16.1164   27.4450 C   0  0  1  0  0  0  0  0  0  0  0  0
   11.2544  -16.7170   26.6154 C   0  0  0  0  0  0  0  0  0  0  0  0
   11.9545  -17.8807   27.2002 C   0  0  0  0  0  0  0  0  0  0  0  0
   13.0066  -18.4094   26.2297 C   0  0  0  0  0  0  0  0  0  0  0  0
   13.7937  -19.5515   26.8092 C   0  0  0  0  0  0  0  0  0  0  0  0
   14.7690  -19.9442   25.8069 N   0  0  0  0  0  0  0  0  0  0  0  0
   10.5679  -15.8032   28.8300 C   0  0  0  0  0  0  0  0  0  0  0  0
   10.6859  -14.6115   29.2180 O   0  0  0  0  0  0  0  0  0  0  0  0
   10.8411  -16.7612   29.7905 O   0  0  0  0  0  0  0  0  0  0  0  0
  2  1  1  6
  3  2  1  0
  4  3  1  0
  5  2  1  0
  6  5  2  0
  8  7  1  6
  8 10  1  0
  9  8  1  0
 10 11  1  6
 10 12  1  0
 11  5  1  0
 12 14  1  0
 13 12  2  0
 14 15  1  0
 15 16  1  6
 15 21  1  0
 17 18  1  0
 17 16  1  0
 19 20  1  0
 19 18  1  0
 21 22  2  0
 21 23  1  0
M  END
$$$$
