CVK.pdb
     RDKit          3D

 23 22  0  0  1  0  0  0  0  0999 V2000
    7.9055  -18.2501   16.9933 N   0  0  0  0  0  0  0  0  0  0  0  0
    7.1862  -17.8475   18.1750 C   0  0  1  0  0  0  0  0  0  0  0  0
    6.7509  -19.0121   19.0303 C   0  0  0  0  0  0  0  0  0  0  0  0
    5.4142  -19.9544   18.2537 S   0  0  0  0  0  0  0  0  0  0  0  0
    7.9888  -16.9298   19.0276 C   0  0  0  0  0  0  0  0  0  0  0  0
    9.2361  -17.1161   19.0370 O   0  0  0  0  0  0  0  0  0  0  0  0
    6.9036  -13.0235   19.7583 C   0  0  0  0  0  0  0  0  0  0  0  0
    7.4474  -13.7772   20.9453 C   0  0  2  0  0  0  0  0  0  0  0  0
    8.3583  -12.8506   21.7150 C   0  0  0  0  0  0  0  0  0  0  0  0
    8.2114  -14.9958   20.5680 C   0  0  2  0  0  0  0  0  0  0  0  0
    7.3980  -15.8934   19.7969 N   0  0  0  0  0  0  0  0  0  0  0  0
    8.7781  -15.7128   21.7431 C   0  0  0  0  0  0  0  0  0  0  0  0
    8.0038  -16.3029   22.5237 O   0  0  0  0  0  0  0  0  0  0  0  0
   10.1626  -15.7723   22.0408 N   0  0  0  0  0  0  0  0  0  0  0  0
   10.7058  -16.5625   23.1276 C   0  0  1  0  0  0  0  0  0  0  0  0
   10.9806  -17.9690   22.7017 C   0  0  0  0  0  0  0  0  0  0  0  0
   11.4706  -18.8857   23.7533 C   0  0  0  0  0  0  0  0  0  0  0  0
   11.6910  -20.2822   23.1790 C   0  0  0  0  0  0  0  0  0  0  0  0
   12.2478  -21.2362   24.1985 C   0  0  0  0  0  0  0  0  0  0  0  0
   12.2059  -22.5612   23.6047 N   0  0  0  0  0  0  0  0  0  0  0  0
   11.8458  -15.9021   23.7928 C   0  0  0  0  0  0  0  0  0  0  0  0
   12.5617  -15.0686   23.1784 O   0  0  0  0  0  0  0  0  0  0  0  0
   12.2140  -16.1341   25.1064 O   0  0  0  0  0  0  0  0  0  0  0  0
  2  1  1  6
  3  2  1  0
  4  3  1  0
  5  2  1  0
  6  5  2  0
  8  7  1  6
  8 10  1  0
  9  8  1  0
 10 11  1  1
 10 12  1  0
 11  5  1  0
 12 14  1  0
 13 12  2  0
 14 15  1  0
 15 16  1  6
 15 21  1  0
 17 18  1  0
 17 16  1  0
 19 20  1  0
 19 18  1  0
 21 22  2  0
 21 23  1  0
M  END
$$$$
