CVK.pdb
     RDKit          3D

 23 22  0  0  1  0  0  0  0  0999 V2000
    4.6306  -18.7834   19.8932 N   0  0  0  0  0  0  0  0  0  0  0  0
    4.6885  -17.6244   20.7472 C   0  0  1  0  0  0  0  0  0  0  0  0
    4.3704  -17.9337   22.1896 C   0  0  0  0  0  0  0  0  0  0  0  0
    2.7405  -18.7010   22.3693 S   0  0  0  0  0  0  0  0  0  0  0  0
    6.0237  -16.9695   20.7044 C   0  0  0  0  0  0  0  0  0  0  0  0
    7.0093  -17.7157   20.4544 O   0  0  0  0  0  0  0  0  0  0  0  0
    7.0577  -13.3685   19.1375 C   0  0  0  0  0  0  0  0  0  0  0  0
    7.4772  -13.5708   20.5713 C   0  0  2  0  0  0  0  0  0  0  0  0
    8.8569  -12.9824   20.7464 C   0  0  0  0  0  0  0  0  0  0  0  0
    7.5111  -15.0009   20.9776 C   0  0  2  0  0  0  0  0  0  0  0  0
    6.1975  -15.5791   20.9308 N   0  0  0  0  0  0  0  0  0  0  0  0
    8.1047  -15.2072   22.3270 C   0  0  0  0  0  0  0  0  0  0  0  0
    7.3569  -15.1955   23.3259 O   0  0  0  0  0  0  0  0  0  0  0  0
    9.4867  -15.4204   22.5587 N   0  0  0  0  0  0  0  0  0  0  0  0
   10.0032  -16.0148   23.7756 C   0  0  1  0  0  0  0  0  0  0  0  0
    9.4657  -17.3939   23.9857 C   0  0  0  0  0  0  0  0  0  0  0  0
    9.9660  -18.1154   25.1755 C   0  0  0  0  0  0  0  0  0  0  0  0
    9.5275  -19.5764   25.1331 C   0  0  0  0  0  0  0  0  0  0  0  0
   10.0437  -20.3606   26.3071 C   0  0  0  0  0  0  0  0  0  0  0  0
    9.3932  -21.6588   26.2672 N   0  0  0  0  0  0  0  0  0  0  0  0
   11.4730  -15.9212   23.8714 C   0  0  0  0  0  0  0  0  0  0  0  0
   12.1954  -15.9762   22.8420 O   0  0  0  0  0  0  0  0  0  0  0  0
   12.1615  -15.7696   25.0622 O   0  0  0  0  0  0  0  0  0  0  0  0
  2  1  1  6
  3  2  1  0
  4  3  1  0
  5  2  1  0
  6  5  2  0
  8  7  1  6
  8 10  1  0
  9  8  1  0
 10 11  1  1
 10 12  1  0
 11  5  1  0
 12 14  1  0
 13 12  2  0
 14 15  1  0
 15 16  1  6
 15 21  1  0
 17 18  1  0
 17 16  1  0
 19 20  1  0
 19 18  1  0
 21 22  2  0
 21 23  1  0
M  END
$$$$
