CVK.pdb
     RDKit          3D

 23 22  0  0  1  0  0  0  0  0999 V2000
    5.0800  -18.4422   19.6317 N   0  0  0  0  0  0  0  0  0  0  0  0
    5.0559  -17.2886   20.4945 C   0  0  1  0  0  0  0  0  0  0  0  0
    4.3894  -17.5544   21.8221 C   0  0  0  0  0  0  0  0  0  0  0  0
    2.6417  -17.9831   21.6235 S   0  0  0  0  0  0  0  0  0  0  0  0
    6.4235  -16.7697   20.7659 C   0  0  0  0  0  0  0  0  0  0  0  0
    7.3223  -17.6306   20.9701 O   0  0  0  0  0  0  0  0  0  0  0  0
    7.4642  -12.5597   21.5447 C   0  0  0  0  0  0  0  0  0  0  0  0
    8.1952  -13.4883   20.6087 C   0  0  2  0  0  0  0  0  0  0  0  0
    7.6335  -13.2961   19.2201 C   0  0  0  0  0  0  0  0  0  0  0  0
    8.0665  -14.9215   20.9834 C   0  0  2  0  0  0  0  0  0  0  0  0
    6.7191  -15.3818   20.7974 N   0  0  0  0  0  0  0  0  0  0  0  0
    8.5055  -15.1986   22.3785 C   0  0  0  0  0  0  0  0  0  0  0  0
    7.6580  -15.1842   23.2944 O   0  0  0  0  0  0  0  0  0  0  0  0
    9.8450  -15.4834   22.7441 N   0  0  0  0  0  0  0  0  0  0  0  0
   10.2033  -16.1602   23.9747 C   0  0  1  0  0  0  0  0  0  0  0  0
    9.6670  -17.5552   24.0120 C   0  0  0  0  0  0  0  0  0  0  0  0
    9.9700  -18.3390   25.2285 C   0  0  0  0  0  0  0  0  0  0  0  0
    9.4701  -19.7724   25.0742 C   0  0  0  0  0  0  0  0  0  0  0  0
    9.8548  -20.6388   26.2409 C   0  0  0  0  0  0  0  0  0  0  0  0
    9.4582  -21.9961   25.9083 N   0  0  0  0  0  0  0  0  0  0  0  0
   11.6449  -16.0621   24.2755 C   0  0  0  0  0  0  0  0  0  0  0  0
   12.0889  -16.3351   25.4213 O   0  0  0  0  0  0  0  0  0  0  0  0
   12.6018  -15.6744   23.3540 O   0  0  0  0  0  0  0  0  0  0  0  0
  2  1  1  6
  3  2  1  0
  4  3  1  0
  5  2  1  0
  6  5  2  0
  8  7  1  1
  8 10  1  0
  9  8  1  0
 10 11  1  1
 10 12  1  0
 11  5  1  0
 12 14  1  0
 13 12  2  0
 14 15  1  0
 15 16  1  6
 15 21  1  0
 17 18  1  0
 17 16  1  0
 19 20  1  0
 19 18  1  0
 21 22  2  0
 21 23  1  0
M  END
$$$$
