YVV.pdb
     RDKit          3D

 27 27  0  0  1  0  0  0  0  0999 V2000
   11.7542  -15.6696   32.6927 O   0  0  0  0  0  0  0  0  0  0  0  0
   11.3474  -15.7645   31.3723 C   0  0  0  0  0  0  0  0  0  0  0  0
   11.6683  -16.9255   30.7001 C   0  0  0  0  0  0  0  0  0  0  0  0
   11.2840  -17.0660   29.3824 C   0  0  0  0  0  0  0  0  0  0  0  0
   10.5818  -16.0498   28.7395 C   0  0  0  0  0  0  0  0  0  0  0  0
   10.1975  -16.2491   27.3402 C   0  0  0  0  0  0  0  0  0  0  0  0
    8.7249  -16.5075   27.1713 C   0  0  2  0  0  0  0  0  0  0  0  0
    8.3533  -17.8479   27.5751 N   0  0  0  0  0  0  0  0  0  0  0  0
    8.2744  -16.3167   25.7757 C   0  0  0  0  0  0  0  0  0  0  0  0
    8.0185  -17.3854   25.1253 O   0  0  0  0  0  0  0  0  0  0  0  0
   10.2559  -14.8847   29.4026 C   0  0  0  0  0  0  0  0  0  0  0  0
   10.6543  -14.7754   30.7183 C   0  0  0  0  0  0  0  0  0  0  0  0
    8.2370  -12.6348   23.6511 C   0  0  0  0  0  0  0  0  0  0  0  0
    7.0643  -13.6066   23.5589 C   0  0  2  0  0  0  0  0  0  0  0  0
    6.0785  -13.2329   24.6333 C   0  0  0  0  0  0  0  0  0  0  0  0
    7.5511  -15.0321   23.7801 C   0  0  2  0  0  0  0  0  0  0  0  0
    8.1150  -15.0962   25.1427 N   0  0  0  0  0  0  0  0  0  0  0  0
    8.7079  -15.3297   22.8956 C   0  0  0  0  0  0  0  0  0  0  0  0
    9.8600  -14.8470   23.1528 O   0  0  0  0  0  0  0  0  0  0  0  0
   11.3006  -18.3214   20.2257 C   0  0  0  0  0  0  0  0  0  0  0  0
   10.0595  -17.9569   21.0313 C   0  0  2  0  0  0  0  0  0  0  0  0
    8.9118  -18.7305   20.4454 C   0  0  0  0  0  0  0  0  0  0  0  0
    9.8247  -16.4619   20.9922 C   0  0  2  0  0  0  0  0  0  0  0  0
    8.6117  -16.1443   21.7508 N   0  0  0  0  0  0  0  0  0  0  0  0
    9.6851  -16.0628   19.5758 C   0  0  0  0  0  0  0  0  0  0  0  0
   10.8094  -15.9823   18.7696 O   0  0  0  0  0  0  0  0  0  0  0  0
    8.5698  -15.7902   19.0688 O   0  0  0  0  0  0  0  0  0  0  0  0
  2 12  2  0
  2  1  1  0
  3  2  1  0
  4  3  2  0
  5  4  1  0
  5 11  2  0
  6  5  1  0
  7  9  1  0
  7  6  1  0
  7  8  1  6
  9 10  2  0
 11 12  1  0
 14 13  1  1
 15 14  1  0
 16 14  1  0
 16 17  1  1
 17  9  1  0
 18 24  1  0
 18 16  1  0
 19 18  2  0
 21 23  1  0
 21 20  1  6
 22 21  1  0
 23 24  1  1
 25 23  1  0
 25 26  1  0
 27 25  2  0
M  END
$$$$
