YVV.pdb
     RDKit          3D

 27 27  0  0  1  0  0  0  0  0999 V2000
    7.6614  -22.4935   30.2671 O   0  0  0  0  0  0  0  0  0  0  0  0
    7.6800  -21.4568   29.3490 C   0  0  0  0  0  0  0  0  0  0  0  0
    6.5978  -21.3526   28.5003 C   0  0  0  0  0  0  0  0  0  0  0  0
    6.5714  -20.3353   27.5684 C   0  0  0  0  0  0  0  0  0  0  0  0
    7.6229  -19.4261   27.4857 C   0  0  0  0  0  0  0  0  0  0  0  0
    7.5458  -18.3650   26.4789 C   0  0  0  0  0  0  0  0  0  0  0  0
    7.3994  -18.8987   25.0797 C   0  0  2  0  0  0  0  0  0  0  0  0
    8.1420  -20.1262   24.8804 N   0  0  0  0  0  0  0  0  0  0  0  0
    7.8478  -17.9302   24.0561 C   0  0  0  0  0  0  0  0  0  0  0  0
    9.0424  -18.0855   23.6322 O   0  0  0  0  0  0  0  0  0  0  0  0
    8.7100  -19.5215   28.3299 C   0  0  0  0  0  0  0  0  0  0  0  0
    8.7058  -20.5489   29.2496 C   0  0  0  0  0  0  0  0  0  0  0  0
    6.2148  -16.3095   20.7406 C   0  0  0  0  0  0  0  0  0  0  0  0
    6.6166  -15.2881   21.8005 C   0  0  2  0  0  0  0  0  0  0  0  0
    7.1321  -14.0686   21.0845 C   0  0  0  0  0  0  0  0  0  0  0  0
    7.7102  -15.8638   22.6897 C   0  0  2  0  0  0  0  0  0  0  0  0
    7.0859  -16.8965   23.5396 N   0  0  0  0  0  0  0  0  0  0  0  0
    8.1874  -14.8402   23.6559 C   0  0  0  0  0  0  0  0  0  0  0  0
    9.0616  -13.9796   23.3076 O   0  0  0  0  0  0  0  0  0  0  0  0
    6.0858  -12.3833   25.3675 C   0  0  0  0  0  0  0  0  0  0  0  0
    6.9811  -12.9673   26.4535 C   0  0  2  0  0  0  0  0  0  0  0  0
    7.3784  -11.8315   27.3542 C   0  0  0  0  0  0  0  0  0  0  0  0
    8.1788  -13.6573   25.8360 C   0  0  2  0  0  0  0  0  0  0  0  0
    7.7158  -14.7531   24.9801 N   0  0  0  0  0  0  0  0  0  0  0  0
    9.0259  -14.1642   26.9363 C   0  0  0  0  0  0  0  0  0  0  0  0
    9.2631  -15.5247   27.0514 O   0  0  0  0  0  0  0  0  0  0  0  0
    9.5457  -13.3969   27.7825 O   0  0  0  0  0  0  0  0  0  0  0  0
  2 12  2  0
  2  1  1  0
  3  2  1  0
  4  3  2  0
  5  4  1  0
  5 11  2  0
  6  5  1  0
  7  9  1  0
  7  6  1  0
  7  8  1  1
  9 10  2  0
 11 12  1  0
 14 13  1  6
 15 14  1  0
 16 14  1  0
 16 17  1  1
 17  9  1  0
 18 24  1  0
 18 16  1  0
 19 18  2  0
 21 23  1  0
 21 20  1  6
 22 21  1  0
 23 24  1  6
 25 23  1  0
 25 26  1  0
 27 25  2  0
M  END
$$$$
