YVV.pdb
     RDKit          3D

 27 27  0  0  1  0  0  0  0  0999 V2000
    2.7715  -23.8235   23.7313 O   0  0  0  0  0  0  0  0  0  0  0  0
    3.6390  -22.7647   23.9426 C   0  0  0  0  0  0  0  0  0  0  0  0
    4.8233  -23.0456   24.5916 C   0  0  0  0  0  0  0  0  0  0  0  0
    5.7196  -22.0228   24.8248 C   0  0  0  0  0  0  0  0  0  0  0  0
    5.4327  -20.7245   24.4107 C   0  0  0  0  0  0  0  0  0  0  0  0
    6.4179  -19.6753   24.6827 C   0  0  0  0  0  0  0  0  0  0  0  0
    7.0630  -19.1431   23.4319 C   0  0  2  0  0  0  0  0  0  0  0  0
    7.8703  -20.1426   22.7632 N   0  0  0  0  0  0  0  0  0  0  0  0
    7.9253  -17.9711   23.6958 C   0  0  0  0  0  0  0  0  0  0  0  0
    9.1495  -18.2302   23.9505 O   0  0  0  0  0  0  0  0  0  0  0  0
    4.2511  -20.4329   23.7608 C   0  0  0  0  0  0  0  0  0  0  0  0
    3.3770  -21.4771   23.5431 C   0  0  0  0  0  0  0  0  0  0  0  0
    6.6855  -13.8300   23.9242 C   0  0  0  0  0  0  0  0  0  0  0  0
    7.9466  -14.3216   23.2198 C   0  0  2  0  0  0  0  0  0  0  0  0
    7.5733  -14.6572   21.8007 C   0  0  0  0  0  0  0  0  0  0  0  0
    8.4823  -15.5636   23.9187 C   0  0  2  0  0  0  0  0  0  0  0  0
    7.5110  -16.6505   23.6867 N   0  0  0  0  0  0  0  0  0  0  0  0
    8.4705  -15.3766   25.3931 C   0  0  0  0  0  0  0  0  0  0  0  0
    7.3887  -15.5150   26.0541 O   0  0  0  0  0  0  0  0  0  0  0  0
   11.9214  -14.2277   27.7075 C   0  0  0  0  0  0  0  0  0  0  0  0
   10.8275  -15.1441   28.2420 C   0  0  2  0  0  0  0  0  0  0  0  0
   11.2715  -16.5566   27.9833 C   0  0  0  0  0  0  0  0  0  0  0  0
    9.5032  -14.8276   27.5804 C   0  0  2  0  0  0  0  0  0  0  0  0
    9.6207  -15.0480   26.1363 N   0  0  0  0  0  0  0  0  0  0  0  0
    9.1747  -13.4173   27.8774 C   0  0  0  0  0  0  0  0  0  0  0  0
    8.7627  -13.0604   29.1515 O   0  0  0  0  0  0  0  0  0  0  0  0
    9.2562  -12.5180   27.0058 O   0  0  0  0  0  0  0  0  0  0  0  0
  2 12  2  0
  2  1  1  0
  3  2  1  0
  4  3  2  0
  5  4  1  0
  5 11  2  0
  6  5  1  0
  7  9  1  0
  7  6  1  0
  7  8  1  1
  9 10  2  0
 11 12  1  0
 14 13  1  1
 15 14  1  0
 16 14  1  0
 16 17  1  1
 17  9  1  0
 18 24  1  0
 18 16  1  0
 19 18  2  0
 21 23  1  0
 21 20  1  6
 22 21  1  0
 23 24  1  6
 25 23  1  0
 25 26  1  0
 27 25  2  0
M  END
$$$$
