YVV.pdb
     RDKit          3D

 27 27  0  0  1  0  0  0  0  0999 V2000
   10.9549  -14.9599   32.3371 O   0  0  0  0  0  0  0  0  0  0  0  0
   10.6290  -15.3555   31.0505 C   0  0  0  0  0  0  0  0  0  0  0  0
   10.8526  -16.6775   30.7263 C   0  0  0  0  0  0  0  0  0  0  0  0
   10.5434  -17.1184   29.4560 C   0  0  0  0  0  0  0  0  0  0  0  0
   10.0129  -16.2410   28.5137 C   0  0  0  0  0  0  0  0  0  0  0  0
    9.7021  -16.7597   27.1795 C   0  0  0  0  0  0  0  0  0  0  0  0
    8.2231  -16.8853   26.9330 C   0  0  2  0  0  0  0  0  0  0  0  0
    7.7436  -18.2347   27.1499 N   0  0  0  0  0  0  0  0  0  0  0  0
    7.8437  -16.4880   25.5600 C   0  0  0  0  0  0  0  0  0  0  0  0
    7.6613  -17.4468   24.7364 O   0  0  0  0  0  0  0  0  0  0  0  0
    9.7854  -14.9169   28.8276 C   0  0  0  0  0  0  0  0  0  0  0  0
   10.1050  -14.5080   30.1053 C   0  0  0  0  0  0  0  0  0  0  0  0
    6.5709  -13.0318   22.2410 C   0  0  0  0  0  0  0  0  0  0  0  0
    6.7810  -13.4564   23.6914 C   0  0  2  0  0  0  0  0  0  0  0  0
    7.8820  -12.6022   24.2603 C   0  0  0  0  0  0  0  0  0  0  0  0
    7.1846  -14.9233   23.7508 C   0  0  2  0  0  0  0  0  0  0  0  0
    7.6771  -15.1874   25.1170 N   0  0  0  0  0  0  0  0  0  0  0  0
    8.3670  -15.1728   22.8856 C   0  0  0  0  0  0  0  0  0  0  0  0
    9.4920  -14.6371   23.1571 O   0  0  0  0  0  0  0  0  0  0  0  0
    8.6701  -18.4469   20.3649 C   0  0  0  0  0  0  0  0  0  0  0  0
    9.8695  -17.6599   20.8788 C   0  0  2  0  0  0  0  0  0  0  0  0
   10.2265  -18.2298   22.2230 C   0  0  0  0  0  0  0  0  0  0  0  0
    9.5418  -16.1836   20.9490 C   0  0  2  0  0  0  0  0  0  0  0  0
    8.3252  -15.9970   21.7443 N   0  0  0  0  0  0  0  0  0  0  0  0
    9.3528  -15.6958   19.5665 C   0  0  0  0  0  0  0  0  0  0  0  0
   10.4555  -15.4888   18.7531 O   0  0  0  0  0  0  0  0  0  0  0  0
    8.2140  -15.4588   19.0951 O   0  0  0  0  0  0  0  0  0  0  0  0
  2 12  2  0
  2  1  1  0
  3  2  1  0
  4  3  2  0
  5  4  1  0
  5 11  2  0
  6  5  1  0
  7  9  1  0
  7  6  1  0
  7  8  1  6
  9 10  2  0
 11 12  1  0
 14 13  1  6
 15 14  1  0
 16 14  1  0
 16 17  1  1
 17  9  1  0
 18 24  1  0
 18 16  1  0
 19 18  2  0
 21 23  1  0
 21 20  1  1
 22 21  1  0
 23 24  1  1
 25 23  1  0
 25 26  1  0
 27 25  2  0
M  END
$$$$
