YVV.pdb
     RDKit          3D

 27 27  0  0  1  0  0  0  0  0999 V2000
   12.2112  -16.7579   32.8260 O   0  0  0  0  0  0  0  0  0  0  0  0
   11.7231  -16.6732   31.5327 C   0  0  0  0  0  0  0  0  0  0  0  0
   11.0331  -15.5268   31.1977 C   0  0  0  0  0  0  0  0  0  0  0  0
   10.5277  -15.3969   29.9203 C   0  0  0  0  0  0  0  0  0  0  0  0
   10.7116  -16.4092   28.9819 C   0  0  0  0  0  0  0  0  0  0  0  0
   10.1551  -16.2216   27.6401 C   0  0  0  0  0  0  0  0  0  0  0  0
    8.6812  -16.5167   27.5739 C   0  0  2  0  0  0  0  0  0  0  0  0
    8.3960  -17.9266   27.7431 N   0  0  0  0  0  0  0  0  0  0  0  0
    8.0756  -16.0852   26.2956 C   0  0  0  0  0  0  0  0  0  0  0  0
    7.6849  -17.0240   25.5231 O   0  0  0  0  0  0  0  0  0  0  0  0
   11.4002  -17.5598   29.3067 C   0  0  0  0  0  0  0  0  0  0  0  0
   11.8924  -17.6587   30.5911 C   0  0  0  0  0  0  0  0  0  0  0  0
    7.9234  -12.0927   24.9644 C   0  0  0  0  0  0  0  0  0  0  0  0
    6.7594  -13.0338   24.6685 C   0  0  2  0  0  0  0  0  0  0  0  0
    5.7650  -12.8935   25.7898 C   0  0  0  0  0  0  0  0  0  0  0  0
    7.2571  -14.4709   24.5986 C   0  0  2  0  0  0  0  0  0  0  0  0
    7.9071  -14.7730   25.8889 N   0  0  0  0  0  0  0  0  0  0  0  0
    8.3542  -14.5935   23.6034 C   0  0  0  0  0  0  0  0  0  0  0  0
    9.3039  -13.7427   23.5795 O   0  0  0  0  0  0  0  0  0  0  0  0
   11.5371  -16.9137   20.9466 C   0  0  0  0  0  0  0  0  0  0  0  0
   10.4382  -16.8080   21.9971 C   0  0  2  0  0  0  0  0  0  0  0  0
    9.7135  -18.1248   22.0098 C   0  0  0  0  0  0  0  0  0  0  0  0
    9.5174  -15.6481   21.6833 C   0  0  2  0  0  0  0  0  0  0  0  0
    8.4177  -15.6297   22.6518 N   0  0  0  0  0  0  0  0  0  0  0  0
    9.0102  -15.8325   20.3072 C   0  0  0  0  0  0  0  0  0  0  0  0
    9.8326  -15.5526   19.2275 O   0  0  0  0  0  0  0  0  0  0  0  0
    7.8454  -16.2391   20.0769 O   0  0  0  0  0  0  0  0  0  0  0  0
  2 12  2  0
  2  1  1  0
  3  2  1  0
  4  3  2  0
  5  4  1  0
  5 11  2  0
  6  5  1  0
  7  9  1  0
  7  6  1  0
  7  8  1  6
  9 10  2  0
 11 12  1  0
 14 13  1  1
 15 14  1  0
 16 14  1  0
 16 17  1  1
 17  9  1  0
 18 24  1  0
 18 16  1  0
 19 18  2  0
 21 23  1  0
 21 20  1  6
 22 21  1  0
 23 24  1  1
 25 23  1  0
 25 26  1  0
 27 25  2  0
M  END
$$$$
