YVV.pdb
     RDKit          3D

 27 27  0  0  1  0  0  0  0  0999 V2000
   -0.8938  -20.5676   21.3501 O   0  0  0  0  0  0  0  0  0  0  0  0
    0.3436  -19.9564   21.4660 C   0  0  0  0  0  0  0  0  0  0  0  0
    1.2477  -20.5325   22.3339 C   0  0  0  0  0  0  0  0  0  0  0  0
    2.4938  -19.9591   22.4828 C   0  0  0  0  0  0  0  0  0  0  0  0
    2.8344  -18.8144   21.7667 C   0  0  0  0  0  0  0  0  0  0  0  0
    4.1701  -18.2454   21.9612 C   0  0  0  0  0  0  0  0  0  0  0  0
    4.8819  -17.9724   20.6640 C   0  0  2  0  0  0  0  0  0  0  0  0
    5.1309  -19.1835   19.9096 N   0  0  0  0  0  0  0  0  0  0  0  0
    6.1796  -17.2921   20.8642 C   0  0  0  0  0  0  0  0  0  0  0  0
    7.2129  -18.0393   20.7970 O   0  0  0  0  0  0  0  0  0  0  0  0
    1.9376  -18.2303   20.8960 C   0  0  0  0  0  0  0  0  0  0  0  0
    0.7011  -18.8276   20.7700 C   0  0  0  0  0  0  0  0  0  0  0  0
    7.1348  -13.4486   19.7720 C   0  0  0  0  0  0  0  0  0  0  0  0
    7.5711  -13.8593   21.1752 C   0  0  2  0  0  0  0  0  0  0  0  0
    8.9056  -13.2166   21.4428 C   0  0  0  0  0  0  0  0  0  0  0  0
    7.7037  -15.3739   21.2564 C   0  0  2  0  0  0  0  0  0  0  0  0
    6.3485  -15.9409   21.1122 N   0  0  0  0  0  0  0  0  0  0  0  0
    8.1251  -15.7867   22.6205 C   0  0  0  0  0  0  0  0  0  0  0  0
    7.4423  -15.4414   23.6408 O   0  0  0  0  0  0  0  0  0  0  0  0
   11.1469  -18.6493   23.3851 C   0  0  0  0  0  0  0  0  0  0  0  0
   10.0550  -18.2936   24.3868 C   0  0  2  0  0  0  0  0  0  0  0  0
    8.8980  -19.2160   24.1224 C   0  0  0  0  0  0  0  0  0  0  0  0
    9.6700  -16.8356   24.2530 C   0  0  2  0  0  0  0  0  0  0  0  0
    9.2707  -16.5674   22.8688 N   0  0  0  0  0  0  0  0  0  0  0  0
   10.8430  -16.0212   24.6348 C   0  0  0  0  0  0  0  0  0  0  0  0
   11.1565  -15.8517   25.9740 O   0  0  0  0  0  0  0  0  0  0  0  0
   11.5761  -15.4692   23.7787 O   0  0  0  0  0  0  0  0  0  0  0  0
  2 12  2  0
  2  1  1  0
  3  2  1  0
  4  3  2  0
  5  4  1  0
  5 11  2  0
  6  5  1  0
  7  9  1  0
  7  6  1  0
  7  8  1  1
  9 10  2  0
 11 12  1  0
 14 13  1  6
 15 14  1  0
 16 14  1  0
 16 17  1  1
 17  9  1  0
 18 24  1  0
 18 16  1  0
 19 18  2  0
 21 23  1  0
 21 20  1  6
 22 21  1  0
 23 24  1  6
 25 23  1  0
 25 26  1  0
 27 25  2  0
M  END
$$$$
