YVV.pdb
     RDKit          3D

 27 27  0  0  1  0  0  0  0  0999 V2000
    7.8103  -21.0264   17.7747 O   0  0  0  0  0  0  0  0  0  0  0  0
    8.2319  -20.1357   18.7478 C   0  0  0  0  0  0  0  0  0  0  0  0
    7.4340  -20.0054   19.8654 C   0  0  0  0  0  0  0  0  0  0  0  0
    7.8131  -19.1298   20.8621 C   0  0  0  0  0  0  0  0  0  0  0  0
    8.9851  -18.3876   20.7417 C   0  0  0  0  0  0  0  0  0  0  0  0
    9.3421  -17.4723   21.8281 C   0  0  0  0  0  0  0  0  0  0  0  0
    8.8950  -16.0590   21.5701 C   0  0  2  0  0  0  0  0  0  0  0  0
    9.6494  -15.4308   20.5052 N   0  0  0  0  0  0  0  0  0  0  0  0
    9.0108  -15.2020   22.7698 C   0  0  0  0  0  0  0  0  0  0  0  0
   10.1354  -14.6180   22.9268 O   0  0  0  0  0  0  0  0  0  0  0  0
    9.7903  -18.5104   19.6281 C   0  0  0  0  0  0  0  0  0  0  0  0
    9.3835  -19.3937   18.6503 C   0  0  0  0  0  0  0  0  0  0  0  0
    6.4488  -12.5091   24.4473 C   0  0  0  0  0  0  0  0  0  0  0  0
    6.9281  -13.6234   25.3728 C   0  0  2  0  0  0  0  0  0  0  0  0
    7.0740  -13.0379   26.7518 C   0  0  0  0  0  0  0  0  0  0  0  0
    8.2722  -14.1550   24.8944 C   0  0  2  0  0  0  0  0  0  0  0  0
    8.0145  -14.9942   23.7078 N   0  0  0  0  0  0  0  0  0  0  0  0
    8.8415  -15.1008   25.8896 C   0  0  0  0  0  0  0  0  0  0  0  0
    8.5080  -16.3316   25.8768 O   0  0  0  0  0  0  0  0  0  0  0  0
   12.1120  -16.0870   29.4913 C   0  0  0  0  0  0  0  0  0  0  0  0
   11.5240  -15.0765   28.5139 C   0  0  2  0  0  0  0  0  0  0  0  0
   10.9287  -13.9663   29.3339 C   0  0  0  0  0  0  0  0  0  0  0  0
   10.5007  -15.7418   27.6182 C   0  0  2  0  0  0  0  0  0  0  0  0
    9.7633  -14.7121   26.8809 N   0  0  0  0  0  0  0  0  0  0  0  0
    9.5939  -16.5325   28.4768 C   0  0  0  0  0  0  0  0  0  0  0  0
    8.3086  -16.0770   28.7234 O   0  0  0  0  0  0  0  0  0  0  0  0
    9.9500  -17.6171   28.9985 O   0  0  0  0  0  0  0  0  0  0  0  0
  2 12  2  0
  2  1  1  0
  3  2  1  0
  4  3  2  0
  5  4  1  0
  5 11  2  0
  6  5  1  0
  7  9  1  0
  7  6  1  0
  7  8  1  6
  9 10  2  0
 11 12  1  0
 14 13  1  6
 15 14  1  0
 16 14  1  0
 16 17  1  6
 17  9  1  0
 18 24  1  0
 18 16  1  0
 19 18  2  0
 21 23  1  0
 21 20  1  1
 22 21  1  0
 23 24  1  1
 25 23  1  0
 25 26  1  0
 27 25  2  0
M  END
$$$$
