YVV.pdb
     RDKit          3D

 27 27  0  0  1  0  0  0  0  0999 V2000
    7.5512  -22.8560   29.4044 O   0  0  0  0  0  0  0  0  0  0  0  0
    7.5087  -21.7095   28.6287 C   0  0  0  0  0  0  0  0  0  0  0  0
    6.4467  -21.5818   27.7577 C   0  0  0  0  0  0  0  0  0  0  0  0
    6.3615  -20.4564   26.9640 C   0  0  0  0  0  0  0  0  0  0  0  0
    7.3341  -19.4628   27.0409 C   0  0  0  0  0  0  0  0  0  0  0  0
    7.1967  -18.2882   26.1766 C   0  0  0  0  0  0  0  0  0  0  0  0
    7.3865  -18.6115   24.7194 C   0  0  2  0  0  0  0  0  0  0  0  0
    8.1997  -19.7936   24.5213 N   0  0  0  0  0  0  0  0  0  0  0  0
    8.0162  -17.5016   23.9720 C   0  0  0  0  0  0  0  0  0  0  0  0
    9.2677  -17.6235   23.7495 O   0  0  0  0  0  0  0  0  0  0  0  0
    8.4003  -19.5807   27.9087 C   0  0  0  0  0  0  0  0  0  0  0  0
    8.4563  -20.7171   28.6879 C   0  0  0  0  0  0  0  0  0  0  0  0
    5.9333  -14.1361   22.5142 C   0  0  0  0  0  0  0  0  0  0  0  0
    7.1861  -14.6586   21.8174 C   0  0  2  0  0  0  0  0  0  0  0  0
    6.7500  -15.6882   20.8097 C   0  0  0  0  0  0  0  0  0  0  0  0
    8.1195  -15.2983   22.8361 C   0  0  2  0  0  0  0  0  0  0  0  0
    7.3634  -16.3721   23.5098 N   0  0  0  0  0  0  0  0  0  0  0  0
    8.4349  -14.3391   23.9267 C   0  0  0  0  0  0  0  0  0  0  0  0
    8.9194  -13.1904   23.6580 O   0  0  0  0  0  0  0  0  0  0  0  0
    5.9736  -13.1893   26.6527 C   0  0  0  0  0  0  0  0  0  0  0  0
    7.2790  -12.5681   26.1709 C   0  0  2  0  0  0  0  0  0  0  0  0
    7.0550  -12.1160   24.7551 C   0  0  0  0  0  0  0  0  0  0  0  0
    8.4119  -13.5660   26.2833 C   0  0  2  0  0  0  0  0  0  0  0  0
    8.2217  -14.6256   25.2890 N   0  0  0  0  0  0  0  0  0  0  0  0
    8.3959  -14.1159   27.6553 C   0  0  0  0  0  0  0  0  0  0  0  0
    8.6299  -13.2791   28.7348 O   0  0  0  0  0  0  0  0  0  0  0  0
    8.1751  -15.3304   27.8821 O   0  0  0  0  0  0  0  0  0  0  0  0
  2 12  2  0
  2  1  1  0
  3  2  1  0
  4  3  2  0
  5  4  1  0
  5 11  2  0
  6  5  1  0
  7  9  1  0
  7  6  1  0
  7  8  1  1
  9 10  2  0
 11 12  1  0
 14 13  1  1
 15 14  1  0
 16 14  1  0
 16 17  1  1
 17  9  1  0
 18 24  1  0
 18 16  1  0
 19 18  2  0
 21 23  1  0
 21 20  1  6
 22 21  1  0
 23 24  1  6
 25 23  1  0
 25 26  1  0
 27 25  2  0
M  END
$$$$
