YVV.pdb
     RDKit          3D

 27 27  0  0  1  0  0  0  0  0999 V2000
    6.9550  -11.8650   27.7027 O   0  0  0  0  0  0  0  0  0  0  0  0
    6.7626  -13.2010   27.3926 C   0  0  0  0  0  0  0  0  0  0  0  0
    7.7408  -14.0850   27.7978 C   0  0  0  0  0  0  0  0  0  0  0  0
    7.5931  -15.4267   27.5114 C   0  0  0  0  0  0  0  0  0  0  0  0
    6.4718  -15.8824   26.8227 C   0  0  0  0  0  0  0  0  0  0  0  0
    6.3635  -17.3163   26.5440 C   0  0  0  0  0  0  0  0  0  0  0  0
    6.0720  -17.6083   25.0970 C   0  0  2  0  0  0  0  0  0  0  0  0
    5.7383  -19.0001   24.8748 N   0  0  0  0  0  0  0  0  0  0  0  0
    7.2084  -17.2712   24.2128 C   0  0  0  0  0  0  0  0  0  0  0  0
    8.0089  -18.2306   23.9495 O   0  0  0  0  0  0  0  0  0  0  0  0
    5.4877  -15.0065   26.4130 C   0  0  0  0  0  0  0  0  0  0  0  0
    5.6652  -13.6727   26.7146 C   0  0  0  0  0  0  0  0  0  0  0  0
    7.1995  -14.8508   20.9899 C   0  0  0  0  0  0  0  0  0  0  0  0
    8.3528  -14.5784   21.9510 C   0  0  2  0  0  0  0  0  0  0  0  0
    9.5647  -14.2433   21.1236 C   0  0  0  0  0  0  0  0  0  0  0  0
    8.6309  -15.8155   22.7938 C   0  0  2  0  0  0  0  0  0  0  0  0
    7.4585  -16.0246   23.6658 N   0  0  0  0  0  0  0  0  0  0  0  0
    9.7459  -15.5586   23.7424 C   0  0  0  0  0  0  0  0  0  0  0  0
   10.8397  -15.0472   23.3319 O   0  0  0  0  0  0  0  0  0  0  0  0
    9.8262  -13.0847   26.2676 C   0  0  0  0  0  0  0  0  0  0  0  0
   10.1732  -14.3829   26.9863 C   0  0  2  0  0  0  0  0  0  0  0  0
   11.1488  -14.0355   28.0757 C   0  0  0  0  0  0  0  0  0  0  0  0
   10.7376  -15.3927   26.0098 C   0  0  2  0  0  0  0  0  0  0  0  0
    9.6687  -15.8506   25.1179 N   0  0  0  0  0  0  0  0  0  0  0  0
   11.2944  -16.5164   26.7923 C   0  0  0  0  0  0  0  0  0  0  0  0
   12.4106  -16.3142   27.5882 O   0  0  0  0  0  0  0  0  0  0  0  0
   10.7863  -17.6636   26.7620 O   0  0  0  0  0  0  0  0  0  0  0  0
  2 12  2  0
  2  1  1  0
  3  2  1  0
  4  3  2  0
  5  4  1  0
  5 11  2  0
  6  5  1  0
  7  9  1  0
  7  6  1  0
  7  8  1  1
  9 10  2  0
 11 12  1  0
 14 13  1  6
 15 14  1  0
 16 14  1  0
 16 17  1  1
 17  9  1  0
 18 24  1  0
 18 16  1  0
 19 18  2  0
 21 23  1  0
 21 20  1  6
 22 21  1  0
 23 24  1  6
 25 23  1  0
 25 26  1  0
 27 25  2  0
M  END
$$$$
