IIT.pdb
     RDKit          3D

 24 23  0  0  1  0  0  0  0  0999 V2000
    5.9549  -18.2571   19.3853 C   0  0  0  0  0  0  0  0  0  0  0  0
    6.0801  -16.7858   19.6905 C   0  0  0  0  0  0  0  0  0  0  0  0
    6.8993  -16.4671   20.9012 C   0  0  2  0  0  0  0  0  0  0  0  0
    6.7062  -17.4795   22.0112 C   0  0  0  0  0  0  0  0  0  0  0  0
    7.0028  -15.0602   21.3225 C   0  0  2  0  0  0  0  0  0  0  0  0
    7.4457  -14.3021   20.1368 N   0  0  0  0  0  0  0  0  0  0  0  0
    7.8041  -14.7305   22.4941 C   0  0  0  0  0  0  0  0  0  0  0  0
    9.0580  -14.6507   22.3996 O   0  0  0  0  0  0  0  0  0  0  0  0
    5.9543  -11.3179   26.2779 C   0  0  0  0  0  0  0  0  0  0  0  0
    6.8990  -12.0706   25.3938 C   0  0  0  0  0  0  0  0  0  0  0  0
    7.2676  -13.4287   25.9738 C   0  0  2  0  0  0  0  0  0  0  0  0
    7.9621  -13.2701   27.3009 C   0  0  0  0  0  0  0  0  0  0  0  0
    8.1214  -14.2077   24.9670 C   0  0  2  0  0  0  0  0  0  0  0  0
    7.2762  -14.4816   23.7857 N   0  0  0  0  0  0  0  0  0  0  0  0
    8.4462  -15.5342   25.5280 C   0  0  0  0  0  0  0  0  0  0  0  0
    7.4628  -16.2723   25.8943 O   0  0  0  0  0  0  0  0  0  0  0  0
   12.1246  -17.3668   25.0486 C   0  0  0  0  0  0  0  0  0  0  0  0
   10.8277  -18.1692   25.0124 C   0  0  1  0  0  0  0  0  0  0  0  0
   11.1187  -19.4814   25.3510 O   0  0  0  0  0  0  0  0  0  0  0  0
    9.8911  -17.5111   26.0089 C   0  0  2  0  0  0  0  0  0  0  0  0
    9.7241  -16.0933   25.7068 N   0  0  0  0  0  0  0  0  0  0  0  0
   10.5043  -17.6301   27.3445 C   0  0  0  0  0  0  0  0  0  0  0  0
   10.6582  -18.7441   27.9005 O   0  0  0  0  0  0  0  0  0  0  0  0
   10.9433  -16.4931   28.0518 O   0  0  0  0  0  0  0  0  0  0  0  0
  1  2  1  0
  3  2  1  0
  3  4  1  1
  5  6  1  6
  5  3  1  0
  7  8  2  0
  7  5  1  0
 10  9  1  0
 11 12  1  1
 11 10  1  0
 13 14  1  6
 13 11  1  0
 14  7  1  0
 15 13  1  0
 16 15  2  0
 18 17  1  1
 18 19  1  0
 20 18  1  0
 20 21  1  6
 21 15  1  0
 22 20  1  0
 23 22  2  0
 24 22  1  0
M  END
$$$$
