IIT.pdb
     RDKit          3D

 24 23  0  0  1  0  0  0  0  0999 V2000
    6.4965  -18.4938   19.3761 C   0  0  0  0  0  0  0  0  0  0  0  0
    6.4350  -17.0453   19.7904 C   0  0  0  0  0  0  0  0  0  0  0  0
    7.2993  -16.6935   20.9599 C   0  0  2  0  0  0  0  0  0  0  0  0
    7.4155  -17.8304   21.9540 C   0  0  0  0  0  0  0  0  0  0  0  0
    7.1785  -15.3437   21.5352 C   0  0  2  0  0  0  0  0  0  0  0  0
    7.3743  -14.3970   20.4206 N   0  0  0  0  0  0  0  0  0  0  0  0
    8.0010  -14.9891   22.6846 C   0  0  0  0  0  0  0  0  0  0  0  0
    9.2366  -14.7895   22.5395 O   0  0  0  0  0  0  0  0  0  0  0  0
    6.0350  -11.7620   26.4291 C   0  0  0  0  0  0  0  0  0  0  0  0
    7.0384  -12.4533   25.5597 C   0  0  0  0  0  0  0  0  0  0  0  0
    7.5328  -13.7534   26.1777 C   0  0  2  0  0  0  0  0  0  0  0  0
    8.2856  -13.4837   27.4541 C   0  0  0  0  0  0  0  0  0  0  0  0
    8.3833  -14.5208   25.1591 C   0  0  2  0  0  0  0  0  0  0  0  0
    7.5144  -14.8431   24.0077 N   0  0  0  0  0  0  0  0  0  0  0  0
    8.7689  -15.8258   25.7321 C   0  0  0  0  0  0  0  0  0  0  0  0
    7.8341  -16.5405   26.2431 O   0  0  0  0  0  0  0  0  0  0  0  0
   10.7280  -18.7011   24.2047 C   0  0  0  0  0  0  0  0  0  0  0  0
   11.3226  -18.4783   25.5916 C   0  0  1  0  0  0  0  0  0  0  0  0
   12.5108  -17.7792   25.4481 O   0  0  0  0  0  0  0  0  0  0  0  0
   10.2866  -17.6978   26.3795 C   0  0  2  0  0  0  0  0  0  0  0  0
   10.0573  -16.3872   25.7803 N   0  0  0  0  0  0  0  0  0  0  0  0
   10.8178  -17.4973   27.7404 C   0  0  0  0  0  0  0  0  0  0  0  0
   11.1409  -16.3598   28.1592 O   0  0  0  0  0  0  0  0  0  0  0  0
   10.9841  -18.5796   28.6274 O   0  0  0  0  0  0  0  0  0  0  0  0
  1  2  1  0
  3  2  1  0
  3  4  1  1
  5  6  1  6
  5  3  1  0
  7  8  2  0
  7  5  1  0
 10  9  1  0
 11 12  1  1
 11 10  1  0
 13 14  1  6
 13 11  1  0
 14  7  1  0
 15 13  1  0
 16 15  2  0
 18 17  1  6
 18 19  1  0
 20 18  1  0
 20 21  1  6
 21 15  1  0
 22 20  1  0
 23 22  2  0
 24 22  1  0
M  END
$$$$
