IIT.pdb
     RDKit          3D

 24 23  0  0  1  0  0  0  0  0999 V2000
    7.7273  -11.7640   19.5896 C   0  0  0  0  0  0  0  0  0  0  0  0
    7.6790  -12.7795   20.7031 C   0  0  0  0  0  0  0  0  0  0  0  0
    8.0044  -14.1790   20.2859 C   0  0  2  0  0  0  0  0  0  0  0  0
    7.3306  -14.5647   18.9853 C   0  0  0  0  0  0  0  0  0  0  0  0
    8.0499  -15.2231   21.3229 C   0  0  2  0  0  0  0  0  0  0  0  0
    6.6786  -15.7551   21.4384 N   0  0  0  0  0  0  0  0  0  0  0  0
    8.6056  -14.8972   22.6300 C   0  0  0  0  0  0  0  0  0  0  0  0
    9.8304  -14.6248   22.7456 O   0  0  0  0  0  0  0  0  0  0  0  0
    6.0429  -11.8684   26.2083 C   0  0  0  0  0  0  0  0  0  0  0  0
    7.1076  -12.5818   25.4350 C   0  0  0  0  0  0  0  0  0  0  0  0
    7.4470  -13.9356   26.0423 C   0  0  2  0  0  0  0  0  0  0  0  0
    7.9284  -13.7772   27.4607 C   0  0  0  0  0  0  0  0  0  0  0  0
    8.4755  -14.6550   25.1624 C   0  0  2  0  0  0  0  0  0  0  0  0
    7.8594  -14.8583   23.8343 N   0  0  0  0  0  0  0  0  0  0  0  0
    8.7068  -16.0125   25.6951 C   0  0  0  0  0  0  0  0  0  0  0  0
    7.6753  -16.7520   25.8825 O   0  0  0  0  0  0  0  0  0  0  0  0
   10.0667  -18.9812   24.3634 C   0  0  0  0  0  0  0  0  0  0  0  0
   10.8391  -18.8544   25.6727 C   0  0  1  0  0  0  0  0  0  0  0  0
   12.0863  -18.3192   25.3916 O   0  0  0  0  0  0  0  0  0  0  0  0
   10.0131  -17.9506   26.5694 C   0  0  2  0  0  0  0  0  0  0  0  0
    9.9419  -16.5999   26.0217 N   0  0  0  0  0  0  0  0  0  0  0  0
   10.6871  -17.8835   27.8791 C   0  0  0  0  0  0  0  0  0  0  0  0
   11.2164  -16.8240   28.2927 O   0  0  0  0  0  0  0  0  0  0  0  0
   10.7637  -19.0110   28.7210 O   0  0  0  0  0  0  0  0  0  0  0  0
  1  2  1  0
  3  2  1  0
  3  4  1  6
  5  6  1  1
  5  3  1  0
  7  8  2  0
  7  5  1  0
 10  9  1  0
 11 12  1  1
 11 10  1  0
 13 14  1  6
 13 11  1  0
 14  7  1  0
 15 13  1  0
 16 15  2  0
 18 17  1  6
 18 19  1  0
 20 18  1  0
 20 21  1  6
 21 15  1  0
 22 20  1  0
 23 22  2  0
 24 22  1  0
M  END
$$$$
