IIT.pdb
     RDKit          3D

 24 23  0  0  1  0  0  0  0  0999 V2000
    6.1604  -22.4309   25.0536 C   0  0  0  0  0  0  0  0  0  0  0  0
    5.3780  -21.1559   24.8642 C   0  0  0  0  0  0  0  0  0  0  0  0
    6.1961  -19.9798   24.4333 C   0  0  2  0  0  0  0  0  0  0  0  0
    7.5801  -19.9832   25.0489 C   0  0  0  0  0  0  0  0  0  0  0  0
    5.5353  -18.6674   24.3395 C   0  0  2  0  0  0  0  0  0  0  0  0
    4.4286  -18.8265   23.3768 N   0  0  0  0  0  0  0  0  0  0  0  0
    6.3398  -17.4912   24.0351 C   0  0  0  0  0  0  0  0  0  0  0  0
    6.6711  -17.2434   22.8450 O   0  0  0  0  0  0  0  0  0  0  0  0
    5.9199  -12.8778   26.9840 C   0  0  0  0  0  0  0  0  0  0  0  0
    6.1565  -13.7439   25.7864 C   0  0  0  0  0  0  0  0  0  0  0  0
    7.5331  -14.3929   25.8116 C   0  0  2  0  0  0  0  0  0  0  0  0
    8.6157  -13.3469   25.7615 C   0  0  0  0  0  0  0  0  0  0  0  0
    7.6522  -15.4000   24.6623 C   0  0  2  0  0  0  0  0  0  0  0  0
    6.8031  -16.5619   24.9997 N   0  0  0  0  0  0  0  0  0  0  0  0
    9.0310  -15.9265   24.6176 C   0  0  0  0  0  0  0  0  0  0  0  0
    9.4239  -16.6254   25.6191 O   0  0  0  0  0  0  0  0  0  0  0  0
   13.0689  -17.3479   22.1891 C   0  0  0  0  0  0  0  0  0  0  0  0
   11.8582  -16.4202   22.1691 C   0  0  1  0  0  0  0  0  0  0  0  0
   11.0525  -16.7798   21.1001 O   0  0  0  0  0  0  0  0  0  0  0  0
   11.1594  -16.6020   23.5040 C   0  0  2  0  0  0  0  0  0  0  0  0
    9.9757  -15.7532   23.5906 N   0  0  0  0  0  0  0  0  0  0  0  0
   12.1015  -16.1909   24.5612 C   0  0  0  0  0  0  0  0  0  0  0  0
   12.7863  -17.0299   25.1943 O   0  0  0  0  0  0  0  0  0  0  0  0
   12.2704  -14.8343   24.9034 O   0  0  0  0  0  0  0  0  0  0  0  0
  1  2  1  0
  3  2  1  0
  3  4  1  1
  5  6  1  6
  5  3  1  0
  7  8  2  0
  7  5  1  0
 10  9  1  0
 11 12  1  6
 11 10  1  0
 13 14  1  1
 13 11  1  0
 14  7  1  0
 15 13  1  0
 16 15  2  0
 18 17  1  1
 18 19  1  0
 20 18  1  0
 20 21  1  6
 21 15  1  0
 22 20  1  0
 23 22  2  0
 24 22  1  0
M  END
$$$$
