IIT.pdb
     RDKit          3D

 24 23  0  0  1  0  0  0  0  0999 V2000
    6.4405  -18.1353   18.9963 C   0  0  0  0  0  0  0  0  0  0  0  0
    6.5032  -16.6754   19.3682 C   0  0  0  0  0  0  0  0  0  0  0  0
    7.2549  -16.3843   20.6287 C   0  0  2  0  0  0  0  0  0  0  0  0
    7.0758  -17.4690   21.6707 C   0  0  0  0  0  0  0  0  0  0  0  0
    7.2621  -15.0010   21.1326 C   0  0  2  0  0  0  0  0  0  0  0  0
    7.7281  -14.1543   20.0178 N   0  0  0  0  0  0  0  0  0  0  0  0
    7.9810  -14.7012   22.3642 C   0  0  0  0  0  0  0  0  0  0  0  0
    9.2331  -14.5615   22.3467 O   0  0  0  0  0  0  0  0  0  0  0  0
    5.7208  -11.4950   25.9794 C   0  0  0  0  0  0  0  0  0  0  0  0
    6.7287  -12.2250   25.1477 C   0  0  0  0  0  0  0  0  0  0  0  0
    7.2094  -13.5028   25.8207 C   0  0  2  0  0  0  0  0  0  0  0  0
    7.8792  -13.1933   27.1338 C   0  0  0  0  0  0  0  0  0  0  0  0
    8.1336  -14.2727   24.8706 C   0  0  2  0  0  0  0  0  0  0  0  0
    7.3712  -14.5469   23.6343 N   0  0  0  0  0  0  0  0  0  0  0  0
    8.4282  -15.5995   25.4475 C   0  0  0  0  0  0  0  0  0  0  0  0
    7.4269  -16.3417   25.7514 O   0  0  0  0  0  0  0  0  0  0  0  0
   10.0113  -18.4359   23.9457 C   0  0  0  0  0  0  0  0  0  0  0  0
   10.7340  -18.3355   25.2853 C   0  0  1  0  0  0  0  0  0  0  0  0
   11.9595  -17.7238   25.0734 O   0  0  0  0  0  0  0  0  0  0  0  0
    9.8334  -17.5211   26.1958 C   0  0  2  0  0  0  0  0  0  0  0  0
    9.6947  -16.1548   25.7025 N   0  0  0  0  0  0  0  0  0  0  0  0
   10.4698  -17.4704   27.5249 C   0  0  0  0  0  0  0  0  0  0  0  0
   10.8838  -16.3923   28.0150 O   0  0  0  0  0  0  0  0  0  0  0  0
   10.6389  -18.6351   28.3000 O   0  0  0  0  0  0  0  0  0  0  0  0
  1  2  1  0
  3  2  1  0
  3  4  1  1
  5  6  1  6
  5  3  1  0
  7  8  2  0
  7  5  1  0
 10  9  1  0
 11 12  1  1
 11 10  1  0
 13 14  1  6
 13 11  1  0
 14  7  1  0
 15 13  1  0
 16 15  2  0
 18 17  1  6
 18 19  1  0
 20 18  1  0
 20 21  1  6
 21 15  1  0
 22 20  1  0
 23 22  2  0
 24 22  1  0
M  END
$$$$
