IIT.pdb
     RDKit          3D

 24 23  0  0  1  0  0  0  0  0999 V2000
    5.5593  -18.5107   19.3708 C   0  0  0  0  0  0  0  0  0  0  0  0
    5.6846  -17.0280   19.6151 C   0  0  0  0  0  0  0  0  0  0  0  0
    6.6009  -16.6558   20.7378 C   0  0  2  0  0  0  0  0  0  0  0  0
    6.4543  -17.5766   21.9315 C   0  0  0  0  0  0  0  0  0  0  0  0
    6.7843  -15.2275   21.0439 C   0  0  2  0  0  0  0  0  0  0  0  0
    7.1867  -14.5794   19.7810 N   0  0  0  0  0  0  0  0  0  0  0  0
    7.6650  -14.8471   22.1408 C   0  0  0  0  0  0  0  0  0  0  0  0
    8.9143  -14.8492   21.9774 O   0  0  0  0  0  0  0  0  0  0  0  0
    7.4894  -11.7949   27.5724 C   0  0  0  0  0  0  0  0  0  0  0  0
    8.2193  -12.6844   26.6150 C   0  0  0  0  0  0  0  0  0  0  0  0
    7.3242  -13.1612   25.4800 C   0  0  2  0  0  0  0  0  0  0  0  0
    6.1310  -13.9052   26.0196 C   0  0  0  0  0  0  0  0  0  0  0  0
    8.1392  -14.0136   24.5007 C   0  0  2  0  0  0  0  0  0  0  0  0
    7.2226  -14.4591   23.4301 N   0  0  0  0  0  0  0  0  0  0  0  0
    8.5751  -15.2507   25.1786 C   0  0  0  0  0  0  0  0  0  0  0  0
    7.6591  -16.0654   25.5568 O   0  0  0  0  0  0  0  0  0  0  0  0
   11.7226  -18.8954   25.8931 C   0  0  0  0  0  0  0  0  0  0  0  0
   11.5383  -17.4660   25.3936 C   0  0  1  0  0  0  0  0  0  0  0  0
   11.5864  -17.4798   24.0084 O   0  0  0  0  0  0  0  0  0  0  0  0
   10.1925  -17.0009   25.9187 C   0  0  2  0  0  0  0  0  0  0  0  0
    9.8944  -15.6486   25.4585 N   0  0  0  0  0  0  0  0  0  0  0  0
   10.2696  -16.9817   27.3910 C   0  0  0  0  0  0  0  0  0  0  0  0
   10.6499  -15.9628   28.0163 O   0  0  0  0  0  0  0  0  0  0  0  0
    9.9179  -18.1113   28.1568 O   0  0  0  0  0  0  0  0  0  0  0  0
  1  2  1  0
  3  2  1  0
  3  4  1  1
  5  6  1  6
  5  3  1  0
  7  8  2  0
  7  5  1  0
 10  9  1  0
 11 12  1  1
 11 10  1  0
 13 14  1  6
 13 11  1  0
 14  7  1  0
 15 13  1  0
 16 15  2  0
 18 17  1  6
 18 19  1  0
 20 18  1  0
 20 21  1  6
 21 15  1  0
 22 20  1  0
 23 22  2  0
 24 22  1  0
M  END
$$$$
