IIT.pdb
     RDKit          3D

 24 23  0  0  1  0  0  0  0  0999 V2000
    6.9143  -11.7685   28.1177 C   0  0  0  0  0  0  0  0  0  0  0  0
    6.1212  -12.5766   27.1219 C   0  0  0  0  0  0  0  0  0  0  0  0
    6.9375  -13.5082   26.2828 C   0  0  2  0  0  0  0  0  0  0  0  0
    8.2459  -12.8878   25.8382 C   0  0  0  0  0  0  0  0  0  0  0  0
    6.2431  -14.3352   25.2820 C   0  0  2  0  0  0  0  0  0  0  0  0
    5.3283  -15.2164   26.0326 N   0  0  0  0  0  0  0  0  0  0  0  0
    7.0331  -15.0878   24.3161 C   0  0  0  0  0  0  0  0  0  0  0  0
    7.1681  -16.3339   24.4448 O   0  0  0  0  0  0  0  0  0  0  0  0
    7.5586  -12.4775   19.7214 C   0  0  0  0  0  0  0  0  0  0  0  0
    7.3047  -13.6973   20.5510 C   0  0  0  0  0  0  0  0  0  0  0  0
    8.5957  -14.3997   20.9469 C   0  0  2  0  0  0  0  0  0  0  0  0
    9.1804  -15.1404   19.7730 C   0  0  0  0  0  0  0  0  0  0  0  0
    8.3365  -15.3259   22.1405 C   0  0  2  0  0  0  0  0  0  0  0  0
    7.6915  -14.5187   23.1975 N   0  0  0  0  0  0  0  0  0  0  0  0
    9.6281  -15.7548   22.7131 C   0  0  0  0  0  0  0  0  0  0  0  0
   10.3979  -14.8378   23.1741 O   0  0  0  0  0  0  0  0  0  0  0  0
   10.4788  -18.1339   25.5977 C   0  0  0  0  0  0  0  0  0  0  0  0
   11.2752  -18.5705   24.3722 C   0  0  1  0  0  0  0  0  0  0  0  0
   10.5932  -19.6090   23.7578 O   0  0  0  0  0  0  0  0  0  0  0  0
   11.3888  -17.3482   23.4797 C   0  0  2  0  0  0  0  0  0  0  0  0
   10.1187  -17.0684   22.8179 N   0  0  0  0  0  0  0  0  0  0  0  0
   12.3950  -17.6437   22.4431 C   0  0  0  0  0  0  0  0  0  0  0  0
   13.6125  -17.7588   22.7225 O   0  0  0  0  0  0  0  0  0  0  0  0
   12.0273  -17.8091   21.0928 O   0  0  0  0  0  0  0  0  0  0  0  0
  1  2  1  0
  3  2  1  0
  3  4  1  6
  5  6  1  1
  5  3  1  0
  7  8  2  0
  7  5  1  0
 10  9  1  0
 11 12  1  6
 11 10  1  0
 13 14  1  1
 13 11  1  0
 14  7  1  0
 15 13  1  0
 16 15  2  0
 18 17  1  1
 18 19  1  0
 20 18  1  0
 20 21  1  6
 21 15  1  0
 22 20  1  0
 23 22  2  0
 24 22  1  0
M  END
$$$$
