IIT.pdb
     RDKit          3D

 24 23  0  0  1  0  0  0  0  0999 V2000
    6.7709  -18.3289   18.9296 C   0  0  0  0  0  0  0  0  0  0  0  0
    6.5398  -16.9445   19.4807 C   0  0  0  0  0  0  0  0  0  0  0  0
    7.3851  -16.5950   20.6646 C   0  0  2  0  0  0  0  0  0  0  0  0
    7.5720  -17.7668   21.6061 C   0  0  0  0  0  0  0  0  0  0  0  0
    7.1858  -15.2822   21.3006 C   0  0  2  0  0  0  0  0  0  0  0  0
    7.3408  -14.2750   20.2337 N   0  0  0  0  0  0  0  0  0  0  0  0
    7.9768  -14.9386   22.4752 C   0  0  0  0  0  0  0  0  0  0  0  0
    9.2009  -14.6652   22.3544 O   0  0  0  0  0  0  0  0  0  0  0  0
    5.8391  -11.7600   26.0623 C   0  0  0  0  0  0  0  0  0  0  0  0
    6.8565  -12.4762   25.2301 C   0  0  0  0  0  0  0  0  0  0  0  0
    7.3957  -13.7173   25.9269 C   0  0  2  0  0  0  0  0  0  0  0  0
    8.1158  -13.3448   27.1962 C   0  0  0  0  0  0  0  0  0  0  0  0
    8.2942  -14.5025   24.9647 C   0  0  2  0  0  0  0  0  0  0  0  0
    7.4705  -14.8827   23.7978 N   0  0  0  0  0  0  0  0  0  0  0  0
    8.6853  -15.7786   25.5962 C   0  0  0  0  0  0  0  0  0  0  0  0
    7.7407  -16.5374   26.0178 O   0  0  0  0  0  0  0  0  0  0  0  0
   10.6776  -18.5672   24.2041 C   0  0  0  0  0  0  0  0  0  0  0  0
   11.2630  -18.3544   25.5966 C   0  0  1  0  0  0  0  0  0  0  0  0
   12.4514  -17.6531   25.4661 O   0  0  0  0  0  0  0  0  0  0  0  0
   10.2211  -17.5809   26.3837 C   0  0  2  0  0  0  0  0  0  0  0  0
    9.9892  -16.2687   25.7888 N   0  0  0  0  0  0  0  0  0  0  0  0
   10.7463  -17.3840   27.7473 C   0  0  0  0  0  0  0  0  0  0  0  0
   11.0403  -16.2440   28.1805 O   0  0  0  0  0  0  0  0  0  0  0  0
   10.9395  -18.4727   28.6210 O   0  0  0  0  0  0  0  0  0  0  0  0
  1  2  1  0
  3  2  1  0
  3  4  1  1
  5  6  1  6
  5  3  1  0
  7  8  2  0
  7  5  1  0
 10  9  1  0
 11 12  1  1
 11 10  1  0
 13 14  1  6
 13 11  1  0
 14  7  1  0
 15 13  1  0
 16 15  2  0
 18 17  1  6
 18 19  1  0
 20 18  1  0
 20 21  1  6
 21 15  1  0
 22 20  1  0
 23 22  2  0
 24 22  1  0
M  END
$$$$
