YYP.pdb
     RDKit          3D

 32 34  0  0  1  0  0  0  0  0999 V2000
   24.9220  -13.0936  -22.2942 O   0  0  0  0  0  0  0  0  0  0  0  0
   24.9696  -14.2595  -21.5292 C   0  0  0  0  0  0  0  0  0  0  0  0
   24.9414  -14.1622  -20.1429 C   0  0  0  0  0  0  0  0  0  0  0  0
   24.9859  -15.3111  -19.3707 C   0  0  0  0  0  0  0  0  0  0  0  0
   25.0586  -16.5678  -19.9457 C   0  0  0  0  0  0  0  0  0  0  0  0
   25.1045  -17.7872  -19.1039 C   0  0  0  0  0  0  0  0  0  0  0  0
   26.5210  -18.0446  -18.6053 C   0  0  2  0  0  0  0  0  0  0  0  0
   27.2251  -18.6403  -19.7036 N   0  0  0  0  0  0  0  0  0  0  0  0
   26.4739  -19.0003  -17.4412 C   0  0  0  0  0  0  0  0  0  0  0  0
   26.3417  -20.2007  -17.7594 O   0  0  0  0  0  0  0  0  0  0  0  0
   25.0852  -16.6250  -21.3339 C   0  0  0  0  0  0  0  0  0  0  0  0
   25.0425  -15.4830  -22.1260 C   0  0  0  0  0  0  0  0  0  0  0  0
   26.4446  -21.3210   -8.9368 O   0  0  0  0  0  0  0  0  0  0  0  0
   26.5698  -20.6062  -10.1495 C   0  0  0  0  0  0  0  0  0  0  0  0
   27.5478  -20.9163  -11.0625 C   0  0  0  0  0  0  0  0  0  0  0  0
   27.6291  -20.1832  -12.2380 C   0  0  0  0  0  0  0  0  0  0  0  0
   26.7785  -19.1613  -12.5335 C   0  0  0  0  0  0  0  0  0  0  0  0
   26.9819  -18.4385  -13.8034 C   0  0  0  0  0  0  0  0  0  0  0  0
   26.4012  -19.3057  -14.9786 C   0  0  2  0  0  0  0  0  0  0  0  0
   26.5767  -18.5048  -16.1303 N   0  0  0  0  0  0  0  0  0  0  0  0
   25.0813  -19.7202  -14.6421 C   0  0  0  0  0  0  0  0  0  0  0  0
   24.1550  -18.8044  -14.7162 O   0  0  0  0  0  0  0  0  0  0  0  0
   25.8059  -18.8459  -11.6309 C   0  0  0  0  0  0  0  0  0  0  0  0
   25.7066  -19.5776  -10.4333 C   0  0  0  0  0  0  0  0  0  0  0  0
   24.6259  -20.9898  -14.2459 N   0  0  0  0  0  0  0  0  0  0  0  0
   25.3658  -22.2362  -14.0979 C   0  0  0  0  0  0  0  0  0  0  0  0
   24.3191  -23.3058  -14.4443 C   0  0  0  0  0  0  0  0  0  0  0  0
   23.1240  -22.7492  -13.7023 C   0  0  0  0  0  0  0  0  0  0  0  0
   23.2154  -21.3075  -13.9763 C   0  0  1  0  0  0  0  0  0  0  0  0
   22.6641  -20.4605  -12.8837 C   0  0  0  0  0  0  0  0  0  0  0  0
   21.2976  -20.2199  -12.9059 O   0  0  0  0  0  0  0  0  0  0  0  0
   23.3348  -19.9543  -11.9598 O   0  0  0  0  0  0  0  0  0  0  0  0
  2  1  1  0
  3  2  2  0
  4  3  1  0
  5 11  1  0
  5  4  2  0
  6  5  1  0
  7  9  1  0
  7  6  1  0
  7  8  1  6
  9 20  1  0
  9 10  2  0
 11 12  2  0
 12  2  1  0
 13 14  1  0
 14 24  2  0
 15 16  2  0
 15 14  1  0
 16 17  1  0
 17 18  1  0
 17 23  2  0
 19 18  1  1
 20 19  1  0
 21 19  1  0
 22 21  2  0
 24 23  1  0
 25 21  1  0
 25 29  1  0
 26 25  1  0
 27 26  1  0
 27 28  1  0
 28 29  1  0
 29 30  1  1
 30 32  2  0
 30 31  1  0
M  END
$$$$
