YYP.pdb
     RDKit          3D

 32 34  0  0  1  0  0  0  0  0999 V2000
   12.3195  -11.4249  -22.2639 O   0  0  0  0  0  0  0  0  0  0  0  0
   13.6204  -11.4267  -21.7595 C   0  0  0  0  0  0  0  0  0  0  0  0
   14.0609  -10.3373  -21.0170 C   0  0  0  0  0  0  0  0  0  0  0  0
   15.3490  -10.3260  -20.5082 C   0  0  0  0  0  0  0  0  0  0  0  0
   16.2206  -11.3800  -20.7201 C   0  0  0  0  0  0  0  0  0  0  0  0
   17.5958  -11.3517  -20.1673 C   0  0  0  0  0  0  0  0  0  0  0  0
   18.4882  -10.4303  -20.9897 C   0  0  2  0  0  0  0  0  0  0  0  0
   18.6625  -11.0767  -22.2580 N   0  0  0  0  0  0  0  0  0  0  0  0
   19.8188  -10.2782  -20.2990 C   0  0  0  0  0  0  0  0  0  0  0  0
   20.8099  -10.5026  -21.0252 O   0  0  0  0  0  0  0  0  0  0  0  0
   15.7447  -12.4508  -21.4672 C   0  0  0  0  0  0  0  0  0  0  0  0
   14.4555  -12.4799  -21.9870 C   0  0  0  0  0  0  0  0  0  0  0  0
   19.0381   -3.7357  -18.6888 O   0  0  0  0  0  0  0  0  0  0  0  0
   19.7330   -4.9642  -18.7594 C   0  0  0  0  0  0  0  0  0  0  0  0
   20.6738   -5.3065  -17.8193 C   0  0  0  0  0  0  0  0  0  0  0  0
   21.3293   -6.5244  -17.9342 C   0  0  0  0  0  0  0  0  0  0  0  0
   21.0830   -7.4052  -18.9435 C   0  0  0  0  0  0  0  0  0  0  0  0
   21.8633   -8.6570  -18.9737 C   0  0  0  0  0  0  0  0  0  0  0  0
   21.0612   -9.7724  -18.2101 C   0  0  2  0  0  0  0  0  0  0  0  0
   19.8605   -9.9102  -18.9435 N   0  0  0  0  0  0  0  0  0  0  0  0
   20.9722   -9.4208  -16.8334 C   0  0  0  0  0  0  0  0  0  0  0  0
   19.9258   -8.7239  -16.4847 O   0  0  0  0  0  0  0  0  0  0  0  0
   20.1516   -7.0716  -19.8822 C   0  0  0  0  0  0  0  0  0  0  0  0
   19.4758   -5.8416  -19.7830 C   0  0  0  0  0  0  0  0  0  0  0  0
   21.8543   -9.7273  -15.7825 N   0  0  0  0  0  0  0  0  0  0  0  0
   23.0905  -10.4979  -15.8039 C   0  0  0  0  0  0  0  0  0  0  0  0
   23.1287  -11.1340  -14.4061 C   0  0  0  0  0  0  0  0  0  0  0  0
   22.6935   -9.9504  -13.5706 C   0  0  0  0  0  0  0  0  0  0  0  0
   21.6137   -9.3636  -14.3778 C   0  0  1  0  0  0  0  0  0  0  0  0
   21.4817   -7.8906  -14.2100 C   0  0  0  0  0  0  0  0  0  0  0  0
   22.0675   -7.0939  -15.1834 O   0  0  0  0  0  0  0  0  0  0  0  0
   20.8906   -7.3259  -13.2659 O   0  0  0  0  0  0  0  0  0  0  0  0
  2  1  1  0
  3  2  2  0
  4  3  1  0
  5 11  1  0
  5  4  2  0
  6  5  1  0
  7  9  1  0
  7  6  1  0
  7  8  1  6
  9 20  1  0
  9 10  2  0
 11 12  2  0
 12  2  1  0
 13 14  1  0
 14 24  2  0
 15 16  2  0
 15 14  1  0
 16 17  1  0
 17 18  1  0
 17 23  2  0
 19 18  1  6
 20 19  1  0
 21 19  1  0
 22 21  2  0
 24 23  1  0
 25 21  1  0
 25 29  1  0
 26 25  1  0
 27 26  1  0
 27 28  1  0
 28 29  1  0
 29 30  1  6
 30 32  2  0
 30 31  1  0
M  END
$$$$
