YYP.pdb
     RDKit          3D

 32 34  0  0  1  0  0  0  0  0999 V2000
   22.4123  -22.0203   -7.2633 O   0  0  0  0  0  0  0  0  0  0  0  0
   23.1305  -21.5977   -8.3824 C   0  0  0  0  0  0  0  0  0  0  0  0
   24.5176  -21.6859   -8.3706 C   0  0  0  0  0  0  0  0  0  0  0  0
   25.2436  -21.2721   -9.4750 C   0  0  0  0  0  0  0  0  0  0  0  0
   24.6210  -20.7674  -10.6033 C   0  0  0  0  0  0  0  0  0  0  0  0
   25.4137  -20.3299  -11.7772 C   0  0  0  0  0  0  0  0  0  0  0  0
   24.9531  -21.0516  -13.0375 C   0  0  2  0  0  0  0  0  0  0  0  0
   25.3561  -22.4190  -12.8804 N   0  0  0  0  0  0  0  0  0  0  0  0
   25.6353  -20.4454  -14.2366 C   0  0  0  0  0  0  0  0  0  0  0  0
   26.7218  -20.9803  -14.5419 O   0  0  0  0  0  0  0  0  0  0  0  0
   23.2335  -20.6942  -10.5779 C   0  0  0  0  0  0  0  0  0  0  0  0
   22.4875  -21.1036   -9.4783 C   0  0  0  0  0  0  0  0  0  0  0  0
   28.2158  -17.2532  -21.6135 O   0  0  0  0  0  0  0  0  0  0  0  0
   27.5510  -17.8497  -20.5185 C   0  0  0  0  0  0  0  0  0  0  0  0
   26.1810  -17.8365  -20.4225 C   0  0  0  0  0  0  0  0  0  0  0  0
   25.5764  -18.4354  -19.3264 C   0  0  0  0  0  0  0  0  0  0  0  0
   26.2818  -19.0414  -18.3312 C   0  0  0  0  0  0  0  0  0  0  0  0
   25.5273  -19.6199  -17.2031 C   0  0  0  0  0  0  0  0  0  0  0  0
   25.6557  -18.6621  -15.9635 C   0  0  2  0  0  0  0  0  0  0  0  0
   25.0348  -19.3658  -14.9063 N   0  0  0  0  0  0  0  0  0  0  0  0
   25.1426  -17.3804  -16.3115 C   0  0  0  0  0  0  0  0  0  0  0  0
   23.8660  -17.3246  -16.5749 O   0  0  0  0  0  0  0  0  0  0  0  0
   27.6428  -19.0568  -18.4181 C   0  0  0  0  0  0  0  0  0  0  0  0
   28.2747  -18.4554  -19.5220 C   0  0  0  0  0  0  0  0  0  0  0  0
   25.8187  -16.1514  -16.4043 N   0  0  0  0  0  0  0  0  0  0  0  0
   27.2363  -15.8578  -16.2401 C   0  0  0  0  0  0  0  0  0  0  0  0
   27.2327  -14.4315  -15.6694 C   0  0  0  0  0  0  0  0  0  0  0  0
   26.1686  -13.8052  -16.5435 C   0  0  0  0  0  0  0  0  0  0  0  0
   25.1471  -14.8602  -16.6166 C   0  0  1  0  0  0  0  0  0  0  0  0
   24.3739  -14.8494  -17.8882 C   0  0  0  0  0  0  0  0  0  0  0  0
   24.8006  -15.7111  -18.8886 O   0  0  0  0  0  0  0  0  0  0  0  0
   23.3813  -14.1274  -18.1186 O   0  0  0  0  0  0  0  0  0  0  0  0
  2  1  1  0
  3  2  2  0
  4  3  1  0
  5 11  1  0
  5  4  2  0
  6  5  1  0
  7  9  1  0
  7  6  1  0
  7  8  1  1
  9 20  1  0
  9 10  2  0
 11 12  2  0
 12  2  1  0
 13 14  1  0
 14 24  2  0
 15 16  2  0
 15 14  1  0
 16 17  1  0
 17 18  1  0
 17 23  2  0
 19 18  1  6
 20 19  1  0
 21 19  1  0
 22 21  2  0
 24 23  1  0
 25 21  1  0
 25 29  1  0
 26 25  1  0
 27 26  1  0
 27 28  1  0
 28 29  1  0
 29 30  1  6
 30 32  2  0
 30 31  1  0
M  END
$$$$
