YYP.pdb
     RDKit          3D

 32 34  0  0  1  0  0  0  0  0999 V2000
   10.8726  -13.6639  -15.0531 O   0  0  0  0  0  0  0  0  0  0  0  0
   12.2002  -13.2369  -15.0095 C   0  0  0  0  0  0  0  0  0  0  0  0
   13.1645  -14.0761  -14.4637 C   0  0  0  0  0  0  0  0  0  0  0  0
   14.4866  -13.6666  -14.4155 C   0  0  0  0  0  0  0  0  0  0  0  0
   14.8804  -12.4316  -14.9006 C   0  0  0  0  0  0  0  0  0  0  0  0
   16.3002  -12.0096  -14.8419 C   0  0  0  0  0  0  0  0  0  0  0  0
   16.9698  -12.1810  -16.1998 C   0  0  2  0  0  0  0  0  0  0  0  0
   17.3326  -13.5656  -16.2902 N   0  0  0  0  0  0  0  0  0  0  0  0
   18.2033  -11.3177  -16.2599 C   0  0  0  0  0  0  0  0  0  0  0  0
   19.2274  -11.8398  -15.7716 O   0  0  0  0  0  0  0  0  0  0  0  0
   13.8884  -11.6203  -15.4381 C   0  0  0  0  0  0  0  0  0  0  0  0
   12.5559  -12.0134  -15.4944 C   0  0  0  0  0  0  0  0  0  0  0  0
   20.9291  -12.3146  -22.1644 O   0  0  0  0  0  0  0  0  0  0  0  0
   20.4922  -11.3749  -21.2036 C   0  0  0  0  0  0  0  0  0  0  0  0
   19.1557  -11.1679  -20.9648 C   0  0  0  0  0  0  0  0  0  0  0  0
   18.7784  -10.2327  -20.0114 C   0  0  0  0  0  0  0  0  0  0  0  0
   19.6772   -9.5028  -19.2941 C   0  0  0  0  0  0  0  0  0  0  0  0
   19.1537   -8.5192  -18.3272 C   0  0  0  0  0  0  0  0  0  0  0  0
   19.2207   -9.1413  -16.8853 C   0  0  2  0  0  0  0  0  0  0  0  0
   18.1288  -10.0377  -16.8351 N   0  0  0  0  0  0  0  0  0  0  0  0
   19.2723   -8.0893  -15.9273 C   0  0  0  0  0  0  0  0  0  0  0  0
   18.1398   -7.4990  -15.6605 O   0  0  0  0  0  0  0  0  0  0  0  0
   21.0064   -9.7011  -19.5271 C   0  0  0  0  0  0  0  0  0  0  0  0
   21.4092  -10.6452  -20.4893 C   0  0  0  0  0  0  0  0  0  0  0  0
   20.3779   -7.5956  -15.2130 N   0  0  0  0  0  0  0  0  0  0  0  0
   21.7482   -8.0884  -15.1678 C   0  0  0  0  0  0  0  0  0  0  0  0
   22.2026   -7.7242  -13.7462 C   0  0  0  0  0  0  0  0  0  0  0  0
   21.6298   -6.3280  -13.6406 C   0  0  0  0  0  0  0  0  0  0  0  0
   20.3070   -6.4723  -14.2662 C   0  0  1  0  0  0  0  0  0  0  0  0
   19.8258   -5.2294  -14.9285 C   0  0  0  0  0  0  0  0  0  0  0  0
   19.9576   -5.1630  -16.3082 O   0  0  0  0  0  0  0  0  0  0  0  0
   19.3198   -4.2516  -14.3389 O   0  0  0  0  0  0  0  0  0  0  0  0
  2  1  1  0
  3  2  2  0
  4  3  1  0
  5 11  1  0
  5  4  2  0
  6  5  1  0
  7  9  1  0
  7  6  1  0
  7  8  1  1
  9 20  1  0
  9 10  2  0
 11 12  2  0
 12  2  1  0
 13 14  1  0
 14 24  2  0
 15 16  2  0
 15 14  1  0
 16 17  1  0
 17 18  1  0
 17 23  2  0
 19 18  1  6
 20 19  1  0
 21 19  1  0
 22 21  2  0
 24 23  1  0
 25 21  1  0
 25 29  1  0
 26 25  1  0
 27 26  1  0
 27 28  1  0
 28 29  1  0
 29 30  1  6
 30 32  2  0
 30 31  1  0
M  END
$$$$
