YYP.pdb
     RDKit          3D

 32 34  0  0  1  0  0  0  0  0999 V2000
   16.2015  -24.1540  -14.0834 O   0  0  0  0  0  0  0  0  0  0  0  0
   17.3823  -23.4137  -14.0157 C   0  0  0  0  0  0  0  0  0  0  0  0
   17.3357  -22.0419  -14.2348 C   0  0  0  0  0  0  0  0  0  0  0  0
   18.4994  -21.2939  -14.1689 C   0  0  0  0  0  0  0  0  0  0  0  0
   19.7217  -21.8792  -13.8881 C   0  0  0  0  0  0  0  0  0  0  0  0
   20.9574  -21.0632  -13.8205 C   0  0  0  0  0  0  0  0  0  0  0  0
   21.5087  -21.0369  -12.4003 C   0  0  2  0  0  0  0  0  0  0  0  0
   20.6545  -20.1538  -11.6604 N   0  0  0  0  0  0  0  0  0  0  0  0
   22.9159  -20.4985  -12.4216 C   0  0  0  0  0  0  0  0  0  0  0  0
   22.9958  -19.2523  -12.4042 O   0  0  0  0  0  0  0  0  0  0  0  0
   19.7286  -23.2525  -13.6754 C   0  0  0  0  0  0  0  0  0  0  0  0
   18.5712  -24.0204  -13.7383 C   0  0  0  0  0  0  0  0  0  0  0  0
   27.5150  -19.1924   -6.7304 O   0  0  0  0  0  0  0  0  0  0  0  0
   27.1507  -19.8874   -7.9056 C   0  0  0  0  0  0  0  0  0  0  0  0
   28.0955  -20.4885   -8.7008 C   0  0  0  0  0  0  0  0  0  0  0  0
   27.6860  -21.1581   -9.8453 C   0  0  0  0  0  0  0  0  0  0  0  0
   26.3804  -21.2490  -10.2225 C   0  0  0  0  0  0  0  0  0  0  0  0
   26.0714  -21.9649  -11.4749 C   0  0  0  0  0  0  0  0  0  0  0  0
   25.3521  -20.9742  -12.4606 C   0  0  2  0  0  0  0  0  0  0  0  0
   24.0011  -21.3905  -12.4581 N   0  0  0  0  0  0  0  0  0  0  0  0
   26.0508  -20.9639  -13.7011 C   0  0  0  0  0  0  0  0  0  0  0  0
   25.7675  -21.9323  -14.5282 O   0  0  0  0  0  0  0  0  0  0  0  0
   25.4363  -20.6528   -9.4393 C   0  0  0  0  0  0  0  0  0  0  0  0
   25.8313  -19.9696   -8.2745 C   0  0  0  0  0  0  0  0  0  0  0  0
   27.0055  -20.0457  -14.1719 N   0  0  0  0  0  0  0  0  0  0  0  0
   27.5082  -18.8285  -13.5488 C   0  0  0  0  0  0  0  0  0  0  0  0
   27.8263  -17.9272  -14.7514 C   0  0  0  0  0  0  0  0  0  0  0  0
   28.4845  -18.9372  -15.6654 C   0  0  0  0  0  0  0  0  0  0  0  0
   27.6363  -20.1265  -15.4981 C   0  0  1  0  0  0  0  0  0  0  0  0
   28.3713  -21.4084  -15.6761 C   0  0  0  0  0  0  0  0  0  0  0  0
   28.7164  -21.7581  -16.9738 O   0  0  0  0  0  0  0  0  0  0  0  0
   28.6946  -22.1847  -14.7528 O   0  0  0  0  0  0  0  0  0  0  0  0
  2  1  1  0
  3  2  2  0
  4  3  1  0
  5 11  1  0
  5  4  2  0
  6  5  1  0
  7  9  1  0
  7  6  1  0
  7  8  1  1
  9 20  1  0
  9 10  2  0
 11 12  2  0
 12  2  1  0
 13 14  1  0
 14 24  2  0
 15 16  2  0
 15 14  1  0
 16 17  1  0
 17 18  1  0
 17 23  2  0
 19 18  1  1
 20 19  1  0
 21 19  1  0
 22 21  2  0
 24 23  1  0
 25 21  1  0
 25 29  1  0
 26 25  1  0
 27 26  1  0
 27 28  1  0
 28 29  1  0
 29 30  1  1
 30 32  2  0
 30 31  1  0
M  END
$$$$
