YYP.pdb
     RDKit          3D

 32 34  0  0  1  0  0  0  0  0999 V2000
   24.8915  -12.5206  -21.6758 O   0  0  0  0  0  0  0  0  0  0  0  0
   24.9896  -13.7318  -20.9901 C   0  0  0  0  0  0  0  0  0  0  0  0
   24.9788  -13.7265  -19.6002 C   0  0  0  0  0  0  0  0  0  0  0  0
   25.0734  -14.9212  -18.9060 C   0  0  0  0  0  0  0  0  0  0  0  0
   25.1795  -16.1344  -19.5635 C   0  0  0  0  0  0  0  0  0  0  0  0
   25.2789  -17.4040  -18.8046 C   0  0  0  0  0  0  0  0  0  0  0  0
   26.6859  -17.5919  -18.2509 C   0  0  2  0  0  0  0  0  0  0  0  0
   27.4966  -18.0015  -19.3608 N   0  0  0  0  0  0  0  0  0  0  0  0
   26.6674  -18.6696  -17.1979 C   0  0  0  0  0  0  0  0  0  0  0  0
   26.6527  -19.8349  -17.6470 O   0  0  0  0  0  0  0  0  0  0  0  0
   25.1874  -16.0996  -20.9527 C   0  0  0  0  0  0  0  0  0  0  0  0
   25.0945  -14.9104  -21.6671 C   0  0  0  0  0  0  0  0  0  0  0  0
   26.2619  -21.8355   -8.9797 O   0  0  0  0  0  0  0  0  0  0  0  0
   26.4539  -20.9993  -10.1026 C   0  0  0  0  0  0  0  0  0  0  0  0
   25.6361  -19.9211  -10.3371 C   0  0  0  0  0  0  0  0  0  0  0  0
   25.8661  -19.1314  -11.4549 C   0  0  0  0  0  0  0  0  0  0  0  0
   26.8725  -19.3757  -12.3395 C   0  0  0  0  0  0  0  0  0  0  0  0
   27.0001  -18.4805  -13.5052 C   0  0  0  0  0  0  0  0  0  0  0  0
   26.5144  -19.2474  -14.7884 C   0  0  2  0  0  0  0  0  0  0  0  0
   26.6678  -18.3135  -15.8385 N   0  0  0  0  0  0  0  0  0  0  0  0
   25.2169  -19.7815  -14.5471 C   0  0  0  0  0  0  0  0  0  0  0  0
   24.2309  -18.9272  -14.5668 O   0  0  0  0  0  0  0  0  0  0  0  0
   27.6876  -20.4459  -12.1147 C   0  0  0  0  0  0  0  0  0  0  0  0
   27.4712  -21.2584  -10.9867 C   0  0  0  0  0  0  0  0  0  0  0  0
   24.8398  -21.1125  -14.2971 N   0  0  0  0  0  0  0  0  0  0  0  0
   25.6625  -22.3132  -14.2322 C   0  0  0  0  0  0  0  0  0  0  0  0
   24.7131  -23.4132  -14.7307 C   0  0  0  0  0  0  0  0  0  0  0  0
   23.4498  -23.0166  -13.9991 C   0  0  0  0  0  0  0  0  0  0  0  0
   23.4463  -21.5521  -14.1293 C   0  0  1  0  0  0  0  0  0  0  0  0
   22.7880  -20.8573  -12.9895 C   0  0  0  0  0  0  0  0  0  0  0  0
   21.4079  -20.9702  -12.8993 O   0  0  0  0  0  0  0  0  0  0  0  0
   23.3806  -20.1856  -12.1193 O   0  0  0  0  0  0  0  0  0  0  0  0
  2  1  1  0
  3  2  2  0
  4  3  1  0
  5 11  1  0
  5  4  2  0
  6  5  1  0
  7  9  1  0
  7  6  1  0
  7  8  1  6
  9 20  1  0
  9 10  2  0
 11 12  2  0
 12  2  1  0
 13 14  1  0
 14 24  2  0
 15 16  2  0
 15 14  1  0
 16 17  1  0
 17 18  1  0
 17 23  2  0
 19 18  1  1
 20 19  1  0
 21 19  1  0
 22 21  2  0
 24 23  1  0
 25 21  1  0
 25 29  1  0
 26 25  1  0
 27 26  1  0
 27 28  1  0
 28 29  1  0
 29 30  1  1
 30 32  2  0
 30 31  1  0
M  END
$$$$
