YYP.pdb
     RDKit          3D

 32 34  0  0  1  0  0  0  0  0999 V2000
   27.3230  -19.7248   -6.9660 O   0  0  0  0  0  0  0  0  0  0  0  0
   27.1464  -19.9215   -8.3360 C   0  0  0  0  0  0  0  0  0  0  0  0
   26.4364  -18.9786   -9.0700 C   0  0  0  0  0  0  0  0  0  0  0  0
   26.2549  -19.1594  -10.4311 C   0  0  0  0  0  0  0  0  0  0  0  0
   26.7657  -20.2644  -11.0893 C   0  0  0  0  0  0  0  0  0  0  0  0
   26.5628  -20.4417  -12.5471 C   0  0  0  0  0  0  0  0  0  0  0  0
   25.0833  -20.6136  -12.8681 C   0  0  2  0  0  0  0  0  0  0  0  0
   24.7286  -21.9254  -12.4096 N   0  0  0  0  0  0  0  0  0  0  0  0
   24.8816  -20.5138  -14.3580 C   0  0  0  0  0  0  0  0  0  0  0  0
   25.0346  -21.5882  -14.9763 O   0  0  0  0  0  0  0  0  0  0  0  0
   27.4693  -21.1853  -10.3223 C   0  0  0  0  0  0  0  0  0  0  0  0
   27.6610  -21.0217   -8.9550 C   0  0  0  0  0  0  0  0  0  0  0  0
   18.0910  -20.2932  -15.1773 O   0  0  0  0  0  0  0  0  0  0  0  0
   19.3529  -19.7290  -15.4712 C   0  0  0  0  0  0  0  0  0  0  0  0
   20.1412  -19.1910  -14.4836 C   0  0  0  0  0  0  0  0  0  0  0  0
   21.3720  -18.6482  -14.8245 C   0  0  0  0  0  0  0  0  0  0  0  0
   21.8410  -18.6223  -16.1030 C   0  0  0  0  0  0  0  0  0  0  0  0
   23.1537  -17.9936  -16.3447 C   0  0  0  0  0  0  0  0  0  0  0  0
   24.2629  -19.1066  -16.3074 C   0  0  2  0  0  0  0  0  0  0  0  0
   24.5491  -19.2756  -14.9333 N   0  0  0  0  0  0  0  0  0  0  0  0
   25.3272  -18.7311  -17.1752 C   0  0  0  0  0  0  0  0  0  0  0  0
   26.1871  -17.8762  -16.6935 O   0  0  0  0  0  0  0  0  0  0  0  0
   21.0631  -19.1526  -17.0897 C   0  0  0  0  0  0  0  0  0  0  0  0
   19.8122  -19.7083  -16.7643 C   0  0  0  0  0  0  0  0  0  0  0  0
   25.5932  -19.1601  -18.4873 N   0  0  0  0  0  0  0  0  0  0  0  0
   24.9916  -20.2478  -19.2475 C   0  0  0  0  0  0  0  0  0  0  0  0
   26.1391  -20.7138  -20.1563 C   0  0  0  0  0  0  0  0  0  0  0  0
   26.6933  -19.3723  -20.5828 C   0  0  0  0  0  0  0  0  0  0  0  0
   26.6522  -18.5937  -19.3362 C   0  0  1  0  0  0  0  0  0  0  0  0
   26.4550  -17.1348  -19.5550 C   0  0  0  0  0  0  0  0  0  0  0  0
   27.5686  -16.4028  -19.9420 O   0  0  0  0  0  0  0  0  0  0  0  0
   25.3727  -16.5278  -19.4148 O   0  0  0  0  0  0  0  0  0  0  0  0
  2  1  1  0
  3  2  2  0
  4  3  1  0
  5 11  1  0
  5  4  2  0
  6  5  1  0
  7  9  1  0
  7  6  1  0
  7  8  1  6
  9 20  1  0
  9 10  2  0
 11 12  2  0
 12  2  1  0
 13 14  1  0
 14 24  2  0
 15 16  2  0
 15 14  1  0
 16 17  1  0
 17 18  1  0
 17 23  2  0
 19 18  1  1
 20 19  1  0
 21 19  1  0
 22 21  2  0
 24 23  1  0
 25 21  1  0
 25 29  1  0
 26 25  1  0
 27 26  1  0
 27 28  1  0
 28 29  1  0
 29 30  1  6
 30 32  2  0
 30 31  1  0
M  END
$$$$
