YYP.pdb
     RDKit          3D

 32 34  0  0  1  0  0  0  0  0999 V2000
   45.6117   -0.5490   -7.7772 O   0  0  0  0  0  0  0  0  0  0  0  0
   45.3004   -1.8731   -7.4666 C   0  0  0  0  0  0  0  0  0  0  0  0
   45.0744   -2.2231   -6.1406 C   0  0  0  0  0  0  0  0  0  0  0  0
   44.7625   -3.5333   -5.8174 C   0  0  0  0  0  0  0  0  0  0  0  0
   44.6683   -4.5157   -6.7876 C   0  0  0  0  0  0  0  0  0  0  0  0
   44.3325   -5.9131   -6.4241 C   0  0  0  0  0  0  0  0  0  0  0  0
   42.9115   -6.2551   -6.8544 C   0  0  2  0  0  0  0  0  0  0  0  0
   42.0459   -5.6117   -5.9091 N   0  0  0  0  0  0  0  0  0  0  0  0
   42.7196   -7.7487   -6.7989 C   0  0  0  0  0  0  0  0  0  0  0  0
   42.5434   -8.2077   -5.6508 O   0  0  0  0  0  0  0  0  0  0  0  0
   44.9014   -4.1280   -8.1016 C   0  0  0  0  0  0  0  0  0  0  0  0
   45.2166   -2.8182   -8.4455 C   0  0  0  0  0  0  0  0  0  0  0  0
   36.7099   -7.6904   -6.7923 O   0  0  0  0  0  0  0  0  0  0  0  0
   37.8695   -8.2964   -7.3264 C   0  0  0  0  0  0  0  0  0  0  0  0
   38.4721   -7.8079   -8.4598 C   0  0  0  0  0  0  0  0  0  0  0  0
   39.6085   -8.4399   -8.9446 C   0  0  0  0  0  0  0  0  0  0  0  0
   40.1608   -9.5315   -8.3459 C   0  0  0  0  0  0  0  0  0  0  0  0
   41.3547  -10.1322   -8.9707 C   0  0  0  0  0  0  0  0  0  0  0  0
   42.5903   -9.9023   -8.0269 C   0  0  2  0  0  0  0  0  0  0  0  0
   42.7494   -8.4982   -7.9872 N   0  0  0  0  0  0  0  0  0  0  0  0
   43.6819  -10.6903   -8.4902 C   0  0  0  0  0  0  0  0  0  0  0  0
   44.2746  -10.2704   -9.5740 O   0  0  0  0  0  0  0  0  0  0  0  0
   39.5670  -10.0239   -7.2211 C   0  0  0  0  0  0  0  0  0  0  0  0
   38.4143   -9.3969   -6.7135 C   0  0  0  0  0  0  0  0  0  0  0  0
   44.2246  -11.8633   -7.9373 N   0  0  0  0  0  0  0  0  0  0  0  0
   43.9155  -12.5234   -6.6757 C   0  0  0  0  0  0  0  0  0  0  0  0
   45.2543  -13.1651   -6.2812 C   0  0  0  0  0  0  0  0  0  0  0  0
   45.6863  -13.7106   -7.6245 C   0  0  0  0  0  0  0  0  0  0  0  0
   45.3268  -12.6231   -8.5465 C   0  0  1  0  0  0  0  0  0  0  0  0
   44.9740  -13.0966   -9.9126 C   0  0  0  0  0  0  0  0  0  0  0  0
   45.9950  -13.6624  -10.6631 O   0  0  0  0  0  0  0  0  0  0  0  0
   43.8389  -13.0206  -10.4279 O   0  0  0  0  0  0  0  0  0  0  0  0
  2  1  1  0
  3  2  2  0
  4  3  1  0
  5 11  1  0
  5  4  2  0
  6  5  1  0
  7  9  1  0
  7  6  1  0
  7  8  1  1
  9 20  1  0
  9 10  2  0
 11 12  2  0
 12  2  1  0
 13 14  1  0
 14 24  2  0
 15 16  2  0
 15 14  1  0
 16 17  1  0
 17 18  1  0
 17 23  2  0
 19 18  1  6
 20 19  1  0
 21 19  1  0
 22 21  2  0
 24 23  1  0
 25 21  1  0
 25 29  1  0
 26 25  1  0
 27 26  1  0
 27 28  1  0
 28 29  1  0
 29 30  1  6
 30 32  2  0
 30 31  1  0
M  END
$$$$
