YYP.pdb
     RDKit          3D

 32 34  0  0  1  0  0  0  0  0999 V2000
   16.7816  -18.3136  -18.9160 O   0  0  0  0  0  0  0  0  0  0  0  0
   17.9331  -18.7804  -18.2811 C   0  0  0  0  0  0  0  0  0  0  0  0
   18.4161  -20.0448  -18.5973 C   0  0  0  0  0  0  0  0  0  0  0  0
   19.5592  -20.5206  -17.9766 C   0  0  0  0  0  0  0  0  0  0  0  0
   20.2425  -19.7650  -17.0398 C   0  0  0  0  0  0  0  0  0  0  0  0
   21.4650  -20.2896  -16.3858 C   0  0  0  0  0  0  0  0  0  0  0  0
   22.7051  -19.5770  -16.9112 C   0  0  2  0  0  0  0  0  0  0  0  0
   22.9305  -20.0947  -18.2295 N   0  0  0  0  0  0  0  0  0  0  0  0
   23.8785  -19.8972  -16.0217 C   0  0  0  0  0  0  0  0  0  0  0  0
   24.4346  -20.9881  -16.2676 O   0  0  0  0  0  0  0  0  0  0  0  0
   19.7292  -18.5066  -16.7496 C   0  0  0  0  0  0  0  0  0  0  0  0
   18.5828  -18.0121  -17.3612 C   0  0  0  0  0  0  0  0  0  0  0  0
   29.3579  -16.6316  -18.3917 O   0  0  0  0  0  0  0  0  0  0  0  0
   28.5228  -16.9320  -17.2920 C   0  0  0  0  0  0  0  0  0  0  0  0
   27.4015  -16.1859  -17.0230 C   0  0  0  0  0  0  0  0  0  0  0  0
   26.6149  -16.5214  -15.9301 C   0  0  0  0  0  0  0  0  0  0  0  0
   26.9032  -17.5644  -15.1028 C   0  0  0  0  0  0  0  0  0  0  0  0
   26.0055  -17.8061  -13.9573 C   0  0  0  0  0  0  0  0  0  0  0  0
   25.3337  -19.2167  -14.1290 C   0  0  2  0  0  0  0  0  0  0  0  0
   24.2572  -18.9906  -15.0170 N   0  0  0  0  0  0  0  0  0  0  0  0
   25.0435  -19.7528  -12.8424 C   0  0  0  0  0  0  0  0  0  0  0  0
   23.8862  -19.4308  -12.3333 O   0  0  0  0  0  0  0  0  0  0  0  0
   28.0162  -18.3088  -15.3620 C   0  0  0  0  0  0  0  0  0  0  0  0
   28.8264  -17.9850  -16.4657 C   0  0  0  0  0  0  0  0  0  0  0  0
   25.8288  -20.5957  -12.0367 N   0  0  0  0  0  0  0  0  0  0  0  0
   27.1244  -21.2014  -12.3146 C   0  0  0  0  0  0  0  0  0  0  0  0
   27.0661  -22.5225  -11.5329 C   0  0  0  0  0  0  0  0  0  0  0  0
   26.4367  -22.0351  -10.2464 C   0  0  0  0  0  0  0  0  0  0  0  0
   25.4036  -21.1041  -10.7237 C   0  0  1  0  0  0  0  0  0  0  0  0
   25.1217  -19.9939   -9.7734 C   0  0  0  0  0  0  0  0  0  0  0  0
   24.2878  -20.2822   -8.7023 O   0  0  0  0  0  0  0  0  0  0  0  0
   25.5742  -18.8339   -9.8700 O   0  0  0  0  0  0  0  0  0  0  0  0
  2  1  1  0
  3  2  2  0
  4  3  1  0
  5 11  1  0
  5  4  2  0
  6  5  1  0
  7  9  1  0
  7  6  1  0
  7  8  1  6
  9 20  1  0
  9 10  2  0
 11 12  2  0
 12  2  1  0
 13 14  1  0
 14 24  2  0
 15 16  2  0
 15 14  1  0
 16 17  1  0
 17 18  1  0
 17 23  2  0
 19 18  1  1
 20 19  1  0
 21 19  1  0
 22 21  2  0
 24 23  1  0
 25 21  1  0
 25 29  1  0
 26 25  1  0
 27 26  1  0
 27 28  1  0
 28 29  1  0
 29 30  1  1
 30 32  2  0
 30 31  1  0
M  END
$$$$
