QYS.pdb
     RDKit          3D

 28 28  0  0  1  0  0  0  0  0999 V2000
   24.6873  -12.2002  -22.1413 N   0  0  0  0  0  0  0  0  0  0  0  0
   25.0299  -13.1755  -23.1602 C   0  0  0  0  0  0  0  0  0  0  0  0
   26.1471  -13.0335  -23.6848 O   0  0  0  0  0  0  0  0  0  0  0  0
   24.0771  -14.2315  -23.5049 C   0  0  0  0  0  0  0  0  0  0  0  0
   22.8261  -14.1859  -22.7230 C   0  0  0  0  0  0  0  0  0  0  0  0
   22.4218  -15.3959  -21.9697 C   0  0  2  0  0  0  0  0  0  0  0  0
   22.4394  -16.6423  -22.6348 N   0  0  0  0  0  0  0  0  0  0  0  0
   21.0764  -15.0858  -21.3543 C   0  0  0  0  0  0  0  0  0  0  0  0
   20.0266  -15.5739  -21.8586 O   0  0  0  0  0  0  0  0  0  0  0  0
   19.2925  -20.2944  -18.3669 O   0  0  0  0  0  0  0  0  0  0  0  0
   19.2758  -18.9015  -18.3710 C   0  0  0  0  0  0  0  0  0  0  0  0
   18.1442  -18.1711  -18.6270 C   0  0  0  0  0  0  0  0  0  0  0  0
   18.1733  -16.7925  -18.6207 C   0  0  0  0  0  0  0  0  0  0  0  0
   19.3269  -16.0802  -18.3603 C   0  0  0  0  0  0  0  0  0  0  0  0
   19.3934  -14.6079  -18.3522 C   0  0  0  0  0  0  0  0  0  0  0  0
   19.5907  -13.9969  -19.7197 C   0  0  2  0  0  0  0  0  0  0  0  0
   20.9397  -14.2553  -20.2160 N   0  0  0  0  0  0  0  0  0  0  0  0
   19.3821  -12.5330  -19.7508 C   0  0  0  0  0  0  0  0  0  0  0  0
   20.3665  -11.7882  -19.5129 O   0  0  0  0  0  0  0  0  0  0  0  0
   20.4573  -16.8626  -18.1045 C   0  0  0  0  0  0  0  0  0  0  0  0
   20.4378  -18.2330  -18.1084 C   0  0  0  0  0  0  0  0  0  0  0  0
   15.6465  -10.7670  -20.1230 O   0  0  0  0  0  0  0  0  0  0  0  0
   16.7166  -10.0854  -20.7067 C   0  0  0  0  0  0  0  0  0  0  0  0
   18.0048  -10.5314  -20.0463 C   0  0  2  0  0  0  0  0  0  0  0  0
   18.1241  -11.9610  -20.0367 N   0  0  0  0  0  0  0  0  0  0  0  0
   17.9752  -10.0455  -18.6477 C   0  0  0  0  0  0  0  0  0  0  0  0
   17.8998   -8.6762  -18.3861 O   0  0  0  0  0  0  0  0  0  0  0  0
   18.0172  -10.8508  -17.6942 O   0  0  0  0  0  0  0  0  0  0  0  0
  2  1  1  0
  2  3  2  0
  4  5  1  0
  4  2  1  0
  5  6  1  0
  6  8  1  0
  6  7  1  6
  8  9  2  0
 10 11  1  0
 11 21  2  0
 11 12  1  0
 12 13  2  0
 13 14  1  0
 14 15  1  0
 16 15  1  1
 17 16  1  0
 17  8  1  0
 18 16  1  0
 19 18  2  0
 20 14  2  0
 21 20  1  0
 23 22  1  0
 24 23  1  1
 24 25  1  0
 25 18  1  0
 26 27  1  0
 26 24  1  0
 28 26  2  0
M  END
$$$$
