QYS.pdb
     RDKit          3D

 28 28  0  0  1  0  0  0  0  0999 V2000
   26.3925  -21.3541  -18.3076 N   0  0  0  0  0  0  0  0  0  0  0  0
   26.5855  -22.6254  -18.9809 C   0  0  0  0  0  0  0  0  0  0  0  0
   27.4771  -22.6444  -19.8459 O   0  0  0  0  0  0  0  0  0  0  0  0
   25.7501  -23.7721  -18.6218 C   0  0  0  0  0  0  0  0  0  0  0  0
   24.8298  -23.5120  -17.4976 C   0  0  0  0  0  0  0  0  0  0  0  0
   25.3870  -23.4741  -16.1254 C   0  0  2  0  0  0  0  0  0  0  0  0
   25.9834  -24.6451  -15.6066 N   0  0  0  0  0  0  0  0  0  0  0  0
   24.2901  -22.9382  -15.2340 C   0  0  0  0  0  0  0  0  0  0  0  0
   23.5790  -23.7369  -14.5623 O   0  0  0  0  0  0  0  0  0  0  0  0
   25.7145  -21.1379   -8.2451 O   0  0  0  0  0  0  0  0  0  0  0  0
   25.1432  -20.8402   -9.4802 C   0  0  0  0  0  0  0  0  0  0  0  0
   23.7899  -20.7261   -9.6666 C   0  0  0  0  0  0  0  0  0  0  0  0
   23.2673  -20.4297  -10.9077 C   0  0  0  0  0  0  0  0  0  0  0  0
   24.0659  -20.2342  -12.0168 C   0  0  0  0  0  0  0  0  0  0  0  0
   23.5395  -19.9227  -13.3576 C   0  0  0  0  0  0  0  0  0  0  0  0
   23.0443  -21.1315  -14.1165 C   0  0  2  0  0  0  0  0  0  0  0  0
   24.0199  -21.5534  -15.1181 N   0  0  0  0  0  0  0  0  0  0  0  0
   21.7614  -20.9072  -14.8173 C   0  0  0  0  0  0  0  0  0  0  0  0
   21.7798  -20.2637  -15.8971 O   0  0  0  0  0  0  0  0  0  0  0  0
   25.4390  -20.3594  -11.7835 C   0  0  0  0  0  0  0  0  0  0  0  0
   25.9673  -20.6535  -10.5536 C   0  0  0  0  0  0  0  0  0  0  0  0
   18.7560  -23.3989  -14.8028 O   0  0  0  0  0  0  0  0  0  0  0  0
   18.7969  -22.3512  -15.7253 C   0  0  0  0  0  0  0  0  0  0  0  0
   19.3325  -21.1110  -15.0400 C   0  0  2  0  0  0  0  0  0  0  0  0
   20.5360  -21.3905  -14.3109 N   0  0  0  0  0  0  0  0  0  0  0  0
   18.2950  -20.6490  -14.0895 C   0  0  0  0  0  0  0  0  0  0  0  0
   17.0242  -20.3069  -14.5556 O   0  0  0  0  0  0  0  0  0  0  0  0
   18.5450  -20.5614  -12.8692 O   0  0  0  0  0  0  0  0  0  0  0  0
  2  1  1  0
  2  3  2  0
  4  5  1  0
  4  2  1  0
  5  6  1  0
  6  8  1  0
  6  7  1  1
  8  9  2  0
 10 11  1  0
 11 21  2  0
 11 12  1  0
 12 13  2  0
 13 14  1  0
 14 15  1  0
 16 15  1  6
 17 16  1  0
 17  8  1  0
 18 16  1  0
 19 18  2  0
 20 14  2  0
 21 20  1  0
 23 22  1  0
 24 23  1  1
 24 25  1  0
 25 18  1  0
 26 27  1  0
 26 24  1  0
 28 26  2  0
M  END
$$$$
