QYS.pdb
     RDKit          3D

 28 28  0  0  1  0  0  0  0  0999 V2000
   20.9754  -23.7849  -13.1696 N   0  0  0  0  0  0  0  0  0  0  0  0
   19.7671  -22.9876  -13.2746 C   0  0  0  0  0  0  0  0  0  0  0  0
   18.7352  -23.5160  -12.8280 O   0  0  0  0  0  0  0  0  0  0  0  0
   19.8251  -21.6566  -13.8803 C   0  0  0  0  0  0  0  0  0  0  0  0
   21.1804  -21.0731  -13.9119 C   0  0  0  0  0  0  0  0  0  0  0  0
   21.6453  -20.3073  -12.7318 C   0  0  2  0  0  0  0  0  0  0  0  0
   21.0236  -19.0724  -12.4410 N   0  0  0  0  0  0  0  0  0  0  0  0
   23.1457  -20.1836  -12.8674 C   0  0  0  0  0  0  0  0  0  0  0  0
   23.6487  -19.1329  -13.3550 O   0  0  0  0  0  0  0  0  0  0  0  0
   26.4057  -18.9253   -6.5277 O   0  0  0  0  0  0  0  0  0  0  0  0
   26.3342  -19.6343   -7.7246 C   0  0  0  0  0  0  0  0  0  0  0  0
   25.6367  -20.8073   -7.8549 C   0  0  0  0  0  0  0  0  0  0  0  0
   25.5927  -21.4764   -9.0597 C   0  0  0  0  0  0  0  0  0  0  0  0
   26.2395  -21.0098  -10.1866 C   0  0  0  0  0  0  0  0  0  0  0  0
   26.2178  -21.7034  -11.4868 C   0  0  0  0  0  0  0  0  0  0  0  0
   25.4629  -20.9604  -12.5640 C   0  0  2  0  0  0  0  0  0  0  0  0
   24.0282  -21.2146  -12.4645 N   0  0  0  0  0  0  0  0  0  0  0  0
   25.8805  -21.3202  -13.9365 C   0  0  0  0  0  0  0  0  0  0  0  0
   25.5249  -22.4369  -14.3913 O   0  0  0  0  0  0  0  0  0  0  0  0
   26.9385  -19.8115  -10.0110 C   0  0  0  0  0  0  0  0  0  0  0  0
   26.9877  -19.1396   -8.8175 C   0  0  0  0  0  0  0  0  0  0  0  0
   28.2590  -18.8711  -16.2589 O   0  0  0  0  0  0  0  0  0  0  0  0
   27.3168  -19.6453  -16.9396 C   0  0  0  0  0  0  0  0  0  0  0  0
   26.9507  -20.8412  -16.0849 C   0  0  2  0  0  0  0  0  0  0  0  0
   26.6566  -20.4536  -14.7353 N   0  0  0  0  0  0  0  0  0  0  0  0
   28.1185  -21.7518  -16.0764 C   0  0  0  0  0  0  0  0  0  0  0  0
   28.5532  -22.3403  -17.2655 O   0  0  0  0  0  0  0  0  0  0  0  0
   28.7222  -22.0009  -15.0121 O   0  0  0  0  0  0  0  0  0  0  0  0
  2  1  1  0
  2  3  2  0
  4  5  1  0
  4  2  1  0
  5  6  1  0
  6  8  1  0
  6  7  1  6
  8  9  2  0
 10 11  1  0
 11 21  2  0
 11 12  1  0
 12 13  2  0
 13 14  1  0
 14 15  1  0
 16 15  1  1
 17 16  1  0
 17  8  1  0
 18 16  1  0
 19 18  2  0
 20 14  2  0
 21 20  1  0
 23 22  1  0
 24 23  1  6
 24 25  1  0
 25 18  1  0
 26 27  1  0
 26 24  1  0
 28 26  2  0
M  END
$$$$
