QYS.pdb
     RDKit          3D

 28 28  0  0  1  0  0  0  0  0999 V2000
   27.0767  -19.5325  -18.7393 N   0  0  0  0  0  0  0  0  0  0  0  0
   27.5194  -20.4752  -19.7503 C   0  0  0  0  0  0  0  0  0  0  0  0
   28.0910  -19.9773  -20.7345 O   0  0  0  0  0  0  0  0  0  0  0  0
   27.2757  -21.9064  -19.5657 C   0  0  0  0  0  0  0  0  0  0  0  0
   26.6873  -22.2482  -18.2560 C   0  0  0  0  0  0  0  0  0  0  0  0
   27.5677  -22.2394  -17.0644 C   0  0  2  0  0  0  0  0  0  0  0  0
   28.5103  -23.2810  -16.9140 N   0  0  0  0  0  0  0  0  0  0  0  0
   26.6596  -22.1012  -15.8639 C   0  0  0  0  0  0  0  0  0  0  0  0
   26.0333  -23.1081  -15.4297 O   0  0  0  0  0  0  0  0  0  0  0  0
   24.9651  -21.0937   -7.6312 O   0  0  0  0  0  0  0  0  0  0  0  0
   25.2495  -20.7838   -8.9592 C   0  0  0  0  0  0  0  0  0  0  0  0
   26.4728  -21.0164   -9.5326 C   0  0  0  0  0  0  0  0  0  0  0  0
   26.7105  -20.6937  -10.8520 C   0  0  0  0  0  0  0  0  0  0  0  0
   25.7442  -20.1262  -11.6582 C   0  0  0  0  0  0  0  0  0  0  0  0
   25.9675  -19.7638  -13.0692 C   0  0  0  0  0  0  0  0  0  0  0  0
   25.5701  -20.8434  -14.0484 C   0  0  2  0  0  0  0  0  0  0  0  0
   26.4768  -20.8680  -15.1931 N   0  0  0  0  0  0  0  0  0  0  0  0
   24.1972  -20.6890  -14.5764 C   0  0  0  0  0  0  0  0  0  0  0  0
   24.0289  -19.9621  -15.5881 O   0  0  0  0  0  0  0  0  0  0  0  0
   24.5119  -19.9059  -11.0350 C   0  0  0  0  0  0  0  0  0  0  0  0
   24.2665  -20.2235   -9.7246 C   0  0  0  0  0  0  0  0  0  0  0  0
   19.9822  -21.9641  -15.7762 O   0  0  0  0  0  0  0  0  0  0  0  0
   21.2392  -22.2785  -15.2551 C   0  0  0  0  0  0  0  0  0  0  0  0
   21.7809  -21.0741  -14.5131 C   0  0  2  0  0  0  0  0  0  0  0  0
   23.0888  -21.3280  -13.9809 N   0  0  0  0  0  0  0  0  0  0  0  0
   20.8554  -20.7934  -13.3916 C   0  0  0  0  0  0  0  0  0  0  0  0
   19.5449  -20.3891  -13.6528 O   0  0  0  0  0  0  0  0  0  0  0  0
   21.2356  -20.9149  -12.2084 O   0  0  0  0  0  0  0  0  0  0  0  0
  2  1  1  0
  2  3  2  0
  4  5  1  0
  4  2  1  0
  5  6  1  0
  6  8  1  0
  6  7  1  1
  8  9  2  0
 10 11  1  0
 11 21  2  0
 11 12  1  0
 12 13  2  0
 13 14  1  0
 14 15  1  0
 16 15  1  1
 17 16  1  0
 17  8  1  0
 18 16  1  0
 19 18  2  0
 20 14  2  0
 21 20  1  0
 23 22  1  0
 24 23  1  1
 24 25  1  0
 25 18  1  0
 26 27  1  0
 26 24  1  0
 28 26  2  0
M  END
$$$$
