QYS.pdb
     RDKit          3D

 28 28  0  0  1  0  0  0  0  0999 V2000
   28.8806  -23.3452  -16.1915 N   0  0  0  0  0  0  0  0  0  0  0  0
   28.8812  -23.6136  -17.6179 C   0  0  0  0  0  0  0  0  0  0  0  0
   29.7680  -24.3862  -18.0181 O   0  0  0  0  0  0  0  0  0  0  0  0
   27.8784  -22.9821  -18.4766 C   0  0  0  0  0  0  0  0  0  0  0  0
   26.8909  -22.1672  -17.7422 C   0  0  0  0  0  0  0  0  0  0  0  0
   27.0803  -20.6983  -17.7020 C   0  0  2  0  0  0  0  0  0  0  0  0
   28.3782  -20.1913  -17.4691 N   0  0  0  0  0  0  0  0  0  0  0  0
   26.0638  -20.1638  -16.7191 C   0  0  0  0  0  0  0  0  0  0  0  0
   26.3946  -19.9676  -15.5163 O   0  0  0  0  0  0  0  0  0  0  0  0
   28.2123  -14.4050  -17.0007 O   0  0  0  0  0  0  0  0  0  0  0  0
   27.0946  -15.2351  -16.9537 C   0  0  0  0  0  0  0  0  0  0  0  0
   26.7058  -16.0210  -18.0076 C   0  0  0  0  0  0  0  0  0  0  0  0
   25.5916  -16.8282  -17.9173 C   0  0  0  0  0  0  0  0  0  0  0  0
   24.8157  -16.8897  -16.7770 C   0  0  0  0  0  0  0  0  0  0  0  0
   23.6161  -17.7365  -16.6500 C   0  0  0  0  0  0  0  0  0  0  0  0
   23.9027  -19.1315  -16.1458 C   0  0  2  0  0  0  0  0  0  0  0  0
   24.7314  -19.8688  -17.0958 N   0  0  0  0  0  0  0  0  0  0  0  0
   22.6855  -19.9365  -15.9047 C   0  0  0  0  0  0  0  0  0  0  0  0
   22.2856  -20.6968  -16.8224 O   0  0  0  0  0  0  0  0  0  0  0  0
   25.2466  -16.0735  -15.7265 C   0  0  0  0  0  0  0  0  0  0  0  0
   26.3526  -15.2682  -15.8072 C   0  0  0  0  0  0  0  0  0  0  0  0
   19.0893  -21.3771  -13.0463 O   0  0  0  0  0  0  0  0  0  0  0  0
   20.2536  -20.6099  -13.1239 C   0  0  0  0  0  0  0  0  0  0  0  0
   20.7991  -20.6824  -14.5352 C   0  0  2  0  0  0  0  0  0  0  0  0
   21.9734  -19.8726  -14.6880 N   0  0  0  0  0  0  0  0  0  0  0  0
   19.7458  -20.1718  -15.4424 C   0  0  0  0  0  0  0  0  0  0  0  0
   18.7396  -21.0274  -15.8949 O   0  0  0  0  0  0  0  0  0  0  0  0
   19.7470  -18.9782  -15.8093 O   0  0  0  0  0  0  0  0  0  0  0  0
  2  1  1  0
  2  3  2  0
  4  5  1  0
  4  2  1  0
  5  6  1  0
  6  8  1  0
  6  7  1  1
  8  9  2  0
 10 11  1  0
 11 21  2  0
 11 12  1  0
 12 13  2  0
 13 14  1  0
 14 15  1  0
 16 15  1  6
 17 16  1  0
 17  8  1  0
 18 16  1  0
 19 18  2  0
 20 14  2  0
 21 20  1  0
 23 22  1  0
 24 23  1  1
 24 25  1  0
 25 18  1  0
 26 27  1  0
 26 24  1  0
 28 26  2  0
M  END
$$$$
