QYS.pdb
     RDKit          3D

 28 28  0  0  1  0  0  0  0  0999 V2000
   34.0132  -38.5083   -2.1095 N   0  0  0  0  0  0  0  0  0  0  0  0
   33.8326  -38.5757   -3.5481 C   0  0  0  0  0  0  0  0  0  0  0  0
   33.1524  -39.5305   -3.9592 O   0  0  0  0  0  0  0  0  0  0  0  0
   34.4403  -37.5570   -4.4052 C   0  0  0  0  0  0  0  0  0  0  0  0
   33.4836  -36.5530   -4.9104 C   0  0  0  0  0  0  0  0  0  0  0  0
   32.7751  -36.8322   -6.1813 C   0  0  2  0  0  0  0  0  0  0  0  0
   33.5334  -36.9305   -7.3692 N   0  0  0  0  0  0  0  0  0  0  0  0
   31.6654  -35.8110   -6.2844 C   0  0  0  0  0  0  0  0  0  0  0  0
   31.8112  -34.7960   -7.0215 O   0  0  0  0  0  0  0  0  0  0  0  0
   24.6038  -31.7166   -8.7296 O   0  0  0  0  0  0  0  0  0  0  0  0
   25.6569  -32.5526   -8.3656 C   0  0  0  0  0  0  0  0  0  0  0  0
   25.4982  -33.6321   -7.5356 C   0  0  0  0  0  0  0  0  0  0  0  0
   26.5693  -34.4334   -7.2012 C   0  0  0  0  0  0  0  0  0  0  0  0
   27.8439  -34.1972   -7.6764 C   0  0  0  0  0  0  0  0  0  0  0  0
   29.0106  -35.0298   -7.3336 C   0  0  0  0  0  0  0  0  0  0  0  0
   29.3804  -34.9916   -5.8693 C   0  0  2  0  0  0  0  0  0  0  0  0
   30.4469  -35.9453   -5.5763 N   0  0  0  0  0  0  0  0  0  0  0  0
   28.2518  -35.3002   -4.9646 C   0  0  0  0  0  0  0  0  0  0  0  0
   27.9853  -36.5078   -4.7390 O   0  0  0  0  0  0  0  0  0  0  0  0
   27.9622  -33.0875   -8.5191 C   0  0  0  0  0  0  0  0  0  0  0  0
   26.9033  -32.2857   -8.8569 C   0  0  0  0  0  0  0  0  0  0  0  0
   26.9857  -32.8666   -1.9819 O   0  0  0  0  0  0  0  0  0  0  0  0
   25.9271  -33.4726   -2.6619 C   0  0  0  0  0  0  0  0  0  0  0  0
   26.4534  -34.6677   -3.4295 C   0  0  2  0  0  0  0  0  0  0  0  0
   27.4788  -34.2873   -4.3579 N   0  0  0  0  0  0  0  0  0  0  0  0
   25.3164  -35.2436   -4.1836 C   0  0  0  0  0  0  0  0  0  0  0  0
   24.2061  -35.7419   -3.4995 O   0  0  0  0  0  0  0  0  0  0  0  0
   25.3394  -35.2890   -5.4314 O   0  0  0  0  0  0  0  0  0  0  0  0
  2  1  1  0
  2  3  2  0
  4  5  1  0
  4  2  1  0
  5  6  1  0
  6  8  1  0
  6  7  1  6
  8  9  2  0
 10 11  1  0
 11 21  2  0
 11 12  1  0
 12 13  2  0
 13 14  1  0
 14 15  1  0
 16 15  1  6
 17 16  1  0
 17  8  1  0
 18 16  1  0
 19 18  2  0
 20 14  2  0
 21 20  1  0
 23 22  1  0
 24 23  1  6
 24 25  1  0
 25 18  1  0
 26 27  1  0
 26 24  1  0
 28 26  2  0
M  END
$$$$
