QYS.pdb
     RDKit          3D

 28 28  0  0  1  0  0  0  0  0999 V2000
   28.2155  -17.7079  -19.6839 N   0  0  0  0  0  0  0  0  0  0  0  0
   28.4414  -19.1024  -20.0170 C   0  0  0  0  0  0  0  0  0  0  0  0
   29.6210  -19.4136  -20.2518 O   0  0  0  0  0  0  0  0  0  0  0  0
   27.3114  -20.0314  -20.0604 C   0  0  0  0  0  0  0  0  0  0  0  0
   26.9412  -20.5838  -18.7428 C   0  0  0  0  0  0  0  0  0  0  0  0
   28.0065  -21.1833  -17.9058 C   0  0  2  0  0  0  0  0  0  0  0  0
   28.6766  -22.3307  -18.3858 N   0  0  0  0  0  0  0  0  0  0  0  0
   27.4046  -21.3941  -16.5353 C   0  0  0  0  0  0  0  0  0  0  0  0
   26.7379  -22.4394  -16.2951 O   0  0  0  0  0  0  0  0  0  0  0  0
   25.0629  -20.6502   -8.0454 O   0  0  0  0  0  0  0  0  0  0  0  0
   25.6612  -20.4389   -9.2854 C   0  0  0  0  0  0  0  0  0  0  0  0
   25.4435  -19.3119  -10.0350 C   0  0  0  0  0  0  0  0  0  0  0  0
   26.0573  -19.1441  -11.2583 C   0  0  0  0  0  0  0  0  0  0  0  0
   26.9131  -20.0880  -11.7898 C   0  0  0  0  0  0  0  0  0  0  0  0
   27.5798  -19.9425  -13.0961 C   0  0  0  0  0  0  0  0  0  0  0  0
   26.9522  -20.7638  -14.1980 C   0  0  2  0  0  0  0  0  0  0  0  0
   27.5582  -20.4521  -15.4897 N   0  0  0  0  0  0  0  0  0  0  0  0
   25.4939  -20.5580  -14.3337 C   0  0  0  0  0  0  0  0  0  0  0  0
   25.0903  -19.6951  -15.1540 O   0  0  0  0  0  0  0  0  0  0  0  0
   27.1078  -21.2213  -10.9940 C   0  0  0  0  0  0  0  0  0  0  0  0
   26.5023  -21.3966   -9.7771 C   0  0  0  0  0  0  0  0  0  0  0  0
   21.6052  -19.3425  -14.4360 O   0  0  0  0  0  0  0  0  0  0  0  0
   22.9729  -19.6094  -14.3435 C   0  0  0  0  0  0  0  0  0  0  0  0
   23.1688  -20.9582  -13.6825 C   0  0  2  0  0  0  0  0  0  0  0  0
   24.5591  -21.2957  -13.5764 N   0  0  0  0  0  0  0  0  0  0  0  0
   22.4959  -21.9678  -14.5316 C   0  0  0  0  0  0  0  0  0  0  0  0
   21.1041  -21.9709  -14.6422 O   0  0  0  0  0  0  0  0  0  0  0  0
   23.1626  -22.8213  -15.1532 O   0  0  0  0  0  0  0  0  0  0  0  0
  2  1  1  0
  2  3  2  0
  4  5  1  0
  4  2  1  0
  5  6  1  0
  6  8  1  0
  6  7  1  6
  8  9  2  0
 10 11  1  0
 11 21  2  0
 11 12  1  0
 12 13  2  0
 13 14  1  0
 14 15  1  0
 16 15  1  1
 17 16  1  0
 17  8  1  0
 18 16  1  0
 19 18  2  0
 20 14  2  0
 21 20  1  0
 23 22  1  0
 24 23  1  6
 24 25  1  0
 25 18  1  0
 26 27  1  0
 26 24  1  0
 28 26  2  0
M  END
$$$$
