VNV.pdb
     RDKit          3D

 23 22  0  0  1  0  0  0  0  0999 V2000
   15.4517  -13.6416  -18.2789 C   0  0  0  0  0  0  0  0  0  0  0  0
   16.6932  -14.4763  -18.4691 C   0  0  2  0  0  0  0  0  0  0  0  0
   16.3557  -15.8952  -18.0277 C   0  0  0  0  0  0  0  0  0  0  0  0
   17.8219  -14.0036  -17.5886 C   0  0  2  0  0  0  0  0  0  0  0  0
   17.5064  -14.1580  -16.2023 N   0  0  0  0  0  0  0  0  0  0  0  0
   18.1596  -12.5763  -17.8280 C   0  0  0  0  0  0  0  0  0  0  0  0
   18.5982  -12.1561  -18.9336 O   0  0  0  0  0  0  0  0  0  0  0  0
   17.8821   -7.1717  -18.3073 N   0  0  0  0  0  0  0  0  0  0  0  0
   17.7004   -7.8652  -17.0885 C   0  0  0  0  0  0  0  0  0  0  0  0
   17.8707   -7.2448  -16.0184 O   0  0  0  0  0  0  0  0  0  0  0  0
   17.3224   -9.2728  -17.1215 C   0  0  0  0  0  0  0  0  0  0  0  0
   18.4708  -10.2311  -16.9556 C   0  0  2  0  0  0  0  0  0  0  0  0
   17.9981  -11.6086  -16.7993 N   0  0  0  0  0  0  0  0  0  0  0  0
   19.2355   -9.9068  -15.7204 C   0  0  0  0  0  0  0  0  0  0  0  0
   18.7663  -10.0668  -14.5590 O   0  0  0  0  0  0  0  0  0  0  0  0
   23.4170   -9.2060  -15.8745 C   0  0  0  0  0  0  0  0  0  0  0  0
   22.7089   -9.6588  -14.6236 C   0  0  2  0  0  0  0  0  0  0  0  0
   22.5512  -11.1594  -14.7042 C   0  0  0  0  0  0  0  0  0  0  0  0
   21.3238   -9.0448  -14.5856 C   0  0  2  0  0  0  0  0  0  0  0  0
   20.5707   -9.3856  -15.7781 N   0  0  0  0  0  0  0  0  0  0  0  0
   21.3843   -7.5840  -14.4116 C   0  0  0  0  0  0  0  0  0  0  0  0
   21.1019   -6.8445  -15.3921 O   0  0  0  0  0  0  0  0  0  0  0  0
   21.7454   -7.0573  -13.1902 O   0  0  0  0  0  0  0  0  0  0  0  0
  2  1  1  1
  2  3  1  0
  4  2  1  0
  4  5  1  1
  6  4  1  0
  6 13  1  0
  7  6  2  0
  8  9  1  0
  9 11  1  0
  9 10  2  0
 12 11  1  1
 12 13  1  0
 12 14  1  0
 14 20  1  0
 15 14  2  0
 17 16  1  6
 18 17  1  0
 19 17  1  0
 19 21  1  0
 19 20  1  6
 21 23  1  0
 22 21  2  0
M  END
$$$$
