VNV.pdb
     RDKit          3D

 23 22  0  0  1  0  0  0  0  0999 V2000
   16.8108  -17.3839  -18.0593 C   0  0  0  0  0  0  0  0  0  0  0  0
   16.7239  -16.6837  -19.3921 C   0  0  2  0  0  0  0  0  0  0  0  0
   17.4616  -17.5495  -20.4062 C   0  0  0  0  0  0  0  0  0  0  0  0
   17.4258  -15.3498  -19.3668 C   0  0  2  0  0  0  0  0  0  0  0  0
   18.8381  -15.5026  -19.2022 N   0  0  0  0  0  0  0  0  0  0  0  0
   16.9267  -14.4745  -18.2744 C   0  0  0  0  0  0  0  0  0  0  0  0
   15.7134  -14.1476  -18.1636 O   0  0  0  0  0  0  0  0  0  0  0  0
   15.4035  -14.4763  -14.2980 N   0  0  0  0  0  0  0  0  0  0  0  0
   16.7879  -14.7059  -14.4721 C   0  0  0  0  0  0  0  0  0  0  0  0
   17.2305  -15.8571  -14.2771 O   0  0  0  0  0  0  0  0  0  0  0  0
   17.6472  -13.5979  -14.8709 C   0  0  0  0  0  0  0  0  0  0  0  0
   17.3589  -13.0469  -16.2414 C   0  0  2  0  0  0  0  0  0  0  0  0
   17.8155  -13.9608  -17.2909 N   0  0  0  0  0  0  0  0  0  0  0  0
   18.0959  -11.7700  -16.4466 C   0  0  0  0  0  0  0  0  0  0  0  0
   19.3428  -11.7189  -16.6398 O   0  0  0  0  0  0  0  0  0  0  0  0
   15.9996   -8.0727  -17.0089 C   0  0  0  0  0  0  0  0  0  0  0  0
   17.3802   -8.3298  -17.5558 C   0  0  2  0  0  0  0  0  0  0  0  0
   17.2235   -9.0493  -18.8752 C   0  0  0  0  0  0  0  0  0  0  0  0
   18.1278   -9.2473  -16.6092 C   0  0  2  0  0  0  0  0  0  0  0  0
   17.4225  -10.5035  -16.4367 N   0  0  0  0  0  0  0  0  0  0  0  0
   18.3646   -8.6036  -15.3063 C   0  0  0  0  0  0  0  0  0  0  0  0
   19.1670   -7.6337  -15.2463 O   0  0  0  0  0  0  0  0  0  0  0  0
   17.7100   -9.0697  -14.1865 O   0  0  0  0  0  0  0  0  0  0  0  0
  2  1  1  1
  2  3  1  0
  4  2  1  0
  4  5  1  1
  6  4  1  0
  6 13  1  0
  7  6  2  0
  8  9  1  0
  9 11  1  0
  9 10  2  0
 12 11  1  1
 12 13  1  0
 12 14  1  0
 14 20  1  0
 15 14  2  0
 17 16  1  1
 18 17  1  0
 19 17  1  0
 19 21  1  0
 19 20  1  1
 21 23  1  0
 22 21  2  0
M  END
$$$$
