VNV.pdb
     RDKit          3D

 23 22  0  0  1  0  0  0  0  0999 V2000
   15.1041  -11.7902  -13.5601 C   0  0  0  0  0  0  0  0  0  0  0  0
   15.0102  -11.1387  -14.9170 C   0  0  2  0  0  0  0  0  0  0  0  0
   15.5248  -12.1458  -15.9382 C   0  0  0  0  0  0  0  0  0  0  0  0
   15.9005   -9.9261  -15.0149 C   0  0  2  0  0  0  0  0  0  0  0  0
   17.2785  -10.2719  -14.8517 N   0  0  0  0  0  0  0  0  0  0  0  0
   15.5601   -8.8973  -13.9980 C   0  0  0  0  0  0  0  0  0  0  0  0
   14.4159   -8.3725  -13.9161 O   0  0  0  0  0  0  0  0  0  0  0  0
   16.0247   -5.2599  -10.3264 N   0  0  0  0  0  0  0  0  0  0  0  0
   16.8278   -6.3571   -9.9381 C   0  0  0  0  0  0  0  0  0  0  0  0
   17.3400   -6.3475   -8.7994 O   0  0  0  0  0  0  0  0  0  0  0  0
   17.0300   -7.4560  -10.8743 C   0  0  0  0  0  0  0  0  0  0  0  0
   16.2832   -7.3145  -12.1731 C   0  0  2  0  0  0  0  0  0  0  0  0
   16.5308   -8.4550  -13.0582 N   0  0  0  0  0  0  0  0  0  0  0  0
   16.7508   -6.1057  -12.9050 C   0  0  0  0  0  0  0  0  0  0  0  0
   17.9340   -5.9710  -13.3254 O   0  0  0  0  0  0  0  0  0  0  0  0
   15.5707   -2.0619  -15.4865 C   0  0  0  0  0  0  0  0  0  0  0  0
   15.1706   -3.3718  -14.8581 C   0  0  2  0  0  0  0  0  0  0  0  0
   13.9549   -3.1150  -13.9982 C   0  0  0  0  0  0  0  0  0  0  0  0
   16.2885   -3.8528  -13.9549 C   0  0  2  0  0  0  0  0  0  0  0  0
   15.8714   -5.0062  -13.1797 N   0  0  0  0  0  0  0  0  0  0  0  0
   16.7673   -2.7791  -13.0683 C   0  0  0  0  0  0  0  0  0  0  0  0
   16.2475   -2.6588  -11.9266 O   0  0  0  0  0  0  0  0  0  0  0  0
   17.7662   -1.9332  -13.4999 O   0  0  0  0  0  0  0  0  0  0  0  0
  2  1  1  1
  2  3  1  0
  4  2  1  0
  4  5  1  1
  6  4  1  0
  6 13  1  0
  7  6  2  0
  8  9  1  0
  9 11  1  0
  9 10  2  0
 12 11  1  1
 12 13  1  0
 12 14  1  0
 14 20  1  0
 15 14  2  0
 17 16  1  1
 18 17  1  0
 19 17  1  0
 19 21  1  0
 19 20  1  1
 21 23  1  0
 22 21  2  0
M  END
$$$$
