VNV.pdb
     RDKit          3D

 23 22  0  0  1  0  0  0  0  0999 V2000
   13.6891   -9.0933   -7.9721 C   0  0  0  0  0  0  0  0  0  0  0  0
   13.6570   -7.5859   -8.0041 C   0  0  2  0  0  0  0  0  0  0  0  0
   12.8689   -7.1771   -9.2426 C   0  0  0  0  0  0  0  0  0  0  0  0
   15.0390   -7.0029   -8.1558 C   0  0  2  0  0  0  0  0  0  0  0  0
   15.0051   -5.5737   -8.1903 N   0  0  0  0  0  0  0  0  0  0  0  0
   15.7151   -7.4777   -9.3911 C   0  0  0  0  0  0  0  0  0  0  0  0
   16.2136   -8.6318   -9.4944 O   0  0  0  0  0  0  0  0  0  0  0  0
   15.2511   -9.4115  -12.7385 N   0  0  0  0  0  0  0  0  0  0  0  0
   14.8816   -8.2038  -13.3744 C   0  0  0  0  0  0  0  0  0  0  0  0
   14.0395   -8.2483  -14.2953 O   0  0  0  0  0  0  0  0  0  0  0  0
   15.4922   -6.9546  -12.9365 C   0  0  0  0  0  0  0  0  0  0  0  0
   16.4397   -7.0965  -11.7760 C   0  0  2  0  0  0  0  0  0  0  0  0
   15.8289   -6.6322  -10.5283 N   0  0  0  0  0  0  0  0  0  0  0  0
   17.6463   -6.2522  -11.9924 C   0  0  0  0  0  0  0  0  0  0  0  0
   17.7219   -5.0503  -11.6124 O   0  0  0  0  0  0  0  0  0  0  0  0
   22.4064   -5.9291  -13.3353 C   0  0  0  0  0  0  0  0  0  0  0  0
   21.2488   -6.7657  -12.8547 C   0  0  2  0  0  0  0  0  0  0  0  0
   21.0963   -7.9277  -13.8086 C   0  0  0  0  0  0  0  0  0  0  0  0
   19.9788   -5.9409  -12.9166 C   0  0  2  0  0  0  0  0  0  0  0  0
   18.8116   -6.7623  -12.6553 N   0  0  0  0  0  0  0  0  0  0  0  0
   19.8458   -5.2489  -14.2094 C   0  0  0  0  0  0  0  0  0  0  0  0
   19.1363   -5.7749  -15.1083 O   0  0  0  0  0  0  0  0  0  0  0  0
   20.4940   -4.0493  -14.4104 O   0  0  0  0  0  0  0  0  0  0  0  0
  2  1  1  6
  2  3  1  0
  4  2  1  0
  4  5  1  6
  6  4  1  0
  6 13  1  0
  7  6  2  0
  8  9  1  0
  9 11  1  0
  9 10  2  0
 12 11  1  6
 12 13  1  0
 12 14  1  0
 14 20  1  0
 15 14  2  0
 17 16  1  6
 18 17  1  0
 19 17  1  0
 19 21  1  0
 19 20  1  6
 21 23  1  0
 22 21  2  0
M  END
$$$$
