VNV.pdb
     RDKit          3D

 23 22  0  0  1  0  0  0  0  0999 V2000
   19.8569  -14.6321  -18.8852 C   0  0  0  0  0  0  0  0  0  0  0  0
   19.3069  -13.4594  -18.1129 C   0  0  2  0  0  0  0  0  0  0  0  0
   18.1027  -12.9345  -18.8853 C   0  0  0  0  0  0  0  0  0  0  0  0
   20.3007  -12.3285  -18.0356 C   0  0  2  0  0  0  0  0  0  0  0  0
   21.4810  -12.7142  -17.3261 N   0  0  0  0  0  0  0  0  0  0  0  0
   19.7333  -11.1283  -17.3676 C   0  0  0  0  0  0  0  0  0  0  0  0
   18.7027  -10.5364  -17.7905 O   0  0  0  0  0  0  0  0  0  0  0  0
   18.9111   -7.2153  -14.0773 N   0  0  0  0  0  0  0  0  0  0  0  0
   19.3975   -8.3204  -13.3414 C   0  0  0  0  0  0  0  0  0  0  0  0
   19.4350   -8.2375  -12.0960 O   0  0  0  0  0  0  0  0  0  0  0  0
   19.8365   -9.5125  -14.0565 C   0  0  0  0  0  0  0  0  0  0  0  0
   19.8319   -9.3778  -15.5554 C   0  0  2  0  0  0  0  0  0  0  0  0
   20.3422  -10.5891  -16.2016 N   0  0  0  0  0  0  0  0  0  0  0  0
   20.7314   -8.2680  -15.9737 C   0  0  0  0  0  0  0  0  0  0  0  0
   21.9745   -8.2693  -15.7518 O   0  0  0  0  0  0  0  0  0  0  0  0
   19.3402   -5.4473  -18.8126 C   0  0  0  0  0  0  0  0  0  0  0  0
   20.7845   -5.8589  -18.6879 C   0  0  2  0  0  0  0  0  0  0  0  0
   20.9543   -7.1645  -19.4294 C   0  0  0  0  0  0  0  0  0  0  0  0
   21.1078   -6.1054  -17.2280 C   0  0  2  0  0  0  0  0  0  0  0  0
   20.2309   -7.1144  -16.6640 N   0  0  0  0  0  0  0  0  0  0  0  0
   21.0396   -4.8624  -16.4415 C   0  0  0  0  0  0  0  0  0  0  0  0
   20.0684   -4.6946  -15.6562 O   0  0  0  0  0  0  0  0  0  0  0  0
   22.0305   -3.9142  -16.5779 O   0  0  0  0  0  0  0  0  0  0  0  0
  2  1  1  6
  2  3  1  0
  4  2  1  0
  4  5  1  1
  6  4  1  0
  6 13  1  0
  7  6  2  0
  8  9  1  0
  9 11  1  0
  9 10  2  0
 12 11  1  1
 12 13  1  0
 12 14  1  0
 14 20  1  0
 15 14  2  0
 17 16  1  1
 18 17  1  0
 19 17  1  0
 19 21  1  0
 19 20  1  1
 21 23  1  0
 22 21  2  0
M  END
$$$$
