VNV.pdb
     RDKit          3D

 23 22  0  0  1  0  0  0  0  0999 V2000
   21.2676  -18.0806  -14.9886 C   0  0  0  0  0  0  0  0  0  0  0  0
   21.4562  -16.7615  -15.6947 C   0  0  2  0  0  0  0  0  0  0  0  0
   21.9008  -15.7479  -14.6472 C   0  0  0  0  0  0  0  0  0  0  0  0
   20.1615  -16.2498  -16.2731 C   0  0  2  0  0  0  0  0  0  0  0  0
   19.6637  -17.1177  -17.2950 N   0  0  0  0  0  0  0  0  0  0  0  0
   20.3060  -14.8896  -16.8540 C   0  0  0  0  0  0  0  0  0  0  0  0
   20.9369  -14.6690  -17.9238 O   0  0  0  0  0  0  0  0  0  0  0  0
   17.0591  -13.2946  -18.8201 N   0  0  0  0  0  0  0  0  0  0  0  0
   18.2671  -12.5740  -18.6758 C   0  0  0  0  0  0  0  0  0  0  0  0
   19.0369  -12.4982  -19.6560 O   0  0  0  0  0  0  0  0  0  0  0  0
   18.5720  -11.9475  -17.3953 C   0  0  0  0  0  0  0  0  0  0  0  0
   19.8580  -12.4098  -16.7650 C   0  0  2  0  0  0  0  0  0  0  0  0
   19.7268  -13.7603  -16.2135 N   0  0  0  0  0  0  0  0  0  0  0  0
   20.2183  -11.5236  -15.6246 C   0  0  0  0  0  0  0  0  0  0  0  0
   19.5454  -11.4681  -14.5574 O   0  0  0  0  0  0  0  0  0  0  0  0
   23.9527   -9.4992  -15.6590 C   0  0  0  0  0  0  0  0  0  0  0  0
   23.2990   -9.9231  -14.3690 C   0  0  2  0  0  0  0  0  0  0  0  0
   23.6921  -11.3582  -14.1062 C   0  0  0  0  0  0  0  0  0  0  0  0
   21.7933   -9.8739  -14.5342 C   0  0  2  0  0  0  0  0  0  0  0  0
   21.3684  -10.6677  -15.6719 N   0  0  0  0  0  0  0  0  0  0  0  0
   21.3079   -8.4893  -14.6590 C   0  0  0  0  0  0  0  0  0  0  0  0
   20.9018   -8.0884  -15.7825 O   0  0  0  0  0  0  0  0  0  0  0  0
   21.3067   -7.6651  -13.5543 O   0  0  0  0  0  0  0  0  0  0  0  0
  2  1  1  1
  2  3  1  0
  4  2  1  0
  4  5  1  6
  6  4  1  0
  6 13  1  0
  7  6  2  0
  8  9  1  0
  9 11  1  0
  9 10  2  0
 12 11  1  1
 12 13  1  0
 12 14  1  0
 14 20  1  0
 15 14  2  0
 17 16  1  6
 18 17  1  0
 19 17  1  0
 19 21  1  0
 19 20  1  6
 21 23  1  0
 22 21  2  0
M  END
$$$$
