VNV.pdb
     RDKit          3D

 23 22  0  0  1  0  0  0  0  0999 V2000
   19.6945  -28.3442   -9.6636 C   0  0  0  0  0  0  0  0  0  0  0  0
   18.6860  -27.6873  -10.5724 C   0  0  2  0  0  0  0  0  0  0  0  0
   19.4036  -27.3484  -11.8733 C   0  0  0  0  0  0  0  0  0  0  0  0
   18.1857  -26.3856   -9.9997 C   0  0  2  0  0  0  0  0  0  0  0  0
   19.2346  -25.4188   -9.8985 N   0  0  0  0  0  0  0  0  0  0  0  0
   17.5881  -26.5599   -8.6502 C   0  0  0  0  0  0  0  0  0  0  0  0
   16.5659  -27.2698   -8.4442 O   0  0  0  0  0  0  0  0  0  0  0  0
   16.8771  -26.5449   -3.5282 N   0  0  0  0  0  0  0  0  0  0  0  0
   18.2612  -26.3946   -3.7753 C   0  0  0  0  0  0  0  0  0  0  0  0
   19.0512  -26.4764   -2.8118 O   0  0  0  0  0  0  0  0  0  0  0  0
   18.7172  -26.1505   -5.1383 C   0  0  0  0  0  0  0  0  0  0  0  0
   17.6196  -26.1209   -6.1674 C   0  0  2  0  0  0  0  0  0  0  0  0
   18.1568  -25.9203   -7.5151 N   0  0  0  0  0  0  0  0  0  0  0  0
   16.7022  -24.9781   -5.9066 C   0  0  0  0  0  0  0  0  0  0  0  0
   17.0845  -23.7746   -5.9098 O   0  0  0  0  0  0  0  0  0  0  0  0
   12.4903  -25.6317   -5.7191 C   0  0  0  0  0  0  0  0  0  0  0  0
   13.0861  -24.3336   -6.1998 C   0  0  2  0  0  0  0  0  0  0  0  0
   13.4116  -24.4944   -7.6665 C   0  0  0  0  0  0  0  0  0  0  0  0
   14.3830  -24.0766   -5.4590 C   0  0  2  0  0  0  0  0  0  0  0  0
   15.3088  -25.1803   -5.6322 N   0  0  0  0  0  0  0  0  0  0  0  0
   14.1470  -23.8187   -4.0286 C   0  0  0  0  0  0  0  0  0  0  0  0
   14.5505  -24.6641   -3.1857 O   0  0  0  0  0  0  0  0  0  0  0  0
   13.4948  -22.6677   -3.6419 O   0  0  0  0  0  0  0  0  0  0  0  0
  2  1  1  1
  2  3  1  0
  4  2  1  0
  4  5  1  1
  6  4  1  0
  6 13  1  0
  7  6  2  0
  8  9  1  0
  9 11  1  0
  9 10  2  0
 12 11  1  1
 12 13  1  0
 12 14  1  0
 14 20  1  0
 15 14  2  0
 17 16  1  1
 18 17  1  0
 19 17  1  0
 19 21  1  0
 19 20  1  1
 21 23  1  0
 22 21  2  0
M  END
$$$$
