VNV.pdb
     RDKit          3D

 23 22  0  0  1  0  0  0  0  0999 V2000
   18.0111  -12.8038  -16.0119 C   0  0  0  0  0  0  0  0  0  0  0  0
   17.7874  -11.3528  -15.6674 C   0  0  2  0  0  0  0  0  0  0  0  0
   19.1572  -10.6891  -15.5960 C   0  0  0  0  0  0  0  0  0  0  0  0
   17.1560  -11.1946  -14.3076 C   0  0  2  0  0  0  0  0  0  0  0  0
   15.8310  -11.7319  -14.2782 N   0  0  0  0  0  0  0  0  0  0  0  0
   17.0856   -9.7718  -13.8844 C   0  0  0  0  0  0  0  0  0  0  0  0
   16.3580   -8.9225  -14.4679 O   0  0  0  0  0  0  0  0  0  0  0  0
   15.3948   -8.9469  -10.0561 N   0  0  0  0  0  0  0  0  0  0  0  0
   15.8356   -7.9834  -10.9925 C   0  0  0  0  0  0  0  0  0  0  0  0
   14.9891   -7.4400  -11.7323 O   0  0  0  0  0  0  0  0  0  0  0  0
   17.2549   -7.6583  -11.0627 C   0  0  0  0  0  0  0  0  0  0  0  0
   17.8810   -7.8856  -12.4121 C   0  0  2  0  0  0  0  0  0  0  0  0
   17.8514   -9.3023  -12.7825 N   0  0  0  0  0  0  0  0  0  0  0  0
   19.3153   -7.4882  -12.3859 C   0  0  0  0  0  0  0  0  0  0  0  0
   20.1364   -7.9315  -11.5350 O   0  0  0  0  0  0  0  0  0  0  0  0
   21.1422   -6.2829  -15.8537 C   0  0  0  0  0  0  0  0  0  0  0  0
   21.9053   -6.7892  -14.6568 C   0  0  2  0  0  0  0  0  0  0  0  0
   21.7714   -8.2941  -14.6314 C   0  0  0  0  0  0  0  0  0  0  0  0
   21.2706   -6.2424  -13.3939 C   0  0  2  0  0  0  0  0  0  0  0  0
   19.8569   -6.5645  -13.3404 N   0  0  0  0  0  0  0  0  0  0  0  0
   21.4753   -4.7894  -13.2711 C   0  0  0  0  0  0  0  0  0  0  0  0
   20.4913   -4.0218  -13.4457 O   0  0  0  0  0  0  0  0  0  0  0  0
   22.7283   -4.3005  -12.9702 O   0  0  0  0  0  0  0  0  0  0  0  0
  2  1  1  1
  2  3  1  0
  4  2  1  0
  4  5  1  6
  6  4  1  0
  6 13  1  0
  7  6  2  0
  8  9  1  0
  9 11  1  0
  9 10  2  0
 12 11  1  1
 12 13  1  0
 12 14  1  0
 14 20  1  0
 15 14  2  0
 17 16  1  6
 18 17  1  0
 19 17  1  0
 19 21  1  0
 19 20  1  6
 21 23  1  0
 22 21  2  0
M  END
$$$$
