VNV.pdb
     RDKit          3D

 23 22  0  0  1  0  0  0  0  0999 V2000
   18.0276  -13.0487  -18.5036 C   0  0  0  0  0  0  0  0  0  0  0  0
   16.9445  -12.7818  -17.4887 C   0  0  2  0  0  0  0  0  0  0  0  0
   16.0428  -11.6969  -18.0652 C   0  0  0  0  0  0  0  0  0  0  0  0
   17.5099  -12.2387  -16.2011 C   0  0  2  0  0  0  0  0  0  0  0  0
   16.5106  -12.1590  -15.1812 N   0  0  0  0  0  0  0  0  0  0  0  0
   18.1000  -10.8859  -16.3746 C   0  0  0  0  0  0  0  0  0  0  0  0
   19.0880  -10.6649  -17.1270 O   0  0  0  0  0  0  0  0  0  0  0  0
   16.6970   -7.7667  -18.2276 N   0  0  0  0  0  0  0  0  0  0  0  0
   16.2701   -7.1197  -17.0451 C   0  0  0  0  0  0  0  0  0  0  0  0
   15.2997   -6.3366  -17.1109 O   0  0  0  0  0  0  0  0  0  0  0  0
   16.9727   -7.3865  -15.7959 C   0  0  0  0  0  0  0  0  0  0  0  0
   18.0718   -8.4088  -15.9044 C   0  0  2  0  0  0  0  0  0  0  0  0
   17.5631   -9.7646  -15.6851 N   0  0  0  0  0  0  0  0  0  0  0  0
   19.0995   -8.1708  -14.8543 C   0  0  0  0  0  0  0  0  0  0  0  0
   18.8554   -8.2654  -13.6190 O   0  0  0  0  0  0  0  0  0  0  0  0
   23.1180   -8.5729  -15.6201 C   0  0  0  0  0  0  0  0  0  0  0  0
   22.5909   -8.4719  -14.2118 C   0  0  2  0  0  0  0  0  0  0  0  0
   22.0538   -9.8303  -13.8252 C   0  0  0  0  0  0  0  0  0  0  0  0
   21.4387   -7.4879  -14.1809 C   0  0  2  0  0  0  0  0  0  0  0  0
   20.4481   -7.8147  -15.1894 N   0  0  0  0  0  0  0  0  0  0  0  0
   21.9068   -6.1015  -14.3453 C   0  0  0  0  0  0  0  0  0  0  0  0
   22.6085   -5.5866  -13.4340 O   0  0  0  0  0  0  0  0  0  0  0  0
   21.5716   -5.3992  -15.4828 O   0  0  0  0  0  0  0  0  0  0  0  0
  2  1  1  6
  2  3  1  0
  4  2  1  0
  4  5  1  1
  6  4  1  0
  6 13  1  0
  7  6  2  0
  8  9  1  0
  9 11  1  0
  9 10  2  0
 12 11  1  1
 12 13  1  0
 12 14  1  0
 14 20  1  0
 15 14  2  0
 17 16  1  6
 18 17  1  0
 19 17  1  0
 19 21  1  0
 19 20  1  6
 21 23  1  0
 22 21  2  0
M  END
$$$$
