VNV.pdb
     RDKit          3D

 23 22  0  0  1  0  0  0  0  0999 V2000
   21.3420  -14.1582  -18.0660 C   0  0  0  0  0  0  0  0  0  0  0  0
   19.8597  -14.4345  -18.0964 C   0  0  2  0  0  0  0  0  0  0  0  0
   19.5694  -15.2015  -19.3807 C   0  0  0  0  0  0  0  0  0  0  0  0
   19.0572  -13.1599  -18.1600 C   0  0  2  0  0  0  0  0  0  0  0  0
   19.2916  -12.4522  -19.3805 N   0  0  0  0  0  0  0  0  0  0  0  0
   19.3673  -12.2453  -17.0304 C   0  0  0  0  0  0  0  0  0  0  0  0
   19.2067  -12.5746  -15.8234 O   0  0  0  0  0  0  0  0  0  0  0  0
   20.9471   -8.8807  -13.7568 N   0  0  0  0  0  0  0  0  0  0  0  0
   21.9641   -9.5568  -14.4694 C   0  0  0  0  0  0  0  0  0  0  0  0
   23.1208   -9.5595  -13.9991 O   0  0  0  0  0  0  0  0  0  0  0  0
   21.6307  -10.2243  -15.7218 C   0  0  0  0  0  0  0  0  0  0  0  0
   20.2087  -10.0281  -16.1739 C   0  0  2  0  0  0  0  0  0  0  0  0
   19.8673  -10.9364  -17.2709 N   0  0  0  0  0  0  0  0  0  0  0  0
   20.0228   -8.6475  -16.6985 C   0  0  0  0  0  0  0  0  0  0  0  0
   20.6218   -8.2143  -17.7223 O   0  0  0  0  0  0  0  0  0  0  0  0
   16.5634   -6.8525  -17.1138 C   0  0  0  0  0  0  0  0  0  0  0  0
   17.4873   -5.9350  -16.3549 C   0  0  2  0  0  0  0  0  0  0  0  0
   17.3316   -4.5477  -16.9332 C   0  0  0  0  0  0  0  0  0  0  0  0
   18.9201   -6.3758  -16.5776 C   0  0  2  0  0  0  0  0  0  0  0  0
   19.1389   -7.7142  -16.0619 N   0  0  0  0  0  0  0  0  0  0  0  0
   19.8763   -5.4285  -15.9807 C   0  0  0  0  0  0  0  0  0  0  0  0
   20.2829   -5.6367  -14.8062 O   0  0  0  0  0  0  0  0  0  0  0  0
   20.3051   -4.3412  -16.7113 O   0  0  0  0  0  0  0  0  0  0  0  0
  2  1  1  6
  2  3  1  0
  4  2  1  0
  4  5  1  6
  6  4  1  0
  6 13  1  0
  7  6  2  0
  8  9  1  0
  9 11  1  0
  9 10  2  0
 12 11  1  6
 12 13  1  0
 12 14  1  0
 14 20  1  0
 15 14  2  0
 17 16  1  6
 18 17  1  0
 19 17  1  0
 19 21  1  0
 19 20  1  1
 21 23  1  0
 22 21  2  0
M  END
$$$$
