WCQ.pdb
     RDKit          3D

 30 31  0  0  1  0  0  0  0  0999 V2000
    6.2736  -18.2678   24.1411 N   0  0  0  0  0  0  0  0  0  0  0  0
    6.8293  -17.0042   23.8010 C   0  0  1  0  0  0  0  0  0  0  0  0
    7.5786  -16.3858   24.9547 C   0  0  0  0  0  0  0  0  0  0  0  0
    6.8241  -15.3530   25.6707 C   0  0  0  0  0  0  0  0  0  0  0  0
    5.5726  -15.5318   26.2791 C   0  0  0  0  0  0  0  0  0  0  0  0
    5.1783  -14.4069   26.8572 N   0  0  0  0  0  0  0  0  0  0  0  0
    6.1114  -13.4562   26.6705 C   0  0  0  0  0  0  0  0  0  0  0  0
    6.2073  -12.1480   27.0401 C   0  0  0  0  0  0  0  0  0  0  0  0
    7.3126  -11.3995   26.6875 C   0  0  0  0  0  0  0  0  0  0  0  0
    8.3323  -11.9710   25.9558 C   0  0  0  0  0  0  0  0  0  0  0  0
    8.2409  -13.2852   25.5820 C   0  0  0  0  0  0  0  0  0  0  0  0
    7.1323  -14.0345   25.9369 C   0  0  0  0  0  0  0  0  0  0  0  0
    7.7523  -17.0945   22.6154 C   0  0  0  0  0  0  0  0  0  0  0  0
    8.4387  -18.1375   22.4828 O   0  0  0  0  0  0  0  0  0  0  0  0
    7.8845  -16.0833   21.6603 N   0  0  0  0  0  0  0  0  0  0  0  0
    8.8748  -16.0772   20.5763 C   0  0  1  0  0  0  0  0  0  0  0  0
    8.4046  -15.1544   19.4774 C   0  0  0  0  0  0  0  0  0  0  0  0
    7.6216  -13.7140   20.2143 S   0  0  0  0  0  0  0  0  0  0  0  0
   10.1346  -15.6046   21.1629 C   0  0  0  0  0  0  0  0  0  0  0  0
   10.1986  -14.4326   21.6415 O   0  0  0  0  0  0  0  0  0  0  0  0
   11.4166  -16.3175   26.2522 N   0  0  0  0  0  0  0  0  0  0  0  0
   11.7719  -17.5247   25.5971 C   0  0  0  0  0  0  0  0  0  0  0  0
   11.7208  -18.5983   26.2428 O   0  0  0  0  0  0  0  0  0  0  0  0
   12.1992  -17.5383   24.1735 C   0  0  0  0  0  0  0  0  0  0  0  0
   11.9251  -16.1945   23.5444 C   0  0  0  0  0  0  0  0  0  0  0  0
   12.3972  -16.1216   22.1177 C   0  0  2  0  0  0  0  0  0  0  0  0
   11.2797  -16.4018   21.2204 N   0  0  0  0  0  0  0  0  0  0  0  0
   13.4937  -17.0768   21.8528 C   0  0  0  0  0  0  0  0  0  0  0  0
   14.6478  -16.9073   22.3221 O   0  0  0  0  0  0  0  0  0  0  0  0
   13.3055  -18.2118   21.0710 O   0  0  0  0  0  0  0  0  0  0  0  0
  2  3  1  0
  2  1  1  1
  2 13  1  0
  3  4  1  0
  4 12  1  0
  4  5  2  0
  5  6  1  0
  7  6  1  0
  7  8  2  0
  9  8  1  0
 10  9  2  0
 11 12  2  0
 11 10  1  0
 12  7  1  0
 13 14  2  0
 15 13  1  0
 15 16  1  0
 16 19  1  0
 16 17  1  6
 18 17  1  0
 19 20  2  0
 21 22  1  0
 22 23  2  0
 24 22  1  0
 24 25  1  0
 26 25  1  1
 26 28  1  0
 27 26  1  0
 27 19  1  0
 28 29  2  0
 28 30  1  0
M  END
$$$$
