WCQ.pdb
     RDKit          3D

 30 31  0  0  1  0  0  0  0  0999 V2000
    6.4106  -17.4920   24.0300 N   0  0  0  0  0  0  0  0  0  0  0  0
    7.1153  -16.3760   23.5017 C   0  0  1  0  0  0  0  0  0  0  0  0
    7.9803  -15.7083   24.5413 C   0  0  0  0  0  0  0  0  0  0  0  0
    7.2297  -14.9317   25.5324 C   0  0  0  0  0  0  0  0  0  0  0  0
    6.3252  -15.4588   26.4663 C   0  0  0  0  0  0  0  0  0  0  0  0
    5.8352  -14.4914   27.2272 N   0  0  0  0  0  0  0  0  0  0  0  0
    6.3676  -13.3140   26.8534 C   0  0  0  0  0  0  0  0  0  0  0  0
    6.2101  -12.0315   27.2864 C   0  0  0  0  0  0  0  0  0  0  0  0
    6.9040  -10.9993   26.6868 C   0  0  0  0  0  0  0  0  0  0  0  0
    7.7649  -11.2581   25.6411 C   0  0  0  0  0  0  0  0  0  0  0  0
    7.9269  -12.5451   25.2023 C   0  0  0  0  0  0  0  0  0  0  0  0
    7.2310  -13.5789   25.8050 C   0  0  0  0  0  0  0  0  0  0  0  0
    7.9752  -16.7567   22.3265 C   0  0  0  0  0  0  0  0  0  0  0  0
    8.6066  -17.8403   22.3865 O   0  0  0  0  0  0  0  0  0  0  0  0
    8.1069  -15.9709   21.1786 N   0  0  0  0  0  0  0  0  0  0  0  0
    8.9082  -16.3315   20.0023 C   0  0  1  0  0  0  0  0  0  0  0  0
    8.4513  -15.5128   18.8186 C   0  0  0  0  0  0  0  0  0  0  0  0
    8.4534  -13.7732   19.2710 S   0  0  0  0  0  0  0  0  0  0  0  0
   10.3058  -16.0384   20.3420 C   0  0  0  0  0  0  0  0  0  0  0  0
   10.5926  -14.9427   20.9111 O   0  0  0  0  0  0  0  0  0  0  0  0
   14.2295  -19.4658   24.0066 N   0  0  0  0  0  0  0  0  0  0  0  0
   14.0221  -18.2174   23.3654 C   0  0  0  0  0  0  0  0  0  0  0  0
   14.8292  -17.2841   23.5884 O   0  0  0  0  0  0  0  0  0  0  0  0
   12.8765  -17.9994   22.4438 C   0  0  0  0  0  0  0  0  0  0  0  0
   13.3826  -17.8061   21.0355 C   0  0  0  0  0  0  0  0  0  0  0  0
   12.7457  -16.6259   20.3536 C   0  0  2  0  0  0  0  0  0  0  0  0
   11.3463  -16.9276   20.0648 N   0  0  0  0  0  0  0  0  0  0  0  0
   13.4434  -16.2746   19.0987 C   0  0  0  0  0  0  0  0  0  0  0  0
   12.9550  -16.5430   17.9717 O   0  0  0  0  0  0  0  0  0  0  0  0
   14.6756  -15.6292   19.0999 O   0  0  0  0  0  0  0  0  0  0  0  0
  2  3  1  0
  2  1  1  1
  2 13  1  0
  3  4  1  0
  4 12  1  0
  4  5  2  0
  5  6  1  0
  7  6  1  0
  7  8  2  0
  9  8  1  0
 10  9  2  0
 11 12  2  0
 11 10  1  0
 12  7  1  0
 13 14  2  0
 15 13  1  0
 15 16  1  0
 16 19  1  0
 16 17  1  6
 18 17  1  0
 19 20  2  0
 21 22  1  0
 22 23  2  0
 24 22  1  0
 24 25  1  0
 26 25  1  6
 26 28  1  0
 27 26  1  0
 27 19  1  0
 28 29  2  0
 28 30  1  0
M  END
$$$$
