WCQ.pdb
     RDKit          3D

 30 31  0  0  1  0  0  0  0  0999 V2000
    6.7254  -18.1122   24.6550 N   0  0  0  0  0  0  0  0  0  0  0  0
    7.2338  -16.8853   24.1478 C   0  0  1  0  0  0  0  0  0  0  0  0
    7.8482  -16.0353   25.2317 C   0  0  0  0  0  0  0  0  0  0  0  0
    6.9360  -15.0354   25.7946 C   0  0  0  0  0  0  0  0  0  0  0  0
    5.6912  -15.3065   26.3820 C   0  0  0  0  0  0  0  0  0  0  0  0
    5.1304  -14.1843   26.8077 N   0  0  0  0  0  0  0  0  0  0  0  0
    5.9419  -13.1466   26.5357 C   0  0  0  0  0  0  0  0  0  0  0  0
    5.8530  -11.8033   26.7473 C   0  0  0  0  0  0  0  0  0  0  0  0
    6.8686  -10.9611   26.3404 C   0  0  0  0  0  0  0  0  0  0  0  0
    7.9853  -11.4736   25.7142 C   0  0  0  0  0  0  0  0  0  0  0  0
    8.0797  -12.8227   25.4994 C   0  0  0  0  0  0  0  0  0  0  0  0
    7.0608  -13.6658   25.9086 C   0  0  0  0  0  0  0  0  0  0  0  0
    8.2553  -17.1029   23.0639 C   0  0  0  0  0  0  0  0  0  0  0  0
    8.9858  -18.1213   23.1405 O   0  0  0  0  0  0  0  0  0  0  0  0
    8.4323  -16.2350   21.9833 N   0  0  0  0  0  0  0  0  0  0  0  0
    9.5063  -16.3424   20.9880 C   0  0  1  0  0  0  0  0  0  0  0  0
    9.2615  -15.3445   19.8815 C   0  0  0  0  0  0  0  0  0  0  0  0
    7.8111  -15.8474   18.9466 S   0  0  0  0  0  0  0  0  0  0  0  0
   10.7610  -16.0549   21.6935 C   0  0  0  0  0  0  0  0  0  0  0  0
   10.7600  -15.2313   22.6570 O   0  0  0  0  0  0  0  0  0  0  0  0
   13.1250  -20.4803   25.4262 N   0  0  0  0  0  0  0  0  0  0  0  0
   13.0452  -19.0640   25.4438 C   0  0  0  0  0  0  0  0  0  0  0  0
   12.4725  -18.5047   26.4089 O   0  0  0  0  0  0  0  0  0  0  0  0
   13.6227  -18.2406   24.3493 C   0  0  0  0  0  0  0  0  0  0  0  0
   12.5293  -17.8056   23.4049 C   0  0  0  0  0  0  0  0  0  0  0  0
   13.0392  -16.9071   22.3112 C   0  0  2  0  0  0  0  0  0  0  0  0
   11.9710  -16.6598   21.3468 N   0  0  0  0  0  0  0  0  0  0  0  0
   14.2042  -17.4947   21.6166 C   0  0  0  0  0  0  0  0  0  0  0  0
   14.0790  -18.1492   20.5504 O   0  0  0  0  0  0  0  0  0  0  0  0
   15.4986  -17.3540   22.1064 O   0  0  0  0  0  0  0  0  0  0  0  0
  2  3  1  0
  2  1  1  1
  2 13  1  0
  3  4  1  0
  4 12  1  0
  4  5  2  0
  5  6  1  0
  7  6  1  0
  7  8  2  0
  9  8  1  0
 10  9  2  0
 11 12  2  0
 11 10  1  0
 12  7  1  0
 13 14  2  0
 15 13  1  0
 15 16  1  0
 16 19  1  0
 16 17  1  6
 18 17  1  0
 19 20  2  0
 21 22  1  0
 22 23  2  0
 24 22  1  0
 24 25  1  0
 26 25  1  1
 26 28  1  0
 27 26  1  0
 27 19  1  0
 28 29  2  0
 28 30  1  0
M  END
$$$$
