WCQ.pdb
     RDKit          3D

 30 31  0  0  1  0  0  0  0  0999 V2000
    6.6931  -17.6397   24.1905 N   0  0  0  0  0  0  0  0  0  0  0  0
    7.7092  -16.7107   23.8362 C   0  0  1  0  0  0  0  0  0  0  0  0
    8.2404  -15.9669   25.0360 C   0  0  0  0  0  0  0  0  0  0  0  0
    7.2866  -15.0196   25.6206 C   0  0  0  0  0  0  0  0  0  0  0  0
    6.1214  -15.3639   26.3219 C   0  0  0  0  0  0  0  0  0  0  0  0
    5.4947  -14.2722   26.7348 N   0  0  0  0  0  0  0  0  0  0  0  0
    6.1839  -13.1851   26.3442 C   0  0  0  0  0  0  0  0  0  0  0  0
    5.9886  -11.8447   26.4937 C   0  0  0  0  0  0  0  0  0  0  0  0
    6.8879  -10.9420   25.9619 C   0  0  0  0  0  0  0  0  0  0  0  0
    7.9948  -11.3904   25.2725 C   0  0  0  0  0  0  0  0  0  0  0  0
    8.1958  -12.7363   25.1196 C   0  0  0  0  0  0  0  0  0  0  0  0
    7.2936  -13.6401   25.6540 C   0  0  0  0  0  0  0  0  0  0  0  0
    8.8595  -17.3755   23.1288 C   0  0  0  0  0  0  0  0  0  0  0  0
    9.1632  -18.5449   23.4706 O   0  0  0  0  0  0  0  0  0  0  0  0
    9.6032  -16.7620   22.1173 N   0  0  0  0  0  0  0  0  0  0  0  0
   10.8830  -17.2596   21.5973 C   0  0  1  0  0  0  0  0  0  0  0  0
   11.2611  -16.4704   20.3667 C   0  0  0  0  0  0  0  0  0  0  0  0
    9.7860  -15.7027   19.6846 S   0  0  0  0  0  0  0  0  0  0  0  0
   11.8696  -17.0764   22.6686 C   0  0  0  0  0  0  0  0  0  0  0  0
   11.9525  -15.9558   23.2552 O   0  0  0  0  0  0  0  0  0  0  0  0
   11.9920  -20.8227   27.0708 N   0  0  0  0  0  0  0  0  0  0  0  0
   11.8225  -19.4441   27.3598 C   0  0  0  0  0  0  0  0  0  0  0  0
   11.1796  -19.1181   28.3857 O   0  0  0  0  0  0  0  0  0  0  0  0
   12.3882  -18.3909   26.4765 C   0  0  0  0  0  0  0  0  0  0  0  0
   13.0624  -19.0289   25.2870 C   0  0  0  0  0  0  0  0  0  0  0  0
   13.5436  -18.0131   24.2869 C   0  0  2  0  0  0  0  0  0  0  0  0
   12.7300  -18.0978   23.0772 N   0  0  0  0  0  0  0  0  0  0  0  0
   14.9660  -18.2158   23.9395 C   0  0  0  0  0  0  0  0  0  0  0  0
   15.8819  -18.0762   24.7894 O   0  0  0  0  0  0  0  0  0  0  0  0
   15.3644  -18.5712   22.6550 O   0  0  0  0  0  0  0  0  0  0  0  0
  2  3  1  0
  2  1  1  1
  2 13  1  0
  3  4  1  0
  4 12  1  0
  4  5  2  0
  5  6  1  0
  7  6  1  0
  7  8  2  0
  9  8  1  0
 10  9  2  0
 11 12  2  0
 11 10  1  0
 12  7  1  0
 13 14  2  0
 15 13  1  0
 15 16  1  0
 16 19  1  0
 16 17  1  6
 18 17  1  0
 19 20  2  0
 21 22  1  0
 22 23  2  0
 24 22  1  0
 24 25  1  0
 26 25  1  1
 26 28  1  0
 27 26  1  0
 27 19  1  0
 28 29  2  0
 28 30  1  0
M  END
$$$$
