WCQ.pdb
     RDKit          3D

 30 31  0  0  1  0  0  0  0  0999 V2000
    5.8443  -18.0977   22.0278 N   0  0  0  0  0  0  0  0  0  0  0  0
    7.1140  -18.1157   22.6670 C   0  0  1  0  0  0  0  0  0  0  0  0
    8.0651  -17.1108   22.0664 C   0  0  0  0  0  0  0  0  0  0  0  0
    7.5915  -15.7254   22.1368 C   0  0  0  0  0  0  0  0  0  0  0  0
    6.7565  -15.1988   23.1336 C   0  0  0  0  0  0  0  0  0  0  0  0
    6.5350  -13.9113   22.9140 N   0  0  0  0  0  0  0  0  0  0  0  0
    7.1862  -13.5280   21.8012 C   0  0  0  0  0  0  0  0  0  0  0  0
    7.2929  -12.3438   21.1354 C   0  0  0  0  0  0  0  0  0  0  0  0
    8.0475  -12.2535   19.9827 C   0  0  0  0  0  0  0  0  0  0  0  0
    8.7019  -13.3644   19.4936 C   0  0  0  0  0  0  0  0  0  0  0  0
    8.5982  -14.5568   20.1589 C   0  0  0  0  0  0  0  0  0  0  0  0
    7.8417  -14.6455   21.3149 C   0  0  0  0  0  0  0  0  0  0  0  0
    7.0048  -17.8571   24.1458 C   0  0  0  0  0  0  0  0  0  0  0  0
    5.9938  -17.2394   24.5615 O   0  0  0  0  0  0  0  0  0  0  0  0
    7.9652  -18.2660   25.0747 N   0  0  0  0  0  0  0  0  0  0  0  0
    7.8737  -18.0539   26.5247 C   0  0  1  0  0  0  0  0  0  0  0  0
    6.7008  -18.8338   27.0690 C   0  0  0  0  0  0  0  0  0  0  0  0
    6.7674  -20.5144   26.4352 S   0  0  0  0  0  0  0  0  0  0  0  0
    9.1386  -18.5294   27.0979 C   0  0  0  0  0  0  0  0  0  0  0  0
    9.2152  -19.7136   27.5434 O   0  0  0  0  0  0  0  0  0  0  0  0
   13.1507  -15.7402   23.6404 N   0  0  0  0  0  0  0  0  0  0  0  0
   14.0177  -16.6952   24.2313 C   0  0  0  0  0  0  0  0  0  0  0  0
   15.2192  -16.7205   23.8741 O   0  0  0  0  0  0  0  0  0  0  0  0
   13.5308  -17.6560   25.2557 C   0  0  0  0  0  0  0  0  0  0  0  0
   12.1228  -17.2988   25.6637 C   0  0  0  0  0  0  0  0  0  0  0  0
   11.6017  -18.1839   26.7630 C   0  0  2  0  0  0  0  0  0  0  0  0
   10.2772  -17.7241   27.1715 N   0  0  0  0  0  0  0  0  0  0  0  0
   12.5033  -18.1930   27.9343 C   0  0  0  0  0  0  0  0  0  0  0  0
   13.6731  -18.6488   27.8664 O   0  0  0  0  0  0  0  0  0  0  0  0
   12.1043  -17.6980   29.1716 O   0  0  0  0  0  0  0  0  0  0  0  0
  2  3  1  0
  2  1  1  6
  2 13  1  0
  3  4  1  0
  4 12  1  0
  4  5  2  0
  5  6  1  0
  7  6  1  0
  7  8  2  0
  9  8  1  0
 10  9  2  0
 11 12  2  0
 11 10  1  0
 12  7  1  0
 13 14  2  0
 15 13  1  0
 15 16  1  0
 16 19  1  0
 16 17  1  1
 18 17  1  0
 19 20  2  0
 21 22  1  0
 22 23  2  0
 24 22  1  0
 24 25  1  0
 26 25  1  6
 26 28  1  0
 27 26  1  0
 27 19  1  0
 28 29  2  0
 28 30  1  0
M  END
$$$$
