WCQ.pdb
     RDKit          3D

 30 31  0  0  1  0  0  0  0  0999 V2000
    6.2413  -17.5212   23.9665 N   0  0  0  0  0  0  0  0  0  0  0  0
    6.7911  -16.3348   23.4085 C   0  0  1  0  0  0  0  0  0  0  0  0
    7.6960  -15.6185   24.3794 C   0  0  0  0  0  0  0  0  0  0  0  0
    6.9830  -14.8290   25.3879 C   0  0  0  0  0  0  0  0  0  0  0  0
    6.0972  -15.3411   26.3477 C   0  0  0  0  0  0  0  0  0  0  0  0
    5.6410  -14.3650   27.1184 N   0  0  0  0  0  0  0  0  0  0  0  0
    6.1788  -13.1960   26.7264 C   0  0  0  0  0  0  0  0  0  0  0  0
    6.0503  -11.9103   27.1594 C   0  0  0  0  0  0  0  0  0  0  0  0
    6.7413  -10.8892   26.5378 C   0  0  0  0  0  0  0  0  0  0  0  0
    7.5701  -11.1626   25.4701 C   0  0  0  0  0  0  0  0  0  0  0  0
    7.7029  -12.4529   25.0312 C   0  0  0  0  0  0  0  0  0  0  0  0
    7.0098  -13.4756   25.6559 C   0  0  0  0  0  0  0  0  0  0  0  0
    7.5576  -16.6095   22.1425 C   0  0  0  0  0  0  0  0  0  0  0  0
    8.1352  -17.7191   22.0340 O   0  0  0  0  0  0  0  0  0  0  0  0
    7.6598  -15.6986   21.0879 N   0  0  0  0  0  0  0  0  0  0  0  0
    8.5807  -15.8300   19.9520 C   0  0  1  0  0  0  0  0  0  0  0  0
    8.2941  -14.7376   18.9496 C   0  0  0  0  0  0  0  0  0  0  0  0
    7.9458  -13.2093   19.8292 S   0  0  0  0  0  0  0  0  0  0  0  0
    9.9380  -15.7067   20.4971 C   0  0  0  0  0  0  0  0  0  0  0  0
   10.3387  -14.5826   20.9245 O   0  0  0  0  0  0  0  0  0  0  0  0
   10.6884  -19.6616   24.7569 N   0  0  0  0  0  0  0  0  0  0  0  0
   11.7656  -19.0395   24.0749 C   0  0  0  0  0  0  0  0  0  0  0  0
   12.8529  -18.8849   24.6798 O   0  0  0  0  0  0  0  0  0  0  0  0
   11.6286  -18.5727   22.6703 C   0  0  0  0  0  0  0  0  0  0  0  0
   12.1667  -17.1689   22.5430 C   0  0  0  0  0  0  0  0  0  0  0  0
   12.1656  -16.6806   21.1200 C   0  0  2  0  0  0  0  0  0  0  0  0
   10.8175  -16.7891   20.5693 N   0  0  0  0  0  0  0  0  0  0  0  0
   13.1062  -17.4471   20.2758 C   0  0  0  0  0  0  0  0  0  0  0  0
   12.7080  -18.1616   19.3210 O   0  0  0  0  0  0  0  0  0  0  0  0
   14.4797  -17.4174   20.4940 O   0  0  0  0  0  0  0  0  0  0  0  0
  2  3  1  0
  2  1  1  1
  2 13  1  0
  3  4  1  0
  4 12  1  0
  4  5  2  0
  5  6  1  0
  7  6  1  0
  7  8  2  0
  9  8  1  0
 10  9  2  0
 11 12  2  0
 11 10  1  0
 12  7  1  0
 13 14  2  0
 15 13  1  0
 15 16  1  0
 16 19  1  0
 16 17  1  6
 18 17  1  0
 19 20  2  0
 21 22  1  0
 22 23  2  0
 24 22  1  0
 24 25  1  0
 26 25  1  1
 26 28  1  0
 27 26  1  0
 27 19  1  0
 28 29  2  0
 28 30  1  0
M  END
$$$$
