WCQ.pdb
     RDKit          3D

 30 31  0  0  1  0  0  0  0  0999 V2000
    6.4987  -18.3200   24.6462 N   0  0  0  0  0  0  0  0  0  0  0  0
    6.8952  -16.9913   24.3328 C   0  0  1  0  0  0  0  0  0  0  0  0
    7.5987  -16.3226   25.4874 C   0  0  0  0  0  0  0  0  0  0  0  0
    6.9081  -15.1355   25.9996 C   0  0  0  0  0  0  0  0  0  0  0  0
    5.5651  -15.0834   26.4018 C   0  0  0  0  0  0  0  0  0  0  0  0
    5.2616  -13.8678   26.8323 N   0  0  0  0  0  0  0  0  0  0  0  0
    6.3459  -13.0769   26.7421 C   0  0  0  0  0  0  0  0  0  0  0  0
    6.5811  -11.7674   27.0371 C   0  0  0  0  0  0  0  0  0  0  0  0
    7.8284  -11.2145   26.8253 C   0  0  0  0  0  0  0  0  0  0  0  0
    8.8502  -11.9851   26.3118 C   0  0  0  0  0  0  0  0  0  0  0  0
    8.6192  -13.3015   26.0138 C   0  0  0  0  0  0  0  0  0  0  0  0
    7.3682  -13.8545   26.2274 C   0  0  0  0  0  0  0  0  0  0  0  0
    7.7901  -16.9400   23.1236 C   0  0  0  0  0  0  0  0  0  0  0  0
    8.5962  -17.8865   22.9482 O   0  0  0  0  0  0  0  0  0  0  0  0
    7.7708  -15.8991   22.1916 N   0  0  0  0  0  0  0  0  0  0  0  0
    8.7779  -15.6927   21.1433 C   0  0  1  0  0  0  0  0  0  0  0  0
    8.3617  -14.5296   20.2750 C   0  0  0  0  0  0  0  0  0  0  0  0
    6.8005  -14.9220   19.4753 S   0  0  0  0  0  0  0  0  0  0  0  0
   10.0455  -15.4154   21.8295 C   0  0  0  0  0  0  0  0  0  0  0  0
   10.0642  -14.5990   22.7989 O   0  0  0  0  0  0  0  0  0  0  0  0
   11.8449  -19.1730   25.5033 N   0  0  0  0  0  0  0  0  0  0  0  0
   12.6725  -18.0314   25.6597 C   0  0  0  0  0  0  0  0  0  0  0  0
   13.0114  -17.6867   26.8166 O   0  0  0  0  0  0  0  0  0  0  0  0
   13.1398  -17.2454   24.4877 C   0  0  0  0  0  0  0  0  0  0  0  0
   11.9830  -16.9791   23.5563 C   0  0  0  0  0  0  0  0  0  0  0  0
   12.3839  -16.1525   22.3649 C   0  0  2  0  0  0  0  0  0  0  0  0
   11.2469  -16.0226   21.4578 N   0  0  0  0  0  0  0  0  0  0  0  0
   13.5260  -16.7501   21.6414 C   0  0  0  0  0  0  0  0  0  0  0  0
   13.3829  -17.3111   20.5254 O   0  0  0  0  0  0  0  0  0  0  0  0
   14.8175  -16.7226   22.1576 O   0  0  0  0  0  0  0  0  0  0  0  0
  2  3  1  0
  2  1  1  1
  2 13  1  0
  3  4  1  0
  4 12  1  0
  4  5  2  0
  5  6  1  0
  7  6  1  0
  7  8  2  0
  9  8  1  0
 10  9  2  0
 11 12  2  0
 11 10  1  0
 12  7  1  0
 13 14  2  0
 15 13  1  0
 15 16  1  0
 16 19  1  0
 16 17  1  6
 18 17  1  0
 19 20  2  0
 21 22  1  0
 22 23  2  0
 24 22  1  0
 24 25  1  0
 26 25  1  1
 26 28  1  0
 27 26  1  0
 27 19  1  0
 28 29  2  0
 28 30  1  0
M  END
$$$$
