IHF.pdb
     RDKit          3D

 30 31  0  0  1  0  0  0  0  0999 V2000
   28.9930  -16.3022  -17.1789 C   0  0  0  0  0  0  0  0  0  0  0  0
   27.5606  -15.9296  -16.9221 C   0  0  0  0  0  0  0  0  0  0  0  0
   26.7801  -17.2135  -16.7484 C   0  0  2  0  0  0  0  0  0  0  0  0
   27.1931  -17.9568  -15.5014 C   0  0  0  0  0  0  0  0  0  0  0  0
   26.8908  -18.1265  -17.9189 C   0  0  2  0  0  0  0  0  0  0  0  0
   26.5780  -17.5423  -19.1818 N   0  0  0  0  0  0  0  0  0  0  0  0
   26.0374  -19.3656  -17.6937 C   0  0  0  0  0  0  0  0  0  0  0  0
   24.8036  -19.3089  -17.8920 O   0  0  0  0  0  0  0  0  0  0  0  0
   26.6164  -20.5691  -17.2670 N   0  0  0  0  0  0  0  0  0  0  0  0
   26.0011  -21.8197  -16.9424 C   0  0  1  0  0  0  0  0  0  0  0  0
   26.3800  -23.0020  -17.7997 C   0  0  0  0  0  0  0  0  0  0  0  0
   26.2727  -22.7890  -19.2398 C   0  0  0  0  0  0  0  0  0  0  0  0
   27.2419  -22.5490  -20.1670 C   0  0  0  0  0  0  0  0  0  0  0  0
   26.6949  -22.3484  -21.3946 N   0  0  0  0  0  0  0  0  0  0  0  0
   25.3744  -22.4674  -21.2158 C   0  0  0  0  0  0  0  0  0  0  0  0
   25.1126  -22.7361  -19.9027 N   0  0  0  0  0  0  0  0  0  0  0  0
   25.8793  -22.1392  -15.5295 C   0  0  0  0  0  0  0  0  0  0  0  0
   26.8819  -22.4842  -14.8504 O   0  0  0  0  0  0  0  0  0  0  0  0
   24.6370  -22.0899  -14.8060 N   0  0  0  0  0  0  0  0  0  0  0  0
   24.6145  -22.0582  -13.3570 C   0  0  1  0  0  0  0  0  0  0  0  0
   25.3714  -20.8653  -12.8055 C   0  0  0  0  0  0  0  0  0  0  0  0
   25.3581  -20.9224  -11.3268 C   0  0  0  0  0  0  0  0  0  0  0  0
   26.4660  -21.3466  -10.6623 C   0  0  0  0  0  0  0  0  0  0  0  0
   26.4909  -21.4131   -9.2905 C   0  0  0  0  0  0  0  0  0  0  0  0
   25.3646  -21.0393   -8.5950 C   0  0  0  0  0  0  0  0  0  0  0  0
   24.2289  -20.6052   -9.2582 C   0  0  0  0  0  0  0  0  0  0  0  0
   24.2404  -20.5516  -10.6332 C   0  0  0  0  0  0  0  0  0  0  0  0
   23.2032  -21.9219  -12.9317 C   0  0  0  0  0  0  0  0  0  0  0  0
   22.8842  -21.9829  -11.7228 O   0  0  0  0  0  0  0  0  0  0  0  0
   22.1943  -21.7226  -13.8612 O   0  0  0  0  0  0  0  0  0  0  0  0
  1  2  1  0
  3  4  1  1
  3  2  1  0
  5  6  1  6
  5  3  1  0
  7  8  2  0
  7  5  1  0
  9  7  1  0
 10 17  1  0
 10  9  1  0
 10 11  1  6
 12 16  1  0
 12 11  1  0
 13 12  2  0
 14 13  1  0
 14 15  1  0
 15 16  2  0
 17 19  1  0
 18 17  2  0
 19 20  1  0
 20 28  1  0
 20 21  1  6
 22 21  1  0
 23 22  2  0
 24 23  1  0
 25 24  2  0
 25 26  1  0
 26 27  2  0
 27 22  1  0
 28 29  2  0
 28 30  1  0
M  END
$$$$
