IHF.pdb
     RDKit          3D

 30 31  0  0  1  0  0  0  0  0999 V2000
   13.6027  -10.6084  -21.8113 C   0  0  0  0  0  0  0  0  0  0  0  0
   14.5849  -11.6402  -21.3348 C   0  0  0  0  0  0  0  0  0  0  0  0
   15.3538  -11.0381  -20.1798 C   0  0  2  0  0  0  0  0  0  0  0  0
   16.1172   -9.8044  -20.5964 C   0  0  0  0  0  0  0  0  0  0  0  0
   16.2933  -11.9994  -19.5401 C   0  0  2  0  0  0  0  0  0  0  0  0
   15.7130  -13.2312  -19.1160 N   0  0  0  0  0  0  0  0  0  0  0  0
   17.0056  -11.3314  -18.3736 C   0  0  0  0  0  0  0  0  0  0  0  0
   16.3563  -11.0228  -17.3498 O   0  0  0  0  0  0  0  0  0  0  0  0
   18.3793  -11.0576  -18.4319 N   0  0  0  0  0  0  0  0  0  0  0  0
   19.2085  -10.3229  -17.5260 C   0  0  1  0  0  0  0  0  0  0  0  0
   20.6313  -10.8008  -17.3730 C   0  0  0  0  0  0  0  0  0  0  0  0
   21.3882  -10.1736  -16.2938 C   0  0  0  0  0  0  0  0  0  0  0  0
   21.0476   -9.1499  -15.4616 C   0  0  0  0  0  0  0  0  0  0  0  0
   22.0797   -8.8375  -14.6349 N   0  0  0  0  0  0  0  0  0  0  0  0
   23.0641   -9.6810  -14.9657 C   0  0  0  0  0  0  0  0  0  0  0  0
   22.6463  -10.4977  -15.9774 N   0  0  0  0  0  0  0  0  0  0  0  0
   19.0793   -8.8752  -17.5519 C   0  0  0  0  0  0  0  0  0  0  0  0
   19.2440   -8.2250  -18.6174 O   0  0  0  0  0  0  0  0  0  0  0  0
   18.7609   -8.0833  -16.3940 N   0  0  0  0  0  0  0  0  0  0  0  0
   18.6785   -6.6383  -16.4741 C   0  0  1  0  0  0  0  0  0  0  0  0
   17.4817   -6.0971  -15.7159 C   0  0  0  0  0  0  0  0  0  0  0  0
   17.4320   -4.6263  -15.8718 C   0  0  0  0  0  0  0  0  0  0  0  0
   17.0702   -4.0908  -17.0682 C   0  0  0  0  0  0  0  0  0  0  0  0
   17.0129   -2.7305  -17.2505 C   0  0  0  0  0  0  0  0  0  0  0  0
   17.3310   -1.9126  -16.1914 C   0  0  0  0  0  0  0  0  0  0  0  0
   17.7011   -2.4436  -14.9671 C   0  0  0  0  0  0  0  0  0  0  0  0
   17.7475   -3.8112  -14.8211 C   0  0  0  0  0  0  0  0  0  0  0  0
   19.8938   -6.0823  -15.8376 C   0  0  0  0  0  0  0  0  0  0  0  0
   20.6039   -5.2378  -16.4290 O   0  0  0  0  0  0  0  0  0  0  0  0
   20.2800   -6.4815  -14.5675 O   0  0  0  0  0  0  0  0  0  0  0  0
  1  2  1  0
  3  4  1  6
  3  2  1  0
  5  6  1  1
  5  3  1  0
  7  8  2  0
  7  5  1  0
  9  7  1  0
 10 17  1  0
 10  9  1  0
 10 11  1  6
 12 16  1  0
 12 11  1  0
 13 12  2  0
 14 13  1  0
 14 15  1  0
 15 16  2  0
 17 19  1  0
 18 17  2  0
 19 20  1  0
 20 28  1  0
 20 21  1  1
 22 21  1  0
 23 22  2  0
 24 23  1  0
 25 24  2  0
 25 26  1  0
 26 27  2  0
 27 22  1  0
 28 29  2  0
 28 30  1  0
M  END
$$$$
