IHF.pdb
     RDKit          3D

 30 31  0  0  1  0  0  0  0  0999 V2000
   29.2937  -18.3676  -16.3907 C   0  0  0  0  0  0  0  0  0  0  0  0
   28.3276  -17.2688  -16.0507 C   0  0  0  0  0  0  0  0  0  0  0  0
   27.5677  -17.6966  -14.8148 C   0  0  2  0  0  0  0  0  0  0  0  0
   28.4417  -17.6781  -13.5844 C   0  0  0  0  0  0  0  0  0  0  0  0
   26.9447  -19.0419  -14.9496 C   0  0  2  0  0  0  0  0  0  0  0  0
   26.1850  -19.2476  -16.1389 N   0  0  0  0  0  0  0  0  0  0  0  0
   26.0896  -19.3430  -13.7279 C   0  0  0  0  0  0  0  0  0  0  0  0
   25.1842  -18.5456  -13.3973 O   0  0  0  0  0  0  0  0  0  0  0  0
   26.3038  -20.5021  -12.9689 N   0  0  0  0  0  0  0  0  0  0  0  0
   25.6361  -20.9644  -11.7905 C   0  0  1  0  0  0  0  0  0  0  0  0
   24.7030  -22.1381  -11.9588 C   0  0  0  0  0  0  0  0  0  0  0  0
   23.6538  -21.9633  -12.9586 C   0  0  0  0  0  0  0  0  0  0  0  0
   22.3576  -21.5695  -12.8122 C   0  0  0  0  0  0  0  0  0  0  0  0
   21.7071  -21.6011  -14.0047 N   0  0  0  0  0  0  0  0  0  0  0  0
   22.6170  -22.0196  -14.8917 C   0  0  0  0  0  0  0  0  0  0  0  0
   23.8060  -22.2416  -14.2575 N   0  0  0  0  0  0  0  0  0  0  0  0
   26.4267  -21.0183  -10.5718 C   0  0  0  0  0  0  0  0  0  0  0  0
   27.6440  -21.3387  -10.5982 O   0  0  0  0  0  0  0  0  0  0  0  0
   25.9003  -20.7183   -9.2671 N   0  0  0  0  0  0  0  0  0  0  0  0
   26.7442  -20.7662   -8.0895 C   0  0  1  0  0  0  0  0  0  0  0  0
   27.5365  -19.4856   -7.9090 C   0  0  0  0  0  0  0  0  0  0  0  0
   28.2371  -19.5270   -6.6061 C   0  0  0  0  0  0  0  0  0  0  0  0
   29.3084  -20.3490   -6.4469 C   0  0  0  0  0  0  0  0  0  0  0  0
   29.9836  -20.4144   -5.2524 C   0  0  0  0  0  0  0  0  0  0  0  0
   29.5523  -19.6261   -4.2109 C   0  0  0  0  0  0  0  0  0  0  0  0
   28.4628  -18.7841   -4.3584 C   0  0  0  0  0  0  0  0  0  0  0  0
   27.8107  -18.7448   -5.5696 C   0  0  0  0  0  0  0  0  0  0  0  0
   25.8623  -20.9109   -6.9095 C   0  0  0  0  0  0  0  0  0  0  0  0
   26.2715  -21.4580   -5.8606 O   0  0  0  0  0  0  0  0  0  0  0  0
   24.5572  -20.4439   -6.9329 O   0  0  0  0  0  0  0  0  0  0  0  0
  1  2  1  0
  3  4  1  1
  3  2  1  0
  5  6  1  6
  5  3  1  0
  7  8  2  0
  7  5  1  0
  9  7  1  0
 10 17  1  0
 10  9  1  0
 10 11  1  6
 12 16  1  0
 12 11  1  0
 13 12  2  0
 14 13  1  0
 14 15  1  0
 15 16  2  0
 17 19  1  0
 18 17  2  0
 19 20  1  0
 20 28  1  0
 20 21  1  1
 22 21  1  0
 23 22  2  0
 24 23  1  0
 25 24  2  0
 25 26  1  0
 26 27  2  0
 27 22  1  0
 28 29  2  0
 28 30  1  0
M  END
$$$$
