IHF.pdb
     RDKit          3D

 30 31  0  0  1  0  0  0  0  0999 V2000
   18.5272   -7.6923  -25.0240 C   0  0  0  0  0  0  0  0  0  0  0  0
   18.0850   -8.7801  -24.0873 C   0  0  0  0  0  0  0  0  0  0  0  0
   18.2122   -8.2470  -22.6776 C   0  0  2  0  0  0  0  0  0  0  0  0
   19.6418   -7.9065  -22.3333 C   0  0  0  0  0  0  0  0  0  0  0  0
   17.6727   -9.1795  -21.6503 C   0  0  2  0  0  0  0  0  0  0  0  0
   16.3135   -9.5707  -21.8332 N   0  0  0  0  0  0  0  0  0  0  0  0
   17.8609   -8.5876  -20.2615 C   0  0  0  0  0  0  0  0  0  0  0  0
   17.0940   -7.6807  -19.8687 O   0  0  0  0  0  0  0  0  0  0  0  0
   18.8822   -9.0458  -19.4175 N   0  0  0  0  0  0  0  0  0  0  0  0
   19.3041   -8.5601  -18.1391 C   0  0  1  0  0  0  0  0  0  0  0  0
   19.5004   -9.5914  -17.0555 C   0  0  0  0  0  0  0  0  0  0  0  0
   19.8862   -9.0613  -15.7513 C   0  0  0  0  0  0  0  0  0  0  0  0
   19.1217   -8.7605  -14.6642 C   0  0  0  0  0  0  0  0  0  0  0  0
   19.8830   -8.2286  -13.6723 N   0  0  0  0  0  0  0  0  0  0  0  0
   21.1289   -8.2039  -14.1590 C   0  0  0  0  0  0  0  0  0  0  0  0
   21.1352   -8.7109  -15.4270 N   0  0  0  0  0  0  0  0  0  0  0  0
   20.3148   -7.5153  -18.1397 C   0  0  0  0  0  0  0  0  0  0  0  0
   21.4603   -7.7168  -18.6220 O   0  0  0  0  0  0  0  0  0  0  0  0
   20.0987   -6.1980  -17.6038 N   0  0  0  0  0  0  0  0  0  0  0  0
   21.1596   -5.2103  -17.5927 C   0  0  1  0  0  0  0  0  0  0  0  0
   21.1691   -4.3762  -18.8593 C   0  0  0  0  0  0  0  0  0  0  0  0
   19.9354   -3.5607  -18.9136 C   0  0  0  0  0  0  0  0  0  0  0  0
   18.7429   -4.1647  -19.1628 C   0  0  0  0  0  0  0  0  0  0  0  0
   17.5771   -3.4406  -19.2209 C   0  0  0  0  0  0  0  0  0  0  0  0
   17.6384   -2.0811  -19.0205 C   0  0  0  0  0  0  0  0  0  0  0  0
   18.8456   -1.4522  -18.7658 C   0  0  0  0  0  0  0  0  0  0  0  0
   19.9934   -2.2097  -18.7149 C   0  0  0  0  0  0  0  0  0  0  0  0
   20.9074   -4.2915  -16.4598 C   0  0  0  0  0  0  0  0  0  0  0  0
   21.6705   -3.3266  -16.2285 O   0  0  0  0  0  0  0  0  0  0  0  0
   19.8178   -4.4742  -15.6224 O   0  0  0  0  0  0  0  0  0  0  0  0
  1  2  1  0
  3  4  1  1
  3  2  1  0
  5  6  1  6
  5  3  1  0
  7  8  2  0
  7  5  1  0
  9  7  1  0
 10 17  1  0
 10  9  1  0
 10 11  1  1
 12 16  1  0
 12 11  1  0
 13 12  2  0
 14 13  1  0
 14 15  1  0
 15 16  2  0
 17 19  1  0
 18 17  2  0
 19 20  1  0
 20 28  1  0
 20 21  1  6
 22 21  1  0
 23 22  2  0
 24 23  1  0
 25 24  2  0
 25 26  1  0
 26 27  2  0
 27 22  1  0
 28 29  2  0
 28 30  1  0
M  END
$$$$
