IHF.pdb
     RDKit          3D

 30 31  0  0  1  0  0  0  0  0999 V2000
   19.8620  -37.8881  -11.6408 C   0  0  0  0  0  0  0  0  0  0  0  0
   20.0850  -36.4047  -11.7190 C   0  0  0  0  0  0  0  0  0  0  0  0
   21.4070  -36.1067  -11.0472 C   0  0  2  0  0  0  0  0  0  0  0  0
   21.4224  -36.5673   -9.6099 C   0  0  0  0  0  0  0  0  0  0  0  0
   21.7769  -34.6657  -11.1009 C   0  0  2  0  0  0  0  0  0  0  0  0
   21.8997  -34.1144  -12.4104 N   0  0  0  0  0  0  0  0  0  0  0  0
   23.0576  -34.4286  -10.3148 C   0  0  0  0  0  0  0  0  0  0  0  0
   24.1555  -34.7717  -10.8067 O   0  0  0  0  0  0  0  0  0  0  0  0
   23.0224  -33.8310   -9.0471 N   0  0  0  0  0  0  0  0  0  0  0  0
   24.0858  -33.5678   -8.1261 C   0  0  1  0  0  0  0  0  0  0  0  0
   24.7103  -32.1958   -8.1890 C   0  0  0  0  0  0  0  0  0  0  0  0
   25.4486  -31.9013   -9.4133 C   0  0  0  0  0  0  0  0  0  0  0  0
   25.7823  -32.7139  -10.4550 C   0  0  0  0  0  0  0  0  0  0  0  0
   26.5319  -32.0428  -11.3683 N   0  0  0  0  0  0  0  0  0  0  0  0
   26.6583  -30.8041  -10.8789 C   0  0  0  0  0  0  0  0  0  0  0  0
   25.9989  -30.7136   -9.6864 N   0  0  0  0  0  0  0  0  0  0  0  0
   23.9149  -34.0692   -6.7724 C   0  0  0  0  0  0  0  0  0  0  0  0
   22.8528  -33.8605   -6.1292 O   0  0  0  0  0  0  0  0  0  0  0  0
   24.9173  -34.8259   -6.0710 N   0  0  0  0  0  0  0  0  0  0  0  0
   24.5496  -35.8348   -5.0973 C   0  0  1  0  0  0  0  0  0  0  0  0
   23.7968  -36.9873   -5.7339 C   0  0  0  0  0  0  0  0  0  0  0  0
   23.3359  -37.9115   -4.6739 C   0  0  0  0  0  0  0  0  0  0  0  0
   23.8558  -39.1661   -4.6058 C   0  0  0  0  0  0  0  0  0  0  0  0
   23.4524  -40.0516   -3.6362 C   0  0  0  0  0  0  0  0  0  0  0  0
   22.5046  -39.6424   -2.7273 C   0  0  0  0  0  0  0  0  0  0  0  0
   21.9662  -38.3678   -2.7843 C   0  0  0  0  0  0  0  0  0  0  0  0
   22.3942  -37.5076   -3.7695 C   0  0  0  0  0  0  0  0  0  0  0  0
   25.7992  -36.3848   -4.5253 C   0  0  0  0  0  0  0  0  0  0  0  0
   25.8397  -36.8053   -3.3469 O   0  0  0  0  0  0  0  0  0  0  0  0
   26.9607  -36.4495   -5.2792 O   0  0  0  0  0  0  0  0  0  0  0  0
  1  2  1  0
  3  4  1  1
  3  2  1  0
  5  6  1  6
  5  3  1  0
  7  8  2  0
  7  5  1  0
  9  7  1  0
 10 17  1  0
 10  9  1  0
 10 11  1  1
 12 16  1  0
 12 11  1  0
 13 12  2  0
 14 13  1  0
 14 15  1  0
 15 16  2  0
 17 19  1  0
 18 17  2  0
 19 20  1  0
 20 28  1  0
 20 21  1  6
 22 21  1  0
 23 22  2  0
 24 23  1  0
 25 24  2  0
 25 26  1  0
 26 27  2  0
 27 22  1  0
 28 29  2  0
 28 30  1  0
M  END
$$$$
