IHF.pdb
     RDKit          3D

 30 31  0  0  1  0  0  0  0  0999 V2000
   32.3390  -22.5287  -11.0928 C   0  0  0  0  0  0  0  0  0  0  0  0
   31.6729  -22.7508  -12.4207 C   0  0  0  0  0  0  0  0  0  0  0  0
   30.5331  -21.7626  -12.5296 C   0  0  2  0  0  0  0  0  0  0  0  0
   29.5299  -21.9382  -11.4156 C   0  0  0  0  0  0  0  0  0  0  0  0
   29.8254  -21.8301  -13.8375 C   0  0  2  0  0  0  0  0  0  0  0  0
   30.6421  -21.6140  -14.9865 N   0  0  0  0  0  0  0  0  0  0  0  0
   28.6522  -20.8616  -13.8439 C   0  0  0  0  0  0  0  0  0  0  0  0
   28.8676  -19.6329  -13.9379 O   0  0  0  0  0  0  0  0  0  0  0  0
   27.3340  -21.3289  -13.7460 N   0  0  0  0  0  0  0  0  0  0  0  0
   26.1061  -20.6001  -13.6512 C   0  0  1  0  0  0  0  0  0  0  0  0
   25.4508  -20.2080  -14.9524 C   0  0  0  0  0  0  0  0  0  0  0  0
   26.2536  -19.3555  -15.8240 C   0  0  0  0  0  0  0  0  0  0  0  0
   26.3846  -17.9994  -15.8482 C   0  0  0  0  0  0  0  0  0  0  0  0
   27.1928  -17.6119  -16.8695 N   0  0  0  0  0  0  0  0  0  0  0  0
   27.5606  -18.7454  -17.4776 C   0  0  0  0  0  0  0  0  0  0  0  0
   26.9898  -19.8114  -16.8428 N   0  0  0  0  0  0  0  0  0  0  0  0
   25.1652  -21.0374  -12.6330 C   0  0  0  0  0  0  0  0  0  0  0  0
   24.9167  -22.2591  -12.4568 O   0  0  0  0  0  0  0  0  0  0  0  0
   24.4569  -20.1364  -11.7636 N   0  0  0  0  0  0  0  0  0  0  0  0
   23.5579  -20.6338  -10.7410 C   0  0  1  0  0  0  0  0  0  0  0  0
   23.5028  -19.7107   -9.5389 C   0  0  0  0  0  0  0  0  0  0  0  0
   24.8168  -19.7200   -8.8582 C   0  0  0  0  0  0  0  0  0  0  0  0
   25.0720  -20.6567   -7.9062 C   0  0  0  0  0  0  0  0  0  0  0  0
   26.2798  -20.6963   -7.2529 C   0  0  0  0  0  0  0  0  0  0  0  0
   27.2348  -19.7629   -7.5823 C   0  0  0  0  0  0  0  0  0  0  0  0
   26.9891  -18.8029   -8.5498 C   0  0  0  0  0  0  0  0  0  0  0  0
   25.7675  -18.7936   -9.1835 C   0  0  0  0  0  0  0  0  0  0  0  0
   22.1978  -20.6839  -11.3232 C   0  0  0  0  0  0  0  0  0  0  0  0
   21.9536  -20.1714  -12.4388 O   0  0  0  0  0  0  0  0  0  0  0  0
   21.1555  -21.3003  -10.6485 O   0  0  0  0  0  0  0  0  0  0  0  0
  1  2  1  0
  3  4  1  1
  3  2  1  0
  5  6  1  6
  5  3  1  0
  7  8  2  0
  7  5  1  0
  9  7  1  0
 10 17  1  0
 10  9  1  0
 10 11  1  6
 12 16  1  0
 12 11  1  0
 13 12  2  0
 14 13  1  0
 14 15  1  0
 15 16  2  0
 17 19  1  0
 18 17  2  0
 19 20  1  0
 20 28  1  0
 20 21  1  1
 22 21  1  0
 23 22  2  0
 24 23  1  0
 25 24  2  0
 25 26  1  0
 26 27  2  0
 27 22  1  0
 28 29  2  0
 28 30  1  0
M  END
$$$$
