IHF.pdb
     RDKit          3D

 30 31  0  0  1  0  0  0  0  0999 V2000
   12.1382  -12.1085  -13.9039 C   0  0  0  0  0  0  0  0  0  0  0  0
   13.5570  -11.9136  -14.3571 C   0  0  0  0  0  0  0  0  0  0  0  0
   14.2296  -10.9914  -13.3646 C   0  0  2  0  0  0  0  0  0  0  0  0
   13.4926   -9.6814  -13.2272 C   0  0  0  0  0  0  0  0  0  0  0  0
   15.6544  -10.7161  -13.6968 C   0  0  2  0  0  0  0  0  0  0  0  0
   16.4771  -11.8690  -13.8638 N   0  0  0  0  0  0  0  0  0  0  0  0
   16.2617   -9.7908  -12.6530 C   0  0  0  0  0  0  0  0  0  0  0  0
   16.5811  -10.2494  -11.5338 O   0  0  0  0  0  0  0  0  0  0  0  0
   16.4675   -8.4320  -12.9300 N   0  0  0  0  0  0  0  0  0  0  0  0
   17.0983   -7.4192  -12.1398 C   0  0  1  0  0  0  0  0  0  0  0  0
   18.2470   -6.6799  -12.7805 C   0  0  0  0  0  0  0  0  0  0  0  0
   19.3475   -7.5185  -13.2457 C   0  0  0  0  0  0  0  0  0  0  0  0
   19.5411   -8.8617  -13.1229 C   0  0  0  0  0  0  0  0  0  0  0  0
   20.7393   -9.2258  -13.6504 N   0  0  0  0  0  0  0  0  0  0  0  0
   21.2854   -8.0908  -14.1015 C   0  0  0  0  0  0  0  0  0  0  0  0
   20.4395   -7.0470  -13.8565 N   0  0  0  0  0  0  0  0  0  0  0  0
   16.2227   -6.5665  -11.3528 C   0  0  0  0  0  0  0  0  0  0  0  0
   15.2612   -5.9517  -11.8846 O   0  0  0  0  0  0  0  0  0  0  0  0
   16.3758   -6.3579   -9.9377 N   0  0  0  0  0  0  0  0  0  0  0  0
   15.4623   -5.5052   -9.2030 C   0  0  1  0  0  0  0  0  0  0  0  0
   15.1587   -6.0576   -7.8236 C   0  0  0  0  0  0  0  0  0  0  0  0
   14.1298   -7.1151   -7.9390 C   0  0  0  0  0  0  0  0  0  0  0  0
   14.5063   -8.3869   -8.2385 C   0  0  0  0  0  0  0  0  0  0  0  0
   13.5799   -9.3945   -8.3540 C   0  0  0  0  0  0  0  0  0  0  0  0
   12.2525   -9.0908   -8.1595 C   0  0  0  0  0  0  0  0  0  0  0  0
   11.8542   -7.8001   -7.8539 C   0  0  0  0  0  0  0  0  0  0  0  0
   12.8102   -6.8162   -7.7462 C   0  0  0  0  0  0  0  0  0  0  0  0
   16.1216   -4.1927   -9.0188 C   0  0  0  0  0  0  0  0  0  0  0  0
   15.5055   -3.2253   -8.5173 O   0  0  0  0  0  0  0  0  0  0  0  0
   17.4410   -3.9980   -9.3968 O   0  0  0  0  0  0  0  0  0  0  0  0
  1  2  1  0
  3  4  1  6
  3  2  1  0
  5  6  1  1
  5  3  1  0
  7  8  2  0
  7  5  1  0
  9  7  1  0
 10 17  1  0
 10  9  1  0
 10 11  1  6
 12 16  1  0
 12 11  1  0
 13 12  2  0
 14 13  1  0
 14 15  1  0
 15 16  2  0
 17 19  1  0
 18 17  2  0
 19 20  1  0
 20 28  1  0
 20 21  1  1
 22 21  1  0
 23 22  2  0
 24 23  1  0
 25 24  2  0
 25 26  1  0
 26 27  2  0
 27 22  1  0
 28 29  2  0
 28 30  1  0
M  END
$$$$
