IHF.pdb
     RDKit          3D

 30 31  0  0  1  0  0  0  0  0999 V2000
   18.8803  -19.5208  -12.0200 C   0  0  0  0  0  0  0  0  0  0  0  0
   20.0050  -19.3569  -13.0021 C   0  0  0  0  0  0  0  0  0  0  0  0
   21.2369  -19.9892  -12.3936 C   0  0  2  0  0  0  0  0  0  0  0  0
   21.5972  -19.3569  -11.0713 C   0  0  0  0  0  0  0  0  0  0  0  0
   22.4214  -19.9436  -13.2941 C   0  0  2  0  0  0  0  0  0  0  0  0
   22.1891  -20.3778  -14.6326 N   0  0  0  0  0  0  0  0  0  0  0  0
   23.5692  -20.7335  -12.6832 C   0  0  0  0  0  0  0  0  0  0  0  0
   23.3709  -21.9040  -12.2889 O   0  0  0  0  0  0  0  0  0  0  0  0
   24.8449  -20.1660  -12.5568 N   0  0  0  0  0  0  0  0  0  0  0  0
   26.0515  -20.7273  -12.0303 C   0  0  1  0  0  0  0  0  0  0  0  0
   27.2119  -20.8527  -12.9863 C   0  0  0  0  0  0  0  0  0  0  0  0
   26.9411  -21.6167  -14.2004 C   0  0  0  0  0  0  0  0  0  0  0  0
   25.8151  -22.2783  -14.5892 C   0  0  0  0  0  0  0  0  0  0  0  0
   26.0147  -22.9137  -15.7736 N   0  0  0  0  0  0  0  0  0  0  0  0
   27.2788  -22.6372  -16.1133 C   0  0  0  0  0  0  0  0  0  0  0  0
   27.8475  -21.8463  -15.1562 N   0  0  0  0  0  0  0  0  0  0  0  0
   26.4393  -20.3035  -10.6950 C   0  0  0  0  0  0  0  0  0  0  0  0
   26.7861  -19.1155  -10.4632 O   0  0  0  0  0  0  0  0  0  0  0  0
   26.4595  -21.1811   -9.5554 N   0  0  0  0  0  0  0  0  0  0  0  0
   27.1290  -20.7995   -8.3276 C   0  0  1  0  0  0  0  0  0  0  0  0
   26.5026  -19.5686   -7.7009 C   0  0  0  0  0  0  0  0  0  0  0  0
   27.2450  -19.2189   -6.4693 C   0  0  0  0  0  0  0  0  0  0  0  0
   28.2933  -18.3559   -6.5407 C   0  0  0  0  0  0  0  0  0  0  0  0
   29.0060  -18.0080   -5.4191 C   0  0  0  0  0  0  0  0  0  0  0  0
   28.6365  -18.5534   -4.2117 C   0  0  0  0  0  0  0  0  0  0  0  0
   27.5710  -19.4336   -4.1236 C   0  0  0  0  0  0  0  0  0  0  0  0
   26.8800  -19.7593   -5.2682 C   0  0  0  0  0  0  0  0  0  0  0  0
   26.9738  -21.9136   -7.3654 C   0  0  0  0  0  0  0  0  0  0  0  0
   25.9025  -22.5565   -7.2891 O   0  0  0  0  0  0  0  0  0  0  0  0
   28.0116  -22.2764   -6.5210 O   0  0  0  0  0  0  0  0  0  0  0  0
  1  2  1  0
  3  4  1  1
  3  2  1  0
  5  6  1  6
  5  3  1  0
  7  8  2  0
  7  5  1  0
  9  7  1  0
 10 17  1  0
 10  9  1  0
 10 11  1  6
 12 16  1  0
 12 11  1  0
 13 12  2  0
 14 13  1  0
 14 15  1  0
 15 16  2  0
 17 19  1  0
 18 17  2  0
 19 20  1  0
 20 28  1  0
 20 21  1  1
 22 21  1  0
 23 22  2  0
 24 23  1  0
 25 24  2  0
 25 26  1  0
 26 27  2  0
 27 22  1  0
 28 29  2  0
 28 30  1  0
M  END
$$$$
