IHF.pdb
     RDKit          3D

 30 31  0  0  1  0  0  0  0  0999 V2000
   30.7230  -18.0892  -17.5212 C   0  0  0  0  0  0  0  0  0  0  0  0
   29.6879  -18.5859  -18.4900 C   0  0  0  0  0  0  0  0  0  0  0  0
   28.3432  -18.5016  -17.8028 C   0  0  2  0  0  0  0  0  0  0  0  0
   28.3043  -19.3306  -16.5421 C   0  0  0  0  0  0  0  0  0  0  0  0
   27.2117  -18.9013  -18.6838 C   0  0  2  0  0  0  0  0  0  0  0  0
   27.1612  -18.2460  -19.9494 N   0  0  0  0  0  0  0  0  0  0  0  0
   25.8919  -18.7173  -17.9500 C   0  0  0  0  0  0  0  0  0  0  0  0
   25.4849  -17.5626  -17.6933 O   0  0  0  0  0  0  0  0  0  0  0  0
   25.1270  -19.8250  -17.5582 N   0  0  0  0  0  0  0  0  0  0  0  0
   23.8889  -19.8791  -16.8425 C   0  0  1  0  0  0  0  0  0  0  0  0
   22.6526  -20.1815  -17.6528 C   0  0  0  0  0  0  0  0  0  0  0  0
   21.3847  -19.9507  -16.9672 C   0  0  0  0  0  0  0  0  0  0  0  0
   21.1371  -19.4689  -15.7169 C   0  0  0  0  0  0  0  0  0  0  0  0
   19.8038  -19.4734  -15.4544 N   0  0  0  0  0  0  0  0  0  0  0  0
   19.2289  -19.9642  -16.5581 C   0  0  0  0  0  0  0  0  0  0  0  0
   20.1898  -20.2567  -17.4834 N   0  0  0  0  0  0  0  0  0  0  0  0
   23.9128  -20.5385  -15.5472 C   0  0  0  0  0  0  0  0  0  0  0  0
   24.2854  -21.7356  -15.4319 O   0  0  0  0  0  0  0  0  0  0  0  0
   23.5234  -19.8971  -14.3199 N   0  0  0  0  0  0  0  0  0  0  0  0
   23.5830  -20.6019  -13.0546 C   0  0  1  0  0  0  0  0  0  0  0  0
   24.5605  -19.9551  -12.0923 C   0  0  0  0  0  0  0  0  0  0  0  0
   25.9425  -20.2537  -12.5293 C   0  0  0  0  0  0  0  0  0  0  0  0
   26.5750  -21.3561  -12.0461 C   0  0  0  0  0  0  0  0  0  0  0  0
   27.8575  -21.6655  -12.4286 C   0  0  0  0  0  0  0  0  0  0  0  0
   28.4961  -20.8323  -13.3174 C   0  0  0  0  0  0  0  0  0  0  0  0
   27.8646  -19.7060  -13.8180 C   0  0  0  0  0  0  0  0  0  0  0  0
   26.5794  -19.4275  -13.4123 C   0  0  0  0  0  0  0  0  0  0  0  0
   22.2401  -20.5302  -12.4359 C   0  0  0  0  0  0  0  0  0  0  0  0
   21.9877  -21.1334  -11.3684 O   0  0  0  0  0  0  0  0  0  0  0  0
   21.2233  -19.7923  -13.0219 O   0  0  0  0  0  0  0  0  0  0  0  0
  1  2  1  0
  3  4  1  1
  3  2  1  0
  5  6  1  6
  5  3  1  0
  7  8  2  0
  7  5  1  0
  9  7  1  0
 10 17  1  0
 10  9  1  0
 10 11  1  6
 12 16  1  0
 12 11  1  0
 13 12  2  0
 14 13  1  0
 14 15  1  0
 15 16  2  0
 17 19  1  0
 18 17  2  0
 19 20  1  0
 20 28  1  0
 20 21  1  1
 22 21  1  0
 23 22  2  0
 24 23  1  0
 25 24  2  0
 25 26  1  0
 26 27  2  0
 27 22  1  0
 28 29  2  0
 28 30  1  0
M  END
$$$$
