IHF.pdb
     RDKit          3D

 30 31  0  0  1  0  0  0  0  0999 V2000
   33.2672  -25.1515  -16.0569 C   0  0  0  0  0  0  0  0  0  0  0  0
   32.2013  -25.0618  -17.1115 C   0  0  0  0  0  0  0  0  0  0  0  0
   31.2433  -23.9665  -16.6989 C   0  0  2  0  0  0  0  0  0  0  0  0
   30.5571  -24.2840  -15.3926 C   0  0  0  0  0  0  0  0  0  0  0  0
   30.2123  -23.6735  -17.7320 C   0  0  2  0  0  0  0  0  0  0  0  0
   30.7171  -23.2467  -18.9958 N   0  0  0  0  0  0  0  0  0  0  0  0
   29.2174  -22.6538  -17.1984 C   0  0  0  0  0  0  0  0  0  0  0  0
   29.4260  -21.4342  -17.3823 O   0  0  0  0  0  0  0  0  0  0  0  0
   28.0708  -23.0641  -16.5039 N   0  0  0  0  0  0  0  0  0  0  0  0
   26.8585  -22.3536  -16.2320 C   0  0  1  0  0  0  0  0  0  0  0  0
   25.7047  -22.6015  -17.1720 C   0  0  0  0  0  0  0  0  0  0  0  0
   24.5315  -21.7601  -16.9562 C   0  0  0  0  0  0  0  0  0  0  0  0
   24.3094  -20.7824  -16.0334 C   0  0  0  0  0  0  0  0  0  0  0  0
   23.0477  -20.2909  -16.1467 N   0  0  0  0  0  0  0  0  0  0  0  0
   22.4911  -20.9768  -17.1515 C   0  0  0  0  0  0  0  0  0  0  0  0
   23.3930  -21.8741  -17.6480 N   0  0  0  0  0  0  0  0  0  0  0  0
   26.4624  -22.2498  -14.8372 C   0  0  0  0  0  0  0  0  0  0  0  0
   26.3386  -23.2749  -14.1168 O   0  0  0  0  0  0  0  0  0  0  0  0
   26.1854  -21.0011  -14.1789 N   0  0  0  0  0  0  0  0  0  0  0  0
   25.9402  -20.9450  -12.7514 C   0  0  1  0  0  0  0  0  0  0  0  0
   26.6298  -19.7589  -12.1052 C   0  0  0  0  0  0  0  0  0  0  0  0
   27.3490  -20.2147  -10.8949 C   0  0  0  0  0  0  0  0  0  0  0  0
   28.5977  -20.7395  -11.0148 C   0  0  0  0  0  0  0  0  0  0  0  0
   29.2958  -21.1733   -9.9142 C   0  0  0  0  0  0  0  0  0  0  0  0
   28.7034  -21.0662   -8.6774 C   0  0  0  0  0  0  0  0  0  0  0  0
   27.4324  -20.5339   -8.5398 C   0  0  0  0  0  0  0  0  0  0  0  0
   26.7629  -20.1095   -9.6647 C   0  0  0  0  0  0  0  0  0  0  0  0
   24.4836  -20.7728  -12.5514 C   0  0  0  0  0  0  0  0  0  0  0  0
   23.7374  -20.4343  -13.4977 O   0  0  0  0  0  0  0  0  0  0  0  0
   23.9047  -20.9819  -11.3093 O   0  0  0  0  0  0  0  0  0  0  0  0
  1  2  1  0
  3  4  1  1
  3  2  1  0
  5  6  1  6
  5  3  1  0
  7  8  2  0
  7  5  1  0
  9  7  1  0
 10 17  1  0
 10  9  1  0
 10 11  1  6
 12 16  1  0
 12 11  1  0
 13 12  2  0
 14 13  1  0
 14 15  1  0
 15 16  2  0
 17 19  1  0
 18 17  2  0
 19 20  1  0
 20 28  1  0
 20 21  1  6
 22 21  1  0
 23 22  2  0
 24 23  1  0
 25 24  2  0
 25 26  1  0
 26 27  2  0
 27 22  1  0
 28 29  2  0
 28 30  1  0
M  END
$$$$
