LHW.pdb
     RDKit          3D

 33 35  0  0  1  0  0  0  0  0999 V2000
    7.0410  -12.3276   19.6690 C   0  0  0  0  0  0  0  0  0  0  0  0
    7.6718  -13.5600   19.0600 C   0  0  1  0  0  0  0  0  0  0  0  0
    8.6621  -13.1253   18.0271 C   0  0  0  0  0  0  0  0  0  0  0  0
    8.3553  -14.4195   20.0984 C   0  0  0  0  0  0  0  0  0  0  0  0
    8.8282  -15.7317   19.5177 C   0  0  2  0  0  0  0  0  0  0  0  0
    7.8205  -16.4118   18.7756 N   0  0  0  0  0  0  0  0  0  0  0  0
    9.4787  -16.5207   20.5697 C   0  0  0  0  0  0  0  0  0  0  0  0
    8.7978  -17.2901   21.2963 O   0  0  0  0  0  0  0  0  0  0  0  0
   10.8928  -16.4883   20.8543 N   0  0  0  0  0  0  0  0  0  0  0  0
   11.4574  -17.2093   21.9475 C   0  0  1  0  0  0  0  0  0  0  0  0
   12.8399  -17.6989   21.7715 C   0  0  0  0  0  0  0  0  0  0  0  0
   13.0917  -18.6494   20.6854 C   0  0  0  0  0  0  0  0  0  0  0  0
   12.6474  -19.9315   20.5452 C   0  0  0  0  0  0  0  0  0  0  0  0
   13.0919  -20.4544   19.3649 N   0  0  0  0  0  0  0  0  0  0  0  0
   13.8071  -19.4811   18.7912 C   0  0  0  0  0  0  0  0  0  0  0  0
   13.8232  -18.3929   19.5578 N   0  0  0  0  0  0  0  0  0  0  0  0
   11.2912  -16.4003   23.2057 C   0  0  0  0  0  0  0  0  0  0  0  0
   11.5442  -15.1774   23.1896 O   0  0  0  0  0  0  0  0  0  0  0  0
   10.8543  -17.0017   24.4003 N   0  0  0  0  0  0  0  0  0  0  0  0
    9.8747  -16.3129   25.2678 C   0  0  1  0  0  0  0  0  0  0  0  0
    8.6631  -15.9658   24.4549 C   0  0  0  0  0  0  0  0  0  0  0  0
    7.6385  -15.2800   25.2461 C   0  0  0  0  0  0  0  0  0  0  0  0
    6.4050  -15.8199   25.6373 C   0  0  0  0  0  0  0  0  0  0  0  0
    5.7045  -14.8990   26.3086 N   0  0  0  0  0  0  0  0  0  0  0  0
    6.4180  -13.7675   26.3835 C   0  0  0  0  0  0  0  0  0  0  0  0
    6.1677  -12.5411   26.9756 C   0  0  0  0  0  0  0  0  0  0  0  0
    7.0920  -11.5479   26.9239 C   0  0  0  0  0  0  0  0  0  0  0  0
    8.2896  -11.7575   26.2782 C   0  0  0  0  0  0  0  0  0  0  0  0
    8.5518  -12.9510   25.6919 C   0  0  0  0  0  0  0  0  0  0  0  0
    7.6108  -13.9710   25.7400 C   0  0  0  0  0  0  0  0  0  0  0  0
    9.5543  -17.0726   26.4566 C   0  0  0  0  0  0  0  0  0  0  0  0
    9.6394  -16.4064   27.6954 O   0  0  0  0  0  0  0  0  0  0  0  0
    9.2169  -18.2612   26.4043 O   0  0  0  0  0  0  0  0  0  0  0  0
  2  3  1  6
  2  1  1  0
  4  5  1  0
  4  2  1  0
  5  6  1  1
  7  5  1  0
  8  7  2  0
  9  7  1  0
 10  9  1  0
 11 12  1  0
 10 11  1  6
 12 16  1  0
 13 12  2  0
 13 14  1  0
 14 15  1  0
 16 15  2  0
 17 19  1  0
 17 10  1  0
 18 17  2  0
 20 31  1  0
 20 19  1  0
 20 21  1  6
 21 22  1  0
 22 23  2  0
 22 30  1  0
 23 24  1  0
 24 25  1  0
 25 26  2  0
 27 26  1  0
 28 27  2  0
 29 30  2  0
 29 28  1  0
 30 25  1  0
 31 32  1  0
 33 31  2  0
M  END
$$$$
