LHW.pdb
     RDKit          3D

 33 35  0  0  1  0  0  0  0  0999 V2000
    7.2501  -11.9243   20.1998 C   0  0  0  0  0  0  0  0  0  0  0  0
    7.6525  -13.2803   19.6641 C   0  0  1  0  0  0  0  0  0  0  0  0
    8.8417  -13.1053   18.7742 C   0  0  0  0  0  0  0  0  0  0  0  0
    7.9787  -14.2542   20.7728 C   0  0  0  0  0  0  0  0  0  0  0  0
    8.4366  -15.5882   20.2311 C   0  0  2  0  0  0  0  0  0  0  0  0
    7.4908  -16.1914   19.3535 N   0  0  0  0  0  0  0  0  0  0  0  0
    8.8948  -16.4307   21.3415 C   0  0  0  0  0  0  0  0  0  0  0  0
    8.1219  -17.2846   21.8486 O   0  0  0  0  0  0  0  0  0  0  0  0
   10.2118  -16.3605   21.9263 N   0  0  0  0  0  0  0  0  0  0  0  0
   10.6468  -17.2912   22.9154 C   0  0  1  0  0  0  0  0  0  0  0  0
   11.9498  -17.9454   22.6783 C   0  0  0  0  0  0  0  0  0  0  0  0
   12.0919  -18.7595   21.4685 C   0  0  0  0  0  0  0  0  0  0  0  0
   11.5358  -19.9706   21.1774 C   0  0  0  0  0  0  0  0  0  0  0  0
   11.9042  -20.3655   19.9234 N   0  0  0  0  0  0  0  0  0  0  0  0
   12.6861  -19.3861   19.4570 C   0  0  0  0  0  0  0  0  0  0  0  0
   12.8147  -18.4153   20.3587 N   0  0  0  0  0  0  0  0  0  0  0  0
   10.5707  -16.6384   24.2693 C   0  0  0  0  0  0  0  0  0  0  0  0
   11.1845  -15.5701   24.4733 O   0  0  0  0  0  0  0  0  0  0  0  0
    9.8173  -17.2139   25.3090 N   0  0  0  0  0  0  0  0  0  0  0  0
    9.9704  -16.7300   26.6977 C   0  0  1  0  0  0  0  0  0  0  0  0
    8.6156  -16.6387   27.3344 C   0  0  0  0  0  0  0  0  0  0  0  0
    7.7088  -15.7592   26.5925 C   0  0  0  0  0  0  0  0  0  0  0  0
    6.7060  -16.1741   25.7048 C   0  0  0  0  0  0  0  0  0  0  0  0
    6.1044  -15.1033   25.1748 N   0  0  0  0  0  0  0  0  0  0  0  0
    6.6620  -13.9910   25.6714 C   0  0  0  0  0  0  0  0  0  0  0  0
    6.4032  -12.6454   25.4722 C   0  0  0  0  0  0  0  0  0  0  0  0
    7.1169  -11.6993   26.1349 C   0  0  0  0  0  0  0  0  0  0  0  0
    8.1074  -12.0766   27.0133 C   0  0  0  0  0  0  0  0  0  0  0  0
    8.3758  -13.3889   27.2203 C   0  0  0  0  0  0  0  0  0  0  0  0
    7.6505  -14.3619   26.5454 C   0  0  0  0  0  0  0  0  0  0  0  0
   10.8988  -17.5306   27.4661 C   0  0  0  0  0  0  0  0  0  0  0  0
   11.2661  -17.0547   28.7407 O   0  0  0  0  0  0  0  0  0  0  0  0
   11.3608  -18.5936   27.0352 O   0  0  0  0  0  0  0  0  0  0  0  0
  2  3  1  6
  2  1  1  0
  4  5  1  0
  4  2  1  0
  5  6  1  1
  7  5  1  0
  8  7  2  0
  9  7  1  0
 10  9  1  0
 11 12  1  0
 10 11  1  6
 12 16  1  0
 13 12  2  0
 13 14  1  0
 14 15  1  0
 16 15  2  0
 17 19  1  0
 17 10  1  0
 18 17  2  0
 20 31  1  0
 20 19  1  0
 20 21  1  1
 21 22  1  0
 22 23  2  0
 22 30  1  0
 23 24  1  0
 24 25  1  0
 25 26  2  0
 27 26  1  0
 28 27  2  0
 29 30  2  0
 29 28  1  0
 30 25  1  0
 31 32  1  0
 33 31  2  0
M  END
$$$$
