TAR.pdb
     RDKit          3D

 24 23  0  0  1  0  0  0  0  0999 V2000
    6.4304  -14.1216   18.8286 C   0  0  0  0  0  0  0  0  0  0  0  0
    6.9803  -14.2539   20.2080 C   0  0  1  0  0  0  0  0  0  0  0  0
    8.0465  -15.1637   20.1576 O   0  0  0  0  0  0  0  0  0  0  0  0
    7.4039  -12.9414   20.8133 C   0  0  2  0  0  0  0  0  0  0  0  0
    8.3676  -12.3233   19.9231 N   0  0  0  0  0  0  0  0  0  0  0  0
    7.9358  -13.0968   22.1841 C   0  0  0  0  0  0  0  0  0  0  0  0
    9.1365  -13.4126   22.3685 O   0  0  0  0  0  0  0  0  0  0  0  0
    6.4245  -12.5662   25.5768 C   0  0  0  0  0  0  0  0  0  0  0  0
    7.5029  -13.1535   24.6877 C   0  0  2  0  0  0  0  0  0  0  0  0
    7.1179  -12.8972   23.3257 N   0  0  0  0  0  0  0  0  0  0  0  0
    7.7634  -14.5657   24.9691 C   0  0  0  0  0  0  0  0  0  0  0  0
    7.0341  -15.4361   24.4394 O   0  0  0  0  0  0  0  0  0  0  0  0
   12.8617  -19.1889   21.6378 N   0  0  0  0  0  0  0  0  0  0  0  0
   13.2387  -19.6296   22.9272 C   0  0  0  0  0  0  0  0  0  0  0  0
   13.6224  -20.8694   23.0509 N   0  0  0  0  0  0  0  0  0  0  0  0
   13.2174  -18.8082   24.0652 N   0  0  0  0  0  0  0  0  0  0  0  0
   12.5627  -17.5250   24.0678 C   0  0  0  0  0  0  0  0  0  0  0  0
   11.2856  -17.6723   24.9050 C   0  0  0  0  0  0  0  0  0  0  0  0
   10.5456  -16.3709   24.9754 C   0  0  0  0  0  0  0  0  0  0  0  0
    9.2975  -16.3899   25.7990 C   0  0  2  0  0  0  0  0  0  0  0  0
    8.8102  -14.9983   25.8195 N   0  0  0  0  0  0  0  0  0  0  0  0
    9.6409  -16.8180   27.1831 C   0  0  0  0  0  0  0  0  0  0  0  0
    9.7217  -15.9242   28.0635 O   0  0  0  0  0  0  0  0  0  0  0  0
    9.8773  -18.1064   27.5787 O   0  0  0  0  0  0  0  0  0  0  0  0
  2  1  1  6
  2  3  1  0
  4  5  1  6
  4  2  1  0
  6  7  2  0
  6  4  1  0
  9  8  1  1
  9 11  1  0
  9 10  1  0
 10  6  1  0
 11 21  1  0
 12 11  2  0
 13 14  1  0
 14 15  2  0
 16 14  1  0
 16 17  1  0
 18 17  1  0
 19 18  1  0
 20 19  1  6
 21 20  1  0
 22 24  1  0
 22 20  1  0
 23 22  2  0
M  END
$$$$
