TAR.pdb
     RDKit          3D

 24 23  0  0  1  0  0  0  0  0999 V2000
    7.8868  -16.4749   18.1674 C   0  0  0  0  0  0  0  0  0  0  0  0
    8.4159  -15.2026   17.5983 C   0  0  1  0  0  0  0  0  0  0  0  0
    7.9246  -15.0828   16.2900 O   0  0  0  0  0  0  0  0  0  0  0  0
    8.0807  -13.9899   18.4261 C   0  0  2  0  0  0  0  0  0  0  0  0
    8.4724  -12.8103   17.6789 N   0  0  0  0  0  0  0  0  0  0  0  0
    8.7049  -14.0300   19.7659 C   0  0  0  0  0  0  0  0  0  0  0  0
    9.9544  -14.0254   19.8858 O   0  0  0  0  0  0  0  0  0  0  0  0
    7.2973  -13.9777   23.2415 C   0  0  0  0  0  0  0  0  0  0  0  0
    8.4285  -14.2828   22.2794 C   0  0  2  0  0  0  0  0  0  0  0  0
    7.9235  -14.0747   20.9488 N   0  0  0  0  0  0  0  0  0  0  0  0
    9.0076  -15.6105   22.4874 C   0  0  0  0  0  0  0  0  0  0  0  0
    8.4275  -16.6098   22.0029 O   0  0  0  0  0  0  0  0  0  0  0  0
   14.1588  -14.1379   20.7969 N   0  0  0  0  0  0  0  0  0  0  0  0
   13.5076  -14.7230   19.6868 C   0  0  0  0  0  0  0  0  0  0  0  0
   13.1606  -13.9342   18.7084 N   0  0  0  0  0  0  0  0  0  0  0  0
   13.2185  -16.0932   19.5900 N   0  0  0  0  0  0  0  0  0  0  0  0
   13.4530  -17.0014   20.6832 C   0  0  0  0  0  0  0  0  0  0  0  0
   12.0842  -17.3478   21.2830 C   0  0  0  0  0  0  0  0  0  0  0  0
   12.0977  -17.1696   22.7711 C   0  0  0  0  0  0  0  0  0  0  0  0
   10.7536  -17.1723   23.4267 C   0  0  2  0  0  0  0  0  0  0  0  0
   10.2033  -15.8204   23.2170 N   0  0  0  0  0  0  0  0  0  0  0  0
   10.9298  -17.4181   24.8846 C   0  0  0  0  0  0  0  0  0  0  0  0
   10.6332  -16.4827   25.6705 O   0  0  0  0  0  0  0  0  0  0  0  0
   11.3894  -18.5798   25.4427 O   0  0  0  0  0  0  0  0  0  0  0  0
  2  1  1  1
  2  3  1  0
  4  5  1  6
  4  2  1  0
  6  7  2  0
  6  4  1  0
  9  8  1  1
  9 11  1  0
  9 10  1  0
 10  6  1  0
 11 21  1  0
 12 11  2  0
 13 14  1  0
 14 15  2  0
 16 14  1  0
 16 17  1  0
 18 17  1  0
 19 18  1  0
 20 19  1  6
 21 20  1  0
 22 24  1  0
 22 20  1  0
 23 22  2  0
M  END
$$$$
