TAR.pdb
     RDKit          3D

 24 23  0  0  1  0  0  0  0  0999 V2000
    9.9695  -14.2362   15.4693 C   0  0  0  0  0  0  0  0  0  0  0  0
    9.6845  -14.6551   16.8714 C   0  0  1  0  0  0  0  0  0  0  0  0
   10.3864  -13.7926   17.7261 O   0  0  0  0  0  0  0  0  0  0  0  0
    8.2154  -14.6836   17.2020 C   0  0  2  0  0  0  0  0  0  0  0  0
    7.6710  -13.3623   16.9549 N   0  0  0  0  0  0  0  0  0  0  0  0
    7.9559  -15.1404   18.5841 C   0  0  0  0  0  0  0  0  0  0  0  0
    7.7801  -14.3077   19.5068 O   0  0  0  0  0  0  0  0  0  0  0  0
    7.7642  -18.5696   20.1106 C   0  0  0  0  0  0  0  0  0  0  0  0
    7.7281  -17.0591   20.2349 C   0  0  2  0  0  0  0  0  0  0  0  0
    7.8973  -16.5190   18.9126 N   0  0  0  0  0  0  0  0  0  0  0  0
    8.6940  -16.5466   21.2073 C   0  0  0  0  0  0  0  0  0  0  0  0
    9.8581  -16.2818   20.8268 O   0  0  0  0  0  0  0  0  0  0  0  0
    6.9648  -11.8350   28.0501 N   0  0  0  0  0  0  0  0  0  0  0  0
    6.4738  -11.5973   26.7458 C   0  0  0  0  0  0  0  0  0  0  0  0
    6.0285  -10.4013   26.4793 N   0  0  0  0  0  0  0  0  0  0  0  0
    6.4408  -12.5745   25.7387 N   0  0  0  0  0  0  0  0  0  0  0  0
    7.0592  -13.8646   25.9070 C   0  0  0  0  0  0  0  0  0  0  0  0
    7.9631  -14.0936   24.6888 C   0  0  0  0  0  0  0  0  0  0  0  0
    8.6056  -15.4462   24.7529 C   0  0  0  0  0  0  0  0  0  0  0  0
    9.3749  -15.8459   23.5344 C   0  0  2  0  0  0  0  0  0  0  0  0
    8.3718  -16.3340   22.5701 N   0  0  0  0  0  0  0  0  0  0  0  0
   10.3022  -16.9543   23.8930 C   0  0  0  0  0  0  0  0  0  0  0  0
    9.8911  -18.1308   23.7276 O   0  0  0  0  0  0  0  0  0  0  0  0
   11.5679  -16.7997   24.3893 O   0  0  0  0  0  0  0  0  0  0  0  0
  2  1  1  6
  2  3  1  0
  4  5  1  1
  4  2  1  0
  6  7  2  0
  6  4  1  0
  9  8  1  6
  9 11  1  0
  9 10  1  0
 10  6  1  0
 11 21  1  0
 12 11  2  0
 13 14  1  0
 14 15  2  0
 16 14  1  0
 16 17  1  0
 18 17  1  0
 19 18  1  0
 20 19  1  1
 21 20  1  0
 22 24  1  0
 22 20  1  0
 23 22  2  0
M  END
$$$$
