TAR.pdb
     RDKit          3D

 24 23  0  0  1  0  0  0  0  0999 V2000
    7.5936  -17.4336   16.4582 C   0  0  0  0  0  0  0  0  0  0  0  0
    8.5240  -16.7859   15.4900 C   0  0  1  0  0  0  0  0  0  0  0  0
    8.1728  -17.2209   14.2036 O   0  0  0  0  0  0  0  0  0  0  0  0
    8.5325  -15.2824   15.5802 C   0  0  2  0  0  0  0  0  0  0  0  0
    9.2244  -14.7639   14.4159 N   0  0  0  0  0  0  0  0  0  0  0  0
    9.1294  -14.7955   16.8423 C   0  0  0  0  0  0  0  0  0  0  0  0
   10.3425  -14.9990   17.0923 O   0  0  0  0  0  0  0  0  0  0  0  0
    7.6907  -12.9011   19.7518 C   0  0  0  0  0  0  0  0  0  0  0  0
    8.8185  -13.6807   19.1048 C   0  0  2  0  0  0  0  0  0  0  0  0
    8.3616  -14.0897   17.8037 N   0  0  0  0  0  0  0  0  0  0  0  0
    9.2928  -14.7876   19.9361 C   0  0  0  0  0  0  0  0  0  0  0  0
    8.6576  -15.8676   19.9310 O   0  0  0  0  0  0  0  0  0  0  0  0
   15.3417  -13.5896   17.7886 N   0  0  0  0  0  0  0  0  0  0  0  0
   14.9417  -14.9455   17.7790 C   0  0  0  0  0  0  0  0  0  0  0  0
   15.4612  -15.7196   16.8675 N   0  0  0  0  0  0  0  0  0  0  0  0
   14.0228  -15.4902   18.6896 N   0  0  0  0  0  0  0  0  0  0  0  0
   14.1400  -15.2797   20.1098 C   0  0  0  0  0  0  0  0  0  0  0  0
   13.2209  -16.2998   20.7941 C   0  0  0  0  0  0  0  0  0  0  0  0
   12.3482  -15.6280   21.8106 C   0  0  0  0  0  0  0  0  0  0  0  0
   10.8776  -15.8129   21.6115 C   0  0  2  0  0  0  0  0  0  0  0  0
   10.4462  -14.6945   20.7529 N   0  0  0  0  0  0  0  0  0  0  0  0
   10.1975  -15.7181   22.9327 C   0  0  0  0  0  0  0  0  0  0  0  0
   10.4625  -16.6022   23.7862 O   0  0  0  0  0  0  0  0  0  0  0  0
    9.3053  -14.7468   23.2969 O   0  0  0  0  0  0  0  0  0  0  0  0
  2  1  1  1
  2  3  1  0
  4  5  1  6
  4  2  1  0
  6  7  2  0
  6  4  1  0
  9  8  1  1
  9 11  1  0
  9 10  1  0
 10  6  1  0
 11 21  1  0
 12 11  2  0
 13 14  1  0
 14 15  2  0
 16 14  1  0
 16 17  1  0
 18 17  1  0
 19 18  1  0
 20 19  1  1
 21 20  1  0
 22 24  1  0
 22 20  1  0
 23 22  2  0
M  END
$$$$
