TAR.pdb
     RDKit          3D

 24 23  0  0  1  0  0  0  0  0999 V2000
    9.1928  -13.9413   15.5321 C   0  0  0  0  0  0  0  0  0  0  0  0
    9.1881  -14.5266   16.9032 C   0  0  1  0  0  0  0  0  0  0  0  0
   10.1923  -13.8868   17.6444 O   0  0  0  0  0  0  0  0  0  0  0  0
    7.8512  -14.4332   17.5908 C   0  0  2  0  0  0  0  0  0  0  0  0
    7.4386  -13.0429   17.5892 N   0  0  0  0  0  0  0  0  0  0  0  0
    7.8765  -15.0024   18.9552 C   0  0  0  0  0  0  0  0  0  0  0  0
    8.0127  -14.2544   19.9540 O   0  0  0  0  0  0  0  0  0  0  0  0
    7.8688  -18.5480   20.1894 C   0  0  0  0  0  0  0  0  0  0  0  0
    7.8811  -17.0552   20.4533 C   0  0  2  0  0  0  0  0  0  0  0  0
    7.7496  -16.3969   19.1812 N   0  0  0  0  0  0  0  0  0  0  0  0
    9.0506  -16.6242   21.2201 C   0  0  0  0  0  0  0  0  0  0  0  0
    9.8258  -15.7755   20.7215 O   0  0  0  0  0  0  0  0  0  0  0  0
    4.8025  -12.1821   26.5248 N   0  0  0  0  0  0  0  0  0  0  0  0
    6.1760  -11.8502   26.4799 C   0  0  0  0  0  0  0  0  0  0  0  0
    6.5050  -10.6149   26.7356 N   0  0  0  0  0  0  0  0  0  0  0  0
    7.1881  -12.7737   26.1751 N   0  0  0  0  0  0  0  0  0  0  0  0
    7.0553  -13.7242   25.1008 C   0  0  0  0  0  0  0  0  0  0  0  0
    8.3923  -14.4682   24.9894 C   0  0  0  0  0  0  0  0  0  0  0  0
    8.3448  -15.4799   23.8846 C   0  0  0  0  0  0  0  0  0  0  0  0
    9.6192  -16.2254   23.6465 C   0  0  2  0  0  0  0  0  0  0  0  0
    9.3497  -17.1260   22.5104 N   0  0  0  0  0  0  0  0  0  0  0  0
    9.9382  -17.0319   24.8568 C   0  0  0  0  0  0  0  0  0  0  0  0
    9.3054  -18.1056   25.0217 O   0  0  0  0  0  0  0  0  0  0  0  0
   10.8646  -16.7014   25.8080 O   0  0  0  0  0  0  0  0  0  0  0  0
  2  1  1  6
  2  3  1  0
  4  5  1  1
  4  2  1  0
  6  7  2  0
  6  4  1  0
  9  8  1  6
  9 11  1  0
  9 10  1  0
 10  6  1  0
 11 21  1  0
 12 11  2  0
 13 14  1  0
 14 15  2  0
 16 14  1  0
 16 17  1  0
 18 17  1  0
 19 18  1  0
 20 19  1  1
 21 20  1  0
 22 24  1  0
 22 20  1  0
 23 22  2  0
M  END
$$$$
