TAR.pdb
     RDKit          3D

 24 23  0  0  1  0  0  0  0  0999 V2000
    7.6848  -16.2945   16.7590 C   0  0  0  0  0  0  0  0  0  0  0  0
    8.1634  -14.9282   16.4030 C   0  0  1  0  0  0  0  0  0  0  0  0
    7.7990  -14.6812   15.0713 O   0  0  0  0  0  0  0  0  0  0  0  0
    7.6485  -13.8533   17.3238 C   0  0  2  0  0  0  0  0  0  0  0  0
    7.8423  -12.5711   16.6745 N   0  0  0  0  0  0  0  0  0  0  0  0
    8.2834  -13.9004   18.6583 C   0  0  0  0  0  0  0  0  0  0  0  0
    9.5144  -13.6905   18.7847 O   0  0  0  0  0  0  0  0  0  0  0  0
    6.9139  -14.6931   22.0676 C   0  0  0  0  0  0  0  0  0  0  0  0
    8.0807  -14.4397   21.1335 C   0  0  2  0  0  0  0  0  0  0  0  0
    7.5331  -14.1813   19.8288 N   0  0  0  0  0  0  0  0  0  0  0  0
    9.0681  -15.5195   21.1532 C   0  0  0  0  0  0  0  0  0  0  0  0
    9.0348  -16.3907   20.2533 O   0  0  0  0  0  0  0  0  0  0  0  0
   15.7465  -13.4055   17.4839 N   0  0  0  0  0  0  0  0  0  0  0  0
   16.0380  -14.6875   18.0037 C   0  0  0  0  0  0  0  0  0  0  0  0
   17.1019  -15.2916   17.5533 N   0  0  0  0  0  0  0  0  0  0  0  0
   15.2464  -15.3331   18.9664 N   0  0  0  0  0  0  0  0  0  0  0  0
   13.9519  -14.8315   19.3508 C   0  0  0  0  0  0  0  0  0  0  0  0
   13.4172  -15.7591   20.4496 C   0  0  0  0  0  0  0  0  0  0  0  0
   12.0383  -15.3455   20.8669 C   0  0  0  0  0  0  0  0  0  0  0  0
   11.3790  -16.2400   21.8677 C   0  0  2  0  0  0  0  0  0  0  0  0
   10.0682  -15.6267   22.1504 N   0  0  0  0  0  0  0  0  0  0  0  0
   12.1990  -16.2584   23.1104 C   0  0  0  0  0  0  0  0  0  0  0  0
   13.3155  -16.8340   23.0601 O   0  0  0  0  0  0  0  0  0  0  0  0
   11.8382  -15.7002   24.3064 O   0  0  0  0  0  0  0  0  0  0  0  0
  2  1  1  1
  2  3  1  0
  4  5  1  6
  4  2  1  0
  6  7  2  0
  6  4  1  0
  9  8  1  1
  9 11  1  0
  9 10  1  0
 10  6  1  0
 11 21  1  0
 12 11  2  0
 13 14  1  0
 14 15  2  0
 16 14  1  0
 16 17  1  0
 18 17  1  0
 19 18  1  0
 20 19  1  6
 21 20  1  0
 22 24  1  0
 22 20  1  0
 23 22  2  0
M  END
$$$$
