TAR.pdb
     RDKit          3D

 24 23  0  0  1  0  0  0  0  0999 V2000
    7.7371  -16.4312   14.8230 C   0  0  0  0  0  0  0  0  0  0  0  0
    8.1825  -16.1459   16.2168 C   0  0  1  0  0  0  0  0  0  0  0  0
    9.3814  -16.8411   16.4331 O   0  0  0  0  0  0  0  0  0  0  0  0
    8.3373  -14.6763   16.5082 C   0  0  2  0  0  0  0  0  0  0  0  0
    9.2387  -14.1126   15.5219 N   0  0  0  0  0  0  0  0  0  0  0  0
    8.7968  -14.4195   17.8899 C   0  0  0  0  0  0  0  0  0  0  0  0
   10.0020  -14.5831   18.2002 O   0  0  0  0  0  0  0  0  0  0  0  0
    6.9875  -13.2943   20.9858 C   0  0  0  0  0  0  0  0  0  0  0  0
    8.2192  -13.8495   20.2983 C   0  0  2  0  0  0  0  0  0  0  0  0
    7.9028  -13.9846   18.9017 N   0  0  0  0  0  0  0  0  0  0  0  0
    8.7036  -15.0858   20.9135 C   0  0  0  0  0  0  0  0  0  0  0  0
    8.1558  -16.1711   20.6106 O   0  0  0  0  0  0  0  0  0  0  0  0
   16.5028  -15.4670   19.4866 N   0  0  0  0  0  0  0  0  0  0  0  0
   15.1880  -14.9488   19.4495 C   0  0  0  0  0  0  0  0  0  0  0  0
   14.7208  -14.5757   18.2910 N   0  0  0  0  0  0  0  0  0  0  0  0
   14.3735  -14.8162   20.5851 N   0  0  0  0  0  0  0  0  0  0  0  0
   13.7316  -15.9497   21.2000 C   0  0  0  0  0  0  0  0  0  0  0  0
   12.3104  -15.5126   21.5779 C   0  0  0  0  0  0  0  0  0  0  0  0
   11.5360  -16.6633   22.1460 C   0  0  0  0  0  0  0  0  0  0  0  0
   10.1363  -16.3455   22.5659 C   0  0  2  0  0  0  0  0  0  0  0  0
    9.7718  -15.1129   21.8432 N   0  0  0  0  0  0  0  0  0  0  0  0
   10.1209  -16.0865   24.0321 C   0  0  0  0  0  0  0  0  0  0  0  0
    9.8842  -14.9115   24.4111 O   0  0  0  0  0  0  0  0  0  0  0  0
   10.3438  -17.0228   25.0047 O   0  0  0  0  0  0  0  0  0  0  0  0
  2  1  1  6
  2  3  1  0
  4  5  1  6
  4  2  1  0
  6  7  2  0
  6  4  1  0
  9  8  1  1
  9 11  1  0
  9 10  1  0
 10  6  1  0
 11 21  1  0
 12 11  2  0
 13 14  1  0
 14 15  2  0
 16 14  1  0
 16 17  1  0
 18 17  1  0
 19 18  1  0
 20 19  1  6
 21 20  1  0
 22 24  1  0
 22 20  1  0
 23 22  2  0
M  END
$$$$
