TAR.pdb
     RDKit          3D

 24 23  0  0  1  0  0  0  0  0999 V2000
    8.2185  -17.1812   17.2948 C   0  0  0  0  0  0  0  0  0  0  0  0
    8.8174  -16.1820   16.3645 C   0  0  1  0  0  0  0  0  0  0  0  0
    8.3980  -16.5027   15.0651 O   0  0  0  0  0  0  0  0  0  0  0  0
    8.4801  -14.7569   16.7166 C   0  0  2  0  0  0  0  0  0  0  0  0
    8.9711  -13.9007   15.6541 N   0  0  0  0  0  0  0  0  0  0  0  0
    9.0113  -14.3604   18.0382 C   0  0  0  0  0  0  0  0  0  0  0  0
   10.2476  -14.3664   18.2547 O   0  0  0  0  0  0  0  0  0  0  0  0
    7.3667  -13.1438   21.1853 C   0  0  0  0  0  0  0  0  0  0  0  0
    8.5461  -13.7673   20.4652 C   0  0  2  0  0  0  0  0  0  0  0  0
    8.1530  -13.9641   19.0957 N   0  0  0  0  0  0  0  0  0  0  0  0
    9.0310  -14.9838   21.1182 C   0  0  0  0  0  0  0  0  0  0  0  0
    8.4741  -16.0761   20.8599 O   0  0  0  0  0  0  0  0  0  0  0  0
   12.9670  -13.6279   18.9350 N   0  0  0  0  0  0  0  0  0  0  0  0
   14.0703  -14.5108   18.8923 C   0  0  0  0  0  0  0  0  0  0  0  0
   14.6424  -14.7032   17.7367 N   0  0  0  0  0  0  0  0  0  0  0  0
   14.5708  -15.1828   20.0184 N   0  0  0  0  0  0  0  0  0  0  0  0
   13.9655  -15.0483   21.3186 C   0  0  0  0  0  0  0  0  0  0  0  0
   12.9229  -16.1661   21.4483 C   0  0  0  0  0  0  0  0  0  0  0  0
   12.1337  -16.0100   22.7129 C   0  0  0  0  0  0  0  0  0  0  0  0
   10.6619  -16.2388   22.5793 C   0  0  2  0  0  0  0  0  0  0  0  0
   10.1095  -14.9841   22.0363 N   0  0  0  0  0  0  0  0  0  0  0  0
   10.0897  -16.4917   23.9304 C   0  0  0  0  0  0  0  0  0  0  0  0
    9.3941  -15.5800   24.4456 O   0  0  0  0  0  0  0  0  0  0  0  0
   10.2582  -17.6363   24.6611 O   0  0  0  0  0  0  0  0  0  0  0  0
  2  1  1  1
  2  3  1  0
  4  5  1  6
  4  2  1  0
  6  7  2  0
  6  4  1  0
  9  8  1  1
  9 11  1  0
  9 10  1  0
 10  6  1  0
 11 21  1  0
 12 11  2  0
 13 14  1  0
 14 15  2  0
 16 14  1  0
 16 17  1  0
 18 17  1  0
 19 18  1  0
 20 19  1  1
 21 20  1  0
 22 24  1  0
 22 20  1  0
 23 22  2  0
M  END
$$$$
