TAR.pdb
     RDKit          3D

 24 23  0  0  1  0  0  0  0  0999 V2000
    7.0438  -15.8492   19.0312 C   0  0  0  0  0  0  0  0  0  0  0  0
    7.9567  -14.7753   18.5456 C   0  0  1  0  0  0  0  0  0  0  0  0
    7.6471  -14.5272   17.2003 O   0  0  0  0  0  0  0  0  0  0  0  0
    7.8910  -13.5150   19.3677 C   0  0  2  0  0  0  0  0  0  0  0  0
    8.5721  -12.4632   18.6375 N   0  0  0  0  0  0  0  0  0  0  0  0
    8.4468  -13.6965   20.7257 C   0  0  0  0  0  0  0  0  0  0  0  0
    9.6590  -13.9808   20.8841 O   0  0  0  0  0  0  0  0  0  0  0  0
    6.9454  -13.3498   24.1494 C   0  0  0  0  0  0  0  0  0  0  0  0
    8.0597  -13.8184   23.2345 C   0  0  2  0  0  0  0  0  0  0  0  0
    7.6396  -13.5576   21.8838 N   0  0  0  0  0  0  0  0  0  0  0  0
    8.4416  -15.2108   23.4728 C   0  0  0  0  0  0  0  0  0  0  0  0
    7.6255  -16.1209   23.1981 O   0  0  0  0  0  0  0  0  0  0  0  0
   14.7817  -16.8016   19.4997 N   0  0  0  0  0  0  0  0  0  0  0  0
   14.0107  -15.7566   20.0586 C   0  0  0  0  0  0  0  0  0  0  0  0
   14.3820  -14.5330   19.8045 N   0  0  0  0  0  0  0  0  0  0  0  0
   12.8817  -15.9706   20.8647 N   0  0  0  0  0  0  0  0  0  0  0  0
   12.5522  -17.2724   21.3861 C   0  0  0  0  0  0  0  0  0  0  0  0
   11.1724  -17.1572   22.0468 C   0  0  0  0  0  0  0  0  0  0  0  0
   11.2871  -17.2764   23.5364 C   0  0  0  0  0  0  0  0  0  0  0  0
   10.0333  -16.9870   24.2984 C   0  0  2  0  0  0  0  0  0  0  0  0
    9.7015  -15.5808   24.0038 N   0  0  0  0  0  0  0  0  0  0  0  0
   10.3085  -17.1398   25.7537 C   0  0  0  0  0  0  0  0  0  0  0  0
   10.3431  -16.0939   26.4504 O   0  0  0  0  0  0  0  0  0  0  0  0
   10.5283  -18.3264   26.3986 O   0  0  0  0  0  0  0  0  0  0  0  0
  2  1  1  1
  2  3  1  0
  4  5  1  6
  4  2  1  0
  6  7  2  0
  6  4  1  0
  9  8  1  1
  9 11  1  0
  9 10  1  0
 10  6  1  0
 11 21  1  0
 12 11  2  0
 13 14  1  0
 14 15  2  0
 16 14  1  0
 16 17  1  0
 18 17  1  0
 19 18  1  0
 20 19  1  6
 21 20  1  0
 22 24  1  0
 22 20  1  0
 23 22  2  0
M  END
$$$$
