TAR.pdb
     RDKit          3D

 24 23  0  0  1  0  0  0  0  0999 V2000
   10.7525  -13.0453   18.7909 C   0  0  0  0  0  0  0  0  0  0  0  0
    9.3007  -12.7222   18.8929 C   0  0  1  0  0  0  0  0  0  0  0  0
    9.0189  -11.7199   17.9531 O   0  0  0  0  0  0  0  0  0  0  0  0
    8.4053  -13.9190   18.7075 C   0  0  2  0  0  0  0  0  0  0  0  0
    7.0288  -13.4644   18.7503 N   0  0  0  0  0  0  0  0  0  0  0  0
    8.6693  -14.9816   19.7012 C   0  0  0  0  0  0  0  0  0  0  0  0
    8.1880  -14.9045   20.8579 O   0  0  0  0  0  0  0  0  0  0  0  0
   10.4432  -18.2804   19.4237 C   0  0  0  0  0  0  0  0  0  0  0  0
    9.6561  -17.2637   20.2270 C   0  0  2  0  0  0  0  0  0  0  0  0
    9.4662  -16.1120   19.3865 N   0  0  0  0  0  0  0  0  0  0  0  0
   10.2770  -16.9552   21.5156 C   0  0  0  0  0  0  0  0  0  0  0  0
   11.1599  -16.0677   21.5684 O   0  0  0  0  0  0  0  0  0  0  0  0
    9.1142  -13.4951   28.5603 N   0  0  0  0  0  0  0  0  0  0  0  0
    9.9152  -14.5763   28.9943 C   0  0  0  0  0  0  0  0  0  0  0  0
   10.5120  -14.4580   30.1473 N   0  0  0  0  0  0  0  0  0  0  0  0
   10.0980  -15.7536   28.2522 N   0  0  0  0  0  0  0  0  0  0  0  0
    9.6747  -15.8638   26.8797 C   0  0  0  0  0  0  0  0  0  0  0  0
    9.8787  -17.3256   26.4611 C   0  0  0  0  0  0  0  0  0  0  0  0
    9.4601  -17.5319   25.0368 C   0  0  0  0  0  0  0  0  0  0  0  0
   10.5087  -17.2326   24.0135 C   0  0  2  0  0  0  0  0  0  0  0  0
    9.9236  -17.6184   22.7161 N   0  0  0  0  0  0  0  0  0  0  0  0
   11.7054  -18.0742   24.2905 C   0  0  0  0  0  0  0  0  0  0  0  0
   11.6621  -19.2791   23.9343 O   0  0  0  0  0  0  0  0  0  0  0  0
   12.8516  -17.6454   24.9025 O   0  0  0  0  0  0  0  0  0  0  0  0
  2  1  1  6
  2  3  1  0
  4  5  1  1
  4  2  1  0
  6  7  2  0
  6  4  1  0
  9  8  1  6
  9 11  1  0
  9 10  1  0
 10  6  1  0
 11 21  1  0
 12 11  2  0
 13 14  1  0
 14 15  2  0
 16 14  1  0
 16 17  1  0
 18 17  1  0
 19 18  1  0
 20 19  1  1
 21 20  1  0
 22 24  1  0
 22 20  1  0
 23 22  2  0
M  END
$$$$
