YFP.pdb
     RDKit          3D

 31 33  0  0  1  0  0  0  0  0999 V2000
   14.0630  -19.1099  -13.0345 O   0  0  0  0  0  0  0  0  0  0  0  0
   15.3756  -19.5867  -12.9813 C   0  0  0  0  0  0  0  0  0  0  0  0
   15.6690  -20.8635  -12.5520 C   0  0  0  0  0  0  0  0  0  0  0  0
   16.9693  -21.3216  -12.5044 C   0  0  0  0  0  0  0  0  0  0  0  0
   18.0392  -20.5222  -12.8848 C   0  0  0  0  0  0  0  0  0  0  0  0
   19.4434  -21.0131  -12.8347 C   0  0  0  0  0  0  0  0  0  0  0  0
   19.9152  -21.1643  -14.2592 C   0  0  2  0  0  0  0  0  0  0  0  0
   19.2027  -22.3052  -14.8253 N   0  0  0  0  0  0  0  0  0  0  0  0
   21.3775  -21.3525  -14.3547 C   0  0  0  0  0  0  0  0  0  0  0  0
   21.8495  -22.4668  -14.0803 O   0  0  0  0  0  0  0  0  0  0  0  0
   17.7287  -19.2478  -13.3117 C   0  0  0  0  0  0  0  0  0  0  0  0
   16.4308  -18.7837  -13.3616 C   0  0  0  0  0  0  0  0  0  0  0  0
   22.1805  -20.2686  -14.7511 N   0  0  0  0  0  0  0  0  0  0  0  0
   23.6173  -20.2797  -14.5857 C   0  0  1  0  0  0  0  0  0  0  0  0
   24.2316  -19.2134  -15.4832 C   0  0  0  0  0  0  0  0  0  0  0  0
   25.6922  -19.1029  -15.2961 C   0  0  0  0  0  0  0  0  0  0  0  0
   26.2202  -18.1780  -14.4339 C   0  0  0  0  0  0  0  0  0  0  0  0
   27.6137  -18.0972  -14.2913 C   0  0  0  0  0  0  0  0  0  0  0  0
   28.4257  -18.9510  -15.0218 C   0  0  0  0  0  0  0  0  0  0  0  0
   27.8980  -19.8776  -15.8851 C   0  0  0  0  0  0  0  0  0  0  0  0
   26.5312  -19.9464  -16.0158 C   0  0  0  0  0  0  0  0  0  0  0  0
   23.9408  -20.0367  -13.1739 C   0  0  0  0  0  0  0  0  0  0  0  0
   23.2139  -19.1965  -12.5045 O   0  0  0  0  0  0  0  0  0  0  0  0
   24.9686  -20.6159  -12.4235 N   0  0  0  0  0  0  0  0  0  0  0  0
   26.0442  -21.4347  -12.9350 C   0  0  0  0  0  0  0  0  0  0  0  0
   26.0226  -22.5991  -11.9517 C   0  0  0  0  0  0  0  0  0  0  0  0
   25.7802  -21.8966  -10.6332 C   0  0  0  0  0  0  0  0  0  0  0  0
   25.2283  -20.5096  -11.0171 C   0  0  1  0  0  0  0  0  0  0  0  0
   26.3725  -19.5501  -10.7826 C   0  0  0  0  0  0  0  0  0  0  0  0
   27.0810  -19.2696  -11.7713 O   0  0  0  0  0  0  0  0  0  0  0  0
   26.6451  -19.0005   -9.5651 O   0  0  0  0  0  0  0  0  0  0  0  0
  2  1  1  0
  3  2  2  0
  4  3  1  0
  5  4  2  0
  5 11  1  0
  6  5  1  0
  7  6  1  0
  7  8  1  1
  9 10  2  0
  9  7  1  0
 11 12  2  0
 12  2  1  0
 13  9  1  0
 14 15  1  6
 14 13  1  0
 16 15  1  0
 16 17  2  0
 18 17  1  0
 19 18  2  0
 20 21  2  0
 20 19  1  0
 21 16  1  0
 22 14  1  0
 23 22  2  0
 24 25  1  0
 24 22  1  0
 26 25  1  0
 27 28  1  0
 27 26  1  0
 28 24  1  0
 28 29  1  6
 29 31  1  0
 30 29  2  0
M  END
$$$$
