YFP.pdb
     RDKit          3D

 31 33  0  0  1  0  0  0  0  0999 V2000
   23.7780  -17.8073  -16.8500 O   0  0  0  0  0  0  0  0  0  0  0  0
   23.9346  -18.4141  -15.6008 C   0  0  0  0  0  0  0  0  0  0  0  0
   23.3351  -19.6176  -15.2962 C   0  0  0  0  0  0  0  0  0  0  0  0
   23.4980  -20.2056  -14.0591 C   0  0  0  0  0  0  0  0  0  0  0  0
   24.2698  -19.6160  -13.0666 C   0  0  0  0  0  0  0  0  0  0  0  0
   24.4478  -20.2476  -11.7307 C   0  0  0  0  0  0  0  0  0  0  0  0
   25.8886  -20.6814  -11.6296 C   0  0  2  0  0  0  0  0  0  0  0  0
   26.0528  -21.8256  -12.5204 N   0  0  0  0  0  0  0  0  0  0  0  0
   26.2811  -21.0255  -10.2474 C   0  0  0  0  0  0  0  0  0  0  0  0
   26.0069  -22.1574   -9.8192 O   0  0  0  0  0  0  0  0  0  0  0  0
   24.8626  -18.4125  -13.3872 C   0  0  0  0  0  0  0  0  0  0  0  0
   24.7037  -17.8193  -14.6222 C   0  0  0  0  0  0  0  0  0  0  0  0
   26.9483  -20.0641   -9.4681 N   0  0  0  0  0  0  0  0  0  0  0  0
   27.3454  -20.3272   -8.1024 C   0  0  1  0  0  0  0  0  0  0  0  0
   28.4389  -19.3454   -7.7022 C   0  0  0  0  0  0  0  0  0  0  0  0
   28.8218  -19.4874   -6.2831 C   0  0  0  0  0  0  0  0  0  0  0  0
   29.6352  -20.5122   -5.8761 C   0  0  0  0  0  0  0  0  0  0  0  0
   29.9683  -20.6190   -4.5172 C   0  0  0  0  0  0  0  0  0  0  0  0
   29.4704  -19.6897   -3.6170 C   0  0  0  0  0  0  0  0  0  0  0  0
   28.6561  -18.6632   -4.0235 C   0  0  0  0  0  0  0  0  0  0  0  0
   28.3373  -18.5699   -5.3576 C   0  0  0  0  0  0  0  0  0  0  0  0
   26.1724  -20.2016   -7.2278 C   0  0  0  0  0  0  0  0  0  0  0  0
   25.3200  -19.2524   -7.4621 O   0  0  0  0  0  0  0  0  0  0  0  0
   25.8367  -21.0031   -6.1324 N   0  0  0  0  0  0  0  0  0  0  0  0
   26.6665  -22.0234   -5.5328 C   0  0  0  0  0  0  0  0  0  0  0  0
   25.6763  -23.1756   -5.4104 C   0  0  0  0  0  0  0  0  0  0  0  0
   24.4143  -22.4642   -4.9722 C   0  0  0  0  0  0  0  0  0  0  0  0
   24.6471  -20.9836   -5.3317 C   0  0  1  0  0  0  0  0  0  0  0  0
   24.9316  -20.2973   -4.0153 C   0  0  0  0  0  0  0  0  0  0  0  0
   26.1324  -20.1420   -3.7117 O   0  0  0  0  0  0  0  0  0  0  0  0
   23.9497  -19.8576   -3.1778 O   0  0  0  0  0  0  0  0  0  0  0  0
  2  1  1  0
  3  2  2  0
  4  3  1  0
  5  4  2  0
  5 11  1  0
  6  5  1  0
  7  6  1  0
  7  8  1  6
  9 10  2  0
  9  7  1  0
 11 12  2  0
 12  2  1  0
 13  9  1  0
 14 15  1  1
 14 13  1  0
 16 15  1  0
 16 17  2  0
 18 17  1  0
 19 18  2  0
 20 21  2  0
 20 19  1  0
 21 16  1  0
 22 14  1  0
 23 22  2  0
 24 25  1  0
 24 22  1  0
 26 25  1  0
 27 28  1  0
 27 26  1  0
 28 24  1  0
 28 29  1  1
 29 31  1  0
 30 29  2  0
M  END
$$$$
