YFP.pdb
     RDKit          3D

 31 33  0  0  1  0  0  0  0  0999 V2000
   17.1368  -16.0778  -17.1344 O   0  0  0  0  0  0  0  0  0  0  0  0
   18.3579  -16.7568  -17.1685 C   0  0  0  0  0  0  0  0  0  0  0  0
   18.9582  -17.1152  -18.3567 C   0  0  0  0  0  0  0  0  0  0  0  0
   20.1638  -17.7852  -18.3761 C   0  0  0  0  0  0  0  0  0  0  0  0
   20.8267  -18.1288  -17.2052 C   0  0  0  0  0  0  0  0  0  0  0  0
   22.1276  -18.8518  -17.2223 C   0  0  0  0  0  0  0  0  0  0  0  0
   23.1939  -17.8631  -16.8222 C   0  0  2  0  0  0  0  0  0  0  0  0
   23.4935  -17.0585  -18.0023 N   0  0  0  0  0  0  0  0  0  0  0  0
   24.4119  -18.5212  -16.3064 C   0  0  0  0  0  0  0  0  0  0  0  0
   25.1113  -19.1740  -17.0967 O   0  0  0  0  0  0  0  0  0  0  0  0
   20.2130  -17.7631  -16.0253 C   0  0  0  0  0  0  0  0  0  0  0  0
   19.0077  -17.0931  -15.9991 C   0  0  0  0  0  0  0  0  0  0  0  0
   24.7359  -18.3863  -14.9449 N   0  0  0  0  0  0  0  0  0  0  0  0
   25.7331  -19.2191  -14.3092 C   0  0  1  0  0  0  0  0  0  0  0  0
   26.0349  -18.6665  -12.9223 C   0  0  0  0  0  0  0  0  0  0  0  0
   26.9698  -19.5284  -12.1715 C   0  0  0  0  0  0  0  0  0  0  0  0
   26.5191  -20.3397  -11.1635 C   0  0  0  0  0  0  0  0  0  0  0  0
   27.4403  -21.1364  -10.4668 C   0  0  0  0  0  0  0  0  0  0  0  0
   28.7824  -21.0878  -10.8105 C   0  0  0  0  0  0  0  0  0  0  0  0
   29.2347  -20.2761  -11.8198 C   0  0  0  0  0  0  0  0  0  0  0  0
   28.3219  -19.5004  -12.4944 C   0  0  0  0  0  0  0  0  0  0  0  0
   25.2320  -20.5975  -14.2345 C   0  0  0  0  0  0  0  0  0  0  0  0
   24.0081  -20.7950  -13.8531 O   0  0  0  0  0  0  0  0  0  0  0  0
   25.9260  -21.7737  -14.5344 N   0  0  0  0  0  0  0  0  0  0  0  0
   27.3406  -21.8858  -14.8088 C   0  0  0  0  0  0  0  0  0  0  0  0
   27.3308  -22.7542  -16.0615 C   0  0  0  0  0  0  0  0  0  0  0  0
   26.2453  -23.7595  -15.7422 C   0  0  0  0  0  0  0  0  0  0  0  0
   25.4343  -23.1193  -14.5985 C   0  0  1  0  0  0  0  0  0  0  0  0
   25.8461  -23.8708  -13.3532 C   0  0  0  0  0  0  0  0  0  0  0  0
   26.7515  -23.3590  -12.6629 O   0  0  0  0  0  0  0  0  0  0  0  0
   25.2780  -25.0508  -12.9741 O   0  0  0  0  0  0  0  0  0  0  0  0
  2  1  1  0
  3  2  2  0
  4  3  1  0
  5  4  2  0
  5 11  1  0
  6  5  1  0
  7  6  1  0
  7  8  1  6
  9 10  2  0
  9  7  1  0
 11 12  2  0
 12  2  1  0
 13  9  1  0
 14 15  1  1
 14 13  1  0
 16 15  1  0
 16 17  2  0
 18 17  1  0
 19 18  2  0
 20 21  2  0
 20 19  1  0
 21 16  1  0
 22 14  1  0
 23 22  2  0
 24 25  1  0
 24 22  1  0
 26 25  1  0
 27 28  1  0
 27 26  1  0
 28 24  1  0
 28 29  1  1
 29 31  1  0
 30 29  2  0
M  END
$$$$
