YFP.pdb
     RDKit          3D

 31 33  0  0  1  0  0  0  0  0999 V2000
   17.6053  -24.5098  -15.5472 O   0  0  0  0  0  0  0  0  0  0  0  0
   18.8215  -23.9116  -15.2062 C   0  0  0  0  0  0  0  0  0  0  0  0
   19.3855  -24.0697  -13.9582 C   0  0  0  0  0  0  0  0  0  0  0  0
   20.5866  -23.4736  -13.6347 C   0  0  0  0  0  0  0  0  0  0  0  0
   21.2814  -22.6898  -14.5465 C   0  0  0  0  0  0  0  0  0  0  0  0
   22.5776  -22.0451  -14.2009 C   0  0  0  0  0  0  0  0  0  0  0  0
   22.2763  -20.9215  -13.2410 C   0  0  2  0  0  0  0  0  0  0  0  0
   21.5822  -19.8867  -14.0006 N   0  0  0  0  0  0  0  0  0  0  0  0
   23.4934  -20.3820  -12.6003 C   0  0  0  0  0  0  0  0  0  0  0  0
   24.1732  -19.5534  -13.2256 O   0  0  0  0  0  0  0  0  0  0  0  0
   20.7038  -22.5416  -15.7903 C   0  0  0  0  0  0  0  0  0  0  0  0
   19.5031  -23.1349  -16.1200 C   0  0  0  0  0  0  0  0  0  0  0  0
   23.8384  -20.8232  -11.3107 N   0  0  0  0  0  0  0  0  0  0  0  0
   25.0860  -20.4491  -10.6819 C   0  0  1  0  0  0  0  0  0  0  0  0
   25.0051  -20.7531   -9.1916 C   0  0  0  0  0  0  0  0  0  0  0  0
   26.2399  -20.3700   -8.4780 C   0  0  0  0  0  0  0  0  0  0  0  0
   27.2834  -21.2503   -8.3611 C   0  0  0  0  0  0  0  0  0  0  0  0
   28.4359  -20.8523   -7.6668 C   0  0  0  0  0  0  0  0  0  0  0  0
   28.4963  -19.5818   -7.1152 C   0  0  0  0  0  0  0  0  0  0  0  0
   27.4522  -18.6996   -7.2320 C   0  0  0  0  0  0  0  0  0  0  0  0
   26.3287  -19.1020   -7.9146 C   0  0  0  0  0  0  0  0  0  0  0  0
   26.1849  -21.1886  -11.3161 C   0  0  0  0  0  0  0  0  0  0  0  0
   26.1168  -22.4830  -11.3663 O   0  0  0  0  0  0  0  0  0  0  0  0
   27.3414  -20.6619  -11.8992 N   0  0  0  0  0  0  0  0  0  0  0  0
   27.7435  -19.2736  -11.8986 C   0  0  0  0  0  0  0  0  0  0  0  0
   28.1158  -19.0730  -13.3631 C   0  0  0  0  0  0  0  0  0  0  0  0
   28.8292  -20.3674  -13.6892 C   0  0  0  0  0  0  0  0  0  0  0  0
   28.4009  -21.3480  -12.5799 C   0  0  1  0  0  0  0  0  0  0  0  0
   29.6011  -21.4618  -11.6680 C   0  0  0  0  0  0  0  0  0  0  0  0
   30.5838  -22.0919  -12.1101 O   0  0  0  0  0  0  0  0  0  0  0  0
   29.6415  -20.9156  -10.4194 O   0  0  0  0  0  0  0  0  0  0  0  0
  2  1  1  0
  3  2  2  0
  4  3  1  0
  5  4  2  0
  5 11  1  0
  6  5  1  0
  7  6  1  0
  7  8  1  6
  9 10  2  0
  9  7  1  0
 11 12  2  0
 12  2  1  0
 13  9  1  0
 14 15  1  1
 14 13  1  0
 16 15  1  0
 16 17  2  0
 18 17  1  0
 19 18  2  0
 20 21  2  0
 20 19  1  0
 21 16  1  0
 22 14  1  0
 23 22  2  0
 24 25  1  0
 24 22  1  0
 26 25  1  0
 27 28  1  0
 27 26  1  0
 28 24  1  0
 28 29  1  1
 29 31  1  0
 30 29  2  0
M  END
$$$$
