YFP.pdb
     RDKit          3D

 31 33  0  0  1  0  0  0  0  0999 V2000
   18.3977  -18.5673  -20.8710 O   0  0  0  0  0  0  0  0  0  0  0  0
   19.4485  -19.2021  -20.2031 C   0  0  0  0  0  0  0  0  0  0  0  0
   20.1379  -20.2549  -20.7659 C   0  0  0  0  0  0  0  0  0  0  0  0
   21.1733  -20.8727  -20.0957 C   0  0  0  0  0  0  0  0  0  0  0  0
   21.5684  -20.4652  -18.8283 C   0  0  0  0  0  0  0  0  0  0  0  0
   22.6850  -21.1293  -18.1022 C   0  0  0  0  0  0  0  0  0  0  0  0
   23.8874  -20.2252  -18.2080 C   0  0  2  0  0  0  0  0  0  0  0  0
   24.5868  -20.5881  -19.4364 N   0  0  0  0  0  0  0  0  0  0  0  0
   24.7822  -20.3331  -17.0373 C   0  0  0  0  0  0  0  0  0  0  0  0
   25.5879  -21.2759  -16.9936 O   0  0  0  0  0  0  0  0  0  0  0  0
   20.8687  -19.4108  -18.2794 C   0  0  0  0  0  0  0  0  0  0  0  0
   19.8326  -18.7889  -18.9443 C   0  0  0  0  0  0  0  0  0  0  0  0
   24.6912  -19.3693  -16.0177 N   0  0  0  0  0  0  0  0  0  0  0  0
   25.4911  -19.4490  -14.8154 C   0  0  1  0  0  0  0  0  0  0  0  0
   25.9756  -18.0534  -14.4443 C   0  0  0  0  0  0  0  0  0  0  0  0
   26.9843  -17.5438  -15.3948 C   0  0  0  0  0  0  0  0  0  0  0  0
   28.2647  -18.0315  -15.3860 C   0  0  0  0  0  0  0  0  0  0  0  0
   29.1970  -17.5144  -16.2983 C   0  0  0  0  0  0  0  0  0  0  0  0
   28.8062  -16.5248  -17.1871 C   0  0  0  0  0  0  0  0  0  0  0  0
   27.5243  -16.0361  -17.1970 C   0  0  0  0  0  0  0  0  0  0  0  0
   26.6207  -16.5511  -16.2979 C   0  0  0  0  0  0  0  0  0  0  0  0
   24.6832  -20.0349  -13.7380 C   0  0  0  0  0  0  0  0  0  0  0  0
   23.3969  -20.1021  -13.8908 O   0  0  0  0  0  0  0  0  0  0  0  0
   25.1343  -20.5535  -12.5204 N   0  0  0  0  0  0  0  0  0  0  0  0
   26.4941  -20.5281  -12.0312 C   0  0  0  0  0  0  0  0  0  0  0  0
   26.6686  -21.9698  -11.5682 C   0  0  0  0  0  0  0  0  0  0  0  0
   25.3309  -22.2598  -10.9223 C   0  0  0  0  0  0  0  0  0  0  0  0
   24.3810  -21.1774  -11.4717 C   0  0  1  0  0  0  0  0  0  0  0  0
   24.1920  -20.2022  -10.3323 C   0  0  0  0  0  0  0  0  0  0  0  0
   23.3435  -20.5062   -9.4687 O   0  0  0  0  0  0  0  0  0  0  0  0
   24.8962  -19.0399  -10.2229 O   0  0  0  0  0  0  0  0  0  0  0  0
  2  1  1  0
  3  2  2  0
  4  3  1  0
  5  4  2  0
  5 11  1  0
  6  5  1  0
  7  6  1  0
  7  8  1  6
  9 10  2  0
  9  7  1  0
 11 12  2  0
 12  2  1  0
 13  9  1  0
 14 15  1  1
 14 13  1  0
 16 15  1  0
 16 17  2  0
 18 17  1  0
 19 18  2  0
 20 21  2  0
 20 19  1  0
 21 16  1  0
 22 14  1  0
 23 22  2  0
 24 25  1  0
 24 22  1  0
 26 25  1  0
 27 28  1  0
 27 26  1  0
 28 24  1  0
 28 29  1  1
 29 31  1  0
 30 29  2  0
M  END
$$$$
