YFP.pdb
     RDKit          3D

 31 33  0  0  1  0  0  0  0  0999 V2000
   22.8119  -18.3213  -16.8592 O   0  0  0  0  0  0  0  0  0  0  0  0
   23.1161  -18.8905  -15.6196 C   0  0  0  0  0  0  0  0  0  0  0  0
   22.6156  -20.1176  -15.2399 C   0  0  0  0  0  0  0  0  0  0  0  0
   22.9239  -20.6680  -14.0132 C   0  0  0  0  0  0  0  0  0  0  0  0
   23.7492  -20.0153  -13.1070 C   0  0  0  0  0  0  0  0  0  0  0  0
   24.0841  -20.6061  -11.7826 C   0  0  0  0  0  0  0  0  0  0  0  0
   25.5852  -20.7361  -11.7177 C   0  0  2  0  0  0  0  0  0  0  0  0
   25.9680  -21.7487  -12.6964 N   0  0  0  0  0  0  0  0  0  0  0  0
   26.0648  -21.0964  -10.3675 C   0  0  0  0  0  0  0  0  0  0  0  0
   25.8711  -22.2523   -9.9599 O   0  0  0  0  0  0  0  0  0  0  0  0
   24.2417  -18.7889  -13.5021 C   0  0  0  0  0  0  0  0  0  0  0  0
   23.9372  -18.2331  -14.7271 C   0  0  0  0  0  0  0  0  0  0  0  0
   26.7209  -20.1226   -9.5940 N   0  0  0  0  0  0  0  0  0  0  0  0
   27.1295  -20.3761   -8.2300 C   0  0  1  0  0  0  0  0  0  0  0  0
   28.2280  -19.3930   -7.8467 C   0  0  0  0  0  0  0  0  0  0  0  0
   28.6117  -19.5140   -6.4259 C   0  0  0  0  0  0  0  0  0  0  0  0
   28.1040  -18.6545   -5.4874 C   0  0  0  0  0  0  0  0  0  0  0  0
   28.5009  -18.7955   -4.1489 C   0  0  0  0  0  0  0  0  0  0  0  0
   29.3946  -19.7975   -3.8036 C   0  0  0  0  0  0  0  0  0  0  0  0
   29.9033  -20.6588   -4.7424 C   0  0  0  0  0  0  0  0  0  0  0  0
   29.5065  -20.5097   -6.0503 C   0  0  0  0  0  0  0  0  0  0  0  0
   25.9644  -20.2421   -7.3461 C   0  0  0  0  0  0  0  0  0  0  0  0
   25.1209  -19.2823   -7.5693 O   0  0  0  0  0  0  0  0  0  0  0  0
   25.6278  -21.0455   -6.2524 N   0  0  0  0  0  0  0  0  0  0  0  0
   26.4333  -22.1057   -5.6899 C   0  0  0  0  0  0  0  0  0  0  0  0
   25.4023  -23.2202   -5.5548 C   0  0  0  0  0  0  0  0  0  0  0  0
   24.1817  -22.4667   -5.0721 C   0  0  0  0  0  0  0  0  0  0  0  0
   24.4624  -20.9913   -5.4184 C   0  0  1  0  0  0  0  0  0  0  0  0
   24.8098  -20.3353   -4.1016 C   0  0  0  0  0  0  0  0  0  0  0  0
   23.8569  -20.0581   -3.3444 O   0  0  0  0  0  0  0  0  0  0  0  0
   26.0890  -20.0469   -3.7284 O   0  0  0  0  0  0  0  0  0  0  0  0
  2  1  1  0
  3  2  2  0
  4  3  1  0
  5  4  2  0
  5 11  1  0
  6  5  1  0
  7  6  1  0
  7  8  1  6
  9 10  2  0
  9  7  1  0
 11 12  2  0
 12  2  1  0
 13  9  1  0
 14 15  1  1
 14 13  1  0
 16 15  1  0
 16 17  2  0
 18 17  1  0
 19 18  2  0
 20 21  2  0
 20 19  1  0
 21 16  1  0
 22 14  1  0
 23 22  2  0
 24 25  1  0
 24 22  1  0
 26 25  1  0
 27 28  1  0
 27 26  1  0
 28 24  1  0
 28 29  1  1
 29 31  1  0
 30 29  2  0
M  END
$$$$
