YFP.pdb
     RDKit          3D

 31 33  0  0  1  0  0  0  0  0999 V2000
   23.7041  -28.3136  -15.8306 O   0  0  0  0  0  0  0  0  0  0  0  0
   24.8295  -28.0030  -16.5989 C   0  0  0  0  0  0  0  0  0  0  0  0
   24.7489  -27.8067  -17.9610 C   0  0  0  0  0  0  0  0  0  0  0  0
   25.8677  -27.5005  -18.7076 C   0  0  0  0  0  0  0  0  0  0  0  0
   27.1222  -27.3760  -18.1252 C   0  0  0  0  0  0  0  0  0  0  0  0
   28.3315  -27.0458  -18.9276 C   0  0  0  0  0  0  0  0  0  0  0  0
   28.7026  -25.6189  -18.6103 C   0  0  2  0  0  0  0  0  0  0  0  0
   27.6257  -24.7753  -19.1186 N   0  0  0  0  0  0  0  0  0  0  0  0
   30.0022  -25.2282  -19.1943 C   0  0  0  0  0  0  0  0  0  0  0  0
   30.0191  -24.7735  -20.3488 O   0  0  0  0  0  0  0  0  0  0  0  0
   27.1857  -27.5754  -16.7618 C   0  0  0  0  0  0  0  0  0  0  0  0
   26.0709  -27.8818  -16.0097 C   0  0  0  0  0  0  0  0  0  0  0  0
   31.1698  -25.3839  -18.4266 N   0  0  0  0  0  0  0  0  0  0  0  0
   32.4777  -25.0502  -18.9461 C   0  0  1  0  0  0  0  0  0  0  0  0
   33.1188  -24.0002  -18.0481 C   0  0  0  0  0  0  0  0  0  0  0  0
   34.4486  -23.5859  -18.5386 C   0  0  0  0  0  0  0  0  0  0  0  0
   35.5914  -24.0492  -17.9412 C   0  0  0  0  0  0  0  0  0  0  0  0
   36.8361  -23.6244  -18.4301 C   0  0  0  0  0  0  0  0  0  0  0  0
   36.8853  -22.7482  -19.5034 C   0  0  0  0  0  0  0  0  0  0  0  0
   35.7417  -22.2840  -20.1024 C   0  0  0  0  0  0  0  0  0  0  0  0
   34.5286  -22.7079  -19.6137 C   0  0  0  0  0  0  0  0  0  0  0  0
   33.2959  -26.2682  -19.0074 C   0  0  0  0  0  0  0  0  0  0  0  0
   33.2815  -27.0794  -17.9954 O   0  0  0  0  0  0  0  0  0  0  0  0
   34.1206  -26.6887  -20.0553 N   0  0  0  0  0  0  0  0  0  0  0  0
   34.4301  -25.9411  -21.2530 C   0  0  0  0  0  0  0  0  0  0  0  0
   34.2108  -26.9999  -22.3273 C   0  0  0  0  0  0  0  0  0  0  0  0
   34.8050  -28.2337  -21.6828 C   0  0  0  0  0  0  0  0  0  0  0  0
   34.8732  -27.9031  -20.1789 C   0  0  1  0  0  0  0  0  0  0  0  0
   36.3331  -27.6269  -19.9007 C   0  0  0  0  0  0  0  0  0  0  0  0
   36.7170  -26.4472  -20.0388 O   0  0  0  0  0  0  0  0  0  0  0  0
   37.2135  -28.5945  -19.5167 O   0  0  0  0  0  0  0  0  0  0  0  0
  2  1  1  0
  3  2  2  0
  4  3  1  0
  5  4  2  0
  5 11  1  0
  6  5  1  0
  7  6  1  0
  7  8  1  6
  9 10  2  0
  9  7  1  0
 11 12  2  0
 12  2  1  0
 13  9  1  0
 14 15  1  1
 14 13  1  0
 16 15  1  0
 16 17  2  0
 18 17  1  0
 19 18  2  0
 20 21  2  0
 20 19  1  0
 21 16  1  0
 22 14  1  0
 23 22  2  0
 24 25  1  0
 24 22  1  0
 26 25  1  0
 27 28  1  0
 27 26  1  0
 28 24  1  0
 28 29  1  6
 29 31  1  0
 30 29  2  0
M  END
$$$$
