YFP.pdb
     RDKit          3D

 31 33  0  0  1  0  0  0  0  0999 V2000
   22.3061  -18.5719  -16.6588 O   0  0  0  0  0  0  0  0  0  0  0  0
   22.7161  -19.1527  -15.4556 C   0  0  0  0  0  0  0  0  0  0  0  0
   22.5099  -20.4887  -15.1851 C   0  0  0  0  0  0  0  0  0  0  0  0
   22.9197  -21.0493  -13.9932 C   0  0  0  0  0  0  0  0  0  0  0  0
   23.5562  -20.2981  -13.0140 C   0  0  0  0  0  0  0  0  0  0  0  0
   23.9997  -20.8997  -11.7269 C   0  0  0  0  0  0  0  0  0  0  0  0
   25.5072  -20.8579  -11.7098 C   0  0  2  0  0  0  0  0  0  0  0  0
   25.9712  -21.8056  -12.7179 N   0  0  0  0  0  0  0  0  0  0  0  0
   26.0679  -21.1806  -10.3815 C   0  0  0  0  0  0  0  0  0  0  0  0
   26.0195  -22.3568   -9.9889 O   0  0  0  0  0  0  0  0  0  0  0  0
   23.7549  -18.9634  -13.3001 C   0  0  0  0  0  0  0  0  0  0  0  0
   23.3476  -18.3969  -14.4898 C   0  0  0  0  0  0  0  0  0  0  0  0
   26.6343  -20.1497   -9.6112 N   0  0  0  0  0  0  0  0  0  0  0  0
   27.1136  -20.3748   -8.2653 C   0  0  1  0  0  0  0  0  0  0  0  0
   28.2032  -19.3592   -7.9468 C   0  0  0  0  0  0  0  0  0  0  0  0
   28.6201  -19.4163   -6.5313 C   0  0  0  0  0  0  0  0  0  0  0  0
   29.5110  -20.3642   -6.1009 C   0  0  0  0  0  0  0  0  0  0  0  0
   29.8746  -20.3920   -4.7460 C   0  0  0  0  0  0  0  0  0  0  0  0
   29.3281  -19.4640   -3.8730 C   0  0  0  0  0  0  0  0  0  0  0  0
   28.4363  -18.5143   -4.3030 C   0  0  0  0  0  0  0  0  0  0  0  0
   28.0883  -18.4979   -5.6330 C   0  0  0  0  0  0  0  0  0  0  0  0
   25.9887  -20.2586   -7.3284 C   0  0  0  0  0  0  0  0  0  0  0  0
   25.1226  -19.3104   -7.5103 O   0  0  0  0  0  0  0  0  0  0  0  0
   25.7141  -21.0686   -6.2223 N   0  0  0  0  0  0  0  0  0  0  0  0
   26.5743  -22.0954   -5.6794 C   0  0  0  0  0  0  0  0  0  0  0  0
   25.5899  -23.2467   -5.5102 C   0  0  0  0  0  0  0  0  0  0  0  0
   24.3566  -22.5366   -4.9950 C   0  0  0  0  0  0  0  0  0  0  0  0
   24.5721  -21.0535   -5.3550 C   0  0  1  0  0  0  0  0  0  0  0  0
   24.9328  -20.3787   -4.0513 C   0  0  0  0  0  0  0  0  0  0  0  0
   26.1485  -20.2055   -3.8269 O   0  0  0  0  0  0  0  0  0  0  0  0
   24.0021  -19.9675   -3.1438 O   0  0  0  0  0  0  0  0  0  0  0  0
  2  1  1  0
  3  2  2  0
  4  3  1  0
  5  4  2  0
  5 11  1  0
  6  5  1  0
  7  6  1  0
  7  8  1  6
  9 10  2  0
  9  7  1  0
 11 12  2  0
 12  2  1  0
 13  9  1  0
 14 15  1  1
 14 13  1  0
 16 15  1  0
 16 17  2  0
 18 17  1  0
 19 18  2  0
 20 21  2  0
 20 19  1  0
 21 16  1  0
 22 14  1  0
 23 22  2  0
 24 25  1  0
 24 22  1  0
 26 25  1  0
 27 28  1  0
 27 26  1  0
 28 24  1  0
 28 29  1  1
 29 31  1  0
 30 29  2  0
M  END
$$$$
