YFP.pdb
     RDKit          3D

 31 33  0  0  1  0  0  0  0  0999 V2000
   25.9561  -14.1804  -21.6288 O   0  0  0  0  0  0  0  0  0  0  0  0
   25.7755  -15.3502  -20.8857 C   0  0  0  0  0  0  0  0  0  0  0  0
   26.7110  -15.7821  -19.9698 C   0  0  0  0  0  0  0  0  0  0  0  0
   26.5203  -16.9388  -19.2429 C   0  0  0  0  0  0  0  0  0  0  0  0
   25.3823  -17.7193  -19.3985 C   0  0  0  0  0  0  0  0  0  0  0  0
   25.1731  -18.9680  -18.6159 C   0  0  0  0  0  0  0  0  0  0  0  0
   26.5293  -19.4375  -18.1524 C   0  0  2  0  0  0  0  0  0  0  0  0
   27.1029  -20.2234  -19.2400 N   0  0  0  0  0  0  0  0  0  0  0  0
   26.4595  -20.2288  -16.9066 C   0  0  0  0  0  0  0  0  0  0  0  0
   26.1043  -21.4155  -16.9789 O   0  0  0  0  0  0  0  0  0  0  0  0
   24.4563  -17.2735  -20.3186 C   0  0  0  0  0  0  0  0  0  0  0  0
   24.6411  -16.1179  -21.0485 C   0  0  0  0  0  0  0  0  0  0  0  0
   26.7962  -19.6138  -15.6879 N   0  0  0  0  0  0  0  0  0  0  0  0
   26.5222  -20.2399  -14.4132 C   0  0  1  0  0  0  0  0  0  0  0  0
   27.3572  -19.5626  -13.3343 C   0  0  0  0  0  0  0  0  0  0  0  0
   27.0071  -20.0368  -11.9804 C   0  0  0  0  0  0  0  0  0  0  0  0
   26.0443  -19.4002  -11.2422 C   0  0  0  0  0  0  0  0  0  0  0  0
   25.7472  -19.8750   -9.9557 C   0  0  0  0  0  0  0  0  0  0  0  0
   26.4303  -20.9743   -9.4588 C   0  0  0  0  0  0  0  0  0  0  0  0
   27.3943  -21.6127  -10.1973 C   0  0  0  0  0  0  0  0  0  0  0  0
   27.6759  -21.1373  -11.4562 C   0  0  0  0  0  0  0  0  0  0  0  0
   25.0871  -20.1297  -14.1218 C   0  0  0  0  0  0  0  0  0  0  0  0
   24.5014  -18.9864  -14.3017 O   0  0  0  0  0  0  0  0  0  0  0  0
   24.2320  -21.1347  -13.6595 N   0  0  0  0  0  0  0  0  0  0  0  0
   24.6124  -22.4805  -13.2947 C   0  0  0  0  0  0  0  0  0  0  0  0
   23.5506  -23.2957  -14.0238 C   0  0  0  0  0  0  0  0  0  0  0  0
   22.3049  -22.4653  -13.8014 C   0  0  0  0  0  0  0  0  0  0  0  0
   22.8232  -21.0707  -13.3988 C   0  0  1  0  0  0  0  0  0  0  0  0
   22.5857  -20.9756  -11.9090 C   0  0  0  0  0  0  0  0  0  0  0  0
   21.4430  -20.6303  -11.5441 O   0  0  0  0  0  0  0  0  0  0  0  0
   23.5491  -21.2464  -10.9831 O   0  0  0  0  0  0  0  0  0  0  0  0
  2  1  1  0
  3  2  2  0
  4  3  1  0
  5  4  2  0
  5 11  1  0
  6  5  1  0
  7  6  1  0
  7  8  1  6
  9 10  2  0
  9  7  1  0
 11 12  2  0
 12  2  1  0
 13  9  1  0
 14 15  1  1
 14 13  1  0
 16 15  1  0
 16 17  2  0
 18 17  1  0
 19 18  2  0
 20 21  2  0
 20 19  1  0
 21 16  1  0
 22 14  1  0
 23 22  2  0
 24 25  1  0
 24 22  1  0
 26 25  1  0
 27 28  1  0
 27 26  1  0
 28 24  1  0
 28 29  1  1
 29 31  1  0
 30 29  2  0
M  END
$$$$
