YFP.pdb
     RDKit          3D

 31 33  0  0  1  0  0  0  0  0999 V2000
   19.8913  -20.3348  -13.8315 O   0  0  0  0  0  0  0  0  0  0  0  0
   21.0915  -20.6017  -13.1670 C   0  0  0  0  0  0  0  0  0  0  0  0
   21.4198  -19.9812  -11.9805 C   0  0  0  0  0  0  0  0  0  0  0  0
   22.6079  -20.2539  -11.3348 C   0  0  0  0  0  0  0  0  0  0  0  0
   23.5252  -21.1619  -11.8471 C   0  0  0  0  0  0  0  0  0  0  0  0
   24.8081  -21.4586  -11.1532 C   0  0  0  0  0  0  0  0  0  0  0  0
   25.6024  -20.1771  -11.1147 C   0  0  2  0  0  0  0  0  0  0  0  0
   26.1231  -19.9578  -12.4603 N   0  0  0  0  0  0  0  0  0  0  0  0
   26.6969  -20.2185  -10.1233 C   0  0  0  0  0  0  0  0  0  0  0  0
   27.7626  -20.7690  -10.4414 O   0  0  0  0  0  0  0  0  0  0  0  0
   23.1818  -21.7739  -13.0346 C   0  0  0  0  0  0  0  0  0  0  0  0
   21.9955  -21.5057  -13.6850 C   0  0  0  0  0  0  0  0  0  0  0  0
   26.4954  -19.6358   -8.8596 N   0  0  0  0  0  0  0  0  0  0  0  0
   27.5513  -19.5611   -7.8740 C   0  0  1  0  0  0  0  0  0  0  0  0
   27.0785  -18.7153   -6.6988 C   0  0  0  0  0  0  0  0  0  0  0  0
   28.0789  -18.6620   -5.6139 C   0  0  0  0  0  0  0  0  0  0  0  0
   28.1083  -19.6253   -4.6399 C   0  0  0  0  0  0  0  0  0  0  0  0
   29.0677  -19.5341   -3.6201 C   0  0  0  0  0  0  0  0  0  0  0  0
   29.9635  -18.4760   -3.6180 C   0  0  0  0  0  0  0  0  0  0  0  0
   29.9352  -17.5112   -4.5928 C   0  0  0  0  0  0  0  0  0  0  0  0
   28.9901  -17.6122   -5.5862 C   0  0  0  0  0  0  0  0  0  0  0  0
   27.9040  -20.9199   -7.4429 C   0  0  0  0  0  0  0  0  0  0  0  0
   26.9719  -21.8208   -7.3997 O   0  0  0  0  0  0  0  0  0  0  0  0
   29.1629  -21.3922   -7.0593 N   0  0  0  0  0  0  0  0  0  0  0  0
   30.3613  -20.6001   -6.8994 C   0  0  0  0  0  0  0  0  0  0  0  0
   31.3784  -21.4469   -7.6557 C   0  0  0  0  0  0  0  0  0  0  0  0
   30.9910  -22.8510   -7.2441 C   0  0  0  0  0  0  0  0  0  0  0  0
   29.5550  -22.7237   -6.6988 C   0  0  1  0  0  0  0  0  0  0  0  0
   29.6922  -22.8240   -5.1968 C   0  0  0  0  0  0  0  0  0  0  0  0
   29.6872  -21.7503   -4.5601 O   0  0  0  0  0  0  0  0  0  0  0  0
   29.8172  -24.0115   -4.5386 O   0  0  0  0  0  0  0  0  0  0  0  0
  2  1  1  0
  3  2  2  0
  4  3  1  0
  5  4  2  0
  5 11  1  0
  6  5  1  0
  7  6  1  0
  7  8  1  6
  9 10  2  0
  9  7  1  0
 11 12  2  0
 12  2  1  0
 13  9  1  0
 14 15  1  1
 14 13  1  0
 16 15  1  0
 16 17  2  0
 18 17  1  0
 19 18  2  0
 20 21  2  0
 20 19  1  0
 21 16  1  0
 22 14  1  0
 23 22  2  0
 24 25  1  0
 24 22  1  0
 26 25  1  0
 27 28  1  0
 27 26  1  0
 28 24  1  0
 28 29  1  1
 29 31  1  0
 30 29  2  0
M  END
$$$$
