FRH.pdb
     RDKit          3D

 33 34  0  0  1  0  0  0  0  0999 V2000
   27.9641  -26.2068  -16.3728 N   0  0  0  0  0  0  0  0  0  0  0  0
   27.1716  -27.2352  -17.0001 C   0  0  1  0  0  0  0  0  0  0  0  0
   26.5497  -26.8296  -18.3014 C   0  0  0  0  0  0  0  0  0  0  0  0
   25.6118  -25.6915  -18.2104 C   0  0  0  0  0  0  0  0  0  0  0  0
   25.8907  -24.4147  -18.6468 C   0  0  0  0  0  0  0  0  0  0  0  0
   24.9696  -23.3797  -18.5377 C   0  0  0  0  0  0  0  0  0  0  0  0
   23.7273  -23.6118  -17.9768 C   0  0  0  0  0  0  0  0  0  0  0  0
   23.4359  -24.8801  -17.5361 C   0  0  0  0  0  0  0  0  0  0  0  0
   24.3523  -25.9015  -17.6479 C   0  0  0  0  0  0  0  0  0  0  0  0
   28.0613  -28.3911  -17.2739 C   0  0  0  0  0  0  0  0  0  0  0  0
   29.2930  -28.2920  -17.0379 O   0  0  0  0  0  0  0  0  0  0  0  0
   34.1490  -32.3024  -16.3245 N   0  0  0  0  0  0  0  0  0  0  0  0
   33.4593  -33.5035  -16.6352 C   0  0  0  0  0  0  0  0  0  0  0  0
   34.1681  -34.5630  -16.9197 N   0  0  0  0  0  0  0  0  0  0  0  0
   32.0538  -33.5161  -16.6286 N   0  0  0  0  0  0  0  0  0  0  0  0
   31.3391  -32.2821  -16.5210 C   0  0  0  0  0  0  0  0  0  0  0  0
   29.8253  -32.5081  -16.4937 C   0  0  0  0  0  0  0  0  0  0  0  0
   29.1945  -31.1871  -16.6524 C   0  0  0  0  0  0  0  0  0  0  0  0
   28.3615  -30.8556  -17.7845 C   0  0  2  0  0  0  0  0  0  0  0  0
   27.6093  -29.6287  -17.7997 N   0  0  0  0  0  0  0  0  0  0  0  0
   27.6143  -31.9625  -18.4742 C   0  0  0  0  0  0  0  0  0  0  0  0
   26.4628  -32.3068  -18.0913 O   0  0  0  0  0  0  0  0  0  0  0  0
   33.7041  -35.4721  -17.1041 N   0  0  0  0  0  0  0  0  0  0  0  0
   28.1380  -32.6686  -19.5684 C   0  0  2  0  0  0  0  0  0  0  0  0
   27.3697  -33.7400  -20.2666 C   0  0  0  0  0  0  0  0  0  0  0  0
   27.7517  -33.7540  -21.7025 C   0  0  0  0  0  0  0  0  0  0  0  0
   27.1598  -32.6249  -22.4382 C   0  0  0  0  0  0  0  0  0  0  0  0
   26.2175  -31.7578  -21.8522 N   0  0  0  0  0  0  0  0  0  0  0  0
   25.8729  -30.8559  -22.7793 C   0  0  0  0  0  0  0  0  0  0  0  0
   26.5394  -31.0959  -23.9234 N   0  0  0  0  0  0  0  0  0  0  0  0
   27.3018  -32.1696  -23.6708 C   0  0  0  0  0  0  0  0  0  0  0  0
   27.5274  -34.9899  -19.5225 O   0  0  0  0  0  0  0  0  0  0  0  0
   28.5482  -35.1415  -18.7689 O   0  0  0  0  0  0  0  0  0  0  0  0
  2  1  1  6
  2 10  1  0
  2  3  1  0
  3  4  1  0
  4  5  2  0
  5  6  1  0
  7  6  2  0
  8  7  1  0
  9  4  1  0
  9  8  2  0
 10 11  2  0
 13 15  1  0
 13 12  1  0
 14 13  2  0
 16 15  1  0
 16 17  1  0
 18 17  1  0
 19 18  1  1
 20 19  1  0
 20 10  1  0
 21 19  1  0
 22 21  2  0
 23 21  1  0
 24 31  1  0
 24 23  1  0
 24 25  1  1
 25 26  1  0
 26 30  1  0
 26 27  2  0
 27 28  1  0
 29 28  1  0
 30 29  2  0
 31 33  1  0
 32 31  2  0
M  END
$$$$
