FRH.pdb
     RDKit          3D

 33 34  0  0  1  0  0  0  0  0999 V2000
   28.0630  -21.2298  -10.0095 N   0  0  0  0  0  0  0  0  0  0  0  0
   26.6836  -20.9098   -9.7372 C   0  0  1  0  0  0  0  0  0  0  0  0
   26.4869  -19.6831   -8.8997 C   0  0  0  0  0  0  0  0  0  0  0  0
   27.0684  -19.7604   -7.5435 C   0  0  0  0  0  0  0  0  0  0  0  0
   28.1773  -19.0554   -7.1294 C   0  0  0  0  0  0  0  0  0  0  0  0
   28.6824  -19.1651   -5.8393 C   0  0  0  0  0  0  0  0  0  0  0  0
   28.0717  -20.0016   -4.9232 C   0  0  0  0  0  0  0  0  0  0  0  0
   26.9655  -20.7118   -5.3227 C   0  0  0  0  0  0  0  0  0  0  0  0
   26.4694  -20.5980   -6.6020 C   0  0  0  0  0  0  0  0  0  0  0  0
   26.0066  -20.6740  -11.0367 C   0  0  0  0  0  0  0  0  0  0  0  0
   26.5732  -19.9661  -11.9088 O   0  0  0  0  0  0  0  0  0  0  0  0
   27.0566  -23.2951  -16.3341 N   0  0  0  0  0  0  0  0  0  0  0  0
   27.0394  -24.6060  -15.7900 C   0  0  0  0  0  0  0  0  0  0  0  0
   28.1105  -25.3411  -15.9247 N   0  0  0  0  0  0  0  0  0  0  0  0
   25.8858  -25.0676  -15.1329 N   0  0  0  0  0  0  0  0  0  0  0  0
   24.8242  -24.1528  -14.8479 C   0  0  0  0  0  0  0  0  0  0  0  0
   25.2763  -23.0444  -13.8938 C   0  0  0  0  0  0  0  0  0  0  0  0
   24.0725  -22.2789  -13.5292 C   0  0  0  0  0  0  0  0  0  0  0  0
   24.1207  -21.1187  -12.6707 C   0  0  2  0  0  0  0  0  0  0  0  0
   24.7325  -21.2007  -11.3705 N   0  0  0  0  0  0  0  0  0  0  0  0
   22.9447  -20.1827  -12.6624 C   0  0  0  0  0  0  0  0  0  0  0  0
   22.2835  -19.9785  -11.6078 O   0  0  0  0  0  0  0  0  0  0  0  0
   28.1226  -26.3203  -15.5827 N   0  0  0  0  0  0  0  0  0  0  0  0
   22.5163  -19.4876  -13.8042 C   0  0  2  0  0  0  0  0  0  0  0  0
   21.3096  -18.6104  -13.7968 C   0  0  0  0  0  0  0  0  0  0  0  0
   21.2482  -17.8587  -15.0770 C   0  0  0  0  0  0  0  0  0  0  0  0
   22.3328  -16.8694  -15.1842 C   0  0  0  0  0  0  0  0  0  0  0  0
   23.2106  -16.5984  -14.1169 N   0  0  0  0  0  0  0  0  0  0  0  0
   24.0634  -15.6532  -14.5303 C   0  0  0  0  0  0  0  0  0  0  0  0
   23.7820  -15.3041  -15.7991 N   0  0  0  0  0  0  0  0  0  0  0  0
   22.7335  -16.0621  -16.1509 C   0  0  0  0  0  0  0  0  0  0  0  0
   20.1439  -19.4209  -13.4429 O   0  0  0  0  0  0  0  0  0  0  0  0
   20.0886  -20.6363  -13.8334 O   0  0  0  0  0  0  0  0  0  0  0  0
  2  1  1  6
  2 10  1  0
  2  3  1  0
  3  4  1  0
  4  5  2  0
  5  6  1  0
  7  6  2  0
  8  7  1  0
  9  4  1  0
  9  8  2  0
 10 11  2  0
 13 15  1  0
 13 12  1  0
 14 13  2  0
 16 15  1  0
 16 17  1  0
 18 17  1  0
 19 18  1  1
 20 19  1  0
 20 10  1  0
 21 19  1  0
 22 21  2  0
 23 21  1  0
 24 31  1  0
 24 23  1  0
 24 25  1  1
 25 26  1  0
 26 30  1  0
 26 27  2  0
 27 28  1  0
 29 28  1  0
 30 29  2  0
 31 33  1  0
 32 31  2  0
M  END
$$$$
