FRH.pdb
     RDKit          3D

 33 34  0  0  1  0  0  0  0  0999 V2000
   21.2676  -20.0673  -19.8045 N   0  0  0  0  0  0  0  0  0  0  0  0
   21.4887  -18.9833  -18.8797 C   0  0  1  0  0  0  0  0  0  0  0  0
   20.4841  -17.8757  -18.9732 C   0  0  0  0  0  0  0  0  0  0  0  0
   20.4855  -17.1463  -20.2582 C   0  0  0  0  0  0  0  0  0  0  0  0
   19.6028  -17.3823  -21.2894 C   0  0  0  0  0  0  0  0  0  0  0  0
   19.6483  -16.6646  -22.4787 C   0  0  0  0  0  0  0  0  0  0  0  0
   20.5999  -15.6776  -22.6584 C   0  0  0  0  0  0  0  0  0  0  0  0
   21.4875  -15.4324  -21.6387 C   0  0  0  0  0  0  0  0  0  0  0  0
   21.4367  -16.1462  -20.4624 C   0  0  0  0  0  0  0  0  0  0  0  0
   21.4136  -19.5366  -17.5046 C   0  0  0  0  0  0  0  0  0  0  0  0
   20.4545  -20.2885  -17.1929 O   0  0  0  0  0  0  0  0  0  0  0  0
   25.4620  -23.7344  -14.8853 N   0  0  0  0  0  0  0  0  0  0  0  0
   26.6069  -22.8955  -14.8750 C   0  0  0  0  0  0  0  0  0  0  0  0
   27.5872  -23.1838  -15.6884 N   0  0  0  0  0  0  0  0  0  0  0  0
   26.6512  -21.7956  -14.0009 N   0  0  0  0  0  0  0  0  0  0  0  0
   25.4351  -21.1390  -13.6333 C   0  0  0  0  0  0  0  0  0  0  0  0
   24.7607  -20.4842  -14.8416 C   0  0  0  0  0  0  0  0  0  0  0  0
   23.5199  -19.8613  -14.3512 C   0  0  0  0  0  0  0  0  0  0  0  0
   22.3196  -19.7879  -15.1507 C   0  0  2  0  0  0  0  0  0  0  0  0
   22.3692  -19.2668  -16.4914 N   0  0  0  0  0  0  0  0  0  0  0  0
   21.0269  -19.4289  -14.4731 C   0  0  0  0  0  0  0  0  0  0  0  0
   20.7118  -18.2246  -14.2697 O   0  0  0  0  0  0  0  0  0  0  0  0
   28.4153  -22.5628  -15.7549 N   0  0  0  0  0  0  0  0  0  0  0  0
   20.1041  -20.3912  -14.0339 C   0  0  1  0  0  0  0  0  0  0  0  0
   19.0031  -20.0631  -13.0821 C   0  0  0  0  0  0  0  0  0  0  0  0
   19.4943  -19.0647  -12.0974 C   0  0  0  0  0  0  0  0  0  0  0  0
   20.4892  -19.6433  -11.1798 C   0  0  0  0  0  0  0  0  0  0  0  0
   20.6096  -21.0323  -10.9813 N   0  0  0  0  0  0  0  0  0  0  0  0
   21.5879  -21.2256  -10.0885 C   0  0  0  0  0  0  0  0  0  0  0  0
   22.0997  -20.0416   -9.7046 N   0  0  0  0  0  0  0  0  0  0  0  0
   21.4076  -19.1183  -10.3875 C   0  0  0  0  0  0  0  0  0  0  0  0
   17.8094  -19.7099  -13.8510 O   0  0  0  0  0  0  0  0  0  0  0  0
   16.7253  -19.4420  -13.2299 O   0  0  0  0  0  0  0  0  0  0  0  0
  2  1  1  6
  2 10  1  0
  2  3  1  0
  3  4  1  0
  4  5  2  0
  5  6  1  0
  7  6  2  0
  8  7  1  0
  9  4  1  0
  9  8  2  0
 10 11  2  0
 13 15  1  0
 13 12  1  0
 14 13  2  0
 16 15  1  0
 16 17  1  0
 18 17  1  0
 19 18  1  1
 20 19  1  0
 20 10  1  0
 21 19  1  0
 22 21  2  0
 23 21  1  0
 24 31  1  0
 24 23  1  0
 24 25  1  1
 25 26  1  0
 26 30  1  0
 26 27  2  0
 27 28  1  0
 29 28  1  0
 30 29  2  0
 31 33  1  0
 32 31  2  0
M  END
$$$$
