FRH.pdb
     RDKit          3D

 33 34  0  0  1  0  0  0  0  0999 V2000
   28.6788  -20.7163   -8.7091 N   0  0  0  0  0  0  0  0  0  0  0  0
   27.2755  -20.5920   -8.4014 C   0  0  1  0  0  0  0  0  0  0  0  0
   26.9688  -19.6401   -7.2857 C   0  0  0  0  0  0  0  0  0  0  0  0
   27.7978  -19.8179   -6.0756 C   0  0  0  0  0  0  0  0  0  0  0  0
   28.8990  -19.0502   -5.7654 C   0  0  0  0  0  0  0  0  0  0  0  0
   29.6439  -19.2603   -4.6110 C   0  0  0  0  0  0  0  0  0  0  0  0
   29.2901  -20.2653   -3.7295 C   0  0  0  0  0  0  0  0  0  0  0  0
   28.1948  -21.0395   -4.0268 C   0  0  0  0  0  0  0  0  0  0  0  0
   27.4604  -20.8258   -5.1717 C   0  0  0  0  0  0  0  0  0  0  0  0
   26.5865  -20.0899   -9.6162 C   0  0  0  0  0  0  0  0  0  0  0  0
   26.8934  -18.9607  -10.0781 O   0  0  0  0  0  0  0  0  0  0  0  0
   30.2859  -21.8933  -13.5038 N   0  0  0  0  0  0  0  0  0  0  0  0
   29.6490  -22.0590  -14.7615 C   0  0  0  0  0  0  0  0  0  0  0  0
   29.9922  -23.0847  -15.4935 N   0  0  0  0  0  0  0  0  0  0  0  0
   28.6824  -21.1266  -15.1761 N   0  0  0  0  0  0  0  0  0  0  0  0
   28.0296  -20.3086  -14.2014 C   0  0  0  0  0  0  0  0  0  0  0  0
   27.0979  -21.1314  -13.3079 C   0  0  0  0  0  0  0  0  0  0  0  0
   26.1879  -20.1791  -12.6499 C   0  0  0  0  0  0  0  0  0  0  0  0
   25.2019  -20.5919  -11.6790 C   0  0  2  0  0  0  0  0  0  0  0  0
   25.5786  -20.8102  -10.3072 N   0  0  0  0  0  0  0  0  0  0  0  0
   24.1288  -21.5522  -12.1098 C   0  0  0  0  0  0  0  0  0  0  0  0
   24.3678  -22.7853  -12.2250 O   0  0  0  0  0  0  0  0  0  0  0  0
   29.5079  -23.2762  -16.3905 N   0  0  0  0  0  0  0  0  0  0  0  0
   22.8173  -21.1472  -12.4034 C   0  0  1  0  0  0  0  0  0  0  0  0
   21.6255  -21.7973  -11.7849 C   0  0  0  0  0  0  0  0  0  0  0  0
   21.7768  -21.7823  -10.3068 C   0  0  0  0  0  0  0  0  0  0  0  0
   20.5733  -22.2886   -9.6274 C   0  0  0  0  0  0  0  0  0  0  0  0
   19.4001  -22.6259  -10.3296 N   0  0  0  0  0  0  0  0  0  0  0  0
   18.4992  -23.0373   -9.4292 C   0  0  0  0  0  0  0  0  0  0  0  0
   19.0277  -22.9826   -8.1928 N   0  0  0  0  0  0  0  0  0  0  0  0
   20.2772  -22.5264   -8.3615 C   0  0  0  0  0  0  0  0  0  0  0  0
   20.4178  -21.1835  -12.3378 O   0  0  0  0  0  0  0  0  0  0  0  0
   20.3970  -19.9219  -12.5399 O   0  0  0  0  0  0  0  0  0  0  0  0
  2  1  1  6
  2 10  1  0
  2  3  1  0
  3  4  1  0
  4  5  2  0
  5  6  1  0
  7  6  2  0
  8  7  1  0
  9  4  1  0
  9  8  2  0
 10 11  2  0
 13 15  1  0
 13 12  1  0
 14 13  2  0
 16 15  1  0
 16 17  1  0
 18 17  1  0
 19 18  1  6
 20 19  1  0
 20 10  1  0
 21 19  1  0
 22 21  2  0
 23 21  1  0
 24 31  1  0
 24 23  1  0
 24 25  1  6
 25 26  1  0
 26 30  1  0
 26 27  2  0
 27 28  1  0
 29 28  1  0
 30 29  2  0
 31 33  1  0
 32 31  2  0
M  END
$$$$
