FRH.pdb
     RDKit          3D

 33 34  0  0  1  0  0  0  0  0999 V2000
   28.7598  -21.1565  -12.8872 N   0  0  0  0  0  0  0  0  0  0  0  0
   27.7291  -21.3481  -11.8972 C   0  0  1  0  0  0  0  0  0  0  0  0
   28.0851  -20.8508  -10.5294 C   0  0  0  0  0  0  0  0  0  0  0  0
   29.3614  -21.3696   -9.9955 C   0  0  0  0  0  0  0  0  0  0  0  0
   29.6136  -22.6983   -9.7322 C   0  0  0  0  0  0  0  0  0  0  0  0
   30.8348  -23.1325   -9.2305 C   0  0  0  0  0  0  0  0  0  0  0  0
   31.8451  -22.2226   -8.9783 C   0  0  0  0  0  0  0  0  0  0  0  0
   31.6071  -20.8941   -9.2351 C   0  0  0  0  0  0  0  0  0  0  0  0
   30.3954  -20.4703   -9.7330 C   0  0  0  0  0  0  0  0  0  0  0  0
   26.5264  -20.6013  -12.3427 C   0  0  0  0  0  0  0  0  0  0  0  0
   26.6544  -19.4289  -12.7804 O   0  0  0  0  0  0  0  0  0  0  0  0
   25.9861  -18.6556  -17.5975 N   0  0  0  0  0  0  0  0  0  0  0  0
   26.7693  -19.8278  -17.7629 C   0  0  0  0  0  0  0  0  0  0  0  0
   28.0480  -19.6858  -17.9873 N   0  0  0  0  0  0  0  0  0  0  0  0
   26.1535  -21.0888  -17.6825 N   0  0  0  0  0  0  0  0  0  0  0  0
   25.0438  -21.2754  -16.7998 C   0  0  0  0  0  0  0  0  0  0  0  0
   25.4772  -21.2303  -15.3324 C   0  0  0  0  0  0  0  0  0  0  0  0
   24.4198  -20.5161  -14.5976 C   0  0  0  0  0  0  0  0  0  0  0  0
   24.1464  -20.7579  -13.2003 C   0  0  2  0  0  0  0  0  0  0  0  0
   25.2101  -21.1288  -12.3045 N   0  0  0  0  0  0  0  0  0  0  0  0
   22.8580  -21.4364  -12.8282 C   0  0  0  0  0  0  0  0  0  0  0  0
   22.8080  -22.6840  -12.6494 O   0  0  0  0  0  0  0  0  0  0  0  0
   28.6528  -20.5167  -18.1275 N   0  0  0  0  0  0  0  0  0  0  0  0
   21.6518  -20.7392  -12.6567 C   0  0  1  0  0  0  0  0  0  0  0  0
   20.4435  -21.3739  -12.0543 C   0  0  0  0  0  0  0  0  0  0  0  0
   20.3663  -21.0039  -10.6173 C   0  0  0  0  0  0  0  0  0  0  0  0
   19.9457  -22.1395   -9.7806 C   0  0  0  0  0  0  0  0  0  0  0  0
   19.7361  -23.4268  -10.3118 N   0  0  0  0  0  0  0  0  0  0  0  0
   19.3539  -24.2187   -9.3026 C   0  0  0  0  0  0  0  0  0  0  0  0
   19.3068  -23.5130   -8.1578 N   0  0  0  0  0  0  0  0  0  0  0  0
   19.6710  -22.2672   -8.4942 C   0  0  0  0  0  0  0  0  0  0  0  0
   19.2835  -21.0569  -12.8878 O   0  0  0  0  0  0  0  0  0  0  0  0
   19.1910  -19.8944  -13.4102 O   0  0  0  0  0  0  0  0  0  0  0  0
  2  1  1  6
  2 10  1  0
  2  3  1  0
  3  4  1  0
  4  5  2  0
  5  6  1  0
  7  6  2  0
  8  7  1  0
  9  4  1  0
  9  8  2  0
 10 11  2  0
 13 15  1  0
 13 12  1  0
 14 13  2  0
 16 15  1  0
 16 17  1  0
 18 17  1  0
 19 18  1  6
 20 19  1  0
 20 10  1  0
 21 19  1  0
 22 21  2  0
 23 21  1  0
 24 31  1  0
 24 23  1  0
 24 25  1  6
 25 26  1  0
 26 30  1  0
 26 27  2  0
 27 28  1  0
 29 28  1  0
 30 29  2  0
 31 33  1  0
 32 31  2  0
M  END
$$$$
