FRH.pdb
     RDKit          3D

 33 34  0  0  1  0  0  0  0  0999 V2000
   27.9553  -21.4713   -9.5647 N   0  0  0  0  0  0  0  0  0  0  0  0
   26.7971  -20.6772   -9.2373 C   0  0  1  0  0  0  0  0  0  0  0  0
   27.0950  -19.4546   -8.4240 C   0  0  0  0  0  0  0  0  0  0  0  0
   27.6806  -19.7239   -7.0945 C   0  0  0  0  0  0  0  0  0  0  0  0
   29.0320  -19.8131   -6.8414 C   0  0  0  0  0  0  0  0  0  0  0  0
   29.5295  -20.0679   -5.5689 C   0  0  0  0  0  0  0  0  0  0  0  0
   28.6622  -20.2416   -4.5061 C   0  0  0  0  0  0  0  0  0  0  0  0
   27.3117  -20.1565   -4.7441 C   0  0  0  0  0  0  0  0  0  0  0  0
   26.8251  -19.9029   -6.0069 C   0  0  0  0  0  0  0  0  0  0  0  0
   26.1813  -20.2254  -10.5099 C   0  0  0  0  0  0  0  0  0  0  0  0
   26.8971  -19.6586  -11.3753 O   0  0  0  0  0  0  0  0  0  0  0  0
   27.8522  -24.2728  -15.6998 N   0  0  0  0  0  0  0  0  0  0  0  0
   26.4777  -24.4253  -15.3801 C   0  0  0  0  0  0  0  0  0  0  0  0
   25.9683  -25.6274  -15.4158 N   0  0  0  0  0  0  0  0  0  0  0  0
   25.7164  -23.2936  -15.0404 N   0  0  0  0  0  0  0  0  0  0  0  0
   26.3716  -22.0383  -14.8408 C   0  0  0  0  0  0  0  0  0  0  0  0
   26.3578  -21.6233  -13.3673 C   0  0  0  0  0  0  0  0  0  0  0  0
   24.9739  -21.7869  -12.8916 C   0  0  0  0  0  0  0  0  0  0  0  0
   24.2965  -20.7775  -12.1121 C   0  0  2  0  0  0  0  0  0  0  0  0
   24.8076  -20.3883  -10.8242 N   0  0  0  0  0  0  0  0  0  0  0  0
   22.7942  -20.7397  -12.1372 C   0  0  0  0  0  0  0  0  0  0  0  0
   22.1120  -21.5122  -11.4100 O   0  0  0  0  0  0  0  0  0  0  0  0
   24.9865  -25.7913  -15.1244 N   0  0  0  0  0  0  0  0  0  0  0  0
   22.0679  -19.8584  -12.9534 C   0  0  2  0  0  0  0  0  0  0  0  0
   20.6650  -20.1379  -13.3769 C   0  0  0  0  0  0  0  0  0  0  0  0
   20.5000  -19.7441  -14.8001 C   0  0  0  0  0  0  0  0  0  0  0  0
   20.8220  -18.3243  -15.0169 C   0  0  0  0  0  0  0  0  0  0  0  0
   21.1658  -17.4619  -13.9580 N   0  0  0  0  0  0  0  0  0  0  0  0
   21.3860  -16.2508  -14.4837 C   0  0  0  0  0  0  0  0  0  0  0  0
   21.2029  -16.2886  -15.8163 N   0  0  0  0  0  0  0  0  0  0  0  0
   20.8648  -17.5566  -16.0917 C   0  0  0  0  0  0  0  0  0  0  0  0
   20.3362  -21.5196  -13.0249 O   0  0  0  0  0  0  0  0  0  0  0  0
   20.9977  -22.4729  -13.5600 O   0  0  0  0  0  0  0  0  0  0  0  0
  2  1  1  6
  2 10  1  0
  2  3  1  0
  3  4  1  0
  4  5  2  0
  5  6  1  0
  7  6  2  0
  8  7  1  0
  9  4  1  0
  9  8  2  0
 10 11  2  0
 13 15  1  0
 13 12  1  0
 14 13  2  0
 16 15  1  0
 16 17  1  0
 18 17  1  0
 19 18  1  1
 20 19  1  0
 20 10  1  0
 21 19  1  0
 22 21  2  0
 23 21  1  0
 24 31  1  0
 24 23  1  0
 24 25  1  6
 25 26  1  0
 26 30  1  0
 26 27  2  0
 27 28  1  0
 29 28  1  0
 30 29  2  0
 31 33  1  0
 32 31  2  0
M  END
$$$$
