MVQ.pdb
     RDKit          3D

 25 24  0  0  1  0  0  0  0  0999 V2000
   21.5843  -15.7466  -15.3120 C   0  0  0  0  0  0  0  0  0  0  0  0
   21.0999  -16.9812  -16.5361 S   0  0  0  0  0  0  0  0  0  0  0  0
   22.5520  -17.8309  -17.1782 C   0  0  0  0  0  0  0  0  0  0  0  0
   23.7906  -16.9867  -17.0148 C   0  0  0  0  0  0  0  0  0  0  0  0
   24.9876  -17.7491  -17.5746 C   0  0  2  0  0  0  0  0  0  0  0  0
   24.5761  -18.2860  -18.8758 N   0  0  0  0  0  0  0  0  0  0  0  0
   25.3150  -18.8550  -16.6342 C   0  0  0  0  0  0  0  0  0  0  0  0
   24.7760  -19.9596  -16.7730 O   0  0  0  0  0  0  0  0  0  0  0  0
   28.6204  -20.5561  -13.4041 C   0  0  0  0  0  0  0  0  0  0  0  0
   28.1594  -19.5642  -14.4283 C   0  0  1  0  0  0  0  0  0  0  0  0
   28.8581  -19.9180  -15.7331 C   0  0  0  0  0  0  0  0  0  0  0  0
   26.6883  -19.6920  -14.6694 C   0  0  2  0  0  0  0  0  0  0  0  0
   26.2357  -18.6450  -15.5890 N   0  0  0  0  0  0  0  0  0  0  0  0
   25.8252  -19.6085  -13.4858 C   0  0  0  0  0  0  0  0  0  0  0  0
   25.0476  -18.5845  -13.4117 O   0  0  0  0  0  0  0  0  0  0  0  0
   20.8761  -21.2799  -12.8436 N   0  0  0  0  0  0  0  0  0  0  0  0
   20.9488  -20.8282  -11.5116 C   0  0  0  0  0  0  0  0  0  0  0  0
   19.9137  -20.7494  -10.8231 O   0  0  0  0  0  0  0  0  0  0  0  0
   22.2534  -20.4424  -10.9141 C   0  0  0  0  0  0  0  0  0  0  0  0
   23.3452  -20.5248  -11.9390 C   0  0  0  0  0  0  0  0  0  0  0  0
   24.7097  -20.3181  -11.3839 C   0  0  2  0  0  0  0  0  0  0  0  0
   25.7255  -20.4973  -12.4170 N   0  0  0  0  0  0  0  0  0  0  0  0
   25.0205  -21.2822  -10.3105 C   0  0  0  0  0  0  0  0  0  0  0  0
   24.6655  -21.0242   -8.9657 O   0  0  0  0  0  0  0  0  0  0  0  0
   25.6056  -22.3819  -10.4713 O   0  0  0  0  0  0  0  0  0  0  0  0
  2  1  1  0
  3  4  1  0
  3  2  1  0
  4  5  1  0
  5  6  1  6
  7  8  2  0
  7  5  1  0
 10 12  1  0
 10  9  1  1
 11 10  1  0
 12 13  1  6
 13  7  1  0
 14 15  2  0
 14 12  1  0
 16 17  1  0
 17 18  2  0
 19 17  1  0
 19 20  1  0
 21 20  1  6
 21 22  1  0
 22 14  1  0
 23 21  1  0
 24 23  1  0
 25 23  2  0
M  END
$$$$
