MVQ.pdb
     RDKit          3D

 25 24  0  0  1  0  0  0  0  0999 V2000
   24.8161  -19.5756  -18.9683 C   0  0  0  0  0  0  0  0  0  0  0  0
   26.5537  -19.1290  -18.7717 S   0  0  0  0  0  0  0  0  0  0  0  0
   27.3380  -20.1869  -17.5436 C   0  0  0  0  0  0  0  0  0  0  0  0
   26.3251  -20.7230  -16.5636 C   0  0  0  0  0  0  0  0  0  0  0  0
   27.0586  -21.4479  -15.4394 C   0  0  2  0  0  0  0  0  0  0  0  0
   27.6624  -22.6459  -16.0319 N   0  0  0  0  0  0  0  0  0  0  0  0
   26.0610  -21.8256  -14.4018 C   0  0  0  0  0  0  0  0  0  0  0  0
   25.5460  -22.9500  -14.4248 O   0  0  0  0  0  0  0  0  0  0  0  0
   24.3322  -20.7909   -9.9001 C   0  0  0  0  0  0  0  0  0  0  0  0
   25.2880  -20.5573  -11.0302 C   0  0  1  0  0  0  0  0  0  0  0  0
   26.5966  -21.2348  -10.6505 C   0  0  0  0  0  0  0  0  0  0  0  0
   24.8015  -21.2136  -12.2837 C   0  0  2  0  0  0  0  0  0  0  0  0
   25.7039  -20.9060  -13.3963 N   0  0  0  0  0  0  0  0  0  0  0  0
   23.4521  -20.8475  -12.7284 C   0  0  0  0  0  0  0  0  0  0  0  0
   23.3020  -19.6545  -13.1897 O   0  0  0  0  0  0  0  0  0  0  0  0
   18.2727  -24.1719  -13.9963 N   0  0  0  0  0  0  0  0  0  0  0  0
   17.7715  -22.8558  -14.0177 C   0  0  0  0  0  0  0  0  0  0  0  0
   16.5559  -22.6551  -14.2015 O   0  0  0  0  0  0  0  0  0  0  0  0
   18.6809  -21.6972  -13.8224 C   0  0  0  0  0  0  0  0  0  0  0  0
   20.0814  -22.1667  -13.5630 C   0  0  0  0  0  0  0  0  0  0  0  0
   21.0234  -21.0771  -13.1913 C   0  0  2  0  0  0  0  0  0  0  0  0
   22.2941  -21.6231  -12.7244 N   0  0  0  0  0  0  0  0  0  0  0  0
   20.4936  -20.2388  -12.0982 C   0  0  0  0  0  0  0  0  0  0  0  0
   19.8463  -19.0091  -12.3628 O   0  0  0  0  0  0  0  0  0  0  0  0
   20.5589  -20.5168  -10.8752 O   0  0  0  0  0  0  0  0  0  0  0  0
  2  1  1  0
  3  4  1  0
  3  2  1  0
  4  5  1  0
  5  6  1  6
  7  8  2  0
  7  5  1  0
 10 12  1  0
 10  9  1  1
 11 10  1  0
 12 13  1  6
 13  7  1  0
 14 15  2  0
 14 12  1  0
 16 17  1  0
 17 18  2  0
 19 17  1  0
 19 20  1  0
 21 20  1  1
 21 22  1  0
 22 14  1  0
 23 21  1  0
 24 23  1  0
 25 23  2  0
M  END
$$$$
