MVQ.pdb
     RDKit          3D

 25 24  0  0  1  0  0  0  0  0999 V2000
   21.4599  -19.8863   -7.2807 C   0  0  0  0  0  0  0  0  0  0  0  0
   22.5001  -21.2801   -6.7983 S   0  0  0  0  0  0  0  0  0  0  0  0
   24.1497  -21.1033   -7.4983 C   0  0  0  0  0  0  0  0  0  0  0  0
   24.0834  -20.8224   -8.9783 C   0  0  0  0  0  0  0  0  0  0  0  0
   25.4957  -20.5753   -9.4997 C   0  0  2  0  0  0  0  0  0  0  0  0
   26.0428  -19.4565   -8.7252 N   0  0  0  0  0  0  0  0  0  0  0  0
   25.4025  -20.2156  -10.9407 C   0  0  0  0  0  0  0  0  0  0  0  0
   24.6952  -19.2636  -11.2920 O   0  0  0  0  0  0  0  0  0  0  0  0
   27.4317  -20.7809  -15.4185 C   0  0  0  0  0  0  0  0  0  0  0  0
   27.4027  -21.1054  -13.9559 C   0  0  1  0  0  0  0  0  0  0  0  0
   28.5154  -20.2996  -13.3015 C   0  0  0  0  0  0  0  0  0  0  0  0
   26.1155  -20.6597  -13.3368 C   0  0  2  0  0  0  0  0  0  0  0  0
   26.1173  -20.9567  -11.9021 N   0  0  0  0  0  0  0  0  0  0  0  0
   24.8904  -21.2536  -13.8837 C   0  0  0  0  0  0  0  0  0  0  0  0
   24.6442  -22.4733  -13.5514 O   0  0  0  0  0  0  0  0  0  0  0  0
   19.3599  -20.1351  -12.9468 N   0  0  0  0  0  0  0  0  0  0  0  0
   19.1417  -21.0925  -13.9564 C   0  0  0  0  0  0  0  0  0  0  0  0
   17.9926  -21.5251  -14.1669 O   0  0  0  0  0  0  0  0  0  0  0  0
   20.2725  -21.5956  -14.7785 C   0  0  0  0  0  0  0  0  0  0  0  0
   21.5623  -20.9719  -14.3350 C   0  0  0  0  0  0  0  0  0  0  0  0
   22.7453  -21.4073  -15.1249 C   0  0  2  0  0  0  0  0  0  0  0  0
   23.9405  -20.6725  -14.7217 N   0  0  0  0  0  0  0  0  0  0  0  0
   22.5640  -21.1644  -16.5693 C   0  0  0  0  0  0  0  0  0  0  0  0
   22.0545  -22.1689  -17.4251 O   0  0  0  0  0  0  0  0  0  0  0  0
   22.8308  -20.0899  -17.1624 O   0  0  0  0  0  0  0  0  0  0  0  0
  2  1  1  0
  3  4  1  0
  3  2  1  0
  4  5  1  0
  5  6  1  1
  7  8  2  0
  7  5  1  0
 10 12  1  0
 10  9  1  6
 11 10  1  0
 12 13  1  1
 13  7  1  0
 14 15  2  0
 14 12  1  0
 16 17  1  0
 17 18  2  0
 19 17  1  0
 19 20  1  0
 21 20  1  1
 21 22  1  0
 22 14  1  0
 23 21  1  0
 24 23  1  0
 25 23  2  0
M  END
$$$$
