MVQ.pdb
     RDKit          3D

 25 24  0  0  1  0  0  0  0  0999 V2000
   29.6960  -19.2598  -11.2608 C   0  0  0  0  0  0  0  0  0  0  0  0
   30.0428  -20.8724  -11.9933 S   0  0  0  0  0  0  0  0  0  0  0  0
   28.5080  -21.7553  -12.3214 C   0  0  0  0  0  0  0  0  0  0  0  0
   27.3201  -20.8315  -12.2259 C   0  0  0  0  0  0  0  0  0  0  0  0
   26.0490  -21.6282  -12.5037 C   0  0  2  0  0  0  0  0  0  0  0  0
   26.3063  -22.4298  -13.7045 N   0  0  0  0  0  0  0  0  0  0  0  0
   24.9411  -20.6650  -12.7472 C   0  0  0  0  0  0  0  0  0  0  0  0
   24.6243  -19.8571  -11.8658 O   0  0  0  0  0  0  0  0  0  0  0  0
   22.1550  -18.3621  -16.0660 C   0  0  0  0  0  0  0  0  0  0  0  0
   23.3394  -19.1882  -15.6658 C   0  0  1  0  0  0  0  0  0  0  0  0
   24.5286  -18.2430  -15.5763 C   0  0  0  0  0  0  0  0  0  0  0  0
   23.1429  -19.7766  -14.3042 C   0  0  2  0  0  0  0  0  0  0  0  0
   24.2550  -20.6728  -13.9775 N   0  0  0  0  0  0  0  0  0  0  0  0
   21.9120  -20.5486  -14.1003 C   0  0  0  0  0  0  0  0  0  0  0  0
   21.8351  -21.6807  -14.7096 O   0  0  0  0  0  0  0  0  0  0  0  0
   19.7437  -22.6180   -9.1441 N   0  0  0  0  0  0  0  0  0  0  0  0
   18.6660  -23.0201   -9.9569 C   0  0  0  0  0  0  0  0  0  0  0  0
   17.7671  -23.7430   -9.4868 O   0  0  0  0  0  0  0  0  0  0  0  0
   18.5881  -22.5895  -11.3768 C   0  0  0  0  0  0  0  0  0  0  0  0
   19.7777  -21.7504  -11.7371 C   0  0  0  0  0  0  0  0  0  0  0  0
   19.7253  -21.1900  -13.1140 C   0  0  2  0  0  0  0  0  0  0  0  0
   20.7998  -20.2247  -13.3254 N   0  0  0  0  0  0  0  0  0  0  0  0
   18.4581  -20.4787  -13.3722 C   0  0  0  0  0  0  0  0  0  0  0  0
   17.3135  -21.1640  -13.8427 O   0  0  0  0  0  0  0  0  0  0  0  0
   18.2720  -19.2474  -13.2088 O   0  0  0  0  0  0  0  0  0  0  0  0
  2  1  1  0
  3  4  1  0
  3  2  1  0
  4  5  1  0
  5  6  1  6
  7  8  2  0
  7  5  1  0
 10 12  1  0
 10  9  1  1
 11 10  1  0
 12 13  1  6
 13  7  1  0
 14 15  2  0
 14 12  1  0
 16 17  1  0
 17 18  2  0
 19 17  1  0
 19 20  1  0
 21 20  1  1
 21 22  1  0
 22 14  1  0
 23 21  1  0
 24 23  1  0
 25 23  2  0
M  END
$$$$
