MVQ.pdb
     RDKit          3D

 25 24  0  0  1  0  0  0  0  0999 V2000
   19.7016  -19.9067  -13.1283 C   0  0  0  0  0  0  0  0  0  0  0  0
   18.4796  -19.5280  -14.4014 S   0  0  0  0  0  0  0  0  0  0  0  0
   19.1901  -18.4410  -15.6489 C   0  0  0  0  0  0  0  0  0  0  0  0
   20.6912  -18.5762  -15.6945 C   0  0  0  0  0  0  0  0  0  0  0  0
   21.2623  -17.4676  -16.5732 C   0  0  2  0  0  0  0  0  0  0  0  0
   20.7189  -17.6729  -17.9198 N   0  0  0  0  0  0  0  0  0  0  0  0
   22.7445  -17.6000  -16.5833 C   0  0  0  0  0  0  0  0  0  0  0  0
   23.2871  -18.3716  -17.3834 O   0  0  0  0  0  0  0  0  0  0  0  0
   27.0218  -15.6489  -15.0009 C   0  0  0  0  0  0  0  0  0  0  0  0
   25.5316  -15.5895  -15.1462 C   0  0  1  0  0  0  0  0  0  0  0  0
   25.2325  -14.5566  -16.2229 C   0  0  0  0  0  0  0  0  0  0  0  0
   24.9910  -16.8978  -15.6307 C   0  0  2  0  0  0  0  0  0  0  0  0
   23.5276  -16.8493  -15.6847 N   0  0  0  0  0  0  0  0  0  0  0  0
   25.3395  -18.0805  -14.8355 C   0  0  0  0  0  0  0  0  0  0  0  0
   24.7969  -18.1714  -13.6710 O   0  0  0  0  0  0  0  0  0  0  0  0
   26.6738  -21.2952  -10.6572 N   0  0  0  0  0  0  0  0  0  0  0  0
   25.4652  -21.3693  -11.3764 C   0  0  0  0  0  0  0  0  0  0  0  0
   24.4092  -20.9509  -10.8649 O   0  0  0  0  0  0  0  0  0  0  0  0
   25.4345  -21.9438  -12.7463 C   0  0  0  0  0  0  0  0  0  0  0  0
   25.2192  -20.8636  -13.7641 C   0  0  0  0  0  0  0  0  0  0  0  0
   26.4727  -20.2008  -14.2140 C   0  0  2  0  0  0  0  0  0  0  0  0
   26.1852  -19.1364  -15.1707 N   0  0  0  0  0  0  0  0  0  0  0  0
   27.3841  -21.1448  -14.8895 C   0  0  0  0  0  0  0  0  0  0  0  0
   28.3056  -21.9286  -14.1563 O   0  0  0  0  0  0  0  0  0  0  0  0
   27.4345  -21.3420  -16.1289 O   0  0  0  0  0  0  0  0  0  0  0  0
  2  1  1  0
  3  4  1  0
  3  2  1  0
  4  5  1  0
  5  6  1  6
  7  8  2  0
  7  5  1  0
 10 12  1  0
 10  9  1  6
 11 10  1  0
 12 13  1  1
 13  7  1  0
 14 15  2  0
 14 12  1  0
 16 17  1  0
 17 18  2  0
 19 17  1  0
 19 20  1  0
 21 20  1  6
 21 22  1  0
 22 14  1  0
 23 21  1  0
 24 23  1  0
 25 23  2  0
M  END
$$$$
