MVQ.pdb
     RDKit          3D

 25 24  0  0  1  0  0  0  0  0999 V2000
   36.1005  -33.1841   -1.1309 C   0  0  0  0  0  0  0  0  0  0  0  0
   37.0708  -33.0107    0.3810 S   0  0  0  0  0  0  0  0  0  0  0  0
   36.1956  -31.9838    1.5735 C   0  0  0  0  0  0  0  0  0  0  0  0
   37.0822  -31.6346    2.7422 C   0  0  0  0  0  0  0  0  0  0  0  0
   36.2980  -30.7594    3.7151 C   0  0  2  0  0  0  0  0  0  0  0  0
   37.1885  -30.4827    4.8471 N   0  0  0  0  0  0  0  0  0  0  0  0
   35.1027  -31.5224    4.1663 C   0  0  0  0  0  0  0  0  0  0  0  0
   35.2366  -32.4608    4.9610 O   0  0  0  0  0  0  0  0  0  0  0  0
   30.3508  -31.0842    5.1043 C   0  0  0  0  0  0  0  0  0  0  0  0
   31.7298  -30.5986    4.7756 C   0  0  1  0  0  0  0  0  0  0  0  0
   32.3657  -30.1527    6.0842 C   0  0  0  0  0  0  0  0  0  0  0  0
   32.5716  -31.7113    4.2351 C   0  0  2  0  0  0  0  0  0  0  0  0
   33.8226  -31.1775    3.6903 N   0  0  0  0  0  0  0  0  0  0  0  0
   31.9695  -32.5266    3.1743 C   0  0  0  0  0  0  0  0  0  0  0  0
   31.8326  -31.9642    2.0238 O   0  0  0  0  0  0  0  0  0  0  0  0
   30.0780  -39.0827    0.2931 N   0  0  0  0  0  0  0  0  0  0  0  0
   30.8173  -38.1158    1.0016 C   0  0  0  0  0  0  0  0  0  0  0  0
   31.8532  -38.4460    1.6096 O   0  0  0  0  0  0  0  0  0  0  0  0
   30.3738  -36.6981    1.0327 C   0  0  0  0  0  0  0  0  0  0  0  0
   31.0303  -35.9671    2.1658 C   0  0  0  0  0  0  0  0  0  0  0  0
   30.9109  -34.4870    2.0780 C   0  0  2  0  0  0  0  0  0  0  0  0
   31.5219  -33.8450    3.2379 N   0  0  0  0  0  0  0  0  0  0  0  0
   29.5021  -34.0485    2.0424 C   0  0  0  0  0  0  0  0  0  0  0  0
   28.7727  -34.0170    0.8308 O   0  0  0  0  0  0  0  0  0  0  0  0
   28.8343  -33.6745    3.0383 O   0  0  0  0  0  0  0  0  0  0  0  0
  2  1  1  0
  3  4  1  0
  3  2  1  0
  4  5  1  0
  5  6  1  1
  7  8  2  0
  7  5  1  0
 10 12  1  0
 10  9  1  1
 11 10  1  0
 12 13  1  6
 13  7  1  0
 14 15  2  0
 14 12  1  0
 16 17  1  0
 17 18  2  0
 19 17  1  0
 19 20  1  0
 21 20  1  1
 21 22  1  0
 22 14  1  0
 23 21  1  0
 24 23  1  0
 25 23  2  0
M  END
$$$$
