GKF.pdb
     RDKit          3D

 25 25  0  0  1  0  0  0  0  0999 V2000
   20.6783  -12.3845  -17.8064 N   0  0  0  0  0  0  0  0  0  0  0  0
   20.6754  -11.4768  -18.9509 C   0  0  0  0  0  0  0  0  0  0  0  0
   20.7649  -10.1031  -18.4416 C   0  0  0  0  0  0  0  0  0  0  0  0
   21.8826   -9.6755  -18.0509 O   0  0  0  0  0  0  0  0  0  0  0  0
   19.6359   -9.2404  -18.3744 N   0  0  0  0  0  0  0  0  0  0  0  0
   19.8317   -7.8657  -18.0514 C   0  0  1  0  0  0  0  0  0  0  0  0
   18.8150   -7.0196  -18.7744 C   0  0  0  0  0  0  0  0  0  0  0  0
   18.9784   -5.5445  -18.4357 C   0  0  0  0  0  0  0  0  0  0  0  0
   17.9117   -4.7325  -19.1369 C   0  0  0  0  0  0  0  0  0  0  0  0
   18.3589   -4.4251  -20.5421 C   0  0  0  0  0  0  0  0  0  0  0  0
   17.2909   -3.7419  -21.2533 N   0  0  0  0  0  0  0  0  0  0  0  0
   19.8004   -7.6694  -16.5909 C   0  0  0  0  0  0  0  0  0  0  0  0
   18.8891   -8.2024  -15.9243 O   0  0  0  0  0  0  0  0  0  0  0  0
   20.7724   -6.8987  -15.9479 N   0  0  0  0  0  0  0  0  0  0  0  0
   20.8363   -6.6965  -14.5055 C   0  0  1  0  0  0  0  0  0  0  0  0
   22.2016   -6.3091  -14.0597 C   0  0  0  0  0  0  0  0  0  0  0  0
   22.6130   -5.0480  -14.7067 C   0  0  0  0  0  0  0  0  0  0  0  0
   22.3986   -3.8798  -13.9659 C   0  0  0  0  0  0  0  0  0  0  0  0
   22.7650   -2.6514  -14.4591 C   0  0  0  0  0  0  0  0  0  0  0  0
   23.3539   -2.5655  -15.7047 C   0  0  0  0  0  0  0  0  0  0  0  0
   23.5642   -3.7170  -16.4322 C   0  0  0  0  0  0  0  0  0  0  0  0
   23.2002   -4.9536  -15.9458 C   0  0  0  0  0  0  0  0  0  0  0  0
   19.8440   -5.6812  -14.1480 C   0  0  0  0  0  0  0  0  0  0  0  0
   19.3597   -4.9465  -15.0409 O   0  0  0  0  0  0  0  0  0  0  0  0
   19.3944   -5.4780  -12.8592 O   0  0  0  0  0  0  0  0  0  0  0  0
  1  2  1  0
  2  3  1  0
  3  4  2  0
  5  6  1  0
  5  3  1  0
  6 12  1  0
  6  7  1  6
  8  7  1  0
  8  9  1  0
 10  9  1  0
 11 10  1  0
 12 14  1  0
 12 13  2  0
 14 15  1  0
 15 23  1  0
 15 16  1  6
 17 16  1  0
 17 18  2  0
 19 18  1  0
 20 19  2  0
 21 22  2  0
 21 20  1  0
 22 17  1  0
 23 24  2  0
 23 25  1  0
M  END
$$$$
