GKF.pdb
     RDKit          3D

 25 25  0  0  1  0  0  0  0  0999 V2000
   18.6605  -12.5890  -15.3659 N   0  0  0  0  0  0  0  0  0  0  0  0
   18.0447  -11.3180  -15.7386 C   0  0  0  0  0  0  0  0  0  0  0  0
   19.1140  -10.3940  -16.1353 C   0  0  0  0  0  0  0  0  0  0  0  0
   20.2229  -10.4636  -15.5433 O   0  0  0  0  0  0  0  0  0  0  0  0
   18.9415   -9.4252  -17.1625 N   0  0  0  0  0  0  0  0  0  0  0  0
   20.0495   -8.6124  -17.5425 C   0  0  1  0  0  0  0  0  0  0  0  0
   19.8394   -8.0790  -18.9366 C   0  0  0  0  0  0  0  0  0  0  0  0
   20.3062   -9.0753  -19.9885 C   0  0  0  0  0  0  0  0  0  0  0  0
   20.1393   -8.4831  -21.3706 C   0  0  0  0  0  0  0  0  0  0  0  0
   20.5894   -9.4840  -22.4024 C   0  0  0  0  0  0  0  0  0  0  0  0
   20.4427   -8.9120  -23.7307 N   0  0  0  0  0  0  0  0  0  0  0  0
   20.2694   -7.5440  -16.5513 C   0  0  0  0  0  0  0  0  0  0  0  0
   19.2860   -6.9234  -16.0967 O   0  0  0  0  0  0  0  0  0  0  0  0
   21.5574   -7.2196  -16.1173 N   0  0  0  0  0  0  0  0  0  0  0  0
   21.8486   -6.2586  -15.0603 C   0  0  1  0  0  0  0  0  0  0  0  0
   22.5472   -6.8934  -13.9107 C   0  0  0  0  0  0  0  0  0  0  0  0
   23.5857   -7.8245  -14.3933 C   0  0  0  0  0  0  0  0  0  0  0  0
   23.4376   -9.1622  -14.0085 C   0  0  0  0  0  0  0  0  0  0  0  0
   24.3315  -10.1204  -14.4196 C   0  0  0  0  0  0  0  0  0  0  0  0
   25.3933   -9.7606  -15.2250 C   0  0  0  0  0  0  0  0  0  0  0  0
   25.5371   -8.4430  -15.6028 C   0  0  0  0  0  0  0  0  0  0  0  0
   24.6456   -7.4748  -15.1955 C   0  0  0  0  0  0  0  0  0  0  0  0
   22.6425   -5.1750  -15.6423 C   0  0  0  0  0  0  0  0  0  0  0  0
   22.9546   -5.2179  -16.8557 O   0  0  0  0  0  0  0  0  0  0  0  0
   23.0780   -4.0806  -14.9231 O   0  0  0  0  0  0  0  0  0  0  0  0
  1  2  1  0
  2  3  1  0
  3  4  2  0
  5  6  1  0
  5  3  1  0
  6 12  1  0
  6  7  1  6
  8  7  1  0
  8  9  1  0
 10  9  1  0
 11 10  1  0
 12 14  1  0
 12 13  2  0
 14 15  1  0
 15 23  1  0
 15 16  1  1
 17 16  1  0
 17 18  2  0
 19 18  1  0
 20 19  2  0
 21 22  2  0
 21 20  1  0
 22 17  1  0
 23 24  2  0
 23 25  1  0
M  END
$$$$
