GKF.pdb
     RDKit          3D

 25 25  0  0  1  0  0  0  0  0999 V2000
   27.0330  -17.0417  -14.5913 N   0  0  0  0  0  0  0  0  0  0  0  0
   27.4148  -18.4490  -14.5048 C   0  0  0  0  0  0  0  0  0  0  0  0
   26.6494  -19.0611  -13.4121 C   0  0  0  0  0  0  0  0  0  0  0  0
   25.6438  -18.4510  -12.9634 O   0  0  0  0  0  0  0  0  0  0  0  0
   27.0032  -20.3164  -12.8441 N   0  0  0  0  0  0  0  0  0  0  0  0
   26.1897  -20.8632  -11.8088 C   0  0  1  0  0  0  0  0  0  0  0  0
   25.7471  -22.2540  -12.1857 C   0  0  0  0  0  0  0  0  0  0  0  0
   25.0274  -22.2633  -13.5270 C   0  0  0  0  0  0  0  0  0  0  0  0
   24.5866  -23.6701  -13.8667 C   0  0  0  0  0  0  0  0  0  0  0  0
   23.9279  -23.6755  -15.2214 C   0  0  0  0  0  0  0  0  0  0  0  0
   23.4945  -25.0246  -15.5456 N   0  0  0  0  0  0  0  0  0  0  0  0
   26.9005  -20.8222  -10.5183 C   0  0  0  0  0  0  0  0  0  0  0  0
   28.1385  -20.9825  -10.4996 O   0  0  0  0  0  0  0  0  0  0  0  0
   26.2093  -20.6073   -9.3231 N   0  0  0  0  0  0  0  0  0  0  0  0
   26.8274  -20.6305   -8.0030 C   0  0  1  0  0  0  0  0  0  0  0  0
   27.5020  -19.3437   -7.6837 C   0  0  0  0  0  0  0  0  0  0  0  0
   28.1143  -19.4055   -6.3422 C   0  0  0  0  0  0  0  0  0  0  0  0
   29.3175  -20.1147   -6.2489 C   0  0  0  0  0  0  0  0  0  0  0  0
   29.9882  -20.2171   -5.0547 C   0  0  0  0  0  0  0  0  0  0  0  0
   29.4690  -19.6120   -3.9278 C   0  0  0  0  0  0  0  0  0  0  0  0
   28.2843  -18.9142   -4.0221 C   0  0  0  0  0  0  0  0  0  0  0  0
   27.6045  -18.8058   -5.2155 C   0  0  0  0  0  0  0  0  0  0  0  0
   25.7876  -20.9519   -7.0237 C   0  0  0  0  0  0  0  0  0  0  0  0
   24.5881  -20.7030   -7.2891 O   0  0  0  0  0  0  0  0  0  0  0  0
   26.0500  -21.5282   -5.7975 O   0  0  0  0  0  0  0  0  0  0  0  0
  1  2  1  0
  2  3  1  0
  3  4  2  0
  5  6  1  0
  5  3  1  0
  6 12  1  0
  6  7  1  6
  8  7  1  0
  8  9  1  0
 10  9  1  0
 11 10  1  0
 12 14  1  0
 12 13  2  0
 14 15  1  0
 15 23  1  0
 15 16  1  1
 17 16  1  0
 17 18  2  0
 19 18  1  0
 20 19  2  0
 21 22  2  0
 21 20  1  0
 22 17  1  0
 23 24  2  0
 23 25  1  0
M  END
$$$$
