GKF.pdb
     RDKit          3D

 25 25  0  0  1  0  0  0  0  0999 V2000
   43.5491   -9.1791   -3.0032 N   0  0  0  0  0  0  0  0  0  0  0  0
   43.6863  -10.0394   -4.1756 C   0  0  0  0  0  0  0  0  0  0  0  0
   43.5885   -9.1954   -5.3726 C   0  0  0  0  0  0  0  0  0  0  0  0
   43.3595   -7.9661   -5.2277 O   0  0  0  0  0  0  0  0  0  0  0  0
   43.7431   -9.7168   -6.6870 N   0  0  0  0  0  0  0  0  0  0  0  0
   43.8353   -8.8125   -7.7854 C   0  0  1  0  0  0  0  0  0  0  0  0
   44.6286   -9.4419   -8.9021 C   0  0  0  0  0  0  0  0  0  0  0  0
   44.9191   -8.4396  -10.0102 C   0  0  0  0  0  0  0  0  0  0  0  0
   45.7172   -9.1034  -11.1107 C   0  0  0  0  0  0  0  0  0  0  0  0
   46.0273   -8.0931  -12.1842 C   0  0  0  0  0  0  0  0  0  0  0  0
   46.6346   -8.7639  -13.3218 N   0  0  0  0  0  0  0  0  0  0  0  0
   42.4922   -8.3824   -8.2136 C   0  0  0  0  0  0  0  0  0  0  0  0
   41.6822   -9.2375   -8.6279 O   0  0  0  0  0  0  0  0  0  0  0  0
   42.1172   -7.0373   -8.1616 N   0  0  0  0  0  0  0  0  0  0  0  0
   40.8030   -6.5372   -8.5464 C   0  0  1  0  0  0  0  0  0  0  0  0
   39.9418   -6.2726   -7.3627 C   0  0  0  0  0  0  0  0  0  0  0  0
   39.2850   -7.5176   -6.9187 C   0  0  0  0  0  0  0  0  0  0  0  0
   38.1513   -7.9052   -7.6425 C   0  0  0  0  0  0  0  0  0  0  0  0
   37.4741   -9.0593   -7.3331 C   0  0  0  0  0  0  0  0  0  0  0  0
   37.9170   -9.8508   -6.2923 C   0  0  0  0  0  0  0  0  0  0  0  0
   39.0336   -9.4673   -5.5812 C   0  0  0  0  0  0  0  0  0  0  0  0
   39.7194   -8.3114   -5.8842 C   0  0  0  0  0  0  0  0  0  0  0  0
   40.9979   -5.3305   -9.3521 C   0  0  0  0  0  0  0  0  0  0  0  0
   42.1564   -4.8888   -9.5365 O   0  0  0  0  0  0  0  0  0  0  0  0
   39.9619   -4.6322   -9.9385 O   0  0  0  0  0  0  0  0  0  0  0  0
  1  2  1  0
  2  3  1  0
  3  4  2  0
  5  6  1  0
  5  3  1  0
  6 12  1  0
  6  7  1  6
  8  7  1  0
  8  9  1  0
 10  9  1  0
 11 10  1  0
 12 14  1  0
 12 13  2  0
 14 15  1  0
 15 23  1  0
 15 16  1  1
 17 16  1  0
 17 18  2  0
 19 18  1  0
 20 19  2  0
 21 22  2  0
 21 20  1  0
 22 17  1  0
 23 24  2  0
 23 25  1  0
M  END
$$$$
