GKF.pdb
     RDKit          3D

 25 25  0  0  1  0  0  0  0  0999 V2000
   28.7786  -22.6618  -16.4248 N   0  0  0  0  0  0  0  0  0  0  0  0
   27.4006  -22.9512  -16.0362 C   0  0  0  0  0  0  0  0  0  0  0  0
   26.5737  -21.7938  -16.3986 C   0  0  0  0  0  0  0  0  0  0  0  0
   27.0388  -20.9487  -17.2074 O   0  0  0  0  0  0  0  0  0  0  0  0
   25.2686  -21.5943  -15.8690 N   0  0  0  0  0  0  0  0  0  0  0  0
   24.2864  -20.9436  -16.6718 C   0  0  1  0  0  0  0  0  0  0  0  0
   23.9956  -21.7718  -17.8973 C   0  0  0  0  0  0  0  0  0  0  0  0
   22.9095  -21.1350  -18.7530 C   0  0  0  0  0  0  0  0  0  0  0  0
   22.6571  -21.9815  -19.9812 C   0  0  0  0  0  0  0  0  0  0  0  0
   21.5504  -21.3648  -20.7960 C   0  0  0  0  0  0  0  0  0  0  0  0
   21.3474  -22.1426  -22.0071 N   0  0  0  0  0  0  0  0  0  0  0  0
   23.0778  -20.6581  -15.8778 C   0  0  0  0  0  0  0  0  0  0  0  0
   22.4948  -21.5972  -15.2973 O   0  0  0  0  0  0  0  0  0  0  0  0
   22.5803  -19.3570  -15.7680 N   0  0  0  0  0  0  0  0  0  0  0  0
   21.4776  -18.9720  -14.8955 C   0  0  1  0  0  0  0  0  0  0  0  0
   21.6143  -17.5710  -14.4144 C   0  0  0  0  0  0  0  0  0  0  0  0
   21.9614  -16.6761  -15.5355 C   0  0  0  0  0  0  0  0  0  0  0  0
   23.3262  -16.4279  -15.7228 C   0  0  0  0  0  0  0  0  0  0  0  0
   23.7662  -15.6295  -16.7500 C   0  0  0  0  0  0  0  0  0  0  0  0
   22.8497  -15.0619  -17.6123 C   0  0  0  0  0  0  0  0  0  0  0  0
   21.5064  -15.3078  -17.4260 C   0  0  0  0  0  0  0  0  0  0  0  0
   21.0555  -16.1074  -16.3987 C   0  0  0  0  0  0  0  0  0  0  0  0
   20.2286  -19.1693  -15.6334 C   0  0  0  0  0  0  0  0  0  0  0  0
   19.1314  -19.0069  -15.0494 O   0  0  0  0  0  0  0  0  0  0  0  0
   20.1809  -19.5290  -16.9650 O   0  0  0  0  0  0  0  0  0  0  0  0
  1  2  1  0
  2  3  1  0
  3  4  2  0
  5  6  1  0
  5  3  1  0
  6 12  1  0
  6  7  1  6
  8  7  1  0
  8  9  1  0
 10  9  1  0
 11 10  1  0
 12 14  1  0
 12 13  2  0
 14 15  1  0
 15 23  1  0
 15 16  1  6
 17 16  1  0
 17 18  2  0
 19 18  1  0
 20 19  2  0
 21 22  2  0
 21 20  1  0
 22 17  1  0
 23 24  2  0
 23 25  1  0
M  END
$$$$
