GKF.pdb
     RDKit          3D

 25 25  0  0  1  0  0  0  0  0999 V2000
   20.9309  -21.9132  -13.4838 N   0  0  0  0  0  0  0  0  0  0  0  0
   21.4930  -20.7950  -12.7305 C   0  0  0  0  0  0  0  0  0  0  0  0
   22.8332  -21.1826  -12.2741 C   0  0  0  0  0  0  0  0  0  0  0  0
   22.9484  -22.1846  -11.5208 O   0  0  0  0  0  0  0  0  0  0  0  0
   24.0032  -20.4675  -12.6524 N   0  0  0  0  0  0  0  0  0  0  0  0
   25.2602  -20.8527  -12.1010 C   0  0  1  0  0  0  0  0  0  0  0  0
   26.3795  -20.3512  -12.9773 C   0  0  0  0  0  0  0  0  0  0  0  0
   26.8384  -21.4208  -13.9584 C   0  0  0  0  0  0  0  0  0  0  0  0
   27.8909  -20.8537  -14.8854 C   0  0  0  0  0  0  0  0  0  0  0  0
   28.3706  -21.9338  -15.8194 C   0  0  0  0  0  0  0  0  0  0  0  0
   29.3812  -21.3908  -16.7120 N   0  0  0  0  0  0  0  0  0  0  0  0
   25.3764  -20.3876  -10.7072 C   0  0  0  0  0  0  0  0  0  0  0  0
   24.8169  -19.3229  -10.3719 O   0  0  0  0  0  0  0  0  0  0  0  0
   26.1008  -21.1195   -9.7628 N   0  0  0  0  0  0  0  0  0  0  0  0
   26.3708  -20.6645   -8.4043 C   0  0  1  0  0  0  0  0  0  0  0  0
   27.4018  -21.5013   -7.7337 C   0  0  0  0  0  0  0  0  0  0  0  0
   27.7917  -20.8979   -6.4444 C   0  0  0  0  0  0  0  0  0  0  0  0
   28.9173  -20.0662   -6.4715 C   0  0  0  0  0  0  0  0  0  0  0  0
   29.3568  -19.4323   -5.3352 C   0  0  0  0  0  0  0  0  0  0  0  0
   28.6792  -19.6172   -4.1467 C   0  0  0  0  0  0  0  0  0  0  0  0
   27.5712  -20.4365   -4.1224 C   0  0  0  0  0  0  0  0  0  0  0  0
   27.1227  -21.0763   -5.2572 C   0  0  0  0  0  0  0  0  0  0  0  0
   26.7767  -19.2595   -8.4716 C   0  0  0  0  0  0  0  0  0  0  0  0
   26.2285  -18.4193   -7.7200 O   0  0  0  0  0  0  0  0  0  0  0  0
   27.7507  -18.7898   -9.3291 O   0  0  0  0  0  0  0  0  0  0  0  0
  1  2  1  0
  2  3  1  0
  3  4  2  0
  5  6  1  0
  5  3  1  0
  6 12  1  0
  6  7  1  6
  8  7  1  0
  8  9  1  0
 10  9  1  0
 11 10  1  0
 12 14  1  0
 12 13  2  0
 14 15  1  0
 15 23  1  0
 15 16  1  6
 17 16  1  0
 17 18  2  0
 19 18  1  0
 20 19  2  0
 21 22  2  0
 21 20  1  0
 22 17  1  0
 23 24  2  0
 23 25  1  0
M  END
$$$$
