GKF.pdb
     RDKit          3D

 25 25  0  0  1  0  0  0  0  0999 V2000
   25.0935  -12.2544  -19.4936 N   0  0  0  0  0  0  0  0  0  0  0  0
   23.9905  -12.4890  -18.5651 C   0  0  0  0  0  0  0  0  0  0  0  0
   23.2582  -11.2275  -18.4014 C   0  0  0  0  0  0  0  0  0  0  0  0
   23.8430  -10.1487  -18.6827 O   0  0  0  0  0  0  0  0  0  0  0  0
   21.9143  -11.1814  -17.9374 N   0  0  0  0  0  0  0  0  0  0  0  0
   21.2585   -9.9196  -17.8356 C   0  0  1  0  0  0  0  0  0  0  0  0
   19.7641  -10.1165  -17.8464 C   0  0  0  0  0  0  0  0  0  0  0  0
   19.0296   -8.7870  -17.9469 C   0  0  0  0  0  0  0  0  0  0  0  0
   17.5372   -9.0255  -18.0147 C   0  0  0  0  0  0  0  0  0  0  0  0
   16.8251   -7.7063  -18.1628 C   0  0  0  0  0  0  0  0  0  0  0  0
   15.4219   -7.9422  -18.4599 N   0  0  0  0  0  0  0  0  0  0  0  0
   21.7278   -9.1890  -16.6446 C   0  0  0  0  0  0  0  0  0  0  0  0
   21.6170   -9.7214  -15.5208 O   0  0  0  0  0  0  0  0  0  0  0  0
   22.2917   -7.9155  -16.7581 N   0  0  0  0  0  0  0  0  0  0  0  0
   22.7880   -7.1354  -15.6310 C   0  0  1  0  0  0  0  0  0  0  0  0
   24.2231   -6.7786  -15.7925 C   0  0  0  0  0  0  0  0  0  0  0  0
   25.0543   -7.9980  -15.8169 C   0  0  0  0  0  0  0  0  0  0  0  0
   25.9296   -8.1225  -16.9021 C   0  0  0  0  0  0  0  0  0  0  0  0
   26.7679   -9.2045  -17.0150 C   0  0  0  0  0  0  0  0  0  0  0  0
   26.7484  -10.1857  -16.0441 C   0  0  0  0  0  0  0  0  0  0  0  0
   25.8858  -10.0609  -14.9765 C   0  0  0  0  0  0  0  0  0  0  0  0
   25.0414   -8.9791  -14.8545 C   0  0  0  0  0  0  0  0  0  0  0  0
   21.9472   -5.9438  -15.5022 C   0  0  0  0  0  0  0  0  0  0  0  0
   22.1411   -5.1480  -14.5532 O   0  0  0  0  0  0  0  0  0  0  0  0
   20.9312   -5.6314  -16.3824 O   0  0  0  0  0  0  0  0  0  0  0  0
  1  2  1  0
  2  3  1  0
  3  4  2  0
  5  6  1  0
  5  3  1  0
  6 12  1  0
  6  7  1  1
  8  7  1  0
  8  9  1  0
 10  9  1  0
 11 10  1  0
 12 14  1  0
 12 13  2  0
 14 15  1  0
 15 23  1  0
 15 16  1  6
 17 16  1  0
 17 18  2  0
 19 18  1  0
 20 19  2  0
 21 22  2  0
 21 20  1  0
 22 17  1  0
 23 24  2  0
 23 25  1  0
M  END
$$$$
