GKF.pdb
     RDKit          3D

 25 25  0  0  1  0  0  0  0  0999 V2000
   30.6317  -20.0058  -13.3217 N   0  0  0  0  0  0  0  0  0  0  0  0
   29.5180  -20.9352  -13.4933 C   0  0  0  0  0  0  0  0  0  0  0  0
   28.3857  -20.4385  -12.7023 C   0  0  0  0  0  0  0  0  0  0  0  0
   28.4669  -19.2942  -12.1837 O   0  0  0  0  0  0  0  0  0  0  0  0
   27.2029  -21.2029  -12.5018 N   0  0  0  0  0  0  0  0  0  0  0  0
   26.1299  -20.6369  -11.7529 C   0  0  1  0  0  0  0  0  0  0  0  0
   24.8148  -20.9697  -12.4101 C   0  0  0  0  0  0  0  0  0  0  0  0
   24.6253  -20.1861  -13.7014 C   0  0  0  0  0  0  0  0  0  0  0  0
   23.2663  -20.4878  -14.2937 C   0  0  0  0  0  0  0  0  0  0  0  0
   23.1279  -19.7802  -15.6163 C   0  0  0  0  0  0  0  0  0  0  0  0
   21.9567  -18.9198  -15.5868 N   0  0  0  0  0  0  0  0  0  0  0  0
   26.1920  -21.0785  -10.3480 C   0  0  0  0  0  0  0  0  0  0  0  0
   26.2935  -22.2972  -10.0968 O   0  0  0  0  0  0  0  0  0  0  0  0
   26.1390  -20.1549   -9.3009 N   0  0  0  0  0  0  0  0  0  0  0  0
   26.1967  -20.5125   -7.8887 C   0  0  1  0  0  0  0  0  0  0  0  0
   26.4992  -19.3356   -7.0305 C   0  0  0  0  0  0  0  0  0  0  0  0
   27.7539  -19.5548   -6.2847 C   0  0  0  0  0  0  0  0  0  0  0  0
   27.6229  -20.1510   -5.0251 C   0  0  0  0  0  0  0  0  0  0  0  0
   28.7254  -20.4243   -4.2530 C   0  0  0  0  0  0  0  0  0  0  0  0
   29.9832  -20.1068   -4.7250 C   0  0  0  0  0  0  0  0  0  0  0  0
   30.1098  -19.5198   -5.9655 C   0  0  0  0  0  0  0  0  0  0  0  0
   29.0098  -19.2420   -6.7472 C   0  0  0  0  0  0  0  0  0  0  0  0
   24.9192  -21.1294   -7.5272 C   0  0  0  0  0  0  0  0  0  0  0  0
   24.8043  -21.7167   -6.4257 O   0  0  0  0  0  0  0  0  0  0  0  0
   23.8048  -21.1028   -8.3407 O   0  0  0  0  0  0  0  0  0  0  0  0
  1  2  1  0
  2  3  1  0
  3  4  2  0
  5  6  1  0
  5  3  1  0
  6 12  1  0
  6  7  1  6
  8  7  1  0
  8  9  1  0
 10  9  1  0
 11 10  1  0
 12 14  1  0
 12 13  2  0
 14 15  1  0
 15 23  1  0
 15 16  1  1
 17 16  1  0
 17 18  2  0
 19 18  1  0
 20 19  2  0
 21 22  2  0
 21 20  1  0
 22 17  1  0
 23 24  2  0
 23 25  1  0
M  END
$$$$
