LVF.pdb
     RDKit          3D

 27 27  0  0  1  0  0  0  0  0999 V2000
    7.9006  -21.5835   21.4326 C   0  0  0  0  0  0  0  0  0  0  0  0
    7.9443  -20.5640   20.2735 C   0  0  1  0  0  0  0  0  0  0  0  0
    6.5158  -20.4196   19.7963 C   0  0  0  0  0  0  0  0  0  0  0  0
    8.5753  -19.2949   20.7528 C   0  0  0  0  0  0  0  0  0  0  0  0
    8.5283  -18.1115   19.8839 C   0  0  2  0  0  0  0  0  0  0  0  0
    9.2308  -18.4578   18.5912 N   0  0  0  0  0  0  0  0  0  0  0  0
    9.0755  -16.8422   20.3264 C   0  0  0  0  0  0  0  0  0  0  0  0
   10.3165  -16.6758   20.3665 O   0  0  0  0  0  0  0  0  0  0  0  0
    7.6968  -13.2948   19.2541 C   0  0  0  0  0  0  0  0  0  0  0  0
    7.9561  -13.3190   20.7239 C   0  0  1  0  0  0  0  0  0  0  0  0
    6.7194  -13.3435   21.5681 C   0  0  0  0  0  0  0  0  0  0  0  0
    8.8503  -14.4622   21.1555 C   0  0  2  0  0  0  0  0  0  0  0  0
    8.3000  -15.7178   20.7376 N   0  0  0  0  0  0  0  0  0  0  0  0
    9.1572  -14.4186   22.6057 C   0  0  0  0  0  0  0  0  0  0  0  0
    9.1436  -13.3255   23.2301 O   0  0  0  0  0  0  0  0  0  0  0  0
    9.4776  -15.5791   23.3613 N   0  0  0  0  0  0  0  0  0  0  0  0
    9.2364  -15.6681   24.8027 C   0  0  1  0  0  0  0  0  0  0  0  0
    7.7830  -15.5140   25.0867 C   0  0  0  0  0  0  0  0  0  0  0  0
    7.4332  -14.2218   25.6588 C   0  0  0  0  0  0  0  0  0  0  0  0
    8.3164  -13.5844   26.5226 C   0  0  0  0  0  0  0  0  0  0  0  0
    8.0376  -12.3523   27.0933 C   0  0  0  0  0  0  0  0  0  0  0  0
    6.8485  -11.7260   26.8040 C   0  0  0  0  0  0  0  0  0  0  0  0
    5.9427  -12.3190   25.9540 C   0  0  0  0  0  0  0  0  0  0  0  0
    6.2587  -13.5440   25.4080 C   0  0  0  0  0  0  0  0  0  0  0  0
    9.7609  -16.9329   25.3108 C   0  0  0  0  0  0  0  0  0  0  0  0
    9.8045  -17.2370   26.5390 O   0  0  0  0  0  0  0  0  0  0  0  0
   10.2479  -17.8763   24.4050 O   0  0  0  0  0  0  0  0  0  0  0  0
  2  3  1  1
  2  1  1  0
  4  2  1  0
  5  7  1  0
  5  4  1  0
  5  6  1  6
  7  8  2  0
  7 13  1  0
 10  9  1  6
 10 12  1  0
 11 10  1  0
 12 14  1  0
 12 13  1  1
 14 15  2  0
 14 16  1  0
 16 17  1  0
 17 25  1  0
 17 18  1  6
 19 18  1  0
 19 20  2  0
 21 20  1  0
 22 21  2  0
 23 24  2  0
 23 22  1  0
 24 19  1  0
 25 27  1  0
 26 25  2  0
M  END
$$$$
