LVF.pdb
     RDKit          3D

 27 27  0  0  1  0  0  0  0  0999 V2000
    7.0567  -21.5203   21.2885 C   0  0  0  0  0  0  0  0  0  0  0  0
    7.5522  -20.5967   20.1543 C   0  0  1  0  0  0  0  0  0  0  0  0
    6.3619  -20.3835   19.2451 C   0  0  0  0  0  0  0  0  0  0  0  0
    8.1199  -19.3453   20.7461 C   0  0  0  0  0  0  0  0  0  0  0  0
    8.4407  -18.2246   19.8523 C   0  0  2  0  0  0  0  0  0  0  0  0
    9.4474  -18.7151   18.8372 N   0  0  0  0  0  0  0  0  0  0  0  0
    8.9594  -16.9767   20.3816 C   0  0  0  0  0  0  0  0  0  0  0  0
   10.1752  -16.8751   20.6661 O   0  0  0  0  0  0  0  0  0  0  0  0
    7.6038  -13.3180   19.2669 C   0  0  0  0  0  0  0  0  0  0  0  0
    7.8258  -13.4105   20.7401 C   0  0  1  0  0  0  0  0  0  0  0  0
    6.5681  -13.4674   21.5511 C   0  0  0  0  0  0  0  0  0  0  0  0
    8.7045  -14.5767   21.1414 C   0  0  2  0  0  0  0  0  0  0  0  0
    8.1819  -15.8045   20.6185 N   0  0  0  0  0  0  0  0  0  0  0  0
    8.9408  -14.6245   22.6046 C   0  0  0  0  0  0  0  0  0  0  0  0
    9.3969  -13.6208   23.2122 O   0  0  0  0  0  0  0  0  0  0  0  0
    8.6737  -15.7777   23.3915 N   0  0  0  0  0  0  0  0  0  0  0  0
    8.6758  -15.7462   24.8553 C   0  0  1  0  0  0  0  0  0  0  0  0
    7.3523  -15.2839   25.3570 C   0  0  0  0  0  0  0  0  0  0  0  0
    7.3837  -13.9539   25.9480 C   0  0  0  0  0  0  0  0  0  0  0  0
    8.6012  -13.3734   26.2842 C   0  0  0  0  0  0  0  0  0  0  0  0
    8.6911  -12.1091   26.8457 C   0  0  0  0  0  0  0  0  0  0  0  0
    7.5430  -11.3917   27.0846 C   0  0  0  0  0  0  0  0  0  0  0  0
    6.3146  -11.9258   26.7683 C   0  0  0  0  0  0  0  0  0  0  0  0
    6.2694  -13.1854   26.2117 C   0  0  0  0  0  0  0  0  0  0  0  0
    9.0256  -17.0659   25.3739 C   0  0  0  0  0  0  0  0  0  0  0  0
    9.1644  -18.0953   24.6501 O   0  0  0  0  0  0  0  0  0  0  0  0
    9.2231  -17.2230   26.7465 O   0  0  0  0  0  0  0  0  0  0  0  0
  2  3  1  6
  2  1  1  0
  4  2  1  0
  5  7  1  0
  5  4  1  0
  5  6  1  6
  7  8  2  0
  7 13  1  0
 10  9  1  6
 10 12  1  0
 11 10  1  0
 12 14  1  0
 12 13  1  1
 14 15  2  0
 14 16  1  0
 16 17  1  0
 17 25  1  0
 17 18  1  1
 19 18  1  0
 19 20  2  0
 21 20  1  0
 22 21  2  0
 23 24  2  0
 23 22  1  0
 24 19  1  0
 25 27  1  0
 26 25  2  0
M  END
$$$$
