LVF.pdb
     RDKit          3D

 27 27  0  0  1  0  0  0  0  0999 V2000
   13.5040  -18.9620   18.0280 C   0  0  0  0  0  0  0  0  0  0  0  0
   11.9881  -19.2474   17.9544 C   0  0  1  0  0  0  0  0  0  0  0  0
   11.8220  -20.7003   18.3424 C   0  0  0  0  0  0  0  0  0  0  0  0
   11.2580  -18.2784   18.8298 C   0  0  0  0  0  0  0  0  0  0  0  0
    9.8213  -18.4798   19.0604 C   0  0  2  0  0  0  0  0  0  0  0  0
    9.0917  -18.1094   17.7896 N   0  0  0  0  0  0  0  0  0  0  0  0
    9.1395  -17.7969   20.1444 C   0  0  0  0  0  0  0  0  0  0  0  0
    8.9056  -16.5690   20.0614 O   0  0  0  0  0  0  0  0  0  0  0  0
    7.2707  -19.9482   23.3264 C   0  0  0  0  0  0  0  0  0  0  0  0
    6.8753  -18.5600   22.9459 C   0  0  1  0  0  0  0  0  0  0  0  0
    6.2046  -17.7879   24.0400 C   0  0  0  0  0  0  0  0  0  0  0  0
    8.0279  -17.7327   22.4166 C   0  0  2  0  0  0  0  0  0  0  0  0
    8.6912  -18.4188   21.3474 N   0  0  0  0  0  0  0  0  0  0  0  0
    8.9540  -17.3060   23.4933 C   0  0  0  0  0  0  0  0  0  0  0  0
    9.8804  -18.0661   23.8791 O   0  0  0  0  0  0  0  0  0  0  0  0
    8.8553  -16.0441   24.1400 N   0  0  0  0  0  0  0  0  0  0  0  0
    9.8024  -15.6146   25.1708 C   0  0  1  0  0  0  0  0  0  0  0  0
    9.8503  -14.1277   25.2312 C   0  0  0  0  0  0  0  0  0  0  0  0
    8.5913  -13.5185   25.6350 C   0  0  0  0  0  0  0  0  0  0  0  0
    7.5625  -13.3760   24.7110 C   0  0  0  0  0  0  0  0  0  0  0  0
    6.3420  -12.8073   25.0406 C   0  0  0  0  0  0  0  0  0  0  0  0
    6.1268  -12.3633   26.3237 C   0  0  0  0  0  0  0  0  0  0  0  0
    7.1165  -12.4833   27.2728 C   0  0  0  0  0  0  0  0  0  0  0  0
    8.3149  -13.0545   26.9038 C   0  0  0  0  0  0  0  0  0  0  0  0
    9.4293  -16.2015   26.4550 C   0  0  0  0  0  0  0  0  0  0  0  0
   10.1546  -16.1524   27.4915 O   0  0  0  0  0  0  0  0  0  0  0  0
    8.2040  -16.8602   26.5676 O   0  0  0  0  0  0  0  0  0  0  0  0
  2  3  1  1
  2  1  1  0
  4  2  1  0
  5  7  1  0
  5  4  1  0
  5  6  1  6
  7  8  2  0
  7 13  1  0
 10  9  1  1
 10 12  1  0
 11 10  1  0
 12 14  1  0
 12 13  1  6
 14 15  2  0
 14 16  1  0
 16 17  1  0
 17 25  1  0
 17 18  1  1
 19 18  1  0
 19 20  2  0
 21 20  1  0
 22 21  2  0
 23 24  2  0
 23 22  1  0
 24 19  1  0
 25 27  1  0
 26 25  2  0
M  END
$$$$
