LVF.pdb
     RDKit          3D

 27 27  0  0  1  0  0  0  0  0999 V2000
    7.2992  -11.8373   20.0517 C   0  0  0  0  0  0  0  0  0  0  0  0
    7.7790  -13.2516   19.6590 C   0  0  1  0  0  0  0  0  0  0  0  0
    8.9908  -13.0467   18.7766 C   0  0  0  0  0  0  0  0  0  0  0  0
    8.0349  -14.0503   20.8980 C   0  0  0  0  0  0  0  0  0  0  0  0
    8.4989  -15.4372   20.7602 C   0  0  2  0  0  0  0  0  0  0  0  0
    7.4214  -16.2171   20.0423 N   0  0  0  0  0  0  0  0  0  0  0  0
    8.8677  -16.2171   21.9274 C   0  0  0  0  0  0  0  0  0  0  0  0
    7.9934  -16.8630   22.5500 O   0  0  0  0  0  0  0  0  0  0  0  0
   12.2509  -18.7375   24.4738 C   0  0  0  0  0  0  0  0  0  0  0  0
   11.8290  -17.8769   23.3294 C   0  0  1  0  0  0  0  0  0  0  0  0
   11.6847  -18.6064   22.0295 C   0  0  0  0  0  0  0  0  0  0  0  0
   10.5468  -17.1157   23.5933 C   0  0  2  0  0  0  0  0  0  0  0  0
   10.1888  -16.3219   22.4551 N   0  0  0  0  0  0  0  0  0  0  0  0
   10.6080  -16.3312   24.8503 C   0  0  0  0  0  0  0  0  0  0  0  0
   11.3497  -15.3176   24.9365 O   0  0  0  0  0  0  0  0  0  0  0  0
    9.8519  -16.6667   26.0062 N   0  0  0  0  0  0  0  0  0  0  0  0
   10.0125  -15.9630   27.2801 C   0  0  1  0  0  0  0  0  0  0  0  0
    8.6789  -15.5957   27.8311 C   0  0  0  0  0  0  0  0  0  0  0  0
    8.0049  -14.5469   27.0795 C   0  0  0  0  0  0  0  0  0  0  0  0
    6.9302  -14.8649   26.2570 C   0  0  0  0  0  0  0  0  0  0  0  0
    6.2490  -13.9072   25.5218 C   0  0  0  0  0  0  0  0  0  0  0  0
    6.6391  -12.5912   25.5988 C   0  0  0  0  0  0  0  0  0  0  0  0
    7.6980  -12.2288   26.4000 C   0  0  0  0  0  0  0  0  0  0  0  0
    8.3479  -13.2116   27.1143 C   0  0  0  0  0  0  0  0  0  0  0  0
   10.7761  -16.7941   28.2069 C   0  0  0  0  0  0  0  0  0  0  0  0
   11.0036  -18.0265   28.0274 O   0  0  0  0  0  0  0  0  0  0  0  0
   11.2947  -16.2145   29.3657 O   0  0  0  0  0  0  0  0  0  0  0  0
  2  3  1  1
  2  1  1  0
  4  2  1  0
  5  7  1  0
  5  4  1  0
  5  6  1  1
  7  8  2  0
  7 13  1  0
 10  9  1  1
 10 12  1  0
 11 10  1  0
 12 14  1  0
 12 13  1  6
 14 15  2  0
 14 16  1  0
 16 17  1  0
 17 25  1  0
 17 18  1  1
 19 18  1  0
 19 20  2  0
 21 20  1  0
 22 21  2  0
 23 24  2  0
 23 22  1  0
 24 19  1  0
 25 27  1  0
 26 25  2  0
M  END
$$$$
