LVF.pdb
     RDKit          3D

 27 27  0  0  1  0  0  0  0  0999 V2000
    7.2435  -12.5246   18.1916 C   0  0  0  0  0  0  0  0  0  0  0  0
    8.1815  -13.4408   19.0075 C   0  0  1  0  0  0  0  0  0  0  0  0
    9.3899  -12.5966   19.3483 C   0  0  0  0  0  0  0  0  0  0  0  0
    7.4415  -13.9808   20.1904 C   0  0  0  0  0  0  0  0  0  0  0  0
    8.1668  -14.8199   21.1535 C   0  0  2  0  0  0  0  0  0  0  0  0
    8.8600  -15.9186   20.3809 N   0  0  0  0  0  0  0  0  0  0  0  0
    7.4699  -15.4619   22.2528 C   0  0  0  0  0  0  0  0  0  0  0  0
    6.5352  -14.8646   22.8350 O   0  0  0  0  0  0  0  0  0  0  0  0
    6.4578  -19.7028   24.6792 C   0  0  0  0  0  0  0  0  0  0  0  0
    6.8967  -18.9035   23.4974 C   0  0  1  0  0  0  0  0  0  0  0  0
    6.0395  -19.0783   22.2818 C   0  0  0  0  0  0  0  0  0  0  0  0
    7.0158  -17.4220   23.7872 C   0  0  2  0  0  0  0  0  0  0  0  0
    7.7614  -16.7649   22.7545 N   0  0  0  0  0  0  0  0  0  0  0  0
    7.5495  -17.1564   25.1450 C   0  0  0  0  0  0  0  0  0  0  0  0
    6.9562  -17.5984   26.1635 O   0  0  0  0  0  0  0  0  0  0  0  0
    8.7342  -16.4053   25.3745 N   0  0  0  0  0  0  0  0  0  0  0  0
    9.2368  -16.1249   26.7208 C   0  0  1  0  0  0  0  0  0  0  0  0
    8.1463  -15.5644   27.5655 C   0  0  0  0  0  0  0  0  0  0  0  0
    7.6303  -14.2911   27.0841 C   0  0  0  0  0  0  0  0  0  0  0  0
    6.2653  -14.1308   26.8753 C   0  0  0  0  0  0  0  0  0  0  0  0
    5.7182  -12.9405   26.4221 C   0  0  0  0  0  0  0  0  0  0  0  0
    6.5431  -11.8711   26.1654 C   0  0  0  0  0  0  0  0  0  0  0  0
    7.9014  -11.9830   26.3574 C   0  0  0  0  0  0  0  0  0  0  0  0
    8.4045  -13.1836   26.8091 C   0  0  0  0  0  0  0  0  0  0  0  0
    9.8026  -17.3420   27.2966 C   0  0  0  0  0  0  0  0  0  0  0  0
    9.7603  -18.4755   26.7342 O   0  0  0  0  0  0  0  0  0  0  0  0
   10.4320  -17.2731   28.5404 O   0  0  0  0  0  0  0  0  0  0  0  0
  2  3  1  1
  2  1  1  0
  4  2  1  0
  5  7  1  0
  5  4  1  0
  5  6  1  6
  7  8  2  0
  7 13  1  0
 10  9  1  1
 10 12  1  0
 11 10  1  0
 12 14  1  0
 12 13  1  6
 14 15  2  0
 14 16  1  0
 16 17  1  0
 17 25  1  0
 17 18  1  1
 19 18  1  0
 19 20  2  0
 21 20  1  0
 22 21  2  0
 23 24  2  0
 23 22  1  0
 24 19  1  0
 25 27  1  0
 26 25  2  0
M  END
$$$$
