LVF.pdb
     RDKit          3D

 27 27  0  0  1  0  0  0  0  0999 V2000
    7.5361  -11.7909   20.0289 C   0  0  0  0  0  0  0  0  0  0  0  0
    8.3505  -13.0479   19.6527 C   0  0  1  0  0  0  0  0  0  0  0  0
    9.7178  -12.8549   20.2709 C   0  0  0  0  0  0  0  0  0  0  0  0
    7.6206  -14.2688   20.1165 C   0  0  0  0  0  0  0  0  0  0  0  0
    8.3886  -15.4935   20.3774 C   0  0  2  0  0  0  0  0  0  0  0  0
    7.8827  -16.5661   19.4403 N   0  0  0  0  0  0  0  0  0  0  0  0
    8.4207  -16.0825   21.7035 C   0  0  0  0  0  0  0  0  0  0  0  0
    7.3586  -16.4746   22.2398 O   0  0  0  0  0  0  0  0  0  0  0  0
    9.8867  -19.2409   22.5692 C   0  0  0  0  0  0  0  0  0  0  0  0
   10.4853  -18.2658   23.5279 C   0  0  1  0  0  0  0  0  0  0  0  0
   11.8866  -17.8550   23.1954 C   0  0  0  0  0  0  0  0  0  0  0  0
    9.6521  -17.0143   23.7080 C   0  0  2  0  0  0  0  0  0  0  0  0
    9.5983  -16.2649   22.4875 N   0  0  0  0  0  0  0  0  0  0  0  0
   10.0995  -16.2034   24.8661 C   0  0  0  0  0  0  0  0  0  0  0  0
   10.9301  -15.2701   24.7111 O   0  0  0  0  0  0  0  0  0  0  0  0
    9.6301  -16.4242   26.1894 N   0  0  0  0  0  0  0  0  0  0  0  0
   10.0664  -15.6070   27.3232 C   0  0  1  0  0  0  0  0  0  0  0  0
    8.8833  -15.1067   28.0761 C   0  0  0  0  0  0  0  0  0  0  0  0
    8.0368  -14.2083   27.3044 C   0  0  0  0  0  0  0  0  0  0  0  0
    8.3908  -12.8712   27.1653 C   0  0  0  0  0  0  0  0  0  0  0  0
    7.6252  -11.9721   26.4393 C   0  0  0  0  0  0  0  0  0  0  0  0
    6.4714  -12.4039   25.8293 C   0  0  0  0  0  0  0  0  0  0  0  0
    6.0806  -13.7190   25.9395 C   0  0  0  0  0  0  0  0  0  0  0  0
    6.8700  -14.5800   26.6702 C   0  0  0  0  0  0  0  0  0  0  0  0
   10.9646  -16.3851   28.1720 C   0  0  0  0  0  0  0  0  0  0  0  0
   11.6112  -15.9011   29.1469 O   0  0  0  0  0  0  0  0  0  0  0  0
   11.1344  -17.7453   27.9098 O   0  0  0  0  0  0  0  0  0  0  0  0
  2  3  1  1
  2  1  1  0
  4  2  1  0
  5  7  1  0
  5  4  1  0
  5  6  1  6
  7  8  2  0
  7 13  1  0
 10  9  1  6
 10 12  1  0
 11 10  1  0
 12 14  1  0
 12 13  1  6
 14 15  2  0
 14 16  1  0
 16 17  1  0
 17 25  1  0
 17 18  1  1
 19 18  1  0
 19 20  2  0
 21 20  1  0
 22 21  2  0
 23 24  2  0
 23 22  1  0
 24 19  1  0
 25 27  1  0
 26 25  2  0
M  END
$$$$
