LVF.pdb
     RDKit          3D

 27 27  0  0  1  0  0  0  0  0999 V2000
    5.8836  -12.7280   25.9634 C   0  0  0  0  0  0  0  0  0  0  0  0
    6.9878  -13.6385   26.5436 C   0  0  1  0  0  0  0  0  0  0  0  0
    7.4291  -12.9822   27.8333 C   0  0  0  0  0  0  0  0  0  0  0  0
    6.4542  -15.0277   26.6988 C   0  0  0  0  0  0  0  0  0  0  0  0
    6.1656  -15.8118   25.4907 C   0  0  2  0  0  0  0  0  0  0  0  0
    5.5860  -17.1380   25.9265 N   0  0  0  0  0  0  0  0  0  0  0  0
    7.2125  -16.1117   24.5314 C   0  0  0  0  0  0  0  0  0  0  0  0
    7.8455  -17.1897   24.6127 O   0  0  0  0  0  0  0  0  0  0  0  0
    9.2665  -15.0503   20.1219 C   0  0  0  0  0  0  0  0  0  0  0  0
    8.6281  -14.5546   21.3769 C   0  0  1  0  0  0  0  0  0  0  0  0
    7.2383  -14.0271   21.1951 C   0  0  0  0  0  0  0  0  0  0  0  0
    8.6049  -15.5865   22.4849 C   0  0  2  0  0  0  0  0  0  0  0  0
    7.6057  -15.2579   23.4584 N   0  0  0  0  0  0  0  0  0  0  0  0
    9.9457  -15.8007   23.0810 C   0  0  0  0  0  0  0  0  0  0  0  0
   10.9750  -15.3364   22.5246 O   0  0  0  0  0  0  0  0  0  0  0  0
   10.1464  -16.5254   24.2873 N   0  0  0  0  0  0  0  0  0  0  0  0
   11.4739  -16.7217   24.8729 C   0  0  1  0  0  0  0  0  0  0  0  0
   11.9680  -15.4436   25.4554 C   0  0  0  0  0  0  0  0  0  0  0  0
   11.1344  -14.9321   26.5337 C   0  0  0  0  0  0  0  0  0  0  0  0
   11.2463  -15.4695   27.8109 C   0  0  0  0  0  0  0  0  0  0  0  0
   10.4814  -15.0192   28.8756 C   0  0  0  0  0  0  0  0  0  0  0  0
    9.5749  -14.0050   28.6764 C   0  0  0  0  0  0  0  0  0  0  0  0
    9.4291  -13.4422   27.4288 C   0  0  0  0  0  0  0  0  0  0  0  0
   10.2088  -13.9189   26.3976 C   0  0  0  0  0  0  0  0  0  0  0  0
   11.4183  -17.7896   25.8676 C   0  0  0  0  0  0  0  0  0  0  0  0
   10.3519  -18.3771   26.2145 O   0  0  0  0  0  0  0  0  0  0  0  0
   12.6004  -18.2020   26.4844 O   0  0  0  0  0  0  0  0  0  0  0  0
  2  3  1  1
  2  1  1  0
  4  2  1  0
  5  7  1  0
  5  4  1  0
  5  6  1  1
  7  8  2  0
  7 13  1  0
 10  9  1  6
 10 12  1  0
 11 10  1  0
 12 14  1  0
 12 13  1  1
 14 15  2  0
 14 16  1  0
 16 17  1  0
 17 25  1  0
 17 18  1  1
 19 18  1  0
 19 20  2  0
 21 20  1  0
 22 21  2  0
 23 24  2  0
 23 22  1  0
 24 19  1  0
 25 27  1  0
 26 25  2  0
M  END
$$$$
