IRV.pdb
     RDKit          3D

 27 26  0  0  1  0  0  0  0  0999 V2000
   33.8373  -21.6022   -9.6410 C   0  0  0  0  0  0  0  0  0  0  0  0
   32.8202  -22.3779  -10.3884 C   0  0  0  0  0  0  0  0  0  0  0  0
   31.5092  -21.6751  -10.5598 C   0  0  2  0  0  0  0  0  0  0  0  0
   30.9706  -21.3093   -9.2001 C   0  0  0  0  0  0  0  0  0  0  0  0
   30.4570  -22.4935  -11.2791 C   0  0  2  0  0  0  0  0  0  0  0  0
   30.9677  -22.9492  -12.5657 N   0  0  0  0  0  0  0  0  0  0  0  0
   29.2976  -21.5623  -11.4850 C   0  0  0  0  0  0  0  0  0  0  0  0
   28.6216  -21.1114  -10.4929 O   0  0  0  0  0  0  0  0  0  0  0  0
   26.0523  -18.6885  -19.2714 N   0  0  0  0  0  0  0  0  0  0  0  0
   25.1089  -18.1948  -18.2840 C   0  0  0  0  0  0  0  0  0  0  0  0
   24.1115  -17.5159  -18.6101 N   0  0  0  0  0  0  0  0  0  0  0  0
   25.3231  -18.4911  -16.9140 N   0  0  0  0  0  0  0  0  0  0  0  0
   26.5436  -19.2302  -16.5633 C   0  0  0  0  0  0  0  0  0  0  0  0
   26.5040  -19.4333  -15.0469 C   0  0  0  0  0  0  0  0  0  0  0  0
   27.7341  -20.1825  -14.6249 C   0  0  0  0  0  0  0  0  0  0  0  0
   27.6837  -20.4627  -13.1080 C   0  0  2  0  0  0  0  0  0  0  0  0
   28.8871  -21.1325  -12.7617 N   0  0  0  0  0  0  0  0  0  0  0  0
   26.4106  -21.0850  -12.7538 C   0  0  0  0  0  0  0  0  0  0  0  0
   25.9982  -22.1423  -13.2464 O   0  0  0  0  0  0  0  0  0  0  0  0
   23.3618  -17.0942  -18.0840 C   0  0  0  0  0  0  0  0  0  0  0  0
   25.4555  -21.3719   -9.0476 C   0  0  2  0  0  0  0  0  0  0  0  0
   24.2447  -20.8120   -9.7461 C   0  0  0  0  0  0  0  0  0  0  0  0
   24.1096  -19.3553   -9.4259 C   0  0  2  0  0  0  0  0  0  0  0  0
   24.3522  -21.0331  -11.2654 N   0  0  0  0  0  0  0  0  0  0  0  0
   25.5800  -20.4426  -11.7658 C   0  0  0  0  0  0  0  0  0  0  0  0
   23.1694  -20.5578  -11.9607 O   0  0  0  0  0  0  0  0  0  0  0  0
   21.8821  -21.0578  -11.9254 O   0  0  0  0  0  0  0  0  0  0  0  0
  2  1  1  0
  3  4  1  1
  3  2  1  0
  5  3  1  0
  5  6  1  6
  7  8  2  0
  7  5  1  0
  9 10  1  0
 10 12  1  0
 11 10  2  0
 12 13  1  0
 13 14  1  0
 14 15  1  0
 16 15  1  6
 16 17  1  0
 17  7  1  0
 18 16  1  0
 19 18  2  0
 21 20  1  1
 21 23  1  0
 21 22  1  0
 23 24  1  6
 24 18  1  0
 25 26  1  0
 25 23  1  0
 27 25  2  0
M  END
$$$$
