IRV.pdb
     RDKit          3D

 27 26  0  0  1  0  0  0  0  0999 V2000
   27.7315  -19.6421   -5.0805 C   0  0  0  0  0  0  0  0  0  0  0  0
   27.2598  -20.7926   -5.8858 C   0  0  0  0  0  0  0  0  0  0  0  0
   27.2172  -20.5390   -7.3610 C   0  0  2  0  0  0  0  0  0  0  0  0
   28.1052  -19.3632   -7.6794 C   0  0  0  0  0  0  0  0  0  0  0  0
   25.8324  -20.2434   -7.8989 C   0  0  2  0  0  0  0  0  0  0  0  0
   24.9143  -21.3166   -7.5400 N   0  0  0  0  0  0  0  0  0  0  0  0
   25.9888  -20.1758   -9.3905 C   0  0  0  0  0  0  0  0  0  0  0  0
   26.6984  -19.2625   -9.9447 O   0  0  0  0  0  0  0  0  0  0  0  0
   23.2254  -25.2193  -15.4889 N   0  0  0  0  0  0  0  0  0  0  0  0
   24.0652  -24.2664  -16.1928 C   0  0  0  0  0  0  0  0  0  0  0  0
   23.7071  -23.7462  -17.2713 N   0  0  0  0  0  0  0  0  0  0  0  0
   25.3240  -23.9154  -15.6426 N   0  0  0  0  0  0  0  0  0  0  0  0
   25.4602  -23.9584  -14.1803 C   0  0  0  0  0  0  0  0  0  0  0  0
   25.3243  -22.5143  -13.6918 C   0  0  0  0  0  0  0  0  0  0  0  0
   25.4578  -22.4925  -12.1972 C   0  0  0  0  0  0  0  0  0  0  0  0
   25.3128  -21.0462  -11.6781 C   0  0  2  0  0  0  0  0  0  0  0  0
   25.3752  -21.0978  -10.2603 N   0  0  0  0  0  0  0  0  0  0  0  0
   24.1619  -20.4005  -12.3042 C   0  0  0  0  0  0  0  0  0  0  0  0
   22.9874  -20.6244  -11.9868 O   0  0  0  0  0  0  0  0  0  0  0  0
   24.1299  -23.0649  -17.8827 C   0  0  0  0  0  0  0  0  0  0  0  0
   25.4210  -17.4853  -14.6524 C   0  0  2  0  0  0  0  0  0  0  0  0
   23.9217  -17.5121  -14.7894 C   0  0  0  0  0  0  0  0  0  0  0  0
   23.5520  -17.6344  -16.2354 C   0  0  2  0  0  0  0  0  0  0  0  0
   23.3292  -18.6729  -13.9707 N   0  0  0  0  0  0  0  0  0  0  0  0
   24.3964  -19.4360  -13.3499 C   0  0  0  0  0  0  0  0  0  0  0  0
   22.4371  -19.4923  -14.7713 O   0  0  0  0  0  0  0  0  0  0  0  0
   21.0695  -19.3838  -14.9329 O   0  0  0  0  0  0  0  0  0  0  0  0
  2  1  1  0
  3  4  1  1
  3  2  1  0
  5  3  1  0
  5  6  1  6
  7  8  2  0
  7  5  1  0
  9 10  1  0
 10 12  1  0
 11 10  2  0
 12 13  1  0
 13 14  1  0
 14 15  1  0
 16 15  1  6
 16 17  1  0
 17  7  1  0
 18 16  1  0
 19 18  2  0
 21 20  1  6
 21 23  1  0
 21 22  1  0
 23 24  1  1
 24 18  1  0
 25 26  1  0
 25 23  1  0
 27 25  2  0
M  END
$$$$
