IRV.pdb
     RDKit          3D

 27 26  0  0  1  0  0  0  0  0999 V2000
   28.6270  -20.1903   -3.6019 C   0  0  0  0  0  0  0  0  0  0  0  0
   28.2304  -19.3505   -4.7561 C   0  0  0  0  0  0  0  0  0  0  0  0
   27.9417  -20.1177   -6.0091 C   0  0  2  0  0  0  0  0  0  0  0  0
   29.1484  -20.9503   -6.3600 C   0  0  0  0  0  0  0  0  0  0  0  0
   27.6046  -19.2492   -7.2034 C   0  0  2  0  0  0  0  0  0  0  0  0
   26.5263  -18.3284   -6.8668 N   0  0  0  0  0  0  0  0  0  0  0  0
   27.1554  -20.1996   -8.2752 C   0  0  0  0  0  0  0  0  0  0  0  0
   27.9531  -21.0768   -8.7641 O   0  0  0  0  0  0  0  0  0  0  0  0
   21.0000  -19.9822  -14.2115 N   0  0  0  0  0  0  0  0  0  0  0  0
   20.8598  -21.3231  -13.6719 C   0  0  0  0  0  0  0  0  0  0  0  0
   20.3474  -22.2488  -14.3371 N   0  0  0  0  0  0  0  0  0  0  0  0
   21.3169  -21.5906  -12.3566 N   0  0  0  0  0  0  0  0  0  0  0  0
   21.8985  -20.4727  -11.6008 C   0  0  0  0  0  0  0  0  0  0  0  0
   23.4065  -20.7280  -11.5454 C   0  0  0  0  0  0  0  0  0  0  0  0
   23.9002  -20.4236  -10.1612 C   0  0  0  0  0  0  0  0  0  0  0  0
   25.4391  -20.5330  -10.1166 C   0  0  2  0  0  0  0  0  0  0  0  0
   25.8494  -20.1871   -8.8017 N   0  0  0  0  0  0  0  0  0  0  0  0
   26.0269  -19.8144  -11.2441 C   0  0  0  0  0  0  0  0  0  0  0  0
   26.0050  -18.5833  -11.3654 O   0  0  0  0  0  0  0  0  0  0  0  0
   20.1721  -23.2227  -14.1432 C   0  0  0  0  0  0  0  0  0  0  0  0
   29.5615  -20.1007  -12.4331 C   0  0  2  0  0  0  0  0  0  0  0  0
   28.7231  -20.4643  -13.6299 C   0  0  0  0  0  0  0  0  0  0  0  0
   28.7462  -21.9487  -13.8266 C   0  0  2  0  0  0  0  0  0  0  0  0
   27.2816  -19.9563  -13.4489 N   0  0  0  0  0  0  0  0  0  0  0  0
   26.6825  -20.5736  -12.2798 C   0  0  0  0  0  0  0  0  0  0  0  0
   26.4936  -20.1404  -14.6545 O   0  0  0  0  0  0  0  0  0  0  0  0
   26.5458  -19.4360  -15.8416 O   0  0  0  0  0  0  0  0  0  0  0  0
  2  1  1  0
  3  4  1  6
  3  2  1  0
  5  3  1  0
  5  6  1  1
  7  8  2  0
  7  5  1  0
  9 10  1  0
 10 12  1  0
 11 10  2  0
 12 13  1  0
 13 14  1  0
 14 15  1  0
 16 15  1  1
 16 17  1  0
 17  7  1  0
 18 16  1  0
 19 18  2  0
 21 20  1  6
 21 23  1  0
 21 22  1  0
 23 24  1  6
 24 18  1  0
 25 26  1  0
 25 23  1  0
 27 25  2  0
M  END
$$$$
