IRV.pdb
     RDKit          3D

 27 26  0  0  1  0  0  0  0  0999 V2000
   27.6478  -19.3418   -5.9755 C   0  0  0  0  0  0  0  0  0  0  0  0
   26.2777  -19.8204   -6.2731 C   0  0  0  0  0  0  0  0  0  0  0  0
   26.0419  -20.1660   -7.7108 C   0  0  2  0  0  0  0  0  0  0  0  0
   26.3647  -18.9634   -8.5606 C   0  0  0  0  0  0  0  0  0  0  0  0
   24.6224  -20.5946   -8.0200 C   0  0  2  0  0  0  0  0  0  0  0  0
   24.2520  -21.7381   -7.1960 N   0  0  0  0  0  0  0  0  0  0  0  0
   24.6291  -20.9843   -9.4698 C   0  0  0  0  0  0  0  0  0  0  0  0
   25.4944  -21.8095   -9.9334 O   0  0  0  0  0  0  0  0  0  0  0  0
   21.5280  -20.5505  -16.7983 N   0  0  0  0  0  0  0  0  0  0  0  0
   21.0622  -19.3089  -16.2065 C   0  0  0  0  0  0  0  0  0  0  0  0
   21.0436  -18.2393  -16.8526 N   0  0  0  0  0  0  0  0  0  0  0  0
   20.6153  -19.3092  -14.8608 N   0  0  0  0  0  0  0  0  0  0  0  0
   20.6205  -20.5926  -14.1453 C   0  0  0  0  0  0  0  0  0  0  0  0
   22.0668  -20.8372  -13.7087 C   0  0  0  0  0  0  0  0  0  0  0  0
   22.2067  -20.4662  -12.2613 C   0  0  0  0  0  0  0  0  0  0  0  0
   23.6620  -20.6924  -11.7995 C   0  0  2  0  0  0  0  0  0  0  0  0
   23.6988  -20.4754  -10.3965 N   0  0  0  0  0  0  0  0  0  0  0  0
   24.5814  -19.9384  -12.6478 C   0  0  0  0  0  0  0  0  0  0  0  0
   24.8011  -18.7274  -12.5222 O   0  0  0  0  0  0  0  0  0  0  0  0
   20.7073  -17.3122  -16.6429 C   0  0  0  0  0  0  0  0  0  0  0  0
   27.5495  -22.2031  -14.7032 C   0  0  2  0  0  0  0  0  0  0  0  0
   27.6695  -20.7732  -14.2466 C   0  0  0  0  0  0  0  0  0  0  0  0
   28.7938  -20.1059  -14.9769 C   0  0  1  0  0  0  0  0  0  0  0  0
   26.3445  -20.0244  -14.4752 N   0  0  0  0  0  0  0  0  0  0  0  0
   25.2878  -20.6381  -13.6920 C   0  0  0  0  0  0  0  0  0  0  0  0
   26.0210  -19.9274  -15.8874 O   0  0  0  0  0  0  0  0  0  0  0  0
   26.5369  -19.0694  -16.8392 O   0  0  0  0  0  0  0  0  0  0  0  0
  2  1  1  0
  3  4  1  6
  3  2  1  0
  5  3  1  0
  5  6  1  1
  7  8  2  0
  7  5  1  0
  9 10  1  0
 10 12  1  0
 11 10  2  0
 12 13  1  0
 13 14  1  0
 14 15  1  0
 16 15  1  6
 16 17  1  0
 17  7  1  0
 18 16  1  0
 19 18  2  0
 21 20  1  1
 21 23  1  0
 21 22  1  0
 23 24  1  1
 24 18  1  0
 25 26  1  0
 25 23  1  0
 27 25  2  0
M  END
$$$$
