IRV.pdb
     RDKit          3D

 27 26  0  0  1  0  0  0  0  0999 V2000
   26.3334  -19.6625   -8.1576 C   0  0  0  0  0  0  0  0  0  0  0  0
   26.7799  -20.5544   -9.2531 C   0  0  0  0  0  0  0  0  0  0  0  0
   25.8769  -20.5670  -10.4474 C   0  0  2  0  0  0  0  0  0  0  0  0
   24.5116  -21.0436  -10.0214 C   0  0  0  0  0  0  0  0  0  0  0  0
   26.3555  -21.4560  -11.5765 C   0  0  2  0  0  0  0  0  0  0  0  0
   27.6763  -21.0328  -12.0239 N   0  0  0  0  0  0  0  0  0  0  0  0
   25.3544  -21.2744  -12.6805 C   0  0  0  0  0  0  0  0  0  0  0  0
   25.0870  -20.1122  -13.1522 O   0  0  0  0  0  0  0  0  0  0  0  0
   23.4339  -27.5423  -15.4318 N   0  0  0  0  0  0  0  0  0  0  0  0
   22.2195  -27.0815  -14.7825 C   0  0  0  0  0  0  0  0  0  0  0  0
   21.6869  -27.7247  -13.8527 N   0  0  0  0  0  0  0  0  0  0  0  0
   21.6222  -25.8698  -15.2130 N   0  0  0  0  0  0  0  0  0  0  0  0
   22.2295  -25.1859  -16.3630 C   0  0  0  0  0  0  0  0  0  0  0  0
   22.4795  -23.7415  -15.9231 C   0  0  0  0  0  0  0  0  0  0  0  0
   23.4392  -23.7444  -14.7692 C   0  0  0  0  0  0  0  0  0  0  0  0
   23.6543  -22.3028  -14.2615 C   0  0  2  0  0  0  0  0  0  0  0  0
   24.6577  -22.3535  -13.2579 N   0  0  0  0  0  0  0  0  0  0  0  0
   22.3701  -21.6878  -13.9357 C   0  0  0  0  0  0  0  0  0  0  0  0
   21.7497  -21.8994  -12.8865 O   0  0  0  0  0  0  0  0  0  0  0  0
   20.8173  -27.6226  -13.3526 C   0  0  0  0  0  0  0  0  0  0  0  0
   21.7290  -17.8566  -15.0827 C   0  0  2  0  0  0  0  0  0  0  0  0
   20.5537  -18.7280  -15.4390 C   0  0  0  0  0  0  0  0  0  0  0  0
   20.5832  -19.0360  -16.9042 C   0  0  2  0  0  0  0  0  0  0  0  0
   20.5728  -20.0213  -14.6050 N   0  0  0  0  0  0  0  0  0  0  0  0
   21.7847  -20.7707  -14.8818 C   0  0  0  0  0  0  0  0  0  0  0  0
   19.3650  -20.8029  -14.8012 O   0  0  0  0  0  0  0  0  0  0  0  0
   18.1878  -20.7777  -14.0789 O   0  0  0  0  0  0  0  0  0  0  0  0
  2  1  1  0
  3  4  1  1
  3  2  1  0
  5  3  1  0
  5  6  1  6
  7  8  2  0
  7  5  1  0
  9 10  1  0
 10 12  1  0
 11 10  2  0
 12 13  1  0
 13 14  1  0
 14 15  1  0
 16 15  1  1
 16 17  1  0
 17  7  1  0
 18 16  1  0
 19 18  2  0
 21 20  1  6
 21 23  1  0
 21 22  1  0
 23 24  1  1
 24 18  1  0
 25 26  1  0
 25 23  1  0
 27 25  2  0
M  END
$$$$
