IRV.pdb
     RDKit          3D

 27 26  0  0  1  0  0  0  0  0999 V2000
   29.9558  -23.4378  -17.1172 C   0  0  0  0  0  0  0  0  0  0  0  0
   29.0686  -22.5023  -17.8469 C   0  0  0  0  0  0  0  0  0  0  0  0
   28.1877  -21.6712  -16.9663 C   0  0  2  0  0  0  0  0  0  0  0  0
   27.2970  -22.5860  -16.1648 C   0  0  0  0  0  0  0  0  0  0  0  0
   27.3069  -20.6938  -17.7166 C   0  0  2  0  0  0  0  0  0  0  0  0
   28.1240  -19.8061  -18.5340 N   0  0  0  0  0  0  0  0  0  0  0  0
   26.5909  -19.9063  -16.6577 C   0  0  0  0  0  0  0  0  0  0  0  0
   26.7313  -18.6350  -16.5644 O   0  0  0  0  0  0  0  0  0  0  0  0
   19.4134  -18.4501  -14.9552 N   0  0  0  0  0  0  0  0  0  0  0  0
   19.8087  -17.2794  -15.7180 C   0  0  0  0  0  0  0  0  0  0  0  0
   19.2938  -16.1587  -15.5157 N   0  0  0  0  0  0  0  0  0  0  0  0
   20.8056  -17.4097  -16.7179 N   0  0  0  0  0  0  0  0  0  0  0  0
   21.3780  -18.7455  -16.9342 C   0  0  0  0  0  0  0  0  0  0  0  0
   22.3415  -18.9953  -15.7716 C   0  0  0  0  0  0  0  0  0  0  0  0
   23.6089  -19.5917  -16.3107 C   0  0  0  0  0  0  0  0  0  0  0  0
   24.5514  -19.9627  -15.1461 C   0  0  2  0  0  0  0  0  0  0  0  0
   25.7332  -20.5064  -15.7157 N   0  0  0  0  0  0  0  0  0  0  0  0
   23.8312  -20.7484  -14.1474 C   0  0  0  0  0  0  0  0  0  0  0  0
   23.0766  -21.6895  -14.4222 O   0  0  0  0  0  0  0  0  0  0  0  0
   19.3969  -15.2610  -15.9633 C   0  0  0  0  0  0  0  0  0  0  0  0
   25.5848  -20.9957  -10.4589 C   0  0  2  0  0  0  0  0  0  0  0  0
   24.0903  -20.8520  -10.3442 C   0  0  0  0  0  0  0  0  0  0  0  0
   23.7515  -19.4562   -9.9205 C   0  0  2  0  0  0  0  0  0  0  0  0
   23.4139  -21.1997  -11.6822 N   0  0  0  0  0  0  0  0  0  0  0  0
   24.0092  -20.4230  -12.7541 C   0  0  0  0  0  0  0  0  0  0  0  0
   21.9714  -21.0515  -11.6074 O   0  0  0  0  0  0  0  0  0  0  0  0
   21.0358  -21.9200  -11.0796 O   0  0  0  0  0  0  0  0  0  0  0  0
  2  1  1  0
  3  4  1  6
  3  2  1  0
  5  3  1  0
  5  6  1  1
  7  8  2  0
  7  5  1  0
  9 10  1  0
 10 12  1  0
 11 10  2  0
 12 13  1  0
 13 14  1  0
 14 15  1  0
 16 15  1  6
 16 17  1  0
 17  7  1  0
 18 16  1  0
 19 18  2  0
 21 20  1  1
 21 23  1  0
 21 22  1  0
 23 24  1  1
 24 18  1  0
 25 26  1  0
 25 23  1  0
 27 25  2  0
M  END
$$$$
