IRV.pdb
     RDKit          3D

 27 26  0  0  1  0  0  0  0  0999 V2000
   21.2608   -7.4753  -25.2564 C   0  0  0  0  0  0  0  0  0  0  0  0
   22.0441   -8.2646  -24.2775 C   0  0  0  0  0  0  0  0  0  0  0  0
   21.7289   -7.9621  -22.8452 C   0  0  2  0  0  0  0  0  0  0  0  0
   22.1009   -6.5301  -22.5560 C   0  0  0  0  0  0  0  0  0  0  0  0
   22.4524   -8.8472  -21.8516 C   0  0  2  0  0  0  0  0  0  0  0  0
   22.1335  -10.2472  -22.1004 N   0  0  0  0  0  0  0  0  0  0  0  0
   21.9414   -8.4340  -20.5017 C   0  0  0  0  0  0  0  0  0  0  0  0
   21.0711   -9.1376  -19.8754 O   0  0  0  0  0  0  0  0  0  0  0  0
   22.5759  -10.7978  -13.2130 N   0  0  0  0  0  0  0  0  0  0  0  0
   21.9206   -9.5343  -12.9253 C   0  0  0  0  0  0  0  0  0  0  0  0
   21.4137   -9.2965  -11.8079 N   0  0  0  0  0  0  0  0  0  0  0  0
   21.8545   -8.5433  -13.9373 N   0  0  0  0  0  0  0  0  0  0  0  0
   22.2565   -8.9339  -15.2955 C   0  0  0  0  0  0  0  0  0  0  0  0
   22.0643   -7.6961  -16.1749 C   0  0  0  0  0  0  0  0  0  0  0  0
   22.3927   -8.0534  -17.5950 C   0  0  0  0  0  0  0  0  0  0  0  0
   22.0971   -6.8539  -18.5201 C   0  0  2  0  0  0  0  0  0  0  0  0
   22.3801   -7.2655  -19.8495 N   0  0  0  0  0  0  0  0  0  0  0  0
   22.7481   -5.6512  -18.0072 C   0  0  0  0  0  0  0  0  0  0  0  0
   23.9747   -5.5088  -17.9318 O   0  0  0  0  0  0  0  0  0  0  0  0
   20.9509   -8.4901  -11.4177 C   0  0  0  0  0  0  0  0  0  0  0  0
   21.9816   -2.2146  -19.2676 C   0  0  2  0  0  0  0  0  0  0  0  0
   21.7931   -2.1171  -17.7768 C   0  0  0  0  0  0  0  0  0  0  0  0
   20.3307   -2.0701  -17.4579 C   0  0  2  0  0  0  0  0  0  0  0  0
   22.4714   -3.3052  -17.0718 N   0  0  0  0  0  0  0  0  0  0  0  0
   21.9225   -4.5539  -17.5676 C   0  0  0  0  0  0  0  0  0  0  0  0
   22.3943   -3.1854  -15.6268 O   0  0  0  0  0  0  0  0  0  0  0  0
   21.7277   -3.9902  -14.7234 O   0  0  0  0  0  0  0  0  0  0  0  0
  2  1  1  0
  3  4  1  1
  3  2  1  0
  5  3  1  0
  5  6  1  6
  7  8  2  0
  7  5  1  0
  9 10  1  0
 10 12  1  0
 11 10  2  0
 12 13  1  0
 13 14  1  0
 14 15  1  0
 16 15  1  1
 16 17  1  0
 17  7  1  0
 18 16  1  0
 19 18  2  0
 21 20  1  6
 21 23  1  0
 21 22  1  0
 23 24  1  1
 24 18  1  0
 25 26  1  0
 25 23  1  0
 27 25  2  0
M  END
$$$$
