IRV.pdb
     RDKit          3D

 27 26  0  0  1  0  0  0  0  0999 V2000
   19.2820  -27.4093  -11.3071 C   0  0  0  0  0  0  0  0  0  0  0  0
   18.8627  -26.0751  -10.8182 C   0  0  0  0  0  0  0  0  0  0  0  0
   18.5634  -26.0196   -9.3521 C   0  0  2  0  0  0  0  0  0  0  0  0
   17.4115  -26.9453   -9.0542 C   0  0  0  0  0  0  0  0  0  0  0  0
   18.2017  -24.6387   -8.8457 C   0  0  2  0  0  0  0  0  0  0  0  0
   19.2904  -23.7061   -9.1078 N   0  0  0  0  0  0  0  0  0  0  0  0
   18.0016  -24.7950   -7.3660 C   0  0  0  0  0  0  0  0  0  0  0  0
   18.9983  -24.9241   -6.5694 O   0  0  0  0  0  0  0  0  0  0  0  0
   12.6555  -21.4370   -1.8502 N   0  0  0  0  0  0  0  0  0  0  0  0
   12.7335  -21.2208   -3.2840 C   0  0  0  0  0  0  0  0  0  0  0  0
   12.3414  -20.1573   -3.8105 N   0  0  0  0  0  0  0  0  0  0  0  0
   13.2695  -22.2418   -4.1092 N   0  0  0  0  0  0  0  0  0  0  0  0
   13.2717  -23.6115   -3.5775 C   0  0  0  0  0  0  0  0  0  0  0  0
   14.7015  -24.1337   -3.7367 C   0  0  0  0  0  0  0  0  0  0  0  0
   15.0123  -24.2607   -5.1995 C   0  0  0  0  0  0  0  0  0  0  0  0
   16.4132  -24.8808   -5.3868 C   0  0  2  0  0  0  0  0  0  0  0  0
   16.7257  -24.8088   -6.7702 N   0  0  0  0  0  0  0  0  0  0  0  0
   16.4812  -26.1792   -4.7213 C   0  0  0  0  0  0  0  0  0  0  0  0
   15.9323  -27.2029   -5.1472 O   0  0  0  0  0  0  0  0  0  0  0  0
   12.2732  -19.8449   -4.7667 C   0  0  0  0  0  0  0  0  0  0  0  0
   19.8117  -26.7726   -2.3234 C   0  0  2  0  0  0  0  0  0  0  0  0
   18.5587  -27.3762   -1.7462 C   0  0  0  0  0  0  0  0  0  0  0  0
   18.0434  -26.5038   -0.6435 C   0  0  2  0  0  0  0  0  0  0  0  0
   17.4963  -27.5587   -2.8446 N   0  0  0  0  0  0  0  0  0  0  0  0
   17.2377  -26.2891   -3.4989 C   0  0  0  0  0  0  0  0  0  0  0  0
   16.2932  -28.1858   -2.3272 O   0  0  0  0  0  0  0  0  0  0  0  0
   15.9901  -29.5297   -2.2250 O   0  0  0  0  0  0  0  0  0  0  0  0
  2  1  1  0
  3  4  1  6
  3  2  1  0
  5  3  1  0
  5  6  1  1
  7  8  2  0
  7  5  1  0
  9 10  1  0
 10 12  1  0
 11 10  2  0
 12 13  1  0
 13 14  1  0
 14 15  1  0
 16 15  1  6
 16 17  1  0
 17  7  1  0
 18 16  1  0
 19 18  2  0
 21 20  1  1
 21 23  1  0
 21 22  1  0
 23 24  1  6
 24 18  1  0
 25 26  1  0
 25 23  1  0
 27 25  2  0
M  END
$$$$
