IRV.pdb
     RDKit          3D

 27 26  0  0  1  0  0  0  0  0999 V2000
   28.9755  -22.3522  -20.0025 C   0  0  0  0  0  0  0  0  0  0  0  0
   29.1869  -22.8384  -18.6192 C   0  0  0  0  0  0  0  0  0  0  0  0
   27.9912  -22.7064  -17.7275 C   0  0  2  0  0  0  0  0  0  0  0  0
   27.6524  -21.2449  -17.5794 C   0  0  0  0  0  0  0  0  0  0  0  0
   28.1840  -23.2885  -16.3425 C   0  0  2  0  0  0  0  0  0  0  0  0
   28.4652  -24.7156  -16.4319 N   0  0  0  0  0  0  0  0  0  0  0  0
   26.8825  -23.0630  -15.6291 C   0  0  0  0  0  0  0  0  0  0  0  0
   25.7954  -23.6054  -16.0399 O   0  0  0  0  0  0  0  0  0  0  0  0
   22.5052  -20.0885  -10.2483 N   0  0  0  0  0  0  0  0  0  0  0  0
   23.0952  -20.8892   -9.1903 C   0  0  0  0  0  0  0  0  0  0  0  0
   22.4059  -21.3598   -8.2601 N   0  0  0  0  0  0  0  0  0  0  0  0
   24.4896  -21.1456   -9.2127 N   0  0  0  0  0  0  0  0  0  0  0  0
   25.2907  -20.4477  -10.2277 C   0  0  0  0  0  0  0  0  0  0  0  0
   24.8300  -20.9847  -11.5848 C   0  0  0  0  0  0  0  0  0  0  0  0
   26.0372  -21.3558  -12.3956 C   0  0  0  0  0  0  0  0  0  0  0  0
   25.5983  -21.9045  -13.7698 C   0  0  2  0  0  0  0  0  0  0  0  0
   26.7767  -22.2540  -14.4813 N   0  0  0  0  0  0  0  0  0  0  0  0
   24.6489  -20.9887  -14.3969 C   0  0  0  0  0  0  0  0  0  0  0  0
   24.8894  -19.7977  -14.6299 O   0  0  0  0  0  0  0  0  0  0  0  0
   22.6194  -21.9592   -7.4779 C   0  0  0  0  0  0  0  0  0  0  0  0
   20.7490  -20.5200  -17.3332 C   0  0  2  0  0  0  0  0  0  0  0  0
   21.7930  -21.3739  -16.6635 C   0  0  0  0  0  0  0  0  0  0  0  0
   22.8933  -21.6745  -17.6338 C   0  0  1  0  0  0  0  0  0  0  0  0
   22.3420  -20.6665  -15.4118 N   0  0  0  0  0  0  0  0  0  0  0  0
   23.3536  -21.4934  -14.7798 C   0  0  0  0  0  0  0  0  0  0  0  0
   21.2765  -20.2802  -14.5042 O   0  0  0  0  0  0  0  0  0  0  0  0
   20.5876  -19.0850  -14.4330 O   0  0  0  0  0  0  0  0  0  0  0  0
  2  1  1  0
  3  4  1  1
  3  2  1  0
  5  3  1  0
  5  6  1  6
  7  8  2  0
  7  5  1  0
  9 10  1  0
 10 12  1  0
 11 10  2  0
 12 13  1  0
 13 14  1  0
 14 15  1  0
 16 15  1  1
 16 17  1  0
 17  7  1  0
 18 16  1  0
 19 18  2  0
 21 20  1  6
 21 23  1  0
 21 22  1  0
 23 24  1  1
 24 18  1  0
 25 26  1  0
 25 23  1  0
 27 25  2  0
M  END
$$$$
