AYW.pdb
     RDKit          3D

 32 34  0  0  1  0  0  0  0  0999 V2000
   27.1366  -23.6121  -17.8276 C   0  0  0  0  0  0  0  0  0  0  0  0
   27.5272  -22.1555  -18.0744 C   0  0  2  0  0  0  0  0  0  0  0  0
   28.8566  -21.9058  -17.5407 N   0  0  0  0  0  0  0  0  0  0  0  0
   26.5723  -21.3098  -17.3160 C   0  0  0  0  0  0  0  0  0  0  0  0
   26.7250  -21.1096  -16.0780 O   0  0  0  0  0  0  0  0  0  0  0  0
   19.5595  -16.4174  -15.4702 O   0  0  0  0  0  0  0  0  0  0  0  0
   20.5832  -17.0783  -16.1252 C   0  0  0  0  0  0  0  0  0  0  0  0
   21.8786  -16.5873  -15.9915 C   0  0  0  0  0  0  0  0  0  0  0  0
   22.9323  -17.2084  -16.6226 C   0  0  0  0  0  0  0  0  0  0  0  0
   22.6850  -18.3239  -17.3892 C   0  0  0  0  0  0  0  0  0  0  0  0
   23.7618  -19.0145  -18.0822 C   0  0  0  0  0  0  0  0  0  0  0  0
   24.5204  -19.9306  -17.1478 C   0  0  2  0  0  0  0  0  0  0  0  0
   25.4634  -20.7022  -17.9554 N   0  0  0  0  0  0  0  0  0  0  0  0
   23.5695  -20.8915  -16.5223 C   0  0  0  0  0  0  0  0  0  0  0  0
   23.0619  -21.8400  -17.1908 O   0  0  0  0  0  0  0  0  0  0  0  0
   21.3934  -18.8253  -17.5307 C   0  0  0  0  0  0  0  0  0  0  0  0
   20.3626  -18.1961  -16.8976 C   0  0  0  0  0  0  0  0  0  0  0  0
   23.2181  -20.7601  -15.1698 N   0  0  0  0  0  0  0  0  0  0  0  0
   22.2566  -21.7143  -14.5852 C   0  0  1  0  0  0  0  0  0  0  0  0
   23.0135  -22.5573  -13.6153 C   0  0  0  0  0  0  0  0  0  0  0  0
   23.5653  -21.7717  -12.5158 C   0  0  0  0  0  0  0  0  0  0  0  0
   22.8370  -21.1250  -11.5287 C   0  0  0  0  0  0  0  0  0  0  0  0
   23.6644  -20.4713  -10.7079 N   0  0  0  0  0  0  0  0  0  0  0  0
   24.9118  -20.6845  -11.1460 C   0  0  0  0  0  0  0  0  0  0  0  0
   26.1536  -20.2768  -10.6853 C   0  0  0  0  0  0  0  0  0  0  0  0
   27.3358  -20.6407  -11.2953 C   0  0  0  0  0  0  0  0  0  0  0  0
   27.3160  -21.4413  -12.4097 C   0  0  0  0  0  0  0  0  0  0  0  0
   26.0932  -21.8545  -12.8812 C   0  0  0  0  0  0  0  0  0  0  0  0
   24.8887  -21.4919  -12.2724 C   0  0  0  0  0  0  0  0  0  0  0  0
   21.0955  -20.9813  -14.0793 C   0  0  0  0  0  0  0  0  0  0  0  0
   21.2001  -19.7517  -13.8242 O   0  0  0  0  0  0  0  0  0  0  0  0
   19.8503  -21.5391  -13.8549 O   0  0  0  0  0  0  0  0  0  0  0  0
  2  1  1  1
  2  3  1  0
  4  2  1  0
  5  4  2  0
  7 17  2  0
  7  6  1  0
  8  7  1  0
  9 10  1  0
  9  8  2  0
 10 16  2  0
 12 11  1  6
 11 10  1  0
 12 13  1  0
 13  4  1  0
 14 18  1  0
 14 12  1  0
 15 14  2  0
 16 17  1  0
 19 20  1  1
 19 30  1  0
 19 18  1  0
 21 22  2  0
 21 20  1  0
 23 22  1  0
 24 29  2  0
 24 23  1  0
 25 24  1  0
 26 27  1  0
 26 25  2  0
 27 28  2  0
 28 29  1  0
 29 21  1  0
 30 32  1  0
 31 30  2  0
M  END
$$$$
