AYW.pdb
     RDKit          3D

 32 34  0  0  1  0  0  0  0  0999 V2000
   25.2751  -14.9757  -16.1331 C   0  0  0  0  0  0  0  0  0  0  0  0
   24.9107  -15.2565  -17.5904 C   0  0  2  0  0  0  0  0  0  0  0  0
   26.0976  -15.6661  -18.3238 N   0  0  0  0  0  0  0  0  0  0  0  0
   24.4371  -13.9792  -18.1791 C   0  0  0  0  0  0  0  0  0  0  0  0
   25.2517  -13.1575  -18.6862 O   0  0  0  0  0  0  0  0  0  0  0  0
   19.6502   -7.8497  -21.9784 O   0  0  0  0  0  0  0  0  0  0  0  0
   20.0969   -9.0259  -21.4032 C   0  0  0  0  0  0  0  0  0  0  0  0
   21.2842   -9.5812  -21.8714 C   0  0  0  0  0  0  0  0  0  0  0  0
   21.7717  -10.7500  -21.3326 C   0  0  0  0  0  0  0  0  0  0  0  0
   21.0661  -11.3624  -20.3225 C   0  0  0  0  0  0  0  0  0  0  0  0
   21.5340  -12.6025  -19.7225 C   0  0  0  0  0  0  0  0  0  0  0  0
   22.6558  -12.3504  -18.7396 C   0  0  2  0  0  0  0  0  0  0  0  0
   23.0607  -13.6433  -18.1909 N   0  0  0  0  0  0  0  0  0  0  0  0
   22.1447  -11.5213  -17.6126 C   0  0  0  0  0  0  0  0  0  0  0  0
   21.3553  -12.0053  -16.7486 O   0  0  0  0  0  0  0  0  0  0  0  0
   19.8770  -10.8168  -19.8450 C   0  0  0  0  0  0  0  0  0  0  0  0
   19.4102   -9.6580  -20.3915 C   0  0  0  0  0  0  0  0  0  0  0  0
   22.5338  -10.1783  -17.4890 N   0  0  0  0  0  0  0  0  0  0  0  0
   21.9631   -9.3664  -16.3975 C   0  0  1  0  0  0  0  0  0  0  0  0
   23.0966   -8.9592  -15.5179 C   0  0  0  0  0  0  0  0  0  0  0  0
   22.6935   -7.9722  -14.5210 C   0  0  0  0  0  0  0  0  0  0  0  0
   22.0837   -8.2422  -13.3052 C   0  0  0  0  0  0  0  0  0  0  0  0
   21.8219   -7.0992  -12.6643 N   0  0  0  0  0  0  0  0  0  0  0  0
   22.2516   -6.0978  -13.4427 C   0  0  0  0  0  0  0  0  0  0  0  0
   22.2588   -4.7209  -13.2863 C   0  0  0  0  0  0  0  0  0  0  0  0
   22.7834   -3.8622  -14.2295 C   0  0  0  0  0  0  0  0  0  0  0  0
   23.3299   -4.3616  -15.3850 C   0  0  0  0  0  0  0  0  0  0  0  0
   23.3306   -5.7249  -15.5574 C   0  0  0  0  0  0  0  0  0  0  0  0
   22.8016   -6.6049  -14.6095 C   0  0  0  0  0  0  0  0  0  0  0  0
   21.1361   -8.3026  -16.9682 C   0  0  0  0  0  0  0  0  0  0  0  0
   20.0306   -8.0206  -16.4334 O   0  0  0  0  0  0  0  0  0  0  0  0
   21.4774   -7.5512  -18.0778 O   0  0  0  0  0  0  0  0  0  0  0  0
  2  1  1  1
  2  3  1  0
  4  2  1  0
  5  4  2  0
  7 17  2  0
  7  6  1  0
  8  7  1  0
  9 10  1  0
  9  8  2  0
 10 16  2  0
 12 11  1  6
 11 10  1  0
 12 13  1  0
 13  4  1  0
 14 18  1  0
 14 12  1  0
 15 14  2  0
 16 17  1  0
 19 20  1  6
 19 30  1  0
 19 18  1  0
 21 22  2  0
 21 20  1  0
 23 22  1  0
 24 29  2  0
 24 23  1  0
 25 24  1  0
 26 27  1  0
 26 25  2  0
 27 28  2  0
 28 29  1  0
 29 21  1  0
 30 32  1  0
 31 30  2  0
M  END
$$$$
