AYW.pdb
     RDKit          3D

 32 34  0  0  1  0  0  0  0  0999 V2000
   28.1794  -23.8100  -18.0233 C   0  0  0  0  0  0  0  0  0  0  0  0
   26.9676  -24.6527  -17.6274 C   0  0  2  0  0  0  0  0  0  0  0  0
   26.2115  -23.9697  -16.5900 N   0  0  0  0  0  0  0  0  0  0  0  0
   27.4825  -25.9185  -17.0487 C   0  0  0  0  0  0  0  0  0  0  0  0
   27.2909  -26.2006  -15.8323 O   0  0  0  0  0  0  0  0  0  0  0  0
   28.4014  -34.2079  -15.5539 O   0  0  0  0  0  0  0  0  0  0  0  0
   28.1237  -32.9136  -15.9556 C   0  0  0  0  0  0  0  0  0  0  0  0
   28.4641  -31.8691  -15.1011 C   0  0  0  0  0  0  0  0  0  0  0  0
   28.2092  -30.5634  -15.4538 C   0  0  0  0  0  0  0  0  0  0  0  0
   27.6113  -30.3060  -16.6660 C   0  0  0  0  0  0  0  0  0  0  0  0
   27.3144  -28.9446  -17.0845 C   0  0  0  0  0  0  0  0  0  0  0  0
   28.5787  -28.1315  -17.2527 C   0  0  2  0  0  0  0  0  0  0  0  0
   28.2025  -26.8471  -17.8405 N   0  0  0  0  0  0  0  0  0  0  0  0
   29.4823  -28.8214  -18.2152 C   0  0  0  0  0  0  0  0  0  0  0  0
   29.2466  -28.8088  -19.4595 O   0  0  0  0  0  0  0  0  0  0  0  0
   27.2659  -31.3422  -17.5301 C   0  0  0  0  0  0  0  0  0  0  0  0
   27.5267  -32.6292  -17.1629 C   0  0  0  0  0  0  0  0  0  0  0  0
   30.6199  -29.5021  -17.7541 N   0  0  0  0  0  0  0  0  0  0  0  0
   31.4778  -30.2023  -18.7289 C   0  0  1  0  0  0  0  0  0  0  0  0
   32.7553  -30.5273  -18.0313 C   0  0  0  0  0  0  0  0  0  0  0  0
   33.7627  -31.0574  -18.9451 C   0  0  0  0  0  0  0  0  0  0  0  0
   34.3677  -30.3655  -19.9834 C   0  0  0  0  0  0  0  0  0  0  0  0
   35.2110  -31.1710  -20.6358 N   0  0  0  0  0  0  0  0  0  0  0  0
   35.1621  -32.3683  -20.0379 C   0  0  0  0  0  0  0  0  0  0  0  0
   35.8249  -33.5632  -20.2689 C   0  0  0  0  0  0  0  0  0  0  0  0
   35.6301  -34.6897  -19.4973 C   0  0  0  0  0  0  0  0  0  0  0  0
   34.7475  -34.6588  -18.4469 C   0  0  0  0  0  0  0  0  0  0  0  0
   34.0806  -33.4822  -18.2036 C   0  0  0  0  0  0  0  0  0  0  0  0
   34.2690  -32.3347  -18.9785 C   0  0  0  0  0  0  0  0  0  0  0  0
   30.7305  -31.3128  -19.3201 C   0  0  0  0  0  0  0  0  0  0  0  0
   29.7767  -31.8304  -18.6796 O   0  0  0  0  0  0  0  0  0  0  0  0
   30.9858  -31.8578  -20.5652 O   0  0  0  0  0  0  0  0  0  0  0  0
  2  1  1  1
  2  3  1  0
  4  2  1  0
  5  4  2  0
  7 17  2  0
  7  6  1  0
  8  7  1  0
  9 10  1  0
  9  8  2  0
 10 16  2  0
 12 11  1  6
 11 10  1  0
 12 13  1  0
 13  4  1  0
 14 18  1  0
 14 12  1  0
 15 14  2  0
 16 17  1  0
 19 20  1  1
 19 30  1  0
 19 18  1  0
 21 22  2  0
 21 20  1  0
 23 22  1  0
 24 29  2  0
 24 23  1  0
 25 24  1  0
 26 27  1  0
 26 25  2  0
 27 28  2  0
 28 29  1  0
 29 21  1  0
 30 32  1  0
 31 30  2  0
M  END
$$$$
