AYW.pdb
     RDKit          3D

 32 34  0  0  1  0  0  0  0  0999 V2000
   35.3613  -27.2312  -26.5410 C   0  0  0  0  0  0  0  0  0  0  0  0
   34.7646  -26.9487  -27.9191 C   0  0  2  0  0  0  0  0  0  0  0  0
   35.8049  -26.4737  -28.8173 N   0  0  0  0  0  0  0  0  0  0  0  0
   33.7780  -25.8525  -27.7547 C   0  0  0  0  0  0  0  0  0  0  0  0
   34.0635  -24.8173  -27.0891 O   0  0  0  0  0  0  0  0  0  0  0  0
   33.1910  -23.2265  -34.0729 O   0  0  0  0  0  0  0  0  0  0  0  0
   32.5561  -23.5964  -32.9008 C   0  0  0  0  0  0  0  0  0  0  0  0
   32.3486  -24.9516  -32.6610 C   0  0  0  0  0  0  0  0  0  0  0  0
   31.7218  -25.3718  -31.5101 C   0  0  0  0  0  0  0  0  0  0  0  0
   31.3024  -24.4302  -30.5987 C   0  0  0  0  0  0  0  0  0  0  0  0
   30.6294  -24.8204  -29.3692 C   0  0  0  0  0  0  0  0  0  0  0  0
   31.5778  -24.7993  -28.1911 C   0  0  2  0  0  0  0  0  0  0  0  0
   32.4892  -25.9326  -28.3378 N   0  0  0  0  0  0  0  0  0  0  0  0
   30.8046  -25.0011  -26.9340 C   0  0  0  0  0  0  0  0  0  0  0  0
   30.5208  -26.1635  -26.5189 O   0  0  0  0  0  0  0  0  0  0  0  0
   31.5042  -23.0712  -30.8268 C   0  0  0  0  0  0  0  0  0  0  0  0
   32.1272  -22.6745  -31.9730 C   0  0  0  0  0  0  0  0  0  0  0  0
   30.3748  -23.8962  -26.1826 N   0  0  0  0  0  0  0  0  0  0  0  0
   29.7295  -24.1276  -24.8763 C   0  0  1  0  0  0  0  0  0  0  0  0
   30.0530  -22.9532  -24.0158 C   0  0  0  0  0  0  0  0  0  0  0  0
   29.4731  -21.7165  -24.5305 C   0  0  0  0  0  0  0  0  0  0  0  0
   28.2106  -21.2232  -24.2374 C   0  0  0  0  0  0  0  0  0  0  0  0
   27.9975  -20.0900  -24.9129 N   0  0  0  0  0  0  0  0  0  0  0  0
   29.0979  -19.8429  -25.6349 C   0  0  0  0  0  0  0  0  0  0  0  0
   29.4470  -18.8150  -26.4963 C   0  0  0  0  0  0  0  0  0  0  0  0
   30.6705  -18.7507  -27.1296 C   0  0  0  0  0  0  0  0  0  0  0  0
   31.6058  -19.7326  -26.9187 C   0  0  0  0  0  0  0  0  0  0  0  0
   31.2764  -20.7604  -26.0681 C   0  0  0  0  0  0  0  0  0  0  0  0
   30.0400  -20.8368  -25.4212 C   0  0  0  0  0  0  0  0  0  0  0  0
   28.3157  -24.4421  -25.0849 C   0  0  0  0  0  0  0  0  0  0  0  0
   27.6276  -24.8766  -24.1228 O   0  0  0  0  0  0  0  0  0  0  0  0
   27.6460  -24.2933  -26.2855 O   0  0  0  0  0  0  0  0  0  0  0  0
  2  1  1  1
  2  3  1  0
  4  2  1  0
  5  4  2  0
  7 17  2  0
  7  6  1  0
  8  7  1  0
  9 10  1  0
  9  8  2  0
 10 16  2  0
 12 11  1  6
 11 10  1  0
 12 13  1  0
 13  4  1  0
 14 18  1  0
 14 12  1  0
 15 14  2  0
 16 17  1  0
 19 20  1  1
 19 30  1  0
 19 18  1  0
 21 22  2  0
 21 20  1  0
 23 22  1  0
 24 29  2  0
 24 23  1  0
 25 24  1  0
 26 27  1  0
 26 25  2  0
 27 28  2  0
 28 29  1  0
 29 21  1  0
 30 32  1  0
 31 30  2  0
M  END
$$$$
