AYW.pdb
     RDKit          3D

 32 34  0  0  1  0  0  0  0  0999 V2000
   25.4194  -32.5026   -2.7279 C   0  0  0  0  0  0  0  0  0  0  0  0
   24.4089  -33.0935   -3.7102 C   0  0  2  0  0  0  0  0  0  0  0  0
   24.9261  -32.9960   -5.0657 N   0  0  0  0  0  0  0  0  0  0  0  0
   23.1838  -32.2595   -3.6356 C   0  0  0  0  0  0  0  0  0  0  0  0
   23.0454  -31.2428   -4.3726 O   0  0  0  0  0  0  0  0  0  0  0  0
   19.3752  -33.1968   -8.5286 O   0  0  0  0  0  0  0  0  0  0  0  0
   19.4604  -32.9872   -7.1639 C   0  0  0  0  0  0  0  0  0  0  0  0
   19.9591  -34.0139   -6.3675 C   0  0  0  0  0  0  0  0  0  0  0  0
   20.0642  -33.8557   -5.0044 C   0  0  0  0  0  0  0  0  0  0  0  0
   19.6679  -32.6651   -4.4400 C   0  0  0  0  0  0  0  0  0  0  0  0
   19.7525  -32.4483   -3.0038 C   0  0  0  0  0  0  0  0  0  0  0  0
   20.9948  -31.6673   -2.6365 C   0  0  2  0  0  0  0  0  0  0  0  0
   22.1343  -32.5772   -2.7382 N   0  0  0  0  0  0  0  0  0  0  0  0
   20.8954  -31.2246   -1.2177 C   0  0  0  0  0  0  0  0  0  0  0  0
   21.1530  -32.0176   -0.2643 O   0  0  0  0  0  0  0  0  0  0  0  0
   19.1675  -31.6300   -5.2259 C   0  0  0  0  0  0  0  0  0  0  0  0
   19.0710  -31.8057   -6.5746 C   0  0  0  0  0  0  0  0  0  0  0  0
   20.5117  -29.9095   -0.9122 N   0  0  0  0  0  0  0  0  0  0  0  0
   20.4133  -29.5042    0.5029 C   0  0  1  0  0  0  0  0  0  0  0  0
   20.4496  -28.0135    0.5333 C   0  0  0  0  0  0  0  0  0  0  0  0
   19.2513  -27.4211   -0.0530 C   0  0  0  0  0  0  0  0  0  0  0  0
   18.0570  -27.1731    0.6066 C   0  0  0  0  0  0  0  0  0  0  0  0
   17.1649  -26.6603   -0.2461 N   0  0  0  0  0  0  0  0  0  0  0  0
   17.7611  -26.5721   -1.4420 C   0  0  0  0  0  0  0  0  0  0  0  0
   17.3329  -26.1058   -2.6748 C   0  0  0  0  0  0  0  0  0  0  0  0
   18.1414  -26.0896   -3.7920 C   0  0  0  0  0  0  0  0  0  0  0  0
   19.4323  -26.5485   -3.7127 C   0  0  0  0  0  0  0  0  0  0  0  0
   19.8737  -27.0155   -2.4981 C   0  0  0  0  0  0  0  0  0  0  0  0
   19.0639  -27.0377   -1.3594 C   0  0  0  0  0  0  0  0  0  0  0  0
   19.2593  -30.1635    1.1152 C   0  0  0  0  0  0  0  0  0  0  0  0
   18.3102  -30.5579    0.3861 O   0  0  0  0  0  0  0  0  0  0  0  0
   19.1184  -30.4040    2.4697 O   0  0  0  0  0  0  0  0  0  0  0  0
  2  1  1  1
  2  3  1  0
  4  2  1  0
  5  4  2  0
  7 17  2  0
  7  6  1  0
  8  7  1  0
  9 10  1  0
  9  8  2  0
 10 16  2  0
 12 11  1  1
 11 10  1  0
 12 13  1  0
 13  4  1  0
 14 18  1  0
 14 12  1  0
 15 14  2  0
 16 17  1  0
 19 20  1  6
 19 30  1  0
 19 18  1  0
 21 22  2  0
 21 20  1  0
 23 22  1  0
 24 29  2  0
 24 23  1  0
 25 24  1  0
 26 27  1  0
 26 25  2  0
 27 28  2  0
 28 29  1  0
 29 21  1  0
 30 32  1  0
 31 30  2  0
M  END
$$$$
