AYW.pdb
     RDKit          3D

 32 34  0  0  1  0  0  0  0  0999 V2000
   13.1672  -11.6343  -12.1660 C   0  0  0  0  0  0  0  0  0  0  0  0
   14.2970  -11.6320  -13.1949 C   0  0  2  0  0  0  0  0  0  0  0  0
   14.8406  -12.9738  -13.3313 N   0  0  0  0  0  0  0  0  0  0  0  0
   15.3751  -10.7625  -12.6622 C   0  0  0  0  0  0  0  0  0  0  0  0
   16.1665  -11.1826  -11.7715 O   0  0  0  0  0  0  0  0  0  0  0  0
   21.8985   -5.1600  -12.1644 O   0  0  0  0  0  0  0  0  0  0  0  0
   20.7796   -5.8645  -12.5713 C   0  0  0  0  0  0  0  0  0  0  0  0
   20.7923   -7.2510  -12.4522 C   0  0  0  0  0  0  0  0  0  0  0  0
   19.7043   -7.9981  -12.8427 C   0  0  0  0  0  0  0  0  0  0  0  0
   18.6022   -7.3521  -13.3538 C   0  0  0  0  0  0  0  0  0  0  0  0
   17.4285   -8.0947  -13.7870 C   0  0  0  0  0  0  0  0  0  0  0  0
   16.6561   -8.6420  -12.6072 C   0  0  2  0  0  0  0  0  0  0  0  0
   15.5498   -9.4383  -13.1350 N   0  0  0  0  0  0  0  0  0  0  0  0
   16.0705   -7.5105  -11.8355 C   0  0  0  0  0  0  0  0  0  0  0  0
   14.9997   -6.9470  -12.2098 O   0  0  0  0  0  0  0  0  0  0  0  0
   18.5770   -5.9652  -13.4780 C   0  0  0  0  0  0  0  0  0  0  0  0
   19.6646   -5.2424  -13.0855 C   0  0  0  0  0  0  0  0  0  0  0  0
   16.7015   -7.0469  -10.6707 N   0  0  0  0  0  0  0  0  0  0  0  0
   16.1272   -5.8892   -9.9591 C   0  0  1  0  0  0  0  0  0  0  0  0
   16.0923   -6.2412   -8.5102 C   0  0  0  0  0  0  0  0  0  0  0  0
   14.9671   -7.1109   -8.1814 C   0  0  0  0  0  0  0  0  0  0  0  0
   14.9340   -8.4903   -8.3200 C   0  0  0  0  0  0  0  0  0  0  0  0
   13.7335   -8.9545   -7.9603 N   0  0  0  0  0  0  0  0  0  0  0  0
   12.9926   -7.9016   -7.5919 C   0  0  0  0  0  0  0  0  0  0  0  0
   11.6961   -7.7833   -7.1169 C   0  0  0  0  0  0  0  0  0  0  0  0
   11.1317   -6.5730   -6.7722 C   0  0  0  0  0  0  0  0  0  0  0  0
   11.8597   -5.4160   -6.8932 C   0  0  0  0  0  0  0  0  0  0  0  0
   13.1472   -5.5142   -7.3635 C   0  0  0  0  0  0  0  0  0  0  0  0
   13.7297   -6.7344   -7.7166 C   0  0  0  0  0  0  0  0  0  0  0  0
   16.8536   -4.6779  -10.3418 C   0  0  0  0  0  0  0  0  0  0  0  0
   17.9037   -4.7752  -11.0313 O   0  0  0  0  0  0  0  0  0  0  0  0
   16.4710   -3.3923  -10.0052 O   0  0  0  0  0  0  0  0  0  0  0  0
  2  1  1  1
  2  3  1  0
  4  2  1  0
  5  4  2  0
  7 17  2  0
  7  6  1  0
  8  7  1  0
  9 10  1  0
  9  8  2  0
 10 16  2  0
 12 11  1  6
 11 10  1  0
 12 13  1  0
 13  4  1  0
 14 18  1  0
 14 12  1  0
 15 14  2  0
 16 17  1  0
 19 20  1  1
 19 30  1  0
 19 18  1  0
 21 22  2  0
 21 20  1  0
 23 22  1  0
 24 29  2  0
 24 23  1  0
 25 24  1  0
 26 27  1  0
 26 25  2  0
 27 28  2  0
 28 29  1  0
 29 21  1  0
 30 32  1  0
 31 30  2  0
M  END
$$$$
