NDP.pdb
     RDKit          3D

 24 24  0  0  1  0  0  0  0  0999 V2000
   14.7443  -23.3344   -0.0448 N   0  0  0  0  0  0  0  0  0  0  0  0
   14.7953  -23.0111    1.3299 C   0  0  0  0  0  0  0  0  0  0  0  0
   13.8847  -23.4727    2.0670 O   0  0  0  0  0  0  0  0  0  0  0  0
   15.8900  -22.1586    1.8617 C   0  0  0  0  0  0  0  0  0  0  0  0
   15.2636  -21.0485    2.6801 C   0  0  2  0  0  0  0  0  0  0  0  0
   14.5100  -20.1725    1.7947 N   0  0  0  0  0  0  0  0  0  0  0  0
   16.3078  -20.2075    3.3348 C   0  0  0  0  0  0  0  0  0  0  0  0
   17.2488  -19.6658    2.6838 O   0  0  0  0  0  0  0  0  0  0  0  0
   16.2321  -20.0190    4.7217 N   0  0  0  0  0  0  0  0  0  0  0  0
   17.1402  -19.0854    5.4419 C   0  0  1  0  0  0  0  0  0  0  0  0
   16.1410  -18.2642    6.2666 C   0  0  0  0  0  0  0  0  0  0  0  0
   16.4042  -16.8398    6.3234 C   0  0  0  0  0  0  0  0  0  0  0  0
   17.3730  -16.4079    5.6079 O   0  0  0  0  0  0  0  0  0  0  0  0
   18.0371  -19.9046    6.2792 C   0  0  0  0  0  0  0  0  0  0  0  0
   17.5575  -20.9852    6.7803 O   0  0  0  0  0  0  0  0  0  0  0  0
   15.7239  -15.8907    7.0665 O   0  0  0  0  0  0  0  0  0  0  0  0
   19.3838  -19.6219    6.5851 N   0  0  0  0  0  0  0  0  0  0  0  0
   20.1819  -18.5889    5.9547 C   0  0  0  0  0  0  0  0  0  0  0  0
   21.6085  -19.1629    6.0197 C   0  0  0  0  0  0  0  0  0  0  0  0
   21.5642  -19.7015    7.4580 C   0  0  0  0  0  0  0  0  0  0  0  0
   20.2128  -20.3172    7.5169 C   0  0  1  0  0  0  0  0  0  0  0  0
   19.6452  -20.3556    8.8864 C   0  0  0  0  0  0  0  0  0  0  0  0
   18.9092  -19.4861    9.3672 O   0  0  0  0  0  0  0  0  0  0  0  0
   19.9747  -21.4585    9.6763 O   0  0  0  0  0  0  0  0  0  0  0  0
  2  4  1  0
  2  1  1  0
  3  2  2  0
  4  5  1  0
  5  7  1  0
  5  6  1  6
  7  8  2  0
  9 10  1  0
  9  7  1  0
 10 14  1  0
 10 11  1  1
 12 11  1  0
 12 13  2  0
 14 15  2  0
 14 17  1  0
 16 12  1  0
 17 21  1  0
 17 18  1  0
 18 19  1  0
 19 20  1  0
 21 20  1  0
 21 22  1  1
 23 22  2  0
 24 22  1  0
M  END
$$$$
