NDP.pdb
     RDKit          3D

 24 24  0  0  1  0  0  0  0  0999 V2000
   15.8898  -10.0508  -17.4707 N   0  0  0  0  0  0  0  0  0  0  0  0
   16.7064  -10.9553  -16.7551 C   0  0  0  0  0  0  0  0  0  0  0  0
   16.9784  -12.0525  -17.3099 O   0  0  0  0  0  0  0  0  0  0  0  0
   17.2123  -10.6036  -15.4030 C   0  0  0  0  0  0  0  0  0  0  0  0
   18.6704  -10.2149  -15.5350 C   0  0  2  0  0  0  0  0  0  0  0  0
   19.4819  -11.4226  -15.5828 N   0  0  0  0  0  0  0  0  0  0  0  0
   19.1283   -9.4326  -14.3497 C   0  0  0  0  0  0  0  0  0  0  0  0
   19.1865   -9.9328  -13.1883 O   0  0  0  0  0  0  0  0  0  0  0  0
   19.5044   -8.0963  -14.5438 N   0  0  0  0  0  0  0  0  0  0  0  0
   19.8777   -7.2088  -13.4090 C   0  0  1  0  0  0  0  0  0  0  0  0
   21.0962   -6.4754  -13.9840 C   0  0  0  0  0  0  0  0  0  0  0  0
   21.6303   -5.4127  -13.1552 C   0  0  0  0  0  0  0  0  0  0  0  0
   21.8166   -5.6892  -11.9199 O   0  0  0  0  0  0  0  0  0  0  0  0
   18.7340   -6.3110  -13.1597 C   0  0  0  0  0  0  0  0  0  0  0  0
   18.1633   -5.7804  -14.1804 O   0  0  0  0  0  0  0  0  0  0  0  0
   21.9626   -4.1285  -13.5501 O   0  0  0  0  0  0  0  0  0  0  0  0
   18.1938   -5.9757  -11.9016 N   0  0  0  0  0  0  0  0  0  0  0  0
   18.6020   -6.5577  -10.6382 C   0  0  0  0  0  0  0  0  0  0  0  0
   17.3171   -6.4921   -9.7935 C   0  0  0  0  0  0  0  0  0  0  0  0
   16.8699   -5.0744  -10.1820 C   0  0  0  0  0  0  0  0  0  0  0  0
   17.1313   -5.0569  -11.6449 C   0  0  1  0  0  0  0  0  0  0  0  0
   17.3945   -3.6980  -12.1772 C   0  0  0  0  0  0  0  0  0  0  0  0
   16.5522   -2.7955  -12.2487 O   0  0  0  0  0  0  0  0  0  0  0  0
   18.6902   -3.4348  -12.6253 O   0  0  0  0  0  0  0  0  0  0  0  0
  2  4  1  0
  2  1  1  0
  3  2  2  0
  4  5  1  0
  5  7  1  0
  5  6  1  1
  7  8  2  0
  9 10  1  0
  9  7  1  0
 10 14  1  0
 10 11  1  6
 12 11  1  0
 12 13  2  0
 14 15  2  0
 14 17  1  0
 16 12  1  0
 17 21  1  0
 17 18  1  0
 18 19  1  0
 19 20  1  0
 21 20  1  0
 21 22  1  1
 23 22  2  0
 24 22  1  0
M  END
$$$$
