NDP.pdb
     RDKit          3D

 24 24  0  0  1  0  0  0  0  0999 V2000
   16.7808  -10.5810  -17.1496 N   0  0  0  0  0  0  0  0  0  0  0  0
   16.2238  -10.5689  -15.8509 C   0  0  0  0  0  0  0  0  0  0  0  0
   15.3168  -11.4064  -15.6026 O   0  0  0  0  0  0  0  0  0  0  0  0
   16.7055   -9.5973  -14.8351 C   0  0  0  0  0  0  0  0  0  0  0  0
   18.1797   -9.3528  -15.0830 C   0  0  2  0  0  0  0  0  0  0  0  0
   18.9354  -10.5151  -14.6390 N   0  0  0  0  0  0  0  0  0  0  0  0
   18.6726   -8.1880  -14.2913 C   0  0  0  0  0  0  0  0  0  0  0  0
   18.3853   -8.0286  -13.0688 O   0  0  0  0  0  0  0  0  0  0  0  0
   19.4822   -7.2437  -14.9375 N   0  0  0  0  0  0  0  0  0  0  0  0
   19.9832   -6.0266  -14.2428 C   0  0  1  0  0  0  0  0  0  0  0  0
   21.4699   -6.3638  -14.0719 C   0  0  0  0  0  0  0  0  0  0  0  0
   22.2751   -5.3288  -13.4540 C   0  0  0  0  0  0  0  0  0  0  0  0
   23.3284   -4.9698  -14.0856 O   0  0  0  0  0  0  0  0  0  0  0  0
   19.7558   -4.8817  -15.1449 C   0  0  0  0  0  0  0  0  0  0  0  0
   20.0868   -5.0232  -16.3776 O   0  0  0  0  0  0  0  0  0  0  0  0
   22.0329   -4.6828  -12.2542 O   0  0  0  0  0  0  0  0  0  0  0  0
   19.2014   -3.6353  -14.7895 N   0  0  0  0  0  0  0  0  0  0  0  0
   18.6140   -3.3219  -13.5017 C   0  0  0  0  0  0  0  0  0  0  0  0
   17.5476   -2.2691  -13.8524 C   0  0  0  0  0  0  0  0  0  0  0  0
   18.3776   -1.4351  -14.8405 C   0  0  0  0  0  0  0  0  0  0  0  0
   19.0707   -2.4874  -15.6286 C   0  0  1  0  0  0  0  0  0  0  0  0
   20.3609   -2.0354  -16.2031 C   0  0  0  0  0  0  0  0  0  0  0  0
   21.4717   -2.4440  -15.8451 O   0  0  0  0  0  0  0  0  0  0  0  0
   20.3000   -1.0805  -17.2196 O   0  0  0  0  0  0  0  0  0  0  0  0
  2  4  1  0
  2  1  1  0
  3  2  2  0
  4  5  1  0
  5  7  1  0
  5  6  1  1
  7  8  2  0
  9 10  1  0
  9  7  1  0
 10 14  1  0
 10 11  1  6
 12 11  1  0
 12 13  2  0
 14 15  2  0
 14 17  1  0
 16 12  1  0
 17 21  1  0
 17 18  1  0
 18 19  1  0
 19 20  1  0
 21 20  1  0
 21 22  1  1
 23 22  2  0
 24 22  1  0
M  END
$$$$
