NDP.pdb
     RDKit          3D

 24 24  0  0  1  0  0  0  0  0999 V2000
   49.0541  -11.8942   -4.4128 N   0  0  0  0  0  0  0  0  0  0  0  0
   48.1025  -11.4305   -5.3489 C   0  0  0  0  0  0  0  0  0  0  0  0
   48.4092  -11.4995   -6.5683 O   0  0  0  0  0  0  0  0  0  0  0  0
   46.7982  -10.8871   -4.8890 C   0  0  0  0  0  0  0  0  0  0  0  0
   46.1130  -10.2450   -6.0775 C   0  0  2  0  0  0  0  0  0  0  0  0
   45.5105   -8.9883   -5.6569 N   0  0  0  0  0  0  0  0  0  0  0  0
   45.0068  -11.1050   -6.5904 C   0  0  0  0  0  0  0  0  0  0  0  0
   43.9762  -11.3658   -5.9031 O   0  0  0  0  0  0  0  0  0  0  0  0
   45.1264  -11.6371   -7.8816 N   0  0  0  0  0  0  0  0  0  0  0  0
   44.0804  -12.5150   -8.4734 C   0  0  1  0  0  0  0  0  0  0  0  0
   43.5486  -11.6318   -9.6093 C   0  0  0  0  0  0  0  0  0  0  0  0
   42.5601  -12.2527  -10.4688 C   0  0  0  0  0  0  0  0  0  0  0  0
   42.6783  -12.0385  -11.7247 O   0  0  0  0  0  0  0  0  0  0  0  0
   44.7549  -13.7325   -8.9625 C   0  0  0  0  0  0  0  0  0  0  0  0
   45.8462  -13.5814   -9.6221 O   0  0  0  0  0  0  0  0  0  0  0  0
   41.4992  -13.0538  -10.0835 O   0  0  0  0  0  0  0  0  0  0  0  0
   44.3217  -15.0606   -8.7735 N   0  0  0  0  0  0  0  0  0  0  0  0
   43.2921  -15.4761   -7.8414 C   0  0  0  0  0  0  0  0  0  0  0  0
   43.7253  -16.9021   -7.4573 C   0  0  0  0  0  0  0  0  0  0  0  0
   44.1133  -17.3997   -8.8582 C   0  0  0  0  0  0  0  0  0  0  0  0
   44.8389  -16.2276   -9.4136 C   0  0  1  0  0  0  0  0  0  0  0  0
   44.7857  -16.1526  -10.8937 C   0  0  0  0  0  0  0  0  0  0  0  0
   45.4511  -16.8611  -11.6579 O   0  0  0  0  0  0  0  0  0  0  0  0
   43.9177  -15.2101  -11.4478 O   0  0  0  0  0  0  0  0  0  0  0  0
  2  4  1  0
  2  1  1  0
  3  2  2  0
  4  5  1  0
  5  7  1  0
  5  6  1  1
  7  8  2  0
  9 10  1  0
  9  7  1  0
 10 14  1  0
 10 11  1  6
 12 11  1  0
 12 13  2  0
 14 15  2  0
 14 17  1  0
 16 12  1  0
 17 21  1  0
 17 18  1  0
 18 19  1  0
 19 20  1  0
 21 20  1  0
 21 22  1  6
 23 22  2  0
 24 22  1  0
M  END
$$$$
