NDP.pdb
     RDKit          3D

 24 24  0  0  1  0  0  0  0  0999 V2000
   16.6097  -13.7744  -14.1693 N   0  0  0  0  0  0  0  0  0  0  0  0
   17.7096  -13.1397  -14.7893 C   0  0  0  0  0  0  0  0  0  0  0  0
   18.6182  -13.8783  -15.2524 O   0  0  0  0  0  0  0  0  0  0  0  0
   17.7696  -11.6577  -14.8793 C   0  0  0  0  0  0  0  0  0  0  0  0
   16.4898  -11.1005  -14.2909 C   0  0  2  0  0  0  0  0  0  0  0  0
   15.4174  -11.2429  -15.2650 N   0  0  0  0  0  0  0  0  0  0  0  0
   16.6206   -9.6427  -14.0013 C   0  0  0  0  0  0  0  0  0  0  0  0
   16.2132   -8.7526  -14.8040 O   0  0  0  0  0  0  0  0  0  0  0  0
   17.2185   -9.2590  -12.7930 N   0  0  0  0  0  0  0  0  0  0  0  0
   17.4274   -7.8296  -12.4349 C   0  0  1  0  0  0  0  0  0  0  0  0
   17.3020   -7.8770  -10.9068 C   0  0  0  0  0  0  0  0  0  0  0  0
   17.4901   -6.6101  -10.2280 C   0  0  0  0  0  0  0  0  0  0  0  0
   17.6606   -5.5825  -10.9710 O   0  0  0  0  0  0  0  0  0  0  0  0
   18.7815   -7.4576  -12.8870 C   0  0  0  0  0  0  0  0  0  0  0  0
   19.7524   -8.2255  -12.5456 O   0  0  0  0  0  0  0  0  0  0  0  0
   17.5063   -6.3852   -8.8624 O   0  0  0  0  0  0  0  0  0  0  0  0
   19.1223   -6.3351  -13.6686 N   0  0  0  0  0  0  0  0  0  0  0  0
   18.1738   -5.4718  -14.3445 C   0  0  0  0  0  0  0  0  0  0  0  0
   18.9626   -4.9811  -15.5714 C   0  0  0  0  0  0  0  0  0  0  0  0
   20.3023   -4.6989  -14.8740 C   0  0  0  0  0  0  0  0  0  0  0  0
   20.4388   -5.8761  -13.9771 C   0  0  1  0  0  0  0  0  0  0  0  0
   21.2582   -5.6028  -12.7716 C   0  0  0  0  0  0  0  0  0  0  0  0
   20.8368   -5.6477  -11.6100 O   0  0  0  0  0  0  0  0  0  0  0  0
   22.5985   -5.2731  -12.9802 O   0  0  0  0  0  0  0  0  0  0  0  0
  2  4  1  0
  2  1  1  0
  3  2  2  0
  4  5  1  0
  5  7  1  0
  5  6  1  6
  7  8  2  0
  9 10  1  0
  9  7  1  0
 10 14  1  0
 10 11  1  1
 12 11  1  0
 12 13  2  0
 14 15  2  0
 14 17  1  0
 16 12  1  0
 17 21  1  0
 17 18  1  0
 18 19  1  0
 19 20  1  0
 21 20  1  0
 21 22  1  1
 23 22  2  0
 24 22  1  0
M  END
$$$$
