NDP.pdb
     RDKit          3D

 24 24  0  0  1  0  0  0  0  0999 V2000
   13.7840  -20.9249    2.6652 N   0  0  0  0  0  0  0  0  0  0  0  0
   15.0932  -20.7172    2.1755 C   0  0  0  0  0  0  0  0  0  0  0  0
   15.3575  -19.5846    1.6928 O   0  0  0  0  0  0  0  0  0  0  0  0
   16.1012  -21.8071    2.2384 C   0  0  0  0  0  0  0  0  0  0  0  0
   15.4338  -23.0284    2.8365 C   0  0  2  0  0  0  0  0  0  0  0  0
   15.7125  -23.0706    4.2647 N   0  0  0  0  0  0  0  0  0  0  0  0
   15.9860  -24.2846    2.2506 C   0  0  0  0  0  0  0  0  0  0  0  0
   17.1823  -24.6526    2.4399 O   0  0  0  0  0  0  0  0  0  0  0  0
   15.1381  -25.0764    1.4640 N   0  0  0  0  0  0  0  0  0  0  0  0
   15.5827  -26.3726    0.8832 C   0  0  1  0  0  0  0  0  0  0  0  0
   14.2898  -27.1954    0.9495 C   0  0  0  0  0  0  0  0  0  0  0  0
   14.4156  -28.5839    0.5521 C   0  0  0  0  0  0  0  0  0  0  0  0
   15.2373  -29.2990    1.2233 O   0  0  0  0  0  0  0  0  0  0  0  0
   16.0216  -26.1059   -0.4998 C   0  0  0  0  0  0  0  0  0  0  0  0
   15.4166  -25.1749   -1.1447 O   0  0  0  0  0  0  0  0  0  0  0  0
   13.7453  -29.2258   -0.4746 O   0  0  0  0  0  0  0  0  0  0  0  0
   17.0523  -26.7730   -1.1924 N   0  0  0  0  0  0  0  0  0  0  0  0
   17.9396  -27.7626   -0.6137 C   0  0  0  0  0  0  0  0  0  0  0  0
   19.2355  -27.5848   -1.4247 C   0  0  0  0  0  0  0  0  0  0  0  0
   18.6060  -27.4508   -2.8199 C   0  0  0  0  0  0  0  0  0  0  0  0
   17.4412  -26.5678   -2.5509 C   0  0  1  0  0  0  0  0  0  0  0  0
   16.3273  -26.7579   -3.5113 C   0  0  0  0  0  0  0  0  0  0  0  0
   15.3860  -27.5433   -3.3498 O   0  0  0  0  0  0  0  0  0  0  0  0
   16.3582  -25.9878   -4.6752 O   0  0  0  0  0  0  0  0  0  0  0  0
  2  4  1  0
  2  1  1  0
  3  2  2  0
  4  5  1  0
  5  7  1  0
  5  6  1  1
  7  8  2  0
  9 10  1  0
  9  7  1  0
 10 14  1  0
 10 11  1  6
 12 11  1  0
 12 13  2  0
 14 15  2  0
 14 17  1  0
 16 12  1  0
 17 21  1  0
 17 18  1  0
 18 19  1  0
 19 20  1  0
 21 20  1  0
 21 22  1  6
 23 22  2  0
 24 22  1  0
M  END
$$$$
