NDP.pdb
     RDKit          3D

 24 24  0  0  1  0  0  0  0  0999 V2000
   14.6577   -5.1271  -10.5355 N   0  0  0  0  0  0  0  0  0  0  0  0
   15.4148   -5.0604   -9.3441 C   0  0  0  0  0  0  0  0  0  0  0  0
   15.6668   -3.9165   -8.8820 O   0  0  0  0  0  0  0  0  0  0  0  0
   15.8839   -6.3046   -8.6808 C   0  0  0  0  0  0  0  0  0  0  0  0
   15.3737   -7.4840   -9.4829 C   0  0  2  0  0  0  0  0  0  0  0  0
   14.8225   -8.4760   -8.5711 N   0  0  0  0  0  0  0  0  0  0  0  0
   16.4830   -8.1491  -10.2268 C   0  0  0  0  0  0  0  0  0  0  0  0
   17.4929   -8.6400   -9.6423 O   0  0  0  0  0  0  0  0  0  0  0  0
   16.3906   -8.2259  -11.6233 N   0  0  0  0  0  0  0  0  0  0  0  0
   17.4230   -8.9133  -12.4459 C   0  0  1  0  0  0  0  0  0  0  0  0
   16.5570   -9.6011  -13.5089 C   0  0  0  0  0  0  0  0  0  0  0  0
   16.4098  -11.0353  -13.3582 C   0  0  0  0  0  0  0  0  0  0  0  0
   17.0407  -11.5762  -12.3853 O   0  0  0  0  0  0  0  0  0  0  0  0
   18.3008   -7.8701  -13.0095 C   0  0  0  0  0  0  0  0  0  0  0  0
   17.7567   -6.7581  -13.3506 O   0  0  0  0  0  0  0  0  0  0  0  0
   15.6616  -11.8889  -14.1502 O   0  0  0  0  0  0  0  0  0  0  0  0
   19.6927   -7.9683  -13.2099 N   0  0  0  0  0  0  0  0  0  0  0  0
   20.5285   -9.0523  -12.7325 C   0  0  0  0  0  0  0  0  0  0  0  0
   21.8878   -8.3683  -12.5021 C   0  0  0  0  0  0  0  0  0  0  0  0
   21.9272   -7.5192  -13.7821 C   0  0  0  0  0  0  0  0  0  0  0  0
   20.5316   -7.0147  -13.8626 C   0  0  1  0  0  0  0  0  0  0  0  0
   20.0980   -6.7080  -15.2471 C   0  0  0  0  0  0  0  0  0  0  0  0
   19.4134   -7.4585  -15.9521 O   0  0  0  0  0  0  0  0  0  0  0  0
   20.4992   -5.4806  -15.7776 O   0  0  0  0  0  0  0  0  0  0  0  0
  2  4  1  0
  2  1  1  0
  3  2  2  0
  4  5  1  0
  5  7  1  0
  5  6  1  1
  7  8  2  0
  9 10  1  0
  9  7  1  0
 10 14  1  0
 10 11  1  6
 12 11  1  0
 12 13  2  0
 14 15  2  0
 14 17  1  0
 16 12  1  0
 17 21  1  0
 17 18  1  0
 18 19  1  0
 19 20  1  0
 21 20  1  0
 21 22  1  6
 23 22  2  0
 24 22  1  0
M  END
$$$$
