NDP.pdb
     RDKit          3D

 24 24  0  0  1  0  0  0  0  0999 V2000
   24.9903  -14.0872  -14.5960 N   0  0  0  0  0  0  0  0  0  0  0  0
   25.5301  -13.2444  -15.5936 C   0  0  0  0  0  0  0  0  0  0  0  0
   26.7271  -13.4410  -15.9316 O   0  0  0  0  0  0  0  0  0  0  0  0
   24.6989  -12.1753  -16.2053 C   0  0  0  0  0  0  0  0  0  0  0  0
   23.3089  -12.2644  -15.6098 C   0  0  2  0  0  0  0  0  0  0  0  0
   22.6972  -13.5212  -16.0169 N   0  0  0  0  0  0  0  0  0  0  0  0
   22.4327  -11.1708  -16.1223 C   0  0  0  0  0  0  0  0  0  0  0  0
   21.6699  -11.3244  -17.1208 O   0  0  0  0  0  0  0  0  0  0  0  0
   22.4657   -9.9333  -15.4647 N   0  0  0  0  0  0  0  0  0  0  0  0
   21.5304   -8.8294  -15.8131 C   0  0  1  0  0  0  0  0  0  0  0  0
   20.2161   -9.3424  -15.2110 C   0  0  0  0  0  0  0  0  0  0  0  0
   19.2141   -9.7613  -16.1712 C   0  0  0  0  0  0  0  0  0  0  0  0
   18.5715  -10.8332  -15.8970 O   0  0  0  0  0  0  0  0  0  0  0  0
   22.0261   -7.6086  -15.1495 C   0  0  0  0  0  0  0  0  0  0  0  0
   22.3784   -7.7044  -13.9184 O   0  0  0  0  0  0  0  0  0  0  0  0
   18.8727   -9.1311  -17.3552 O   0  0  0  0  0  0  0  0  0  0  0  0
   22.1590   -6.3339  -15.7365 N   0  0  0  0  0  0  0  0  0  0  0  0
   21.9275   -6.0332  -17.1357 C   0  0  0  0  0  0  0  0  0  0  0  0
   22.8885   -4.8611  -17.4033 C   0  0  0  0  0  0  0  0  0  0  0  0
   22.6259   -4.0625  -16.1172 C   0  0  0  0  0  0  0  0  0  0  0  0
   22.5860   -5.1350  -15.0891 C   0  0  1  0  0  0  0  0  0  0  0  0
   21.7605   -4.7845  -13.9080 C   0  0  0  0  0  0  0  0  0  0  0  0
   20.6324   -5.2363  -13.6796 O   0  0  0  0  0  0  0  0  0  0  0  0
   22.3104   -3.8790  -12.9990 O   0  0  0  0  0  0  0  0  0  0  0  0
  2  4  1  0
  2  1  1  0
  3  2  2  0
  4  5  1  0
  5  7  1  0
  5  6  1  6
  7  8  2  0
  9 10  1  0
  9  7  1  0
 10 14  1  0
 10 11  1  1
 12 11  1  0
 12 13  2  0
 14 15  2  0
 14 17  1  0
 16 12  1  0
 17 21  1  0
 17 18  1  0
 18 19  1  0
 19 20  1  0
 21 20  1  0
 21 22  1  1
 23 22  2  0
 24 22  1  0
M  END
$$$$
