NDP.pdb
     RDKit          3D

 24 24  0  0  1  0  0  0  0  0999 V2000
   19.0937  -21.9282  -16.7982 N   0  0  0  0  0  0  0  0  0  0  0  0
   20.0918  -22.1423  -15.8209 C   0  0  0  0  0  0  0  0  0  0  0  0
   20.0227  -23.2031  -15.1460 O   0  0  0  0  0  0  0  0  0  0  0  0
   21.1703  -21.1409  -15.6159 C   0  0  0  0  0  0  0  0  0  0  0  0
   21.3270  -20.9199  -14.1255 C   0  0  2  0  0  0  0  0  0  0  0  0
   20.3146  -19.9752  -13.6762 N   0  0  0  0  0  0  0  0  0  0  0  0
   22.6538  -20.3159  -13.8076 C   0  0  0  0  0  0  0  0  0  0  0  0
   22.8762  -19.0741  -13.9120 O   0  0  0  0  0  0  0  0  0  0  0  0
   23.6824  -21.1662  -13.3791 N   0  0  0  0  0  0  0  0  0  0  0  0
   25.0481  -20.6604  -13.0722 C   0  0  1  0  0  0  0  0  0  0  0  0
   25.4826  -21.6162  -11.9539 C   0  0  0  0  0  0  0  0  0  0  0  0
   25.1172  -21.2093  -10.6114 C   0  0  0  0  0  0  0  0  0  0  0  0
   24.3263  -20.2084  -10.5121 O   0  0  0  0  0  0  0  0  0  0  0  0
   25.8561  -20.8079  -14.2977 C   0  0  0  0  0  0  0  0  0  0  0  0
   25.6574  -21.8532  -15.0166 O   0  0  0  0  0  0  0  0  0  0  0  0
   25.5284  -21.7826   -9.4206 O   0  0  0  0  0  0  0  0  0  0  0  0
   26.8319  -19.9061  -14.7685 N   0  0  0  0  0  0  0  0  0  0  0  0
   27.1219  -18.6123  -14.1825 C   0  0  0  0  0  0  0  0  0  0  0  0
   27.5956  -17.7822  -15.3888 C   0  0  0  0  0  0  0  0  0  0  0  0
   28.4910  -18.8424  -16.0483 C   0  0  0  0  0  0  0  0  0  0  0  0
   27.6654  -20.0711  -15.9161 C   0  0  1  0  0  0  0  0  0  0  0  0
   28.4696  -21.3165  -15.8782 C   0  0  0  0  0  0  0  0  0  0  0  0
   28.6614  -21.9992  -14.8653 O   0  0  0  0  0  0  0  0  0  0  0  0
   29.0440  -21.7345  -17.0800 O   0  0  0  0  0  0  0  0  0  0  0  0
  2  4  1  0
  2  1  1  0
  3  2  2  0
  4  5  1  0
  5  7  1  0
  5  6  1  6
  7  8  2  0
  9 10  1  0
  9  7  1  0
 10 14  1  0
 10 11  1  1
 12 11  1  0
 12 13  2  0
 14 15  2  0
 14 17  1  0
 16 12  1  0
 17 21  1  0
 17 18  1  0
 18 19  1  0
 19 20  1  0
 21 20  1  0
 21 22  1  1
 23 22  2  0
 24 22  1  0
M  END
$$$$
