NDP.pdb
     RDKit          3D

 24 24  0  0  1  0  0  0  0  0999 V2000
   31.9072  -16.2200  -18.7714 N   0  0  0  0  0  0  0  0  0  0  0  0
   31.8878  -17.5855  -19.1344 C   0  0  0  0  0  0  0  0  0  0  0  0
   32.1340  -17.8682  -20.3366 O   0  0  0  0  0  0  0  0  0  0  0  0
   31.5862  -18.6289  -18.1203 C   0  0  0  0  0  0  0  0  0  0  0  0
   30.4449  -19.4757  -18.6447 C   0  0  2  0  0  0  0  0  0  0  0  0
   29.2002  -18.7333  -18.5074 N   0  0  0  0  0  0  0  0  0  0  0  0
   30.2926  -20.7272  -17.8466 C   0  0  0  0  0  0  0  0  0  0  0  0
   30.0042  -20.7147  -16.6141 O   0  0  0  0  0  0  0  0  0  0  0  0
   30.4786  -21.9543  -18.4981 N   0  0  0  0  0  0  0  0  0  0  0  0
   30.4161  -23.2513  -17.7709 C   0  0  1  0  0  0  0  0  0  0  0  0
   29.4354  -24.0435  -18.6448 C   0  0  0  0  0  0  0  0  0  0  0  0
   29.1086  -25.3718  -18.1650 C   0  0  0  0  0  0  0  0  0  0  0  0
   28.9821  -25.5080  -16.8991 O   0  0  0  0  0  0  0  0  0  0  0  0
   31.7764  -23.8222  -17.7747 C   0  0  0  0  0  0  0  0  0  0  0  0
   32.4709  -23.6923  -18.8469 O   0  0  0  0  0  0  0  0  0  0  0  0
   28.9171  -26.5134  -18.9238 O   0  0  0  0  0  0  0  0  0  0  0  0
   32.4012  -24.4994  -16.7078 N   0  0  0  0  0  0  0  0  0  0  0  0
   31.8888  -24.5724  -15.3537 C   0  0  0  0  0  0  0  0  0  0  0  0
   33.1670  -24.6799  -14.5032 C   0  0  0  0  0  0  0  0  0  0  0  0
   33.9285  -25.6894  -15.3761 C   0  0  0  0  0  0  0  0  0  0  0  0
   33.6541  -25.1834  -16.7463 C   0  0  1  0  0  0  0  0  0  0  0  0
   33.7089  -26.2414  -17.7839 C   0  0  0  0  0  0  0  0  0  0  0  0
   34.7505  -26.7467  -18.2186 O   0  0  0  0  0  0  0  0  0  0  0  0
   32.4895  -26.6879  -18.2961 O   0  0  0  0  0  0  0  0  0  0  0  0
  2  4  1  0
  2  1  1  0
  3  2  2  0
  4  5  1  0
  5  7  1  0
  5  6  1  1
  7  8  2  0
  9 10  1  0
  9  7  1  0
 10 14  1  0
 10 11  1  6
 12 11  1  0
 12 13  2  0
 14 15  2  0
 14 17  1  0
 16 12  1  0
 17 21  1  0
 17 18  1  0
 18 19  1  0
 19 20  1  0
 21 20  1  0
 21 22  1  6
 23 22  2  0
 24 22  1  0
M  END
$$$$
