NDP.pdb
     RDKit          3D

 24 24  0  0  1  0  0  0  0  0999 V2000
   13.6839   -9.1480   -8.7391 N   0  0  0  0  0  0  0  0  0  0  0  0
   13.6073  -10.1536   -9.7290 C   0  0  0  0  0  0  0  0  0  0  0  0
   12.7086  -11.0260   -9.5991 O   0  0  0  0  0  0  0  0  0  0  0  0
   14.5604  -10.1607  -10.8689 C   0  0  0  0  0  0  0  0  0  0  0  0
   15.5123   -8.9959  -10.6908 C   0  0  2  0  0  0  0  0  0  0  0  0
   14.7739   -7.7509  -10.8451 N   0  0  0  0  0  0  0  0  0  0  0  0
   16.5732   -9.0026  -11.7399 C   0  0  0  0  0  0  0  0  0  0  0  0
   17.3687   -9.9752  -11.8938 O   0  0  0  0  0  0  0  0  0  0  0  0
   16.6818   -7.8846  -12.5785 N   0  0  0  0  0  0  0  0  0  0  0  0
   17.7202   -7.7927  -13.6406 C   0  0  1  0  0  0  0  0  0  0  0  0
   16.8708   -7.4355  -14.8669 C   0  0  0  0  0  0  0  0  0  0  0  0
   16.1691   -8.5450  -15.4818 C   0  0  0  0  0  0  0  0  0  0  0  0
   14.9486   -8.3405  -15.8070 O   0  0  0  0  0  0  0  0  0  0  0  0
   18.6492   -6.7140  -13.2536 C   0  0  0  0  0  0  0  0  0  0  0  0
   18.1463   -5.6654  -12.7091 O   0  0  0  0  0  0  0  0  0  0  0  0
   16.6714   -9.8048  -15.7578 O   0  0  0  0  0  0  0  0  0  0  0  0
   20.0493   -6.7185  -13.4176 N   0  0  0  0  0  0  0  0  0  0  0  0
   20.8439   -7.8814  -13.7607 C   0  0  0  0  0  0  0  0  0  0  0  0
   22.1948   -7.5924  -13.0822 C   0  0  0  0  0  0  0  0  0  0  0  0
   22.3182   -6.1081  -13.4597 C   0  0  0  0  0  0  0  0  0  0  0  0
   20.9352   -5.6142  -13.2313 C   0  0  1  0  0  0  0  0  0  0  0  0
   20.5866   -4.4398  -14.0671 C   0  0  0  0  0  0  0  0  0  0  0  0
   19.8682   -4.4808  -15.0726 O   0  0  0  0  0  0  0  0  0  0  0  0
   21.1149   -3.2078  -13.6774 O   0  0  0  0  0  0  0  0  0  0  0  0
  2  4  1  0
  2  1  1  0
  3  2  2  0
  4  5  1  0
  5  7  1  0
  5  6  1  6
  7  8  2  0
  9 10  1  0
  9  7  1  0
 10 14  1  0
 10 11  1  6
 12 11  1  0
 12 13  2  0
 14 15  2  0
 14 17  1  0
 16 12  1  0
 17 21  1  0
 17 18  1  0
 18 19  1  0
 19 20  1  0
 21 20  1  0
 21 22  1  6
 23 22  2  0
 24 22  1  0
M  END
$$$$
