NDP.pdb
     RDKit          3D

 24 24  0  0  1  0  0  0  0  0999 V2000
   25.8123  -23.2383  -19.7737 N   0  0  0  0  0  0  0  0  0  0  0  0
   26.3417  -22.1640  -19.0236 C   0  0  0  0  0  0  0  0  0  0  0  0
   27.5491  -21.8632  -19.2167 O   0  0  0  0  0  0  0  0  0  0  0  0
   25.4881  -21.4330  -18.0515 C   0  0  0  0  0  0  0  0  0  0  0  0
   25.9798  -21.7616  -16.6569 C   0  0  2  0  0  0  0  0  0  0  0  0
   25.5680  -23.1152  -16.3144 N   0  0  0  0  0  0  0  0  0  0  0  0
   25.3684  -20.8536  -15.6429 C   0  0  0  0  0  0  0  0  0  0  0  0
   25.7922  -19.6777  -15.4424 O   0  0  0  0  0  0  0  0  0  0  0  0
   24.2864  -21.3333  -14.8920 N   0  0  0  0  0  0  0  0  0  0  0  0
   23.5269  -20.4605  -13.9558 C   0  0  1  0  0  0  0  0  0  0  0  0
   22.1984  -20.2943  -14.7045 C   0  0  0  0  0  0  0  0  0  0  0  0
   22.1767  -19.2477  -15.7073 C   0  0  0  0  0  0  0  0  0  0  0  0
   22.5353  -18.0807  -15.3243 O   0  0  0  0  0  0  0  0  0  0  0  0
   23.3809  -21.1999  -12.6876 C   0  0  0  0  0  0  0  0  0  0  0  0
   22.8253  -22.3566  -12.7363 O   0  0  0  0  0  0  0  0  0  0  0  0
   21.8106  -19.3681  -17.0366 O   0  0  0  0  0  0  0  0  0  0  0  0
   23.7980  -20.7639  -11.4136 N   0  0  0  0  0  0  0  0  0  0  0  0
   24.7359  -19.6861  -11.1681 C   0  0  0  0  0  0  0  0  0  0  0  0
   25.4097  -20.1048   -9.8492 C   0  0  0  0  0  0  0  0  0  0  0  0
   24.1535  -20.5730   -9.0986 C   0  0  0  0  0  0  0  0  0  0  0  0
   23.4229  -21.3222  -10.1540 C   0  0  1  0  0  0  0  0  0  0  0  0
   21.9553  -21.3513   -9.9431 C   0  0  0  0  0  0  0  0  0  0  0  0
   21.1375  -20.6965  -10.5999 O   0  0  0  0  0  0  0  0  0  0  0  0
   21.4794  -22.1820   -8.9272 O   0  0  0  0  0  0  0  0  0  0  0  0
  2  4  1  0
  2  1  1  0
  3  2  2  0
  4  5  1  0
  5  7  1  0
  5  6  1  1
  7  8  2  0
  9 10  1  0
  9  7  1  0
 10 14  1  0
 10 11  1  6
 12 11  1  0
 12 13  2  0
 14 15  2  0
 14 17  1  0
 16 12  1  0
 17 21  1  0
 17 18  1  0
 18 19  1  0
 19 20  1  0
 21 20  1  0
 21 22  1  1
 23 22  2  0
 24 22  1  0
M  END
$$$$
