GKR.pdb
     RDKit          3D

 25 24  0  0  1  0  0  0  0  0999 V2000
    3.9547  -20.0458   19.9500 N   0  0  0  0  0  0  0  0  0  0  0  0
    4.8232  -20.8482   20.7522 C   0  0  0  0  0  0  0  0  0  0  0  0
    5.2294  -20.2017   22.0036 C   0  0  0  0  0  0  0  0  0  0  0  0
    4.8044  -19.0650   22.3248 O   0  0  0  0  0  0  0  0  0  0  0  0
    6.1362  -20.8290   22.9355 N   0  0  0  0  0  0  0  0  0  0  0  0
    6.6271  -20.1276   24.0777 C   0  0  1  0  0  0  0  0  0  0  0  0
    7.1842  -21.0036   25.1347 C   0  0  0  0  0  0  0  0  0  0  0  0
    7.7635  -20.3531   26.3311 C   0  0  0  0  0  0  0  0  0  0  0  0
    8.3068  -21.2751   27.3775 C   0  0  0  0  0  0  0  0  0  0  0  0
    8.7562  -20.3830   28.5503 C   0  0  0  0  0  0  0  0  0  0  0  0
    9.3181  -21.3136   29.5252 N   0  0  0  0  0  0  0  0  0  0  0  0
    7.7814  -19.2502   23.6280 C   0  0  0  0  0  0  0  0  0  0  0  0
    8.5648  -19.6787   22.7598 O   0  0  0  0  0  0  0  0  0  0  0  0
    6.9203  -12.4069   19.2287 N   0  0  0  0  0  0  0  0  0  0  0  0
    8.0498  -13.2104   18.9219 C   0  0  0  0  0  0  0  0  0  0  0  0
    8.5159  -13.1626   17.7277 N   0  0  0  0  0  0  0  0  0  0  0  0
    8.6402  -14.0313   19.8916 N   0  0  0  0  0  0  0  0  0  0  0  0
    7.9589  -14.2000   21.1892 C   0  0  0  0  0  0  0  0  0  0  0  0
    8.7807  -15.1307   21.9915 C   0  0  0  0  0  0  0  0  0  0  0  0
    8.1725  -16.0485   22.9539 C   0  0  0  0  0  0  0  0  0  0  0  0
    8.9757  -17.0172   23.7525 C   0  0  2  0  0  0  0  0  0  0  0  0
    7.8996  -17.9845   24.2266 N   0  0  0  0  0  0  0  0  0  0  0  0
    9.5140  -16.5010   25.0102 C   0  0  0  0  0  0  0  0  0  0  0  0
   10.8144  -15.9482   25.0251 O   0  0  0  0  0  0  0  0  0  0  0  0
    8.9436  -16.4906   26.1078 O   0  0  0  0  0  0  0  0  0  0  0  0
  2  1  1  0
  3  4  2  0
  3  2  1  0
  5  3  1  0
  6  7  1  1
  6  5  1  0
  8  7  1  0
  9  8  1  0
 10  9  1  0
 11 10  1  0
 12 22  1  0
 12  6  1  0
 13 12  2  0
 15 14  1  0
 15 16  2  0
 17 15  1  0
 18 17  1  0
 19 20  1  0
 19 18  1  0
 21 22  1  0
 21 20  1  6
 23 24  1  0
 23 21  1  0
 25 23  2  0
M  END
$$$$
