GKR.pdb
     RDKit          3D

 25 24  0  0  1  0  0  0  0  0999 V2000
    2.5448  -24.6564   26.8765 N   0  0  0  0  0  0  0  0  0  0  0  0
    3.2742  -23.4477   26.6556 C   0  0  0  0  0  0  0  0  0  0  0  0
    4.7271  -23.6119   26.7618 C   0  0  0  0  0  0  0  0  0  0  0  0
    5.2365  -24.5464   27.4274 O   0  0  0  0  0  0  0  0  0  0  0  0
    5.6530  -22.7151   26.1116 N   0  0  0  0  0  0  0  0  0  0  0  0
    7.0640  -22.9058   26.2129 C   0  0  1  0  0  0  0  0  0  0  0  0
    7.8507  -22.1674   25.1976 C   0  0  0  0  0  0  0  0  0  0  0  0
    9.3030  -22.4417   25.1212 C   0  0  0  0  0  0  0  0  0  0  0  0
   10.0457  -21.7313   24.0330 C   0  0  0  0  0  0  0  0  0  0  0  0
   11.4918  -22.2604   24.0784 C   0  0  0  0  0  0  0  0  0  0  0  0
   12.2055  -21.4641   23.0841 N   0  0  0  0  0  0  0  0  0  0  0  0
    7.5157  -22.3567   27.5541 C   0  0  0  0  0  0  0  0  0  0  0  0
    7.0612  -21.2652   27.9452 O   0  0  0  0  0  0  0  0  0  0  0  0
    6.8358  -26.5573   34.8582 N   0  0  0  0  0  0  0  0  0  0  0  0
    7.7838  -25.5447   35.1605 C   0  0  0  0  0  0  0  0  0  0  0  0
    8.1602  -25.4173   36.3802 N   0  0  0  0  0  0  0  0  0  0  0  0
    8.2950  -24.7083   34.1595 N   0  0  0  0  0  0  0  0  0  0  0  0
    7.7272  -24.7983   32.8009 C   0  0  0  0  0  0  0  0  0  0  0  0
    8.4345  -23.8014   31.9694 C   0  0  0  0  0  0  0  0  0  0  0  0
    8.1534  -23.6630   30.5411 C   0  0  0  0  0  0  0  0  0  0  0  0
    8.8620  -22.6753   29.6788 C   0  0  2  0  0  0  0  0  0  0  0  0
    8.4345  -23.1254   28.2884 N   0  0  0  0  0  0  0  0  0  0  0  0
   10.3163  -22.8175   29.6246 C   0  0  0  0  0  0  0  0  0  0  0  0
   10.8886  -23.6477   28.6347 O   0  0  0  0  0  0  0  0  0  0  0  0
   11.1390  -22.2759   30.3730 O   0  0  0  0  0  0  0  0  0  0  0  0
  2  1  1  0
  3  4  2  0
  3  2  1  0
  5  3  1  0
  6  7  1  6
  6  5  1  0
  8  7  1  0
  9  8  1  0
 10  9  1  0
 11 10  1  0
 12 22  1  0
 12  6  1  0
 13 12  2  0
 15 14  1  0
 15 16  2  0
 17 15  1  0
 18 17  1  0
 19 20  1  0
 19 18  1  0
 21 22  1  0
 21 20  1  1
 23 24  1  0
 23 21  1  0
 25 23  2  0
M  END
$$$$
