GKR.pdb
     RDKit          3D

 25 24  0  0  1  0  0  0  0  0999 V2000
    5.4918  -19.7941   18.7620 N   0  0  0  0  0  0  0  0  0  0  0  0
    6.3948  -20.4476   19.6560 C   0  0  0  0  0  0  0  0  0  0  0  0
    6.3845  -19.8894   21.0116 C   0  0  0  0  0  0  0  0  0  0  0  0
    5.9174  -18.7489   21.2497 O   0  0  0  0  0  0  0  0  0  0  0  0
    6.9071  -20.6130   22.1463 N   0  0  0  0  0  0  0  0  0  0  0  0
    6.8645  -20.0596   23.4614 C   0  0  1  0  0  0  0  0  0  0  0  0
    7.1809  -21.0272   24.5377 C   0  0  0  0  0  0  0  0  0  0  0  0
    6.1124  -21.9610   24.9577 C   0  0  0  0  0  0  0  0  0  0  0  0
    6.4780  -22.9278   26.0403 C   0  0  0  0  0  0  0  0  0  0  0  0
    5.2292  -23.7959   26.2860 C   0  0  0  0  0  0  0  0  0  0  0  0
    5.6314  -24.7293   27.3345 N   0  0  0  0  0  0  0  0  0  0  0  0
    7.9346  -18.9868   23.5530 C   0  0  0  0  0  0  0  0  0  0  0  0
    9.0772  -19.2337   23.1235 O   0  0  0  0  0  0  0  0  0  0  0  0
    8.0162  -11.7498   19.9858 N   0  0  0  0  0  0  0  0  0  0  0  0
    8.0792  -13.0885   19.5175 C   0  0  0  0  0  0  0  0  0  0  0  0
    8.5508  -13.2934   18.3422 N   0  0  0  0  0  0  0  0  0  0  0  0
    7.6409  -14.1558   20.3122 N   0  0  0  0  0  0  0  0  0  0  0  0
    7.2616  -13.8890   21.7126 C   0  0  0  0  0  0  0  0  0  0  0  0
    8.2176  -14.6243   22.5674 C   0  0  0  0  0  0  0  0  0  0  0  0
    7.7599  -15.4790   23.6621 C   0  0  0  0  0  0  0  0  0  0  0  0
    8.5721  -16.6150   24.1827 C   0  0  2  0  0  0  0  0  0  0  0  0
    7.5669  -17.7574   24.1253 N   0  0  0  0  0  0  0  0  0  0  0  0
    8.8998  -16.5528   25.6064 C   0  0  0  0  0  0  0  0  0  0  0  0
   10.1211  -15.9643   26.0048 O   0  0  0  0  0  0  0  0  0  0  0  0
    8.2072  -16.9716   26.5419 O   0  0  0  0  0  0  0  0  0  0  0  0
  2  1  1  0
  3  4  2  0
  3  2  1  0
  5  3  1  0
  6  7  1  1
  6  5  1  0
  8  7  1  0
  9  8  1  0
 10  9  1  0
 11 10  1  0
 12 22  1  0
 12  6  1  0
 13 12  2  0
 15 14  1  0
 15 16  2  0
 17 15  1  0
 18 17  1  0
 19 20  1  0
 19 18  1  0
 21 22  1  0
 21 20  1  1
 23 24  1  0
 23 21  1  0
 25 23  2  0
M  END
$$$$
