GKR.pdb
     RDKit          3D

 25 24  0  0  1  0  0  0  0  0999 V2000
    4.5123  -19.8875   23.3262 N   0  0  0  0  0  0  0  0  0  0  0  0
    5.5067  -19.5301   24.2880 C   0  0  0  0  0  0  0  0  0  0  0  0
    6.1071  -18.2141   24.0494 C   0  0  0  0  0  0  0  0  0  0  0  0
    6.0577  -17.6633   22.9225 O   0  0  0  0  0  0  0  0  0  0  0  0
    6.7864  -17.4777   25.0888 N   0  0  0  0  0  0  0  0  0  0  0  0
    7.4230  -16.2293   24.8173 C   0  0  1  0  0  0  0  0  0  0  0  0
    7.5619  -15.3487   26.0007 C   0  0  0  0  0  0  0  0  0  0  0  0
    6.9141  -14.0192   25.9473 C   0  0  0  0  0  0  0  0  0  0  0  0
    7.0605  -13.1715   27.1722 C   0  0  0  0  0  0  0  0  0  0  0  0
    6.2655  -11.8797   26.9028 C   0  0  0  0  0  0  0  0  0  0  0  0
    6.3257  -11.1423   28.1617 N   0  0  0  0  0  0  0  0  0  0  0  0
    8.8407  -16.5168   24.3569 C   0  0  0  0  0  0  0  0  0  0  0  0
    9.4905  -17.4153   24.9239 O   0  0  0  0  0  0  0  0  0  0  0  0
    7.5979  -12.9916   17.8540 N   0  0  0  0  0  0  0  0  0  0  0  0
    8.2652  -14.1588   17.3981 C   0  0  0  0  0  0  0  0  0  0  0  0
    8.0579  -14.5376   16.1902 N   0  0  0  0  0  0  0  0  0  0  0  0
    9.1251  -14.8773   18.2391 N   0  0  0  0  0  0  0  0  0  0  0  0
    9.2637  -14.4505   19.6444 C   0  0  0  0  0  0  0  0  0  0  0  0
   10.3053  -15.3037   20.2549 C   0  0  0  0  0  0  0  0  0  0  0  0
   10.7979  -15.0540   21.6089 C   0  0  0  0  0  0  0  0  0  0  0  0
   10.7023  -16.0704   22.6946 C   0  0  2  0  0  0  0  0  0  0  0  0
    9.3446  -15.7403   23.2999 N   0  0  0  0  0  0  0  0  0  0  0  0
   11.6094  -15.8710   23.8240 C   0  0  0  0  0  0  0  0  0  0  0  0
   11.1638  -15.1270   24.9396 O   0  0  0  0  0  0  0  0  0  0  0  0
   12.7681  -16.2928   23.9230 O   0  0  0  0  0  0  0  0  0  0  0  0
  2  1  1  0
  3  4  2  0
  3  2  1  0
  5  3  1  0
  6  7  1  1
  6  5  1  0
  8  7  1  0
  9  8  1  0
 10  9  1  0
 11 10  1  0
 12 22  1  0
 12  6  1  0
 13 12  2  0
 15 14  1  0
 15 16  2  0
 17 15  1  0
 18 17  1  0
 19 20  1  0
 19 18  1  0
 21 22  1  0
 21 20  1  6
 23 24  1  0
 23 21  1  0
 25 23  2  0
M  END
$$$$
