GKR.pdb
     RDKit          3D

 25 24  0  0  1  0  0  0  0  0999 V2000
    5.8108  -20.4068   19.8636 N   0  0  0  0  0  0  0  0  0  0  0  0
    5.3350  -19.1177   20.2553 C   0  0  0  0  0  0  0  0  0  0  0  0
    6.3786  -18.2517   20.8122 C   0  0  0  0  0  0  0  0  0  0  0  0
    7.5172  -18.6952   21.0996 O   0  0  0  0  0  0  0  0  0  0  0  0
    6.1612  -16.8464   21.0616 N   0  0  0  0  0  0  0  0  0  0  0  0
    7.1972  -16.0188   21.5900 C   0  0  1  0  0  0  0  0  0  0  0  0
    7.1844  -14.6287   21.0777 C   0  0  0  0  0  0  0  0  0  0  0  0
    7.4187  -14.4280   19.6303 C   0  0  0  0  0  0  0  0  0  0  0  0
    8.0003  -13.1053   19.2398 C   0  0  0  0  0  0  0  0  0  0  0  0
    8.0411  -13.0873   17.7000 C   0  0  0  0  0  0  0  0  0  0  0  0
    8.4361  -11.7235   17.3590 N   0  0  0  0  0  0  0  0  0  0  0  0
    6.9840  -15.9008   23.0884 C   0  0  0  0  0  0  0  0  0  0  0  0
    5.8265  -15.7583   23.5255 O   0  0  0  0  0  0  0  0  0  0  0  0
   11.5243  -15.9346   29.2161 N   0  0  0  0  0  0  0  0  0  0  0  0
   11.3106  -17.2417   29.7271 C   0  0  0  0  0  0  0  0  0  0  0  0
   12.0191  -17.6203   30.7272 N   0  0  0  0  0  0  0  0  0  0  0  0
   10.3553  -18.0947   29.1591 N   0  0  0  0  0  0  0  0  0  0  0  0
   10.2511  -18.1651   27.6893 C   0  0  0  0  0  0  0  0  0  0  0  0
    9.2836  -17.1274   27.2739 C   0  0  0  0  0  0  0  0  0  0  0  0
    8.9241  -16.9392   25.8690 C   0  0  0  0  0  0  0  0  0  0  0  0
    7.9765  -15.8796   25.4213 C   0  0  2  0  0  0  0  0  0  0  0  0
    8.1236  -15.9614   23.9080 N   0  0  0  0  0  0  0  0  0  0  0  0
    8.3895  -14.5061   25.7058 C   0  0  0  0  0  0  0  0  0  0  0  0
    7.8824  -13.8609   26.8563 O   0  0  0  0  0  0  0  0  0  0  0  0
    9.1610  -13.8129   25.0316 O   0  0  0  0  0  0  0  0  0  0  0  0
  2  1  1  0
  3  4  2  0
  3  2  1  0
  5  3  1  0
  6  7  1  6
  6  5  1  0
  8  7  1  0
  9  8  1  0
 10  9  1  0
 11 10  1  0
 12 22  1  0
 12  6  1  0
 13 12  2  0
 15 14  1  0
 15 16  2  0
 17 15  1  0
 18 17  1  0
 19 20  1  0
 19 18  1  0
 21 22  1  0
 21 20  1  1
 23 24  1  0
 23 21  1  0
 25 23  2  0
M  END
$$$$
