GKR.pdb
     RDKit          3D

 25 24  0  0  1  0  0  0  0  0999 V2000
    4.9623  -19.7881   24.0993 N   0  0  0  0  0  0  0  0  0  0  0  0
    5.6743  -19.0173   25.0691 C   0  0  0  0  0  0  0  0  0  0  0  0
    6.2281  -17.7695   24.5348 C   0  0  0  0  0  0  0  0  0  0  0  0
    6.1964  -17.5084   23.3073 O   0  0  0  0  0  0  0  0  0  0  0  0
    6.8387  -16.7728   25.3821 N   0  0  0  0  0  0  0  0  0  0  0  0
    7.5437  -15.6616   24.8293 C   0  0  1  0  0  0  0  0  0  0  0  0
    7.7960  -14.5634   25.7913 C   0  0  0  0  0  0  0  0  0  0  0  0
    6.6776  -13.6413   26.0898 C   0  0  0  0  0  0  0  0  0  0  0  0
    6.9482  -12.6021   27.1324 C   0  0  0  0  0  0  0  0  0  0  0  0
    5.6440  -11.7978   27.2915 C   0  0  0  0  0  0  0  0  0  0  0  0
    5.8750  -10.9507   28.4583 N   0  0  0  0  0  0  0  0  0  0  0  0
    8.9161  -16.1456   24.3972 C   0  0  0  0  0  0  0  0  0  0  0  0
    9.5653  -16.8844   25.1612 O   0  0  0  0  0  0  0  0  0  0  0  0
    8.8774  -13.9048   17.1553 N   0  0  0  0  0  0  0  0  0  0  0  0
    8.4992  -13.5229   18.4693 C   0  0  0  0  0  0  0  0  0  0  0  0
    8.2707  -12.2805   18.6927 N   0  0  0  0  0  0  0  0  0  0  0  0
    8.3778  -14.4715   19.4932 N   0  0  0  0  0  0  0  0  0  0  0  0
    8.6033  -15.8938   19.1734 C   0  0  0  0  0  0  0  0  0  0  0  0
    9.0566  -16.5505   20.4179 C   0  0  0  0  0  0  0  0  0  0  0  0
   10.3215  -16.1859   21.0548 C   0  0  0  0  0  0  0  0  0  0  0  0
   10.5815  -16.4138   22.5045 C   0  0  2  0  0  0  0  0  0  0  0  0
    9.3807  -15.7258   23.1394 N   0  0  0  0  0  0  0  0  0  0  0  0
   11.7071  -15.6683   23.0659 C   0  0  0  0  0  0  0  0  0  0  0  0
   13.0189  -16.1568   22.8729 O   0  0  0  0  0  0  0  0  0  0  0  0
   11.6453  -14.6182   23.7168 O   0  0  0  0  0  0  0  0  0  0  0  0
  2  1  1  0
  3  4  2  0
  3  2  1  0
  5  3  1  0
  6  7  1  1
  6  5  1  0
  8  7  1  0
  9  8  1  0
 10  9  1  0
 11 10  1  0
 12 22  1  0
 12  6  1  0
 13 12  2  0
 15 14  1  0
 15 16  2  0
 17 15  1  0
 18 17  1  0
 19 20  1  0
 19 18  1  0
 21 22  1  0
 21 20  1  6
 23 24  1  0
 23 21  1  0
 25 23  2  0
M  END
$$$$
