GKR.pdb
     RDKit          3D

 25 24  0  0  1  0  0  0  0  0999 V2000
    6.8435  -19.8461   18.0883 N   0  0  0  0  0  0  0  0  0  0  0  0
    7.7776  -19.0474   18.8171 C   0  0  0  0  0  0  0  0  0  0  0  0
    7.3683  -18.7809   20.1994 C   0  0  0  0  0  0  0  0  0  0  0  0
    6.4519  -17.9663   20.4685 O   0  0  0  0  0  0  0  0  0  0  0  0
    7.9899  -19.4349   21.3264 N   0  0  0  0  0  0  0  0  0  0  0  0
    7.5908  -19.1425   22.6653 C   0  0  1  0  0  0  0  0  0  0  0  0
    7.8672  -20.2302   23.6324 C   0  0  0  0  0  0  0  0  0  0  0  0
    7.0226  -21.4433   23.5616 C   0  0  0  0  0  0  0  0  0  0  0  0
    6.6738  -22.0741   24.8734 C   0  0  0  0  0  0  0  0  0  0  0  0
    5.8739  -23.3484   24.5426 C   0  0  0  0  0  0  0  0  0  0  0  0
    5.7029  -24.0188   25.8285 N   0  0  0  0  0  0  0  0  0  0  0  0
    8.4037  -17.9546   23.1475 C   0  0  0  0  0  0  0  0  0  0  0  0
    9.6460  -18.0403   23.1690 O   0  0  0  0  0  0  0  0  0  0  0  0
    9.5337  -13.9721   19.2977 N   0  0  0  0  0  0  0  0  0  0  0  0
    8.4453  -13.0640   19.3761 C   0  0  0  0  0  0  0  0  0  0  0  0
    8.0939  -12.4518   18.3050 N   0  0  0  0  0  0  0  0  0  0  0  0
    7.7730  -12.8411   20.5849 N   0  0  0  0  0  0  0  0  0  0  0  0
    8.3522  -13.3816   21.8294 C   0  0  0  0  0  0  0  0  0  0  0  0
    7.2285  -13.8902   22.6443 C   0  0  0  0  0  0  0  0  0  0  0  0
    7.4542  -14.5225   23.9434 C   0  0  0  0  0  0  0  0  0  0  0  0
    8.4428  -15.6207   24.1371 C   0  0  2  0  0  0  0  0  0  0  0  0
    7.6954  -16.8087   23.5469 N   0  0  0  0  0  0  0  0  0  0  0  0
    8.6561  -16.0372   25.5224 C   0  0  0  0  0  0  0  0  0  0  0  0
    9.7262  -15.4724   26.2523 O   0  0  0  0  0  0  0  0  0  0  0  0
    7.9843  -16.8591   26.1575 O   0  0  0  0  0  0  0  0  0  0  0  0
  2  1  1  0
  3  4  2  0
  3  2  1  0
  5  3  1  0
  6  7  1  1
  6  5  1  0
  8  7  1  0
  9  8  1  0
 10  9  1  0
 11 10  1  0
 12 22  1  0
 12  6  1  0
 13 12  2  0
 15 14  1  0
 15 16  2  0
 17 15  1  0
 18 17  1  0
 19 20  1  0
 19 18  1  0
 21 22  1  0
 21 20  1  1
 23 24  1  0
 23 21  1  0
 25 23  2  0
M  END
$$$$
