YRR.pdb
     RDKit          3D

 35 35  0  0  1  0  0  0  0  0999 V2000
    6.2319  -11.4914   19.4797 O   0  0  0  0  0  0  0  0  0  0  0  0
    6.8803  -12.5597   20.0864 C   0  0  0  0  0  0  0  0  0  0  0  0
    8.2575  -12.5639   20.1882 C   0  0  0  0  0  0  0  0  0  0  0  0
    8.8780  -13.6344   20.7943 C   0  0  0  0  0  0  0  0  0  0  0  0
    8.1292  -14.6604   21.2781 C   0  0  0  0  0  0  0  0  0  0  0  0
    8.7889  -15.8098   21.9273 C   0  0  0  0  0  0  0  0  0  0  0  0
    9.0514  -16.8584   20.8392 C   0  0  2  0  0  0  0  0  0  0  0  0
    7.8276  -17.4084   20.3482 N   0  0  0  0  0  0  0  0  0  0  0  0
    9.9740  -17.8517   21.4274 C   0  0  0  0  0  0  0  0  0  0  0  0
    9.5406  -18.6433   22.2744 O   0  0  0  0  0  0  0  0  0  0  0  0
    6.7594  -14.6711   21.1846 C   0  0  0  0  0  0  0  0  0  0  0  0
    6.1134  -13.6125   20.5829 C   0  0  0  0  0  0  0  0  0  0  0  0
   17.3444  -18.7219   17.5278 N   0  0  0  0  0  0  0  0  0  0  0  0
   16.1748  -19.2588   16.9520 C   0  0  0  0  0  0  0  0  0  0  0  0
   16.2782  -19.6736   15.7134 N   0  0  0  0  0  0  0  0  0  0  0  0
   14.9456  -19.3569   17.6436 N   0  0  0  0  0  0  0  0  0  0  0  0
   14.9504  -19.0140   19.0653 C   0  0  0  0  0  0  0  0  0  0  0  0
   13.5565  -19.2102   19.6565 C   0  0  0  0  0  0  0  0  0  0  0  0
   13.6247  -18.7920   21.1070 C   0  0  0  0  0  0  0  0  0  0  0  0
   12.2609  -18.8457   21.7656 C   0  0  2  0  0  0  0  0  0  0  0  0
   11.3607  -17.9592   21.0752 N   0  0  0  0  0  0  0  0  0  0  0  0
   12.4338  -18.4325   23.2032 C   0  0  0  0  0  0  0  0  0  0  0  0
   12.1142  -17.2880   23.5982 O   0  0  0  0  0  0  0  0  0  0  0  0
   15.4606  -20.0510   15.1907 N   0  0  0  0  0  0  0  0  0  0  0  0
    6.4585  -18.7773   27.7232 C   0  0  0  0  0  0  0  0  0  0  0  0
    7.1729  -18.5349   26.4891 N   0  0  0  0  0  0  0  0  0  0  0  0
    6.5239  -18.3750   25.3930 N   0  0  0  0  0  0  0  0  0  0  0  0
    8.5868  -18.4751   26.4913 C   0  0  0  0  0  0  0  0  0  0  0  0
    9.3428  -19.5055   27.2391 C   0  0  0  0  0  0  0  0  0  0  0  0
   10.8018  -19.2379   27.1532 C   0  0  0  0  0  0  0  0  0  0  0  0
   11.3906  -19.2290   25.8349 C   0  0  1  0  0  0  0  0  0  0  0  0
   12.8337  -18.9891   25.6067 N   0  0  0  0  0  0  0  0  0  0  0  0
   12.9632  -19.3267   24.1471 C   0  0  0  0  0  0  0  0  0  0  0  0
   13.7935  -19.7619   26.3481 O   0  0  0  0  0  0  0  0  0  0  0  0
   14.0704  -20.9701   26.1926 O   0  0  0  0  0  0  0  0  0  0  0  0
  2  1  1  0
  2 12  2  0
  3  2  1  0
  4  3  2  0
  4  5  1  0
  5 11  2  0
  6  5  1  0
  7  6  1  0
  7  8  1  1
  9 21  1  0
  9  7  1  0
 10  9  2  0
 11 12  1  0
 14 13  1  0
 15 14  2  0
 16 14  1  0
 17 16  1  0
 18 17  1  0
 18 19  1  0
 20 19  1  6
 20 21  1  0
 22 20  1  0
 22 32  1  0
 23 22  2  0
 25 24  1  0
 26 25  2  0
 27 25  1  0
 28 27  1  0
 29 28  1  0
 30 29  1  0
 31 32  1  0
 31 30  1  6
 33 35  1  0
 33 31  1  0
 34 33  2  0
M  END
$$$$
