YRR.pdb
     RDKit          3D

 35 35  0  0  1  0  0  0  0  0999 V2000
    8.6617  -12.9529   16.1929 O   0  0  0  0  0  0  0  0  0  0  0  0
    8.3745  -13.1676   17.5350 C   0  0  0  0  0  0  0  0  0  0  0  0
    7.3323  -12.4887   18.1353 C   0  0  0  0  0  0  0  0  0  0  0  0
    7.0666  -12.7186   19.4675 C   0  0  0  0  0  0  0  0  0  0  0  0
    7.8291  -13.6031   20.1629 C   0  0  0  0  0  0  0  0  0  0  0  0
    7.5492  -13.8520   21.5902 C   0  0  0  0  0  0  0  0  0  0  0  0
    6.9682  -15.2672   21.7004 C   0  0  2  0  0  0  0  0  0  0  0  0
    5.6392  -15.3202   21.1787 N   0  0  0  0  0  0  0  0  0  0  0  0
    7.0820  -15.6583   23.1209 C   0  0  0  0  0  0  0  0  0  0  0  0
    6.2789  -15.1888   23.9373 O   0  0  0  0  0  0  0  0  0  0  0  0
    8.8685  -14.2856   19.5806 C   0  0  0  0  0  0  0  0  0  0  0  0
    9.1559  -14.0744   18.2492 C   0  0  0  0  0  0  0  0  0  0  0  0
    5.0529  -22.7500   24.8948 N   0  0  0  0  0  0  0  0  0  0  0  0
    5.9821  -22.6125   23.8434 C   0  0  0  0  0  0  0  0  0  0  0  0
    6.1103  -23.6449   23.0466 N   0  0  0  0  0  0  0  0  0  0  0  0
    6.7477  -21.4425   23.6342 N   0  0  0  0  0  0  0  0  0  0  0  0
    6.6567  -20.3947   24.6504 C   0  0  0  0  0  0  0  0  0  0  0  0
    7.5370  -19.2095   24.2615 C   0  0  0  0  0  0  0  0  0  0  0  0
    7.3026  -18.1248   25.2871 C   0  0  0  0  0  0  0  0  0  0  0  0
    8.1656  -16.9087   25.0169 C   0  0  2  0  0  0  0  0  0  0  0  0
    8.0787  -16.5603   23.6227 N   0  0  0  0  0  0  0  0  0  0  0  0
    9.5784  -17.2594   25.4021 C   0  0  0  0  0  0  0  0  0  0  0  0
   10.3467  -17.8474   24.6070 O   0  0  0  0  0  0  0  0  0  0  0  0
    6.7711  -23.6387   22.2421 N   0  0  0  0  0  0  0  0  0  0  0  0
    9.7658  -23.2192   30.8712 C   0  0  0  0  0  0  0  0  0  0  0  0
   10.8892  -22.3671   31.1940 N   0  0  0  0  0  0  0  0  0  0  0  0
   11.2771  -22.2512   32.4124 N   0  0  0  0  0  0  0  0  0  0  0  0
   11.5589  -21.6614   30.1663 C   0  0  0  0  0  0  0  0  0  0  0  0
   10.7539  -21.0000   29.1142 C   0  0  0  0  0  0  0  0  0  0  0  0
   11.0482  -19.5441   29.0790 C   0  0  0  0  0  0  0  0  0  0  0  0
   10.4477  -18.7790   28.0118 C   0  0  2  0  0  0  0  0  0  0  0  0
   11.1969  -17.7625   27.2389 N   0  0  0  0  0  0  0  0  0  0  0  0
   10.0762  -16.9344   26.6738 C   0  0  0  0  0  0  0  0  0  0  0  0
   12.0443  -18.1936   26.1599 O   0  0  0  0  0  0  0  0  0  0  0  0
   12.5628  -19.3205   26.0126 O   0  0  0  0  0  0  0  0  0  0  0  0
  2  1  1  0
  2 12  2  0
  3  2  1  0
  4  3  2  0
  4  5  1  0
  5 11  2  0
  6  5  1  0
  7  6  1  0
  7  8  1  1
  9 21  1  0
  9  7  1  0
 10  9  2  0
 11 12  1  0
 14 13  1  0
 15 14  2  0
 16 14  1  0
 17 16  1  0
 18 17  1  0
 18 19  1  0
 20 19  1  6
 20 21  1  0
 22 20  1  0
 22 32  1  0
 23 22  2  0
 25 24  1  0
 26 25  2  0
 27 25  1  0
 28 27  1  0
 29 28  1  0
 30 29  1  0
 31 32  1  0
 31 30  1  1
 33 35  1  0
 33 31  1  0
 34 33  2  0
M  END
$$$$
