YRR.pdb
     RDKit          3D

 35 35  0  0  1  0  0  0  0  0999 V2000
    4.8993  -10.3552   27.8134 O   0  0  0  0  0  0  0  0  0  0  0  0
    5.6259  -11.3618   27.1902 C   0  0  0  0  0  0  0  0  0  0  0  0
    6.8197  -11.7907   27.7359 C   0  0  0  0  0  0  0  0  0  0  0  0
    7.5224  -12.7907   27.0998 C   0  0  0  0  0  0  0  0  0  0  0  0
    7.0319  -13.3339   25.9544 C   0  0  0  0  0  0  0  0  0  0  0  0
    7.7810  -14.4044   25.2687 C   0  0  0  0  0  0  0  0  0  0  0  0
    6.8227  -15.5885   25.0901 C   0  0  2  0  0  0  0  0  0  0  0  0
    6.4596  -16.1519   26.3518 N   0  0  0  0  0  0  0  0  0  0  0  0
    7.4893  -16.5329   24.1694 C   0  0  0  0  0  0  0  0  0  0  0  0
    8.1057  -17.4961   24.6427 O   0  0  0  0  0  0  0  0  0  0  0  0
    5.8467  -12.9183   25.3994 C   0  0  0  0  0  0  0  0  0  0  0  0
    5.1238  -11.9196   26.0155 C   0  0  0  0  0  0  0  0  0  0  0  0
    8.5660  -13.4797   15.9718 N   0  0  0  0  0  0  0  0  0  0  0  0
    9.3299  -13.6239   17.1480 C   0  0  0  0  0  0  0  0  0  0  0  0
    9.6716  -12.5139   17.7550 N   0  0  0  0  0  0  0  0  0  0  0  0
    9.7219  -14.8787   17.6683 N   0  0  0  0  0  0  0  0  0  0  0  0
    8.7016  -15.6600   18.3664 C   0  0  0  0  0  0  0  0  0  0  0  0
    9.0990  -15.8544   19.8276 C   0  0  0  0  0  0  0  0  0  0  0  0
    8.0893  -16.7955   20.4427 C   0  0  0  0  0  0  0  0  0  0  0  0
    8.4124  -17.0856   21.8946 C   0  0  2  0  0  0  0  0  0  0  0  0
    7.4683  -16.4032   22.7406 N   0  0  0  0  0  0  0  0  0  0  0  0
    9.8169  -16.6073   22.1520 C   0  0  0  0  0  0  0  0  0  0  0  0
   10.0597  -15.4118   22.4346 O   0  0  0  0  0  0  0  0  0  0  0  0
   10.3330  -12.5092   18.5591 N   0  0  0  0  0  0  0  0  0  0  0  0
   10.6657  -19.3716   29.1999 C   0  0  0  0  0  0  0  0  0  0  0  0
   11.5245  -18.2241   29.0052 N   0  0  0  0  0  0  0  0  0  0  0  0
   11.5341  -17.2759   29.8708 N   0  0  0  0  0  0  0  0  0  0  0  0
   12.3526  -18.1475   27.8602 C   0  0  0  0  0  0  0  0  0  0  0  0
   11.8276  -18.6403   26.5664 C   0  0  0  0  0  0  0  0  0  0  0  0
   12.2163  -17.7186   25.4679 C   0  0  0  0  0  0  0  0  0  0  0  0
   11.7866  -18.0689   24.1346 C   0  0  2  0  0  0  0  0  0  0  0  0
   12.0999  -17.2372   22.9505 N   0  0  0  0  0  0  0  0  0  0  0  0
   10.9010  -17.4964   22.0806 C   0  0  0  0  0  0  0  0  0  0  0  0
   13.2904  -17.5214   22.1956 O   0  0  0  0  0  0  0  0  0  0  0  0
   14.4383  -17.0733   22.4009 O   0  0  0  0  0  0  0  0  0  0  0  0
  2  1  1  0
  2 12  2  0
  3  2  1  0
  4  3  2  0
  4  5  1  0
  5 11  2  0
  6  5  1  0
  7  6  1  0
  7  8  1  1
  9 21  1  0
  9  7  1  0
 10  9  2  0
 11 12  1  0
 14 13  1  0
 15 14  2  0
 16 14  1  0
 17 16  1  0
 18 17  1  0
 18 19  1  0
 20 19  1  6
 20 21  1  0
 22 20  1  0
 22 32  1  0
 23 22  2  0
 25 24  1  0
 26 25  2  0
 27 25  1  0
 28 27  1  0
 29 28  1  0
 30 29  1  0
 31 32  1  0
 31 30  1  1
 33 35  1  0
 33 31  1  0
 34 33  2  0
M  END
$$$$
