YRR.pdb
     RDKit          3D

 35 35  0  0  1  0  0  0  0  0999 V2000
    5.3902   -9.8610   26.3672 O   0  0  0  0  0  0  0  0  0  0  0  0
    6.0166  -11.1003   26.3302 C   0  0  0  0  0  0  0  0  0  0  0  0
    7.3285  -11.1986   25.9102 C   0  0  0  0  0  0  0  0  0  0  0  0
    7.9285  -12.4386   25.8824 C   0  0  0  0  0  0  0  0  0  0  0  0
    7.2239  -13.5358   26.2661 C   0  0  0  0  0  0  0  0  0  0  0  0
    7.8615  -14.8662   26.2372 C   0  0  0  0  0  0  0  0  0  0  0  0
    6.9450  -15.7931   25.4289 C   0  0  2  0  0  0  0  0  0  0  0  0
    6.2684  -16.7192   26.2810 N   0  0  0  0  0  0  0  0  0  0  0  0
    7.7916  -16.4226   24.3941 C   0  0  0  0  0  0  0  0  0  0  0  0
    8.3714  -17.4835   24.6589 O   0  0  0  0  0  0  0  0  0  0  0  0
    5.9191  -13.4546   26.6859 C   0  0  0  0  0  0  0  0  0  0  0  0
    5.2949  -12.2262   26.7234 C   0  0  0  0  0  0  0  0  0  0  0  0
    7.8201  -14.5936   16.0471 N   0  0  0  0  0  0  0  0  0  0  0  0
    8.1174  -13.7578   17.1430 C   0  0  0  0  0  0  0  0  0  0  0  0
    8.4506  -12.5237   16.8550 N   0  0  0  0  0  0  0  0  0  0  0  0
    8.0693  -14.1955   18.4865 N   0  0  0  0  0  0  0  0  0  0  0  0
    7.5657  -15.5466   18.7307 C   0  0  0  0  0  0  0  0  0  0  0  0
    7.4306  -15.7924   20.2315 C   0  0  0  0  0  0  0  0  0  0  0  0
    8.8183  -15.7084   20.8236 C   0  0  0  0  0  0  0  0  0  0  0  0
    8.9074  -16.4557   22.1389 C   0  0  2  0  0  0  0  0  0  0  0  0
    7.9883  -15.8749   23.0826 N   0  0  0  0  0  0  0  0  0  0  0  0
   10.3278  -16.3480   22.6274 C   0  0  0  0  0  0  0  0  0  0  0  0
   10.8185  -15.2499   22.9760 O   0  0  0  0  0  0  0  0  0  0  0  0
    8.7253  -11.8427   17.5932 N   0  0  0  0  0  0  0  0  0  0  0  0
    9.0314  -20.7625   25.9153 C   0  0  0  0  0  0  0  0  0  0  0  0
    9.9722  -20.1265   26.8112 N   0  0  0  0  0  0  0  0  0  0  0  0
    9.5903  -19.1542   27.5577 N   0  0  0  0  0  0  0  0  0  0  0  0
   11.3130  -20.5763   26.8632 C   0  0  0  0  0  0  0  0  0  0  0  0
   12.1865  -20.3510   25.6890 C   0  0  0  0  0  0  0  0  0  0  0  0
   11.9928  -18.9767   25.1586 C   0  0  0  0  0  0  0  0  0  0  0  0
   12.7138  -18.6297   23.9567 C   0  0  2  0  0  0  0  0  0  0  0  0
   12.5345  -17.3334   23.2644 N   0  0  0  0  0  0  0  0  0  0  0  0
   11.1470  -17.4854   22.7051 C   0  0  0  0  0  0  0  0  0  0  0  0
   13.4302  -16.9861   22.1942 O   0  0  0  0  0  0  0  0  0  0  0  0
   13.2562  -17.1804   20.9725 O   0  0  0  0  0  0  0  0  0  0  0  0
  2  1  1  0
  2 12  2  0
  3  2  1  0
  4  3  2  0
  4  5  1  0
  5 11  2  0
  6  5  1  0
  7  6  1  0
  7  8  1  1
  9 21  1  0
  9  7  1  0
 10  9  2  0
 11 12  1  0
 14 13  1  0
 15 14  2  0
 16 14  1  0
 17 16  1  0
 18 17  1  0
 18 19  1  0
 20 19  1  6
 20 21  1  0
 22 20  1  0
 22 32  1  0
 23 22  2  0
 25 24  1  0
 26 25  2  0
 27 25  1  0
 28 27  1  0
 29 28  1  0
 30 29  1  0
 31 32  1  0
 31 30  1  1
 33 35  1  0
 33 31  1  0
 34 33  2  0
M  END
$$$$
