YRR.pdb
     RDKit          3D

 35 35  0  0  1  0  0  0  0  0999 V2000
    8.0099  -11.3551   18.4548 O   0  0  0  0  0  0  0  0  0  0  0  0
    8.0771  -12.3702   19.4008 C   0  0  0  0  0  0  0  0  0  0  0  0
    6.9493  -12.7240   20.1151 C   0  0  0  0  0  0  0  0  0  0  0  0
    7.0407  -13.7340   21.0478 C   0  0  0  0  0  0  0  0  0  0  0  0
    8.2305  -14.3602   21.2472 C   0  0  0  0  0  0  0  0  0  0  0  0
    8.3338  -15.4418   22.2457 C   0  0  0  0  0  0  0  0  0  0  0  0
    8.2516  -16.7719   21.4865 C   0  0  2  0  0  0  0  0  0  0  0  0
    6.9135  -17.2722   21.4675 N   0  0  0  0  0  0  0  0  0  0  0  0
    9.2327  -17.6778   22.1194 C   0  0  0  0  0  0  0  0  0  0  0  0
    8.8506  -18.4436   23.0135 O   0  0  0  0  0  0  0  0  0  0  0  0
    9.3604  -14.0199   20.5453 C   0  0  0  0  0  0  0  0  0  0  0  0
    9.2968  -13.0130   19.6062 C   0  0  0  0  0  0  0  0  0  0  0  0
   14.7158  -19.9105   16.5931 N   0  0  0  0  0  0  0  0  0  0  0  0
   13.3160  -19.8998   16.4253 C   0  0  0  0  0  0  0  0  0  0  0  0
   12.8775  -20.1307   15.2123 N   0  0  0  0  0  0  0  0  0  0  0  0
   12.4108  -19.6563   17.4837 N   0  0  0  0  0  0  0  0  0  0  0  0
   12.9740  -19.5259   18.8270 C   0  0  0  0  0  0  0  0  0  0  0  0
   11.8654  -19.2278   19.8335 C   0  0  0  0  0  0  0  0  0  0  0  0
   12.5171  -19.1065   21.1914 C   0  0  0  0  0  0  0  0  0  0  0  0
   11.5075  -18.7443   22.2620 C   0  0  2  0  0  0  0  0  0  0  0  0
   10.6208  -17.7275   21.7594 N   0  0  0  0  0  0  0  0  0  0  0  0
   12.2736  -18.2524   23.4614 C   0  0  0  0  0  0  0  0  0  0  0  0
   12.7191  -17.0835   23.5191 O   0  0  0  0  0  0  0  0  0  0  0  0
   11.8627  -20.1034   14.9809 N   0  0  0  0  0  0  0  0  0  0  0  0
   12.9043  -21.1265   32.5468 C   0  0  0  0  0  0  0  0  0  0  0  0
   13.2346  -21.5937   31.2184 N   0  0  0  0  0  0  0  0  0  0  0  0
   13.1896  -22.8483   30.9500 N   0  0  0  0  0  0  0  0  0  0  0  0
   13.6080  -20.6669   30.2161 C   0  0  0  0  0  0  0  0  0  0  0  0
   12.6281  -20.3256   29.1599 C   0  0  0  0  0  0  0  0  0  0  0  0
   13.2337  -19.3890   28.1783 C   0  0  0  0  0  0  0  0  0  0  0  0
   12.7037  -19.4132   26.8353 C   0  0  1  0  0  0  0  0  0  0  0  0
   13.2152  -18.5343   25.7593 N   0  0  0  0  0  0  0  0  0  0  0  0
   12.5116  -19.0984   24.5561 C   0  0  0  0  0  0  0  0  0  0  0  0
   14.6291  -18.5047   25.4979 O   0  0  0  0  0  0  0  0  0  0  0  0
   15.2559  -19.1908   24.6631 O   0  0  0  0  0  0  0  0  0  0  0  0
  2  1  1  0
  2 12  2  0
  3  2  1  0
  4  3  2  0
  4  5  1  0
  5 11  2  0
  6  5  1  0
  7  6  1  0
  7  8  1  1
  9 21  1  0
  9  7  1  0
 10  9  2  0
 11 12  1  0
 14 13  1  0
 15 14  2  0
 16 14  1  0
 17 16  1  0
 18 17  1  0
 18 19  1  0
 20 19  1  6
 20 21  1  0
 22 20  1  0
 22 32  1  0
 23 22  2  0
 25 24  1  0
 26 25  2  0
 27 25  1  0
 28 27  1  0
 29 28  1  0
 30 29  1  0
 31 32  1  0
 31 30  1  1
 33 35  1  0
 33 31  1  0
 34 33  2  0
M  END
$$$$
