YRR.pdb
     RDKit          3D

 35 35  0  0  1  0  0  0  0  0999 V2000
   11.6164  -26.1439   17.0181 O   0  0  0  0  0  0  0  0  0  0  0  0
   10.7424  -26.8435   17.8405 C   0  0  0  0  0  0  0  0  0  0  0  0
   10.1432  -28.0014   17.3849 C   0  0  0  0  0  0  0  0  0  0  0  0
    9.2801  -28.6780   18.2190 C   0  0  0  0  0  0  0  0  0  0  0  0
    9.0353  -28.1977   19.4667 C   0  0  0  0  0  0  0  0  0  0  0  0
    8.1110  -28.9181   20.3635 C   0  0  0  0  0  0  0  0  0  0  0  0
    6.7104  -28.3350   20.1380 C   0  0  2  0  0  0  0  0  0  0  0  0
    6.4046  -28.2541   18.7447 N   0  0  0  0  0  0  0  0  0  0  0  0
    6.6765  -27.0385   20.8463 C   0  0  0  0  0  0  0  0  0  0  0  0
    7.0327  -26.0177   20.2439 O   0  0  0  0  0  0  0  0  0  0  0  0
    9.6230  -27.0483   19.9341 C   0  0  0  0  0  0  0  0  0  0  0  0
   10.4905  -26.3519   19.1203 C   0  0  0  0  0  0  0  0  0  0  0  0
    1.0104  -26.3450   26.8145 N   0  0  0  0  0  0  0  0  0  0  0  0
    0.6886  -26.4934   25.4499 C   0  0  0  0  0  0  0  0  0  0  0  0
   -0.5551  -26.8055   25.1799 N   0  0  0  0  0  0  0  0  0  0  0  0
    1.6302  -26.3234   24.4090 N   0  0  0  0  0  0  0  0  0  0  0  0
    3.0099  -26.0334   24.7979 C   0  0  0  0  0  0  0  0  0  0  0  0
    3.9020  -25.9747   23.5603 C   0  0  0  0  0  0  0  0  0  0  0  0
    5.2950  -25.6265   24.0310 C   0  0  0  0  0  0  0  0  0  0  0  0
    6.2827  -25.6123   22.8818 C   0  0  2  0  0  0  0  0  0  0  0  0
    6.2513  -26.8842   22.2080 N   0  0  0  0  0  0  0  0  0  0  0  0
    7.6463  -25.3364   23.4579 C   0  0  0  0  0  0  0  0  0  0  0  0
    8.5907  -26.1474   23.3216 O   0  0  0  0  0  0  0  0  0  0  0  0
   -0.9125  -26.8404   24.2027 N   0  0  0  0  0  0  0  0  0  0  0  0
   13.6439  -20.4935   21.8378 C   0  0  0  0  0  0  0  0  0  0  0  0
   14.3342  -21.6843   22.2825 N   0  0  0  0  0  0  0  0  0  0  0  0
   15.6159  -21.6928   22.3567 N   0  0  0  0  0  0  0  0  0  0  0  0
   13.5957  -22.8391   22.6345 C   0  0  0  0  0  0  0  0  0  0  0  0
   12.1297  -22.8387   22.4263 C   0  0  0  0  0  0  0  0  0  0  0  0
   11.4284  -23.1457   23.6996 C   0  0  0  0  0  0  0  0  0  0  0  0
   10.0756  -23.6408   23.6006 C   0  0  1  0  0  0  0  0  0  0  0  0
    9.2541  -23.9623   24.7896 N   0  0  0  0  0  0  0  0  0  0  0  0
    7.8974  -24.1528   24.1698 C   0  0  0  0  0  0  0  0  0  0  0  0
    9.1490  -22.9922   25.8460 O   0  0  0  0  0  0  0  0  0  0  0  0
    8.1935  -22.2184   26.0666 O   0  0  0  0  0  0  0  0  0  0  0  0
  2  1  1  0
  2 12  2  0
  3  2  1  0
  4  3  2  0
  4  5  1  0
  5 11  2  0
  6  5  1  0
  7  6  1  0
  7  8  1  6
  9 21  1  0
  9  7  1  0
 10  9  2  0
 11 12  1  0
 14 13  1  0
 15 14  2  0
 16 14  1  0
 17 16  1  0
 18 17  1  0
 18 19  1  0
 20 19  1  1
 20 21  1  0
 22 20  1  0
 22 32  1  0
 23 22  2  0
 25 24  1  0
 26 25  2  0
 27 25  1  0
 28 27  1  0
 29 28  1  0
 30 29  1  0
 31 32  1  0
 31 30  1  6
 33 35  1  0
 33 31  1  0
 34 33  2  0
M  END
$$$$
