YRR.pdb
     RDKit          3D

 35 35  0  0  1  0  0  0  0  0999 V2000
   17.0412  -18.8873    9.5278 O   0  0  0  0  0  0  0  0  0  0  0  0
   16.5827  -18.1739   10.6280 C   0  0  0  0  0  0  0  0  0  0  0  0
   15.6635  -17.1574   10.4576 C   0  0  0  0  0  0  0  0  0  0  0  0
   15.2234  -16.4642   11.5641 C   0  0  0  0  0  0  0  0  0  0  0  0
   15.6981  -16.7904   12.7952 C   0  0  0  0  0  0  0  0  0  0  0  0
   15.2307  -16.0504   13.9832 C   0  0  0  0  0  0  0  0  0  0  0  0
   14.3266  -16.9968   14.7828 C   0  0  2  0  0  0  0  0  0  0  0  0
   13.2030  -17.4146   14.0054 N   0  0  0  0  0  0  0  0  0  0  0  0
   13.9752  -16.2873   16.0305 C   0  0  0  0  0  0  0  0  0  0  0  0
   14.8848  -15.8902   16.7699 O   0  0  0  0  0  0  0  0  0  0  0  0
   16.6121  -17.7981   12.9810 C   0  0  0  0  0  0  0  0  0  0  0  0
   17.0689  -18.5075   11.8911 C   0  0  0  0  0  0  0  0  0  0  0  0
    6.1228  -13.5313   19.8858 N   0  0  0  0  0  0  0  0  0  0  0  0
    7.2114  -12.6420   19.9942 C   0  0  0  0  0  0  0  0  0  0  0  0
    6.9106  -11.3738   20.1289 N   0  0  0  0  0  0  0  0  0  0  0  0
    8.5611  -13.0621   19.9619 N   0  0  0  0  0  0  0  0  0  0  0  0
    9.0399  -13.6746   18.7232 C   0  0  0  0  0  0  0  0  0  0  0  0
   10.4816  -14.1467   18.8951 C   0  0  0  0  0  0  0  0  0  0  0  0
   10.8673  -14.8719   17.6268 C   0  0  0  0  0  0  0  0  0  0  0  0
   12.3245  -15.2876   17.6456 C   0  0  2  0  0  0  0  0  0  0  0  0
   12.6273  -16.0253   16.4469 N   0  0  0  0  0  0  0  0  0  0  0  0
   12.5402  -16.1333   18.8727 C   0  0  0  0  0  0  0  0  0  0  0  0
   11.9815  -17.2459   19.0072 O   0  0  0  0  0  0  0  0  0  0  0  0
    7.6434  -10.6343   20.1434 N   0  0  0  0  0  0  0  0  0  0  0  0
   19.9237  -16.5925   22.3665 C   0  0  0  0  0  0  0  0  0  0  0  0
   19.0147  -15.6556   22.9894 N   0  0  0  0  0  0  0  0  0  0  0  0
   19.4766  -14.6501   23.6405 N   0  0  0  0  0  0  0  0  0  0  0  0
   17.6170  -15.8490   22.8811 C   0  0  0  0  0  0  0  0  0  0  0  0
   17.1106  -17.1814   22.4803 C   0  0  0  0  0  0  0  0  0  0  0  0
   15.6250  -17.1830   22.4586 C   0  0  0  0  0  0  0  0  0  0  0  0
   14.9843  -16.5134   21.3513 C   0  0  1  0  0  0  0  0  0  0  0  0
   13.5205  -16.5535   21.1330 N   0  0  0  0  0  0  0  0  0  0  0  0
   13.3798  -15.6928   19.9080 C   0  0  0  0  0  0  0  0  0  0  0  0
   12.6497  -16.0458   22.1587 O   0  0  0  0  0  0  0  0  0  0  0  0
   12.1161  -14.9172   22.2041 O   0  0  0  0  0  0  0  0  0  0  0  0
  2  1  1  0
  2 12  2  0
  3  2  1  0
  4  3  2  0
  4  5  1  0
  5 11  2  0
  6  5  1  0
  7  6  1  0
  7  8  1  6
  9 21  1  0
  9  7  1  0
 10  9  2  0
 11 12  1  0
 14 13  1  0
 15 14  2  0
 16 14  1  0
 17 16  1  0
 18 17  1  0
 18 19  1  0
 20 19  1  6
 20 21  1  0
 22 20  1  0
 22 32  1  0
 23 22  2  0
 25 24  1  0
 26 25  2  0
 27 25  1  0
 28 27  1  0
 29 28  1  0
 30 29  1  0
 31 32  1  0
 31 30  1  6
 33 35  1  0
 33 31  1  0
 34 33  2  0
M  END
$$$$
