YRR.pdb
     RDKit          3D

 35 35  0  0  1  0  0  0  0  0999 V2000
    9.4870  -22.7366   14.3228 O   0  0  0  0  0  0  0  0  0  0  0  0
    9.6320  -21.9403   15.4517 C   0  0  0  0  0  0  0  0  0  0  0  0
    9.4201  -22.4764   16.7066 C   0  0  0  0  0  0  0  0  0  0  0  0
    9.5702  -21.6668   17.8114 C   0  0  0  0  0  0  0  0  0  0  0  0
    9.9217  -20.3641   17.6482 C   0  0  0  0  0  0  0  0  0  0  0  0
   10.0828  -19.4926   18.8281 C   0  0  0  0  0  0  0  0  0  0  0  0
   10.3706  -18.0769   18.3129 C   0  0  2  0  0  0  0  0  0  0  0  0
   11.5753  -18.0433   17.5455 N   0  0  0  0  0  0  0  0  0  0  0  0
   10.3765  -17.1925   19.4968 C   0  0  0  0  0  0  0  0  0  0  0  0
   11.4169  -17.0845   20.1582 O   0  0  0  0  0  0  0  0  0  0  0  0
   10.1358  -19.8163   16.4075 C   0  0  0  0  0  0  0  0  0  0  0  0
    9.9925  -20.6041   15.2855 C   0  0  0  0  0  0  0  0  0  0  0  0
    8.4543  -12.5415   15.6044 N   0  0  0  0  0  0  0  0  0  0  0  0
    8.1757  -13.4651   16.6325 C   0  0  0  0  0  0  0  0  0  0  0  0
    8.6305  -14.6812   16.4560 N   0  0  0  0  0  0  0  0  0  0  0  0
    7.4493  -13.1305   17.7985 N   0  0  0  0  0  0  0  0  0  0  0  0
    7.3920  -14.1347   18.8601 C   0  0  0  0  0  0  0  0  0  0  0  0
    8.1341  -13.6332   20.0966 C   0  0  0  0  0  0  0  0  0  0  0  0
    8.0466  -14.7217   21.1410 C   0  0  0  0  0  0  0  0  0  0  0  0
    9.2701  -15.6156   21.1159 C   0  0  2  0  0  0  0  0  0  0  0  0
    9.2366  -16.4399   19.9360 N   0  0  0  0  0  0  0  0  0  0  0  0
    9.2454  -16.4550   22.3658 C   0  0  0  0  0  0  0  0  0  0  0  0
    8.3580  -17.3176   22.5574 O   0  0  0  0  0  0  0  0  0  0  0  0
    8.4978  -15.4262   17.1711 N   0  0  0  0  0  0  0  0  0  0  0  0
   15.8788  -20.4353   23.0247 C   0  0  0  0  0  0  0  0  0  0  0  0
   14.6479  -21.1710   23.2144 N   0  0  0  0  0  0  0  0  0  0  0  0
   14.6660  -22.4544   23.2455 N   0  0  0  0  0  0  0  0  0  0  0  0
   13.4249  -20.4751   23.3646 C   0  0  0  0  0  0  0  0  0  0  0  0
   13.3940  -19.0205   23.0898 C   0  0  0  0  0  0  0  0  0  0  0  0
   11.9973  -18.5162   23.1394 C   0  0  0  0  0  0  0  0  0  0  0  0
   11.5750  -17.8729   24.3611 C   0  0  2  0  0  0  0  0  0  0  0  0
   10.2403  -17.2511   24.5159 N   0  0  0  0  0  0  0  0  0  0  0  0
   10.2244  -16.2913   23.3584 C   0  0  0  0  0  0  0  0  0  0  0  0
    9.9456  -16.5267   25.7228 O   0  0  0  0  0  0  0  0  0  0  0  0
    9.8738  -15.2871   25.8595 O   0  0  0  0  0  0  0  0  0  0  0  0
  2  1  1  0
  2 12  2  0
  3  2  1  0
  4  3  2  0
  4  5  1  0
  5 11  2  0
  6  5  1  0
  7  6  1  0
  7  8  1  1
  9 21  1  0
  9  7  1  0
 10  9  2  0
 11 12  1  0
 14 13  1  0
 15 14  2  0
 16 14  1  0
 17 16  1  0
 18 17  1  0
 18 19  1  0
 20 19  1  1
 20 21  1  0
 22 20  1  0
 22 32  1  0
 23 22  2  0
 25 24  1  0
 26 25  2  0
 27 25  1  0
 28 27  1  0
 29 28  1  0
 30 29  1  0
 31 32  1  0
 31 30  1  6
 33 35  1  0
 33 31  1  0
 34 33  2  0
M  END
$$$$
