YRR.pdb
     RDKit          3D

 35 35  0  0  1  0  0  0  0  0999 V2000
   10.8196  -13.1158   30.3252 O   0  0  0  0  0  0  0  0  0  0  0  0
   10.3963  -13.8923   29.2540 C   0  0  0  0  0  0  0  0  0  0  0  0
   11.1023  -15.0256   28.9012 C   0  0  0  0  0  0  0  0  0  0  0  0
   10.6629  -15.7799   27.8352 C   0  0  0  0  0  0  0  0  0  0  0  0
    9.5502  -15.3983   27.1542 C   0  0  0  0  0  0  0  0  0  0  0  0
    9.0760  -16.2022   26.0112 C   0  0  0  0  0  0  0  0  0  0  0  0
    7.6374  -15.7630   25.7112 C   0  0  2  0  0  0  0  0  0  0  0  0
    6.7843  -15.9924   26.8340 N   0  0  0  0  0  0  0  0  0  0  0  0
    7.2300  -16.4724   24.4805 C   0  0  0  0  0  0  0  0  0  0  0  0
    6.4739  -17.4478   24.5741 O   0  0  0  0  0  0  0  0  0  0  0  0
    8.8376  -14.2745   27.4925 C   0  0  0  0  0  0  0  0  0  0  0  0
    9.2553  -13.5020   28.5548 C   0  0  0  0  0  0  0  0  0  0  0  0
    8.5803  -10.9161   19.9389 N   0  0  0  0  0  0  0  0  0  0  0  0
    8.4360  -12.1512   19.2746 C   0  0  0  0  0  0  0  0  0  0  0  0
    9.4216  -12.5017   18.4855 N   0  0  0  0  0  0  0  0  0  0  0  0
    7.3054  -12.9861   19.4284 N   0  0  0  0  0  0  0  0  0  0  0  0
    7.5070  -14.4230   19.2456 C   0  0  0  0  0  0  0  0  0  0  0  0
    8.0059  -15.0516   20.5444 C   0  0  0  0  0  0  0  0  0  0  0  0
    7.1430  -16.2625   20.8137 C   0  0  0  0  0  0  0  0  0  0  0  0
    7.6025  -17.0085   22.0502 C   0  0  2  0  0  0  0  0  0  0  0  0
    7.6612  -16.0983   23.1641 N   0  0  0  0  0  0  0  0  0  0  0  0
    8.9590  -17.5903   21.7522 C   0  0  0  0  0  0  0  0  0  0  0  0
    9.1131  -18.4809   20.8854 O   0  0  0  0  0  0  0  0  0  0  0  0
    9.4356  -13.4230   18.0006 N   0  0  0  0  0  0  0  0  0  0  0  0
   15.7777  -13.5908   19.3081 C   0  0  0  0  0  0  0  0  0  0  0  0
   16.2446  -14.9597   19.2896 N   0  0  0  0  0  0  0  0  0  0  0  0
   17.3379  -15.2564   18.6855 N   0  0  0  0  0  0  0  0  0  0  0  0
   15.4951  -15.9705   19.9370 C   0  0  0  0  0  0  0  0  0  0  0  0
   14.1837  -15.6182   20.5274 C   0  0  0  0  0  0  0  0  0  0  0  0
   13.5454  -16.8217   21.1204 C   0  0  0  0  0  0  0  0  0  0  0  0
   12.1548  -16.7105   21.4929 C   0  0  1  0  0  0  0  0  0  0  0  0
   11.4158  -17.8087   22.1560 N   0  0  0  0  0  0  0  0  0  0  0  0
   10.0968  -17.1466   22.4444 C   0  0  0  0  0  0  0  0  0  0  0  0
   11.9356  -18.3585   23.3790 O   0  0  0  0  0  0  0  0  0  0  0  0
   11.5223  -18.1431   24.5380 O   0  0  0  0  0  0  0  0  0  0  0  0
  2  1  1  0
  2 12  2  0
  3  2  1  0
  4  3  2  0
  4  5  1  0
  5 11  2  0
  6  5  1  0
  7  6  1  0
  7  8  1  1
  9 21  1  0
  9  7  1  0
 10  9  2  0
 11 12  1  0
 14 13  1  0
 15 14  2  0
 16 14  1  0
 17 16  1  0
 18 17  1  0
 18 19  1  0
 20 19  1  6
 20 21  1  0
 22 20  1  0
 22 32  1  0
 23 22  2  0
 25 24  1  0
 26 25  2  0
 27 25  1  0
 28 27  1  0
 29 28  1  0
 30 29  1  0
 31 32  1  0
 31 30  1  6
 33 35  1  0
 33 31  1  0
 34 33  2  0
M  END
$$$$
