IDA.pdb
     RDKit          3D

 22 21  0  0  1  0  0  0  0  0999 V2000
   27.2469  -11.2178  -15.9270 C   0  0  0  0  0  0  0  0  0  0  0  0
   25.7484  -11.3733  -15.7426 C   0  0  0  0  0  0  0  0  0  0  0  0
   25.0098  -10.1331  -16.1264 C   0  0  2  0  0  0  0  0  0  0  0  0
   25.5616   -8.9708  -15.3256 C   0  0  0  0  0  0  0  0  0  0  0  0
   23.5105  -10.2480  -15.9722 C   0  0  2  0  0  0  0  0  0  0  0  0
   23.0890  -11.3959  -16.7888 N   0  0  0  0  0  0  0  0  0  0  0  0
   22.8043   -9.0238  -16.3705 C   0  0  0  0  0  0  0  0  0  0  0  0
   22.7358   -8.6523  -17.5574 O   0  0  0  0  0  0  0  0  0  0  0  0
   22.1823   -8.2450  -15.3632 N   0  0  0  0  0  0  0  0  0  0  0  0
   21.4387   -7.0275  -15.7591 C   0  0  1  0  0  0  0  0  0  0  0  0
   20.1551   -6.9930  -14.9626 C   0  0  0  0  0  0  0  0  0  0  0  0
   19.1665   -8.0058  -15.3074 C   0  0  0  0  0  0  0  0  0  0  0  0
   18.5486   -8.6238  -14.4154 O   0  0  0  0  0  0  0  0  0  0  0  0
   22.2429   -5.8341  -15.5115 C   0  0  0  0  0  0  0  0  0  0  0  0
   23.0422   -5.8673  -14.5047 O   0  0  0  0  0  0  0  0  0  0  0  0
   18.8781   -8.3186  -16.6474 O   0  0  0  0  0  0  0  0  0  0  0  0
   24.6499   -4.1121  -16.0263 C   0  0  0  0  0  0  0  0  0  0  0  0
   23.2306   -3.5681  -15.9445 C   0  0  2  0  0  0  0  0  0  0  0  0
   22.2708   -4.6302  -16.2390 N   0  0  0  0  0  0  0  0  0  0  0  0
   23.0327   -2.4405  -16.8533 C   0  0  0  0  0  0  0  0  0  0  0  0
   23.6810   -1.3791  -16.6657 O   0  0  0  0  0  0  0  0  0  0  0  0
   22.1621   -2.4983  -17.9100 O   0  0  0  0  0  0  0  0  0  0  0  0
  1  2  1  0
  3  4  1  1
  3  5  1  0
  3  2  1  0
  5  7  1  0
  5  6  1  6
  7  9  1  0
  7  8  2  0
  9 10  1  0
 10 14  1  0
 10 11  1  1
 12 16  1  0
 12 11  1  0
 13 12  2  0
 14 15  2  0
 18 17  1  6
 19 18  1  0
 19 14  1  0
 20 22  1  0
 20 18  1  0
 21 20  2  0
M  END
$$$$
