IDA.pdb
     RDKit          3D

 22 21  0  0  1  0  0  0  0  0999 V2000
   28.8238  -21.7318  -16.5903 C   0  0  0  0  0  0  0  0  0  0  0  0
   27.6333  -21.4543  -15.6908 C   0  0  0  0  0  0  0  0  0  0  0  0
   27.1786  -20.0352  -15.7931 C   0  0  2  0  0  0  0  0  0  0  0  0
   28.3156  -19.1282  -15.3670 C   0  0  0  0  0  0  0  0  0  0  0  0
   25.9176  -19.7448  -15.0120 C   0  0  2  0  0  0  0  0  0  0  0  0
   26.2395  -19.9640  -13.5941 N   0  0  0  0  0  0  0  0  0  0  0  0
   24.7844  -20.5772  -15.4351 C   0  0  0  0  0  0  0  0  0  0  0  0
   24.3780  -20.5980  -16.6123 O   0  0  0  0  0  0  0  0  0  0  0  0
   24.1375  -21.3813  -14.4639 N   0  0  0  0  0  0  0  0  0  0  0  0
   23.0423  -22.2794  -14.8950 C   0  0  1  0  0  0  0  0  0  0  0  0
   23.1893  -23.5797  -14.1396 C   0  0  0  0  0  0  0  0  0  0  0  0
   24.1101  -24.5492  -14.7176 C   0  0  0  0  0  0  0  0  0  0  0  0
   24.7773  -24.2675  -15.7347 O   0  0  0  0  0  0  0  0  0  0  0  0
   21.7439  -21.6640  -14.6341 C   0  0  0  0  0  0  0  0  0  0  0  0
   21.5453  -21.1988  -13.4519 O   0  0  0  0  0  0  0  0  0  0  0  0
   24.2760  -25.8258  -14.1525 O   0  0  0  0  0  0  0  0  0  0  0  0
   18.8335  -20.0858  -16.3150 C   0  0  0  0  0  0  0  0  0  0  0  0
   19.4350  -20.8082  -15.1178 C   0  0  2  0  0  0  0  0  0  0  0  0
   20.6595  -21.5000  -15.5153 N   0  0  0  0  0  0  0  0  0  0  0  0
   18.4886  -21.7529  -14.5275 C   0  0  0  0  0  0  0  0  0  0  0  0
   17.4205  -21.3192  -14.0245 O   0  0  0  0  0  0  0  0  0  0  0  0
   18.7232  -23.1028  -14.5034 O   0  0  0  0  0  0  0  0  0  0  0  0
  1  2  1  0
  3  4  1  1
  3  5  1  0
  3  2  1  0
  5  7  1  0
  5  6  1  1
  7  9  1  0
  7  8  2  0
  9 10  1  0
 10 14  1  0
 10 11  1  1
 12 16  1  0
 12 11  1  0
 13 12  2  0
 14 15  2  0
 18 17  1  6
 19 18  1  0
 19 14  1  0
 20 22  1  0
 20 18  1  0
 21 20  2  0
M  END
$$$$
