IDA.pdb
     RDKit          3D

 22 21  0  0  1  0  0  0  0  0999 V2000
   20.0060  -13.7069  -16.1819 C   0  0  0  0  0  0  0  0  0  0  0  0
   20.1170  -12.3950  -16.9370 C   0  0  0  0  0  0  0  0  0  0  0  0
   19.5648  -11.2523  -16.1494 C   0  0  2  0  0  0  0  0  0  0  0  0
   18.1203  -11.5531  -15.8033 C   0  0  0  0  0  0  0  0  0  0  0  0
   19.7001   -9.9163  -16.8432 C   0  0  2  0  0  0  0  0  0  0  0  0
   20.9916   -9.9344  -17.5459 N   0  0  0  0  0  0  0  0  0  0  0  0
   19.6167   -8.7834  -15.9127 C   0  0  0  0  0  0  0  0  0  0  0  0
   18.6373   -8.6099  -15.1630 O   0  0  0  0  0  0  0  0  0  0  0  0
   20.6920   -7.8613  -15.8733 N   0  0  0  0  0  0  0  0  0  0  0  0
   20.6704   -6.7819  -14.8603 C   0  0  1  0  0  0  0  0  0  0  0  0
   22.0999   -6.4927  -14.4655 C   0  0  0  0  0  0  0  0  0  0  0  0
   22.2842   -5.4468  -13.4684 C   0  0  0  0  0  0  0  0  0  0  0  0
   22.6726   -4.3082  -13.8026 O   0  0  0  0  0  0  0  0  0  0  0  0
   20.0222   -5.5889  -15.3980 C   0  0  0  0  0  0  0  0  0  0  0  0
   20.4395   -5.1607  -16.5365 O   0  0  0  0  0  0  0  0  0  0  0  0
   22.0324   -5.6844  -12.1058 O   0  0  0  0  0  0  0  0  0  0  0  0
   16.9039   -3.6745  -15.4121 C   0  0  0  0  0  0  0  0  0  0  0  0
   18.4229   -3.6582  -15.5092 C   0  0  2  0  0  0  0  0  0  0  0  0
   18.9791   -4.8302  -14.8361 N   0  0  0  0  0  0  0  0  0  0  0  0
   18.9858   -2.4342  -14.9424 C   0  0  0  0  0  0  0  0  0  0  0  0
   19.6900   -2.5058  -13.9027 O   0  0  0  0  0  0  0  0  0  0  0  0
   18.7743   -1.2035  -15.5069 O   0  0  0  0  0  0  0  0  0  0  0  0
  1  2  1  0
  3  4  1  6
  3  5  1  0
  3  2  1  0
  5  7  1  0
  5  6  1  1
  7  9  1  0
  7  8  2  0
  9 10  1  0
 10 14  1  0
 10 11  1  6
 12 16  1  0
 12 11  1  0
 13 12  2  0
 14 15  2  0
 18 17  1  1
 19 18  1  0
 19 14  1  0
 20 22  1  0
 20 18  1  0
 21 20  2  0
M  END
$$$$
