IDA.pdb
     RDKit          3D

 22 21  0  0  1  0  0  0  0  0999 V2000
   28.0593  -12.6265  -15.6441 C   0  0  0  0  0  0  0  0  0  0  0  0
   26.5743  -12.9264  -15.5522 C   0  0  0  0  0  0  0  0  0  0  0  0
   25.7444  -11.7255  -15.8685 C   0  0  2  0  0  0  0  0  0  0  0  0
   26.0903  -10.6232  -14.8877 C   0  0  0  0  0  0  0  0  0  0  0  0
   24.2586  -12.0030  -15.8864 C   0  0  2  0  0  0  0  0  0  0  0  0
   24.0483  -13.1155  -16.8245 N   0  0  0  0  0  0  0  0  0  0  0  0
   23.4671  -10.8271  -16.2697 C   0  0  0  0  0  0  0  0  0  0  0  0
   23.5103  -10.3417  -17.4160 O   0  0  0  0  0  0  0  0  0  0  0  0
   22.6281  -10.2310  -15.2956 N   0  0  0  0  0  0  0  0  0  0  0  0
   21.7949   -9.0707  -15.6843 C   0  0  1  0  0  0  0  0  0  0  0  0
   20.3673   -9.3790  -15.2968 C   0  0  0  0  0  0  0  0  0  0  0  0
   19.7584  -10.5181  -15.9702 C   0  0  0  0  0  0  0  0  0  0  0  0
   19.2099  -11.4283  -15.3145 O   0  0  0  0  0  0  0  0  0  0  0  0
   22.2682   -7.8573  -15.0241 C   0  0  0  0  0  0  0  0  0  0  0  0
   22.5713   -7.9510  -13.7779 O   0  0  0  0  0  0  0  0  0  0  0  0
   19.7688  -10.6290  -17.3716 O   0  0  0  0  0  0  0  0  0  0  0  0
   23.4919   -4.3706  -15.7400 C   0  0  0  0  0  0  0  0  0  0  0  0
   23.0240   -5.4746  -14.8022 C   0  0  2  0  0  0  0  0  0  0  0  0
   22.4487   -6.5747  -15.5735 N   0  0  0  0  0  0  0  0  0  0  0  0
   22.0545   -4.9783  -13.8275 C   0  0  0  0  0  0  0  0  0  0  0  0
   20.8296   -5.1948  -14.0143 O   0  0  0  0  0  0  0  0  0  0  0  0
   22.4337   -4.2826  -12.7094 O   0  0  0  0  0  0  0  0  0  0  0  0
  1  2  1  0
  3  4  1  1
  3  5  1  0
  3  2  1  0
  5  7  1  0
  5  6  1  6
  7  9  1  0
  7  8  2  0
  9 10  1  0
 10 14  1  0
 10 11  1  1
 12 16  1  0
 12 11  1  0
 13 12  2  0
 14 15  2  0
 18 17  1  6
 19 18  1  0
 19 14  1  0
 20 22  1  0
 20 18  1  0
 21 20  2  0
M  END
$$$$
