IDA.pdb
     RDKit          3D

 22 21  0  0  1  0  0  0  0  0999 V2000
   27.9476  -19.3939   -3.5748 C   0  0  0  0  0  0  0  0  0  0  0  0
   28.8865  -19.3713   -4.7670 C   0  0  0  0  0  0  0  0  0  0  0  0
   28.3646  -20.1917   -5.9008 C   0  0  2  0  0  0  0  0  0  0  0  0
   29.3579  -21.2967   -6.1992 C   0  0  0  0  0  0  0  0  0  0  0  0
   28.0484  -19.3838   -7.1386 C   0  0  2  0  0  0  0  0  0  0  0  0
   27.0051  -18.4199   -6.7584 N   0  0  0  0  0  0  0  0  0  0  0  0
   27.6153  -20.2196   -8.2656 C   0  0  0  0  0  0  0  0  0  0  0  0
   28.3184  -21.1437   -8.7163 O   0  0  0  0  0  0  0  0  0  0  0  0
   26.3529  -19.9585   -8.8539 N   0  0  0  0  0  0  0  0  0  0  0  0
   25.9690  -20.6972  -10.0782 C   0  0  1  0  0  0  0  0  0  0  0  0
   24.4699  -20.8844  -10.0516 C   0  0  0  0  0  0  0  0  0  0  0  0
   23.8829  -21.4780  -11.2453 C   0  0  0  0  0  0  0  0  0  0  0  0
   24.5617  -22.2137  -11.9917 O   0  0  0  0  0  0  0  0  0  0  0  0
   26.3859  -19.9633  -11.2699 C   0  0  0  0  0  0  0  0  0  0  0  0
   25.8850  -18.7911  -11.4386 O   0  0  0  0  0  0  0  0  0  0  0  0
   22.5413  -21.2428  -11.5937 O   0  0  0  0  0  0  0  0  0  0  0  0
   28.9963  -19.8183  -13.9313 C   0  0  0  0  0  0  0  0  0  0  0  0
   27.5946  -19.5128  -13.4225 C   0  0  2  0  0  0  0  0  0  0  0  0
   27.2822  -20.3652  -12.2771 N   0  0  0  0  0  0  0  0  0  0  0  0
   26.5913  -19.6859  -14.4711 C   0  0  0  0  0  0  0  0  0  0  0  0
   26.1282  -18.6709  -15.0520 O   0  0  0  0  0  0  0  0  0  0  0  0
   26.1346  -20.9217  -14.8481 O   0  0  0  0  0  0  0  0  0  0  0  0
  1  2  1  0
  3  4  1  6
  3  5  1  0
  3  2  1  0
  5  7  1  0
  5  6  1  1
  7  9  1  0
  7  8  2  0
  9 10  1  0
 10 14  1  0
 10 11  1  6
 12 16  1  0
 12 11  1  0
 13 12  2  0
 14 15  2  0
 18 17  1  6
 19 18  1  0
 19 14  1  0
 20 22  1  0
 20 18  1  0
 21 20  2  0
M  END
$$$$
