IDA.pdb
     RDKit          3D

 22 21  0  0  1  0  0  0  0  0999 V2000
   16.9213  -13.7080  -18.1539 C   0  0  0  0  0  0  0  0  0  0  0  0
   17.7012  -13.1743  -16.9663 C   0  0  0  0  0  0  0  0  0  0  0  0
   17.9852  -11.7139  -17.0990 C   0  0  2  0  0  0  0  0  0  0  0  0
   18.7721  -11.4853  -18.3738 C   0  0  0  0  0  0  0  0  0  0  0  0
   18.6908  -11.1221  -15.9004 C   0  0  2  0  0  0  0  0  0  0  0  0
   17.8074  -11.3328  -14.7440 N   0  0  0  0  0  0  0  0  0  0  0  0
   19.0080   -9.6991  -16.0751 C   0  0  0  0  0  0  0  0  0  0  0  0
   19.7694   -9.2933  -16.9735 O   0  0  0  0  0  0  0  0  0  0  0  0
   18.4233   -8.7628  -15.1866 N   0  0  0  0  0  0  0  0  0  0  0  0
   18.6701   -7.3196  -15.4059 C   0  0  1  0  0  0  0  0  0  0  0  0
   17.4909   -6.5605  -14.8434 C   0  0  0  0  0  0  0  0  0  0  0  0
   16.2399   -6.6960  -15.5773 C   0  0  0  0  0  0  0  0  0  0  0  0
   16.2005   -6.5078  -16.8110 O   0  0  0  0  0  0  0  0  0  0  0  0
   19.9147   -6.9100  -14.7611 C   0  0  0  0  0  0  0  0  0  0  0  0
   20.0685   -7.2382  -13.5274 O   0  0  0  0  0  0  0  0  0  0  0  0
   15.0438   -7.0409  -14.9240 O   0  0  0  0  0  0  0  0  0  0  0  0
   23.3461   -5.5523  -15.4772 C   0  0  0  0  0  0  0  0  0  0  0  0
   22.1928   -5.8811  -14.5398 C   0  0  2  0  0  0  0  0  0  0  0  0
   20.9942   -6.1970  -15.3140 N   0  0  0  0  0  0  0  0  0  0  0  0
   21.9223   -4.7837  -13.6130 C   0  0  0  0  0  0  0  0  0  0  0  0
   21.0207   -3.9521  -13.8919 O   0  0  0  0  0  0  0  0  0  0  0  0
   22.6184   -4.6274  -12.4430 O   0  0  0  0  0  0  0  0  0  0  0  0
  1  2  1  0
  3  4  1  6
  3  5  1  0
  3  2  1  0
  5  7  1  0
  5  6  1  1
  7  9  1  0
  7  8  2  0
  9 10  1  0
 10 14  1  0
 10 11  1  1
 12 16  1  0
 12 11  1  0
 13 12  2  0
 14 15  2  0
 18 17  1  6
 19 18  1  0
 19 14  1  0
 20 22  1  0
 20 18  1  0
 21 20  2  0
M  END
$$$$
