IDA.pdb
     RDKit          3D

 22 21  0  0  1  0  0  0  0  0999 V2000
   25.1950  -24.7230  -15.1011 C   0  0  0  0  0  0  0  0  0  0  0  0
   23.7970  -24.3261  -14.6635 C   0  0  0  0  0  0  0  0  0  0  0  0
   22.7464  -24.9802  -15.4998 C   0  0  2  0  0  0  0  0  0  0  0  0
   22.9950  -24.6315  -16.9535 C   0  0  0  0  0  0  0  0  0  0  0  0
   21.3358  -24.6334  -15.0818 C   0  0  2  0  0  0  0  0  0  0  0  0
   21.1217  -23.2251  -15.4463 N   0  0  0  0  0  0  0  0  0  0  0  0
   21.0986  -24.8542  -13.6496 C   0  0  0  0  0  0  0  0  0  0  0  0
   21.3351  -23.9801  -12.7943 O   0  0  0  0  0  0  0  0  0  0  0  0
   20.5828  -26.1075  -13.2358 N   0  0  0  0  0  0  0  0  0  0  0  0
   20.2900  -26.3205  -11.8003 C   0  0  1  0  0  0  0  0  0  0  0  0
   19.2760  -25.2827  -11.3786 C   0  0  0  0  0  0  0  0  0  0  0  0
   18.7982  -25.3827  -10.0061 C   0  0  0  0  0  0  0  0  0  0  0  0
   19.5627  -25.7501   -9.0898 O   0  0  0  0  0  0  0  0  0  0  0  0
   19.7829  -27.6716  -11.5770 C   0  0  0  0  0  0  0  0  0  0  0  0
   18.8114  -28.0614  -12.3238 O   0  0  0  0  0  0  0  0  0  0  0  0
   17.4689  -25.0709   -9.6711 O   0  0  0  0  0  0  0  0  0  0  0  0
   20.4516  -30.8345   -9.6165 C   0  0  0  0  0  0  0  0  0  0  0  0
   19.6587  -29.9765  -10.5921 C   0  0  2  0  0  0  0  0  0  0  0  0
   20.2217  -28.6288  -10.6438 N   0  0  0  0  0  0  0  0  0  0  0  0
   18.2430  -29.9203  -10.2326 C   0  0  0  0  0  0  0  0  0  0  0  0
   17.8161  -28.9410   -9.5688 O   0  0  0  0  0  0  0  0  0  0  0  0
   17.3578  -30.9013  -10.5959 O   0  0  0  0  0  0  0  0  0  0  0  0
  1  2  1  0
  3  4  1  6
  3  5  1  0
  3  2  1  0
  5  7  1  0
  5  6  1  1
  7  9  1  0
  7  8  2  0
  9 10  1  0
 10 14  1  0
 10 11  1  6
 12 16  1  0
 12 11  1  0
 13 12  2  0
 14 15  2  0
 18 17  1  1
 19 18  1  0
 19 14  1  0
 20 22  1  0
 20 18  1  0
 21 20  2  0
M  END
$$$$
