IDA.pdb
     RDKit          3D

 22 21  0  0  1  0  0  0  0  0999 V2000
   26.4008  -20.0111   -7.8338 C   0  0  0  0  0  0  0  0  0  0  0  0
   26.4324  -20.9669   -9.0123 C   0  0  0  0  0  0  0  0  0  0  0  0
   25.6364  -20.4520  -10.1666 C   0  0  2  0  0  0  0  0  0  0  0  0
   24.1818  -20.3593   -9.7517 C   0  0  0  0  0  0  0  0  0  0  0  0
   25.8002  -21.2682  -11.4282 C   0  0  2  0  0  0  0  0  0  0  0  0
   27.2422  -21.3249  -11.7101 N   0  0  0  0  0  0  0  0  0  0  0  0
   25.0575  -20.7097  -12.5651 C   0  0  0  0  0  0  0  0  0  0  0  0
   25.5037  -19.7735  -13.2550 O   0  0  0  0  0  0  0  0  0  0  0  0
   23.7908  -21.2610  -12.8806 N   0  0  0  0  0  0  0  0  0  0  0  0
   23.1056  -20.8156  -14.1151 C   0  0  1  0  0  0  0  0  0  0  0  0
   22.9633  -22.0164  -15.0212 C   0  0  0  0  0  0  0  0  0  0  0  0
   23.3091  -21.8011  -16.4197 C   0  0  0  0  0  0  0  0  0  0  0  0
   22.8767  -20.8062  -17.0379 O   0  0  0  0  0  0  0  0  0  0  0  0
   21.8018  -20.2401  -13.7969 C   0  0  0  0  0  0  0  0  0  0  0  0
   21.1054  -20.8353  -12.8945 O   0  0  0  0  0  0  0  0  0  0  0  0
   24.1358  -22.7014  -17.1145 O   0  0  0  0  0  0  0  0  0  0  0  0
   19.5686  -17.2821  -14.5567 C   0  0  0  0  0  0  0  0  0  0  0  0
   19.9233  -18.5766  -13.8389 C   0  0  2  0  0  0  0  0  0  0  0  0
   21.1907  -19.0981  -14.3464 N   0  0  0  0  0  0  0  0  0  0  0  0
   18.8692  -19.5789  -13.9834 C   0  0  0  0  0  0  0  0  0  0  0  0
   18.8974  -20.3627  -14.9667 O   0  0  0  0  0  0  0  0  0  0  0  0
   17.8456  -19.6977  -13.0801 O   0  0  0  0  0  0  0  0  0  0  0  0
  1  2  1  0
  3  4  1  1
  3  5  1  0
  3  2  1  0
  5  7  1  0
  5  6  1  6
  7  9  1  0
  7  8  2  0
  9 10  1  0
 10 14  1  0
 10 11  1  6
 12 16  1  0
 12 11  1  0
 13 12  2  0
 14 15  2  0
 18 17  1  6
 19 18  1  0
 19 14  1  0
 20 22  1  0
 20 18  1  0
 21 20  2  0
M  END
$$$$
