IDA.pdb
     RDKit          3D

 22 21  0  0  1  0  0  0  0  0999 V2000
   18.9597  -14.7936  -16.3425 C   0  0  0  0  0  0  0  0  0  0  0  0
   18.5926  -13.5485  -17.1290 C   0  0  0  0  0  0  0  0  0  0  0  0
   18.8665  -12.3012  -16.3543 C   0  0  2  0  0  0  0  0  0  0  0  0
   18.2129  -12.4211  -14.9923 C   0  0  0  0  0  0  0  0  0  0  0  0
   18.4350  -11.0389  -17.0651 C   0  0  2  0  0  0  0  0  0  0  0  0
   19.1658  -11.0018  -18.3405 N   0  0  0  0  0  0  0  0  0  0  0  0
   18.6857   -9.8284  -16.2729 C   0  0  0  0  0  0  0  0  0  0  0  0
   18.1300   -9.6244  -15.1770 O   0  0  0  0  0  0  0  0  0  0  0  0
   19.5925   -8.8649  -16.7805 N   0  0  0  0  0  0  0  0  0  0  0  0
   19.9434   -7.7002  -15.9366 C   0  0  1  0  0  0  0  0  0  0  0  0
   21.4503   -7.6337  -15.8478 C   0  0  0  0  0  0  0  0  0  0  0  0
   22.0774   -8.6032  -14.9597 C   0  0  0  0  0  0  0  0  0  0  0  0
   22.9318   -9.4048  -15.3917 O   0  0  0  0  0  0  0  0  0  0  0  0
   19.3959   -6.4723  -16.5067 C   0  0  0  0  0  0  0  0  0  0  0  0
   19.5752   -6.2828  -17.7659 O   0  0  0  0  0  0  0  0  0  0  0  0
   21.7428   -8.6674  -13.5957 O   0  0  0  0  0  0  0  0  0  0  0  0
   16.6712   -4.1521  -16.3664 C   0  0  0  0  0  0  0  0  0  0  0  0
   18.1730   -4.2821  -16.5782 C   0  0  2  0  0  0  0  0  0  0  0  0
   18.6796   -5.4492  -15.8590 N   0  0  0  0  0  0  0  0  0  0  0  0
   18.8832   -3.0776  -16.1528 C   0  0  0  0  0  0  0  0  0  0  0  0
   19.6747   -3.1432  -15.1774 O   0  0  0  0  0  0  0  0  0  0  0  0
   18.7185   -1.8718  -16.7827 O   0  0  0  0  0  0  0  0  0  0  0  0
  1  2  1  0
  3  4  1  1
  3  5  1  0
  3  2  1  0
  5  7  1  0
  5  6  1  6
  7  9  1  0
  7  8  2  0
  9 10  1  0
 10 14  1  0
 10 11  1  6
 12 16  1  0
 12 11  1  0
 13 12  2  0
 14 15  2  0
 18 17  1  1
 19 18  1  0
 19 14  1  0
 20 22  1  0
 20 18  1  0
 21 20  2  0
M  END
$$$$
