IDA.pdb
     RDKit          3D

 22 21  0  0  1  0  0  0  0  0999 V2000
   17.4418  -14.5813  -15.6158 C   0  0  0  0  0  0  0  0  0  0  0  0
   18.6342  -13.9937  -16.3483 C   0  0  0  0  0  0  0  0  0  0  0  0
   18.9945  -12.6409  -15.8276 C   0  0  2  0  0  0  0  0  0  0  0  0
   17.7739  -11.7466  -15.9110 C   0  0  0  0  0  0  0  0  0  0  0  0
   20.1833  -12.0198  -16.5246 C   0  0  2  0  0  0  0  0  0  0  0  0
   21.3175  -12.9327  -16.3190 N   0  0  0  0  0  0  0  0  0  0  0  0
   20.4893  -10.6715  -16.0303 C   0  0  0  0  0  0  0  0  0  0  0  0
   20.9269  -10.4680  -14.8821 O   0  0  0  0  0  0  0  0  0  0  0  0
   20.2764   -9.5703  -16.8964 N   0  0  0  0  0  0  0  0  0  0  0  0
   20.5265   -8.2027  -16.3876 C   0  0  1  0  0  0  0  0  0  0  0  0
   21.4756   -7.5216  -17.3460 C   0  0  0  0  0  0  0  0  0  0  0  0
   21.8178   -6.1419  -17.0277 C   0  0  0  0  0  0  0  0  0  0  0  0
   21.8065   -5.2614  -17.9129 O   0  0  0  0  0  0  0  0  0  0  0  0
   19.2730   -7.4622  -16.2742 C   0  0  0  0  0  0  0  0  0  0  0  0
   18.5183   -7.4291  -17.3148 O   0  0  0  0  0  0  0  0  0  0  0  0
   22.1700   -5.7596  -15.7214 O   0  0  0  0  0  0  0  0  0  0  0  0
   16.5601   -6.5457  -14.1239 C   0  0  0  0  0  0  0  0  0  0  0  0
   17.4958   -6.0426  -15.2140 C   0  0  2  0  0  0  0  0  0  0  0  0
   18.7620   -6.7705  -15.1607 N   0  0  0  0  0  0  0  0  0  0  0  0
   17.7330   -4.6050  -15.0990 C   0  0  0  0  0  0  0  0  0  0  0  0
   16.7547   -3.8155  -15.1414 O   0  0  0  0  0  0  0  0  0  0  0  0
   18.9903   -4.0823  -14.9441 O   0  0  0  0  0  0  0  0  0  0  0  0
  1  2  1  0
  3  4  1  6
  3  5  1  0
  3  2  1  0
  5  7  1  0
  5  6  1  1
  7  9  1  0
  7  8  2  0
  9 10  1  0
 10 14  1  0
 10 11  1  6
 12 16  1  0
 12 11  1  0
 13 12  2  0
 14 15  2  0
 18 17  1  1
 19 18  1  0
 19 14  1  0
 20 22  1  0
 20 18  1  0
 21 20  2  0
M  END
$$$$
