TWS.pdb
     RDKit          3D

 28 29  0  0  1  0  0  0  0  0999 V2000
    8.5309  -12.9051   20.0265 C   0  0  0  0  0  0  0  0  0  0  0  0
    7.3779  -13.8663   20.3228 C   0  0  1  0  0  0  0  0  0  0  0  0
    6.4814  -13.8837   19.2586 O   0  0  0  0  0  0  0  0  0  0  0  0
    7.9493  -15.2720   20.5771 C   0  0  2  0  0  0  0  0  0  0  0  0
    6.8613  -16.1370   20.7382 N   0  0  0  0  0  0  0  0  0  0  0  0
    8.9087  -15.2214   21.7111 C   0  0  0  0  0  0  0  0  0  0  0  0
    9.8949  -14.4779   21.5385 O   0  0  0  0  0  0  0  0  0  0  0  0
    8.7371  -15.9431   22.8945 N   0  0  0  0  0  0  0  0  0  0  0  0
    9.5359  -16.0046   24.0756 C   0  0  1  0  0  0  0  0  0  0  0  0
    8.8015  -16.1208   25.3873 C   0  0  0  0  0  0  0  0  0  0  0  0
    7.6285  -15.2523   25.5237 C   0  0  0  0  0  0  0  0  0  0  0  0
    6.2766  -15.4681   25.3068 C   0  0  0  0  0  0  0  0  0  0  0  0
    5.5747  -14.3481   25.5357 N   0  0  0  0  0  0  0  0  0  0  0  0
    6.4609  -13.3811   25.9046 C   0  0  0  0  0  0  0  0  0  0  0  0
    6.2593  -12.0561   26.2425 C   0  0  0  0  0  0  0  0  0  0  0  0
    7.3142  -11.2410   26.5851 C   0  0  0  0  0  0  0  0  0  0  0  0
    8.6138  -11.7580   26.5932 C   0  0  0  0  0  0  0  0  0  0  0  0
    8.7784  -13.0880   26.2496 C   0  0  0  0  0  0  0  0  0  0  0  0
    7.7267  -13.9104   25.9055 C   0  0  0  0  0  0  0  0  0  0  0  0
   10.6543  -16.9205   23.9116 C   0  0  0  0  0  0  0  0  0  0  0  0
   10.3828  -18.0790   23.4196 O   0  0  0  0  0  0  0  0  0  0  0  0
   14.3600  -16.1701   22.7910 O   0  0  0  0  0  0  0  0  0  0  0  0
   13.7899  -17.4622   22.7446 C   0  0  0  0  0  0  0  0  0  0  0  0
   13.0016  -17.6699   24.0016 C   0  0  2  0  0  0  0  0  0  0  0  0
   12.0133  -16.6450   24.2507 N   0  0  0  0  0  0  0  0  0  0  0  0
   13.9298  -17.7720   25.1955 C   0  0  0  0  0  0  0  0  0  0  0  0
   14.9719  -18.6583   25.2771 O   0  0  0  0  0  0  0  0  0  0  0  0
   13.7308  -16.9892   26.1853 O   0  0  0  0  0  0  0  0  0  0  0  0
  2  4  1  0
  2  1  1  6
  3  2  1  0
  4  5  1  1
  4  6  1  0
  6  7  2  0
  8  6  1  0
  8  9  1  0
  9 10  1  1
 10 11  1  0
 11 12  2  0
 12 13  1  0
 14 13  1  0
 15 14  2  0
 16 15  1  0
 17 18  1  0
 17 16  2  0
 18 19  2  0
 19 11  1  0
 19 14  1  0
 20  9  1  0
 20 21  2  0
 22 23  1  0
 24 23  1  6
 24 25  1  0
 24 26  1  0
 25 20  1  0
 26 27  1  0
 28 26  2  0
M  END
$$$$
