TWS.pdb
     RDKit          3D

 28 29  0  0  1  0  0  0  0  0999 V2000
   11.9043  -20.0478   17.8783 C   0  0  0  0  0  0  0  0  0  0  0  0
   11.5611  -18.9933   16.8241 C   0  0  1  0  0  0  0  0  0  0  0  0
   11.4198  -19.5908   15.5751 O   0  0  0  0  0  0  0  0  0  0  0  0
   10.2631  -18.2768   17.2353 C   0  0  2  0  0  0  0  0  0  0  0  0
    9.8054  -17.5759   16.1140 N   0  0  0  0  0  0  0  0  0  0  0  0
   10.5099  -17.4600   18.4521 C   0  0  0  0  0  0  0  0  0  0  0  0
   11.1581  -16.4113   18.2644 O   0  0  0  0  0  0  0  0  0  0  0  0
   10.0561  -17.8197   19.7232 N   0  0  0  0  0  0  0  0  0  0  0  0
   10.1788  -17.1571   20.9813 C   0  0  1  0  0  0  0  0  0  0  0  0
    8.9195  -17.0092   21.7970 C   0  0  0  0  0  0  0  0  0  0  0  0
    7.8616  -16.2106   21.1707 C   0  0  0  0  0  0  0  0  0  0  0  0
    6.6616  -16.5573   20.5700 C   0  0  0  0  0  0  0  0  0  0  0  0
    6.0325  -15.4682   20.1035 N   0  0  0  0  0  0  0  0  0  0  0  0
    6.8159  -14.3913   20.3918 C   0  0  0  0  0  0  0  0  0  0  0  0
    6.6325  -13.0473   20.1268 C   0  0  0  0  0  0  0  0  0  0  0  0
    7.5679  -12.1128   20.5092 C   0  0  0  0  0  0  0  0  0  0  0  0
    8.7250  -12.5255   21.1780 C   0  0  0  0  0  0  0  0  0  0  0  0
    8.8755  -13.8782   21.4265 C   0  0  0  0  0  0  0  0  0  0  0  0
    7.9429  -14.8199   21.0465 C   0  0  0  0  0  0  0  0  0  0  0  0
   11.3394  -17.6320   21.7191 C   0  0  0  0  0  0  0  0  0  0  0  0
   11.4009  -18.8984   21.9430 O   0  0  0  0  0  0  0  0  0  0  0  0
   14.7372  -15.4612   22.8330 O   0  0  0  0  0  0  0  0  0  0  0  0
   14.8362  -16.8552   22.6245 C   0  0  0  0  0  0  0  0  0  0  0  0
   13.4961  -17.4649   22.9023 C   0  0  2  0  0  0  0  0  0  0  0  0
   12.4027  -16.8178   22.2131 N   0  0  0  0  0  0  0  0  0  0  0  0
   13.2171  -17.4692   24.3922 C   0  0  0  0  0  0  0  0  0  0  0  0
   14.0348  -18.0613   25.3189 O   0  0  0  0  0  0  0  0  0  0  0  0
   12.1585  -16.8897   24.8112 O   0  0  0  0  0  0  0  0  0  0  0  0
  2  4  1  0
  2  1  1  1
  3  2  1  0
  4  5  1  6
  4  6  1  0
  6  7  2  0
  8  6  1  0
  8  9  1  0
  9 10  1  1
 10 11  1  0
 11 12  2  0
 12 13  1  0
 14 13  1  0
 15 14  2  0
 16 15  1  0
 17 18  1  0
 17 16  2  0
 18 19  2  0
 19 11  1  0
 19 14  1  0
 20  9  1  0
 20 21  2  0
 22 23  1  0
 24 23  1  1
 24 25  1  0
 24 26  1  0
 25 20  1  0
 26 27  1  0
 28 26  2  0
M  END
$$$$
