TWS.pdb
     RDKit          3D

 28 29  0  0  1  0  0  0  0  0999 V2000
    8.2312  -12.8974   19.9529 C   0  0  0  0  0  0  0  0  0  0  0  0
    7.2492  -14.0478   20.1834 C   0  0  1  0  0  0  0  0  0  0  0  0
    6.4640  -14.2435   19.0512 O   0  0  0  0  0  0  0  0  0  0  0  0
    8.0406  -15.3223   20.5247 C   0  0  2  0  0  0  0  0  0  0  0  0
    7.1222  -16.3765   20.5791 N   0  0  0  0  0  0  0  0  0  0  0  0
    8.8396  -15.0965   21.7574 C   0  0  0  0  0  0  0  0  0  0  0  0
    9.5362  -14.0621   21.7558 O   0  0  0  0  0  0  0  0  0  0  0  0
    8.8248  -15.9646   22.8516 N   0  0  0  0  0  0  0  0  0  0  0  0
    9.5766  -15.9519   24.0646 C   0  0  1  0  0  0  0  0  0  0  0  0
    8.8080  -16.1731   25.3427 C   0  0  0  0  0  0  0  0  0  0  0  0
    7.5936  -15.3646   25.4873 C   0  0  0  0  0  0  0  0  0  0  0  0
    6.2599  -15.6265   25.2156 C   0  0  0  0  0  0  0  0  0  0  0  0
    5.5020  -14.5520   25.4811 N   0  0  0  0  0  0  0  0  0  0  0  0
    6.3324  -13.5692   25.9294 C   0  0  0  0  0  0  0  0  0  0  0  0
    6.0616  -12.2746   26.3308 C   0  0  0  0  0  0  0  0  0  0  0  0
    7.0682  -11.4347   26.7502 C   0  0  0  0  0  0  0  0  0  0  0  0
    8.3889  -11.8947   26.7727 C   0  0  0  0  0  0  0  0  0  0  0  0
    8.6231  -13.1957   26.3642 C   0  0  0  0  0  0  0  0  0  0  0  0
    7.6201  -14.0427   25.9430 C   0  0  0  0  0  0  0  0  0  0  0  0
   10.7996  -16.7297   23.9379 C   0  0  0  0  0  0  0  0  0  0  0  0
   10.6689  -17.9486   23.5443 O   0  0  0  0  0  0  0  0  0  0  0  0
   14.0414  -15.9357   22.1354 O   0  0  0  0  0  0  0  0  0  0  0  0
   14.4274  -16.4955   23.3741 C   0  0  0  0  0  0  0  0  0  0  0  0
   13.2277  -17.1561   23.9817 C   0  0  2  0  0  0  0  0  0  0  0  0
   12.1185  -16.2589   24.2143 N   0  0  0  0  0  0  0  0  0  0  0  0
   13.6030  -17.8371   25.2828 C   0  0  0  0  0  0  0  0  0  0  0  0
   12.9159  -17.6693   26.4567 O   0  0  0  0  0  0  0  0  0  0  0  0
   14.6191  -18.6115   25.2893 O   0  0  0  0  0  0  0  0  0  0  0  0
  2  4  1  0
  2  1  1  6
  3  2  1  0
  4  5  1  1
  4  6  1  0
  6  7  2  0
  8  6  1  0
  8  9  1  0
  9 10  1  1
 10 11  1  0
 11 12  2  0
 12 13  1  0
 14 13  1  0
 15 14  2  0
 16 15  1  0
 17 18  1  0
 17 16  2  0
 18 19  2  0
 19 11  1  0
 19 14  1  0
 20  9  1  0
 20 21  2  0
 22 23  1  0
 24 23  1  1
 24 25  1  0
 24 26  1  0
 25 20  1  0
 26 27  1  0
 28 26  2  0
M  END
$$$$
