TWS.pdb
     RDKit          3D

 28 29  0  0  1  0  0  0  0  0999 V2000
    6.7792  -15.2920   18.2819 C   0  0  0  0  0  0  0  0  0  0  0  0
    7.7476  -15.4190   19.4596 C   0  0  1  0  0  0  0  0  0  0  0  0
    9.0615  -15.3033   19.0159 O   0  0  0  0  0  0  0  0  0  0  0  0
    7.4241  -14.3280   20.4951 C   0  0  2  0  0  0  0  0  0  0  0  0
    7.4391  -13.1017   19.8213 N   0  0  0  0  0  0  0  0  0  0  0  0
    8.3554  -14.4441   21.6475 C   0  0  0  0  0  0  0  0  0  0  0  0
    9.3327  -13.6700   21.6195 O   0  0  0  0  0  0  0  0  0  0  0  0
    8.1681  -15.3454   22.6980 N   0  0  0  0  0  0  0  0  0  0  0  0
    8.9615  -15.6105   23.8543 C   0  0  1  0  0  0  0  0  0  0  0  0
    8.2204  -15.9098   25.1328 C   0  0  0  0  0  0  0  0  0  0  0  0
    7.1981  -14.9272   25.5051 C   0  0  0  0  0  0  0  0  0  0  0  0
    5.8131  -14.9592   25.4628 C   0  0  0  0  0  0  0  0  0  0  0  0
    5.2987  -13.7931   25.8812 N   0  0  0  0  0  0  0  0  0  0  0  0
    6.3435  -12.9794   26.2018 C   0  0  0  0  0  0  0  0  0  0  0  0
    6.3616  -11.6808   26.6747 C   0  0  0  0  0  0  0  0  0  0  0  0
    7.5491  -11.0344   26.9329 C   0  0  0  0  0  0  0  0  0  0  0  0
    8.7604  -11.6991   26.7150 C   0  0  0  0  0  0  0  0  0  0  0  0
    8.7044  -12.9978   26.2413 C   0  0  0  0  0  0  0  0  0  0  0  0
    7.5189  -13.6516   25.9805 C   0  0  0  0  0  0  0  0  0  0  0  0
   10.0562  -16.5189   23.5488 C   0  0  0  0  0  0  0  0  0  0  0  0
    9.7413  -17.6284   22.9765 O   0  0  0  0  0  0  0  0  0  0  0  0
   14.1768  -15.8482   23.6548 O   0  0  0  0  0  0  0  0  0  0  0  0
   13.6407  -16.9396   22.9352 C   0  0  0  0  0  0  0  0  0  0  0  0
   12.3715  -17.3644   23.6086 C   0  0  2  0  0  0  0  0  0  0  0  0
   11.4358  -16.2855   23.8313 N   0  0  0  0  0  0  0  0  0  0  0  0
   12.6767  -18.0438   24.9288 C   0  0  0  0  0  0  0  0  0  0  0  0
   13.4714  -19.1538   25.0488 O   0  0  0  0  0  0  0  0  0  0  0  0
   12.1635  -17.5570   25.9926 O   0  0  0  0  0  0  0  0  0  0  0  0
  2  4  1  0
  2  1  1  6
  3  2  1  0
  4  5  1  6
  4  6  1  0
  6  7  2  0
  8  6  1  0
  8  9  1  0
  9 10  1  1
 10 11  1  0
 11 12  2  0
 12 13  1  0
 14 13  1  0
 15 14  2  0
 16 15  1  0
 17 18  1  0
 17 16  2  0
 18 19  2  0
 19 11  1  0
 19 14  1  0
 20  9  1  0
 20 21  2  0
 22 23  1  0
 24 23  1  1
 24 25  1  0
 24 26  1  0
 25 20  1  0
 26 27  1  0
 28 26  2  0
M  END
$$$$
