TWS.pdb
     RDKit          3D

 28 29  0  0  1  0  0  0  0  0999 V2000
    8.3382  -12.3578   19.2365 C   0  0  0  0  0  0  0  0  0  0  0  0
    8.2021  -13.8423   18.8918 C   0  0  1  0  0  0  0  0  0  0  0  0
    8.4877  -14.0512   17.5459 O   0  0  0  0  0  0  0  0  0  0  0  0
    9.1573  -14.6541   19.7839 C   0  0  2  0  0  0  0  0  0  0  0  0
    9.0806  -15.9870   19.3652 N   0  0  0  0  0  0  0  0  0  0  0  0
    8.8346  -14.4056   21.2133 C   0  0  0  0  0  0  0  0  0  0  0  0
    7.9343  -13.5668   21.4156 O   0  0  0  0  0  0  0  0  0  0  0  0
    9.4779  -15.0548   22.2695 N   0  0  0  0  0  0  0  0  0  0  0  0
    9.0346  -15.3502   23.5936 C   0  0  1  0  0  0  0  0  0  0  0  0
    7.5618  -15.6181   23.7730 C   0  0  0  0  0  0  0  0  0  0  0  0
    6.9582  -15.0100   24.9625 C   0  0  0  0  0  0  0  0  0  0  0  0
    6.1226  -15.5140   25.9469 C   0  0  0  0  0  0  0  0  0  0  0  0
    5.7988  -14.5574   26.8298 N   0  0  0  0  0  0  0  0  0  0  0  0
    6.4185  -13.4108   26.4326 C   0  0  0  0  0  0  0  0  0  0  0  0
    6.4101  -12.1442   26.9859 C   0  0  0  0  0  0  0  0  0  0  0  0
    7.1149  -11.1117   26.4098 C   0  0  0  0  0  0  0  0  0  0  0  0
    7.8539  -11.3435   25.2450 C   0  0  0  0  0  0  0  0  0  0  0  0
    7.8394  -12.6231   24.7190 C   0  0  0  0  0  0  0  0  0  0  0  0
    7.1361  -13.6621   25.2905 C   0  0  0  0  0  0  0  0  0  0  0  0
    9.9189  -16.3021   24.2483 C   0  0  0  0  0  0  0  0  0  0  0  0
   10.9015  -16.7515   23.5479 O   0  0  0  0  0  0  0  0  0  0  0  0
   12.1156  -16.5269   28.4124 O   0  0  0  0  0  0  0  0  0  0  0  0
   10.8578  -16.4039   27.7803 C   0  0  0  0  0  0  0  0  0  0  0  0
   10.9851  -16.9265   26.3820 C   0  0  2  0  0  0  0  0  0  0  0  0
    9.7866  -16.7766   25.5880 N   0  0  0  0  0  0  0  0  0  0  0  0
   11.3956  -18.3855   26.3995 C   0  0  0  0  0  0  0  0  0  0  0  0
   12.5573  -18.8436   26.9641 O   0  0  0  0  0  0  0  0  0  0  0  0
   10.6167  -19.2398   25.8558 O   0  0  0  0  0  0  0  0  0  0  0  0
  2  4  1  0
  2  1  1  1
  3  2  1  0
  4  5  1  6
  4  6  1  0
  6  7  2  0
  8  6  1  0
  8  9  1  0
  9 10  1  6
 10 11  1  0
 11 12  2  0
 12 13  1  0
 14 13  1  0
 15 14  2  0
 16 15  1  0
 17 18  1  0
 17 16  2  0
 18 19  2  0
 19 11  1  0
 19 14  1  0
 20  9  1  0
 20 21  2  0
 22 23  1  0
 24 23  1  1
 24 25  1  0
 24 26  1  0
 25 20  1  0
 26 27  1  0
 28 26  2  0
M  END
$$$$
