TWS.pdb
     RDKit          3D

 28 29  0  0  1  0  0  0  0  0999 V2000
    8.9138  -17.1840   19.9056 C   0  0  0  0  0  0  0  0  0  0  0  0
    8.2728  -15.8417   19.5476 C   0  0  1  0  0  0  0  0  0  0  0  0
    7.4540  -15.9829   18.4311 O   0  0  0  0  0  0  0  0  0  0  0  0
    7.4654  -15.3334   20.7547 C   0  0  2  0  0  0  0  0  0  0  0  0
    6.7168  -14.2350   20.3176 N   0  0  0  0  0  0  0  0  0  0  0  0
    8.3835  -15.0778   21.8951 C   0  0  0  0  0  0  0  0  0  0  0  0
    9.0412  -14.0209   21.8197 O   0  0  0  0  0  0  0  0  0  0  0  0
    8.5145  -15.9428   22.9839 N   0  0  0  0  0  0  0  0  0  0  0  0
    9.3457  -15.8682   24.1417 C   0  0  1  0  0  0  0  0  0  0  0  0
    8.6704  -16.0585   25.4763 C   0  0  0  0  0  0  0  0  0  0  0  0
    7.5136  -15.1911   25.7185 C   0  0  0  0  0  0  0  0  0  0  0  0
    6.1479  -15.4260   25.6885 C   0  0  0  0  0  0  0  0  0  0  0  0
    5.4671  -14.3000   25.9489 N   0  0  0  0  0  0  0  0  0  0  0  0
    6.3809  -13.3098   26.1515 C   0  0  0  0  0  0  0  0  0  0  0  0
    6.2076  -11.9704   26.4453 C   0  0  0  0  0  0  0  0  0  0  0  0
    7.2873  -11.1323   26.6077 C   0  0  0  0  0  0  0  0  0  0  0  0
    8.5837  -11.6403   26.4747 C   0  0  0  0  0  0  0  0  0  0  0  0
    8.7196  -12.9853   26.1803 C   0  0  0  0  0  0  0  0  0  0  0  0
    7.6430  -13.8307   26.0163 C   0  0  0  0  0  0  0  0  0  0  0  0
   10.5761  -16.6231   23.9599 C   0  0  0  0  0  0  0  0  0  0  0  0
   10.4566  -17.8995   23.8411 O   0  0  0  0  0  0  0  0  0  0  0  0
   14.4122  -15.0851   23.8816 O   0  0  0  0  0  0  0  0  0  0  0  0
   14.2616  -16.3534   23.2771 C   0  0  0  0  0  0  0  0  0  0  0  0
   13.0113  -16.9807   23.8138 C   0  0  2  0  0  0  0  0  0  0  0  0
   11.8915  -16.0713   23.9063 N   0  0  0  0  0  0  0  0  0  0  0  0
   13.2718  -17.5952   25.1747 C   0  0  0  0  0  0  0  0  0  0  0  0
   12.4805  -17.3791   26.2726 O   0  0  0  0  0  0  0  0  0  0  0  0
   14.2879  -18.3576   25.3099 O   0  0  0  0  0  0  0  0  0  0  0  0
  2  4  1  0
  2  1  1  1
  3  2  1  0
  4  5  1  6
  4  6  1  0
  6  7  2  0
  8  6  1  0
  8  9  1  0
  9 10  1  1
 10 11  1  0
 11 12  2  0
 12 13  1  0
 14 13  1  0
 15 14  2  0
 16 15  1  0
 17 18  1  0
 17 16  2  0
 18 19  2  0
 19 11  1  0
 19 14  1  0
 20  9  1  0
 20 21  2  0
 22 23  1  0
 24 23  1  1
 24 25  1  0
 24 26  1  0
 25 20  1  0
 26 27  1  0
 28 26  2  0
M  END
$$$$
