TWS.pdb
     RDKit          3D

 28 29  0  0  1  0  0  0  0  0999 V2000
    8.4531  -19.5048   20.3034 C   0  0  0  0  0  0  0  0  0  0  0  0
    8.7999  -18.5637   19.1480 C   0  0  1  0  0  0  0  0  0  0  0  0
    8.3861  -19.1146   17.9389 O   0  0  0  0  0  0  0  0  0  0  0  0
    8.1215  -17.2037   19.3878 C   0  0  2  0  0  0  0  0  0  0  0  0
    8.2272  -16.4742   18.1985 N   0  0  0  0  0  0  0  0  0  0  0  0
    8.7062  -16.5621   20.5941 C   0  0  0  0  0  0  0  0  0  0  0  0
    9.8335  -16.0544   20.4310 O   0  0  0  0  0  0  0  0  0  0  0  0
    8.0573  -16.5166   21.8302 N   0  0  0  0  0  0  0  0  0  0  0  0
    8.4664  -15.9631   23.0805 C   0  0  1  0  0  0  0  0  0  0  0  0
    7.3821  -15.7007   24.0947 C   0  0  0  0  0  0  0  0  0  0  0  0
    7.8452  -15.1597   25.3761 C   0  0  0  0  0  0  0  0  0  0  0  0
    8.5936  -15.7086   26.4056 C   0  0  0  0  0  0  0  0  0  0  0  0
    8.7388  -14.8289   27.4078 N   0  0  0  0  0  0  0  0  0  0  0  0
    8.0838  -13.6898   27.0471 C   0  0  0  0  0  0  0  0  0  0  0  0
    7.9233  -12.4922   27.7181 C   0  0  0  0  0  0  0  0  0  0  0  0
    7.2075  -11.4560   27.1626 C   0  0  0  0  0  0  0  0  0  0  0  0
    6.6314  -11.6129   25.8977 C   0  0  0  0  0  0  0  0  0  0  0  0
    6.8123  -12.8248   25.2552 C   0  0  0  0  0  0  0  0  0  0  0  0
    7.5279  -13.8670   25.8053 C   0  0  0  0  0  0  0  0  0  0  0  0
    9.6453  -16.6400   23.5990 C   0  0  0  0  0  0  0  0  0  0  0  0
    9.5611  -17.9170   23.7398 O   0  0  0  0  0  0  0  0  0  0  0  0
   13.5159  -15.2890   23.4434 O   0  0  0  0  0  0  0  0  0  0  0  0
   13.2014  -16.6664   23.4686 C   0  0  0  0  0  0  0  0  0  0  0  0
   11.9902  -16.8528   24.3306 C   0  0  2  0  0  0  0  0  0  0  0  0
   10.8737  -16.0112   23.9639 N   0  0  0  0  0  0  0  0  0  0  0  0
   12.3381  -16.6177   25.7870 C   0  0  0  0  0  0  0  0  0  0  0  0
   13.3670  -17.2486   26.4362 O   0  0  0  0  0  0  0  0  0  0  0  0
   11.6322  -15.7853   26.4510 O   0  0  0  0  0  0  0  0  0  0  0  0
  2  4  1  0
  2  1  1  1
  3  2  1  0
  4  5  1  6
  4  6  1  0
  6  7  2  0
  8  6  1  0
  8  9  1  0
  9 10  1  1
 10 11  1  0
 11 12  2  0
 12 13  1  0
 14 13  1  0
 15 14  2  0
 16 15  1  0
 17 18  1  0
 17 16  2  0
 18 19  2  0
 19 11  1  0
 19 14  1  0
 20  9  1  0
 20 21  2  0
 22 23  1  0
 24 23  1  6
 24 25  1  0
 24 26  1  0
 25 20  1  0
 26 27  1  0
 28 26  2  0
M  END
$$$$
