DCV.pdb
     RDKit          3D

 22 21  0  0  1  0  0  0  0  0999 V2000
    9.9413  -18.3024   20.8083 N   0  0  0  0  0  0  0  0  0  0  0  0
   10.9173  -17.4377   21.4202 C   0  0  1  0  0  0  0  0  0  0  0  0
   11.4662  -16.4193   20.4258 C   0  0  0  0  0  0  0  0  0  0  0  0
   12.2516  -17.1074   19.3680 C   0  0  0  0  0  0  0  0  0  0  0  0
   12.8116  -18.1849   19.6405 O   0  0  0  0  0  0  0  0  0  0  0  0
   10.3794  -16.6981   22.5693 C   0  0  0  0  0  0  0  0  0  0  0  0
   10.9421  -15.6194   22.8916 O   0  0  0  0  0  0  0  0  0  0  0  0
   12.3403  -16.5361   18.1130 O   0  0  0  0  0  0  0  0  0  0  0  0
    9.2642  -17.1157   23.3463 N   0  0  0  0  0  0  0  0  0  0  0  0
    8.8052  -16.3503   24.4821 C   0  0  1  0  0  0  0  0  0  0  0  0
    7.3802  -16.7259   24.8541 C   0  0  0  0  0  0  0  0  0  0  0  0
    7.2755  -18.4622   25.3556 S   0  0  0  0  0  0  0  0  0  0  0  0
    9.7106  -16.5055   25.6537 C   0  0  0  0  0  0  0  0  0  0  0  0
   10.6270  -17.3621   25.6714 O   0  0  0  0  0  0  0  0  0  0  0  0
   10.4328  -13.2409   27.9625 C   0  0  0  0  0  0  0  0  0  0  0  0
   10.2311  -14.4986   28.7586 C   0  0  1  0  0  0  0  0  0  0  0  0
    8.9083  -14.5118   29.4838 C   0  0  0  0  0  0  0  0  0  0  0  0
   10.4491  -15.7413   27.9392 C   0  0  2  0  0  0  0  0  0  0  0  0
    9.5417  -15.6670   26.7873 N   0  0  0  0  0  0  0  0  0  0  0  0
   10.2019  -16.9809   28.7187 C   0  0  0  0  0  0  0  0  0  0  0  0
    9.0930  -17.5576   28.5822 O   0  0  0  0  0  0  0  0  0  0  0  0
   11.1151  -17.5390   29.5843 O   0  0  0  0  0  0  0  0  0  0  0  0
  2  1  1  6
  2  3  1  0
  4  3  1  0
  4  8  1  0
  5  4  2  0
  6  2  1  0
  6  9  1  0
  7  6  2  0
 10  9  1  0
 10 13  1  0
 10 11  1  1
 11 12  1  0
 13 19  1  0
 14 13  2  0
 16 15  1  6
 16 17  1  0
 18 20  1  0
 18 16  1  0
 18 19  1  6
 20 22  1  0
 21 20  2  0
M  END
$$$$
