DCV.pdb
     RDKit          3D

 22 21  0  0  1  0  0  0  0  0999 V2000
   11.1200  -18.1729   20.2644 N   0  0  0  0  0  0  0  0  0  0  0  0
    9.9238  -17.4477   19.9211 C   0  0  1  0  0  0  0  0  0  0  0  0
    9.1517  -18.1375   18.8007 C   0  0  0  0  0  0  0  0  0  0  0  0
    8.0179  -17.2840   18.3585 C   0  0  0  0  0  0  0  0  0  0  0  0
    8.1190  -16.0482   18.4649 O   0  0  0  0  0  0  0  0  0  0  0  0
    9.0117  -17.2853   21.0606 C   0  0  0  0  0  0  0  0  0  0  0  0
    7.9855  -18.0127   21.1025 O   0  0  0  0  0  0  0  0  0  0  0  0
    6.8840  -17.8814   17.8422 O   0  0  0  0  0  0  0  0  0  0  0  0
    9.2064  -16.3613   22.1237 N   0  0  0  0  0  0  0  0  0  0  0  0
    8.3369  -16.3418   23.2770 C   0  0  1  0  0  0  0  0  0  0  0  0
    8.2845  -17.7062   23.9447 C   0  0  0  0  0  0  0  0  0  0  0  0
    9.9336  -18.2361   24.4709 S   0  0  0  0  0  0  0  0  0  0  0  0
    8.7421  -15.2952   24.2553 C   0  0  0  0  0  0  0  0  0  0  0  0
    9.8909  -14.7912   24.2455 O   0  0  0  0  0  0  0  0  0  0  0  0
    7.0536  -11.8095   27.2946 C   0  0  0  0  0  0  0  0  0  0  0  0
    6.9291  -12.8595   26.2277 C   0  0  1  0  0  0  0  0  0  0  0  0
    6.5674  -12.2729   24.8858 C   0  0  0  0  0  0  0  0  0  0  0  0
    8.1356  -13.7555   26.1564 C   0  0  2  0  0  0  0  0  0  0  0  0
    7.8115  -14.8477   25.2302 N   0  0  0  0  0  0  0  0  0  0  0  0
    8.5161  -14.2952   27.4865 C   0  0  0  0  0  0  0  0  0  0  0  0
    8.0600  -15.4168   27.8254 O   0  0  0  0  0  0  0  0  0  0  0  0
    9.3401  -13.6409   28.3740 O   0  0  0  0  0  0  0  0  0  0  0  0
  2  1  1  1
  2  3  1  0
  4  3  1  0
  4  8  1  0
  5  4  2  0
  6  2  1  0
  6  9  1  0
  7  6  2  0
 10  9  1  0
 10 13  1  0
 10 11  1  1
 11 12  1  0
 13 19  1  0
 14 13  2  0
 16 15  1  1
 16 17  1  0
 18 20  1  0
 18 16  1  0
 18 19  1  6
 20 22  1  0
 21 20  2  0
M  END
$$$$
