DCV.pdb
     RDKit          3D

 22 21  0  0  1  0  0  0  0  0999 V2000
   10.8942  -16.3543   19.9853 N   0  0  0  0  0  0  0  0  0  0  0  0
   10.6920  -17.3236   21.0314 C   0  0  1  0  0  0  0  0  0  0  0  0
   12.0128  -17.9237   21.5030 C   0  0  0  0  0  0  0  0  0  0  0  0
   12.6479  -18.6944   20.4019 C   0  0  0  0  0  0  0  0  0  0  0  0
   13.5819  -18.1739   19.7652 O   0  0  0  0  0  0  0  0  0  0  0  0
   10.0113  -16.7596   22.2041 C   0  0  0  0  0  0  0  0  0  0  0  0
   10.1745  -15.5357   22.4484 O   0  0  0  0  0  0  0  0  0  0  0  0
   12.1874  -19.9649   20.1137 O   0  0  0  0  0  0  0  0  0  0  0  0
    9.1780  -17.5007   23.0864 N   0  0  0  0  0  0  0  0  0  0  0  0
    8.5737  -16.8894   24.2473 C   0  0  1  0  0  0  0  0  0  0  0  0
    7.3071  -17.6242   24.6545 C   0  0  0  0  0  0  0  0  0  0  0  0
    6.5536  -16.8616   26.1132 S   0  0  0  0  0  0  0  0  0  0  0  0
    9.5259  -16.8145   25.3894 C   0  0  0  0  0  0  0  0  0  0  0  0
   10.4078  -17.6878   25.5725 O   0  0  0  0  0  0  0  0  0  0  0  0
   10.8118  -14.1580   29.4251 C   0  0  0  0  0  0  0  0  0  0  0  0
    9.9011  -14.4382   28.2640 C   0  0  1  0  0  0  0  0  0  0  0  0
    9.6684  -13.2164   27.4103 C   0  0  0  0  0  0  0  0  0  0  0  0
   10.3452  -15.6270   27.4561 C   0  0  2  0  0  0  0  0  0  0  0  0
    9.4429  -15.7300   26.3024 N   0  0  0  0  0  0  0  0  0  0  0  0
   10.3267  -16.8841   28.2465 C   0  0  0  0  0  0  0  0  0  0  0  0
    9.2441  -17.5182   28.3294 O   0  0  0  0  0  0  0  0  0  0  0  0
   11.4254  -17.3995   28.8960 O   0  0  0  0  0  0  0  0  0  0  0  0
  2  1  1  6
  2  3  1  0
  4  3  1  0
  4  8  1  0
  5  4  2  0
  6  2  1  0
  6  9  1  0
  7  6  2  0
 10  9  1  0
 10 13  1  0
 10 11  1  1
 11 12  1  0
 13 19  1  0
 14 13  2  0
 16 15  1  1
 16 17  1  0
 18 20  1  0
 18 16  1  0
 18 19  1  6
 20 22  1  0
 21 20  2  0
M  END
$$$$
