DCV.pdb
     RDKit          3D

 22 21  0  0  1  0  0  0  0  0999 V2000
   11.6560  -17.7464   19.7000 N   0  0  0  0  0  0  0  0  0  0  0  0
   12.1563  -17.6880   21.0495 C   0  0  1  0  0  0  0  0  0  0  0  0
   13.2388  -16.6238   21.2009 C   0  0  0  0  0  0  0  0  0  0  0  0
   14.5355  -17.1343   20.6837 C   0  0  0  0  0  0  0  0  0  0  0  0
   14.9611  -18.2264   21.1021 O   0  0  0  0  0  0  0  0  0  0  0  0
   11.1042  -17.4010   22.0330 C   0  0  0  0  0  0  0  0  0  0  0  0
    9.9113  -17.3835   21.6320 O   0  0  0  0  0  0  0  0  0  0  0  0
   15.2336  -16.3868   19.7548 O   0  0  0  0  0  0  0  0  0  0  0  0
   11.3384  -17.1404   23.4111 N   0  0  0  0  0  0  0  0  0  0  0  0
   10.2529  -17.0649   24.3612 C   0  0  1  0  0  0  0  0  0  0  0  0
    9.4310  -18.3434   24.3542 C   0  0  0  0  0  0  0  0  0  0  0  0
   10.4703  -19.7863   24.6936 S   0  0  0  0  0  0  0  0  0  0  0  0
   10.7424  -16.7646   25.7348 C   0  0  0  0  0  0  0  0  0  0  0  0
   11.8168  -17.2424   26.1724 O   0  0  0  0  0  0  0  0  0  0  0  0
   10.0884  -13.7286   29.6305 C   0  0  0  0  0  0  0  0  0  0  0  0
    9.6005  -14.3563   28.3561 C   0  0  1  0  0  0  0  0  0  0  0  0
    9.3373  -13.3345   27.2780 C   0  0  0  0  0  0  0  0  0  0  0  0
   10.4925  -15.4721   27.8842 C   0  0  2  0  0  0  0  0  0  0  0  0
    9.9811  -15.9156   26.5813 N   0  0  0  0  0  0  0  0  0  0  0  0
   10.5316  -16.6059   28.8425 C   0  0  0  0  0  0  0  0  0  0  0  0
    9.6342  -17.4830   28.7625 O   0  0  0  0  0  0  0  0  0  0  0  0
   11.4930  -16.7561   29.8161 O   0  0  0  0  0  0  0  0  0  0  0  0
  2  1  1  6
  2  3  1  0
  4  3  1  0
  4  8  1  0
  5  4  2  0
  6  2  1  0
  6  9  1  0
  7  6  2  0
 10  9  1  0
 10 13  1  0
 10 11  1  1
 11 12  1  0
 13 19  1  0
 14 13  2  0
 16 15  1  1
 16 17  1  0
 18 20  1  0
 18 16  1  0
 18 19  1  6
 20 22  1  0
 21 20  2  0
M  END
$$$$
