DCV.pdb
     RDKit          3D

 22 21  0  0  1  0  0  0  0  0999 V2000
    9.3220  -17.9137   20.4751 N   0  0  0  0  0  0  0  0  0  0  0  0
    8.2999  -16.9416   20.1836 C   0  0  1  0  0  0  0  0  0  0  0  0
    7.2638  -17.4924   19.2086 C   0  0  0  0  0  0  0  0  0  0  0  0
    7.9311  -17.9828   17.9743 C   0  0  0  0  0  0  0  0  0  0  0  0
    9.1013  -18.3998   18.0492 O   0  0  0  0  0  0  0  0  0  0  0  0
    7.5884  -16.4882   21.3856 C   0  0  0  0  0  0  0  0  0  0  0  0
    6.6219  -15.6962   21.2349 O   0  0  0  0  0  0  0  0  0  0  0  0
    7.2385  -17.9639   16.7788 O   0  0  0  0  0  0  0  0  0  0  0  0
    7.9151  -16.8818   22.7123 N   0  0  0  0  0  0  0  0  0  0  0  0
    7.1653  -16.4012   23.8496 C   0  0  1  0  0  0  0  0  0  0  0  0
    6.7932  -17.5434   24.7808 C   0  0  0  0  0  0  0  0  0  0  0  0
    8.2696  -18.2930   25.5125 S   0  0  0  0  0  0  0  0  0  0  0  0
    7.9049  -15.3419   24.5897 C   0  0  0  0  0  0  0  0  0  0  0  0
    9.1537  -15.2406   24.5256 O   0  0  0  0  0  0  0  0  0  0  0  0
    6.8151  -11.5620   25.0174 C   0  0  0  0  0  0  0  0  0  0  0  0
    7.0104  -12.2294   26.3489 C   0  0  1  0  0  0  0  0  0  0  0  0
    5.7030  -12.5027   27.0502 C   0  0  0  0  0  0  0  0  0  0  0  0
    7.8805  -13.4534   26.2587 C   0  0  2  0  0  0  0  0  0  0  0  0
    7.1879  -14.4160   25.3930 N   0  0  0  0  0  0  0  0  0  0  0  0
    8.1519  -14.0512   27.5907 C   0  0  0  0  0  0  0  0  0  0  0  0
    7.5503  -15.1109   27.9004 O   0  0  0  0  0  0  0  0  0  0  0  0
    9.0245  -13.5146   28.5102 O   0  0  0  0  0  0  0  0  0  0  0  0
  2  1  1  1
  2  3  1  0
  4  3  1  0
  4  8  1  0
  5  4  2  0
  6  2  1  0
  6  9  1  0
  7  6  2  0
 10  9  1  0
 10 13  1  0
 10 11  1  1
 11 12  1  0
 13 19  1  0
 14 13  2  0
 16 15  1  6
 16 17  1  0
 18 20  1  0
 18 16  1  0
 18 19  1  6
 20 22  1  0
 21 20  2  0
M  END
$$$$
