WML.pdb
     RDKit          3D

 31 32  0  0  1  0  0  0  0  0999 V2000
   25.9132  -21.8392  -13.0115 N   0  0  0  0  0  0  0  0  0  0  0  0
   26.1440  -20.6476  -12.2182 C   0  0  1  0  0  0  0  0  0  0  0  0
   24.9784  -19.6759  -12.3265 C   0  0  0  0  0  0  0  0  0  0  0  0
   24.8543  -19.0790  -13.6619 C   0  0  0  0  0  0  0  0  0  0  0  0
   23.7287  -18.9641  -14.4291 C   0  0  0  0  0  0  0  0  0  0  0  0
   24.0300  -18.3524  -15.5966 N   0  0  0  0  0  0  0  0  0  0  0  0
   25.3352  -18.0677  -15.5997 C   0  0  0  0  0  0  0  0  0  0  0  0
   26.1358  -17.4449  -16.5583 C   0  0  0  0  0  0  0  0  0  0  0  0
   27.4691  -17.2915  -16.2673 C   0  0  0  0  0  0  0  0  0  0  0  0
   28.0205  -17.7305  -15.0736 C   0  0  0  0  0  0  0  0  0  0  0  0
   27.2250  -18.3437  -14.1328 C   0  0  0  0  0  0  0  0  0  0  0  0
   25.8775  -18.5116  -14.3997 C   0  0  0  0  0  0  0  0  0  0  0  0
   26.1901  -21.0496  -10.7768 C   0  0  0  0  0  0  0  0  0  0  0  0
   25.5559  -22.0280  -10.3700 O   0  0  0  0  0  0  0  0  0  0  0  0
   29.1845  -19.7286   -3.5587 C   0  0  0  0  0  0  0  0  0  0  0  0
   29.2207  -19.2765   -5.3146 S   0  0  0  0  0  0  0  0  0  0  0  0
   27.8985  -20.1583   -6.1982 C   0  0  0  0  0  0  0  0  0  0  0  0
   28.0255  -19.7805   -7.6627 C   0  0  0  0  0  0  0  0  0  0  0  0
   26.9993  -20.5412   -8.4258 C   0  0  2  0  0  0  0  0  0  0  0  0
   26.9538  -20.3361   -9.8213 N   0  0  0  0  0  0  0  0  0  0  0  0
   25.6253  -20.3694   -7.8647 C   0  0  0  0  0  0  0  0  0  0  0  0
   24.9619  -19.3184   -8.1372 O   0  0  0  0  0  0  0  0  0  0  0  0
   21.1215  -22.1160   -5.2106 C   0  0  0  0  0  0  0  0  0  0  0  0
   21.2900  -22.0507   -6.7218 C   0  0  2  0  0  0  0  0  0  0  0  0
   20.3675  -22.9339   -7.4717 C   0  0  0  0  0  0  0  0  0  0  0  0
   22.7149  -22.0575   -7.1134 C   0  0  0  0  0  0  0  0  0  0  0  0
   23.6303  -21.0668   -6.5030 C   0  0  2  0  0  0  0  0  0  0  0  0
   25.0034  -21.3089   -7.0399 N   0  0  0  0  0  0  0  0  0  0  0  0
   23.7645  -21.1851   -5.0590 C   0  0  0  0  0  0  0  0  0  0  0  0
   24.4230  -22.1021   -4.5302 O   0  0  0  0  0  0  0  0  0  0  0  0
   23.1655  -20.2808   -4.1901 O   0  0  0  0  0  0  0  0  0  0  0  0
  2  1  1  6
  2  3  1  0
  3  4  1  0
  4 12  1  0
  4  5  2  0
  5  6  1  0
  7  6  1  0
  7  8  2  0
  9  8  1  0
 10  9  2  0
 11 10  1  0
 11 12  2  0
 12  7  1  0
 13  2  1  0
 13 14  2  0
 16 17  1  0
 16 15  1  0
 17 18  1  0
 19 18  1  1
 19 20  1  0
 20 13  1  0
 21 19  1  0
 22 21  2  0
 24 26  1  0
 24 23  1  1
 25 24  1  0
 27 28  1  0
 27 26  1  6
 28 21  1  0
 29 27  1  0
 30 29  2  0
 31 29  1  0
M  END
$$$$
