WML.pdb
     RDKit          3D

 31 32  0  0  1  0  0  0  0  0999 V2000
   29.0409  -20.2629  -12.0843 N   0  0  0  0  0  0  0  0  0  0  0  0
   27.8611  -21.0570  -11.8015 C   0  0  1  0  0  0  0  0  0  0  0  0
   27.5232  -21.0376  -10.3182 C   0  0  0  0  0  0  0  0  0  0  0  0
   28.6901  -21.2861   -9.4629 C   0  0  0  0  0  0  0  0  0  0  0  0
   29.8423  -21.9473   -9.7857 C   0  0  0  0  0  0  0  0  0  0  0  0
   30.6760  -21.9621   -8.7214 N   0  0  0  0  0  0  0  0  0  0  0  0
   30.0828  -21.3201   -7.7112 C   0  0  0  0  0  0  0  0  0  0  0  0
   30.5150  -21.0596   -6.4100 C   0  0  0  0  0  0  0  0  0  0  0  0
   29.6645  -20.3623   -5.5876 C   0  0  0  0  0  0  0  0  0  0  0  0
   28.4196  -19.9242   -6.0121 C   0  0  0  0  0  0  0  0  0  0  0  0
   27.9999  -20.1846   -7.2966 C   0  0  0  0  0  0  0  0  0  0  0  0
   28.8368  -20.8855   -8.1471 C   0  0  0  0  0  0  0  0  0  0  0  0
   26.6927  -20.4131  -12.4809 C   0  0  0  0  0  0  0  0  0  0  0  0
   26.3815  -19.2434  -12.2360 O   0  0  0  0  0  0  0  0  0  0  0  0
   27.5158  -18.8126  -18.5479 C   0  0  0  0  0  0  0  0  0  0  0  0
   26.2133  -19.9153  -17.9343 S   0  0  0  0  0  0  0  0  0  0  0  0
   26.1015  -19.7782  -16.1244 C   0  0  0  0  0  0  0  0  0  0  0  0
   24.9786  -20.7003  -15.6859 C   0  0  0  0  0  0  0  0  0  0  0  0
   24.8420  -20.5900  -14.2083 C   0  0  2  0  0  0  0  0  0  0  0  0
   25.8970  -21.1057  -13.4256 N   0  0  0  0  0  0  0  0  0  0  0  0
   23.5494  -21.1496  -13.7100 C   0  0  0  0  0  0  0  0  0  0  0  0
   23.4915  -22.3660  -13.3413 O   0  0  0  0  0  0  0  0  0  0  0  0
   21.2556  -20.8868  -10.0944 C   0  0  0  0  0  0  0  0  0  0  0  0
   20.9670  -19.6458  -10.9269 C   0  0  2  0  0  0  0  0  0  0  0  0
   20.2991  -18.5569  -10.1776 C   0  0  0  0  0  0  0  0  0  0  0  0
   20.4260  -19.9942  -12.2572 C   0  0  0  0  0  0  0  0  0  0  0  0
   21.1222  -21.0190  -13.0678 C   0  0  2  0  0  0  0  0  0  0  0  0
   22.3694  -20.4084  -13.6190 N   0  0  0  0  0  0  0  0  0  0  0  0
   20.3766  -21.4692  -14.2333 C   0  0  0  0  0  0  0  0  0  0  0  0
   19.3645  -22.1898  -14.1316 O   0  0  0  0  0  0  0  0  0  0  0  0
   20.7528  -21.1194  -15.5248 O   0  0  0  0  0  0  0  0  0  0  0  0
  2  1  1  1
  2  3  1  0
  3  4  1  0
  4 12  1  0
  4  5  2  0
  5  6  1  0
  7  6  1  0
  7  8  2  0
  9  8  1  0
 10  9  2  0
 11 10  1  0
 11 12  2  0
 12  7  1  0
 13  2  1  0
 13 14  2  0
 16 17  1  0
 16 15  1  0
 17 18  1  0
 19 18  1  6
 19 20  1  0
 20 13  1  0
 21 19  1  0
 22 21  2  0
 24 26  1  0
 24 23  1  1
 25 24  1  0
 27 28  1  0
 27 26  1  6
 28 21  1  0
 29 27  1  0
 30 29  2  0
 31 29  1  0
M  END
$$$$
