WML.pdb
     RDKit          3D

 31 32  0  0  1  0  0  0  0  0999 V2000
   33.0842  -31.5397  -22.6319 N   0  0  0  0  0  0  0  0  0  0  0  0
   33.8314  -31.1889  -21.4399 C   0  0  1  0  0  0  0  0  0  0  0  0
   33.2411  -29.9643  -20.7566 C   0  0  0  0  0  0  0  0  0  0  0  0
   33.4655  -28.7252  -21.5111 C   0  0  0  0  0  0  0  0  0  0  0  0
   32.6134  -28.1069  -22.3830 C   0  0  0  0  0  0  0  0  0  0  0  0
   33.1908  -26.9862  -22.8716 N   0  0  0  0  0  0  0  0  0  0  0  0
   34.4061  -26.8667  -22.3300 C   0  0  0  0  0  0  0  0  0  0  0  0
   35.3950  -25.8968  -22.5006 C   0  0  0  0  0  0  0  0  0  0  0  0
   36.5615  -26.0501  -21.7924 C   0  0  0  0  0  0  0  0  0  0  0  0
   36.7709  -27.1192  -20.9351 C   0  0  0  0  0  0  0  0  0  0  0  0
   35.7913  -28.0720  -20.7717 C   0  0  0  0  0  0  0  0  0  0  0  0
   34.6054  -27.9426  -21.4731 C   0  0  0  0  0  0  0  0  0  0  0  0
   33.6812  -32.3032  -20.4514 C   0  0  0  0  0  0  0  0  0  0  0  0
   32.6408  -32.9660  -20.3953 O   0  0  0  0  0  0  0  0  0  0  0  0
   39.1876  -34.4189  -18.1395 C   0  0  0  0  0  0  0  0  0  0  0  0
   38.1549  -35.7870  -18.7316 S   0  0  0  0  0  0  0  0  0  0  0  0
   36.5474  -35.1417  -19.2851 C   0  0  0  0  0  0  0  0  0  0  0  0
   36.0417  -34.2281  -18.1837 C   0  0  0  0  0  0  0  0  0  0  0  0
   34.7158  -33.6955  -18.5990 C   0  0  2  0  0  0  0  0  0  0  0  0
   34.7122  -32.6470  -19.5435 N   0  0  0  0  0  0  0  0  0  0  0  0
   33.8669  -33.3024  -17.4340 C   0  0  0  0  0  0  0  0  0  0  0  0
   34.0429  -32.1699  -16.8816 O   0  0  0  0  0  0  0  0  0  0  0  0
   28.1805  -33.0633  -16.2469 C   0  0  0  0  0  0  0  0  0  0  0  0
   29.5108  -33.0192  -15.5086 C   0  0  2  0  0  0  0  0  0  0  0  0
   29.6554  -31.8653  -14.5916 C   0  0  0  0  0  0  0  0  0  0  0  0
   30.6438  -33.3279  -16.4056 C   0  0  0  0  0  0  0  0  0  0  0  0
   31.9705  -33.6111  -15.8125 C   0  0  2  0  0  0  0  0  0  0  0  0
   32.8669  -34.1153  -16.8963 N   0  0  0  0  0  0  0  0  0  0  0  0
   31.9654  -34.6638  -14.8082 C   0  0  0  0  0  0  0  0  0  0  0  0
   31.9678  -35.8714  -15.1176 O   0  0  0  0  0  0  0  0  0  0  0  0
   31.9580  -34.3797  -13.4477 O   0  0  0  0  0  0  0  0  0  0  0  0
  2  1  1  6
  2  3  1  0
  3  4  1  0
  4 12  1  0
  4  5  2  0
  5  6  1  0
  7  6  1  0
  7  8  2  0
  9  8  1  0
 10  9  2  0
 11 10  1  0
 11 12  2  0
 12  7  1  0
 13  2  1  0
 13 14  2  0
 16 17  1  0
 16 15  1  0
 17 18  1  0
 19 18  1  1
 19 20  1  0
 20 13  1  0
 21 19  1  0
 22 21  2  0
 24 26  1  0
 24 23  1  6
 25 24  1  0
 27 28  1  0
 27 26  1  6
 28 21  1  0
 29 27  1  0
 30 29  2  0
 31 29  1  0
M  END
$$$$
