WML.pdb
     RDKit          3D

 31 32  0  0  1  0  0  0  0  0999 V2000
   26.2095  -22.7842  -12.3247 N   0  0  0  0  0  0  0  0  0  0  0  0
   25.6312  -21.8707  -11.3586 C   0  0  1  0  0  0  0  0  0  0  0  0
   26.4193  -20.5714  -11.2844 C   0  0  0  0  0  0  0  0  0  0  0  0
   27.6097  -20.6731  -10.4313 C   0  0  0  0  0  0  0  0  0  0  0  0
   28.8657  -21.0786  -10.7872 C   0  0  0  0  0  0  0  0  0  0  0  0
   29.6845  -21.0316   -9.7123 N   0  0  0  0  0  0  0  0  0  0  0  0
   28.9792  -20.6013   -8.6625 C   0  0  0  0  0  0  0  0  0  0  0  0
   29.3516  -20.3799   -7.3359 C   0  0  0  0  0  0  0  0  0  0  0  0
   28.3837  -19.9268   -6.4735 C   0  0  0  0  0  0  0  0  0  0  0  0
   27.0803  -19.6915   -6.8827 C   0  0  0  0  0  0  0  0  0  0  0  0
   26.7201  -19.9120   -8.1926 C   0  0  0  0  0  0  0  0  0  0  0  0
   27.6754  -20.3687   -9.0836 C   0  0  0  0  0  0  0  0  0  0  0  0
   24.2702  -21.4794  -11.8444 C   0  0  0  0  0  0  0  0  0  0  0  0
   24.0159  -21.4344  -13.0520 O   0  0  0  0  0  0  0  0  0  0  0  0
   19.7234  -23.5220   -8.0823 C   0  0  0  0  0  0  0  0  0  0  0  0
   18.6101  -22.5341   -9.1184 S   0  0  0  0  0  0  0  0  0  0  0  0
   19.5564  -21.7632  -10.4664 C   0  0  0  0  0  0  0  0  0  0  0  0
   21.0088  -21.7479  -10.0263 C   0  0  0  0  0  0  0  0  0  0  0  0
   21.8323  -21.2720  -11.1706 C   0  0  2  0  0  0  0  0  0  0  0  0
   23.2210  -21.1459  -10.9537 N   0  0  0  0  0  0  0  0  0  0  0  0
   21.3150  -19.9990  -11.7572 C   0  0  0  0  0  0  0  0  0  0  0  0
   21.8208  -18.8889  -11.3956 O   0  0  0  0  0  0  0  0  0  0  0  0
   22.5855  -19.1151  -16.9145 C   0  0  0  0  0  0  0  0  0  0  0  0
   21.5071  -18.5350  -16.0106 C   0  0  2  0  0  0  0  0  0  0  0  0
   21.5531  -17.0602  -15.8843 C   0  0  0  0  0  0  0  0  0  0  0  0
   21.3505  -19.3243  -14.7712 C   0  0  0  0  0  0  0  0  0  0  0  0
   20.3077  -18.9293  -13.7973 C   0  0  2  0  0  0  0  0  0  0  0  0
   20.2868  -19.9436  -12.7004 N   0  0  0  0  0  0  0  0  0  0  0  0
   18.9556  -18.9282  -14.3347 C   0  0  0  0  0  0  0  0  0  0  0  0
   18.2805  -19.9722  -14.4254 O   0  0  0  0  0  0  0  0  0  0  0  0
   18.3425  -17.7615  -14.7760 O   0  0  0  0  0  0  0  0  0  0  0  0
  2  1  1  6
  2  3  1  0
  3  4  1  0
  4 12  1  0
  4  5  2  0
  5  6  1  0
  7  6  1  0
  7  8  2  0
  9  8  1  0
 10  9  2  0
 11 10  1  0
 11 12  2  0
 12  7  1  0
 13  2  1  0
 13 14  2  0
 16 17  1  0
 16 15  1  0
 17 18  1  0
 19 18  1  1
 19 20  1  0
 20 13  1  0
 21 19  1  0
 22 21  2  0
 24 26  1  0
 24 23  1  1
 25 24  1  0
 27 28  1  0
 27 26  1  6
 28 21  1  0
 29 27  1  0
 30 29  2  0
 31 29  1  0
M  END
$$$$
