WML.pdb
     RDKit          3D

 31 32  0  0  1  0  0  0  0  0999 V2000
   26.4791  -21.7072  -13.8139 N   0  0  0  0  0  0  0  0  0  0  0  0
   26.9688  -20.6990  -12.8940 C   0  0  1  0  0  0  0  0  0  0  0  0
   26.2485  -19.3734  -13.0904 C   0  0  0  0  0  0  0  0  0  0  0  0
   26.3924  -18.8410  -14.4509 C   0  0  0  0  0  0  0  0  0  0  0  0
   25.4027  -18.4456  -15.3070 C   0  0  0  0  0  0  0  0  0  0  0  0
   25.9457  -18.0138  -16.4675 N   0  0  0  0  0  0  0  0  0  0  0  0
   27.2742  -18.1225  -16.3784 C   0  0  0  0  0  0  0  0  0  0  0  0
   28.2830  -17.8141  -17.2922 C   0  0  0  0  0  0  0  0  0  0  0  0
   29.5805  -18.0401  -16.9034 C   0  0  0  0  0  0  0  0  0  0  0  0
   29.8997  -18.5541  -15.6561 C   0  0  0  0  0  0  0  0  0  0  0  0
   28.8997  -18.8558  -14.7600 C   0  0  0  0  0  0  0  0  0  0  0  0
   27.5828  -18.6382  -15.1254 C   0  0  0  0  0  0  0  0  0  0  0  0
   26.6257  -21.1323  -11.5026 C   0  0  0  0  0  0  0  0  0  0  0  0
   25.7106  -21.9352  -11.2953 O   0  0  0  0  0  0  0  0  0  0  0  0
   27.7815  -19.8347   -3.7628 C   0  0  0  0  0  0  0  0  0  0  0  0
   28.3325  -19.4746   -5.4527 S   0  0  0  0  0  0  0  0  0  0  0  0
   27.2179  -20.2812   -6.6418 C   0  0  0  0  0  0  0  0  0  0  0  0
   27.8096  -20.0497   -8.0202 C   0  0  0  0  0  0  0  0  0  0  0  0
   26.9272  -20.7129   -9.0179 C   0  0  2  0  0  0  0  0  0  0  0  0
   27.3250  -20.6482  -10.3704 N   0  0  0  0  0  0  0  0  0  0  0  0
   25.5049  -20.2684   -8.9085 C   0  0  0  0  0  0  0  0  0  0  0  0
   25.1787  -19.1026   -9.3002 O   0  0  0  0  0  0  0  0  0  0  0  0
   21.0990  -21.4714  -11.8668 C   0  0  0  0  0  0  0  0  0  0  0  0
   21.3040  -20.9114  -10.4665 C   0  0  2  0  0  0  0  0  0  0  0  0
   20.6505  -19.6024  -10.2372 C   0  0  0  0  0  0  0  0  0  0  0  0
   22.7024  -21.0676  -10.0151 C   0  0  0  0  0  0  0  0  0  0  0  0
   23.0480  -20.7162   -8.6190 C   0  0  2  0  0  0  0  0  0  0  0  0
   24.4825  -21.0670   -8.3920 N   0  0  0  0  0  0  0  0  0  0  0  0
   22.3131  -21.4672   -7.6126 C   0  0  0  0  0  0  0  0  0  0  0  0
   22.7308  -22.5523   -7.1631 O   0  0  0  0  0  0  0  0  0  0  0  0
   21.1043  -21.0147   -7.0970 O   0  0  0  0  0  0  0  0  0  0  0  0
  2  1  1  6
  2  3  1  0
  3  4  1  0
  4 12  1  0
  4  5  2  0
  5  6  1  0
  7  6  1  0
  7  8  2  0
  9  8  1  0
 10  9  2  0
 11 10  1  0
 11 12  2  0
 12  7  1  0
 13  2  1  0
 13 14  2  0
 16 17  1  0
 16 15  1  0
 17 18  1  0
 19 18  1  1
 19 20  1  0
 20 13  1  0
 21 19  1  0
 22 21  2  0
 24 26  1  0
 24 23  1  6
 25 24  1  0
 27 28  1  0
 27 26  1  6
 28 21  1  0
 29 27  1  0
 30 29  2  0
 31 29  1  0
M  END
$$$$
