WML.pdb
     RDKit          3D

 31 32  0  0  1  0  0  0  0  0999 V2000
   27.3583  -20.2157  -15.7939 N   0  0  0  0  0  0  0  0  0  0  0  0
   26.9647  -19.5257  -14.5809 C   0  0  1  0  0  0  0  0  0  0  0  0
   25.5380  -19.0059  -14.6776 C   0  0  0  0  0  0  0  0  0  0  0  0
   25.3806  -17.9534  -15.6888 C   0  0  0  0  0  0  0  0  0  0  0  0
   24.6077  -17.9806  -16.8159 C   0  0  0  0  0  0  0  0  0  0  0  0
   24.7347  -16.8139  -17.4873 N   0  0  0  0  0  0  0  0  0  0  0  0
   25.5790  -16.0283  -16.8130 C   0  0  0  0  0  0  0  0  0  0  0  0
   26.0409  -14.7382  -17.0774 C   0  0  0  0  0  0  0  0  0  0  0  0
   26.9202  -14.1840  -16.1799 C   0  0  0  0  0  0  0  0  0  0  0  0
   27.3465  -14.8613  -15.0480 C   0  0  0  0  0  0  0  0  0  0  0  0
   26.8868  -16.1333  -14.7936 C   0  0  0  0  0  0  0  0  0  0  0  0
   25.9997  -16.7165  -15.6813 C   0  0  0  0  0  0  0  0  0  0  0  0
   26.9469  -20.5218  -13.4634 C   0  0  0  0  0  0  0  0  0  0  0  0
   26.7960  -21.7265  -13.6892 O   0  0  0  0  0  0  0  0  0  0  0  0
   27.9934  -19.1998   -6.9244 C   0  0  0  0  0  0  0  0  0  0  0  0
   26.5241  -20.2610   -6.9879 S   0  0  0  0  0  0  0  0  0  0  0  0
   26.5012  -21.1764   -8.5589 C   0  0  0  0  0  0  0  0  0  0  0  0
   26.8207  -20.1736   -9.6525 C   0  0  0  0  0  0  0  0  0  0  0  0
   26.7879  -20.8882  -10.9572 C   0  0  2  0  0  0  0  0  0  0  0  0
   27.1002  -20.1358  -12.1096 N   0  0  0  0  0  0  0  0  0  0  0  0
   25.4985  -21.6087  -11.1825 C   0  0  0  0  0  0  0  0  0  0  0  0
   25.1445  -22.5300  -10.3796 O   0  0  0  0  0  0  0  0  0  0  0  0
   20.3168  -21.1727  -12.5521 C   0  0  0  0  0  0  0  0  0  0  0  0
   21.0239  -20.5154  -11.3755 C   0  0  2  0  0  0  0  0  0  0  0  0
   20.3551  -19.2926  -10.8747 C   0  0  0  0  0  0  0  0  0  0  0  0
   22.4868  -20.4624  -11.5776 C   0  0  0  0  0  0  0  0  0  0  0  0
   23.1752  -21.6450  -12.1426 C   0  0  2  0  0  0  0  0  0  0  0  0
   24.6327  -21.3318  -12.2426 N   0  0  0  0  0  0  0  0  0  0  0  0
   22.7693  -21.9837  -13.4982 C   0  0  0  0  0  0  0  0  0  0  0  0
   21.7116  -22.5990  -13.7363 O   0  0  0  0  0  0  0  0  0  0  0  0
   23.5396  -21.6388  -14.6024 O   0  0  0  0  0  0  0  0  0  0  0  0
  2  1  1  6
  2  3  1  0
  3  4  1  0
  4 12  1  0
  4  5  2  0
  5  6  1  0
  7  6  1  0
  7  8  2  0
  9  8  1  0
 10  9  2  0
 11 10  1  0
 11 12  2  0
 12  7  1  0
 13  2  1  0
 13 14  2  0
 16 17  1  0
 16 15  1  0
 17 18  1  0
 19 18  1  1
 19 20  1  0
 20 13  1  0
 21 19  1  0
 22 21  2  0
 24 26  1  0
 24 23  1  6
 25 24  1  0
 27 28  1  0
 27 26  1  6
 28 21  1  0
 29 27  1  0
 30 29  2  0
 31 29  1  0
M  END
$$$$
