WML.pdb
     RDKit          3D

 31 32  0  0  1  0  0  0  0  0999 V2000
   15.6747  -14.9070    5.8779 N   0  0  0  0  0  0  0  0  0  0  0  0
   16.7510  -15.7261    5.3553 C   0  0  1  0  0  0  0  0  0  0  0  0
   18.1109  -15.1833    5.7688 C   0  0  0  0  0  0  0  0  0  0  0  0
   18.5838  -14.1018    4.8961 C   0  0  0  0  0  0  0  0  0  0  0  0
   18.4280  -12.7547    5.0685 C   0  0  0  0  0  0  0  0  0  0  0  0
   19.0088  -12.0910    4.0437 N   0  0  0  0  0  0  0  0  0  0  0  0
   19.5402  -12.9870    3.2074 C   0  0  0  0  0  0  0  0  0  0  0  0
   20.2423  -12.8228    2.0125 C   0  0  0  0  0  0  0  0  0  0  0  0
   20.6700  -13.9575    1.3680 C   0  0  0  0  0  0  0  0  0  0  0  0
   20.4251  -15.2276    1.8665 C   0  0  0  0  0  0  0  0  0  0  0  0
   19.7322  -15.3821    3.0455 C   0  0  0  0  0  0  0  0  0  0  0  0
   19.2892  -14.2556    3.7163 C   0  0  0  0  0  0  0  0  0  0  0  0
   16.6566  -17.0790    5.9895 C   0  0  0  0  0  0  0  0  0  0  0  0
   16.3098  -17.2048    7.1680 O   0  0  0  0  0  0  0  0  0  0  0  0
   18.5775  -24.7391    5.4329 C   0  0  0  0  0  0  0  0  0  0  0  0
   17.8115  -23.3047    4.6301 S   0  0  0  0  0  0  0  0  0  0  0  0
   17.9834  -21.8440    5.6996 C   0  0  0  0  0  0  0  0  0  0  0  0
   17.4492  -20.6617    4.9120 C   0  0  0  0  0  0  0  0  0  0  0  0
   17.5143  -19.4587    5.7853 C   0  0  2  0  0  0  0  0  0  0  0  0
   16.9570  -18.2657    5.2777 N   0  0  0  0  0  0  0  0  0  0  0  0
   18.8991  -19.1791    6.2716 C   0  0  0  0  0  0  0  0  0  0  0  0
   19.6930  -18.4958    5.5493 O   0  0  0  0  0  0  0  0  0  0  0  0
   21.7503  -16.5571   10.3537 C   0  0  0  0  0  0  0  0  0  0  0  0
   22.0507  -17.5874    9.2745 C   0  0  2  0  0  0  0  0  0  0  0  0
   23.2411  -17.2720    8.4520 C   0  0  0  0  0  0  0  0  0  0  0  0
   20.8239  -18.0134    8.5694 C   0  0  0  0  0  0  0  0  0  0  0  0
   20.8008  -19.3380    7.9084 C   0  0  2  0  0  0  0  0  0  0  0  0
   19.3941  -19.6288    7.4974 N   0  0  0  0  0  0  0  0  0  0  0  0
   21.1768  -20.4459    8.7734 C   0  0  0  0  0  0  0  0  0  0  0  0
   20.3595  -20.9913    9.5404 O   0  0  0  0  0  0  0  0  0  0  0  0
   22.4692  -20.9569    8.7910 O   0  0  0  0  0  0  0  0  0  0  0  0
  2  1  1  1
  2  3  1  0
  3  4  1  0
  4 12  1  0
  4  5  2  0
  5  6  1  0
  7  6  1  0
  7  8  2  0
  9  8  1  0
 10  9  2  0
 11 10  1  0
 11 12  2  0
 12  7  1  0
 13  2  1  0
 13 14  2  0
 16 17  1  0
 16 15  1  0
 17 18  1  0
 19 18  1  6
 19 20  1  0
 20 13  1  0
 21 19  1  0
 22 21  2  0
 24 26  1  0
 24 23  1  6
 25 24  1  0
 27 28  1  0
 27 26  1  1
 28 21  1  0
 29 27  1  0
 30 29  2  0
 31 29  1  0
M  END
$$$$
