WML.pdb
     RDKit          3D

 31 32  0  0  1  0  0  0  0  0999 V2000
   28.6201  -19.3820  -12.9751 N   0  0  0  0  0  0  0  0  0  0  0  0
   27.9514  -20.6673  -13.0316 C   0  0  1  0  0  0  0  0  0  0  0  0
   27.1062  -20.9069  -11.7894 C   0  0  0  0  0  0  0  0  0  0  0  0
   27.8915  -20.8765  -10.5494 C   0  0  0  0  0  0  0  0  0  0  0  0
   27.5318  -20.3498   -9.3403 C   0  0  0  0  0  0  0  0  0  0  0  0
   28.5335  -20.5221   -8.4488 N   0  0  0  0  0  0  0  0  0  0  0  0
   29.5394  -21.1533   -9.0605 C   0  0  0  0  0  0  0  0  0  0  0  0
   30.7875  -21.5627   -8.5888 C   0  0  0  0  0  0  0  0  0  0  0  0
   31.6210  -22.2011   -9.4739 C   0  0  0  0  0  0  0  0  0  0  0  0
   31.2578  -22.4405  -10.7902 C   0  0  0  0  0  0  0  0  0  0  0  0
   30.0255  -22.0340  -11.2486 C   0  0  0  0  0  0  0  0  0  0  0  0
   29.1651  -21.3882  -10.3781 C   0  0  0  0  0  0  0  0  0  0  0  0
   26.9797  -20.6370  -14.1701 C   0  0  0  0  0  0  0  0  0  0  0  0
   27.2591  -20.0646  -15.2281 O   0  0  0  0  0  0  0  0  0  0  0  0
   25.0656  -22.8020  -19.2718 C   0  0  0  0  0  0  0  0  0  0  0  0
   25.9209  -21.3346  -18.6361 S   0  0  0  0  0  0  0  0  0  0  0  0
   26.4880  -21.6483  -16.9370 C   0  0  0  0  0  0  0  0  0  0  0  0
   25.3829  -22.4252  -16.2450 C   0  0  0  0  0  0  0  0  0  0  0  0
   24.8363  -21.5754  -15.1527 C   0  0  2  0  0  0  0  0  0  0  0  0
   25.7084  -21.2556  -14.0903 N   0  0  0  0  0  0  0  0  0  0  0  0
   23.5630  -22.1172  -14.5893 C   0  0  0  0  0  0  0  0  0  0  0  0
   23.4568  -23.3645  -14.3616 O   0  0  0  0  0  0  0  0  0  0  0  0
   22.4647  -20.9164  -11.0119 C   0  0  0  0  0  0  0  0  0  0  0  0
   21.5762  -20.0596  -11.9023 C   0  0  2  0  0  0  0  0  0  0  0  0
   20.9988  -18.8776  -11.2221 C   0  0  0  0  0  0  0  0  0  0  0  0
   20.6706  -20.8858  -12.7274 C   0  0  0  0  0  0  0  0  0  0  0  0
   21.2525  -21.9145  -13.6191 C   0  0  2  0  0  0  0  0  0  0  0  0
   22.4523  -21.3265  -14.2876 N   0  0  0  0  0  0  0  0  0  0  0  0
   20.3795  -22.3271  -14.7076 C   0  0  0  0  0  0  0  0  0  0  0  0
   20.5855  -21.9794  -15.8869 O   0  0  0  0  0  0  0  0  0  0  0  0
   19.2677  -23.1325  -14.4912 O   0  0  0  0  0  0  0  0  0  0  0  0
  2  1  1  1
  2  3  1  0
  3  4  1  0
  4 12  1  0
  4  5  2  0
  5  6  1  0
  7  6  1  0
  7  8  2  0
  9  8  1  0
 10  9  2  0
 11 10  1  0
 11 12  2  0
 12  7  1  0
 13  2  1  0
 13 14  2  0
 16 17  1  0
 16 15  1  0
 17 18  1  0
 19 18  1  6
 19 20  1  0
 20 13  1  0
 21 19  1  0
 22 21  2  0
 24 26  1  0
 24 23  1  1
 25 24  1  0
 27 28  1  0
 27 26  1  1
 28 21  1  0
 29 27  1  0
 30 29  2  0
 31 29  1  0
M  END
$$$$
