WML.pdb
     RDKit          3D

 31 32  0  0  1  0  0  0  0  0999 V2000
   25.3623  -19.2797  -14.7851 N   0  0  0  0  0  0  0  0  0  0  0  0
   25.1133  -20.0358  -13.5732 C   0  0  1  0  0  0  0  0  0  0  0  0
   23.7902  -20.7831  -13.6487 C   0  0  0  0  0  0  0  0  0  0  0  0
   22.6369  -19.8886  -13.8055 C   0  0  0  0  0  0  0  0  0  0  0  0
   22.0264  -19.5009  -14.9656 C   0  0  0  0  0  0  0  0  0  0  0  0
   20.9968  -18.6703  -14.6866 N   0  0  0  0  0  0  0  0  0  0  0  0
   20.9287  -18.5122  -13.3618 C   0  0  0  0  0  0  0  0  0  0  0  0
   20.0551  -17.7644  -12.5710 C   0  0  0  0  0  0  0  0  0  0  0  0
   20.2409  -17.8034  -11.2109 C   0  0  0  0  0  0  0  0  0  0  0  0
   21.2508  -18.5500  -10.6238 C   0  0  0  0  0  0  0  0  0  0  0  0
   22.1085  -19.2852  -11.4098 C   0  0  0  0  0  0  0  0  0  0  0  0
   21.9444  -19.2642  -12.7838 C   0  0  0  0  0  0  0  0  0  0  0  0
   26.1615  -21.0991  -13.4642 C   0  0  0  0  0  0  0  0  0  0  0  0
   25.9707  -22.2284  -13.9262 O   0  0  0  0  0  0  0  0  0  0  0  0
   32.1733  -22.4850   -9.9216 C   0  0  0  0  0  0  0  0  0  0  0  0
   31.8703  -20.9239  -10.7936 S   0  0  0  0  0  0  0  0  0  0  0  0
   30.0820  -20.6964  -11.0320 C   0  0  0  0  0  0  0  0  0  0  0  0
   29.6767  -21.6012  -12.1813 C   0  0  0  0  0  0  0  0  0  0  0  0
   28.2019  -21.7892  -12.1220 C   0  0  2  0  0  0  0  0  0  0  0  0
   27.4076  -20.8648  -12.8336 N   0  0  0  0  0  0  0  0  0  0  0  0
   27.6936  -21.8880  -10.7205 C   0  0  0  0  0  0  0  0  0  0  0  0
   28.1771  -22.7662   -9.9370 O   0  0  0  0  0  0  0  0  0  0  0  0
   27.6652  -18.2265   -6.3588 C   0  0  0  0  0  0  0  0  0  0  0  0
   27.0067  -19.5486   -6.7259 C   0  0  2  0  0  0  0  0  0  0  0  0
   27.2753  -20.6446   -5.7669 C   0  0  0  0  0  0  0  0  0  0  0  0
   27.1485  -19.8481   -8.1660 C   0  0  0  0  0  0  0  0  0  0  0  0
   26.4317  -21.0148   -8.7290 C   0  0  2  0  0  0  0  0  0  0  0  0
   26.6977  -21.0600  -10.1986 N   0  0  0  0  0  0  0  0  0  0  0  0
   24.9834  -20.9424   -8.6108 C   0  0  0  0  0  0  0  0  0  0  0  0
   24.2683  -20.4881   -9.5253 O   0  0  0  0  0  0  0  0  0  0  0  0
   24.3178  -21.3768   -7.4706 O   0  0  0  0  0  0  0  0  0  0  0  0
  2  1  1  6
  2  3  1  0
  3  4  1  0
  4 12  1  0
  4  5  2  0
  5  6  1  0
  7  6  1  0
  7  8  2  0
  9  8  1  0
 10  9  2  0
 11 10  1  0
 11 12  2  0
 12  7  1  0
 13  2  1  0
 13 14  2  0
 16 17  1  0
 16 15  1  0
 17 18  1  0
 19 18  1  1
 19 20  1  0
 20 13  1  0
 21 19  1  0
 22 21  2  0
 24 26  1  0
 24 23  1  1
 25 24  1  0
 27 28  1  0
 27 26  1  6
 28 21  1  0
 29 27  1  0
 30 29  2  0
 31 29  1  0
M  END
$$$$
