WML.pdb
     RDKit          3D

 31 32  0  0  1  0  0  0  0  0999 V2000
   25.1741  -20.9503   -9.6627 N   0  0  0  0  0  0  0  0  0  0  0  0
   24.5720  -21.2899   -8.3881 C   0  0  1  0  0  0  0  0  0  0  0  0
   24.8611  -20.2271   -7.3385 C   0  0  0  0  0  0  0  0  0  0  0  0
   26.2962  -20.0489   -7.0859 C   0  0  0  0  0  0  0  0  0  0  0  0
   27.3001  -19.9143   -8.0039 C   0  0  0  0  0  0  0  0  0  0  0  0
   28.4853  -19.7699   -7.3695 N   0  0  0  0  0  0  0  0  0  0  0  0
   28.2667  -19.8087   -6.0522 C   0  0  0  0  0  0  0  0  0  0  0  0
   29.1459  -19.7063   -4.9731 C   0  0  0  0  0  0  0  0  0  0  0  0
   28.6110  -19.7842   -3.7107 C   0  0  0  0  0  0  0  0  0  0  0  0
   27.2531  -19.9576   -3.4925 C   0  0  0  0  0  0  0  0  0  0  0  0
   26.3919  -20.0577   -4.5613 C   0  0  0  0  0  0  0  0  0  0  0  0
   26.9036  -19.9826   -5.8449 C   0  0  0  0  0  0  0  0  0  0  0  0
   23.0847  -21.2816   -8.5589 C   0  0  0  0  0  0  0  0  0  0  0  0
   22.5523  -20.6201   -9.4555 O   0  0  0  0  0  0  0  0  0  0  0  0
   18.7973  -24.9495   -4.8857 C   0  0  0  0  0  0  0  0  0  0  0  0
   18.8720  -25.7344   -6.5189 S   0  0  0  0  0  0  0  0  0  0  0  0
   19.4505  -24.5269   -7.7493 C   0  0  0  0  0  0  0  0  0  0  0  0
   20.5067  -23.6788   -7.0647 C   0  0  0  0  0  0  0  0  0  0  0  0
   21.0599  -22.7314   -8.0700 C   0  0  2  0  0  0  0  0  0  0  0  0
   22.2264  -22.0229   -7.7108 N   0  0  0  0  0  0  0  0  0  0  0  0
   20.0368  -21.7623   -8.5664 C   0  0  0  0  0  0  0  0  0  0  0  0
   19.7765  -20.7192   -7.8858 O   0  0  0  0  0  0  0  0  0  0  0  0
   19.5704  -18.5389  -11.4938 C   0  0  0  0  0  0  0  0  0  0  0  0
   19.5206  -19.8633  -12.2422 C   0  0  2  0  0  0  0  0  0  0  0  0
   19.6006  -19.7290  -13.7148 C   0  0  0  0  0  0  0  0  0  0  0  0
   18.4861  -20.7634  -11.6914 C   0  0  0  0  0  0  0  0  0  0  0  0
   18.3570  -20.8920  -10.2221 C   0  0  2  0  0  0  0  0  0  0  0  0
   19.3283  -21.9281   -9.7582 N   0  0  0  0  0  0  0  0  0  0  0  0
   17.0569  -21.3676   -9.7743 C   0  0  0  0  0  0  0  0  0  0  0  0
   16.8443  -22.5701   -9.5239 O   0  0  0  0  0  0  0  0  0  0  0  0
   15.9803  -20.5058   -9.6009 O   0  0  0  0  0  0  0  0  0  0  0  0
  2  1  1  6
  2  3  1  0
  3  4  1  0
  4 12  1  0
  4  5  2  0
  5  6  1  0
  7  6  1  0
  7  8  2  0
  9  8  1  0
 10  9  2  0
 11 10  1  0
 11 12  2  0
 12  7  1  0
 13  2  1  0
 13 14  2  0
 16 17  1  0
 16 15  1  0
 17 18  1  0
 19 18  1  1
 19 20  1  0
 20 13  1  0
 21 19  1  0
 22 21  2  0
 24 26  1  0
 24 23  1  1
 25 24  1  0
 27 28  1  0
 27 26  1  6
 28 21  1  0
 29 27  1  0
 30 29  2  0
 31 29  1  0
M  END
$$$$
