WML.pdb
     RDKit          3D

 31 32  0  0  1  0  0  0  0  0999 V2000
   28.1756  -21.1523  -15.4681 N   0  0  0  0  0  0  0  0  0  0  0  0
   27.3717  -20.2069  -14.7182 C   0  0  1  0  0  0  0  0  0  0  0  0
   26.2950  -19.5803  -15.5917 C   0  0  0  0  0  0  0  0  0  0  0  0
   26.8244  -18.5668  -16.5124 C   0  0  0  0  0  0  0  0  0  0  0  0
   27.0225  -18.6785  -17.8603 C   0  0  0  0  0  0  0  0  0  0  0  0
   27.5258  -17.5219  -18.3473 N   0  0  0  0  0  0  0  0  0  0  0  0
   27.6577  -16.6597  -17.3355 C   0  0  0  0  0  0  0  0  0  0  0  0
   28.1261  -15.3453  -17.3057 C   0  0  0  0  0  0  0  0  0  0  0  0
   28.1414  -14.7057  -16.0905 C   0  0  0  0  0  0  0  0  0  0  0  0
   27.7129  -15.3222  -14.9251 C   0  0  0  0  0  0  0  0  0  0  0  0
   27.2523  -16.6185  -14.9620 C   0  0  0  0  0  0  0  0  0  0  0  0
   27.2258  -17.2873  -16.1732 C   0  0  0  0  0  0  0  0  0  0  0  0
   26.6305  -20.9628  -13.6596 C   0  0  0  0  0  0  0  0  0  0  0  0
   26.3421  -22.1536  -13.8140 O   0  0  0  0  0  0  0  0  0  0  0  0
   25.9083  -20.7476   -7.0142 C   0  0  0  0  0  0  0  0  0  0  0  0
   27.4028  -20.5647   -8.0250 S   0  0  0  0  0  0  0  0  0  0  0  0
   27.0427  -21.0539   -9.7390 C   0  0  0  0  0  0  0  0  0  0  0  0
   25.6433  -20.5554  -10.0499 C   0  0  0  0  0  0  0  0  0  0  0  0
   25.3460  -20.8737  -11.4727 C   0  0  2  0  0  0  0  0  0  0  0  0
   26.2289  -20.3565  -12.4445 N   0  0  0  0  0  0  0  0  0  0  0  0
   23.9444  -20.5257  -11.8559 C   0  0  0  0  0  0  0  0  0  0  0  0
   23.5921  -19.3043  -11.9093 O   0  0  0  0  0  0  0  0  0  0  0  0
   22.9688  -22.4622  -14.7017 C   0  0  0  0  0  0  0  0  0  0  0  0
   21.8428  -21.4912  -15.0267 C   0  0  2  0  0  0  0  0  0  0  0  0
   21.8967  -20.9408  -16.4005 C   0  0  0  0  0  0  0  0  0  0  0  0
   21.6010  -20.5443  -13.9182 C   0  0  0  0  0  0  0  0  0  0  0  0
   21.5812  -21.0572  -12.5295 C   0  0  2  0  0  0  0  0  0  0  0  0
   22.9692  -21.4753  -12.1677 N   0  0  0  0  0  0  0  0  0  0  0  0
   20.7683  -22.2493  -12.3426 C   0  0  0  0  0  0  0  0  0  0  0  0
   19.5268  -22.2255  -12.4523 O   0  0  0  0  0  0  0  0  0  0  0  0
   21.3327  -23.4808  -12.0316 O   0  0  0  0  0  0  0  0  0  0  0  0
  2  1  1  6
  2  3  1  0
  3  4  1  0
  4 12  1  0
  4  5  2  0
  5  6  1  0
  7  6  1  0
  7  8  2  0
  9  8  1  0
 10  9  2  0
 11 10  1  0
 11 12  2  0
 12  7  1  0
 13  2  1  0
 13 14  2  0
 16 17  1  0
 16 15  1  0
 17 18  1  0
 19 18  1  1
 19 20  1  0
 20 13  1  0
 21 19  1  0
 22 21  2  0
 24 26  1  0
 24 23  1  1
 25 24  1  0
 27 28  1  0
 27 26  1  6
 28 21  1  0
 29 27  1  0
 30 29  2  0
 31 29  1  0
M  END
$$$$
