WML.pdb
     RDKit          3D

 31 32  0  0  1  0  0  0  0  0999 V2000
   26.9750  -19.7198  -12.0795 N   0  0  0  0  0  0  0  0  0  0  0  0
   26.1088  -20.8621  -11.8620 C   0  0  1  0  0  0  0  0  0  0  0  0
   26.0382  -21.2307  -10.3876 C   0  0  0  0  0  0  0  0  0  0  0  0
   27.3372  -21.1320   -9.7110 C   0  0  0  0  0  0  0  0  0  0  0  0
   28.5307  -21.6722  -10.1016 C   0  0  0  0  0  0  0  0  0  0  0  0
   29.4931  -21.3529   -9.2074 N   0  0  0  0  0  0  0  0  0  0  0  0
   28.9429  -20.6128   -8.2408 C   0  0  0  0  0  0  0  0  0  0  0  0
   29.4989  -20.0367   -7.0977 C   0  0  0  0  0  0  0  0  0  0  0  0
   28.6623  -19.3179   -6.2797 C   0  0  0  0  0  0  0  0  0  0  0  0
   27.3139  -19.1573   -6.5588 C   0  0  0  0  0  0  0  0  0  0  0  0
   26.7724  -19.7282   -7.6879 C   0  0  0  0  0  0  0  0  0  0  0  0
   27.5925  -20.4582   -8.5303 C   0  0  0  0  0  0  0  0  0  0  0  0
   24.7144  -20.4672  -12.2373 C   0  0  0  0  0  0  0  0  0  0  0  0
   24.1202  -19.5755  -11.6235 O   0  0  0  0  0  0  0  0  0  0  0  0
   21.5931  -18.1483  -17.5910 C   0  0  0  0  0  0  0  0  0  0  0  0
   20.9214  -19.7900  -17.2137 S   0  0  0  0  0  0  0  0  0  0  0  0
   21.0914  -20.1235  -15.4342 C   0  0  0  0  0  0  0  0  0  0  0  0
   22.5498  -20.4672  -15.1923 C   0  0  0  0  0  0  0  0  0  0  0  0
   22.7094  -20.8136  -13.7541 C   0  0  2  0  0  0  0  0  0  0  0  0
   24.0173  -21.0894  -13.3014 N   0  0  0  0  0  0  0  0  0  0  0  0
   21.8044  -21.9239  -13.3293 C   0  0  0  0  0  0  0  0  0  0  0  0
   22.1567  -23.1310  -13.5228 O   0  0  0  0  0  0  0  0  0  0  0  0
   18.3034  -24.9708  -11.1854 C   0  0  0  0  0  0  0  0  0  0  0  0
   19.1819  -24.2096  -10.2029 C   0  0  2  0  0  0  0  0  0  0  0  0
   18.5533  -23.9805   -8.8817 C   0  0  0  0  0  0  0  0  0  0  0  0
   19.8577  -23.0647  -10.8480 C   0  0  0  0  0  0  0  0  0  0  0  0
   19.7141  -22.8790  -12.3099 C   0  0  2  0  0  0  0  0  0  0  0  0
   20.5654  -21.7210  -12.7180 N   0  0  0  0  0  0  0  0  0  0  0  0
   18.3693  -22.5276  -12.7399 C   0  0  0  0  0  0  0  0  0  0  0  0
   17.9180  -21.3720  -12.6176 O   0  0  0  0  0  0  0  0  0  0  0  0
   17.5141  -23.4623  -13.3115 O   0  0  0  0  0  0  0  0  0  0  0  0
  2  1  1  1
  2  3  1  0
  3  4  1  0
  4 12  1  0
  4  5  2  0
  5  6  1  0
  7  6  1  0
  7  8  2  0
  9  8  1  0
 10  9  2  0
 11 10  1  0
 11 12  2  0
 12  7  1  0
 13  2  1  0
 13 14  2  0
 16 17  1  0
 16 15  1  0
 17 18  1  0
 19 18  1  6
 19 20  1  0
 20 13  1  0
 21 19  1  0
 22 21  2  0
 24 26  1  0
 24 23  1  6
 25 24  1  0
 27 28  1  0
 27 26  1  1
 28 21  1  0
 29 27  1  0
 30 29  2  0
 31 29  1  0
M  END
$$$$
