QQP.pdb
     RDKit          3D

 26 26  0  0  1  0  0  0  0  0999 V2000
   20.0197  -31.8097   -1.2626 N   0  0  0  0  0  0  0  0  0  0  0  0
   20.6235  -31.3878   -2.5171 C   0  0  0  0  0  0  0  0  0  0  0  0
   21.0775  -32.3212   -3.2212 O   0  0  0  0  0  0  0  0  0  0  0  0
   20.6565  -29.9588   -2.8456 C   0  0  0  0  0  0  0  0  0  0  0  0
   20.0976  -29.0837   -1.7797 C   0  0  0  0  0  0  0  0  0  0  0  0
   18.9641  -28.2638   -2.2739 C   0  0  2  0  0  0  0  0  0  0  0  0
   18.9395  -27.9025   -3.6398 N   0  0  0  0  0  0  0  0  0  0  0  0
   18.8128  -27.0962   -1.3621 C   0  0  0  0  0  0  0  0  0  0  0  0
   19.3665  -25.9891   -1.5915 O   0  0  0  0  0  0  0  0  0  0  0  0
   13.8199  -26.1550    2.0449 N   0  0  0  0  0  0  0  0  0  0  0  0
   14.5028  -27.4016    2.0147 C   0  0  0  0  0  0  0  0  0  0  0  0
   13.9637  -28.4337    2.4732 O   0  0  0  0  0  0  0  0  0  0  0  0
   15.8800  -27.4628    1.4251 C   0  0  0  0  0  0  0  0  0  0  0  0
   16.3739  -26.0920    1.1251 C   0  0  0  0  0  0  0  0  0  0  0  0
   17.8510  -26.0648    0.7165 C   0  0  2  0  0  0  0  0  0  0  0  0
   18.0313  -27.2173   -0.2038 N   0  0  0  0  0  0  0  0  0  0  0  0
   18.6557  -26.3524    1.9076 C   0  0  0  0  0  0  0  0  0  0  0  0
   19.0841  -27.5783    1.9697 O   0  0  0  0  0  0  0  0  0  0  0  0
   19.0133  -25.4845    2.9552 N   0  0  0  0  0  0  0  0  0  0  0  0
   18.5664  -24.1162    3.0951 C   0  0  0  0  0  0  0  0  0  0  0  0
   19.7182  -23.4250    3.7392 C   0  0  0  0  0  0  0  0  0  0  0  0
   20.6865  -24.4919    4.1945 C   0  0  0  0  0  0  0  0  0  0  0  0
   19.8585  -25.7542    4.0730 C   0  0  1  0  0  0  0  0  0  0  0  0
   19.0413  -25.9293    5.3384 C   0  0  0  0  0  0  0  0  0  0  0  0
   19.5528  -26.3146    6.4060 O   0  0  0  0  0  0  0  0  0  0  0  0
   17.6922  -25.6584    5.3232 O   0  0  0  0  0  0  0  0  0  0  0  0
  1  2  1  0
  2  3  2  0
  4  2  1  0
  5  4  1  0
  6  7  1  6
  6  5  1  0
  8  6  1  0
  9  8  2  0
 10 11  1  0
 11 13  1  0
 11 12  2  0
 13 14  1  0
 15 14  1  1
 15 16  1  0
 16  8  1  0
 17 19  1  0
 17 15  1  0
 18 17  2  0
 19 23  1  0
 20 21  1  0
 20 19  1  0
 21 22  1  0
 22 23  1  0
 23 24  1  1
 24 26  1  0
 25 24  2  0
M  END
$$$$
