QQP.pdb
     RDKit          3D

 26 26  0  0  1  0  0  0  0  0999 V2000
   27.6422  -17.9956  -19.3854 N   0  0  0  0  0  0  0  0  0  0  0  0
   28.8361  -17.3674  -18.8408 C   0  0  0  0  0  0  0  0  0  0  0  0
   29.2748  -16.4034  -19.5125 O   0  0  0  0  0  0  0  0  0  0  0  0
   29.4132  -17.8931  -17.5992 C   0  0  0  0  0  0  0  0  0  0  0  0
   28.6626  -19.0437  -17.0271 C   0  0  0  0  0  0  0  0  0  0  0  0
   27.5301  -18.5990  -16.1781 C   0  0  2  0  0  0  0  0  0  0  0  0
   27.7869  -17.6688  -15.1458 N   0  0  0  0  0  0  0  0  0  0  0  0
   26.8131  -19.8133  -15.6996 C   0  0  0  0  0  0  0  0  0  0  0  0
   26.5757  -20.7934  -16.4533 O   0  0  0  0  0  0  0  0  0  0  0  0
   26.1562  -21.7257   -9.7850 N   0  0  0  0  0  0  0  0  0  0  0  0
   25.6839  -20.4278  -10.1225 C   0  0  0  0  0  0  0  0  0  0  0  0
   25.4028  -19.6002   -9.2269 O   0  0  0  0  0  0  0  0  0  0  0  0
   25.5269  -20.0637  -11.5685 C   0  0  0  0  0  0  0  0  0  0  0  0
   25.8819  -21.2211  -12.4332 C   0  0  0  0  0  0  0  0  0  0  0  0
   25.5172  -21.0014  -13.9056 C   0  0  2  0  0  0  0  0  0  0  0  0
   26.3801  -19.8834  -14.3675 N   0  0  0  0  0  0  0  0  0  0  0  0
   24.1361  -20.5130  -13.9620 C   0  0  0  0  0  0  0  0  0  0  0  0
   24.0307  -19.2207  -13.8664 O   0  0  0  0  0  0  0  0  0  0  0  0
   22.9491  -21.2533  -14.1091 N   0  0  0  0  0  0  0  0  0  0  0  0
   22.8592  -22.6967  -14.1014 C   0  0  0  0  0  0  0  0  0  0  0  0
   21.7391  -22.9930  -15.0378 C   0  0  0  0  0  0  0  0  0  0  0  0
   21.0470  -21.6844  -15.3406 C   0  0  0  0  0  0  0  0  0  0  0  0
   21.6208  -20.7624  -14.2849 C   0  0  1  0  0  0  0  0  0  0  0  0
   20.8152  -20.9150  -13.0091 C   0  0  0  0  0  0  0  0  0  0  0  0
   19.6757  -20.4288  -12.8863 O   0  0  0  0  0  0  0  0  0  0  0  0
   21.3452  -21.6089  -11.9455 O   0  0  0  0  0  0  0  0  0  0  0  0
  1  2  1  0
  2  3  2  0
  4  2  1  0
  5  4  1  0
  6  7  1  1
  6  5  1  0
  8  6  1  0
  9  8  2  0
 10 11  1  0
 11 13  1  0
 11 12  2  0
 13 14  1  0
 15 14  1  1
 15 16  1  0
 16  8  1  0
 17 19  1  0
 17 15  1  0
 18 17  2  0
 19 23  1  0
 20 21  1  0
 20 19  1  0
 21 22  1  0
 22 23  1  0
 23 24  1  1
 24 26  1  0
 25 24  2  0
M  END
$$$$
