QQP.pdb
     RDKit          3D

 26 26  0  0  1  0  0  0  0  0999 V2000
   26.8986  -25.8427  -18.4548 N   0  0  0  0  0  0  0  0  0  0  0  0
   28.2889  -26.2672  -18.3947 C   0  0  0  0  0  0  0  0  0  0  0  0
   28.5845  -27.2075  -19.1704 O   0  0  0  0  0  0  0  0  0  0  0  0
   29.1995  -25.5914  -17.4646 C   0  0  0  0  0  0  0  0  0  0  0  0
   28.5488  -24.5283  -16.6518 C   0  0  0  0  0  0  0  0  0  0  0  0
   28.4350  -23.2515  -17.3989 C   0  0  2  0  0  0  0  0  0  0  0  0
   29.6018  -22.7037  -17.9780 N   0  0  0  0  0  0  0  0  0  0  0  0
   27.7044  -22.2812  -16.5374 C   0  0  0  0  0  0  0  0  0  0  0  0
   28.2125  -21.7958  -15.4928 O   0  0  0  0  0  0  0  0  0  0  0  0
   23.8492  -18.1599  -18.6791 N   0  0  0  0  0  0  0  0  0  0  0  0
   23.5764  -17.9680  -17.2971 C   0  0  0  0  0  0  0  0  0  0  0  0
   22.8451  -17.0260  -16.9176 O   0  0  0  0  0  0  0  0  0  0  0  0
   24.1779  -18.9112  -16.2988 C   0  0  0  0  0  0  0  0  0  0  0  0
   25.0493  -19.9022  -16.9856 C   0  0  0  0  0  0  0  0  0  0  0  0
   25.6402  -20.9434  -16.0285 C   0  0  2  0  0  0  0  0  0  0  0  0
   26.4051  -21.8849  -16.8865 N   0  0  0  0  0  0  0  0  0  0  0  0
   24.5312  -21.7105  -15.4532 C   0  0  0  0  0  0  0  0  0  0  0  0
   24.0836  -22.6517  -16.2304 O   0  0  0  0  0  0  0  0  0  0  0  0
   23.9177  -21.5577  -14.1967 N   0  0  0  0  0  0  0  0  0  0  0  0
   24.2935  -20.5822  -13.1973 C   0  0  0  0  0  0  0  0  0  0  0  0
   24.0232  -21.2693  -11.9034 C   0  0  0  0  0  0  0  0  0  0  0  0
   23.2410  -22.5241  -12.2146 C   0  0  0  0  0  0  0  0  0  0  0  0
   22.8258  -22.2987  -13.6535 C   0  0  1  0  0  0  0  0  0  0  0  0
   21.5516  -21.4766  -13.6742 C   0  0  0  0  0  0  0  0  0  0  0  0
   21.5608  -20.2508  -13.8913 O   0  0  0  0  0  0  0  0  0  0  0  0
   20.3401  -22.0888  -13.4480 O   0  0  0  0  0  0  0  0  0  0  0  0
  1  2  1  0
  2  3  2  0
  4  2  1  0
  5  4  1  0
  6  7  1  1
  6  5  1  0
  8  6  1  0
  9  8  2  0
 10 11  1  0
 11 13  1  0
 11 12  2  0
 13 14  1  0
 15 14  1  6
 15 16  1  0
 16  8  1  0
 17 19  1  0
 17 15  1  0
 18 17  2  0
 19 23  1  0
 20 21  1  0
 20 19  1  0
 21 22  1  0
 22 23  1  0
 23 24  1  1
 24 26  1  0
 25 24  2  0
M  END
$$$$
