QQP.pdb
     RDKit          3D

 26 26  0  0  1  0  0  0  0  0999 V2000
   14.1301  -26.1382    1.9410 N   0  0  0  0  0  0  0  0  0  0  0  0
   15.2317  -26.0352    0.9963 C   0  0  0  0  0  0  0  0  0  0  0  0
   16.1290  -26.8997    1.1401 O   0  0  0  0  0  0  0  0  0  0  0  0
   15.2095  -24.9672   -0.0086 C   0  0  0  0  0  0  0  0  0  0  0  0
   14.0059  -24.0954    0.0668 C   0  0  0  0  0  0  0  0  0  0  0  0
   14.0172  -23.0439   -0.9799 C   0  0  2  0  0  0  0  0  0  0  0  0
   14.7164  -23.2973   -2.1815 N   0  0  0  0  0  0  0  0  0  0  0  0
   14.4161  -21.7620   -0.3357 C   0  0  0  0  0  0  0  0  0  0  0  0
   15.5057  -21.1889   -0.5989 O   0  0  0  0  0  0  0  0  0  0  0  0
   10.5411  -18.7228    3.5254 N   0  0  0  0  0  0  0  0  0  0  0  0
   11.6447  -17.8269    3.5537 C   0  0  0  0  0  0  0  0  0  0  0  0
   11.5841  -16.7632    4.2101 O   0  0  0  0  0  0  0  0  0  0  0  0
   12.8841  -18.1746    2.7849 C   0  0  0  0  0  0  0  0  0  0  0  0
   12.7221  -19.4923    2.1138 C   0  0  0  0  0  0  0  0  0  0  0  0
   13.9286  -19.8755    1.2495 C   0  0  2  0  0  0  0  0  0  0  0  0
   13.5610  -21.1596    0.5986 N   0  0  0  0  0  0  0  0  0  0  0  0
   15.0520  -20.1684    2.1447 C   0  0  0  0  0  0  0  0  0  0  0  0
   15.1618  -21.4256    2.4572 O   0  0  0  0  0  0  0  0  0  0  0  0
   15.9993  -19.2790    2.6835 N   0  0  0  0  0  0  0  0  0  0  0  0
   16.0556  -17.8584    2.4186 C   0  0  0  0  0  0  0  0  0  0  0  0
   17.5103  -17.5403    2.4666 C   0  0  0  0  0  0  0  0  0  0  0  0
   18.2177  -18.7507    3.0302 C   0  0  0  0  0  0  0  0  0  0  0  0
   17.0692  -19.5696    3.5819 C   0  0  1  0  0  0  0  0  0  0  0  0
   16.7468  -19.0829    4.9815 C   0  0  0  0  0  0  0  0  0  0  0  0
   15.8197  -18.2824    5.2043 O   0  0  0  0  0  0  0  0  0  0  0  0
   17.4917  -19.5299    6.0486 O   0  0  0  0  0  0  0  0  0  0  0  0
  1  2  1  0
  2  3  2  0
  4  2  1  0
  5  4  1  0
  6  7  1  6
  6  5  1  0
  8  6  1  0
  9  8  2  0
 10 11  1  0
 11 13  1  0
 11 12  2  0
 13 14  1  0
 15 14  1  1
 15 16  1  0
 16  8  1  0
 17 19  1  0
 17 15  1  0
 18 17  2  0
 19 23  1  0
 20 21  1  0
 20 19  1  0
 21 22  1  0
 22 23  1  0
 23 24  1  1
 24 26  1  0
 25 24  2  0
M  END
$$$$
