QQP.pdb
     RDKit          3D

 26 26  0  0  1  0  0  0  0  0999 V2000
   15.9017  -12.6412  -14.3805 N   0  0  0  0  0  0  0  0  0  0  0  0
   15.0538  -13.0662  -15.4837 C   0  0  0  0  0  0  0  0  0  0  0  0
   13.8406  -12.7752  -15.3554 O   0  0  0  0  0  0  0  0  0  0  0  0
   15.6601  -13.7779  -16.6137 C   0  0  0  0  0  0  0  0  0  0  0  0
   16.6036  -12.9479  -17.4107 C   0  0  0  0  0  0  0  0  0  0  0  0
   17.8717  -13.6652  -17.6908 C   0  0  2  0  0  0  0  0  0  0  0  0
   17.9908  -15.0103  -17.2740 N   0  0  0  0  0  0  0  0  0  0  0  0
   18.9950  -12.8097  -17.2177 C   0  0  0  0  0  0  0  0  0  0  0  0
   19.5992  -13.0327  -16.1360 O   0  0  0  0  0  0  0  0  0  0  0  0
   21.8850   -8.8664  -21.0582 N   0  0  0  0  0  0  0  0  0  0  0  0
   22.6184   -8.6019  -19.8693 C   0  0  0  0  0  0  0  0  0  0  0  0
   23.5837   -7.8056  -19.8810 O   0  0  0  0  0  0  0  0  0  0  0  0
   22.2187   -9.2913  -18.5992 C   0  0  0  0  0  0  0  0  0  0  0  0
   21.0303  -10.1550  -18.8332 C   0  0  0  0  0  0  0  0  0  0  0  0
   20.5498  -10.8676  -17.5640 C   0  0  2  0  0  0  0  0  0  0  0  0
   19.4057  -11.7140  -17.9909 N   0  0  0  0  0  0  0  0  0  0  0  0
   20.0033   -9.8550  -16.6556 C   0  0  0  0  0  0  0  0  0  0  0  0
   18.7391   -9.6121  -16.8379 O   0  0  0  0  0  0  0  0  0  0  0  0
   20.6625   -9.1422  -15.6379 N   0  0  0  0  0  0  0  0  0  0  0  0
   22.0812   -9.1997  -15.3628 C   0  0  0  0  0  0  0  0  0  0  0  0
   22.1693   -9.0234  -13.8861 C   0  0  0  0  0  0  0  0  0  0  0  0
   20.8034   -8.5968  -13.4010 C   0  0  0  0  0  0  0  0  0  0  0  0
   20.0998   -8.2337  -14.6922 C   0  0  1  0  0  0  0  0  0  0  0  0
   20.4408   -6.8002  -15.0510 C   0  0  0  0  0  0  0  0  0  0  0  0
   21.2677   -6.5213  -15.9389 O   0  0  0  0  0  0  0  0  0  0  0  0
   19.8266   -5.7647  -14.3847 O   0  0  0  0  0  0  0  0  0  0  0  0
  1  2  1  0
  2  3  2  0
  4  2  1  0
  5  4  1  0
  6  7  1  1
  6  5  1  0
  8  6  1  0
  9  8  2  0
 10 11  1  0
 11 13  1  0
 11 12  2  0
 13 14  1  0
 15 14  1  6
 15 16  1  0
 16  8  1  0
 17 19  1  0
 17 15  1  0
 18 17  2  0
 19 23  1  0
 20 21  1  0
 20 19  1  0
 21 22  1  0
 22 23  1  0
 23 24  1  6
 24 26  1  0
 25 24  2  0
M  END
$$$$
