QQP.pdb
     RDKit          3D

 26 26  0  0  1  0  0  0  0  0999 V2000
   28.2696  -24.4062  -16.9809 N   0  0  0  0  0  0  0  0  0  0  0  0
   29.3392  -24.4054  -17.9671 C   0  0  0  0  0  0  0  0  0  0  0  0
   29.5684  -25.5204  -18.4937 O   0  0  0  0  0  0  0  0  0  0  0  0
   30.0414  -23.1502  -18.2539 C   0  0  0  0  0  0  0  0  0  0  0  0
   29.5857  -22.0028  -17.4231 C   0  0  0  0  0  0  0  0  0  0  0  0
   28.2836  -21.4647  -17.8883 C   0  0  2  0  0  0  0  0  0  0  0  0
   28.2401  -20.7822  -19.1250 N   0  0  0  0  0  0  0  0  0  0  0  0
   27.6878  -20.6804  -16.7715 C   0  0  0  0  0  0  0  0  0  0  0  0
   28.3536  -19.8406  -16.1109 O   0  0  0  0  0  0  0  0  0  0  0  0
   23.0462  -18.8523  -18.1885 N   0  0  0  0  0  0  0  0  0  0  0  0
   24.2087  -18.0404  -18.0846 C   0  0  0  0  0  0  0  0  0  0  0  0
   24.4833  -17.2053  -18.9752 O   0  0  0  0  0  0  0  0  0  0  0  0
   25.1025  -18.1987  -16.8912 C   0  0  0  0  0  0  0  0  0  0  0  0
   24.5923  -19.2786  -16.0043 C   0  0  0  0  0  0  0  0  0  0  0  0
   25.7129  -20.0847  -15.3382 C   0  0  2  0  0  0  0  0  0  0  0  0
   26.3409  -20.8722  -16.4305 N   0  0  0  0  0  0  0  0  0  0  0  0
   25.0945  -21.0534  -14.4281 C   0  0  0  0  0  0  0  0  0  0  0  0
   24.7475  -22.1672  -15.0019 O   0  0  0  0  0  0  0  0  0  0  0  0
   24.8457  -20.9269  -13.0494 N   0  0  0  0  0  0  0  0  0  0  0  0
   25.1200  -19.7490  -12.2563 C   0  0  0  0  0  0  0  0  0  0  0  0
   25.4829  -20.2925  -10.9176 C   0  0  0  0  0  0  0  0  0  0  0  0
   25.1367  -21.7634  -10.9196 C   0  0  0  0  0  0  0  0  0  0  0  0
   24.2825  -21.8935  -12.1635 C   0  0  1  0  0  0  0  0  0  0  0  0
   22.8501  -21.5375  -11.8153 C   0  0  0  0  0  0  0  0  0  0  0  0
   22.1203  -22.3045  -11.1603 O   0  0  0  0  0  0  0  0  0  0  0  0
   22.3257  -20.3342  -12.2282 O   0  0  0  0  0  0  0  0  0  0  0  0
  1  2  1  0
  2  3  2  0
  4  2  1  0
  5  4  1  0
  6  7  1  6
  6  5  1  0
  8  6  1  0
  9  8  2  0
 10 11  1  0
 11 13  1  0
 11 12  2  0
 13 14  1  0
 15 14  1  6
 15 16  1  0
 16  8  1  0
 17 19  1  0
 17 15  1  0
 18 17  2  0
 19 23  1  0
 20 21  1  0
 20 19  1  0
 21 22  1  0
 22 23  1  0
 23 24  1  1
 24 26  1  0
 25 24  2  0
M  END
$$$$
