QQP.pdb
     RDKit          3D

 26 26  0  0  1  0  0  0  0  0999 V2000
   28.3363  -17.4385  -17.5427 N   0  0  0  0  0  0  0  0  0  0  0  0
   28.0770  -18.5022  -18.5007 C   0  0  0  0  0  0  0  0  0  0  0  0
   28.2757  -18.1892  -19.6990 O   0  0  0  0  0  0  0  0  0  0  0  0
   27.6173  -19.8054  -18.0096 C   0  0  0  0  0  0  0  0  0  0  0  0
   27.3917  -19.8485  -16.5394 C   0  0  0  0  0  0  0  0  0  0  0  0
   26.9858  -21.1998  -16.0807 C   0  0  2  0  0  0  0  0  0  0  0  0
   27.7084  -22.3175  -16.5556 N   0  0  0  0  0  0  0  0  0  0  0  0
   25.5164  -21.3296  -16.2846 C   0  0  0  0  0  0  0  0  0  0  0  0
   25.0251  -22.0749  -17.1723 O   0  0  0  0  0  0  0  0  0  0  0  0
   21.6789  -22.3720  -12.8003 N   0  0  0  0  0  0  0  0  0  0  0  0
   20.6783  -21.5655  -13.4082 C   0  0  0  0  0  0  0  0  0  0  0  0
   19.4660  -21.8448  -13.2717 O   0  0  0  0  0  0  0  0  0  0  0  0
   21.0960  -20.3736  -14.2164 C   0  0  0  0  0  0  0  0  0  0  0  0
   22.5798  -20.2792  -14.2670 C   0  0  0  0  0  0  0  0  0  0  0  0
   23.1657  -20.7774  -15.5929 C   0  0  2  0  0  0  0  0  0  0  0  0
   24.6361  -20.6032  -15.4695 N   0  0  0  0  0  0  0  0  0  0  0  0
   22.7253  -19.8660  -16.6534 C   0  0  0  0  0  0  0  0  0  0  0  0
   23.4270  -18.7744  -16.7339 O   0  0  0  0  0  0  0  0  0  0  0  0
   21.6707  -20.0304  -17.5695 N   0  0  0  0  0  0  0  0  0  0  0  0
   20.7872  -21.1739  -17.6289 C   0  0  0  0  0  0  0  0  0  0  0  0
   20.4673  -21.3072  -19.0778 C   0  0  0  0  0  0  0  0  0  0  0  0
   20.9682  -20.0590  -19.7664 C   0  0  0  0  0  0  0  0  0  0  0  0
   21.2507  -19.1361  -18.5992 C   0  0  1  0  0  0  0  0  0  0  0  0
   19.9668  -18.4290  -18.2102 C   0  0  0  0  0  0  0  0  0  0  0  0
   19.3856  -18.6616  -17.1340 O   0  0  0  0  0  0  0  0  0  0  0  0
   19.4142  -17.4995  -19.0611 O   0  0  0  0  0  0  0  0  0  0  0  0
  1  2  1  0
  2  3  2  0
  4  2  1  0
  5  4  1  0
  6  7  1  6
  6  5  1  0
  8  6  1  0
  9  8  2  0
 10 11  1  0
 11 13  1  0
 11 12  2  0
 13 14  1  0
 15 14  1  1
 15 16  1  0
 16  8  1  0
 17 19  1  0
 17 15  1  0
 18 17  2  0
 19 23  1  0
 20 21  1  0
 20 19  1  0
 21 22  1  0
 22 23  1  0
 23 24  1  1
 24 26  1  0
 25 24  2  0
M  END
$$$$
