QQP.pdb
     RDKit          3D

 26 26  0  0  1  0  0  0  0  0999 V2000
   32.6096   -6.9202  -16.0383 N   0  0  0  0  0  0  0  0  0  0  0  0
   32.4374   -8.0860  -16.8915 C   0  0  0  0  0  0  0  0  0  0  0  0
   33.4741   -8.7720  -17.0583 O   0  0  0  0  0  0  0  0  0  0  0  0
   31.1171   -8.3548  -17.4708 C   0  0  0  0  0  0  0  0  0  0  0  0
   31.0855   -9.5389  -18.3715 C   0  0  0  0  0  0  0  0  0  0  0  0
   29.7155   -9.8224  -18.8656 C   0  0  2  0  0  0  0  0  0  0  0  0
   28.9124   -8.7374  -19.2835 N   0  0  0  0  0  0  0  0  0  0  0  0
   29.0394  -10.6930  -17.8644 C   0  0  0  0  0  0  0  0  0  0  0  0
   29.5776  -11.7361  -17.4094 O   0  0  0  0  0  0  0  0  0  0  0  0
   23.9698   -8.6368  -14.9711 N   0  0  0  0  0  0  0  0  0  0  0  0
   23.5908   -9.6633  -15.8788 C   0  0  0  0  0  0  0  0  0  0  0  0
   22.3941   -9.8039  -16.2168 O   0  0  0  0  0  0  0  0  0  0  0  0
   24.6463  -10.5765  -16.4265 C   0  0  0  0  0  0  0  0  0  0  0  0
   25.9638  -10.2726  -15.8060 C   0  0  0  0  0  0  0  0  0  0  0  0
   27.0955  -11.1563  -16.3426 C   0  0  2  0  0  0  0  0  0  0  0  0
   27.7590  -10.3542  -17.4028 N   0  0  0  0  0  0  0  0  0  0  0  0
   26.4895  -12.3116  -17.0114 C   0  0  0  0  0  0  0  0  0  0  0  0
   26.3134  -12.1472  -18.2889 O   0  0  0  0  0  0  0  0  0  0  0  0
   26.0944  -13.5407  -16.4530 N   0  0  0  0  0  0  0  0  0  0  0  0
   26.0502  -13.8393  -15.0387 C   0  0  0  0  0  0  0  0  0  0  0  0
   26.3909  -15.2878  -14.9654 C   0  0  0  0  0  0  0  0  0  0  0  0
   26.3515  -15.8317  -16.3746 C   0  0  0  0  0  0  0  0  0  0  0  0
   25.6597  -14.7178  -17.1326 C   0  0  1  0  0  0  0  0  0  0  0  0
   24.1590  -14.8936  -17.0027 C   0  0  0  0  0  0  0  0  0  0  0  0
   23.5545  -15.8315  -17.5547 O   0  0  0  0  0  0  0  0  0  0  0  0
   23.4286  -13.9980  -16.2557 O   0  0  0  0  0  0  0  0  0  0  0  0
  1  2  1  0
  2  3  2  0
  4  2  1  0
  5  4  1  0
  6  7  1  1
  6  5  1  0
  8  6  1  0
  9  8  2  0
 10 11  1  0
 11 13  1  0
 11 12  2  0
 13 14  1  0
 15 14  1  6
 15 16  1  0
 16  8  1  0
 17 19  1  0
 17 15  1  0
 18 17  2  0
 19 23  1  0
 20 21  1  0
 20 19  1  0
 21 22  1  0
 22 23  1  0
 23 24  1  1
 24 26  1  0
 25 24  2  0
M  END
$$$$
