DQF.pdb
     RDKit          3D

 29 29  0  0  1  0  0  0  0  0999 V2000
    8.7877  -18.7965   21.1146 N   0  0  0  0  0  0  0  0  0  0  0  0
   10.1533  -18.3343   20.7307 C   0  0  1  0  0  0  0  0  0  0  0  0
   10.3594  -18.5722   19.2789 C   0  0  0  0  0  0  0  0  0  0  0  0
   11.7065  -18.2547   18.8055 C   0  0  0  0  0  0  0  0  0  0  0  0
   12.7119  -18.5857   19.4580 O   0  0  0  0  0  0  0  0  0  0  0  0
   10.2488  -16.8850   21.1290 C   0  0  0  0  0  0  0  0  0  0  0  0
   11.2337  -16.1646   20.9089 O   0  0  0  0  0  0  0  0  0  0  0  0
   11.9199  -17.5617   17.5925 O   0  0  0  0  0  0  0  0  0  0  0  0
    5.9374  -14.2794   19.5944 N   0  0  0  0  0  0  0  0  0  0  0  0
    7.2665  -13.8098   19.4346 C   0  0  0  0  0  0  0  0  0  0  0  0
    7.7621  -13.8076   18.2860 O   0  0  0  0  0  0  0  0  0  0  0  0
    8.0853  -13.3266   20.5671 C   0  0  0  0  0  0  0  0  0  0  0  0
    7.9668  -14.1091   21.8184 C   0  0  0  0  0  0  0  0  0  0  0  0
    9.1963  -14.8457   22.2145 C   0  0  2  0  0  0  0  0  0  0  0  0
    9.1629  -16.2395   21.8103 N   0  0  0  0  0  0  0  0  0  0  0  0
    9.4468  -14.8243   23.6927 C   0  0  0  0  0  0  0  0  0  0  0  0
    9.6680  -13.7761   24.3433 O   0  0  0  0  0  0  0  0  0  0  0  0
    9.4426  -16.0324   24.4348 N   0  0  0  0  0  0  0  0  0  0  0  0
    8.9858  -16.0600   25.8115 C   0  0  1  0  0  0  0  0  0  0  0  0
    7.5205  -15.6654   25.8174 C   0  0  0  0  0  0  0  0  0  0  0  0
    7.2913  -14.2697   26.2046 C   0  0  0  0  0  0  0  0  0  0  0  0
    6.0891  -13.6319   25.9770 C   0  0  0  0  0  0  0  0  0  0  0  0
    5.9254  -12.3184   26.3658 C   0  0  0  0  0  0  0  0  0  0  0  0
    6.9257  -11.6016   26.9821 C   0  0  0  0  0  0  0  0  0  0  0  0
    8.1287  -12.2341   27.2116 C   0  0  0  0  0  0  0  0  0  0  0  0
    8.2977  -13.5604   26.8203 C   0  0  0  0  0  0  0  0  0  0  0  0
    9.2273  -17.4037   26.3738 C   0  0  0  0  0  0  0  0  0  0  0  0
    9.4853  -18.3801   25.6383 O   0  0  0  0  0  0  0  0  0  0  0  0
    9.1697  -17.5988   27.7379 O   0  0  0  0  0  0  0  0  0  0  0  0
  2  1  1  6
  2  6  1  0
  3  2  1  0
  4  3  1  0
  4  5  2  0
  6  7  2  0
  8  4  1  0
  9 10  1  0
 10 12  1  0
 10 11  2  0
 12 13  1  0
 14 13  1  1
 14 16  1  0
 15  6  1  0
 15 14  1  0
 16 17  2  0
 18 19  1  0
 18 16  1  0
 19 27  1  0
 19 20  1  6
 21 20  1  0
 22 21  2  0
 23 22  1  0
 24 23  2  0
 24 25  1  0
 25 26  2  0
 26 21  1  0
 27 28  2  0
 27 29  1  0
M  END
$$$$
