DQF.pdb
     RDKit          3D

 29 29  0  0  1  0  0  0  0  0999 V2000
    7.0703  -18.3280   19.1201 N   0  0  0  0  0  0  0  0  0  0  0  0
    7.6299  -17.1080   19.7715 C   0  0  1  0  0  0  0  0  0  0  0  0
    7.4231  -15.9389   18.8787 C   0  0  0  0  0  0  0  0  0  0  0  0
    8.3448  -15.8814   17.7444 C   0  0  0  0  0  0  0  0  0  0  0  0
    9.2329  -16.7385   17.5935 O   0  0  0  0  0  0  0  0  0  0  0  0
    6.9497  -16.9795   21.1092 C   0  0  0  0  0  0  0  0  0  0  0  0
    5.7200  -16.9580   21.2670 O   0  0  0  0  0  0  0  0  0  0  0  0
    8.2644  -14.8538   16.7775 O   0  0  0  0  0  0  0  0  0  0  0  0
    5.6552  -20.9833   24.5167 N   0  0  0  0  0  0  0  0  0  0  0  0
    6.9889  -20.7739   24.0809 C   0  0  0  0  0  0  0  0  0  0  0  0
    7.7403  -21.7676   23.9682 O   0  0  0  0  0  0  0  0  0  0  0  0
    7.5232  -19.4335   23.7577 C   0  0  0  0  0  0  0  0  0  0  0  0
    6.5700  -18.3120   23.9183 C   0  0  0  0  0  0  0  0  0  0  0  0
    7.1361  -16.9652   23.6409 C   0  0  2  0  0  0  0  0  0  0  0  0
    7.7200  -16.8708   22.3151 N   0  0  0  0  0  0  0  0  0  0  0  0
    8.1990  -16.5591   24.6174 C   0  0  0  0  0  0  0  0  0  0  0  0
    9.4268  -16.6366   24.3777 O   0  0  0  0  0  0  0  0  0  0  0  0
    7.8410  -16.0548   25.8932 N   0  0  0  0  0  0  0  0  0  0  0  0
    8.8568  -15.6534   26.8480 C   0  0  1  0  0  0  0  0  0  0  0  0
    8.2355  -14.6248   27.7748 C   0  0  0  0  0  0  0  0  0  0  0  0
    7.6547  -13.4770   27.0708 C   0  0  0  0  0  0  0  0  0  0  0  0
    6.2912  -13.2975   26.9579 C   0  0  0  0  0  0  0  0  0  0  0  0
    5.7978  -12.1967   26.2885 C   0  0  0  0  0  0  0  0  0  0  0  0
    6.6191  -11.2517   25.7172 C   0  0  0  0  0  0  0  0  0  0  0  0
    7.9820  -11.4265   25.8270 C   0  0  0  0  0  0  0  0  0  0  0  0
    8.4840  -12.5368   26.5023 C   0  0  0  0  0  0  0  0  0  0  0  0
    9.3526  -16.8496   27.5575 C   0  0  0  0  0  0  0  0  0  0  0  0
    8.8278  -17.9706   27.3882 O   0  0  0  0  0  0  0  0  0  0  0  0
   10.4165  -16.7408   28.4283 O   0  0  0  0  0  0  0  0  0  0  0  0
  2  1  1  6
  2  6  1  0
  3  2  1  0
  4  3  1  0
  4  5  2  0
  6  7  2  0
  8  4  1  0
  9 10  1  0
 10 12  1  0
 10 11  2  0
 12 13  1  0
 14 13  1  1
 14 16  1  0
 15  6  1  0
 15 14  1  0
 16 17  2  0
 18 19  1  0
 18 16  1  0
 19 27  1  0
 19 20  1  1
 21 20  1  0
 22 21  2  0
 23 22  1  0
 24 23  2  0
 24 25  1  0
 25 26  2  0
 26 21  1  0
 27 28  2  0
 27 29  1  0
M  END
$$$$
