DQF.pdb
     RDKit          3D

 29 29  0  0  1  0  0  0  0  0999 V2000
    9.1876  -18.6887   21.1783 N   0  0  0  0  0  0  0  0  0  0  0  0
   10.6086  -18.3314   20.8972 C   0  0  1  0  0  0  0  0  0  0  0  0
   10.8956  -18.5642   19.4584 C   0  0  0  0  0  0  0  0  0  0  0  0
   11.1047  -19.9692   19.1094 C   0  0  0  0  0  0  0  0  0  0  0  0
   11.0063  -20.8658   19.9652 O   0  0  0  0  0  0  0  0  0  0  0  0
   10.7899  -16.9001   21.3296 C   0  0  0  0  0  0  0  0  0  0  0  0
   11.8609  -16.2797   21.2563 O   0  0  0  0  0  0  0  0  0  0  0  0
   11.4256  -20.3638   17.7908 O   0  0  0  0  0  0  0  0  0  0  0  0
    6.9716  -12.2244   20.1484 N   0  0  0  0  0  0  0  0  0  0  0  0
    7.4332  -13.4454   19.5928 C   0  0  0  0  0  0  0  0  0  0  0  0
    6.9584  -13.8167   18.4967 O   0  0  0  0  0  0  0  0  0  0  0  0
    8.4476  -14.2925   20.2561 C   0  0  0  0  0  0  0  0  0  0  0  0
    8.8214  -13.8822   21.6287 C   0  0  0  0  0  0  0  0  0  0  0  0
    9.8044  -14.7721   22.3018 C   0  0  2  0  0  0  0  0  0  0  0  0
    9.6897  -16.1532   21.8696 N   0  0  0  0  0  0  0  0  0  0  0  0
    9.6774  -14.7688   23.7958 C   0  0  0  0  0  0  0  0  0  0  0  0
    9.8429  -13.7475   24.5033 O   0  0  0  0  0  0  0  0  0  0  0  0
    9.3539  -15.9636   24.4872 N   0  0  0  0  0  0  0  0  0  0  0  0
    9.3426  -16.0059   25.9373 C   0  0  1  0  0  0  0  0  0  0  0  0
    7.9132  -15.7770   26.3926 C   0  0  0  0  0  0  0  0  0  0  0  0
    7.5248  -14.3631   26.4151 C   0  0  0  0  0  0  0  0  0  0  0  0
    8.2733  -13.4058   27.0688 C   0  0  0  0  0  0  0  0  0  0  0  0
    7.8645  -12.0882   27.0544 C   0  0  0  0  0  0  0  0  0  0  0  0
    6.7225  -11.6774   26.4055 C   0  0  0  0  0  0  0  0  0  0  0  0
    5.9712  -12.6298   25.7510 C   0  0  0  0  0  0  0  0  0  0  0  0
    6.3808  -13.9614   25.7633 C   0  0  0  0  0  0  0  0  0  0  0  0
    9.8950  -17.2991   26.3873 C   0  0  0  0  0  0  0  0  0  0  0  0
    9.9079  -17.6161   27.5956 O   0  0  0  0  0  0  0  0  0  0  0  0
   10.4109  -18.1848   25.4645 O   0  0  0  0  0  0  0  0  0  0  0  0
  2  1  1  6
  2  6  1  0
  3  2  1  0
  4  3  1  0
  4  5  2  0
  6  7  2  0
  8  4  1  0
  9 10  1  0
 10 12  1  0
 10 11  2  0
 12 13  1  0
 14 13  1  6
 14 16  1  0
 15  6  1  0
 15 14  1  0
 16 17  2  0
 18 19  1  0
 18 16  1  0
 19 27  1  0
 19 20  1  6
 21 20  1  0
 22 21  2  0
 23 22  1  0
 24 23  2  0
 24 25  1  0
 25 26  2  0
 26 21  1  0
 27 28  2  0
 27 29  1  0
M  END
$$$$
