DQF.pdb
     RDKit          3D

 29 29  0  0  1  0  0  0  0  0999 V2000
    9.2018  -16.6467   18.9528 N   0  0  0  0  0  0  0  0  0  0  0  0
   10.1046  -16.5100   20.1327 C   0  0  1  0  0  0  0  0  0  0  0  0
   10.9249  -15.2809   19.9805 C   0  0  0  0  0  0  0  0  0  0  0  0
   12.0974  -15.4461   19.1218 C   0  0  0  0  0  0  0  0  0  0  0  0
   12.4650  -16.5727   18.7454 O   0  0  0  0  0  0  0  0  0  0  0  0
    9.2241  -16.5061   21.3547 C   0  0  0  0  0  0  0  0  0  0  0  0
    8.2238  -15.7864   21.4911 O   0  0  0  0  0  0  0  0  0  0  0  0
   12.8574  -14.3370   18.6865 O   0  0  0  0  0  0  0  0  0  0  0  0
    7.5190  -21.7402   24.3209 N   0  0  0  0  0  0  0  0  0  0  0  0
    6.9935  -20.6944   25.1225 C   0  0  0  0  0  0  0  0  0  0  0  0
    6.2141  -20.9938   26.0540 O   0  0  0  0  0  0  0  0  0  0  0  0
    7.3282  -19.2714   24.9002 C   0  0  0  0  0  0  0  0  0  0  0  0
    8.2274  -18.9996   23.7557 C   0  0  0  0  0  0  0  0  0  0  0  0
    8.5901  -17.5694   23.5709 C   0  0  2  0  0  0  0  0  0  0  0  0
    9.5098  -17.3683   22.4659 N   0  0  0  0  0  0  0  0  0  0  0  0
    9.2243  -16.9597   24.7851 C   0  0  0  0  0  0  0  0  0  0  0  0
   10.4631  -16.8399   24.9339 O   0  0  0  0  0  0  0  0  0  0  0  0
    8.4170  -16.4794   25.8470 N   0  0  0  0  0  0  0  0  0  0  0  0
    9.0150  -15.9757   27.0691 C   0  0  1  0  0  0  0  0  0  0  0  0
    8.0327  -15.0023   27.6941 C   0  0  0  0  0  0  0  0  0  0  0  0
    7.8082  -13.7980   26.8880 C   0  0  0  0  0  0  0  0  0  0  0  0
    8.7042  -12.7488   26.8691 C   0  0  0  0  0  0  0  0  0  0  0  0
    8.4460  -11.6408   26.0889 C   0  0  0  0  0  0  0  0  0  0  0  0
    7.3140  -11.5321   25.3138 C   0  0  0  0  0  0  0  0  0  0  0  0
    6.4156  -12.5774   25.3293 C   0  0  0  0  0  0  0  0  0  0  0  0
    6.6729  -13.6981   26.1160 C   0  0  0  0  0  0  0  0  0  0  0  0
    9.3447  -17.1136   27.9503 C   0  0  0  0  0  0  0  0  0  0  0  0
    8.9508  -18.2711   27.6933 O   0  0  0  0  0  0  0  0  0  0  0  0
   10.1026  -16.9082   29.0841 O   0  0  0  0  0  0  0  0  0  0  0  0
  2  1  1  6
  2  6  1  0
  3  2  1  0
  4  3  1  0
  4  5  2  0
  6  7  2  0
  8  4  1  0
  9 10  1  0
 10 12  1  0
 10 11  2  0
 12 13  1  0
 14 13  1  1
 14 16  1  0
 15  6  1  0
 15 14  1  0
 16 17  2  0
 18 19  1  0
 18 16  1  0
 19 27  1  0
 19 20  1  1
 21 20  1  0
 22 21  2  0
 23 22  1  0
 24 23  2  0
 24 25  1  0
 25 26  2  0
 26 21  1  0
 27 28  2  0
 27 29  1  0
M  END
$$$$
