DQF.pdb
     RDKit          3D

 29 29  0  0  1  0  0  0  0  0999 V2000
    9.2139  -20.0371   20.7565 N   0  0  0  0  0  0  0  0  0  0  0  0
    8.5136  -19.3329   21.8699 C   0  0  1  0  0  0  0  0  0  0  0  0
    8.9405  -19.9215   23.1653 C   0  0  0  0  0  0  0  0  0  0  0  0
    8.7592  -21.3702   23.2534 C   0  0  0  0  0  0  0  0  0  0  0  0
    9.2743  -22.0279   24.1745 O   0  0  0  0  0  0  0  0  0  0  0  0
    8.8391  -17.8690   21.7303 C   0  0  0  0  0  0  0  0  0  0  0  0
    9.9696  -17.4270   21.4774 O   0  0  0  0  0  0  0  0  0  0  0  0
    7.9946  -22.0791   22.2995 O   0  0  0  0  0  0  0  0  0  0  0  0
    8.2750  -13.8102   18.9105 N   0  0  0  0  0  0  0  0  0  0  0  0
    7.9168  -12.8593   19.9006 C   0  0  0  0  0  0  0  0  0  0  0  0
    8.2394  -11.6642   19.7211 O   0  0  0  0  0  0  0  0  0  0  0  0
    7.1820  -13.2242   21.1307 C   0  0  0  0  0  0  0  0  0  0  0  0
    6.9285  -14.6712   21.3159 C   0  0  0  0  0  0  0  0  0  0  0  0
    8.0851  -15.4473   21.8365 C   0  0  2  0  0  0  0  0  0  0  0  0
    7.8180  -16.8733   21.8896 N   0  0  0  0  0  0  0  0  0  0  0  0
    8.5048  -15.0290   23.2138 C   0  0  0  0  0  0  0  0  0  0  0  0
    8.3979  -13.8569   23.6451 O   0  0  0  0  0  0  0  0  0  0  0  0
    9.0579  -15.9778   24.1105 N   0  0  0  0  0  0  0  0  0  0  0  0
    9.2930  -15.6400   25.5017 C   0  0  1  0  0  0  0  0  0  0  0  0
    7.9467  -15.3453   26.1370 C   0  0  0  0  0  0  0  0  0  0  0  0
    7.6499  -13.9132   26.2430 C   0  0  0  0  0  0  0  0  0  0  0  0
    8.6265  -12.9790   26.5216 C   0  0  0  0  0  0  0  0  0  0  0  0
    8.2931  -11.6429   26.6055 C   0  0  0  0  0  0  0  0  0  0  0  0
    7.0065  -11.1908   26.4205 C   0  0  0  0  0  0  0  0  0  0  0  0
    6.0272  -12.1200   26.1421 C   0  0  0  0  0  0  0  0  0  0  0  0
    6.3600  -13.4701   26.0565 C   0  0  0  0  0  0  0  0  0  0  0  0
   10.0117  -16.7526   26.1542 C   0  0  0  0  0  0  0  0  0  0  0  0
   10.3462  -16.6948   27.3565 O   0  0  0  0  0  0  0  0  0  0  0  0
   10.3266  -17.8849   25.4326 O   0  0  0  0  0  0  0  0  0  0  0  0
  2  1  1  6
  2  6  1  0
  3  2  1  0
  4  3  1  0
  4  5  2  0
  6  7  2  0
  8  4  1  0
  9 10  1  0
 10 12  1  0
 10 11  2  0
 12 13  1  0
 14 13  1  1
 14 16  1  0
 15  6  1  0
 15 14  1  0
 16 17  2  0
 18 19  1  0
 18 16  1  0
 19 27  1  0
 19 20  1  1
 21 20  1  0
 22 21  2  0
 23 22  1  0
 24 23  2  0
 24 25  1  0
 25 26  2  0
 26 21  1  0
 27 28  2  0
 27 29  1  0
M  END
$$$$
