DQF.pdb
     RDKit          3D

 29 29  0  0  1  0  0  0  0  0999 V2000
    8.1889  -19.5530   21.6646 N   0  0  0  0  0  0  0  0  0  0  0  0
    9.5318  -19.1892   21.1260 C   0  0  1  0  0  0  0  0  0  0  0  0
    9.6945  -19.7856   19.7752 C   0  0  0  0  0  0  0  0  0  0  0  0
    9.1212  -21.1244   19.6389 C   0  0  0  0  0  0  0  0  0  0  0  0
    7.8904  -21.3011   19.6511 O   0  0  0  0  0  0  0  0  0  0  0  0
    9.6123  -17.6853   21.1404 C   0  0  0  0  0  0  0  0  0  0  0  0
   10.5781  -17.0344   20.7151 O   0  0  0  0  0  0  0  0  0  0  0  0
    9.9389  -22.2672   19.4884 O   0  0  0  0  0  0  0  0  0  0  0  0
    8.4174  -13.6340   18.7024 N   0  0  0  0  0  0  0  0  0  0  0  0
    7.9626  -12.8052   19.7601 C   0  0  0  0  0  0  0  0  0  0  0  0
    8.0329  -11.5647   19.6155 O   0  0  0  0  0  0  0  0  0  0  0  0
    7.4127  -13.3477   21.0210 C   0  0  0  0  0  0  0  0  0  0  0  0
    7.3681  -14.8248   21.1132 C   0  0  0  0  0  0  0  0  0  0  0  0
    8.5666  -15.4493   21.7335 C   0  0  2  0  0  0  0  0  0  0  0  0
    8.5336  -16.8992   21.6680 N   0  0  0  0  0  0  0  0  0  0  0  0
    8.7450  -15.0801   23.1757 C   0  0  0  0  0  0  0  0  0  0  0  0
    8.4188  -13.9675   23.6520 O   0  0  0  0  0  0  0  0  0  0  0  0
    9.3095  -16.0092   24.0858 N   0  0  0  0  0  0  0  0  0  0  0  0
    9.3667  -15.7206   25.5064 C   0  0  1  0  0  0  0  0  0  0  0  0
    7.9397  -15.6088   26.0104 C   0  0  0  0  0  0  0  0  0  0  0  0
    7.4787  -14.2250   26.1619 C   0  0  0  0  0  0  0  0  0  0  0  0
    8.2908  -13.2312   26.6687 C   0  0  0  0  0  0  0  0  0  0  0  0
    7.8078  -11.9442   26.7855 C   0  0  0  0  0  0  0  0  0  0  0  0
    6.5285  -11.5999   26.4126 C   0  0  0  0  0  0  0  0  0  0  0  0
    5.7132  -12.5890   25.9060 C   0  0  0  0  0  0  0  0  0  0  0  0
    6.1974  -13.8898   25.7865 C   0  0  0  0  0  0  0  0  0  0  0  0
   10.1403  -16.7801   26.1839 C   0  0  0  0  0  0  0  0  0  0  0  0
   10.3127  -16.7697   27.4212 O   0  0  0  0  0  0  0  0  0  0  0  0
   10.6895  -17.8085   25.4471 O   0  0  0  0  0  0  0  0  0  0  0  0
  2  1  1  6
  2  6  1  0
  3  2  1  0
  4  3  1  0
  4  5  2  0
  6  7  2  0
  8  4  1  0
  9 10  1  0
 10 12  1  0
 10 11  2  0
 12 13  1  0
 14 13  1  1
 14 16  1  0
 15  6  1  0
 15 14  1  0
 16 17  2  0
 18 19  1  0
 18 16  1  0
 19 27  1  0
 19 20  1  1
 21 20  1  0
 22 21  2  0
 23 22  1  0
 24 23  2  0
 24 25  1  0
 25 26  2  0
 26 21  1  0
 27 28  2  0
 27 29  1  0
M  END
$$$$
