SFF.pdb
     RDKit          3D

 29 30  0  0  1  0  0  0  0  0999 V2000
   26.2648  -19.8735  -13.4321 O   0  0  0  0  0  0  0  0  0  0  0  0
   27.6480  -19.8338  -13.5732 C   0  0  0  0  0  0  0  0  0  0  0  0
   28.2574  -21.1678  -13.1911 C   0  0  2  0  0  0  0  0  0  0  0  0
   27.7581  -22.1828  -14.0869 N   0  0  0  0  0  0  0  0  0  0  0  0
   27.9073  -21.4353  -11.7678 C   0  0  0  0  0  0  0  0  0  0  0  0
   26.9592  -22.1945  -11.5424 O   0  0  0  0  0  0  0  0  0  0  0  0
   28.6313  -20.8433  -10.6989 N   0  0  0  0  0  0  0  0  0  0  0  0
   28.2163  -20.8508   -9.3447 C   0  0  1  0  0  0  0  0  0  0  0  0
   29.1774  -20.1583   -8.3710 C   0  0  0  0  0  0  0  0  0  0  0  0
   28.6005  -20.0629   -7.0077 C   0  0  0  0  0  0  0  0  0  0  0  0
   27.7976  -19.0443   -6.5665 C   0  0  0  0  0  0  0  0  0  0  0  0
   27.2955  -19.0100   -5.2562 C   0  0  0  0  0  0  0  0  0  0  0  0
   27.5923  -20.0069   -4.3563 C   0  0  0  0  0  0  0  0  0  0  0  0
   28.3978  -21.0384   -4.7841 C   0  0  0  0  0  0  0  0  0  0  0  0
   28.8875  -21.0687   -6.0667 C   0  0  0  0  0  0  0  0  0  0  0  0
   26.8515  -20.3451   -9.0876 C   0  0  0  0  0  0  0  0  0  0  0  0
   26.4174  -19.2927   -9.6239 O   0  0  0  0  0  0  0  0  0  0  0  0
   25.9358  -21.0118   -8.2177 N   0  0  0  0  0  0  0  0  0  0  0  0
   24.5420  -20.6175   -8.0817 C   0  0  1  0  0  0  0  0  0  0  0  0
   23.8949  -20.9303   -9.4091 C   0  0  0  0  0  0  0  0  0  0  0  0
   22.4916  -20.5270   -9.5185 C   0  0  0  0  0  0  0  0  0  0  0  0
   22.1258  -19.2809  -10.0351 C   0  0  0  0  0  0  0  0  0  0  0  0
   20.7795  -18.9674  -10.1168 C   0  0  0  0  0  0  0  0  0  0  0  0
   19.7914  -19.8361   -9.7085 C   0  0  0  0  0  0  0  0  0  0  0  0
   20.1611  -21.0637   -9.1997 C   0  0  0  0  0  0  0  0  0  0  0  0
   21.4978  -21.4014   -9.1075 C   0  0  0  0  0  0  0  0  0  0  0  0
   23.8541  -21.3951   -7.0285 C   0  0  0  0  0  0  0  0  0  0  0  0
   24.4396  -22.6212   -6.6531 O   0  0  0  0  0  0  0  0  0  0  0  0
   22.8049  -21.0271   -6.4690 O   0  0  0  0  0  0  0  0  0  0  0  0
  2  3  1  0
  2  1  1  0
  3  4  1  6
  5  6  2  0
  5  3  1  0
  7  5  1  0
  8  7  1  0
  8  9  1  1
 10 15  1  0
 10  9  1  0
 11 10  2  0
 12 13  2  0
 12 11  1  0
 13 14  1  0
 14 15  2  0
 16  8  1  0
 17 16  2  0
 18 16  1  0
 19 20  1  6
 19 18  1  0
 21 22  2  0
 21 20  1  0
 23 22  1  0
 24 23  2  0
 25 24  1  0
 25 26  2  0
 26 21  1  0
 27 19  1  0
 28 27  1  0
 29 27  2  0
M  END
$$$$
