SFF.pdb
     RDKit          3D

 29 30  0  0  1  0  0  0  0  0999 V2000
   22.0197  -11.9302  -15.8037 O   0  0  0  0  0  0  0  0  0  0  0  0
   23.0091  -12.1796  -16.7490 C   0  0  0  0  0  0  0  0  0  0  0  0
   22.5377  -11.7681  -18.1294 C   0  0  2  0  0  0  0  0  0  0  0  0
   23.5306  -12.1632  -19.0988 N   0  0  0  0  0  0  0  0  0  0  0  0
   22.3079  -10.2961  -18.1100 C   0  0  0  0  0  0  0  0  0  0  0  0
   23.2996   -9.5596  -18.1254 O   0  0  0  0  0  0  0  0  0  0  0  0
   20.9985   -9.7472  -18.0747 N   0  0  0  0  0  0  0  0  0  0  0  0
   20.7056   -8.3619  -18.1101 C   0  0  1  0  0  0  0  0  0  0  0  0
   19.3934   -7.9971  -18.8147 C   0  0  0  0  0  0  0  0  0  0  0  0
   19.2382   -6.5286  -18.9565 C   0  0  0  0  0  0  0  0  0  0  0  0
   18.3557   -5.7617  -18.2425 C   0  0  0  0  0  0  0  0  0  0  0  0
   18.2516   -4.3756  -18.4368 C   0  0  0  0  0  0  0  0  0  0  0  0
   19.0389   -3.7274  -19.3597 C   0  0  0  0  0  0  0  0  0  0  0  0
   19.9316   -4.4838  -20.0855 C   0  0  0  0  0  0  0  0  0  0  0  0
   20.0308   -5.8398  -19.8930 C   0  0  0  0  0  0  0  0  0  0  0  0
   20.7425   -7.6633  -16.8081 C   0  0  0  0  0  0  0  0  0  0  0  0
   20.0576   -8.0471  -15.8248 O   0  0  0  0  0  0  0  0  0  0  0  0
   21.5536   -6.5107  -16.5769 N   0  0  0  0  0  0  0  0  0  0  0  0
   21.5425   -5.7724  -15.3234 C   0  0  1  0  0  0  0  0  0  0  0  0
   22.9618   -5.8116  -14.8107 C   0  0  0  0  0  0  0  0  0  0  0  0
   23.4920   -7.1556  -14.5727 C   0  0  0  0  0  0  0  0  0  0  0  0
   24.4777   -7.7100  -15.3939 C   0  0  0  0  0  0  0  0  0  0  0  0
   24.9392   -8.9836  -15.1068 C   0  0  0  0  0  0  0  0  0  0  0  0
   24.4633   -9.7212  -14.0451 C   0  0  0  0  0  0  0  0  0  0  0  0
   23.4904   -9.1667  -13.2399 C   0  0  0  0  0  0  0  0  0  0  0  0
   23.0127   -7.8973  -13.5044 C   0  0  0  0  0  0  0  0  0  0  0  0
   21.1541   -4.3597  -15.5242 C   0  0  0  0  0  0  0  0  0  0  0  0
   20.9538   -3.5807  -14.3665 O   0  0  0  0  0  0  0  0  0  0  0  0
   20.9986   -3.8359  -16.6425 O   0  0  0  0  0  0  0  0  0  0  0  0
  2  3  1  0
  2  1  1  0
  3  4  1  6
  5  6  2  0
  5  3  1  0
  7  5  1  0
  8  7  1  0
  8  9  1  1
 10 15  1  0
 10  9  1  0
 11 10  2  0
 12 13  2  0
 12 11  1  0
 13 14  1  0
 14 15  2  0
 16  8  1  0
 17 16  2  0
 18 16  1  0
 19 20  1  6
 19 18  1  0
 21 22  2  0
 21 20  1  0
 23 22  1  0
 24 23  2  0
 25 24  1  0
 25 26  2  0
 26 21  1  0
 27 19  1  0
 28 27  1  0
 29 27  2  0
M  END
$$$$
