SFF.pdb
     RDKit          3D

 29 30  0  0  1  0  0  0  0  0999 V2000
   33.0382  -20.0087   14.5843 O   0  0  0  0  0  0  0  0  0  0  0  0
   32.8630  -18.6322   14.6803 C   0  0  0  0  0  0  0  0  0  0  0  0
   31.4681  -18.3097   15.1774 C   0  0  2  0  0  0  0  0  0  0  0  0
   31.1528  -19.1825   16.2822 N   0  0  0  0  0  0  0  0  0  0  0  0
   30.5296  -18.4717   14.0316 C   0  0  0  0  0  0  0  0  0  0  0  0
   29.6885  -19.3739   14.1012 O   0  0  0  0  0  0  0  0  0  0  0  0
   30.5906  -17.6244   12.8934 N   0  0  0  0  0  0  0  0  0  0  0  0
   29.6749  -17.6606   11.8134 C   0  0  1  0  0  0  0  0  0  0  0  0
   29.2158  -16.2870   11.3098 C   0  0  0  0  0  0  0  0  0  0  0  0
   27.9399  -16.3780   10.5586 C   0  0  0  0  0  0  0  0  0  0  0  0
   26.6931  -16.3384   11.1249 C   0  0  0  0  0  0  0  0  0  0  0  0
   25.5247  -16.4435   10.3543 C   0  0  0  0  0  0  0  0  0  0  0  0
   25.5866  -16.5910    8.9882 C   0  0  0  0  0  0  0  0  0  0  0  0
   26.8324  -16.6322    8.4032 C   0  0  0  0  0  0  0  0  0  0  0  0
   27.9735  -16.5293    9.1602 C   0  0  0  0  0  0  0  0  0  0  0  0
   30.0886  -18.4679   10.6465 C   0  0  0  0  0  0  0  0  0  0  0  0
   30.6680  -17.9573    9.6530 O   0  0  0  0  0  0  0  0  0  0  0  0
   29.8607  -19.8755   10.5658 N   0  0  0  0  0  0  0  0  0  0  0  0
   30.3864  -20.7031    9.4910 C   0  0  1  0  0  0  0  0  0  0  0  0
   31.8885  -20.5784    9.5734 C   0  0  0  0  0  0  0  0  0  0  0  0
   32.6284  -21.4499    8.6584 C   0  0  0  0  0  0  0  0  0  0  0  0
   33.2919  -22.5933    9.1119 C   0  0  0  0  0  0  0  0  0  0  0  0
   33.9663  -23.3766    8.1903 C   0  0  0  0  0  0  0  0  0  0  0  0
   34.0068  -23.0704    6.8478 C   0  0  0  0  0  0  0  0  0  0  0  0
   33.3495  -21.9401    6.4088 C   0  0  0  0  0  0  0  0  0  0  0  0
   32.6689  -21.1412    7.3077 C   0  0  0  0  0  0  0  0  0  0  0  0
   30.0224  -22.1255    9.6679 C   0  0  0  0  0  0  0  0  0  0  0  0
   29.9495  -22.9167    8.5035 O   0  0  0  0  0  0  0  0  0  0  0  0
   29.7822  -22.6472   10.7722 O   0  0  0  0  0  0  0  0  0  0  0  0
  2  3  1  0
  2  1  1  0
  3  4  1  1
  5  6  2  0
  5  3  1  0
  7  5  1  0
  8  7  1  0
  8  9  1  6
 10 15  1  0
 10  9  1  0
 11 10  2  0
 12 13  2  0
 12 11  1  0
 13 14  1  0
 14 15  2  0
 16  8  1  0
 17 16  2  0
 18 16  1  0
 19 20  1  1
 19 18  1  0
 21 22  2  0
 21 20  1  0
 23 22  1  0
 24 23  2  0
 25 24  1  0
 25 26  2  0
 26 21  1  0
 27 19  1  0
 28 27  1  0
 29 27  2  0
M  END
$$$$
