SFF.pdb
     RDKit          3D

 29 30  0  0  1  0  0  0  0  0999 V2000
   28.0762  -22.0428  -16.8204 O   0  0  0  0  0  0  0  0  0  0  0  0
   27.8189  -20.7676  -16.3280 C   0  0  0  0  0  0  0  0  0  0  0  0
   26.9984  -19.9717  -17.3232 C   0  0  2  0  0  0  0  0  0  0  0  0
   27.8355  -18.9536  -17.9100 N   0  0  0  0  0  0  0  0  0  0  0  0
   25.8285  -19.4044  -16.5956 C   0  0  0  0  0  0  0  0  0  0  0  0
   26.0226  -18.4200  -15.8748 O   0  0  0  0  0  0  0  0  0  0  0  0
   24.5305  -19.9675  -16.7184 N   0  0  0  0  0  0  0  0  0  0  0  0
   23.3842  -19.5055  -16.0266 C   0  0  1  0  0  0  0  0  0  0  0  0
   22.1566  -19.2501  -16.9092 C   0  0  0  0  0  0  0  0  0  0  0  0
   22.1616  -17.8766  -17.4696 C   0  0  0  0  0  0  0  0  0  0  0  0
   22.4949  -17.5583  -18.7597 C   0  0  0  0  0  0  0  0  0  0  0  0
   22.4912  -16.2328  -19.2213 C   0  0  0  0  0  0  0  0  0  0  0  0
   22.1492  -15.1926  -18.3890 C   0  0  0  0  0  0  0  0  0  0  0  0
   21.8111  -15.4956  -17.0891 C   0  0  0  0  0  0  0  0  0  0  0  0
   21.8161  -16.7935  -16.6407 C   0  0  0  0  0  0  0  0  0  0  0  0
   22.9610  -20.3194  -14.8677 C   0  0  0  0  0  0  0  0  0  0  0  0
   22.9510  -21.5772  -14.9033 O   0  0  0  0  0  0  0  0  0  0  0  0
   22.5365  -19.7383  -13.6341 N   0  0  0  0  0  0  0  0  0  0  0  0
   22.2196  -20.5276  -12.4538 C   0  0  1  0  0  0  0  0  0  0  0  0
   22.4453  -19.6127  -11.2747 C   0  0  0  0  0  0  0  0  0  0  0  0
   22.0866  -20.1851   -9.9755 C   0  0  0  0  0  0  0  0  0  0  0  0
   20.7718  -20.1608   -9.5024 C   0  0  0  0  0  0  0  0  0  0  0  0
   20.5018  -20.7271   -8.2678 C   0  0  0  0  0  0  0  0  0  0  0  0
   21.4790  -21.3112   -7.4922 C   0  0  0  0  0  0  0  0  0  0  0  0
   22.7740  -21.3307   -7.9665 C   0  0  0  0  0  0  0  0  0  0  0  0
   23.0702  -20.7726   -9.1954 C   0  0  0  0  0  0  0  0  0  0  0  0
   20.8055  -20.9606  -12.4490 C   0  0  0  0  0  0  0  0  0  0  0  0
   20.5265  -22.2280  -11.8985 O   0  0  0  0  0  0  0  0  0  0  0  0
   19.8691  -20.2746  -12.8982 O   0  0  0  0  0  0  0  0  0  0  0  0
  2  3  1  0
  2  1  1  0
  3  4  1  1
  5  6  2  0
  5  3  1  0
  7  5  1  0
  8  7  1  0
  8  9  1  6
 10 15  1  0
 10  9  1  0
 11 10  2  0
 12 13  2  0
 12 11  1  0
 13 14  1  0
 14 15  2  0
 16  8  1  0
 17 16  2  0
 18 16  1  0
 19 20  1  1
 19 18  1  0
 21 22  2  0
 21 20  1  0
 23 22  1  0
 24 23  2  0
 25 24  1  0
 25 26  2  0
 26 21  1  0
 27 19  1  0
 28 27  1  0
 29 27  2  0
M  END
$$$$
