SFF.pdb
     RDKit          3D

 29 30  0  0  1  0  0  0  0  0999 V2000
   27.4651  -24.2969  -19.3114 O   0  0  0  0  0  0  0  0  0  0  0  0
   27.5302  -25.3415  -18.3952 C   0  0  0  0  0  0  0  0  0  0  0  0
   28.3294  -24.9270  -17.1760 C   0  0  2  0  0  0  0  0  0  0  0  0
   28.3418  -26.0187  -16.2327 N   0  0  0  0  0  0  0  0  0  0  0  0
   27.7027  -23.6948  -16.6203 C   0  0  0  0  0  0  0  0  0  0  0  0
   26.6740  -23.8263  -15.9490 O   0  0  0  0  0  0  0  0  0  0  0  0
   28.2595  -22.4083  -16.8482 N   0  0  0  0  0  0  0  0  0  0  0  0
   27.7075  -21.1960  -16.3669 C   0  0  1  0  0  0  0  0  0  0  0  0
   28.6993  -20.0310  -16.2636 C   0  0  0  0  0  0  0  0  0  0  0  0
   28.0288  -18.7775  -15.8396 C   0  0  0  0  0  0  0  0  0  0  0  0
   27.6614  -17.7620  -16.6825 C   0  0  0  0  0  0  0  0  0  0  0  0
   27.0407  -16.5947  -16.2112 C   0  0  0  0  0  0  0  0  0  0  0  0
   26.7743  -16.4236  -14.8727 C   0  0  0  0  0  0  0  0  0  0  0  0
   27.1369  -17.4353  -14.0120 C   0  0  0  0  0  0  0  0  0  0  0  0
   27.7443  -18.5760  -14.4765 C   0  0  0  0  0  0  0  0  0  0  0  0
   26.4995  -20.7156  -17.0702 C   0  0  0  0  0  0  0  0  0  0  0  0
   26.4323  -20.6685  -18.3258 O   0  0  0  0  0  0  0  0  0  0  0  0
   25.3312  -20.2739  -16.3774 N   0  0  0  0  0  0  0  0  0  0  0  0
   24.1213  -19.8413  -17.0597 C   0  0  1  0  0  0  0  0  0  0  0  0
   23.1216  -20.9563  -16.8705 C   0  0  0  0  0  0  0  0  0  0  0  0
   22.7091  -21.1828  -15.4839 C   0  0  0  0  0  0  0  0  0  0  0  0
   23.4064  -22.0573  -14.6459 C   0  0  0  0  0  0  0  0  0  0  0  0
   22.9654  -22.2185  -13.3432 C   0  0  0  0  0  0  0  0  0  0  0  0
   21.8682  -21.5507  -12.8455 C   0  0  0  0  0  0  0  0  0  0  0  0
   21.1856  -20.6898  -13.6793 C   0  0  0  0  0  0  0  0  0  0  0  0
   21.6049  -20.5107  -14.9837 C   0  0  0  0  0  0  0  0  0  0  0  0
   23.5679  -18.6071  -16.4617 C   0  0  0  0  0  0  0  0  0  0  0  0
   24.1281  -18.1812  -15.2403 O   0  0  0  0  0  0  0  0  0  0  0  0
   22.6503  -17.9400  -16.9738 O   0  0  0  0  0  0  0  0  0  0  0  0
  2  3  1  0
  2  1  1  0
  3  4  1  1
  5  6  2  0
  5  3  1  0
  7  5  1  0
  8  7  1  0
  8  9  1  6
 10 15  1  0
 10  9  1  0
 11 10  2  0
 12 13  2  0
 12 11  1  0
 13 14  1  0
 14 15  2  0
 16  8  1  0
 17 16  2  0
 18 16  1  0
 19 20  1  1
 19 18  1  0
 21 22  2  0
 21 20  1  0
 23 22  1  0
 24 23  2  0
 25 24  1  0
 25 26  2  0
 26 21  1  0
 27 19  1  0
 28 27  1  0
 29 27  2  0
M  END
$$$$
