SFF.pdb
     RDKit          3D

 29 30  0  0  1  0  0  0  0  0999 V2000
   26.6623  -19.8406  -16.2063 O   0  0  0  0  0  0  0  0  0  0  0  0
   27.9155  -19.8536  -15.6031 C   0  0  0  0  0  0  0  0  0  0  0  0
   28.1452  -21.1704  -14.8887 C   0  0  2  0  0  0  0  0  0  0  0  0
   28.2168  -22.2269  -15.8687 N   0  0  0  0  0  0  0  0  0  0  0  0
   27.0300  -21.3609  -13.9192 C   0  0  0  0  0  0  0  0  0  0  0  0
   26.2792  -22.3269  -14.0899 O   0  0  0  0  0  0  0  0  0  0  0  0
   26.8273  -20.4689  -12.8327 N   0  0  0  0  0  0  0  0  0  0  0  0
   25.7471  -20.5455  -11.9197 C   0  0  1  0  0  0  0  0  0  0  0  0
   25.9403  -19.7506  -10.6227 C   0  0  0  0  0  0  0  0  0  0  0  0
   27.0076  -20.3369   -9.7755 C   0  0  0  0  0  0  0  0  0  0  0  0
   26.9355  -20.4845   -8.4154 C   0  0  0  0  0  0  0  0  0  0  0  0
   27.9904  -21.0367   -7.6723 C   0  0  0  0  0  0  0  0  0  0  0  0
   29.1478  -21.4553   -8.2862 C   0  0  0  0  0  0  0  0  0  0  0  0
   29.2362  -21.3142   -9.6530 C   0  0  0  0  0  0  0  0  0  0  0  0
   28.2023  -20.7733  -10.3770 C   0  0  0  0  0  0  0  0  0  0  0  0
   24.4153  -20.2177  -12.4705 C   0  0  0  0  0  0  0  0  0  0  0  0
   24.2389  -19.2574  -13.2644 O   0  0  0  0  0  0  0  0  0  0  0  0
   23.2426  -20.9637  -12.1417 N   0  0  0  0  0  0  0  0  0  0  0  0
   21.9619  -20.7579  -12.8004 C   0  0  1  0  0  0  0  0  0  0  0  0
   22.1528  -21.2216  -14.2242 C   0  0  0  0  0  0  0  0  0  0  0  0
   20.9729  -21.0803  -15.0797 C   0  0  0  0  0  0  0  0  0  0  0  0
   20.6191  -19.8507  -15.6422 C   0  0  0  0  0  0  0  0  0  0  0  0
   19.4944  -19.7904  -16.4478 C   0  0  0  0  0  0  0  0  0  0  0  0
   18.7144  -20.8944  -16.7134 C   0  0  0  0  0  0  0  0  0  0  0  0
   19.0705  -22.1038  -16.1541 C   0  0  0  0  0  0  0  0  0  0  0  0
   20.1884  -22.1914  -15.3465 C   0  0  0  0  0  0  0  0  0  0  0  0
   20.8918  -21.5695  -12.1812 C   0  0  0  0  0  0  0  0  0  0  0  0
   19.6487  -20.9379  -11.9741 O   0  0  0  0  0  0  0  0  0  0  0  0
   21.0326  -22.7585  -11.8412 O   0  0  0  0  0  0  0  0  0  0  0  0
  2  3  1  0
  2  1  1  0
  3  4  1  6
  5  6  2  0
  5  3  1  0
  7  5  1  0
  8  7  1  0
  8  9  1  1
 10 15  1  0
 10  9  1  0
 11 10  2  0
 12 13  2  0
 12 11  1  0
 13 14  1  0
 14 15  2  0
 16  8  1  0
 17 16  2  0
 18 16  1  0
 19 20  1  6
 19 18  1  0
 21 22  2  0
 21 20  1  0
 23 22  1  0
 24 23  2  0
 25 24  1  0
 25 26  2  0
 26 21  1  0
 27 19  1  0
 28 27  1  0
 29 27  2  0
M  END
$$$$
