SFF.pdb
     RDKit          3D

 29 30  0  0  1  0  0  0  0  0999 V2000
   26.2280  -20.6086  -15.8930 O   0  0  0  0  0  0  0  0  0  0  0  0
   27.5319  -21.0841  -15.8004 C   0  0  0  0  0  0  0  0  0  0  0  0
   27.5483  -22.4660  -15.1781 C   0  0  2  0  0  0  0  0  0  0  0  0
   26.7930  -23.3647  -16.0170 N   0  0  0  0  0  0  0  0  0  0  0  0
   26.9832  -22.3514  -13.8043 C   0  0  0  0  0  0  0  0  0  0  0  0
   25.8534  -22.8108  -13.6077 O   0  0  0  0  0  0  0  0  0  0  0  0
   27.7090  -21.7370  -12.7493 N   0  0  0  0  0  0  0  0  0  0  0  0
   27.1903  -21.4857  -11.4556 C   0  0  1  0  0  0  0  0  0  0  0  0
   28.2435  -21.1623  -10.3891 C   0  0  0  0  0  0  0  0  0  0  0  0
   27.6178  -20.7302   -9.1154 C   0  0  0  0  0  0  0  0  0  0  0  0
   26.2684  -20.6542   -8.8919 C   0  0  0  0  0  0  0  0  0  0  0  0
   25.7430  -20.2234   -7.6638 C   0  0  0  0  0  0  0  0  0  0  0  0
   26.5700  -19.8579   -6.6273 C   0  0  0  0  0  0  0  0  0  0  0  0
   27.9292  -19.9290   -6.8355 C   0  0  0  0  0  0  0  0  0  0  0  0
   28.4398  -20.3507   -8.0384 C   0  0  0  0  0  0  0  0  0  0  0  0
   26.1231  -20.4661  -11.3776 C   0  0  0  0  0  0  0  0  0  0  0  0
   26.3352  -19.2555  -11.6475 O   0  0  0  0  0  0  0  0  0  0  0  0
   24.7845  -20.7822  -10.9926 N   0  0  0  0  0  0  0  0  0  0  0  0
   23.6789  -19.8464  -11.1284 C   0  0  1  0  0  0  0  0  0  0  0  0
   23.4895  -19.6466  -12.6126 C   0  0  0  0  0  0  0  0  0  0  0  0
   22.7732  -20.7283  -13.2915 C   0  0  0  0  0  0  0  0  0  0  0  0
   21.3943  -20.9004  -13.1422 C   0  0  0  0  0  0  0  0  0  0  0  0
   20.7797  -21.9402  -13.8194 C   0  0  0  0  0  0  0  0  0  0  0  0
   21.4760  -22.8080  -14.6316 C   0  0  0  0  0  0  0  0  0  0  0  0
   22.8366  -22.6313  -14.7733 C   0  0  0  0  0  0  0  0  0  0  0  0
   23.4743  -21.6013  -14.1086 C   0  0  0  0  0  0  0  0  0  0  0  0
   22.4264  -20.3941  -10.5641 C   0  0  0  0  0  0  0  0  0  0  0  0
   22.4905  -21.6828   -9.9966 O   0  0  0  0  0  0  0  0  0  0  0  0
   21.3410  -19.7849  -10.5659 O   0  0  0  0  0  0  0  0  0  0  0  0
  2  3  1  0
  2  1  1  0
  3  4  1  6
  5  6  2  0
  5  3  1  0
  7  5  1  0
  8  7  1  0
  8  9  1  1
 10 15  1  0
 10  9  1  0
 11 10  2  0
 12 13  2  0
 12 11  1  0
 13 14  1  0
 14 15  2  0
 16  8  1  0
 17 16  2  0
 18 16  1  0
 19 20  1  6
 19 18  1  0
 21 22  2  0
 21 20  1  0
 23 22  1  0
 24 23  2  0
 25 24  1  0
 25 26  2  0
 26 21  1  0
 27 19  1  0
 28 27  1  0
 29 27  2  0
M  END
$$$$
