SFF.pdb
     RDKit          3D

 29 30  0  0  1  0  0  0  0  0999 V2000
   26.7129  -27.5674  -18.2613 O   0  0  0  0  0  0  0  0  0  0  0  0
   27.4568  -27.5803  -17.0860 C   0  0  0  0  0  0  0  0  0  0  0  0
   28.7967  -28.2506  -17.3152 C   0  0  2  0  0  0  0  0  0  0  0  0
   29.3654  -27.7495  -18.5429 N   0  0  0  0  0  0  0  0  0  0  0  0
   28.5679  -29.7225  -17.3468 C   0  0  0  0  0  0  0  0  0  0  0  0
   28.4459  -30.2612  -18.4519 O   0  0  0  0  0  0  0  0  0  0  0  0
   28.4907  -30.4900  -16.1543 N   0  0  0  0  0  0  0  0  0  0  0  0
   28.2636  -31.8873  -16.1102 C   0  0  1  0  0  0  0  0  0  0  0  0
   29.4445  -32.7175  -15.5927 C   0  0  0  0  0  0  0  0  0  0  0  0
   30.5658  -32.7384  -16.5636 C   0  0  0  0  0  0  0  0  0  0  0  0
   30.6787  -33.6142  -17.6110 C   0  0  0  0  0  0  0  0  0  0  0  0
   31.7758  -33.5866  -18.4859 C   0  0  0  0  0  0  0  0  0  0  0  0
   32.7892  -32.6708  -18.3246 C   0  0  0  0  0  0  0  0  0  0  0  0
   32.6907  -31.7829  -17.2768 C   0  0  0  0  0  0  0  0  0  0  0  0
   31.6160  -31.8128  -16.4225 C   0  0  0  0  0  0  0  0  0  0  0  0
   27.0446  -32.3184  -15.3940 C   0  0  0  0  0  0  0  0  0  0  0  0
   26.7871  -31.9350  -14.2235 O   0  0  0  0  0  0  0  0  0  0  0  0
   26.0796  -33.1950  -15.9775 N   0  0  0  0  0  0  0  0  0  0  0  0
   24.8938  -33.6521  -15.2694 C   0  0  1  0  0  0  0  0  0  0  0  0
   23.7270  -33.3304  -16.1712 C   0  0  0  0  0  0  0  0  0  0  0  0
   23.3798  -31.9097  -16.2433 C   0  0  0  0  0  0  0  0  0  0  0  0
   23.9581  -31.0616  -17.1918 C   0  0  0  0  0  0  0  0  0  0  0  0
   23.5784  -29.7300  -17.2083 C   0  0  0  0  0  0  0  0  0  0  0  0
   22.6548  -29.2131  -16.3266 C   0  0  0  0  0  0  0  0  0  0  0  0
   22.0891  -30.0568  -15.3936 C   0  0  0  0  0  0  0  0  0  0  0  0
   22.4506  -31.3900  -15.3558 C   0  0  0  0  0  0  0  0  0  0  0  0
   24.9226  -35.1129  -15.0408 C   0  0  0  0  0  0  0  0  0  0  0  0
   23.9364  -35.6461  -14.1863 O   0  0  0  0  0  0  0  0  0  0  0  0
   25.7580  -35.8786  -15.5557 O   0  0  0  0  0  0  0  0  0  0  0  0
  2  3  1  0
  2  1  1  0
  3  4  1  6
  5  6  2  0
  5  3  1  0
  7  5  1  0
  8  7  1  0
  8  9  1  1
 10 15  1  0
 10  9  1  0
 11 10  2  0
 12 13  2  0
 12 11  1  0
 13 14  1  0
 14 15  2  0
 16  8  1  0
 17 16  2  0
 18 16  1  0
 19 20  1  6
 19 18  1  0
 21 22  2  0
 21 20  1  0
 23 22  1  0
 24 23  2  0
 25 24  1  0
 25 26  2  0
 26 21  1  0
 27 19  1  0
 28 27  1  0
 29 27  2  0
M  END
$$$$
