SFF.pdb
     RDKit          3D

 29 30  0  0  1  0  0  0  0  0999 V2000
    9.5717  -17.4227    4.5168 O   0  0  0  0  0  0  0  0  0  0  0  0
   10.9376  -17.3307    4.2711 C   0  0  0  0  0  0  0  0  0  0  0  0
   11.2308  -16.1711    3.3402 C   0  0  2  0  0  0  0  0  0  0  0  0
   10.8899  -16.5568    1.9924 N   0  0  0  0  0  0  0  0  0  0  0  0
   12.6715  -15.8219    3.4907 C   0  0  0  0  0  0  0  0  0  0  0  0
   13.4982  -16.5301    2.9067 O   0  0  0  0  0  0  0  0  0  0  0  0
   13.0915  -14.7156    4.2760 N   0  0  0  0  0  0  0  0  0  0  0  0
   14.4408  -14.4118    4.5814 C   0  0  1  0  0  0  0  0  0  0  0  0
   14.6931  -12.9649    5.0223 C   0  0  0  0  0  0  0  0  0  0  0  0
   16.1423  -12.6799    5.1606 C   0  0  0  0  0  0  0  0  0  0  0  0
   16.8137  -12.5954    6.3517 C   0  0  0  0  0  0  0  0  0  0  0  0
   18.1864  -12.3087    6.4107 C   0  0  0  0  0  0  0  0  0  0  0  0
   18.9175  -12.0999    5.2646 C   0  0  0  0  0  0  0  0  0  0  0  0
   18.2577  -12.1816    4.0589 C   0  0  0  0  0  0  0  0  0  0  0  0
   16.9145  -12.4622    4.0048 C   0  0  0  0  0  0  0  0  0  0  0  0
   15.0994  -15.3133    5.5500 C   0  0  0  0  0  0  0  0  0  0  0  0
   14.5652  -15.6192    6.6475 O   0  0  0  0  0  0  0  0  0  0  0  0
   16.3807  -15.8965    5.3090 N   0  0  0  0  0  0  0  0  0  0  0  0
   17.0497  -16.7632    6.2669 C   0  0  1  0  0  0  0  0  0  0  0  0
   17.1561  -18.1116    5.5968 C   0  0  0  0  0  0  0  0  0  0  0  0
   17.3420  -18.0632    4.1452 C   0  0  0  0  0  0  0  0  0  0  0  0
   18.5406  -17.6261    3.5745 C   0  0  0  0  0  0  0  0  0  0  0  0
   18.6504  -17.6128    2.1941 C   0  0  0  0  0  0  0  0  0  0  0  0
   17.6246  -18.0131    1.3664 C   0  0  0  0  0  0  0  0  0  0  0  0
   16.4451  -18.4427    1.9378 C   0  0  0  0  0  0  0  0  0  0  0  0
   16.3094  -18.4659    3.3128 C   0  0  0  0  0  0  0  0  0  0  0  0
   18.4137  -16.2841    6.5783 C   0  0  0  0  0  0  0  0  0  0  0  0
   18.8932  -15.1891    5.8311 O   0  0  0  0  0  0  0  0  0  0  0  0
   19.1439  -16.7902    7.4500 O   0  0  0  0  0  0  0  0  0  0  0  0
  2  3  1  0
  2  1  1  0
  3  4  1  6
  5  6  2  0
  5  3  1  0
  7  5  1  0
  8  7  1  0
  8  9  1  1
 10 15  1  0
 10  9  1  0
 11 10  2  0
 12 13  2  0
 12 11  1  0
 13 14  1  0
 14 15  2  0
 16  8  1  0
 17 16  2  0
 18 16  1  0
 19 20  1  6
 19 18  1  0
 21 22  2  0
 21 20  1  0
 23 22  1  0
 24 23  2  0
 25 24  1  0
 25 26  2  0
 26 21  1  0
 27 19  1  0
 28 27  1  0
 29 27  2  0
M  END
$$$$
