QWC.pdb
     RDKit          3D

 30 31  0  0  1  0  0  0  0  0999 V2000
   12.8063  -20.0589   18.5050 N   0  0  0  0  0  0  0  0  0  0  0  0
   11.3809  -20.1191   18.7253 C   0  0  0  0  0  0  0  0  0  0  0  0
   10.6801  -20.4079   17.7325 O   0  0  0  0  0  0  0  0  0  0  0  0
   10.8114  -19.8500   20.0460 C   0  0  0  0  0  0  0  0  0  0  0  0
   11.7677  -19.4844   21.1092 C   0  0  0  0  0  0  0  0  0  0  0  0
   11.2506  -19.1998   22.4649 C   0  0  2  0  0  0  0  0  0  0  0  0
   10.1905  -20.1480   22.8511 N   0  0  0  0  0  0  0  0  0  0  0  0
   10.9568  -17.8126   22.8310 C   0  0  0  0  0  0  0  0  0  0  0  0
   11.8030  -16.8873   22.5432 O   0  0  0  0  0  0  0  0  0  0  0  0
    9.7843  -17.3991   23.4963 N   0  0  0  0  0  0  0  0  0  0  0  0
    9.5781  -15.9737   23.8328 C   0  0  1  0  0  0  0  0  0  0  0  0
    8.1328  -15.6431   23.7016 C   0  0  0  0  0  0  0  0  0  0  0  0
    7.7620  -14.2304   23.8180 C   0  0  0  0  0  0  0  0  0  0  0  0
    7.8029  -13.2233   22.8639 C   0  0  0  0  0  0  0  0  0  0  0  0
    7.4010  -12.0624   23.4115 N   0  0  0  0  0  0  0  0  0  0  0  0
    7.0897  -12.2505   24.7034 C   0  0  0  0  0  0  0  0  0  0  0  0
    6.6363  -11.3839   25.6745 C   0  0  0  0  0  0  0  0  0  0  0  0
    6.4082  -11.9142   26.9345 C   0  0  0  0  0  0  0  0  0  0  0  0
    6.6157  -13.2418   27.2334 C   0  0  0  0  0  0  0  0  0  0  0  0
    7.0648  -14.0593   26.2387 C   0  0  0  0  0  0  0  0  0  0  0  0
    7.3067  -13.5845   24.9726 C   0  0  0  0  0  0  0  0  0  0  0  0
   10.1761  -15.6989   25.1473 C   0  0  0  0  0  0  0  0  0  0  0  0
   10.5135  -14.5139   25.4821 O   0  0  0  0  0  0  0  0  0  0  0  0
   10.4106  -16.6793   26.1150 N   0  0  0  0  0  0  0  0  0  0  0  0
   10.8081  -16.3520   27.4728 C   0  0  1  0  0  0  0  0  0  0  0  0
    9.7566  -15.5054   28.1718 C   0  0  0  0  0  0  0  0  0  0  0  0
   10.6737  -14.1758   29.0161 S   0  0  0  0  0  0  0  0  0  0  0  0
   10.9700  -17.5682   28.2589 C   0  0  0  0  0  0  0  0  0  0  0  0
   10.5591  -18.6746   27.7692 O   0  0  0  0  0  0  0  0  0  0  0  0
   11.5518  -17.5431   29.5016 O   0  0  0  0  0  0  0  0  0  0  0  0
  2  1  1  0
  3  2  2  0
  4  2  1  0
  5  4  1  0
  6  5  1  0
  6  7  1  6
  8  9  2  0
  8  6  1  0
 10  8  1  0
 11 10  1  0
 11 12  1  1
 13 12  1  0
 14 13  2  0
 15 16  1  0
 15 14  1  0
 16 21  2  0
 17 16  1  0
 17 18  2  0
 18 19  1  0
 19 20  2  0
 21 13  1  0
 21 20  1  0
 22 11  1  0
 23 22  2  0
 24 22  1  0
 25 28  1  0
 25 24  1  0
 25 26  1  1
 27 26  1  0
 28 30  1  0
 29 28  2  0
M  END
$$$$
