QWC.pdb
     RDKit          3D

 30 31  0  0  1  0  0  0  0  0999 V2000
    8.4938  -12.4690   18.7972 N   0  0  0  0  0  0  0  0  0  0  0  0
    8.3260  -13.7771   18.2099 C   0  0  0  0  0  0  0  0  0  0  0  0
    8.0849  -13.8058   16.9846 O   0  0  0  0  0  0  0  0  0  0  0  0
    8.4337  -14.9876   19.0248 C   0  0  0  0  0  0  0  0  0  0  0  0
    8.6982  -14.7871   20.4631 C   0  0  0  0  0  0  0  0  0  0  0  0
    9.1602  -15.9374   21.2692 C   0  0  2  0  0  0  0  0  0  0  0  0
    8.2956  -17.1155   21.0780 N   0  0  0  0  0  0  0  0  0  0  0  0
    9.5428  -15.7125   22.6647 C   0  0  0  0  0  0  0  0  0  0  0  0
   10.3097  -14.7230   22.9611 O   0  0  0  0  0  0  0  0  0  0  0  0
    9.1257  -16.5213   23.7419 N   0  0  0  0  0  0  0  0  0  0  0  0
    9.4394  -16.1333   25.1342 C   0  0  1  0  0  0  0  0  0  0  0  0
    8.2430  -16.3647   25.9889 C   0  0  0  0  0  0  0  0  0  0  0  0
    7.1172  -15.4425   25.8182 C   0  0  0  0  0  0  0  0  0  0  0  0
    5.7855  -15.7143   25.5375 C   0  0  0  0  0  0  0  0  0  0  0  0
    5.0991  -14.5623   25.4334 N   0  0  0  0  0  0  0  0  0  0  0  0
    5.9216  -13.5210   25.6342 C   0  0  0  0  0  0  0  0  0  0  0  0
    5.6988  -12.1608   25.6314 C   0  0  0  0  0  0  0  0  0  0  0  0
    6.7903  -11.3438   25.8802 C   0  0  0  0  0  0  0  0  0  0  0  0
    8.0520  -11.8383   26.1226 C   0  0  0  0  0  0  0  0  0  0  0  0
    8.2215  -13.1914   26.1147 C   0  0  0  0  0  0  0  0  0  0  0  0
    7.1733  -14.0455   25.8736 C   0  0  0  0  0  0  0  0  0  0  0  0
   10.6670  -16.8209   25.5597 C   0  0  0  0  0  0  0  0  0  0  0  0
   11.0773  -17.8687   24.9564 O   0  0  0  0  0  0  0  0  0  0  0  0
   11.4688  -16.3943   26.6216 N   0  0  0  0  0  0  0  0  0  0  0  0
   12.5342  -17.2150   27.1698 C   0  0  1  0  0  0  0  0  0  0  0  0
   13.2996  -16.4793   28.2579 C   0  0  0  0  0  0  0  0  0  0  0  0
   13.7447  -14.8631   27.5427 S   0  0  0  0  0  0  0  0  0  0  0  0
   11.9830  -18.4205   27.7749 C   0  0  0  0  0  0  0  0  0  0  0  0
   10.7140  -18.5670   27.8045 O   0  0  0  0  0  0  0  0  0  0  0  0
   12.7971  -19.3896   28.3053 O   0  0  0  0  0  0  0  0  0  0  0  0
  2  1  1  0
  3  2  2  0
  4  2  1  0
  5  4  1  0
  6  5  1  0
  6  7  1  1
  8  9  2  0
  8  6  1  0
 10  8  1  0
 11 10  1  0
 11 12  1  1
 13 12  1  0
 14 13  2  0
 15 16  1  0
 15 14  1  0
 16 21  2  0
 17 16  1  0
 17 18  2  0
 18 19  1  0
 19 20  2  0
 21 13  1  0
 21 20  1  0
 22 11  1  0
 23 22  2  0
 24 22  1  0
 25 28  1  0
 25 24  1  0
 25 26  1  1
 27 26  1  0
 28 30  1  0
 29 28  2  0
M  END
$$$$
