QWC.pdb
     RDKit          3D

 30 31  0  0  1  0  0  0  0  0999 V2000
    8.8608  -12.4710   18.7461 N   0  0  0  0  0  0  0  0  0  0  0  0
    8.6173  -13.7852   18.2006 C   0  0  0  0  0  0  0  0  0  0  0  0
    8.3153  -13.8333   16.9895 O   0  0  0  0  0  0  0  0  0  0  0  0
    8.7211  -14.9796   19.0394 C   0  0  0  0  0  0  0  0  0  0  0  0
    9.0356  -14.7538   20.4638 C   0  0  0  0  0  0  0  0  0  0  0  0
    9.3334  -15.9213   21.3209 C   0  0  2  0  0  0  0  0  0  0  0  0
    8.3853  -17.0243   21.0834 N   0  0  0  0  0  0  0  0  0  0  0  0
    9.6297  -15.6991   22.7377 C   0  0  0  0  0  0  0  0  0  0  0  0
   10.3579  -14.6968   23.0843 O   0  0  0  0  0  0  0  0  0  0  0  0
    9.1669  -16.5237   23.7838 N   0  0  0  0  0  0  0  0  0  0  0  0
    9.4923  -16.2017   25.1902 C   0  0  1  0  0  0  0  0  0  0  0  0
    8.2752  -16.3804   26.0281 C   0  0  0  0  0  0  0  0  0  0  0  0
    7.1839  -15.4238   25.8257 C   0  0  0  0  0  0  0  0  0  0  0  0
    5.9265  -15.6202   25.2720 C   0  0  0  0  0  0  0  0  0  0  0  0
    5.2527  -14.4564   25.2514 N   0  0  0  0  0  0  0  0  0  0  0  0
    6.0118  -13.4799   25.7723 C   0  0  0  0  0  0  0  0  0  0  0  0
    5.7735  -12.1365   25.9677 C   0  0  0  0  0  0  0  0  0  0  0  0
    6.7923  -11.3937   26.5432 C   0  0  0  0  0  0  0  0  0  0  0  0
    7.9985  -11.9440   26.9137 C   0  0  0  0  0  0  0  0  0  0  0  0
    8.1863  -13.2776   26.6998 C   0  0  0  0  0  0  0  0  0  0  0  0
    7.2092  -14.0590   26.1328 C   0  0  0  0  0  0  0  0  0  0  0  0
   10.6678  -16.9822   25.6022 C   0  0  0  0  0  0  0  0  0  0  0  0
   11.0917  -17.9569   24.8946 O   0  0  0  0  0  0  0  0  0  0  0  0
   11.4034  -16.7263   26.7624 N   0  0  0  0  0  0  0  0  0  0  0  0
   12.2173  -17.7418   27.4068 C   0  0  1  0  0  0  0  0  0  0  0  0
   12.7504  -17.2602   28.7465 C   0  0  0  0  0  0  0  0  0  0  0  0
   13.6909  -18.6606   29.4365 S   0  0  0  0  0  0  0  0  0  0  0  0
   11.4235  -18.9358   27.6663 C   0  0  0  0  0  0  0  0  0  0  0  0
   11.9064  -20.0750   27.3472 O   0  0  0  0  0  0  0  0  0  0  0  0
   10.1809  -18.8556   28.2431 O   0  0  0  0  0  0  0  0  0  0  0  0
  2  1  1  0
  3  2  2  0
  4  2  1  0
  5  4  1  0
  6  5  1  0
  6  7  1  1
  8  9  2  0
  8  6  1  0
 10  8  1  0
 11 10  1  0
 11 12  1  1
 13 12  1  0
 14 13  2  0
 15 16  1  0
 15 14  1  0
 16 21  2  0
 17 16  1  0
 17 18  2  0
 18 19  1  0
 19 20  2  0
 21 13  1  0
 21 20  1  0
 22 11  1  0
 23 22  2  0
 24 22  1  0
 25 28  1  0
 25 24  1  0
 25 26  1  1
 27 26  1  0
 28 30  1  0
 29 28  2  0
M  END
$$$$
