QWC.pdb
     RDKit          3D

 30 31  0  0  1  0  0  0  0  0999 V2000
    8.4579  -12.7591   18.6079 N   0  0  0  0  0  0  0  0  0  0  0  0
    8.6572  -14.1753   18.4117 C   0  0  0  0  0  0  0  0  0  0  0  0
    8.6891  -14.5699   17.2269 O   0  0  0  0  0  0  0  0  0  0  0  0
    8.8079  -15.0794   19.5522 C   0  0  0  0  0  0  0  0  0  0  0  0
   10.1693  -15.2124   20.1068 C   0  0  0  0  0  0  0  0  0  0  0  0
   10.4183  -16.2350   21.1454 C   0  0  2  0  0  0  0  0  0  0  0  0
    9.7752  -17.5176   20.8088 N   0  0  0  0  0  0  0  0  0  0  0  0
   10.2741  -15.8599   22.5536 C   0  0  0  0  0  0  0  0  0  0  0  0
   10.8229  -14.7779   22.9817 O   0  0  0  0  0  0  0  0  0  0  0  0
    9.5608  -16.6155   23.5069 N   0  0  0  0  0  0  0  0  0  0  0  0
    9.3326  -16.0807   24.8668 C   0  0  1  0  0  0  0  0  0  0  0  0
    7.8843  -16.1793   25.1956 C   0  0  0  0  0  0  0  0  0  0  0  0
    7.0422  -15.0364   24.8327 C   0  0  0  0  0  0  0  0  0  0  0  0
    6.2332  -14.8512   23.7203 C   0  0  0  0  0  0  0  0  0  0  0  0
    5.6607  -13.6353   23.7726 N   0  0  0  0  0  0  0  0  0  0  0  0
    6.0551  -12.9921   24.8826 C   0  0  0  0  0  0  0  0  0  0  0  0
    5.7506  -11.7422   25.3771 C   0  0  0  0  0  0  0  0  0  0  0  0
    6.3421  -11.3787   26.5766 C   0  0  0  0  0  0  0  0  0  0  0  0
    7.1991  -12.2063   27.2663 C   0  0  0  0  0  0  0  0  0  0  0  0
    7.4692  -13.4332   26.7360 C   0  0  0  0  0  0  0  0  0  0  0  0
    6.9094  -13.8426   25.5504 C   0  0  0  0  0  0  0  0  0  0  0  0
   10.2444  -16.7500   25.8057 C   0  0  0  0  0  0  0  0  0  0  0  0
   10.9515  -17.7476   25.4382 O   0  0  0  0  0  0  0  0  0  0  0  0
   10.4158  -16.3581   27.1359 N   0  0  0  0  0  0  0  0  0  0  0  0
   11.3871  -16.9878   28.0129 C   0  0  1  0  0  0  0  0  0  0  0  0
   11.4706  -16.2756   29.3534 C   0  0  0  0  0  0  0  0  0  0  0  0
   11.1491  -14.5168   28.9996 S   0  0  0  0  0  0  0  0  0  0  0  0
   11.0031  -18.3670   28.2844 C   0  0  0  0  0  0  0  0  0  0  0  0
    9.8565  -18.7731   27.8931 O   0  0  0  0  0  0  0  0  0  0  0  0
   11.8455  -19.2259   28.9446 O   0  0  0  0  0  0  0  0  0  0  0  0
  2  1  1  0
  3  2  2  0
  4  2  1  0
  5  4  1  0
  6  5  1  0
  6  7  1  6
  8  9  2  0
  8  6  1  0
 10  8  1  0
 11 10  1  0
 11 12  1  1
 13 12  1  0
 14 13  2  0
 15 16  1  0
 15 14  1  0
 16 21  2  0
 17 16  1  0
 17 18  2  0
 18 19  1  0
 19 20  2  0
 21 13  1  0
 21 20  1  0
 22 11  1  0
 23 22  2  0
 24 22  1  0
 25 28  1  0
 25 24  1  0
 25 26  1  1
 27 26  1  0
 28 30  1  0
 29 28  2  0
M  END
$$$$
