QWC.pdb
     RDKit          3D

 30 31  0  0  1  0  0  0  0  0999 V2000
    7.3146  -17.6052   17.1489 N   0  0  0  0  0  0  0  0  0  0  0  0
    8.5201  -16.8118   17.1850 C   0  0  0  0  0  0  0  0  0  0  0  0
    9.4454  -17.1782   16.4302 O   0  0  0  0  0  0  0  0  0  0  0  0
    8.6301  -15.6494   18.0668 C   0  0  0  0  0  0  0  0  0  0  0  0
    7.4160  -15.2838   18.8226 C   0  0  0  0  0  0  0  0  0  0  0  0
    7.4966  -14.1889   19.8131 C   0  0  2  0  0  0  0  0  0  0  0  0
    7.7840  -12.8949   19.1689 N   0  0  0  0  0  0  0  0  0  0  0  0
    8.2529  -14.4088   21.0477 C   0  0  0  0  0  0  0  0  0  0  0  0
    9.2848  -13.6825   21.2980 O   0  0  0  0  0  0  0  0  0  0  0  0
    7.9302  -15.3854   22.0124 N   0  0  0  0  0  0  0  0  0  0  0  0
    8.7940  -15.5812   23.1969 C   0  0  1  0  0  0  0  0  0  0  0  0
    7.9395  -15.7860   24.3982 C   0  0  0  0  0  0  0  0  0  0  0  0
    7.1198  -14.6511   24.8307 C   0  0  0  0  0  0  0  0  0  0  0  0
    5.8380  -14.2866   24.4426 C   0  0  0  0  0  0  0  0  0  0  0  0
    5.4797  -13.1514   25.0687 N   0  0  0  0  0  0  0  0  0  0  0  0
    6.4756  -12.7362   25.8669 C   0  0  0  0  0  0  0  0  0  0  0  0
    6.5900  -11.6447   26.7007 C   0  0  0  0  0  0  0  0  0  0  0  0
    7.7795  -11.5079   27.3987 C   0  0  0  0  0  0  0  0  0  0  0  0
    8.8178  -12.4046   27.2855 C   0  0  0  0  0  0  0  0  0  0  0  0
    8.6564  -13.4683   26.4477 C   0  0  0  0  0  0  0  0  0  0  0  0
    7.4978  -13.6507   25.7329 C   0  0  0  0  0  0  0  0  0  0  0  0
    9.7610  -16.6518   22.9147 C   0  0  0  0  0  0  0  0  0  0  0  0
    9.5570  -17.4921   21.9752 O   0  0  0  0  0  0  0  0  0  0  0  0
   10.9523  -16.8299   23.6229 N   0  0  0  0  0  0  0  0  0  0  0  0
   12.0607  -17.6070   23.0969 C   0  0  1  0  0  0  0  0  0  0  0  0
   13.0286  -16.7356   22.3127 C   0  0  0  0  0  0  0  0  0  0  0  0
   14.3008  -17.8689   21.6654 S   0  0  0  0  0  0  0  0  0  0  0  0
   12.8159  -18.2117   24.1865 C   0  0  0  0  0  0  0  0  0  0  0  0
   12.8533  -17.6118   25.3141 O   0  0  0  0  0  0  0  0  0  0  0  0
   13.4779  -19.4025   24.0217 O   0  0  0  0  0  0  0  0  0  0  0  0
  2  1  1  0
  3  2  2  0
  4  2  1  0
  5  4  1  0
  6  5  1  0
  6  7  1  6
  8  9  2  0
  8  6  1  0
 10  8  1  0
 11 10  1  0
 11 12  1  1
 13 12  1  0
 14 13  2  0
 15 16  1  0
 15 14  1  0
 16 21  2  0
 17 16  1  0
 17 18  2  0
 18 19  1  0
 19 20  2  0
 21 13  1  0
 21 20  1  0
 22 11  1  0
 23 22  2  0
 24 22  1  0
 25 28  1  0
 25 24  1  0
 25 26  1  1
 27 26  1  0
 28 30  1  0
 29 28  2  0
M  END
$$$$
