QWC.pdb
     RDKit          3D

 30 31  0  0  1  0  0  0  0  0999 V2000
    9.2811  -18.9543   17.8150 N   0  0  0  0  0  0  0  0  0  0  0  0
    7.8768  -18.7785   17.5305 C   0  0  0  0  0  0  0  0  0  0  0  0
    7.4072  -19.4811   16.6106 O   0  0  0  0  0  0  0  0  0  0  0  0
    7.0692  -17.8225   18.2886 C   0  0  0  0  0  0  0  0  0  0  0  0
    7.7889  -16.9975   19.2786 C   0  0  0  0  0  0  0  0  0  0  0  0
    7.3966  -17.0887   20.7013 C   0  0  2  0  0  0  0  0  0  0  0  0
    5.9469  -16.8904   20.8778 N   0  0  0  0  0  0  0  0  0  0  0  0
    8.2085  -16.3942   21.7029 C   0  0  0  0  0  0  0  0  0  0  0  0
    8.5758  -15.1796   21.4911 O   0  0  0  0  0  0  0  0  0  0  0  0
    8.6340  -16.9706   22.9175 N   0  0  0  0  0  0  0  0  0  0  0  0
    9.5278  -16.2225   23.8280 C   0  0  1  0  0  0  0  0  0  0  0  0
    8.9595  -16.2486   25.2034 C   0  0  0  0  0  0  0  0  0  0  0  0
    7.7356  -15.4757   25.4305 C   0  0  0  0  0  0  0  0  0  0  0  0
    6.4099  -15.8841   25.3852 C   0  0  0  0  0  0  0  0  0  0  0  0
    5.6033  -14.8353   25.6266 N   0  0  0  0  0  0  0  0  0  0  0  0
    6.3385  -13.7317   25.8335 C   0  0  0  0  0  0  0  0  0  0  0  0
    5.9825  -12.4301   26.1140 C   0  0  0  0  0  0  0  0  0  0  0  0
    7.0122  -11.5162   26.2729 C   0  0  0  0  0  0  0  0  0  0  0  0
    8.3400  -11.8623   26.1617 C   0  0  0  0  0  0  0  0  0  0  0  0
    8.6414  -13.1627   25.8831 C   0  0  0  0  0  0  0  0  0  0  0  0
    7.6590  -14.1081   25.7163 C   0  0  0  0  0  0  0  0  0  0  0  0
   10.8954  -16.7449   23.6953 C   0  0  0  0  0  0  0  0  0  0  0  0
   11.1326  -17.9968   23.7778 O   0  0  0  0  0  0  0  0  0  0  0  0
   12.0156  -15.9417   23.4660 N   0  0  0  0  0  0  0  0  0  0  0  0
   13.3578  -16.4882   23.3713 C   0  0  1  0  0  0  0  0  0  0  0  0
   14.3534  -15.4403   22.9006 C   0  0  0  0  0  0  0  0  0  0  0  0
   15.9559  -16.3000   22.7798 S   0  0  0  0  0  0  0  0  0  0  0  0
   13.8085  -16.9503   24.6777 C   0  0  0  0  0  0  0  0  0  0  0  0
   13.4152  -16.3236   25.7195 O   0  0  0  0  0  0  0  0  0  0  0  0
   14.6377  -18.0365   24.8039 O   0  0  0  0  0  0  0  0  0  0  0  0
  2  1  1  0
  3  2  2  0
  4  2  1  0
  5  4  1  0
  6  5  1  0
  6  7  1  6
  8  9  2  0
  8  6  1  0
 10  8  1  0
 11 10  1  0
 11 12  1  1
 13 12  1  0
 14 13  2  0
 15 16  1  0
 15 14  1  0
 16 21  2  0
 17 16  1  0
 17 18  2  0
 18 19  1  0
 19 20  2  0
 21 13  1  0
 21 20  1  0
 22 11  1  0
 23 22  2  0
 24 22  1  0
 25 28  1  0
 25 24  1  0
 25 26  1  1
 27 26  1  0
 28 30  1  0
 29 28  2  0
M  END
$$$$
