QWC.pdb
     RDKit          3D

 30 31  0  0  1  0  0  0  0  0999 V2000
   11.0221  -15.6932   14.3752 N   0  0  0  0  0  0  0  0  0  0  0  0
   10.0502  -16.7549   14.4853 C   0  0  0  0  0  0  0  0  0  0  0  0
    9.4279  -17.0447   13.4418 O   0  0  0  0  0  0  0  0  0  0  0  0
    9.8217  -17.4371   15.7595 C   0  0  0  0  0  0  0  0  0  0  0  0
   10.6876  -17.0312   16.8839 C   0  0  0  0  0  0  0  0  0  0  0  0
   10.7241  -17.8774   18.0959 C   0  0  2  0  0  0  0  0  0  0  0  0
    9.9425  -19.1140   17.9176 N   0  0  0  0  0  0  0  0  0  0  0  0
   10.5308  -17.2461   19.4031 C   0  0  0  0  0  0  0  0  0  0  0  0
   11.1280  -16.1377   19.6673 O   0  0  0  0  0  0  0  0  0  0  0  0
    9.7182  -17.7749   20.4270 N   0  0  0  0  0  0  0  0  0  0  0  0
    9.6026  -17.0773   21.7260 C   0  0  1  0  0  0  0  0  0  0  0  0
    8.1753  -16.7356   21.9735 C   0  0  0  0  0  0  0  0  0  0  0  0
    7.6834  -15.4818   21.3963 C   0  0  0  0  0  0  0  0  0  0  0  0
    7.1411  -15.2379   20.1423 C   0  0  0  0  0  0  0  0  0  0  0  0
    6.8521  -13.9301   20.0192 N   0  0  0  0  0  0  0  0  0  0  0  0
    7.1806  -13.2816   21.1474 C   0  0  0  0  0  0  0  0  0  0  0  0
    7.0796  -11.9549   21.5069 C   0  0  0  0  0  0  0  0  0  0  0  0
    7.5198  -11.6112   22.7753 C   0  0  0  0  0  0  0  0  0  0  0  0
    8.0392  -12.5304   23.6588 C   0  0  0  0  0  0  0  0  0  0  0  0
    8.1184  -13.8309   23.2565 C   0  0  0  0  0  0  0  0  0  0  0  0
    7.6962  -14.2246   22.0101 C   0  0  0  0  0  0  0  0  0  0  0  0
   10.2517  -17.8882   22.7663 C   0  0  0  0  0  0  0  0  0  0  0  0
   10.1274  -19.1588   22.7834 O   0  0  0  0  0  0  0  0  0  0  0  0
   11.0421  -17.3546   23.7876 N   0  0  0  0  0  0  0  0  0  0  0  0
   11.7331  -18.1907   24.7533 C   0  0  1  0  0  0  0  0  0  0  0  0
   13.0034  -17.5251   25.2576 C   0  0  0  0  0  0  0  0  0  0  0  0
   14.0598  -17.3001   23.7895 S   0  0  0  0  0  0  0  0  0  0  0  0
   10.8849  -18.4285   25.9141 C   0  0  0  0  0  0  0  0  0  0  0  0
    9.7903  -17.7774   26.0179 O   0  0  0  0  0  0  0  0  0  0  0  0
   11.2395  -19.3316   26.8846 O   0  0  0  0  0  0  0  0  0  0  0  0
  2  1  1  0
  3  2  2  0
  4  2  1  0
  5  4  1  0
  6  5  1  0
  6  7  1  6
  8  9  2  0
  8  6  1  0
 10  8  1  0
 11 10  1  0
 11 12  1  1
 13 12  1  0
 14 13  2  0
 15 16  1  0
 15 14  1  0
 16 21  2  0
 17 16  1  0
 17 18  2  0
 18 19  1  0
 19 20  2  0
 21 13  1  0
 21 20  1  0
 22 11  1  0
 23 22  2  0
 24 22  1  0
 25 28  1  0
 25 24  1  0
 25 26  1  1
 27 26  1  0
 28 30  1  0
 29 28  2  0
M  END
$$$$
