QWC.pdb
     RDKit          3D

 30 31  0  0  1  0  0  0  0  0999 V2000
    8.3518  -12.8835   18.6000 N   0  0  0  0  0  0  0  0  0  0  0  0
    8.7887  -14.1441   18.0487 C   0  0  0  0  0  0  0  0  0  0  0  0
    8.7345  -14.2518   16.8054 O   0  0  0  0  0  0  0  0  0  0  0  0
    9.2619  -15.2221   18.9175 C   0  0  0  0  0  0  0  0  0  0  0  0
    9.2238  -14.9575   20.3692 C   0  0  0  0  0  0  0  0  0  0  0  0
    9.7452  -15.9862   21.2945 C   0  0  2  0  0  0  0  0  0  0  0  0
    9.1352  -17.3035   21.0402 N   0  0  0  0  0  0  0  0  0  0  0  0
    9.8631  -15.6606   22.7173 C   0  0  0  0  0  0  0  0  0  0  0  0
   10.3678  -14.5311   23.0704 O   0  0  0  0  0  0  0  0  0  0  0  0
    9.4563  -16.5148   23.7630 N   0  0  0  0  0  0  0  0  0  0  0  0
    9.4127  -16.0227   25.1570 C   0  0  1  0  0  0  0  0  0  0  0  0
    8.0560  -16.2641   25.7197 C   0  0  0  0  0  0  0  0  0  0  0  0
    7.0124  -15.2951   25.3744 C   0  0  0  0  0  0  0  0  0  0  0  0
    5.8711  -15.4614   24.6024 C   0  0  0  0  0  0  0  0  0  0  0  0
    5.2063  -14.2953   24.5180 N   0  0  0  0  0  0  0  0  0  0  0  0
    5.8593  -13.3463   25.2067 C   0  0  0  0  0  0  0  0  0  0  0  0
    5.5851  -12.0123   25.4186 C   0  0  0  0  0  0  0  0  0  0  0  0
    6.4854  -11.3004   26.1955 C   0  0  0  0  0  0  0  0  0  0  0  0
    7.6113  -11.8716   26.7444 C   0  0  0  0  0  0  0  0  0  0  0  0
    7.8388  -13.1948   26.5060 C   0  0  0  0  0  0  0  0  0  0  0  0
    6.9784  -13.9458   25.7430 C   0  0  0  0  0  0  0  0  0  0  0  0
   10.5277  -16.6142   25.9105 C   0  0  0  0  0  0  0  0  0  0  0  0
   11.3854  -17.3652   25.3357 O   0  0  0  0  0  0  0  0  0  0  0  0
   10.7417  -16.4042   27.2754 N   0  0  0  0  0  0  0  0  0  0  0  0
   11.8401  -17.0250   27.9946 C   0  0  1  0  0  0  0  0  0  0  0  0
   11.9424  -16.4980   29.4169 C   0  0  0  0  0  0  0  0  0  0  0  0
   11.3301  -14.7826   29.3537 S   0  0  0  0  0  0  0  0  0  0  0  0
   11.6348  -18.4647   28.0855 C   0  0  0  0  0  0  0  0  0  0  0  0
   10.5413  -18.9577   27.6448 O   0  0  0  0  0  0  0  0  0  0  0  0
   12.5878  -19.2890   28.6292 O   0  0  0  0  0  0  0  0  0  0  0  0
  2  1  1  0
  3  2  2  0
  4  2  1  0
  5  4  1  0
  6  5  1  0
  6  7  1  1
  8  9  2  0
  8  6  1  0
 10  8  1  0
 11 10  1  0
 11 12  1  1
 13 12  1  0
 14 13  2  0
 15 16  1  0
 15 14  1  0
 16 21  2  0
 17 16  1  0
 17 18  2  0
 18 19  1  0
 19 20  2  0
 21 13  1  0
 21 20  1  0
 22 11  1  0
 23 22  2  0
 24 22  1  0
 25 28  1  0
 25 24  1  0
 25 26  1  1
 27 26  1  0
 28 30  1  0
 29 28  2  0
M  END
$$$$
