QWC.pdb
     RDKit          3D

 30 31  0  0  1  0  0  0  0  0999 V2000
    7.6170  -15.3471   16.7346 N   0  0  0  0  0  0  0  0  0  0  0  0
    9.0072  -15.5623   16.4101 C   0  0  0  0  0  0  0  0  0  0  0  0
    9.2476  -15.9756   15.2562 O   0  0  0  0  0  0  0  0  0  0  0  0
   10.0584  -15.3066   17.3953 C   0  0  0  0  0  0  0  0  0  0  0  0
    9.6197  -15.1558   18.7966 C   0  0  0  0  0  0  0  0  0  0  0  0
   10.3539  -15.8824   19.8546 C   0  0  2  0  0  0  0  0  0  0  0  0
   10.1831  -17.3409   19.7293 N   0  0  0  0  0  0  0  0  0  0  0  0
   10.2649  -15.3991   21.2341 C   0  0  0  0  0  0  0  0  0  0  0  0
   10.5615  -14.1755   21.4984 O   0  0  0  0  0  0  0  0  0  0  0  0
    9.8695  -16.1943   22.3294 N   0  0  0  0  0  0  0  0  0  0  0  0
    9.3840  -15.5631   23.5757 C   0  0  1  0  0  0  0  0  0  0  0  0
    7.8973  -15.4987   23.5456 C   0  0  0  0  0  0  0  0  0  0  0  0
    7.2301  -15.0010   24.7515 C   0  0  0  0  0  0  0  0  0  0  0  0
    6.5571  -15.7009   25.7431 C   0  0  0  0  0  0  0  0  0  0  0  0
    6.0682  -14.8405   26.6540 N   0  0  0  0  0  0  0  0  0  0  0  0
    6.3879  -13.5827   26.3119 C   0  0  0  0  0  0  0  0  0  0  0  0
    6.1208  -12.3714   26.9126 C   0  0  0  0  0  0  0  0  0  0  0  0
    6.6072  -11.2361   26.2837 C   0  0  0  0  0  0  0  0  0  0  0  0
    7.3274  -11.2838   25.1115 C   0  0  0  0  0  0  0  0  0  0  0  0
    7.5656  -12.5061   24.5559 C   0  0  0  0  0  0  0  0  0  0  0  0
    7.1062  -13.6621   25.1384 C   0  0  0  0  0  0  0  0  0  0  0  0
    9.9665  -16.2652   24.7284 C   0  0  0  0  0  0  0  0  0  0  0  0
   10.2040  -17.5190   24.6841 O   0  0  0  0  0  0  0  0  0  0  0  0
   10.3072  -15.6381   25.9298 N   0  0  0  0  0  0  0  0  0  0  0  0
   11.1283  -16.2841   26.9385 C   0  0  1  0  0  0  0  0  0  0  0  0
   11.4912  -15.3235   28.0595 C   0  0  0  0  0  0  0  0  0  0  0  0
    9.9461  -14.4567   28.4872 S   0  0  0  0  0  0  0  0  0  0  0  0
   10.4045  -17.3944   27.5439 C   0  0  0  0  0  0  0  0  0  0  0  0
    9.1684  -17.5489   27.2597 O   0  0  0  0  0  0  0  0  0  0  0  0
   11.0241  -18.2668   28.4031 O   0  0  0  0  0  0  0  0  0  0  0  0
  2  1  1  0
  3  2  2  0
  4  2  1  0
  5  4  1  0
  6  5  1  0
  6  7  1  1
  8  9  2  0
  8  6  1  0
 10  8  1  0
 11 10  1  0
 11 12  1  1
 13 12  1  0
 14 13  2  0
 15 16  1  0
 15 14  1  0
 16 21  2  0
 17 16  1  0
 17 18  2  0
 18 19  1  0
 19 20  2  0
 21 13  1  0
 21 20  1  0
 22 11  1  0
 23 22  2  0
 24 22  1  0
 25 28  1  0
 25 24  1  0
 25 26  1  1
 27 26  1  0
 28 30  1  0
 29 28  2  0
M  END
$$$$
