QWC.pdb
     RDKit          3D

 30 31  0  0  1  0  0  0  0  0999 V2000
    9.4852  -12.9384   16.5584 N   0  0  0  0  0  0  0  0  0  0  0  0
    8.9328  -14.2714   16.5144 C   0  0  0  0  0  0  0  0  0  0  0  0
    8.2068  -14.5365   15.5331 O   0  0  0  0  0  0  0  0  0  0  0  0
    9.2187  -15.2401   17.5732 C   0  0  0  0  0  0  0  0  0  0  0  0
   10.0507  -14.7589   18.6934 C   0  0  0  0  0  0  0  0  0  0  0  0
   10.2990  -15.6641   19.8360 C   0  0  2  0  0  0  0  0  0  0  0  0
    9.8782  -17.0442   19.5358 N   0  0  0  0  0  0  0  0  0  0  0  0
    9.9300  -15.2193   21.1815 C   0  0  0  0  0  0  0  0  0  0  0  0
   10.3108  -14.0618   21.5942 O   0  0  0  0  0  0  0  0  0  0  0  0
    9.1684  -15.9842   22.0889 N   0  0  0  0  0  0  0  0  0  0  0  0
    8.8501  -15.4532   23.4321 C   0  0  1  0  0  0  0  0  0  0  0  0
    7.3994  -15.6452   23.7039 C   0  0  0  0  0  0  0  0  0  0  0  0
    6.8671  -15.0372   24.9262 C   0  0  0  0  0  0  0  0  0  0  0  0
    6.2911  -15.6397   26.0359 C   0  0  0  0  0  0  0  0  0  0  0  0
    5.9104  -14.6980   26.9174 N   0  0  0  0  0  0  0  0  0  0  0  0
    6.2094  -13.4793   26.4414 C   0  0  0  0  0  0  0  0  0  0  0  0
    6.0218  -12.2177   26.9639 C   0  0  0  0  0  0  0  0  0  0  0  0
    6.4552  -11.1479   26.1967 C   0  0  0  0  0  0  0  0  0  0  0  0
    7.0497  -11.3060   24.9651 C   0  0  0  0  0  0  0  0  0  0  0  0
    7.2131  -12.5742   24.4913 C   0  0  0  0  0  0  0  0  0  0  0  0
    6.8013  -13.6690   25.2115 C   0  0  0  0  0  0  0  0  0  0  0  0
    9.7654  -16.0514   24.4146 C   0  0  0  0  0  0  0  0  0  0  0  0
   10.3008  -17.1916   24.2063 O   0  0  0  0  0  0  0  0  0  0  0  0
   10.1229  -15.4380   25.6182 N   0  0  0  0  0  0  0  0  0  0  0  0
   11.1130  -16.0060   26.5161 C   0  0  1  0  0  0  0  0  0  0  0  0
   11.3314  -15.1228   27.7340 C   0  0  0  0  0  0  0  0  0  0  0  0
    9.6664  -14.6705   28.3215 S   0  0  0  0  0  0  0  0  0  0  0  0
   10.6668  -17.3046   27.0038 C   0  0  0  0  0  0  0  0  0  0  0  0
    9.4514  -17.6482   26.8103 O   0  0  0  0  0  0  0  0  0  0  0  0
   11.5231  -18.1542   27.6583 O   0  0  0  0  0  0  0  0  0  0  0  0
  2  1  1  0
  3  2  2  0
  4  2  1  0
  5  4  1  0
  6  5  1  0
  6  7  1  6
  8  9  2  0
  8  6  1  0
 10  8  1  0
 11 10  1  0
 11 12  1  1
 13 12  1  0
 14 13  2  0
 15 16  1  0
 15 14  1  0
 16 21  2  0
 17 16  1  0
 17 18  2  0
 18 19  1  0
 19 20  2  0
 21 13  1  0
 21 20  1  0
 22 11  1  0
 23 22  2  0
 24 22  1  0
 25 28  1  0
 25 24  1  0
 25 26  1  1
 27 26  1  0
 28 30  1  0
 29 28  2  0
M  END
$$$$
