FMA.pdb
     RDKit          3D

 25 25  0  0  1  0  0  0  0  0999 V2000
    8.6571  -19.7430   27.0816 N   0  0  0  0  0  0  0  0  0  0  0  0
    8.6959  -18.2996   27.1676 C   0  0  1  0  0  0  0  0  0  0  0  0
   10.0828  -17.8934   27.6390 C   0  0  0  0  0  0  0  0  0  0  0  0
   10.0576  -16.5484   28.2670 C   0  0  0  0  0  0  0  0  0  0  0  0
    9.9865  -16.3868   29.6358 C   0  0  0  0  0  0  0  0  0  0  0  0
    9.9637  -15.1320   30.2098 C   0  0  0  0  0  0  0  0  0  0  0  0
   10.0155  -14.0467   29.3471 C   0  0  0  0  0  0  0  0  0  0  0  0
   10.0865  -14.1792   27.9823 C   0  0  0  0  0  0  0  0  0  0  0  0
   10.1071  -15.4434   27.4507 C   0  0  0  0  0  0  0  0  0  0  0  0
    8.4398  -17.7375   25.8386 C   0  0  0  0  0  0  0  0  0  0  0  0
    8.6991  -18.3504   24.7580 O   0  0  0  0  0  0  0  0  0  0  0  0
    6.1858  -12.5066   26.7382 C   0  0  0  0  0  0  0  0  0  0  0  0
    7.1603  -11.9341   25.3279 S   0  0  0  0  0  0  0  0  0  0  0  0
    7.8168  -13.3402   24.3606 C   0  0  0  0  0  0  0  0  0  0  0  0
    6.8870  -14.4941   24.5731 C   0  0  0  0  0  0  0  0  0  0  0  0
    7.5781  -15.8319   24.4188 C   0  0  2  0  0  0  0  0  0  0  0  0
    7.8696  -16.4355   25.6784 N   0  0  0  0  0  0  0  0  0  0  0  0
    8.7586  -15.6925   23.5474 C   0  0  0  0  0  0  0  0  0  0  0  0
    8.6917  -15.2234   22.3850 O   0  0  0  0  0  0  0  0  0  0  0  0
   12.4251  -15.5605   23.8737 C   0  0  0  0  0  0  0  0  0  0  0  0
   11.1927  -15.9931   23.1301 C   0  0  2  0  0  0  0  0  0  0  0  0
   10.0355  -16.0980   24.0175 N   0  0  0  0  0  0  0  0  0  0  0  0
   11.4064  -17.3177   22.4803 C   0  0  0  0  0  0  0  0  0  0  0  0
   12.1149  -17.4601   21.3011 O   0  0  0  0  0  0  0  0  0  0  0  0
   10.9409  -18.3644   22.9934 O   0  0  0  0  0  0  0  0  0  0  0  0
  2  1  1  6
  3  4  1  0
  3  2  1  0
  4  9  2  0
  5  6  2  0
  5  4  1  0
  6  7  1  0
  7  8  2  0
  9  8  1  0
 10  2  1  0
 10 17  1  0
 11 10  2  0
 12 13  1  0
 13 14  1  0
 15 14  1  0
 16 17  1  0
 16 15  1  1
 18 19  2  0
 18 16  1  0
 21 20  1  1
 21 23  1  0
 21 22  1  0
 22 18  1  0
 23 24  1  0
 25 23  2  0
M  END
$$$$
