FMA.pdb
     RDKit          3D

 25 25  0  0  1  0  0  0  0  0999 V2000
    7.5867  -15.5416   21.2767 N   0  0  0  0  0  0  0  0  0  0  0  0
    9.0295  -15.5162   21.3777 C   0  0  1  0  0  0  0  0  0  0  0  0
    9.5288  -14.2670   20.6699 C   0  0  0  0  0  0  0  0  0  0  0  0
    8.5804  -13.8421   19.6097 C   0  0  0  0  0  0  0  0  0  0  0  0
    7.7023  -12.7941   19.7979 C   0  0  0  0  0  0  0  0  0  0  0  0
    6.8245  -12.4068   18.8060 C   0  0  0  0  0  0  0  0  0  0  0  0
    6.8682  -13.1195   17.6164 C   0  0  0  0  0  0  0  0  0  0  0  0
    7.7315  -14.1658   17.4030 C   0  0  0  0  0  0  0  0  0  0  0  0
    8.5883  -14.5200   18.4139 C   0  0  0  0  0  0  0  0  0  0  0  0
    9.4058  -15.4677   22.7932 C   0  0  0  0  0  0  0  0  0  0  0  0
   10.6072  -15.3925   23.1955 O   0  0  0  0  0  0  0  0  0  0  0  0
    7.3331  -11.8230   28.0556 C   0  0  0  0  0  0  0  0  0  0  0  0
    6.3365  -12.5407   26.7296 S   0  0  0  0  0  0  0  0  0  0  0  0
    7.3857  -13.3932   25.4983 C   0  0  0  0  0  0  0  0  0  0  0  0
    7.6584  -14.7670   26.0268 C   0  0  0  0  0  0  0  0  0  0  0  0
    8.7123  -15.4988   25.2238 C   0  0  2  0  0  0  0  0  0  0  0  0
    8.4185  -15.5032   23.8275 N   0  0  0  0  0  0  0  0  0  0  0  0
    8.9277  -16.8456   25.7826 C   0  0  0  0  0  0  0  0  0  0  0  0
    8.0007  -17.6820   25.9125 O   0  0  0  0  0  0  0  0  0  0  0  0
   11.7343  -19.1738   26.2456 C   0  0  0  0  0  0  0  0  0  0  0  0
   10.4352  -18.5874   26.7224 C   0  0  2  0  0  0  0  0  0  0  0  0
   10.2272  -17.2382   26.1987 N   0  0  0  0  0  0  0  0  0  0  0  0
   10.4006  -18.5225   28.2113 C   0  0  0  0  0  0  0  0  0  0  0  0
   10.5558  -19.6432   29.0067 O   0  0  0  0  0  0  0  0  0  0  0  0
   10.2262  -17.4277   28.7999 O   0  0  0  0  0  0  0  0  0  0  0  0
  2  1  1  1
  3  4  1  0
  3  2  1  0
  4  9  2  0
  5  6  2  0
  5  4  1  0
  6  7  1  0
  7  8  2  0
  9  8  1  0
 10  2  1  0
 10 17  1  0
 11 10  2  0
 12 13  1  0
 13 14  1  0
 15 14  1  0
 16 17  1  0
 16 15  1  1
 18 19  2  0
 18 16  1  0
 21 20  1  1
 21 23  1  0
 21 22  1  0
 22 18  1  0
 23 24  1  0
 25 23  2  0
M  END
$$$$
