FMA.pdb
     RDKit          3D

 25 25  0  0  1  0  0  0  0  0999 V2000
    5.8404  -18.1928   25.0397 N   0  0  0  0  0  0  0  0  0  0  0  0
    6.1935  -16.7904   25.0077 C   0  0  1  0  0  0  0  0  0  0  0  0
    6.7098  -16.4036   26.3841 C   0  0  0  0  0  0  0  0  0  0  0  0
    6.8831  -14.9331   26.4925 C   0  0  0  0  0  0  0  0  0  0  0  0
    5.8028  -14.0748   26.5276 C   0  0  0  0  0  0  0  0  0  0  0  0
    5.9746  -12.7093   26.6286 C   0  0  0  0  0  0  0  0  0  0  0  0
    7.2802  -12.2444   26.6926 C   0  0  0  0  0  0  0  0  0  0  0  0
    8.3723  -13.0759   26.6596 C   0  0  0  0  0  0  0  0  0  0  0  0
    8.1596  -14.4272   26.5587 C   0  0  0  0  0  0  0  0  0  0  0  0
    7.2465  -16.5884   24.0086 C   0  0  0  0  0  0  0  0  0  0  0  0
    8.1607  -17.4370   23.7744 O   0  0  0  0  0  0  0  0  0  0  0  0
    6.3931  -12.3910   19.3866 C   0  0  0  0  0  0  0  0  0  0  0  0
    7.8075  -13.4305   18.9559 S   0  0  0  0  0  0  0  0  0  0  0  0
    8.9645  -13.5925   20.3626 C   0  0  0  0  0  0  0  0  0  0  0  0
    8.1362  -13.7749   21.5962 C   0  0  0  0  0  0  0  0  0  0  0  0
    8.2307  -15.1780   22.1561 C   0  0  2  0  0  0  0  0  0  0  0  0
    7.3066  -15.3958   23.2213 N   0  0  0  0  0  0  0  0  0  0  0  0
    9.6263  -15.4841   22.5178 C   0  0  0  0  0  0  0  0  0  0  0  0
   10.5460  -15.5614   21.6669 O   0  0  0  0  0  0  0  0  0  0  0  0
   11.5847  -15.8197   25.7224 C   0  0  0  0  0  0  0  0  0  0  0  0
   11.3741  -15.9078   24.2368 C   0  0  2  0  0  0  0  0  0  0  0  0
    9.9715  -15.7048   23.8773 N   0  0  0  0  0  0  0  0  0  0  0  0
   11.8019  -17.2396   23.7215 C   0  0  0  0  0  0  0  0  0  0  0  0
   10.9362  -18.0932   23.0623 O   0  0  0  0  0  0  0  0  0  0  0  0
   12.9837  -17.6346   23.8728 O   0  0  0  0  0  0  0  0  0  0  0  0
  2  1  1  1
  3  4  1  0
  3  2  1  0
  4  9  2  0
  5  6  2  0
  5  4  1  0
  6  7  1  0
  7  8  2  0
  9  8  1  0
 10  2  1  0
 10 17  1  0
 11 10  2  0
 12 13  1  0
 13 14  1  0
 15 14  1  0
 16 17  1  0
 16 15  1  1
 18 19  2  0
 18 16  1  0
 21 20  1  1
 21 23  1  0
 21 22  1  0
 22 18  1  0
 23 24  1  0
 25 23  2  0
M  END
$$$$
