FMA.pdb
     RDKit          3D

 25 25  0  0  1  0  0  0  0  0999 V2000
    7.1420  -17.8912   21.2588 N   0  0  0  0  0  0  0  0  0  0  0  0
    7.7482  -16.6466   20.8391 C   0  0  1  0  0  0  0  0  0  0  0  0
    6.6457  -15.7379   20.3198 C   0  0  0  0  0  0  0  0  0  0  0  0
    7.1918  -14.4178   19.9157 C   0  0  0  0  0  0  0  0  0  0  0  0
    7.8510  -14.2406   18.7162 C   0  0  0  0  0  0  0  0  0  0  0  0
    8.3549  -13.0093   18.3496 C   0  0  0  0  0  0  0  0  0  0  0  0
    8.1670  -11.9638   19.2421 C   0  0  0  0  0  0  0  0  0  0  0  0
    7.5152  -12.1126   20.4414 C   0  0  0  0  0  0  0  0  0  0  0  0
    7.0289  -13.3525   20.7691 C   0  0  0  0  0  0  0  0  0  0  0  0
    8.4016  -16.0234   21.9934 C   0  0  0  0  0  0  0  0  0  0  0  0
    9.5449  -15.4751   21.9383 O   0  0  0  0  0  0  0  0  0  0  0  0
    7.5855  -11.1107   27.0855 C   0  0  0  0  0  0  0  0  0  0  0  0
    6.8707  -12.7697   27.1436 S   0  0  0  0  0  0  0  0  0  0  0  0
    8.0301  -14.0154   26.4746 C   0  0  0  0  0  0  0  0  0  0  0  0
    7.4323  -14.5375   25.2053 C   0  0  0  0  0  0  0  0  0  0  0  0
    8.3727  -15.4577   24.4569 C   0  0  2  0  0  0  0  0  0  0  0  0
    7.7745  -15.9961   23.2786 N   0  0  0  0  0  0  0  0  0  0  0  0
    8.9034  -16.4870   25.3686 C   0  0  0  0  0  0  0  0  0  0  0  0
    8.1622  -17.2556   26.0286 O   0  0  0  0  0  0  0  0  0  0  0  0
   12.2593  -18.0683   25.9202 C   0  0  0  0  0  0  0  0  0  0  0  0
   10.8271  -17.7799   26.2727 C   0  0  2  0  0  0  0  0  0  0  0  0
   10.3067  -16.6361   25.5253 N   0  0  0  0  0  0  0  0  0  0  0  0
   10.6903  -17.4897   27.7285 C   0  0  0  0  0  0  0  0  0  0  0  0
   11.0146  -18.4155   28.7034 O   0  0  0  0  0  0  0  0  0  0  0  0
   10.2684  -16.3748   28.1216 O   0  0  0  0  0  0  0  0  0  0  0  0
  2  1  1  1
  3  4  1  0
  3  2  1  0
  4  9  2  0
  5  6  2  0
  5  4  1  0
  6  7  1  0
  7  8  2  0
  9  8  1  0
 10  2  1  0
 10 17  1  0
 11 10  2  0
 12 13  1  0
 13 14  1  0
 15 14  1  0
 16 17  1  0
 16 15  1  1
 18 19  2  0
 18 16  1  0
 21 20  1  1
 21 23  1  0
 21 22  1  0
 22 18  1  0
 23 24  1  0
 25 23  2  0
M  END
$$$$
