FMA.pdb
     RDKit          3D

 25 25  0  0  1  0  0  0  0  0999 V2000
    8.1936  -16.4708   22.3664 N   0  0  0  0  0  0  0  0  0  0  0  0
    8.0486  -15.2072   23.0554 C   0  0  1  0  0  0  0  0  0  0  0  0
    6.6815  -15.1878   23.7199 C   0  0  0  0  0  0  0  0  0  0  0  0
    6.5231  -13.9838   24.5740 C   0  0  0  0  0  0  0  0  0  0  0  0
    5.9290  -14.0486   25.8180 C   0  0  0  0  0  0  0  0  0  0  0  0
    5.7866  -12.9235   26.6044 C   0  0  0  0  0  0  0  0  0  0  0  0
    6.2676  -11.7303   26.0851 C   0  0  0  0  0  0  0  0  0  0  0  0
    6.8625  -11.6380   24.8510 C   0  0  0  0  0  0  0  0  0  0  0  0
    6.9853  -12.7791   24.0999 C   0  0  0  0  0  0  0  0  0  0  0  0
    9.0964  -15.0985   24.0741 C   0  0  0  0  0  0  0  0  0  0  0  0
    9.3814  -14.0157   24.6717 O   0  0  0  0  0  0  0  0  0  0  0  0
   10.0428  -13.9704   29.2563 C   0  0  0  0  0  0  0  0  0  0  0  0
   11.5201  -14.2612   28.2566 S   0  0  0  0  0  0  0  0  0  0  0  0
   11.6571  -16.0187   27.7709 C   0  0  0  0  0  0  0  0  0  0  0  0
   10.5439  -16.2987   26.8099 C   0  0  0  0  0  0  0  0  0  0  0  0
   10.9809  -16.1804   25.3655 C   0  0  2  0  0  0  0  0  0  0  0  0
    9.8769  -16.2322   24.4631 N   0  0  0  0  0  0  0  0  0  0  0  0
   12.0267  -17.1766   25.0716 C   0  0  0  0  0  0  0  0  0  0  0  0
   11.7637  -18.3619   24.7530 O   0  0  0  0  0  0  0  0  0  0  0  0
   13.7713  -16.2893   22.7755 C   0  0  0  0  0  0  0  0  0  0  0  0
   14.2613  -17.0305   23.9877 C   0  0  2  0  0  0  0  0  0  0  0  0
   13.3955  -16.8062   25.1444 N   0  0  0  0  0  0  0  0  0  0  0  0
   15.6428  -16.6003   24.3463 C   0  0  0  0  0  0  0  0  0  0  0  0
   16.6931  -17.4933   24.4563 O   0  0  0  0  0  0  0  0  0  0  0  0
   15.9002  -15.3911   24.5635 O   0  0  0  0  0  0  0  0  0  0  0  0
  2  1  1  1
  3  4  1  0
  3  2  1  0
  4  9  2  0
  5  6  2  0
  5  4  1  0
  6  7  1  0
  7  8  2  0
  9  8  1  0
 10  2  1  0
 10 17  1  0
 11 10  2  0
 12 13  1  0
 13 14  1  0
 15 14  1  0
 16 17  1  0
 16 15  1  1
 18 19  2  0
 18 16  1  0
 21 20  1  6
 21 23  1  0
 21 22  1  0
 22 18  1  0
 23 24  1  0
 25 23  2  0
M  END
$$$$
