FMA.pdb
     RDKit          3D

 25 25  0  0  1  0  0  0  0  0999 V2000
    5.8112  -18.0653   25.2257 N   0  0  0  0  0  0  0  0  0  0  0  0
    6.4173  -16.7720   24.9971 C   0  0  1  0  0  0  0  0  0  0  0  0
    7.1311  -16.3547   26.2726 C   0  0  0  0  0  0  0  0  0  0  0  0
    7.2146  -14.8760   26.3753 C   0  0  0  0  0  0  0  0  0  0  0  0
    8.4219  -14.2254   26.5299 C   0  0  0  0  0  0  0  0  0  0  0  0
    8.4888  -12.8503   26.6244 C   0  0  0  0  0  0  0  0  0  0  0  0
    7.2884  -12.1578   26.5566 C   0  0  0  0  0  0  0  0  0  0  0  0
    6.0741  -12.7800   26.4031 C   0  0  0  0  0  0  0  0  0  0  0  0
    6.0499  -14.1484   26.3131 C   0  0  0  0  0  0  0  0  0  0  0  0
    7.3850  -16.8876   23.9026 C   0  0  0  0  0  0  0  0  0  0  0  0
    8.0982  -17.9187   23.7054 O   0  0  0  0  0  0  0  0  0  0  0  0
    8.5612  -11.8159   19.7522 C   0  0  0  0  0  0  0  0  0  0  0  0
    6.9654  -12.6541   19.8838 S   0  0  0  0  0  0  0  0  0  0  0  0
    7.0278  -14.0110   21.1079 C   0  0  0  0  0  0  0  0  0  0  0  0
    8.3570  -14.6824   20.9548 C   0  0  0  0  0  0  0  0  0  0  0  0
    8.5284  -15.8521   21.9001 C   0  0  2  0  0  0  0  0  0  0  0  0
    7.5868  -15.8206   22.9717 N   0  0  0  0  0  0  0  0  0  0  0  0
    9.9290  -15.9352   22.3514 C   0  0  0  0  0  0  0  0  0  0  0  0
   10.8936  -16.0331   21.5542 O   0  0  0  0  0  0  0  0  0  0  0  0
   11.8489  -15.1607   25.4229 C   0  0  0  0  0  0  0  0  0  0  0  0
   11.6212  -15.9668   24.1749 C   0  0  2  0  0  0  0  0  0  0  0  0
   10.2268  -15.9054   23.7395 N   0  0  0  0  0  0  0  0  0  0  0  0
   11.9799  -17.3964   24.3975 C   0  0  0  0  0  0  0  0  0  0  0  0
   11.0760  -18.4262   24.2102 O   0  0  0  0  0  0  0  0  0  0  0  0
   13.1357  -17.7156   24.7690 O   0  0  0  0  0  0  0  0  0  0  0  0
  2  1  1  1
  3  4  1  0
  3  2  1  0
  4  9  2  0
  5  6  2  0
  5  4  1  0
  6  7  1  0
  7  8  2  0
  9  8  1  0
 10  2  1  0
 10 17  1  0
 11 10  2  0
 12 13  1  0
 13 14  1  0
 15 14  1  0
 16 17  1  0
 16 15  1  1
 18 19  2  0
 18 16  1  0
 21 20  1  1
 21 23  1  0
 21 22  1  0
 22 18  1  0
 23 24  1  0
 25 23  2  0
M  END
$$$$
