FMA.pdb
     RDKit          3D

 25 25  0  0  1  0  0  0  0  0999 V2000
    6.5123  -19.4490   22.3314 N   0  0  0  0  0  0  0  0  0  0  0  0
    6.0000  -18.7268   23.4752 C   0  0  1  0  0  0  0  0  0  0  0  0
    5.7561  -19.7277   24.5930 C   0  0  0  0  0  0  0  0  0  0  0  0
    6.9337  -20.6122   24.7804 C   0  0  0  0  0  0  0  0  0  0  0  0
    7.2427  -21.6111   23.8796 C   0  0  0  0  0  0  0  0  0  0  0  0
    8.3397  -22.4280   24.0628 C   0  0  0  0  0  0  0  0  0  0  0  0
    9.1125  -22.1967   25.1916 C   0  0  0  0  0  0  0  0  0  0  0  0
    8.8277  -21.2102   26.1033 C   0  0  0  0  0  0  0  0  0  0  0  0
    7.7284  -20.4193   25.8853 C   0  0  0  0  0  0  0  0  0  0  0  0
    6.9981  -17.7417   23.9011 C   0  0  0  0  0  0  0  0  0  0  0  0
    8.1916  -17.7240   23.4700 O   0  0  0  0  0  0  0  0  0  0  0  0
    6.4453  -11.0668   25.9449 C   0  0  0  0  0  0  0  0  0  0  0  0
    6.9156  -12.2143   27.2596 S   0  0  0  0  0  0  0  0  0  0  0  0
    7.8935  -13.6123   26.6017 C   0  0  0  0  0  0  0  0  0  0  0  0
    6.9223  -14.6078   26.0476 C   0  0  0  0  0  0  0  0  0  0  0  0
    7.6092  -15.7597   25.3459 C   0  0  2  0  0  0  0  0  0  0  0  0
    6.6778  -16.7197   24.8490 N   0  0  0  0  0  0  0  0  0  0  0  0
    8.6407  -16.3419   26.2230 C   0  0  0  0  0  0  0  0  0  0  0  0
    8.3649  -17.1088   27.1778 O   0  0  0  0  0  0  0  0  0  0  0  0
   12.3569  -16.7523   26.0560 C   0  0  0  0  0  0  0  0  0  0  0  0
   11.0342  -16.7443   26.7696 C   0  0  2  0  0  0  0  0  0  0  0  0
   10.0100  -16.0391   26.0007 N   0  0  0  0  0  0  0  0  0  0  0  0
   11.1571  -16.0854   28.1011 C   0  0  0  0  0  0  0  0  0  0  0  0
   10.4325  -14.9573   28.4405 O   0  0  0  0  0  0  0  0  0  0  0  0
   11.9369  -16.5429   28.9718 O   0  0  0  0  0  0  0  0  0  0  0  0
  2  1  1  6
  3  4  1  0
  3  2  1  0
  4  9  2  0
  5  6  2  0
  5  4  1  0
  6  7  1  0
  7  8  2  0
  9  8  1  0
 10  2  1  0
 10 17  1  0
 11 10  2  0
 12 13  1  0
 13 14  1  0
 15 14  1  0
 16 17  1  0
 16 15  1  1
 18 19  2  0
 18 16  1  0
 21 20  1  6
 21 23  1  0
 21 22  1  0
 22 18  1  0
 23 24  1  0
 25 23  2  0
M  END
$$$$
