KHC.pdb
     RDKit          3D

 26 26  0  0  1  0  0  0  0  0999 V2000
   21.6913  -17.0717  -17.7942 N   0  0  0  0  0  0  0  0  0  0  0  0
   21.2920  -15.7192  -18.0382 C   0  0  1  0  0  0  0  0  0  0  0  0
   19.8762  -15.4792  -17.5851 C   0  0  0  0  0  0  0  0  0  0  0  0
   19.0106  -16.6598  -17.4364 C   0  0  0  0  0  0  0  0  0  0  0  0
   18.3495  -17.2199  -18.6378 C   0  0  0  0  0  0  0  0  0  0  0  0
   17.4924  -18.4181  -18.4173 C   0  0  0  0  0  0  0  0  0  0  0  0
   16.9329  -18.9371  -19.6259 N   0  0  0  0  0  0  0  0  0  0  0  0
   22.1590  -14.7403  -17.3349 C   0  0  0  0  0  0  0  0  0  0  0  0
   22.4436  -15.0124  -16.1367 O   0  0  0  0  0  0  0  0  0  0  0  0
   22.6949  -13.5461  -17.8591 N   0  0  0  0  0  0  0  0  0  0  0  0
   23.5395  -12.6405  -17.1532 C   0  0  1  0  0  0  0  0  0  0  0  0
   24.6083  -11.9905  -17.9689 C   0  0  0  0  0  0  0  0  0  0  0  0
   25.5166  -11.1439  -17.1572 C   0  0  0  0  0  0  0  0  0  0  0  0
   26.6558  -11.4435  -16.4479 C   0  0  0  0  0  0  0  0  0  0  0  0
   27.1567  -10.3407  -15.8555 N   0  0  0  0  0  0  0  0  0  0  0  0
   26.3298   -9.3397  -16.1924 C   0  0  0  0  0  0  0  0  0  0  0  0
   25.3397   -9.8019  -16.9731 N   0  0  0  0  0  0  0  0  0  0  0  0
   22.7349  -11.5558  -16.5508 C   0  0  0  0  0  0  0  0  0  0  0  0
   21.7688  -11.0980  -17.2056 O   0  0  0  0  0  0  0  0  0  0  0  0
   22.9998  -11.0014  -15.2566 N   0  0  0  0  0  0  0  0  0  0  0  0
   22.1818   -9.9422  -14.6985 C   0  0  1  0  0  0  0  0  0  0  0  0
   22.4716   -9.8246  -13.1859 C   0  0  0  0  0  0  0  0  0  0  0  0
   21.4569   -8.5354  -12.4330 S   0  0  0  0  0  0  0  0  0  0  0  0
   22.3702   -8.6354  -15.3223 C   0  0  0  0  0  0  0  0  0  0  0  0
   23.5145   -8.2944  -15.6898 O   0  0  0  0  0  0  0  0  0  0  0  0
   21.3223   -7.7577  -15.5227 O   0  0  0  0  0  0  0  0  0  0  0  0
  2  1  1  1
  2  3  1  0
  3  4  1  0
  5  4  1  0
  6  5  1  0
  7  6  1  0
  8  2  1  0
  8  9  2  0
 10  8  1  0
 11 10  1  0
 11 12  1  6
 13 14  2  0
 13 12  1  0
 15 14  1  0
 16 17  2  0
 16 15  1  0
 17 13  1  0
 18 11  1  0
 19 18  2  0
 20 18  1  0
 21 22  1  1
 21 20  1  0
 22 23  1  0
 24 21  1  0
 25 24  2  0
 26 24  1  0
M  END
$$$$
