KHC.pdb
     RDKit          3D

 26 26  0  0  1  0  0  0  0  0999 V2000
   23.6551  -13.7367  -18.9060 N   0  0  0  0  0  0  0  0  0  0  0  0
   23.6123  -12.4583  -19.5481 C   0  0  1  0  0  0  0  0  0  0  0  0
   22.2653  -12.2073  -20.1725 C   0  0  0  0  0  0  0  0  0  0  0  0
   21.4653  -13.3870  -20.5378 C   0  0  0  0  0  0  0  0  0  0  0  0
   21.4536  -13.8360  -21.9494 C   0  0  0  0  0  0  0  0  0  0  0  0
   20.5830  -15.0041  -22.2598 C   0  0  0  0  0  0  0  0  0  0  0  0
   21.0132  -16.2089  -21.6225 N   0  0  0  0  0  0  0  0  0  0  0  0
   23.8827  -11.3445  -18.6043 C   0  0  0  0  0  0  0  0  0  0  0  0
   23.1658  -11.3105  -17.5671 O   0  0  0  0  0  0  0  0  0  0  0  0
   24.8485  -10.3266  -18.7419 N   0  0  0  0  0  0  0  0  0  0  0  0
   25.0679   -9.2659  -17.8154 C   0  0  1  0  0  0  0  0  0  0  0  0
   26.4861   -9.0649  -17.3931 C   0  0  0  0  0  0  0  0  0  0  0  0
   27.0370  -10.2280  -16.6552 C   0  0  0  0  0  0  0  0  0  0  0  0
   26.4559  -11.3984  -16.2274 C   0  0  0  0  0  0  0  0  0  0  0  0
   27.3538  -12.1745  -15.5875 N   0  0  0  0  0  0  0  0  0  0  0  0
   28.5075  -11.4908  -15.6113 C   0  0  0  0  0  0  0  0  0  0  0  0
   28.3375  -10.3205  -16.2476 N   0  0  0  0  0  0  0  0  0  0  0  0
   24.6006   -7.9842  -18.3862 C   0  0  0  0  0  0  0  0  0  0  0  0
   24.7177   -7.8055  -19.6216 O   0  0  0  0  0  0  0  0  0  0  0  0
   24.0187   -6.9359  -17.6021 N   0  0  0  0  0  0  0  0  0  0  0  0
   23.5467   -5.7045  -18.2050 C   0  0  1  0  0  0  0  0  0  0  0  0
   22.4915   -6.0418  -19.2815 C   0  0  0  0  0  0  0  0  0  0  0  0
   21.6761   -4.5454  -19.8766 S   0  0  0  0  0  0  0  0  0  0  0  0
   22.9760   -4.7459  -17.2629 C   0  0  0  0  0  0  0  0  0  0  0  0
   22.6786   -5.1264  -16.1107 O   0  0  0  0  0  0  0  0  0  0  0  0
   22.7524   -3.4253  -17.6015 O   0  0  0  0  0  0  0  0  0  0  0  0
  2  1  1  1
  2  3  1  0
  3  4  1  0
  5  4  1  0
  6  5  1  0
  7  6  1  0
  8  2  1  0
  8  9  2  0
 10  8  1  0
 11 10  1  0
 11 12  1  6
 13 14  2  0
 13 12  1  0
 15 14  1  0
 16 17  2  0
 16 15  1  0
 17 13  1  0
 18 11  1  0
 19 18  2  0
 20 18  1  0
 21 22  1  6
 21 20  1  0
 22 23  1  0
 24 21  1  0
 25 24  2  0
 26 24  1  0
M  END
$$$$
