KHC.pdb
     RDKit          3D

 26 26  0  0  1  0  0  0  0  0999 V2000
   21.5278  -32.5141   -9.3465 N   0  0  0  0  0  0  0  0  0  0  0  0
   22.8115  -33.0969   -9.0999 C   0  0  1  0  0  0  0  0  0  0  0  0
   23.8649  -32.4895   -9.9880 C   0  0  0  0  0  0  0  0  0  0  0  0
   24.1591  -33.1845  -11.2512 C   0  0  0  0  0  0  0  0  0  0  0  0
   25.3465  -34.0672  -11.3240 C   0  0  0  0  0  0  0  0  0  0  0  0
   25.5591  -34.7766  -12.6164 C   0  0  0  0  0  0  0  0  0  0  0  0
   26.6230  -35.7297  -12.5642 N   0  0  0  0  0  0  0  0  0  0  0  0
   23.2521  -32.9146   -7.6937 C   0  0  0  0  0  0  0  0  0  0  0  0
   22.5636  -32.1213   -6.9955 O   0  0  0  0  0  0  0  0  0  0  0  0
   24.3510  -33.5288   -7.0588 N   0  0  0  0  0  0  0  0  0  0  0  0
   24.4736  -33.7556   -5.6570 C   0  0  1  0  0  0  0  0  0  0  0  0
   23.3639  -34.5362   -5.0331 C   0  0  0  0  0  0  0  0  0  0  0  0
   22.2293  -33.6817   -4.6051 C   0  0  0  0  0  0  0  0  0  0  0  0
   21.0173  -33.4081   -5.1941 C   0  0  0  0  0  0  0  0  0  0  0  0
   20.2929  -32.5636   -4.4325 N   0  0  0  0  0  0  0  0  0  0  0  0
   21.0512  -32.3026   -3.3573 C   0  0  0  0  0  0  0  0  0  0  0  0
   22.2167  -32.9643   -3.4427 N   0  0  0  0  0  0  0  0  0  0  0  0
   25.7296  -34.4795   -5.3646 C   0  0  0  0  0  0  0  0  0  0  0  0
   25.9765  -35.5262   -6.0090 O   0  0  0  0  0  0  0  0  0  0  0  0
   26.6810  -34.0466   -4.3850 N   0  0  0  0  0  0  0  0  0  0  0  0
   27.8667  -34.8227   -4.0781 C   0  0  1  0  0  0  0  0  0  0  0  0
   29.0335  -34.3332   -4.9641 C   0  0  0  0  0  0  0  0  0  0  0  0
   30.5454  -35.2518   -4.6052 S   0  0  0  0  0  0  0  0  0  0  0  0
   28.2795  -34.7749   -2.6782 C   0  0  0  0  0  0  0  0  0  0  0  0
   27.7892  -33.9051   -1.9273 O   0  0  0  0  0  0  0  0  0  0  0  0
   29.1975  -35.6625   -2.1509 O   0  0  0  0  0  0  0  0  0  0  0  0
  2  1  1  1
  2  3  1  0
  3  4  1  0
  5  4  1  0
  6  5  1  0
  7  6  1  0
  8  2  1  0
  8  9  2  0
 10  8  1  0
 11 10  1  0
 11 12  1  6
 13 14  2  0
 13 12  1  0
 15 14  1  0
 16 17  2  0
 16 15  1  0
 17 13  1  0
 18 11  1  0
 19 18  2  0
 20 18  1  0
 21 22  1  6
 21 20  1  0
 22 23  1  0
 24 21  1  0
 25 24  2  0
 26 24  1  0
M  END
$$$$
