KHC.pdb
     RDKit          3D

 26 26  0  0  1  0  0  0  0  0999 V2000
   22.2871  -15.8920  -18.0951 N   0  0  0  0  0  0  0  0  0  0  0  0
   21.3799  -14.7861  -18.0438 C   0  0  1  0  0  0  0  0  0  0  0  0
   19.9960  -15.2346  -17.6553 C   0  0  0  0  0  0  0  0  0  0  0  0
   19.3338  -16.2076  -18.5384 C   0  0  0  0  0  0  0  0  0  0  0  0
   19.6768  -17.6429  -18.4087 C   0  0  0  0  0  0  0  0  0  0  0  0
   18.9168  -18.5811  -19.2809 C   0  0  0  0  0  0  0  0  0  0  0  0
   19.2914  -19.9479  -19.0943 N   0  0  0  0  0  0  0  0  0  0  0  0
   21.8063  -13.7526  -17.0668 C   0  0  0  0  0  0  0  0  0  0  0  0
   21.3975  -13.9062  -15.8836 O   0  0  0  0  0  0  0  0  0  0  0  0
   22.6138  -12.6244  -17.3180 N   0  0  0  0  0  0  0  0  0  0  0  0
   23.0583  -11.6921  -16.3358 C   0  0  1  0  0  0  0  0  0  0  0  0
   24.5079  -11.3382  -16.3955 C   0  0  0  0  0  0  0  0  0  0  0  0
   25.3934  -12.4820  -16.0665 C   0  0  0  0  0  0  0  0  0  0  0  0
   25.1195  -13.7464  -15.6008 C   0  0  0  0  0  0  0  0  0  0  0  0
   26.2547  -14.4567  -15.4436 N   0  0  0  0  0  0  0  0  0  0  0  0
   27.2504  -13.6369  -15.8119 C   0  0  0  0  0  0  0  0  0  0  0  0
   26.7536  -12.4476  -16.1888 N   0  0  0  0  0  0  0  0  0  0  0  0
   22.2992  -10.4282  -16.4505 C   0  0  0  0  0  0  0  0  0  0  0  0
   22.2881   -9.8396  -17.5574 O   0  0  0  0  0  0  0  0  0  0  0  0
   21.5733   -9.8414  -15.3638 N   0  0  0  0  0  0  0  0  0  0  0  0
   20.8484   -8.5948  -15.5156 C   0  0  1  0  0  0  0  0  0  0  0  0
   19.4601   -8.7346  -14.8530 C   0  0  0  0  0  0  0  0  0  0  0  0
   18.5561  -10.1383  -15.5393 S   0  0  0  0  0  0  0  0  0  0  0  0
   21.5253   -7.4261  -14.9605 C   0  0  0  0  0  0  0  0  0  0  0  0
   21.0184   -6.2953  -15.1192 O   0  0  0  0  0  0  0  0  0  0  0  0
   22.7128   -7.5264  -14.2616 O   0  0  0  0  0  0  0  0  0  0  0  0
  2  1  1  1
  2  3  1  0
  3  4  1  0
  5  4  1  0
  6  5  1  0
  7  6  1  0
  8  2  1  0
  8  9  2  0
 10  8  1  0
 11 10  1  0
 11 12  1  6
 13 14  2  0
 13 12  1  0
 15 14  1  0
 16 17  2  0
 16 15  1  0
 17 13  1  0
 18 11  1  0
 19 18  2  0
 20 18  1  0
 21 22  1  1
 21 20  1  0
 22 23  1  0
 24 21  1  0
 25 24  2  0
 26 24  1  0
M  END
$$$$
