KHC.pdb
     RDKit          3D

 26 26  0  0  1  0  0  0  0  0999 V2000
   21.3218  -17.1687  -17.9635 N   0  0  0  0  0  0  0  0  0  0  0  0
   20.5465  -16.4649  -16.9877 C   0  0  1  0  0  0  0  0  0  0  0  0
   21.0400  -16.7472  -15.5934 C   0  0  0  0  0  0  0  0  0  0  0  0
   20.8767  -18.1200  -15.0894 C   0  0  0  0  0  0  0  0  0  0  0  0
   19.5172  -18.7057  -15.0324 C   0  0  0  0  0  0  0  0  0  0  0  0
   19.4250  -20.1034  -14.5259 C   0  0  0  0  0  0  0  0  0  0  0  0
   18.0798  -20.5299  -14.2992 N   0  0  0  0  0  0  0  0  0  0  0  0
   20.5891  -14.9944  -17.1884 C   0  0  0  0  0  0  0  0  0  0  0  0
   21.6918  -14.5192  -17.5743 O   0  0  0  0  0  0  0  0  0  0  0  0
   19.5358  -14.0773  -16.9948 N   0  0  0  0  0  0  0  0  0  0  0  0
   19.6172  -12.6700  -17.2054 C   0  0  1  0  0  0  0  0  0  0  0  0
   18.3167  -11.9828  -17.4635 C   0  0  0  0  0  0  0  0  0  0  0  0
   18.4626  -10.5146  -17.6177 C   0  0  0  0  0  0  0  0  0  0  0  0
   17.9724   -9.4641  -16.8783 C   0  0  0  0  0  0  0  0  0  0  0  0
   18.3668   -8.2846  -17.3993 N   0  0  0  0  0  0  0  0  0  0  0  0
   19.1098   -8.5919  -18.4730 C   0  0  0  0  0  0  0  0  0  0  0  0
   19.1788   -9.9249  -18.6204 N   0  0  0  0  0  0  0  0  0  0  0  0
   20.2285  -12.0122  -16.0305 C   0  0  0  0  0  0  0  0  0  0  0  0
   19.9356  -12.4411  -14.8894 O   0  0  0  0  0  0  0  0  0  0  0  0
   21.1402  -10.9113  -16.1271 N   0  0  0  0  0  0  0  0  0  0  0  0
   21.6695  -10.2535  -14.9483 C   0  0  1  0  0  0  0  0  0  0  0  0
   23.0431  -10.8687  -14.6009 C   0  0  0  0  0  0  0  0  0  0  0  0
   23.7667  -10.0587  -13.1592 S   0  0  0  0  0  0  0  0  0  0  0  0
   21.8141   -8.8058  -15.0730 C   0  0  0  0  0  0  0  0  0  0  0  0
   22.1110   -8.3160  -16.1833 O   0  0  0  0  0  0  0  0  0  0  0  0
   21.6327   -7.9531  -14.0012 O   0  0  0  0  0  0  0  0  0  0  0  0
  2  1  1  6
  2  3  1  0
  3  4  1  0
  5  4  1  0
  6  5  1  0
  7  6  1  0
  8  2  1  0
  8  9  2  0
 10  8  1  0
 11 10  1  0
 11 12  1  1
 13 14  2  0
 13 12  1  0
 15 14  1  0
 16 17  2  0
 16 15  1  0
 17 13  1  0
 18 11  1  0
 19 18  2  0
 20 18  1  0
 21 22  1  6
 21 20  1  0
 22 23  1  0
 24 21  1  0
 25 24  2  0
 26 24  1  0
M  END
$$$$
