KHC.pdb
     RDKit          3D

 26 26  0  0  1  0  0  0  0  0999 V2000
   27.4990  -20.8781  -15.4931 N   0  0  0  0  0  0  0  0  0  0  0  0
   26.7035  -20.2014  -14.5144 C   0  0  1  0  0  0  0  0  0  0  0  0
   27.4655  -19.0660  -13.8839 C   0  0  0  0  0  0  0  0  0  0  0  0
   28.7042  -19.4064  -13.1664 C   0  0  0  0  0  0  0  0  0  0  0  0
   28.7555  -20.6608  -12.3802 C   0  0  0  0  0  0  0  0  0  0  0  0
   30.0444  -20.9528  -11.6930 C   0  0  0  0  0  0  0  0  0  0  0  0
   29.9865  -22.1154  -10.8635 N   0  0  0  0  0  0  0  0  0  0  0  0
   25.4578  -19.6378  -15.0930 C   0  0  0  0  0  0  0  0  0  0  0  0
   25.5738  -19.0722  -16.2144 O   0  0  0  0  0  0  0  0  0  0  0  0
   24.1667  -19.6660  -14.5270 N   0  0  0  0  0  0  0  0  0  0  0  0
   22.9753  -19.2139  -15.1655 C   0  0  1  0  0  0  0  0  0  0  0  0
   21.7162  -19.8861  -14.7260 C   0  0  0  0  0  0  0  0  0  0  0  0
   20.5144  -19.3710  -15.4267 C   0  0  0  0  0  0  0  0  0  0  0  0
   19.3819  -18.7456  -14.9608 C   0  0  0  0  0  0  0  0  0  0  0  0
   18.5435  -18.4522  -15.9752 N   0  0  0  0  0  0  0  0  0  0  0  0
   19.1495  -18.8945  -17.0871 C   0  0  0  0  0  0  0  0  0  0  0  0
   20.3331  -19.4488  -16.7784 N   0  0  0  0  0  0  0  0  0  0  0  0
   22.7933  -17.7639  -14.9394 C   0  0  0  0  0  0  0  0  0  0  0  0
   22.9414  -17.3202  -13.7762 O   0  0  0  0  0  0  0  0  0  0  0  0
   22.4588  -16.8381  -15.9802 N   0  0  0  0  0  0  0  0  0  0  0  0
   22.2260  -15.4334  -15.7060 C   0  0  1  0  0  0  0  0  0  0  0  0
   23.4827  -14.6270  -16.1012 C   0  0  0  0  0  0  0  0  0  0  0  0
   23.2234  -12.8597  -15.8406 S   0  0  0  0  0  0  0  0  0  0  0  0
   21.0636  -14.8660  -16.3835 C   0  0  0  0  0  0  0  0  0  0  0  0
   20.9178  -15.0589  -17.6092 O   0  0  0  0  0  0  0  0  0  0  0  0
   20.1132  -14.1196  -15.7139 O   0  0  0  0  0  0  0  0  0  0  0  0
  2  1  1  6
  2  3  1  0
  3  4  1  0
  5  4  1  0
  6  5  1  0
  7  6  1  0
  8  2  1  0
  8  9  2  0
 10  8  1  0
 11 10  1  0
 11 12  1  1
 13 14  2  0
 13 12  1  0
 15 14  1  0
 16 17  2  0
 16 15  1  0
 17 13  1  0
 18 11  1  0
 19 18  2  0
 20 18  1  0
 21 22  1  6
 21 20  1  0
 22 23  1  0
 24 21  1  0
 25 24  2  0
 26 24  1  0
M  END
$$$$
