QMT.pdb
     RDKit          3D

 25 24  0  0  1  0  0  0  0  0999 V2000
   16.7285  -13.0478  -18.2293 N   0  0  0  0  0  0  0  0  0  0  0  0
   17.2011  -12.3825  -19.3874 C   0  0  0  0  0  0  0  0  0  0  0  0
   16.9080  -12.8775  -20.4985 O   0  0  0  0  0  0  0  0  0  0  0  0
   17.9977  -11.1651  -19.2071 C   0  0  0  0  0  0  0  0  0  0  0  0
   18.1390  -10.7425  -17.7661 C   0  0  0  0  0  0  0  0  0  0  0  0
   19.5528  -10.1791  -17.6304 C   0  0  2  0  0  0  0  0  0  0  0  0
   20.5187  -11.1893  -18.0019 N   0  0  0  0  0  0  0  0  0  0  0  0
   19.8235   -9.5971  -16.3150 C   0  0  0  0  0  0  0  0  0  0  0  0
   19.6505  -10.2898  -15.2854 O   0  0  0  0  0  0  0  0  0  0  0  0
   21.0047   -9.2499  -10.8524 C   0  0  0  0  0  0  0  0  0  0  0  0
   22.4995   -9.3863  -11.8500 S   0  0  0  0  0  0  0  0  0  0  0  0
   22.5087   -8.0725  -13.1127 C   0  0  0  0  0  0  0  0  0  0  0  0
   21.8048   -8.6257  -14.3214 C   0  0  0  0  0  0  0  0  0  0  0  0
   20.7819   -7.7183  -14.9083 C   0  0  2  0  0  0  0  0  0  0  0  0
   20.2789   -8.2606  -16.1814 N   0  0  0  0  0  0  0  0  0  0  0  0
   21.2141   -6.3150  -15.0957 C   0  0  0  0  0  0  0  0  0  0  0  0
   22.1347   -5.9658  -15.8469 O   0  0  0  0  0  0  0  0  0  0  0  0
   18.5643   -3.2216  -15.3638 C   0  0  0  0  0  0  0  0  0  0  0  0
   19.6669   -3.0021  -14.3340 C   0  0  1  0  0  0  0  0  0  0  0  0
   19.1732   -3.3298  -13.0695 O   0  0  0  0  0  0  0  0  0  0  0  0
   20.8555   -3.8845  -14.6123 C   0  0  2  0  0  0  0  0  0  0  0  0
   20.5469   -5.2747  -14.3787 N   0  0  0  0  0  0  0  0  0  0  0  0
   21.9594   -3.4805  -13.6991 C   0  0  0  0  0  0  0  0  0  0  0  0
   22.4317   -4.2992  -12.8795 O   0  0  0  0  0  0  0  0  0  0  0  0
   22.4651   -2.1857  -13.7608 O   0  0  0  0  0  0  0  0  0  0  0  0
  2  1  1  0
  2  3  2  0
  4  2  1  0
  5  4  1  0
  6  5  1  0
  6  7  1  1
  8  6  1  0
  8  9  2  0
 10 11  1  0
 11 12  1  0
 14 13  1  6
 13 12  1  0
 14 15  1  0
 15  8  1  0
 16 14  1  0
 17 16  2  0
 19 18  1  6
 19 21  1  0
 20 19  1  0
 21 23  1  0
 21 22  1  1
 22 16  1  0
 23 25  1  0
 24 23  2  0
M  END
$$$$
