QMT.pdb
     RDKit          3D

 25 24  0  0  1  0  0  0  0  0999 V2000
   27.0737  -22.2691  -17.9865 N   0  0  0  0  0  0  0  0  0  0  0  0
   28.3257  -21.6168  -17.8676 C   0  0  0  0  0  0  0  0  0  0  0  0
   28.8369  -21.1522  -18.9109 O   0  0  0  0  0  0  0  0  0  0  0  0
   28.9352  -21.5303  -16.5371 C   0  0  0  0  0  0  0  0  0  0  0  0
   28.1103  -22.1742  -15.4509 C   0  0  0  0  0  0  0  0  0  0  0  0
   27.2361  -21.0624  -14.8726 C   0  0  2  0  0  0  0  0  0  0  0  0
   28.0502  -19.9033  -14.5806 N   0  0  0  0  0  0  0  0  0  0  0  0
   26.4329  -21.4904  -13.7262 C   0  0  0  0  0  0  0  0  0  0  0  0
   25.6964  -22.4987  -13.8299 O   0  0  0  0  0  0  0  0  0  0  0  0
   27.8290  -20.4159   -7.7823 C   0  0  0  0  0  0  0  0  0  0  0  0
   26.0615  -20.3307   -7.4405 S   0  0  0  0  0  0  0  0  0  0  0  0
   25.1306  -20.7883   -8.9387 C   0  0  0  0  0  0  0  0  0  0  0  0
   26.0708  -20.6265  -10.1015 C   0  0  0  0  0  0  0  0  0  0  0  0
   25.4980  -21.0204  -11.4172 C   0  0  2  0  0  0  0  0  0  0  0  0
   26.4712  -20.7848  -12.4965 N   0  0  0  0  0  0  0  0  0  0  0  0
   24.2049  -20.3863  -11.7594 C   0  0  0  0  0  0  0  0  0  0  0  0
   23.9541  -19.1851  -11.5923 O   0  0  0  0  0  0  0  0  0  0  0  0
   22.7433  -19.7058  -14.8963 C   0  0  0  0  0  0  0  0  0  0  0  0
   21.7336  -20.6226  -14.2147 C   0  0  1  0  0  0  0  0  0  0  0  0
   21.9465  -21.9312  -14.6533 O   0  0  0  0  0  0  0  0  0  0  0  0
   21.9017  -20.6005  -12.7180 C   0  0  2  0  0  0  0  0  0  0  0  0
   23.1600  -21.1838  -12.3195 N   0  0  0  0  0  0  0  0  0  0  0  0
   20.7956  -21.3924  -12.1135 C   0  0  0  0  0  0  0  0  0  0  0  0
   21.0371  -22.4777  -11.5401 O   0  0  0  0  0  0  0  0  0  0  0  0
   19.4891  -20.9195  -12.1887 O   0  0  0  0  0  0  0  0  0  0  0  0
  2  1  1  0
  2  3  2  0
  4  2  1  0
  5  4  1  0
  6  5  1  0
  6  7  1  1
  8  6  1  0
  8  9  2  0
 10 11  1  0
 11 12  1  0
 14 13  1  1
 13 12  1  0
 14 15  1  0
 15  8  1  0
 16 14  1  0
 17 16  2  0
 19 18  1  6
 19 21  1  0
 20 19  1  0
 21 23  1  0
 21 22  1  6
 22 16  1  0
 23 25  1  0
 24 23  2  0
M  END
$$$$
