QMT.pdb
     RDKit          3D

 25 24  0  0  1  0  0  0  0  0999 V2000
   19.4008  -27.4526   -8.6539 N   0  0  0  0  0  0  0  0  0  0  0  0
   19.1856  -28.1991   -7.4691 C   0  0  0  0  0  0  0  0  0  0  0  0
   19.9642  -29.1503   -7.2357 O   0  0  0  0  0  0  0  0  0  0  0  0
   18.0707  -27.8091   -6.6008 C   0  0  0  0  0  0  0  0  0  0  0  0
   17.2825  -26.6324   -7.1199 C   0  0  0  0  0  0  0  0  0  0  0  0
   17.9343  -25.3903   -6.5139 C   0  0  2  0  0  0  0  0  0  0  0  0
   17.3897  -25.1467   -5.1965 N   0  0  0  0  0  0  0  0  0  0  0  0
   17.8609  -24.2131   -7.3807 C   0  0  0  0  0  0  0  0  0  0  0  0
   16.8005  -23.5475   -7.4302 O   0  0  0  0  0  0  0  0  0  0  0  0
   22.1203  -19.2688   -9.0268 C   0  0  0  0  0  0  0  0  0  0  0  0
   21.8962  -20.3315  -10.4651 S   0  0  0  0  0  0  0  0  0  0  0  0
   20.2141  -21.0319  -10.4464 C   0  0  0  0  0  0  0  0  0  0  0  0
   20.1949  -22.0892   -9.3767 C   0  0  0  0  0  0  0  0  0  0  0  0
   18.8743  -22.7473   -9.1838 C   0  0  2  0  0  0  0  0  0  0  0  0
   18.9690  -23.8092   -8.1684 N   0  0  0  0  0  0  0  0  0  0  0  0
   18.2486  -23.2826  -10.4139 C   0  0  0  0  0  0  0  0  0  0  0  0
   18.5457  -24.3692  -10.9285 O   0  0  0  0  0  0  0  0  0  0  0  0
   14.5024  -21.6325  -11.8563 C   0  0  0  0  0  0  0  0  0  0  0  0
   15.0469  -23.0484  -12.0091 C   0  0  1  0  0  0  0  0  0  0  0  0
   14.4531  -23.6406  -13.1256 O   0  0  0  0  0  0  0  0  0  0  0  0
   16.5375  -23.0381  -12.2255 C   0  0  2  0  0  0  0  0  0  0  0  0
   17.2347  -22.5213  -11.0726 N   0  0  0  0  0  0  0  0  0  0  0  0
   16.8324  -22.1638  -13.3935 C   0  0  0  0  0  0  0  0  0  0  0  0
   17.4494  -21.0869  -13.2355 O   0  0  0  0  0  0  0  0  0  0  0  0
   16.4185  -22.5496  -14.6647 O   0  0  0  0  0  0  0  0  0  0  0  0
  2  1  1  0
  2  3  2  0
  4  2  1  0
  5  4  1  0
  6  5  1  0
  6  7  1  1
  8  6  1  0
  8  9  2  0
 10 11  1  0
 11 12  1  0
 14 13  1  6
 13 12  1  0
 14 15  1  0
 15  8  1  0
 16 14  1  0
 17 16  2  0
 19 18  1  6
 19 21  1  0
 20 19  1  0
 21 23  1  0
 21 22  1  1
 22 16  1  0
 23 25  1  0
 24 23  2  0
M  END
$$$$
