QMT.pdb
     RDKit          3D

 25 24  0  0  1  0  0  0  0  0999 V2000
   25.8955  -37.8961  -11.5127 N   0  0  0  0  0  0  0  0  0  0  0  0
   24.8021  -37.7132  -12.3948 C   0  0  0  0  0  0  0  0  0  0  0  0
   23.6634  -38.0171  -11.9748 O   0  0  0  0  0  0  0  0  0  0  0  0
   25.0769  -37.1830  -13.7336 C   0  0  0  0  0  0  0  0  0  0  0  0
   25.9272  -35.9372  -13.7281 C   0  0  0  0  0  0  0  0  0  0  0  0
   24.9715  -34.7753  -13.9951 C   0  0  2  0  0  0  0  0  0  0  0  0
   25.3242  -34.1293  -15.2401 N   0  0  0  0  0  0  0  0  0  0  0  0
   24.8745  -33.8333  -12.8790 C   0  0  0  0  0  0  0  0  0  0  0  0
   25.6305  -32.8347  -12.8459 O   0  0  0  0  0  0  0  0  0  0  0  0
   20.3237  -29.6304   -8.3538 C   0  0  0  0  0  0  0  0  0  0  0  0
   20.6529  -30.7622   -9.7171 S   0  0  0  0  0  0  0  0  0  0  0  0
   22.3029  -31.5056   -9.5042 C   0  0  0  0  0  0  0  0  0  0  0  0
   22.5167  -32.4316  -10.6700 C   0  0  0  0  0  0  0  0  0  0  0  0
   23.8378  -33.1163  -10.6795 C   0  0  2  0  0  0  0  0  0  0  0  0
   23.9394  -34.0285  -11.8307 N   0  0  0  0  0  0  0  0  0  0  0  0
   24.1852  -33.8379   -9.4346 C   0  0  0  0  0  0  0  0  0  0  0  0
   23.6831  -34.9175   -9.0938 O   0  0  0  0  0  0  0  0  0  0  0  0
   28.0035  -33.6146   -7.9138 C   0  0  0  0  0  0  0  0  0  0  0  0
   26.9092  -33.4590   -6.8636 C   0  0  1  0  0  0  0  0  0  0  0  0
   26.7498  -32.1015   -6.5777 O   0  0  0  0  0  0  0  0  0  0  0  0
   25.5914  -33.9861   -7.3682 C   0  0  2  0  0  0  0  0  0  0  0  0
   25.1577  -33.2794   -8.5492 N   0  0  0  0  0  0  0  0  0  0  0  0
   24.5740  -33.7972   -6.2981 C   0  0  0  0  0  0  0  0  0  0  0  0
   23.5920  -33.0454   -6.4871 O   0  0  0  0  0  0  0  0  0  0  0  0
   24.7196  -34.4616   -5.0843 O   0  0  0  0  0  0  0  0  0  0  0  0
  2  1  1  0
  2  3  2  0
  4  2  1  0
  5  4  1  0
  6  5  1  0
  6  7  1  6
  8  6  1  0
  8  9  2  0
 10 11  1  0
 11 12  1  0
 14 13  1  1
 13 12  1  0
 14 15  1  0
 15  8  1  0
 16 14  1  0
 17 16  2  0
 19 18  1  6
 19 21  1  0
 20 19  1  0
 21 23  1  0
 21 22  1  6
 22 16  1  0
 23 25  1  0
 24 23  2  0
M  END
$$$$
