QMT.pdb
     RDKit          3D

 25 24  0  0  1  0  0  0  0  0999 V2000
   20.2270  -23.7562   -9.3998 N   0  0  0  0  0  0  0  0  0  0  0  0
   18.8155  -23.7105   -9.2881 C   0  0  0  0  0  0  0  0  0  0  0  0
   18.3010  -22.6395   -8.8961 O   0  0  0  0  0  0  0  0  0  0  0  0
   18.0563  -24.9150   -9.6374 C   0  0  0  0  0  0  0  0  0  0  0  0
   17.0856  -25.3496   -8.5679 C   0  0  0  0  0  0  0  0  0  0  0  0
   17.8374  -26.3618   -7.7046 C   0  0  2  0  0  0  0  0  0  0  0  0
   18.0503  -27.5800   -8.4543 N   0  0  0  0  0  0  0  0  0  0  0  0
   17.2059  -26.6019   -6.4062 C   0  0  0  0  0  0  0  0  0  0  0  0
   16.1932  -27.3365   -6.3382 O   0  0  0  0  0  0  0  0  0  0  0  0
   20.2797  -26.4343   -0.9259 C   0  0  0  0  0  0  0  0  0  0  0  0
   19.7119  -28.0268   -1.5500 S   0  0  0  0  0  0  0  0  0  0  0  0
   18.6799  -27.7664   -3.0291 C   0  0  0  0  0  0  0  0  0  0  0  0
   17.9701  -26.4540   -2.8388 C   0  0  0  0  0  0  0  0  0  0  0  0
   17.0178  -26.1045   -3.9275 C   0  0  2  0  0  0  0  0  0  0  0  0
   17.7183  -26.0181   -5.2196 N   0  0  0  0  0  0  0  0  0  0  0  0
   16.2241  -24.8753   -3.7031 C   0  0  0  0  0  0  0  0  0  0  0  0
   16.6587  -23.7275   -3.8692 O   0  0  0  0  0  0  0  0  0  0  0  0
   13.3064  -23.8476   -5.5657 C   0  0  0  0  0  0  0  0  0  0  0  0
   12.8462  -23.9209   -4.1140 C   0  0  1  0  0  0  0  0  0  0  0  0
   12.2168  -25.1495   -3.9031 O   0  0  0  0  0  0  0  0  0  0  0  0
   14.0139  -23.8279   -3.1672 C   0  0  2  0  0  0  0  0  0  0  0  0
   14.8681  -24.9866   -3.2671 N   0  0  0  0  0  0  0  0  0  0  0  0
   13.4825  -23.7447   -1.7792 C   0  0  0  0  0  0  0  0  0  0  0  0
   12.8748  -22.7201   -1.3968 O   0  0  0  0  0  0  0  0  0  0  0  0
   13.6646  -24.8132   -0.9068 O   0  0  0  0  0  0  0  0  0  0  0  0
  2  1  1  0
  2  3  2  0
  4  2  1  0
  5  4  1  0
  6  5  1  0
  6  7  1  6
  8  6  1  0
  8  9  2  0
 10 11  1  0
 11 12  1  0
 14 13  1  1
 13 12  1  0
 14 15  1  0
 15  8  1  0
 16 14  1  0
 17 16  2  0
 19 18  1  6
 19 21  1  0
 20 19  1  0
 21 23  1  0
 21 22  1  1
 22 16  1  0
 23 25  1  0
 24 23  2  0
M  END
$$$$
