QMT.pdb
     RDKit          3D

 25 24  0  0  1  0  0  0  0  0999 V2000
   29.2673  -17.8847  -15.1719 N   0  0  0  0  0  0  0  0  0  0  0  0
   28.1438  -17.9460  -16.0327 C   0  0  0  0  0  0  0  0  0  0  0  0
   27.3822  -16.9536  -16.0607 O   0  0  0  0  0  0  0  0  0  0  0  0
   27.9497  -19.1618  -16.8285 C   0  0  0  0  0  0  0  0  0  0  0  0
   26.8973  -20.0877  -16.2717 C   0  0  0  0  0  0  0  0  0  0  0  0
   27.5786  -20.8725  -15.1515 C   0  0  2  0  0  0  0  0  0  0  0  0
   28.4041  -21.9157  -15.7186 N   0  0  0  0  0  0  0  0  0  0  0  0
   26.6449  -21.3777  -14.1438 C   0  0  0  0  0  0  0  0  0  0  0  0
   25.8877  -22.3346  -14.4278 O   0  0  0  0  0  0  0  0  0  0  0  0
   26.6760  -19.2560   -7.9605 C   0  0  0  0  0  0  0  0  0  0  0  0
   25.8004  -20.8245   -7.8155 S   0  0  0  0  0  0  0  0  0  0  0  0
   25.0155  -21.2313   -9.4089 C   0  0  0  0  0  0  0  0  0  0  0  0
   26.0105  -20.8897  -10.4839 C   0  0  0  0  0  0  0  0  0  0  0  0
   25.5460  -21.1768  -11.8681 C   0  0  2  0  0  0  0  0  0  0  0  0
   26.5794  -20.8041  -12.8483 N   0  0  0  0  0  0  0  0  0  0  0  0
   24.2531  -20.5605  -12.2421 C   0  0  0  0  0  0  0  0  0  0  0  0
   24.0778  -19.3422  -12.3788 O   0  0  0  0  0  0  0  0  0  0  0  0
   22.5077  -20.8985  -15.3231 C   0  0  0  0  0  0  0  0  0  0  0  0
   21.4907  -21.3513  -14.2813 C   0  0  1  0  0  0  0  0  0  0  0  0
   21.4785  -22.7471  -14.2416 O   0  0  0  0  0  0  0  0  0  0  0  0
   21.8571  -20.8501  -12.9090 C   0  0  2  0  0  0  0  0  0  0  0  0
   23.1168  -21.3972  -12.4661 N   0  0  0  0  0  0  0  0  0  0  0  0
   20.7922  -21.2735  -11.9590 C   0  0  0  0  0  0  0  0  0  0  0  0
   21.0556  -22.0690  -11.0300 O   0  0  0  0  0  0  0  0  0  0  0  0
   19.4999  -20.7800  -12.1085 O   0  0  0  0  0  0  0  0  0  0  0  0
  2  1  1  0
  2  3  2  0
  4  2  1  0
  5  4  1  0
  6  5  1  0
  6  7  1  6
  8  6  1  0
  8  9  2  0
 10 11  1  0
 11 12  1  0
 14 13  1  1
 13 12  1  0
 14 15  1  0
 15  8  1  0
 16 14  1  0
 17 16  2  0
 19 18  1  6
 19 21  1  0
 20 19  1  0
 21 23  1  0
 21 22  1  1
 22 16  1  0
 23 25  1  0
 24 23  2  0
M  END
$$$$
