IGK.pdb
     RDKit          3D

 22 21  0  0  1  0  0  0  0  0999 V2000
    7.3166  -12.0117   19.7580 C   0  0  0  0  0  0  0  0  0  0  0  0
    7.4054  -13.4947   19.8519 C   0  0  0  0  0  0  0  0  0  0  0  0
    7.8577  -14.0564   21.1499 C   0  0  2  0  0  0  0  0  0  0  0  0
    9.3246  -13.6073   21.3173 C   0  0  0  0  0  0  0  0  0  0  0  0
    7.7939  -15.5455   21.2809 C   0  0  2  0  0  0  0  0  0  0  0  0
    6.5056  -16.0723   20.8197 N   0  0  0  0  0  0  0  0  0  0  0  0
    8.1291  -16.0793   22.6110 C   0  0  0  0  0  0  0  0  0  0  0  0
    7.2832  -16.0320   23.5376 O   0  0  0  0  0  0  0  0  0  0  0  0
    9.4072  -16.6560   22.8809 N   0  0  0  0  0  0  0  0  0  0  0  0
    9.6400  -17.2261   24.1870 C   0  0  0  0  0  0  0  0  0  0  0  0
   10.0927  -16.1685   25.1402 C   0  0  0  0  0  0  0  0  0  0  0  0
   11.0180  -15.3620   24.8418 O   0  0  0  0  0  0  0  0  0  0  0  0
    9.5056  -16.0198   26.4246 N   0  0  0  0  0  0  0  0  0  0  0  0
    9.9951  -15.0696   27.4199 C   0  0  1  0  0  0  0  0  0  0  0  0
    8.8608  -14.1846   27.7893 C   0  0  0  0  0  0  0  0  0  0  0  0
    8.1636  -13.4839   26.6860 C   0  0  0  0  0  0  0  0  0  0  0  0
    6.9861  -12.6408   27.0640 C   0  0  0  0  0  0  0  0  0  0  0  0
    6.4173  -11.8938   25.8586 C   0  0  0  0  0  0  0  0  0  0  0  0
    5.3201  -11.0831   26.3886 N   0  0  0  0  0  0  0  0  0  0  0  0
   10.7483  -15.7092   28.4821 C   0  0  0  0  0  0  0  0  0  0  0  0
   11.3663  -15.1224   29.3967 O   0  0  0  0  0  0  0  0  0  0  0  0
   10.8237  -17.1175   28.5344 O   0  0  0  0  0  0  0  0  0  0  0  0
  2  1  1  0
  2  3  1  0
  3  4  1  6
  5  3  1  0
  5  7  1  0
  5  6  1  1
  7  9  1  0
  8  7  2  0
  9 10  1  0
 11 13  1  0
 11 10  1  0
 12 11  2  0
 14 13  1  0
 14 15  1  1
 15 16  1  0
 17 16  1  0
 17 18  1  0
 19 18  1  0
 20 14  1  0
 21 20  2  0
 22 20  1  0
M  END
$$$$
