IGK.pdb
     RDKit          3D

 22 21  0  0  1  0  0  0  0  0999 V2000
    8.1005  -11.6711   19.8106 C   0  0  0  0  0  0  0  0  0  0  0  0
    8.3206  -13.1327   19.6334 C   0  0  0  0  0  0  0  0  0  0  0  0
    7.7518  -14.0255   20.6746 C   0  0  2  0  0  0  0  0  0  0  0  0
    8.4868  -13.6703   21.9843 C   0  0  0  0  0  0  0  0  0  0  0  0
    7.8910  -15.4949   20.4297 C   0  0  2  0  0  0  0  0  0  0  0  0
    7.3484  -15.8770   19.1222 N   0  0  0  0  0  0  0  0  0  0  0  0
    7.3594  -16.3669   21.4895 C   0  0  0  0  0  0  0  0  0  0  0  0
    6.1263  -16.3883   21.7248 O   0  0  0  0  0  0  0  0  0  0  0  0
    8.2186  -17.1994   22.2690 N   0  0  0  0  0  0  0  0  0  0  0  0
    7.6245  -18.0415   23.2805 C   0  0  0  0  0  0  0  0  0  0  0  0
    8.0743  -17.6138   24.6395 C   0  0  0  0  0  0  0  0  0  0  0  0
    8.9865  -16.7538   24.7935 O   0  0  0  0  0  0  0  0  0  0  0  0
    7.4988  -18.1527   25.8206 N   0  0  0  0  0  0  0  0  0  0  0  0
    8.1374  -18.0637   27.1310 C   0  0  1  0  0  0  0  0  0  0  0  0
    7.7489  -19.2731   27.9010 C   0  0  0  0  0  0  0  0  0  0  0  0
    6.8144  -20.2185   27.2477 C   0  0  0  0  0  0  0  0  0  0  0  0
    6.5290  -21.4934   27.9782 C   0  0  0  0  0  0  0  0  0  0  0  0
    5.5374  -22.3706   27.2154 C   0  0  0  0  0  0  0  0  0  0  0  0
    5.3645  -23.5666   28.0411 N   0  0  0  0  0  0  0  0  0  0  0  0
    9.5442  -17.7194   27.0465 C   0  0  0  0  0  0  0  0  0  0  0  0
   10.4878  -18.5266   26.9025 O   0  0  0  0  0  0  0  0  0  0  0  0
    9.9381  -16.3667   27.1294 O   0  0  0  0  0  0  0  0  0  0  0  0
  2  1  1  0
  2  3  1  0
  3  4  1  1
  5  3  1  0
  5  7  1  0
  5  6  1  6
  7  9  1  0
  8  7  2  0
  9 10  1  0
 11 13  1  0
 11 10  1  0
 12 11  2  0
 14 13  1  0
 14 15  1  6
 15 16  1  0
 17 16  1  0
 17 18  1  0
 19 18  1  0
 20 14  1  0
 21 20  2  0
 22 20  1  0
M  END
$$$$
