IGK.pdb
     RDKit          3D

 22 21  0  0  1  0  0  0  0  0999 V2000
    5.0728  -11.7906   26.6623 C   0  0  0  0  0  0  0  0  0  0  0  0
    6.3092  -12.4449   27.1715 C   0  0  0  0  0  0  0  0  0  0  0  0
    7.2056  -13.0594   26.1597 C   0  0  2  0  0  0  0  0  0  0  0  0
    7.4776  -11.9598   25.1116 C   0  0  0  0  0  0  0  0  0  0  0  0
    6.6749  -14.2699   25.4585 C   0  0  2  0  0  0  0  0  0  0  0  0
    6.0140  -15.1871   26.3922 N   0  0  0  0  0  0  0  0  0  0  0  0
    7.6444  -14.9909   24.6180 C   0  0  0  0  0  0  0  0  0  0  0  0
    8.6864  -15.4684   25.1307 O   0  0  0  0  0  0  0  0  0  0  0  0
    7.4310  -15.1639   23.2168 N   0  0  0  0  0  0  0  0  0  0  0  0
    8.3945  -14.5989   22.3015 C   0  0  0  0  0  0  0  0  0  0  0  0
    9.7143  -15.2827   22.4522 C   0  0  0  0  0  0  0  0  0  0  0  0
   10.7373  -14.8906   21.8235 O   0  0  0  0  0  0  0  0  0  0  0  0
    9.8813  -16.4037   23.3077 N   0  0  0  0  0  0  0  0  0  0  0  0
   11.1025  -17.2039   23.3443 C   0  0  1  0  0  0  0  0  0  0  0  0
   11.0086  -18.1099   24.5176 C   0  0  0  0  0  0  0  0  0  0  0  0
   11.2620  -17.5168   25.8510 C   0  0  0  0  0  0  0  0  0  0  0  0
   11.0062  -18.3946   27.0361 C   0  0  0  0  0  0  0  0  0  0  0  0
   11.3256  -17.6787   28.3476 C   0  0  0  0  0  0  0  0  0  0  0  0
   10.8997  -18.5981   29.4037 N   0  0  0  0  0  0  0  0  0  0  0  0
   11.4365  -17.7756   22.0534 C   0  0  0  0  0  0  0  0  0  0  0  0
   12.5888  -18.0351   21.6440 O   0  0  0  0  0  0  0  0  0  0  0  0
   10.4068  -18.0845   21.1390 O   0  0  0  0  0  0  0  0  0  0  0  0
  2  1  1  0
  2  3  1  0
  3  4  1  6
  5  3  1  0
  5  7  1  0
  5  6  1  1
  7  9  1  0
  8  7  2  0
  9 10  1  0
 11 13  1  0
 11 10  1  0
 12 11  2  0
 14 13  1  0
 14 15  1  1
 15 16  1  0
 17 16  1  0
 17 18  1  0
 19 18  1  0
 20 14  1  0
 21 20  2  0
 22 20  1  0
M  END
$$$$
