IGK.pdb
     RDKit          3D

 22 21  0  0  1  0  0  0  0  0999 V2000
    7.6990  -11.3954   27.2018 C   0  0  0  0  0  0  0  0  0  0  0  0
    6.9766  -12.6944   27.2862 C   0  0  0  0  0  0  0  0  0  0  0  0
    7.1402  -13.6259   26.1415 C   0  0  2  0  0  0  0  0  0  0  0  0
    6.6105  -12.8721   24.9034 C   0  0  0  0  0  0  0  0  0  0  0  0
    6.4230  -14.9345   26.2498 C   0  0  2  0  0  0  0  0  0  0  0  0
    6.8118  -15.6635   27.4611 N   0  0  0  0  0  0  0  0  0  0  0  0
    6.5117  -15.8052   25.0665 C   0  0  0  0  0  0  0  0  0  0  0  0
    6.0840  -15.4018   23.9571 O   0  0  0  0  0  0  0  0  0  0  0  0
    7.0769  -17.1141   25.1462 N   0  0  0  0  0  0  0  0  0  0  0  0
    7.0579  -17.9423   23.9635 C   0  0  0  0  0  0  0  0  0  0  0  0
    8.2478  -17.6508   23.1083 C   0  0  0  0  0  0  0  0  0  0  0  0
    8.5528  -18.3861   22.1275 O   0  0  0  0  0  0  0  0  0  0  0  0
    9.0909  -16.5355   23.3567 N   0  0  0  0  0  0  0  0  0  0  0  0
   10.2885  -16.2506   22.5709 C   0  0  1  0  0  0  0  0  0  0  0  0
   10.0610  -14.9674   21.8582 C   0  0  0  0  0  0  0  0  0  0  0  0
    9.1060  -14.9836   20.7260 C   0  0  0  0  0  0  0  0  0  0  0  0
    8.8932  -13.6873   20.0084 C   0  0  0  0  0  0  0  0  0  0  0  0
    7.8972  -13.8359   18.8593 C   0  0  0  0  0  0  0  0  0  0  0  0
    7.8724  -12.5305   18.1979 N   0  0  0  0  0  0  0  0  0  0  0  0
   11.5112  -16.4105   23.3352 C   0  0  0  0  0  0  0  0  0  0  0  0
   11.5831  -16.6205   24.5654 O   0  0  0  0  0  0  0  0  0  0  0  0
   12.7592  -16.3298   22.6810 O   0  0  0  0  0  0  0  0  0  0  0  0
  2  1  1  0
  2  3  1  0
  3  4  1  6
  5  3  1  0
  5  7  1  0
  5  6  1  1
  7  9  1  0
  8  7  2  0
  9 10  1  0
 11 13  1  0
 11 10  1  0
 12 11  2  0
 14 13  1  0
 14 15  1  1
 15 16  1  0
 17 16  1  0
 17 18  1  0
 19 18  1  0
 20 14  1  0
 21 20  2  0
 22 20  1  0
M  END
$$$$
