IGK.pdb
     RDKit          3D

 22 21  0  0  1  0  0  0  0  0999 V2000
    5.7593  -11.4841   26.9614 C   0  0  0  0  0  0  0  0  0  0  0  0
    5.7874  -12.8796   26.4438 C   0  0  0  0  0  0  0  0  0  0  0  0
    7.0059  -13.2934   25.7029 C   0  0  2  0  0  0  0  0  0  0  0  0
    7.0608  -12.3998   24.4459 C   0  0  0  0  0  0  0  0  0  0  0  0
    7.0620  -14.7263   25.2759 C   0  0  2  0  0  0  0  0  0  0  0  0
    6.6772  -15.6288   26.3656 N   0  0  0  0  0  0  0  0  0  0  0  0
    8.3308  -15.1564   24.6664 C   0  0  0  0  0  0  0  0  0  0  0  0
    9.4060  -15.0342   25.3031 O   0  0  0  0  0  0  0  0  0  0  0  0
    8.3738  -15.7152   23.3531 N   0  0  0  0  0  0  0  0  0  0  0  0
    9.6475  -15.7769   22.6756 C   0  0  0  0  0  0  0  0  0  0  0  0
   10.5845  -16.6747   23.4158 C   0  0  0  0  0  0  0  0  0  0  0  0
   11.7680  -16.8671   23.0183 O   0  0  0  0  0  0  0  0  0  0  0  0
   10.1902  -17.3533   24.5993 N   0  0  0  0  0  0  0  0  0  0  0  0
   11.0513  -18.3039   25.2978 C   0  0  1  0  0  0  0  0  0  0  0  0
   10.6354  -18.3200   26.7237 C   0  0  0  0  0  0  0  0  0  0  0  0
   11.2518  -19.3467   27.5955 C   0  0  0  0  0  0  0  0  0  0  0  0
   11.6775  -18.9015   28.9598 C   0  0  0  0  0  0  0  0  0  0  0  0
   12.1690  -20.0737   29.8076 C   0  0  0  0  0  0  0  0  0  0  0  0
   12.5973  -19.4811   31.0754 N   0  0  0  0  0  0  0  0  0  0  0  0
   11.1727  -19.5689   24.5980 C   0  0  0  0  0  0  0  0  0  0  0  0
   12.1422  -20.3548   24.6698 O   0  0  0  0  0  0  0  0  0  0  0  0
   10.1325  -19.9983   23.7462 O   0  0  0  0  0  0  0  0  0  0  0  0
  2  1  1  0
  2  3  1  0
  3  4  1  6
  5  3  1  0
  5  7  1  0
  5  6  1  1
  7  9  1  0
  8  7  2  0
  9 10  1  0
 11 13  1  0
 11 10  1  0
 12 11  2  0
 14 13  1  0
 14 15  1  1
 15 16  1  0
 17 16  1  0
 17 18  1  0
 19 18  1  0
 20 14  1  0
 21 20  2  0
 22 20  1  0
M  END
$$$$
