IGK.pdb
     RDKit          3D

 22 21  0  0  1  0  0  0  0  0999 V2000
    6.2492  -11.7976   27.1556 C   0  0  0  0  0  0  0  0  0  0  0  0
    6.2777  -12.9852   26.2586 C   0  0  0  0  0  0  0  0  0  0  0  0
    7.5394  -13.2317   25.5155 C   0  0  2  0  0  0  0  0  0  0  0  0
    7.6532  -12.0894   24.4841 C   0  0  0  0  0  0  0  0  0  0  0  0
    7.6347  -14.5396   24.7953 C   0  0  2  0  0  0  0  0  0  0  0  0
    6.4947  -14.7440   23.8961 N   0  0  0  0  0  0  0  0  0  0  0  0
    7.8423  -15.7197   25.6501 C   0  0  0  0  0  0  0  0  0  0  0  0
    8.7780  -15.7315   26.4871 O   0  0  0  0  0  0  0  0  0  0  0  0
    6.9986  -16.8676   25.5518 N   0  0  0  0  0  0  0  0  0  0  0  0
    7.1642  -17.9252   26.5209 C   0  0  0  0  0  0  0  0  0  0  0  0
    8.3984  -18.7123   26.2222 C   0  0  0  0  0  0  0  0  0  0  0  0
    8.3428  -19.8361   25.6480 O   0  0  0  0  0  0  0  0  0  0  0  0
    9.6903  -18.2357   26.5690 N   0  0  0  0  0  0  0  0  0  0  0  0
   10.9106  -19.0073   26.3487 C   0  0  1  0  0  0  0  0  0  0  0  0
   11.7194  -18.2851   25.3335 C   0  0  0  0  0  0  0  0  0  0  0  0
   11.8323  -18.9060   23.9934 C   0  0  0  0  0  0  0  0  0  0  0  0
   12.6903  -18.1950   22.9940 C   0  0  0  0  0  0  0  0  0  0  0  0
   12.6922  -18.9090   21.6431 C   0  0  0  0  0  0  0  0  0  0  0  0
   13.4690  -18.0469   20.7513 N   0  0  0  0  0  0  0  0  0  0  0  0
   11.5514  -19.4078   27.5871 C   0  0  0  0  0  0  0  0  0  0  0  0
   12.5846  -20.1048   27.6844 O   0  0  0  0  0  0  0  0  0  0  0  0
   11.0001  -19.0024   28.8214 O   0  0  0  0  0  0  0  0  0  0  0  0
  2  1  1  0
  2  3  1  0
  3  4  1  6
  5  3  1  0
  5  7  1  0
  5  6  1  1
  7  9  1  0
  8  7  2  0
  9 10  1  0
 11 13  1  0
 11 10  1  0
 12 11  2  0
 14 13  1  0
 14 15  1  6
 15 16  1  0
 17 16  1  0
 17 18  1  0
 19 18  1  0
 20 14  1  0
 21 20  2  0
 22 20  1  0
M  END
$$$$
