IGK.pdb
     RDKit          3D

 22 21  0  0  1  0  0  0  0  0999 V2000
    6.7580  -11.7630   19.6592 C   0  0  0  0  0  0  0  0  0  0  0  0
    7.3530  -13.1167   19.8312 C   0  0  0  0  0  0  0  0  0  0  0  0
    8.7673  -13.2836   19.4107 C   0  0  2  0  0  0  0  0  0  0  0  0
    8.8041  -12.9449   17.9055 C   0  0  0  0  0  0  0  0  0  0  0  0
    9.3575  -14.6437   19.6111 C   0  0  2  0  0  0  0  0  0  0  0  0
    9.1475  -15.1261   20.9797 N   0  0  0  0  0  0  0  0  0  0  0  0
   10.7692  -14.7856   19.2194 C   0  0  0  0  0  0  0  0  0  0  0  0
   11.0727  -15.4412   18.1925 O   0  0  0  0  0  0  0  0  0  0  0  0
   11.8175  -14.1915   19.9857 N   0  0  0  0  0  0  0  0  0  0  0  0
   13.1656  -14.2608   19.4729 C   0  0  0  0  0  0  0  0  0  0  0  0
   13.8548  -15.4804   19.9920 C   0  0  0  0  0  0  0  0  0  0  0  0
   15.1002  -15.6434   19.8575 O   0  0  0  0  0  0  0  0  0  0  0  0
   13.1443  -16.5125   20.6601 N   0  0  0  0  0  0  0  0  0  0  0  0
   13.7950  -17.6912   21.2259 C   0  0  1  0  0  0  0  0  0  0  0  0
   12.9783  -18.1413   22.3821 C   0  0  0  0  0  0  0  0  0  0  0  0
   13.0227  -17.3077   23.6057 C   0  0  0  0  0  0  0  0  0  0  0  0
   12.1419  -17.7315   24.7393 C   0  0  0  0  0  0  0  0  0  0  0  0
   12.2189  -16.7525   25.9098 C   0  0  0  0  0  0  0  0  0  0  0  0
   11.1894  -17.1940   26.8517 N   0  0  0  0  0  0  0  0  0  0  0  0
   14.1629  -18.6666   20.2169 C   0  0  0  0  0  0  0  0  0  0  0  0
   13.5506  -18.8804   19.1482 O   0  0  0  0  0  0  0  0  0  0  0  0
   15.3048  -19.4734   20.4091 O   0  0  0  0  0  0  0  0  0  0  0  0
  2  1  1  0
  2  3  1  0
  3  4  1  6
  5  3  1  0
  5  7  1  0
  5  6  1  1
  7  9  1  0
  8  7  2  0
  9 10  1  0
 11 13  1  0
 11 10  1  0
 12 11  2  0
 14 13  1  0
 14 15  1  1
 15 16  1  0
 17 16  1  0
 17 18  1  0
 19 18  1  0
 20 14  1  0
 21 20  2  0
 22 20  1  0
M  END
$$$$
