CLY.pdb
     RDKit          3D

 27 27  0  0  1  0  0  0  0  0999 V2000
   27.0567  -20.1413  -11.0063 N   0  0  0  0  0  0  0  0  0  0  0  0
   26.5022  -20.8323  -12.1255 C   0  0  1  0  0  0  0  0  0  0  0  0
   25.4925  -21.8654  -11.6656 C   0  0  0  0  0  0  0  0  0  0  0  0
   26.2329  -23.0237  -10.4819 S   0  0  0  0  0  0  0  0  0  0  0  0
   25.9910  -19.9706  -13.1890 C   0  0  0  0  0  0  0  0  0  0  0  0
   25.2018  -19.0408  -12.8697 O   0  0  0  0  0  0  0  0  0  0  0  0
   28.5741  -18.8001  -18.1319 C   0  0  0  0  0  0  0  0  0  0  0  0
   27.8744  -18.5992  -16.8011 C   0  0  1  0  0  0  0  0  0  0  0  0
   27.8734  -17.1380  -16.5021 C   0  0  0  0  0  0  0  0  0  0  0  0
   26.4698  -19.1836  -16.8527 C   0  0  0  0  0  0  0  0  0  0  0  0
   25.7904  -19.1629  -15.5245 C   0  0  2  0  0  0  0  0  0  0  0  0
   26.2956  -20.0751  -14.5587 N   0  0  0  0  0  0  0  0  0  0  0  0
   24.3403  -19.5168  -15.7503 C   0  0  0  0  0  0  0  0  0  0  0  0
   24.0097  -20.7256  -15.8544 O   0  0  0  0  0  0  0  0  0  0  0  0
   15.6733  -19.8445  -16.1444 O   0  0  0  0  0  0  0  0  0  0  0  0
   16.9961  -19.4883  -15.8622 C   0  0  0  0  0  0  0  0  0  0  0  0
   17.5129  -18.3234  -16.3891 C   0  0  0  0  0  0  0  0  0  0  0  0
   18.8186  -17.9817  -16.1044 C   0  0  0  0  0  0  0  0  0  0  0  0
   19.6392  -18.7707  -15.3019 C   0  0  0  0  0  0  0  0  0  0  0  0
   21.0371  -18.3969  -15.0361 C   0  0  0  0  0  0  0  0  0  0  0  0
   21.9445  -18.9728  -16.0644 C   0  0  2  0  0  0  0  0  0  0  0  0
   23.3338  -18.5530  -15.8506 N   0  0  0  0  0  0  0  0  0  0  0  0
   21.5245  -18.7240  -17.4487 C   0  0  0  0  0  0  0  0  0  0  0  0
   21.8088  -17.5107  -18.0333 O   0  0  0  0  0  0  0  0  0  0  0  0
   19.1147  -19.9328  -14.7798 C   0  0  0  0  0  0  0  0  0  0  0  0
   17.8060  -20.2790  -15.0628 C   0  0  0  0  0  0  0  0  0  0  0  0
   20.9208  -19.5894  -18.0920 O   0  0  0  0  0  0  0  0  0  0  0  0
  2  1  1  1
  3  2  1  0
  3  4  1  0
  5  6  2  0
  5  2  1  0
  8  7  1  6
  8  9  1  0
 11 10  1  6
 10  8  1  0
 11 12  1  0
 12  5  1  0
 13 11  1  0
 14 13  2  0
 16 17  2  0
 16 15  1  0
 18 17  1  0
 19 18  2  0
 20 19  1  0
 21 20  1  1
 21 22  1  0
 22 13  1  0
 23 21  1  0
 24 23  1  0
 25 19  1  0
 25 26  2  0
 26 16  1  0
 27 23  2  0
M  END
$$$$
