CLY.pdb
     RDKit          3D

 27 27  0  0  1  0  0  0  0  0999 V2000
   22.9023  -21.9645  -17.9118 N   0  0  0  0  0  0  0  0  0  0  0  0
   23.2108  -20.7820  -18.6492 C   0  0  1  0  0  0  0  0  0  0  0  0
   22.2840  -20.6412  -19.8405 C   0  0  0  0  0  0  0  0  0  0  0  0
   22.5189  -22.0012  -21.0179 S   0  0  0  0  0  0  0  0  0  0  0  0
   23.2982  -19.5628  -17.8487 C   0  0  0  0  0  0  0  0  0  0  0  0
   22.3931  -19.3468  -16.9982 O   0  0  0  0  0  0  0  0  0  0  0  0
   25.3390  -15.8045  -14.7784 C   0  0  0  0  0  0  0  0  0  0  0  0
   25.4865  -15.3947  -16.2314 C   0  0  1  0  0  0  0  0  0  0  0  0
   26.6974  -14.5308  -16.3411 C   0  0  0  0  0  0  0  0  0  0  0  0
   25.5695  -16.6284  -17.1192 C   0  0  0  0  0  0  0  0  0  0  0  0
   24.2967  -17.4066  -17.1408 C   0  0  2  0  0  0  0  0  0  0  0  0
   24.3086  -18.5871  -17.9322 N   0  0  0  0  0  0  0  0  0  0  0  0
   23.2236  -16.5072  -17.7051 C   0  0  0  0  0  0  0  0  0  0  0  0
   23.3008  -16.1320  -18.9028 O   0  0  0  0  0  0  0  0  0  0  0  0
   16.2382  -13.3581  -21.2799 O   0  0  0  0  0  0  0  0  0  0  0  0
   17.2924  -14.0352  -20.6581 C   0  0  0  0  0  0  0  0  0  0  0  0
   18.5404  -13.4506  -20.6097 C   0  0  0  0  0  0  0  0  0  0  0  0
   19.5729  -14.1271  -19.9942 C   0  0  0  0  0  0  0  0  0  0  0  0
   19.4034  -15.3833  -19.4169 C   0  0  0  0  0  0  0  0  0  0  0  0
   20.5281  -16.0952  -18.7903 C   0  0  0  0  0  0  0  0  0  0  0  0
   21.0372  -15.3474  -17.6097 C   0  0  2  0  0  0  0  0  0  0  0  0
   22.1338  -16.0653  -16.9508 N   0  0  0  0  0  0  0  0  0  0  0  0
   20.0006  -14.9647  -16.6435 C   0  0  0  0  0  0  0  0  0  0  0  0
   19.8476  -15.6999  -15.4899 O   0  0  0  0  0  0  0  0  0  0  0  0
   18.1533  -15.9599  -19.4698 C   0  0  0  0  0  0  0  0  0  0  0  0
   17.1155  -15.2849  -20.0861 C   0  0  0  0  0  0  0  0  0  0  0  0
   19.2667  -13.9929  -16.8544 O   0  0  0  0  0  0  0  0  0  0  0  0
  2  1  1  1
  3  2  1  0
  3  4  1  0
  5  6  2  0
  5  2  1  0
  8  7  1  1
  8  9  1  0
 11 10  1  6
 10  8  1  0
 11 12  1  0
 12  5  1  0
 13 11  1  0
 14 13  2  0
 16 17  2  0
 16 15  1  0
 18 17  1  0
 19 18  2  0
 20 19  1  0
 21 20  1  6
 21 22  1  0
 22 13  1  0
 23 21  1  0
 24 23  1  0
 25 19  1  0
 25 26  2  0
 26 16  1  0
 27 23  2  0
M  END
$$$$
