CLY.pdb
     RDKit          3D

 27 27  0  0  1  0  0  0  0  0999 V2000
   23.1835  -12.2683  -18.4581 N   0  0  0  0  0  0  0  0  0  0  0  0
   22.9916  -11.0887  -19.2386 C   0  0  1  0  0  0  0  0  0  0  0  0
   21.5351  -10.9433  -19.6334 C   0  0  0  0  0  0  0  0  0  0  0  0
   20.9627  -12.3878  -20.5697 S   0  0  0  0  0  0  0  0  0  0  0  0
   23.5484   -9.8691  -18.6577 C   0  0  0  0  0  0  0  0  0  0  0  0
   23.3241   -9.6379  -17.4389 O   0  0  0  0  0  0  0  0  0  0  0  0
   26.7764   -6.1504  -17.1447 C   0  0  0  0  0  0  0  0  0  0  0  0
   26.4049   -5.8153  -18.5767 C   0  0  1  0  0  0  0  0  0  0  0  0
   27.5831   -5.1568  -19.2115 C   0  0  0  0  0  0  0  0  0  0  0  0
   25.9737   -7.0741  -19.3158 C   0  0  0  0  0  0  0  0  0  0  0  0
   24.7687   -7.7115  -18.7092 C   0  0  2  0  0  0  0  0  0  0  0  0
   24.3239   -8.9086  -19.3329 N   0  0  0  0  0  0  0  0  0  0  0  0
   23.6352   -6.7185  -18.8000 C   0  0  0  0  0  0  0  0  0  0  0  0
   23.2939   -6.2738  -19.9256 O   0  0  0  0  0  0  0  0  0  0  0  0
   17.1391   -9.4352  -16.4224 O   0  0  0  0  0  0  0  0  0  0  0  0
   18.0554   -8.5603  -17.0151 C   0  0  0  0  0  0  0  0  0  0  0  0
   17.8956   -7.1998  -16.8568 C   0  0  0  0  0  0  0  0  0  0  0  0
   18.8050   -6.3461  -17.4456 C   0  0  0  0  0  0  0  0  0  0  0  0
   19.8834   -6.8066  -18.1972 C   0  0  0  0  0  0  0  0  0  0  0  0
   20.8236   -5.8735  -18.8374 C   0  0  0  0  0  0  0  0  0  0  0  0
   21.8039   -5.3479  -17.8500 C   0  0  2  0  0  0  0  0  0  0  0  0
   22.9373   -6.2634  -17.6785 N   0  0  0  0  0  0  0  0  0  0  0  0
   21.2196   -4.9821  -16.5541 C   0  0  0  0  0  0  0  0  0  0  0  0
   21.7098   -5.5594  -15.4047 O   0  0  0  0  0  0  0  0  0  0  0  0
   20.0355   -8.1673  -18.3503 C   0  0  0  0  0  0  0  0  0  0  0  0
   19.1258   -9.0266  -17.7615 C   0  0  0  0  0  0  0  0  0  0  0  0
   20.2956   -4.1642  -16.4848 O   0  0  0  0  0  0  0  0  0  0  0  0
  2  1  1  1
  3  2  1  0
  3  4  1  0
  5  6  2  0
  5  2  1  0
  8  7  1  1
  8  9  1  0
 11 10  1  6
 10  8  1  0
 11 12  1  0
 12  5  1  0
 13 11  1  0
 14 13  2  0
 16 17  2  0
 16 15  1  0
 18 17  1  0
 19 18  2  0
 20 19  1  0
 21 20  1  6
 21 22  1  0
 22 13  1  0
 23 21  1  0
 24 23  1  0
 25 19  1  0
 25 26  2  0
 26 16  1  0
 27 23  2  0
M  END
$$$$
