CLY.pdb
     RDKit          3D

 27 27  0  0  1  0  0  0  0  0999 V2000
   34.2012  -28.7774  -17.8615 N   0  0  0  0  0  0  0  0  0  0  0  0
   33.2863  -29.5191  -18.6677 C   0  0  1  0  0  0  0  0  0  0  0  0
   34.0100  -30.6199  -19.4178 C   0  0  0  0  0  0  0  0  0  0  0  0
   32.8964  -31.4688  -20.5710 S   0  0  0  0  0  0  0  0  0  0  0  0
   32.0953  -29.9950  -17.9678 C   0  0  0  0  0  0  0  0  0  0  0  0
   32.2120  -30.3227  -16.7561 O   0  0  0  0  0  0  0  0  0  0  0  0
   27.1581  -27.7858  -18.2557 C   0  0  0  0  0  0  0  0  0  0  0  0
   28.4327  -28.4428  -17.7607 C   0  0  1  0  0  0  0  0  0  0  0  0
   28.5693  -28.1362  -16.3074 C   0  0  0  0  0  0  0  0  0  0  0  0
   28.3947  -29.9388  -18.0388 C   0  0  0  0  0  0  0  0  0  0  0  0
   29.7009  -30.6065  -17.7667 C   0  0  2  0  0  0  0  0  0  0  0  0
   30.8075  -30.1273  -18.5190 N   0  0  0  0  0  0  0  0  0  0  0  0
   29.5411  -32.0703  -18.0996 C   0  0  0  0  0  0  0  0  0  0  0  0
   30.2425  -32.5749  -19.0132 O   0  0  0  0  0  0  0  0  0  0  0  0
   29.7123  -40.4095  -19.2674 O   0  0  0  0  0  0  0  0  0  0  0  0
   29.7504  -39.0715  -18.8614 C   0  0  0  0  0  0  0  0  0  0  0  0
   29.9123  -38.0796  -19.8055 C   0  0  0  0  0  0  0  0  0  0  0  0
   29.9484  -36.7636  -19.3941 C   0  0  0  0  0  0  0  0  0  0  0  0
   29.8273  -36.3957  -18.0562 C   0  0  0  0  0  0  0  0  0  0  0  0
   29.8966  -34.9859  -17.6412 C   0  0  0  0  0  0  0  0  0  0  0  0
   28.5706  -34.3266  -17.7804 C   0  0  2  0  0  0  0  0  0  0  0  0
   28.6392  -32.9031  -17.4325 N   0  0  0  0  0  0  0  0  0  0  0  0
   27.4837  -34.9957  -17.0555 C   0  0  0  0  0  0  0  0  0  0  0  0
   26.8053  -34.3114  -16.0727 O   0  0  0  0  0  0  0  0  0  0  0  0
   29.6659  -37.3931  -17.1197 C   0  0  0  0  0  0  0  0  0  0  0  0
   29.6291  -38.7139  -17.5281 C   0  0  0  0  0  0  0  0  0  0  0  0
   27.1727  -36.1628  -17.3178 O   0  0  0  0  0  0  0  0  0  0  0  0
  2  1  1  1
  3  2  1  0
  3  4  1  0
  5  6  2  0
  5  2  1  0
  8  7  1  1
  8  9  1  0
 11 10  1  6
 10  8  1  0
 11 12  1  0
 12  5  1  0
 13 11  1  0
 14 13  2  0
 16 17  2  0
 16 15  1  0
 18 17  1  0
 19 18  2  0
 20 19  1  0
 21 20  1  1
 21 22  1  0
 22 13  1  0
 23 21  1  0
 24 23  1  0
 25 19  1  0
 25 26  2  0
 26 16  1  0
 27 23  2  0
M  END
$$$$
