CLY.pdb
     RDKit          3D

 27 27  0  0  1  0  0  0  0  0999 V2000
   24.7668  -19.9066  -19.8687 N   0  0  0  0  0  0  0  0  0  0  0  0
   24.2911  -19.1920  -18.7284 C   0  0  1  0  0  0  0  0  0  0  0  0
   22.8769  -18.6985  -18.9620 C   0  0  0  0  0  0  0  0  0  0  0  0
   22.8556  -16.9239  -19.3377 S   0  0  0  0  0  0  0  0  0  0  0  0
   24.4471  -19.8911  -17.4549 C   0  0  0  0  0  0  0  0  0  0  0  0
   24.0774  -21.0946  -17.3911 O   0  0  0  0  0  0  0  0  0  0  0  0
   28.7664  -19.4635  -14.0914 C   0  0  0  0  0  0  0  0  0  0  0  0
   27.6202  -19.9594  -14.9525 C   0  0  1  0  0  0  0  0  0  0  0  0
   27.8842  -21.3895  -15.2839 C   0  0  0  0  0  0  0  0  0  0  0  0
   26.2962  -19.7650  -14.2273 C   0  0  0  0  0  0  0  0  0  0  0  0
   25.1198  -20.1082  -15.0785 C   0  0  2  0  0  0  0  0  0  0  0  0
   24.9778  -19.3475  -16.2706 N   0  0  0  0  0  0  0  0  0  0  0  0
   23.8778  -19.8725  -14.2534 C   0  0  0  0  0  0  0  0  0  0  0  0
   23.8867  -18.9811  -13.3665 O   0  0  0  0  0  0  0  0  0  0  0  0
   19.0080  -17.5483  -18.8257 O   0  0  0  0  0  0  0  0  0  0  0  0
   19.5529  -17.8637  -17.5767 C   0  0  0  0  0  0  0  0  0  0  0  0
   18.9032  -18.7654  -16.7603 C   0  0  0  0  0  0  0  0  0  0  0  0
   19.4493  -19.0692  -15.5307 C   0  0  0  0  0  0  0  0  0  0  0  0
   20.6368  -18.4982  -15.0793 C   0  0  0  0  0  0  0  0  0  0  0  0
   21.1836  -18.8191  -13.7517 C   0  0  0  0  0  0  0  0  0  0  0  0
   21.5086  -20.2668  -13.6480 C   0  0  2  0  0  0  0  0  0  0  0  0
   22.7023  -20.6069  -14.4299 N   0  0  0  0  0  0  0  0  0  0  0  0
   20.3916  -21.1619  -13.9729 C   0  0  0  0  0  0  0  0  0  0  0  0
   19.2794  -21.1764  -13.1622 O   0  0  0  0  0  0  0  0  0  0  0  0
   21.2793  -17.5984  -15.9013 C   0  0  0  0  0  0  0  0  0  0  0  0
   20.7350  -17.2912  -17.1349 C   0  0  0  0  0  0  0  0  0  0  0  0
   20.4395  -21.8998  -14.9633 O   0  0  0  0  0  0  0  0  0  0  0  0
  2  1  1  6
  3  2  1  0
  3  4  1  0
  5  6  2  0
  5  2  1  0
  8  7  1  1
  8  9  1  0
 11 10  1  1
 10  8  1  0
 11 12  1  0
 12  5  1  0
 13 11  1  0
 14 13  2  0
 16 17  2  0
 16 15  1  0
 18 17  1  0
 19 18  2  0
 20 19  1  0
 21 20  1  6
 21 22  1  0
 22 13  1  0
 23 21  1  0
 24 23  1  0
 25 19  1  0
 25 26  2  0
 26 16  1  0
 27 23  2  0
M  END
$$$$
