CLY.pdb
     RDKit          3D

 27 27  0  0  1  0  0  0  0  0999 V2000
   22.8540  -17.0728  -20.8143 N   0  0  0  0  0  0  0  0  0  0  0  0
   22.6374  -16.6315  -19.4743 C   0  0  1  0  0  0  0  0  0  0  0  0
   21.1587  -16.6496  -19.1409 C   0  0  0  0  0  0  0  0  0  0  0  0
   20.2508  -15.4223  -20.1208 S   0  0  0  0  0  0  0  0  0  0  0  0
   23.4566  -17.3004  -18.4661 C   0  0  0  0  0  0  0  0  0  0  0  0
   23.8529  -18.4724  -18.7077 O   0  0  0  0  0  0  0  0  0  0  0  0
   26.9382  -14.6236  -14.9654 C   0  0  0  0  0  0  0  0  0  0  0  0
   26.3176  -15.5227  -16.0177 C   0  0  1  0  0  0  0  0  0  0  0  0
   27.4249  -16.1118  -16.8251 C   0  0  0  0  0  0  0  0  0  0  0  0
   25.4510  -16.5850  -15.3562 C   0  0  0  0  0  0  0  0  0  0  0  0
   24.7360  -17.4411  -16.3471 C   0  0  2  0  0  0  0  0  0  0  0  0
   23.8555  -16.7592  -17.2301 N   0  0  0  0  0  0  0  0  0  0  0  0
   23.9033  -18.4339  -15.5725 C   0  0  0  0  0  0  0  0  0  0  0  0
   24.4756  -19.2724  -14.8305 O   0  0  0  0  0  0  0  0  0  0  0  0
   17.4351  -22.8975  -11.8025 O   0  0  0  0  0  0  0  0  0  0  0  0
   18.3594  -21.9533  -12.2613 C   0  0  0  0  0  0  0  0  0  0  0  0
   17.9366  -20.9370  -13.0919 C   0  0  0  0  0  0  0  0  0  0  0  0
   18.8565  -20.0113  -13.5384 C   0  0  0  0  0  0  0  0  0  0  0  0
   20.2018  -20.0631  -13.1815 C   0  0  0  0  0  0  0  0  0  0  0  0
   21.1677  -19.0786  -13.6939 C   0  0  0  0  0  0  0  0  0  0  0  0
   21.7728  -19.5443  -14.9703 C   0  0  2  0  0  0  0  0  0  0  0  0
   22.5082  -18.4667  -15.6410 N   0  0  0  0  0  0  0  0  0  0  0  0
   20.8260  -20.1887  -15.8884 C   0  0  0  0  0  0  0  0  0  0  0  0
   20.5926  -19.6262  -17.1228 O   0  0  0  0  0  0  0  0  0  0  0  0
   20.6155  -21.0818  -12.3514 C   0  0  0  0  0  0  0  0  0  0  0  0
   19.6963  -22.0120  -11.9015 C   0  0  0  0  0  0  0  0  0  0  0  0
   20.2386  -21.2271  -15.5656 O   0  0  0  0  0  0  0  0  0  0  0  0
  2  1  1  6
  3  2  1  0
  3  4  1  0
  5  6  2  0
  5  2  1  0
  8  7  1  1
  8  9  1  0
 11 10  1  1
 10  8  1  0
 11 12  1  0
 12  5  1  0
 13 11  1  0
 14 13  2  0
 16 17  2  0
 16 15  1  0
 18 17  1  0
 19 18  2  0
 20 19  1  0
 21 20  1  1
 21 22  1  0
 22 13  1  0
 23 21  1  0
 24 23  1  0
 25 19  1  0
 25 26  2  0
 26 16  1  0
 27 23  2  0
M  END
$$$$
