SMN.pdb
     RDKit          3D

 23 22  0  0  1  0  0  0  0  0999 V2000
    7.8848  -16.7178   20.1241 O   0  0  0  0  0  0  0  0  0  0  0  0
    8.1779  -15.5319   19.4502 C   0  0  0  0  0  0  0  0  0  0  0  0
    7.5754  -14.3896   20.2519 C   0  0  2  0  0  0  0  0  0  0  0  0
    7.7266  -13.1605   19.5225 N   0  0  0  0  0  0  0  0  0  0  0  0
    8.1944  -14.3112   21.6084 C   0  0  0  0  0  0  0  0  0  0  0  0
    9.3865  -13.8920   21.7258 O   0  0  0  0  0  0  0  0  0  0  0  0
    6.4831  -11.9056   27.8639 C   0  0  0  0  0  0  0  0  0  0  0  0
    7.1407  -11.6777   26.1794 S   0  0  0  0  0  0  0  0  0  0  0  0
    6.3585  -12.8547   25.0799 C   0  0  0  0  0  0  0  0  0  0  0  0
    6.9015  -14.2208   25.0443 C   0  0  0  0  0  0  0  0  0  0  0  0
    8.0049  -14.5750   24.1161 C   0  0  2  0  0  0  0  0  0  0  0  0
    7.4596  -14.6995   22.7467 N   0  0  0  0  0  0  0  0  0  0  0  0
    8.7193  -15.7847   24.4910 C   0  0  0  0  0  0  0  0  0  0  0  0
    8.1800  -16.9016   24.3248 O   0  0  0  0  0  0  0  0  0  0  0  0
   12.0622  -17.4506   22.6386 N   0  0  0  0  0  0  0  0  0  0  0  0
   12.4128  -16.6698   23.7621 C   0  0  0  0  0  0  0  0  0  0  0  0
   13.0144  -15.5753   23.5017 O   0  0  0  0  0  0  0  0  0  0  0  0
   12.1071  -17.0813   25.1374 C   0  0  0  0  0  0  0  0  0  0  0  0
   10.6467  -17.0383   25.4492 C   0  0  2  0  0  0  0  0  0  0  0  0
   10.0313  -15.7911   25.0518 N   0  0  0  0  0  0  0  0  0  0  0  0
   10.2910  -17.3678   26.8329 C   0  0  0  0  0  0  0  0  0  0  0  0
    9.6539  -16.4903   27.5085 O   0  0  0  0  0  0  0  0  0  0  0  0
   10.5769  -18.5318   27.4784 O   0  0  0  0  0  0  0  0  0  0  0  0
  2  1  1  0
  3  2  1  0
  3  5  1  0
  3  4  1  6
  5  6  2  0
  5 12  1  0
  7  8  1  0
  8  9  1  0
 11 10  1  1
 10  9  1  0
 11 13  1  0
 12 11  1  0
 13 20  1  0
 14 13  2  0
 16 15  1  0
 17 16  2  0
 18 16  1  0
 19 21  1  0
 19 18  1  1
 20 19  1  0
 21 23  1  0
 22 21  2  0
M  END
$$$$
