SMN.pdb
     RDKit          3D

 23 22  0  0  1  0  0  0  0  0999 V2000
    7.2434  -17.5391   21.2503 O   0  0  0  0  0  0  0  0  0  0  0  0
    8.1790  -17.2180   20.2666 C   0  0  0  0  0  0  0  0  0  0  0  0
    8.5063  -15.7407   20.4118 C   0  0  2  0  0  0  0  0  0  0  0  0
    9.4123  -15.3459   19.3683 N   0  0  0  0  0  0  0  0  0  0  0  0
    9.0604  -15.4524   21.7681 C   0  0  0  0  0  0  0  0  0  0  0  0
   10.2957  -15.6411   21.9893 O   0  0  0  0  0  0  0  0  0  0  0  0
    5.7528  -11.6636   25.7500 C   0  0  0  0  0  0  0  0  0  0  0  0
    6.8987  -12.2859   27.0234 S   0  0  0  0  0  0  0  0  0  0  0  0
    8.0254  -13.4597   26.2758 C   0  0  0  0  0  0  0  0  0  0  0  0
    7.7780  -13.8491   24.8796 C   0  0  0  0  0  0  0  0  0  0  0  0
    8.6932  -14.7856   24.1794 C   0  0  2  0  0  0  0  0  0  0  0  0
    8.2173  -14.9749   22.7917 N   0  0  0  0  0  0  0  0  0  0  0  0
    8.8394  -16.0692   24.8466 C   0  0  0  0  0  0  0  0  0  0  0  0
    8.4150  -17.1087   24.2939 O   0  0  0  0  0  0  0  0  0  0  0  0
   10.5011  -19.9836   24.9235 N   0  0  0  0  0  0  0  0  0  0  0  0
   11.0712  -18.7545   24.5247 C   0  0  0  0  0  0  0  0  0  0  0  0
   11.3490  -18.6574   23.2833 O   0  0  0  0  0  0  0  0  0  0  0  0
   11.3270  -17.6588   25.4672 C   0  0  0  0  0  0  0  0  0  0  0  0
   10.2007  -17.4354   26.4229 C   0  0  2  0  0  0  0  0  0  0  0  0
    9.4506  -16.2351   26.1252 N   0  0  0  0  0  0  0  0  0  0  0  0
   10.5661  -17.4730   27.8424 C   0  0  0  0  0  0  0  0  0  0  0  0
   10.7787  -16.3596   28.4317 O   0  0  0  0  0  0  0  0  0  0  0  0
   10.7039  -18.5923   28.6051 O   0  0  0  0  0  0  0  0  0  0  0  0
  2  1  1  0
  3  2  1  0
  3  5  1  0
  3  4  1  6
  5  6  2  0
  5 12  1  0
  7  8  1  0
  8  9  1  0
 11 10  1  1
 10  9  1  0
 11 13  1  0
 12 11  1  0
 13 20  1  0
 14 13  2  0
 16 15  1  0
 17 16  2  0
 18 16  1  0
 19 21  1  0
 19 18  1  6
 20 19  1  0
 21 23  1  0
 22 21  2  0
M  END
$$$$
