SMN.pdb
     RDKit          3D

 23 22  0  0  1  0  0  0  0  0999 V2000
    8.5710  -17.9220   19.7284 O   0  0  0  0  0  0  0  0  0  0  0  0
    8.6789  -17.4403   21.0332 C   0  0  0  0  0  0  0  0  0  0  0  0
    8.8938  -15.9378   20.9495 C   0  0  2  0  0  0  0  0  0  0  0  0
   10.0578  -15.6641   20.1522 N   0  0  0  0  0  0  0  0  0  0  0  0
    9.0018  -15.3421   22.3144 C   0  0  0  0  0  0  0  0  0  0  0  0
   10.1475  -15.0620   22.7829 O   0  0  0  0  0  0  0  0  0  0  0  0
    7.9557  -11.4941   27.5071 C   0  0  0  0  0  0  0  0  0  0  0  0
    6.5765  -11.8085   26.3578 S   0  0  0  0  0  0  0  0  0  0  0  0
    6.3243  -13.5753   26.2133 C   0  0  0  0  0  0  0  0  0  0  0  0
    6.5428  -14.1906   24.8957 C   0  0  0  0  0  0  0  0  0  0  0  0
    7.9016  -14.6128   24.4711 C   0  0  2  0  0  0  0  0  0  0  0  0
    7.8406  -15.0936   23.0736 N   0  0  0  0  0  0  0  0  0  0  0  0
    8.4955  -15.6235   25.3313 C   0  0  0  0  0  0  0  0  0  0  0  0
    8.6620  -15.3840   26.5483 O   0  0  0  0  0  0  0  0  0  0  0  0
    6.6795  -18.6645   26.1481 N   0  0  0  0  0  0  0  0  0  0  0  0
    7.5893  -19.5969   25.6026 C   0  0  0  0  0  0  0  0  0  0  0  0
    7.0901  -20.7269   25.2843 O   0  0  0  0  0  0  0  0  0  0  0  0
    9.0123  -19.2929   25.4097 C   0  0  0  0  0  0  0  0  0  0  0  0
    9.3736  -17.9026   25.8200 C   0  0  2  0  0  0  0  0  0  0  0  0
    8.9152  -16.9085   24.8747 N   0  0  0  0  0  0  0  0  0  0  0  0
   10.7887  -17.6914   26.1409 C   0  0  0  0  0  0  0  0  0  0  0  0
   11.6248  -17.6962   25.1749 O   0  0  0  0  0  0  0  0  0  0  0  0
   11.3072  -17.4886   27.3831 O   0  0  0  0  0  0  0  0  0  0  0  0
  2  1  1  0
  3  2  1  0
  3  5  1  0
  3  4  1  6
  5  6  2  0
  5 12  1  0
  7  8  1  0
  8  9  1  0
 11 10  1  1
 10  9  1  0
 11 13  1  0
 12 11  1  0
 13 20  1  0
 14 13  2  0
 16 15  1  0
 17 16  2  0
 18 16  1  0
 19 21  1  0
 19 18  1  6
 20 19  1  0
 21 23  1  0
 22 21  2  0
M  END
$$$$
