SMN.pdb
     RDKit          3D

 23 22  0  0  1  0  0  0  0  0999 V2000
    6.9716  -16.1419   18.8801 O   0  0  0  0  0  0  0  0  0  0  0  0
    7.6939  -15.3931   19.8095 C   0  0  0  0  0  0  0  0  0  0  0  0
    7.9756  -16.2929   21.0018 C   0  0  2  0  0  0  0  0  0  0  0  0
    6.7684  -16.9721   21.3851 N   0  0  0  0  0  0  0  0  0  0  0  0
    8.5548  -15.5075   22.1320 C   0  0  0  0  0  0  0  0  0  0  0  0
    9.6771  -14.9344   21.9815 O   0  0  0  0  0  0  0  0  0  0  0  0
    5.8855  -11.1359   26.4997 C   0  0  0  0  0  0  0  0  0  0  0  0
    6.3305  -12.6245   27.4525 S   0  0  0  0  0  0  0  0  0  0  0  0
    7.6704  -13.4739   26.6223 C   0  0  0  0  0  0  0  0  0  0  0  0
    7.3900  -14.0706   25.3079 C   0  0  0  0  0  0  0  0  0  0  0  0
    8.4573  -14.7698   24.5486 C   0  0  2  0  0  0  0  0  0  0  0  0
    7.8597  -15.4048   23.3538 N   0  0  0  0  0  0  0  0  0  0  0  0
    9.1875  -15.7513   25.3347 C   0  0  0  0  0  0  0  0  0  0  0  0
    9.7677  -15.3983   26.3859 O   0  0  0  0  0  0  0  0  0  0  0  0
    6.8937  -19.2926   26.6767 N   0  0  0  0  0  0  0  0  0  0  0  0
    8.2559  -19.2034   27.0387 C   0  0  0  0  0  0  0  0  0  0  0  0
    8.4810  -19.0108   28.2796 O   0  0  0  0  0  0  0  0  0  0  0  0
    9.3435  -19.3256   26.0607 C   0  0  0  0  0  0  0  0  0  0  0  0
   10.0561  -18.0357   25.8153 C   0  0  2  0  0  0  0  0  0  0  0  0
    9.2937  -17.1303   24.9841 N   0  0  0  0  0  0  0  0  0  0  0  0
   11.4273  -18.1629   25.3115 C   0  0  0  0  0  0  0  0  0  0  0  0
   12.3808  -17.8169   26.0882 O   0  0  0  0  0  0  0  0  0  0  0  0
   11.7900  -18.6188   24.0811 O   0  0  0  0  0  0  0  0  0  0  0  0
  2  1  1  0
  3  2  1  0
  3  5  1  0
  3  4  1  1
  5  6  2  0
  5 12  1  0
  7  8  1  0
  8  9  1  0
 11 10  1  1
 10  9  1  0
 11 13  1  0
 12 11  1  0
 13 20  1  0
 14 13  2  0
 16 15  1  0
 17 16  2  0
 18 16  1  0
 19 21  1  0
 19 18  1  6
 20 19  1  0
 21 23  1  0
 22 21  2  0
M  END
$$$$
