SMN.pdb
     RDKit          3D

 23 22  0  0  1  0  0  0  0  0999 V2000
    6.9755  -17.0058   18.7893 O   0  0  0  0  0  0  0  0  0  0  0  0
    7.5227  -16.8023   20.0563 C   0  0  0  0  0  0  0  0  0  0  0  0
    7.4146  -15.3184   20.3680 C   0  0  2  0  0  0  0  0  0  0  0  0
    7.9254  -14.5579   19.2607 N   0  0  0  0  0  0  0  0  0  0  0  0
    8.1235  -14.9923   21.6411 C   0  0  0  0  0  0  0  0  0  0  0  0
    9.3922  -14.9655   21.6583 O   0  0  0  0  0  0  0  0  0  0  0  0
    5.5038  -11.4177   26.6579 C   0  0  0  0  0  0  0  0  0  0  0  0
    7.1631  -12.0166   27.1163 S   0  0  0  0  0  0  0  0  0  0  0  0
    7.3906  -13.6695   26.4664 C   0  0  0  0  0  0  0  0  0  0  0  0
    7.0451  -13.9020   25.0561 C   0  0  0  0  0  0  0  0  0  0  0  0
    8.0452  -14.4620   24.1122 C   0  0  2  0  0  0  0  0  0  0  0  0
    7.3883  -14.7167   22.8116 N   0  0  0  0  0  0  0  0  0  0  0  0
    8.6969  -15.6677   24.5977 C   0  0  0  0  0  0  0  0  0  0  0  0
    8.0800  -16.7565   24.5831 O   0  0  0  0  0  0  0  0  0  0  0  0
   11.2379  -17.6777   22.9603 N   0  0  0  0  0  0  0  0  0  0  0  0
   12.2846  -17.4582   23.8828 C   0  0  0  0  0  0  0  0  0  0  0  0
   13.4636  -17.6069   23.4185 O   0  0  0  0  0  0  0  0  0  0  0  0
   12.0406  -17.0822   25.2805 C   0  0  0  0  0  0  0  0  0  0  0  0
   10.5888  -16.9391   25.6021 C   0  0  2  0  0  0  0  0  0  0  0  0
   10.0301  -15.7010   25.1051 N   0  0  0  0  0  0  0  0  0  0  0  0
   10.2372  -17.1307   27.0127 C   0  0  0  0  0  0  0  0  0  0  0  0
   10.0862  -16.0878   27.7351 O   0  0  0  0  0  0  0  0  0  0  0  0
   10.0540  -18.3261   27.6377 O   0  0  0  0  0  0  0  0  0  0  0  0
  2  1  1  0
  3  2  1  0
  3  5  1  0
  3  4  1  6
  5  6  2  0
  5 12  1  0
  7  8  1  0
  8  9  1  0
 11 10  1  1
 10  9  1  0
 11 13  1  0
 12 11  1  0
 13 20  1  0
 14 13  2  0
 16 15  1  0
 17 16  2  0
 18 16  1  0
 19 21  1  0
 19 18  1  1
 20 19  1  0
 21 23  1  0
 22 21  2  0
M  END
$$$$
