WKL.pdb
     RDKit          3D

 32 33  0  0  1  0  0  0  0  0999 V2000
   27.7981  -21.8940  -13.4890 N   0  0  0  0  0  0  0  0  0  0  0  0
   26.6033  -21.9470  -12.6687 C   0  0  1  0  0  0  0  0  0  0  0  0
   26.5125  -20.6890  -11.8720 C   0  0  0  0  0  0  0  0  0  0  0  0
   27.5935  -20.6989  -10.8554 C   0  0  0  0  0  0  0  0  0  0  0  0
   28.9430  -20.9299  -11.0078 C   0  0  0  0  0  0  0  0  0  0  0  0
   29.5662  -20.8421   -9.8117 N   0  0  0  0  0  0  0  0  0  0  0  0
   28.6606  -20.5567   -8.8607 C   0  0  0  0  0  0  0  0  0  0  0  0
   28.7332  -20.3618   -7.5191 C   0  0  0  0  0  0  0  0  0  0  0  0
   27.6329  -20.0729   -6.7377 C   0  0  0  0  0  0  0  0  0  0  0  0
   26.4059  -19.9853   -7.3945 C   0  0  0  0  0  0  0  0  0  0  0  0
   26.3066  -20.1767   -8.7412 C   0  0  0  0  0  0  0  0  0  0  0  0
   27.4207  -20.4627   -9.4891 C   0  0  0  0  0  0  0  0  0  0  0  0
   25.3761  -22.1743  -13.5017 C   0  0  0  0  0  0  0  0  0  0  0  0
   24.8526  -21.1992  -14.0473 O   0  0  0  0  0  0  0  0  0  0  0  0
   24.8315  -23.4501  -13.6630 N   0  0  0  0  0  0  0  0  0  0  0  0
   23.6542  -23.8433  -14.3817 C   0  0  1  0  0  0  0  0  0  0  0  0
   23.5405  -25.2894  -14.7556 C   0  0  0  0  0  0  0  0  0  0  0  0
   22.3838  -25.7000  -15.5665 C   0  0  0  0  0  0  0  0  0  0  0  0
   22.4108  -27.1724  -15.9579 C   0  0  0  0  0  0  0  0  0  0  0  0
   21.1699  -27.3629  -16.8425 C   0  0  0  0  0  0  0  0  0  0  0  0
   20.9968  -28.7588  -17.2021 N   0  0  0  0  0  0  0  0  0  0  0  0
   22.4400  -23.2336  -13.8320 C   0  0  0  0  0  0  0  0  0  0  0  0
   22.1561  -23.4361  -12.6013 O   0  0  0  0  0  0  0  0  0  0  0  0
   21.0689  -19.8718  -11.5363 C   0  0  0  0  0  0  0  0  0  0  0  0
   21.3192  -19.5859  -12.9849 C   0  0  2  0  0  0  0  0  0  0  0  0
   21.1533  -18.0683  -13.1652 C   0  0  0  0  0  0  0  0  0  0  0  0
   20.4113  -20.2783  -13.9269 C   0  0  0  0  0  0  0  0  0  0  0  0
   20.3993  -21.7605  -13.9316 C   0  0  2  0  0  0  0  0  0  0  0  0
   21.5211  -22.4197  -14.5414 N   0  0  0  0  0  0  0  0  0  0  0  0
   19.1675  -22.3262  -14.5570 C   0  0  0  0  0  0  0  0  0  0  0  0
   19.1763  -22.7964  -15.7345 O   0  0  0  0  0  0  0  0  0  0  0  0
   17.9473  -22.3731  -13.8959 O   0  0  0  0  0  0  0  0  0  0  0  0
  2  1  1  6
  2 13  1  0
  2  3  1  0
  4  5  2  0
  4  3  1  0
  6  5  1  0
  7 12  2  0
  7  6  1  0
  8  7  1  0
  9 10  1  0
  9  8  2  0
 10 11  2  0
 11 12  1  0
 12  4  1  0
 13 14  2  0
 15 16  1  0
 15 13  1  0
 16 17  1  1
 18 17  1  0
 19 20  1  0
 19 18  1  0
 21 20  1  0
 22 16  1  0
 22 23  2  0
 25 24  1  1
 25 26  1  0
 25 27  1  0
 28 27  1  6
 28 29  1  0
 28 30  1  0
 29 22  1  0
 30 31  2  0
 30 32  1  0
M  END
$$$$
