WKL.pdb
     RDKit          3D

 32 33  0  0  1  0  0  0  0  0999 V2000
   24.2278  -19.9983   -9.5051 N   0  0  0  0  0  0  0  0  0  0  0  0
   25.6269  -19.9413   -9.8826 C   0  0  1  0  0  0  0  0  0  0  0  0
   26.3640  -21.0148   -9.1547 C   0  0  0  0  0  0  0  0  0  0  0  0
   26.3858  -20.6724   -7.7109 C   0  0  0  0  0  0  0  0  0  0  0  0
   25.3862  -20.7699   -6.7680 C   0  0  0  0  0  0  0  0  0  0  0  0
   25.8392  -20.3469   -5.5670 N   0  0  0  0  0  0  0  0  0  0  0  0
   27.1230  -19.9680   -5.6866 C   0  0  0  0  0  0  0  0  0  0  0  0
   28.0441  -19.4746   -4.8198 C   0  0  0  0  0  0  0  0  0  0  0  0
   29.3335  -19.1521   -5.1914 C   0  0  0  0  0  0  0  0  0  0  0  0
   29.6678  -19.3571   -6.5295 C   0  0  0  0  0  0  0  0  0  0  0  0
   28.7607  -19.8518   -7.4199 C   0  0  0  0  0  0  0  0  0  0  0  0
   27.4863  -20.1622   -7.0176 C   0  0  0  0  0  0  0  0  0  0  0  0
   25.7985  -20.0507  -11.3693 C   0  0  0  0  0  0  0  0  0  0  0  0
   24.9679  -20.7046  -12.0057 O   0  0  0  0  0  0  0  0  0  0  0  0
   26.8650  -19.4338  -12.0265 N   0  0  0  0  0  0  0  0  0  0  0  0
   27.1625  -19.4022  -13.4293 C   0  0  1  0  0  0  0  0  0  0  0  0
   28.2242  -18.4441  -13.8750 C   0  0  0  0  0  0  0  0  0  0  0  0
   28.5350  -18.3833  -15.3116 C   0  0  0  0  0  0  0  0  0  0  0  0
   27.8335  -17.2404  -16.0350 C   0  0  0  0  0  0  0  0  0  0  0  0
   28.3112  -17.3495  -17.4906 C   0  0  0  0  0  0  0  0  0  0  0  0
   27.8455  -16.2215  -18.2768 N   0  0  0  0  0  0  0  0  0  0  0  0
   27.2372  -20.7458  -14.0102 C   0  0  0  0  0  0  0  0  0  0  0  0
   27.8996  -21.6460  -13.3882 O   0  0  0  0  0  0  0  0  0  0  0  0
   24.0630  -24.6614  -16.1388 C   0  0  0  0  0  0  0  0  0  0  0  0
   24.8094  -24.5171  -14.8486 C   0  0  2  0  0  0  0  0  0  0  0  0
   23.8431  -24.9510  -13.7345 C   0  0  0  0  0  0  0  0  0  0  0  0
   25.2922  -23.1494  -14.5527 C   0  0  0  0  0  0  0  0  0  0  0  0
   26.2447  -22.5197  -15.4977 C   0  0  2  0  0  0  0  0  0  0  0  0
   26.6350  -21.1641  -15.2236 N   0  0  0  0  0  0  0  0  0  0  0  0
   25.7671  -22.5591  -16.9115 C   0  0  0  0  0  0  0  0  0  0  0  0
   26.2758  -23.3492  -17.7627 O   0  0  0  0  0  0  0  0  0  0  0  0
   24.7461  -21.7421  -17.3789 O   0  0  0  0  0  0  0  0  0  0  0  0
  2  1  1  6
  2 13  1  0
  2  3  1  0
  4  5  2  0
  4  3  1  0
  6  5  1  0
  7 12  2  0
  7  6  1  0
  8  7  1  0
  9 10  1  0
  9  8  2  0
 10 11  2  0
 11 12  1  0
 12  4  1  0
 13 14  2  0
 15 16  1  0
 15 13  1  0
 16 17  1  1
 18 17  1  0
 19 20  1  0
 19 18  1  0
 21 20  1  0
 22 16  1  0
 22 23  2  0
 25 24  1  6
 25 26  1  0
 25 27  1  0
 28 27  1  1
 28 29  1  0
 28 30  1  0
 29 22  1  0
 30 31  2  0
 30 32  1  0
M  END
$$$$
