WKL.pdb
     RDKit          3D

 32 33  0  0  1  0  0  0  0  0999 V2000
   26.0607  -19.0998  -11.2423 N   0  0  0  0  0  0  0  0  0  0  0  0
   26.2761  -20.4921  -11.5862 C   0  0  1  0  0  0  0  0  0  0  0  0
   25.8580  -21.3410  -10.4329 C   0  0  0  0  0  0  0  0  0  0  0  0
   26.4079  -20.7466   -9.1894 C   0  0  0  0  0  0  0  0  0  0  0  0
   25.7914  -19.9566   -8.2441 C   0  0  0  0  0  0  0  0  0  0  0  0
   26.6677  -19.6342   -7.2668 N   0  0  0  0  0  0  0  0  0  0  0  0
   27.8592  -20.1929   -7.5389 C   0  0  0  0  0  0  0  0  0  0  0  0
   29.0634  -20.1956   -6.9117 C   0  0  0  0  0  0  0  0  0  0  0  0
   30.1683  -20.8615   -7.4021 C   0  0  0  0  0  0  0  0  0  0  0  0
   29.9998  -21.5528   -8.6013 C   0  0  0  0  0  0  0  0  0  0  0  0
   28.8004  -21.5656   -9.2505 C   0  0  0  0  0  0  0  0  0  0  0  0
   27.7212  -20.8928   -8.7356 C   0  0  0  0  0  0  0  0  0  0  0  0
   25.5540  -20.8632  -12.8481 C   0  0  0  0  0  0  0  0  0  0  0  0
   24.4435  -20.3657  -13.0525 O   0  0  0  0  0  0  0  0  0  0  0  0
   26.1130  -21.7465  -13.7740 N   0  0  0  0  0  0  0  0  0  0  0  0
   25.6617  -22.0710  -15.0963 C   0  0  1  0  0  0  0  0  0  0  0  0
   26.6615  -22.6995  -16.0178 C   0  0  0  0  0  0  0  0  0  0  0  0
   27.9154  -21.9726  -16.2693 C   0  0  0  0  0  0  0  0  0  0  0  0
   27.7998  -20.9301  -17.3746 C   0  0  0  0  0  0  0  0  0  0  0  0
   28.5078  -19.6879  -16.8138 C   0  0  0  0  0  0  0  0  0  0  0  0
   28.5852  -18.6377  -17.8131 N   0  0  0  0  0  0  0  0  0  0  0  0
   24.3304  -22.6842  -15.0925 C   0  0  0  0  0  0  0  0  0  0  0  0
   24.1538  -23.7604  -14.4242 O   0  0  0  0  0  0  0  0  0  0  0  0
   20.0977  -22.0911  -13.0577 C   0  0  0  0  0  0  0  0  0  0  0  0
   20.5793  -21.2030  -14.1632 C   0  0  2  0  0  0  0  0  0  0  0  0
   19.5434  -20.0754  -14.2999 C   0  0  0  0  0  0  0  0  0  0  0  0
   20.7360  -21.8659  -15.4774 C   0  0  0  0  0  0  0  0  0  0  0  0
   21.8805  -22.7883  -15.6681 C   0  0  2  0  0  0  0  0  0  0  0  0
   23.1855  -22.1956  -15.7710 N   0  0  0  0  0  0  0  0  0  0  0  0
   21.7118  -23.6810  -16.8526 C   0  0  0  0  0  0  0  0  0  0  0  0
   22.5033  -23.6289  -17.8418 O   0  0  0  0  0  0  0  0  0  0  0  0
   20.6885  -24.6151  -16.9452 O   0  0  0  0  0  0  0  0  0  0  0  0
  2  1  1  1
  2 13  1  0
  2  3  1  0
  4  5  2  0
  4  3  1  0
  6  5  1  0
  7 12  2  0
  7  6  1  0
  8  7  1  0
  9 10  1  0
  9  8  2  0
 10 11  2  0
 11 12  1  0
 12  4  1  0
 13 14  2  0
 15 16  1  0
 15 13  1  0
 16 17  1  1
 18 17  1  0
 19 20  1  0
 19 18  1  0
 21 20  1  0
 22 16  1  0
 22 23  2  0
 25 24  1  1
 25 26  1  0
 25 27  1  0
 28 27  1  6
 28 29  1  0
 28 30  1  0
 29 22  1  0
 30 31  2  0
 30 32  1  0
M  END
$$$$
