WKL.pdb
     RDKit          3D

 32 33  0  0  1  0  0  0  0  0999 V2000
   25.4776  -17.2619  -20.9448 N   0  0  0  0  0  0  0  0  0  0  0  0
   24.8493  -18.4602  -20.4226 C   0  0  1  0  0  0  0  0  0  0  0  0
   23.6873  -18.8094  -21.2906 C   0  0  0  0  0  0  0  0  0  0  0  0
   22.6470  -17.7644  -21.1243 C   0  0  0  0  0  0  0  0  0  0  0  0
   22.4582  -16.5915  -21.8218 C   0  0  0  0  0  0  0  0  0  0  0  0
   21.3824  -15.9322  -21.3373 N   0  0  0  0  0  0  0  0  0  0  0  0
   20.8465  -16.6406  -20.3288 C   0  0  0  0  0  0  0  0  0  0  0  0
   19.7825  -16.4522  -19.5068 C   0  0  0  0  0  0  0  0  0  0  0  0
   19.4237  -17.3472  -18.5195 C   0  0  0  0  0  0  0  0  0  0  0  0
   20.2164  -18.4873  -18.3917 C   0  0  0  0  0  0  0  0  0  0  0  0
   21.2903  -18.6998  -19.2052 C   0  0  0  0  0  0  0  0  0  0  0  0
   21.6200  -17.7894  -20.1773 C   0  0  0  0  0  0  0  0  0  0  0  0
   25.8299  -19.5908  -20.3146 C   0  0  0  0  0  0  0  0  0  0  0  0
   26.6945  -19.6984  -21.1882 O   0  0  0  0  0  0  0  0  0  0  0  0
   25.7759  -20.5030  -19.2586 N   0  0  0  0  0  0  0  0  0  0  0  0
   26.6012  -21.6508  -19.0161 C   0  0  1  0  0  0  0  0  0  0  0  0
   26.6368  -22.1749  -17.6133 C   0  0  0  0  0  0  0  0  0  0  0  0
   27.4012  -23.4059  -17.3594 C   0  0  0  0  0  0  0  0  0  0  0  0
   28.8336  -23.1472  -16.9086 C   0  0  0  0  0  0  0  0  0  0  0  0
   29.4866  -24.5367  -16.8699 C   0  0  0  0  0  0  0  0  0  0  0  0
   30.8669  -24.4507  -16.4285 N   0  0  0  0  0  0  0  0  0  0  0  0
   26.4653  -22.6630  -20.0674 C   0  0  0  0  0  0  0  0  0  0  0  0
   25.3040  -23.1405  -20.3114 O   0  0  0  0  0  0  0  0  0  0  0  0
   28.3334  -24.6691  -25.5445 C   0  0  0  0  0  0  0  0  0  0  0  0
   27.4495  -24.7998  -24.3428 C   0  0  2  0  0  0  0  0  0  0  0  0
   26.0069  -24.6119  -24.8395 C   0  0  0  0  0  0  0  0  0  0  0  0
   27.7110  -23.8222  -23.2624 C   0  0  0  0  0  0  0  0  0  0  0  0
   27.3311  -24.1865  -21.8768 C   0  0  2  0  0  0  0  0  0  0  0  0
   27.5158  -23.1830  -20.8649 N   0  0  0  0  0  0  0  0  0  0  0  0
   28.0161  -25.4226  -21.3960 C   0  0  0  0  0  0  0  0  0  0  0  0
   29.0013  -25.3692  -20.5997 O   0  0  0  0  0  0  0  0  0  0  0  0
   27.6218  -26.6957  -21.7860 O   0  0  0  0  0  0  0  0  0  0  0  0
  2  1  1  6
  2 13  1  0
  2  3  1  0
  4  5  2  0
  4  3  1  0
  6  5  1  0
  7 12  2  0
  7  6  1  0
  8  7  1  0
  9 10  1  0
  9  8  2  0
 10 11  2  0
 11 12  1  0
 12  4  1  0
 13 14  2  0
 15 16  1  0
 15 13  1  0
 16 17  1  1
 18 17  1  0
 19 20  1  0
 19 18  1  0
 21 20  1  0
 22 16  1  0
 22 23  2  0
 25 24  1  6
 25 26  1  0
 25 27  1  0
 28 27  1  6
 28 29  1  0
 28 30  1  0
 29 22  1  0
 30 31  2  0
 30 32  1  0
M  END
$$$$
