WKL.pdb
     RDKit          3D

 32 33  0  0  1  0  0  0  0  0999 V2000
   27.4594  -22.3864  -13.4226 N   0  0  0  0  0  0  0  0  0  0  0  0
   26.2841  -21.9189  -12.7131 C   0  0  1  0  0  0  0  0  0  0  0  0
   26.5646  -20.5607  -12.1635 C   0  0  0  0  0  0  0  0  0  0  0  0
   27.5590  -20.6934  -11.0701 C   0  0  0  0  0  0  0  0  0  0  0  0
   28.8942  -21.0272  -11.1304 C   0  0  0  0  0  0  0  0  0  0  0  0
   29.4272  -21.0319   -9.8884 N   0  0  0  0  0  0  0  0  0  0  0  0
   28.4752  -20.7076   -8.9970 C   0  0  0  0  0  0  0  0  0  0  0  0
   28.4581  -20.5661   -7.6469 C   0  0  0  0  0  0  0  0  0  0  0  0
   27.3261  -20.2166   -6.9389 C   0  0  0  0  0  0  0  0  0  0  0  0
   26.1646  -20.0073   -7.6815 C   0  0  0  0  0  0  0  0  0  0  0  0
   26.1559  -20.1429   -9.0386 C   0  0  0  0  0  0  0  0  0  0  0  0
   27.2992  -20.4917   -9.7121 C   0  0  0  0  0  0  0  0  0  0  0  0
   25.0709  -21.9284  -13.5959 C   0  0  0  0  0  0  0  0  0  0  0  0
   25.0527  -21.1719  -14.5704 O   0  0  0  0  0  0  0  0  0  0  0  0
   23.9852  -22.7663  -13.3324 N   0  0  0  0  0  0  0  0  0  0  0  0
   22.7629  -22.9160  -14.0679 C   0  0  1  0  0  0  0  0  0  0  0  0
   22.2865  -24.3150  -14.3118 C   0  0  0  0  0  0  0  0  0  0  0  0
   22.7743  -25.0065  -15.5152 C   0  0  0  0  0  0  0  0  0  0  0  0
   24.2922  -25.1276  -15.5705 C   0  0  0  0  0  0  0  0  0  0  0  0
   24.5756  -25.8756  -16.8815 C   0  0  0  0  0  0  0  0  0  0  0  0
   26.0022  -25.9499  -17.1401 N   0  0  0  0  0  0  0  0  0  0  0  0
   21.7362  -21.9633  -13.6360 C   0  0  0  0  0  0  0  0  0  0  0  0
   21.5039  -21.8388  -12.3844 O   0  0  0  0  0  0  0  0  0  0  0  0
   20.7920  -17.4164  -12.8235 C   0  0  0  0  0  0  0  0  0  0  0  0
   20.9056  -17.8397  -14.2554 C   0  0  2  0  0  0  0  0  0  0  0  0
   20.6802  -16.5772  -15.1031 C   0  0  0  0  0  0  0  0  0  0  0  0
   19.9391  -18.8767  -14.6816 C   0  0  0  0  0  0  0  0  0  0  0  0
   19.9801  -20.1962  -14.0076 C   0  0  2  0  0  0  0  0  0  0  0  0
   20.9514  -21.1420  -14.4843 N   0  0  0  0  0  0  0  0  0  0  0  0
   18.6576  -20.8887  -14.0123 C   0  0  0  0  0  0  0  0  0  0  0  0
   18.3501  -21.7274  -14.9120 O   0  0  0  0  0  0  0  0  0  0  0  0
   17.6908  -20.6607  -13.0419 O   0  0  0  0  0  0  0  0  0  0  0  0
  2  1  1  6
  2 13  1  0
  2  3  1  0
  4  5  2  0
  4  3  1  0
  6  5  1  0
  7 12  2  0
  7  6  1  0
  8  7  1  0
  9 10  1  0
  9  8  2  0
 10 11  2  0
 11 12  1  0
 12  4  1  0
 13 14  2  0
 15 16  1  0
 15 13  1  0
 16 17  1  1
 18 17  1  0
 19 20  1  0
 19 18  1  0
 21 20  1  0
 22 16  1  0
 22 23  2  0
 25 24  1  1
 25 26  1  0
 25 27  1  0
 28 27  1  6
 28 29  1  0
 28 30  1  0
 29 22  1  0
 30 31  2  0
 30 32  1  0
M  END
$$$$
