WKL.pdb
     RDKit          3D

 32 33  0  0  1  0  0  0  0  0999 V2000
   16.0964  -14.7751    7.3885 N   0  0  0  0  0  0  0  0  0  0  0  0
   16.7796  -15.8443    6.6863 C   0  0  1  0  0  0  0  0  0  0  0  0
   18.2292  -15.5053    6.5902 C   0  0  0  0  0  0  0  0  0  0  0  0
   18.3858  -14.3830    5.6321 C   0  0  0  0  0  0  0  0  0  0  0  0
   18.5930  -13.0425    5.8729 C   0  0  0  0  0  0  0  0  0  0  0  0
   18.6778  -12.3694    4.7039 N   0  0  0  0  0  0  0  0  0  0  0  0
   18.5316  -13.2328    3.6845 C   0  0  0  0  0  0  0  0  0  0  0  0
   18.5313  -13.1030    2.3331 C   0  0  0  0  0  0  0  0  0  0  0  0
   18.3564  -14.1678    1.4726 C   0  0  0  0  0  0  0  0  0  0  0  0
   18.1745  -15.4204    2.0577 C   0  0  0  0  0  0  0  0  0  0  0  0
   18.1710  -15.5771    3.4125 C   0  0  0  0  0  0  0  0  0  0  0  0
   18.3476  -14.4971    4.2401 C   0  0  0  0  0  0  0  0  0  0  0  0
   16.5555  -17.1694    7.3537 C   0  0  0  0  0  0  0  0  0  0  0  0
   16.7493  -17.2503    8.5696 O   0  0  0  0  0  0  0  0  0  0  0  0
   16.1388  -18.2883    6.6294 N   0  0  0  0  0  0  0  0  0  0  0  0
   16.1912  -19.6729    7.0003 C   0  0  1  0  0  0  0  0  0  0  0  0
   15.2203  -20.5920    6.3248 C   0  0  0  0  0  0  0  0  0  0  0  0
   13.7851  -20.3600    6.5493 C   0  0  0  0  0  0  0  0  0  0  0  0
   12.9617  -20.3736    5.2673 C   0  0  0  0  0  0  0  0  0  0  0  0
   11.5253  -20.0785    5.7240 C   0  0  0  0  0  0  0  0  0  0  0  0
   10.6272  -19.9839    4.5873 N   0  0  0  0  0  0  0  0  0  0  0  0
   17.5671  -20.1677    7.1011 C   0  0  0  0  0  0  0  0  0  0  0  0
   18.3935  -19.8736    6.1701 O   0  0  0  0  0  0  0  0  0  0  0  0
   21.9506  -19.3805    8.5739 C   0  0  0  0  0  0  0  0  0  0  0  0
   20.8114  -19.5851    9.5242 C   0  0  2  0  0  0  0  0  0  0  0  0
   21.3704  -19.3399   10.9351 C   0  0  0  0  0  0  0  0  0  0  0  0
   20.1952  -20.9304    9.4846 C   0  0  0  0  0  0  0  0  0  0  0  0
   19.4756  -21.3387    8.2547 C   0  0  2  0  0  0  0  0  0  0  0  0
   18.0930  -20.9606    8.1522 N   0  0  0  0  0  0  0  0  0  0  0  0
   19.5458  -22.8089    8.0056 C   0  0  0  0  0  0  0  0  0  0  0  0
   18.5043  -23.5320    7.9992 O   0  0  0  0  0  0  0  0  0  0  0  0
   20.7432  -23.4706    7.7674 O   0  0  0  0  0  0  0  0  0  0  0  0
  2  1  1  1
  2 13  1  0
  2  3  1  0
  4  5  2  0
  4  3  1  0
  6  5  1  0
  7 12  2  0
  7  6  1  0
  8  7  1  0
  9 10  1  0
  9  8  2  0
 10 11  2  0
 11 12  1  0
 12  4  1  0
 13 14  2  0
 15 16  1  0
 15 13  1  0
 16 17  1  6
 18 17  1  0
 19 20  1  0
 19 18  1  0
 21 20  1  0
 22 16  1  0
 22 23  2  0
 25 24  1  6
 25 26  1  0
 25 27  1  0
 28 27  1  1
 28 29  1  0
 28 30  1  0
 29 22  1  0
 30 31  2  0
 30 32  1  0
M  END
$$$$
