WKL.pdb
     RDKit          3D

 32 33  0  0  1  0  0  0  0  0999 V2000
   23.8333  -20.8639  -16.4005 N   0  0  0  0  0  0  0  0  0  0  0  0
   24.5705  -19.8699  -15.6444 C   0  0  1  0  0  0  0  0  0  0  0  0
   23.6087  -18.8598  -15.1151 C   0  0  0  0  0  0  0  0  0  0  0  0
   22.9175  -18.2235  -16.2638 C   0  0  0  0  0  0  0  0  0  0  0  0
   21.5702  -18.1151  -16.5300 C   0  0  0  0  0  0  0  0  0  0  0  0
   21.3795  -17.4543  -17.6935 N   0  0  0  0  0  0  0  0  0  0  0  0
   22.5727  -17.1177  -18.2120 C   0  0  0  0  0  0  0  0  0  0  0  0
   22.9601  -16.4609  -19.3353 C   0  0  0  0  0  0  0  0  0  0  0  0
   24.2823  -16.2327  -19.6582 C   0  0  0  0  0  0  0  0  0  0  0  0
   25.2363  -16.7151  -18.7628 C   0  0  0  0  0  0  0  0  0  0  0  0
   24.8729  -17.3778  -17.6275 C   0  0  0  0  0  0  0  0  0  0  0  0
   23.5488  -17.5881  -17.3361 C   0  0  0  0  0  0  0  0  0  0  0  0
   25.3799  -20.5024  -14.5506 C   0  0  0  0  0  0  0  0  0  0  0  0
   24.8035  -21.2504  -13.7565 O   0  0  0  0  0  0  0  0  0  0  0  0
   26.7491  -20.2589  -14.4242 N   0  0  0  0  0  0  0  0  0  0  0  0
   27.5726  -20.3293  -13.2519 C   0  0  1  0  0  0  0  0  0  0  0  0
   29.0090  -19.9345  -13.4088 C   0  0  0  0  0  0  0  0  0  0  0  0
   29.8724  -19.9978  -12.2193 C   0  0  0  0  0  0  0  0  0  0  0  0
   30.2638  -21.4180  -11.8301 C   0  0  0  0  0  0  0  0  0  0  0  0
   31.0740  -21.2576  -10.5353 C   0  0  0  0  0  0  0  0  0  0  0  0
   31.4222  -22.5512   -9.9759 N   0  0  0  0  0  0  0  0  0  0  0  0
   26.8951  -19.7972  -12.0661 C   0  0  0  0  0  0  0  0  0  0  0  0
   26.1188  -18.7901  -12.2046 O   0  0  0  0  0  0  0  0  0  0  0  0
   23.7910  -21.3208   -7.7719 C   0  0  0  0  0  0  0  0  0  0  0  0
   23.5980  -20.4968   -9.0073 C   0  0  2  0  0  0  0  0  0  0  0  0
   22.2541  -20.9298   -9.6153 C   0  0  0  0  0  0  0  0  0  0  0  0
   24.6542  -20.6477  -10.0334 C   0  0  0  0  0  0  0  0  0  0  0  0
   26.0081  -20.1255   -9.7316 C   0  0  2  0  0  0  0  0  0  0  0  0
   27.0134  -20.2959  -10.7442 N   0  0  0  0  0  0  0  0  0  0  0  0
   26.5695  -20.6751   -8.4622 C   0  0  0  0  0  0  0  0  0  0  0  0
   26.4463  -20.0602   -7.3603 O   0  0  0  0  0  0  0  0  0  0  0  0
   27.2547  -21.8817   -8.4083 O   0  0  0  0  0  0  0  0  0  0  0  0
  2  1  1  1
  2 13  1  0
  2  3  1  0
  4  5  2  0
  4  3  1  0
  6  5  1  0
  7 12  2  0
  7  6  1  0
  8  7  1  0
  9 10  1  0
  9  8  2  0
 10 11  2  0
 11 12  1  0
 12  4  1  0
 13 14  2  0
 15 16  1  0
 15 13  1  0
 16 17  1  6
 18 17  1  0
 19 20  1  0
 19 18  1  0
 21 20  1  0
 22 16  1  0
 22 23  2  0
 25 24  1  1
 25 26  1  0
 25 27  1  0
 28 27  1  6
 28 29  1  0
 28 30  1  0
 29 22  1  0
 30 31  2  0
 30 32  1  0
M  END
$$$$
