WKL.pdb
     RDKit          3D

 32 33  0  0  1  0  0  0  0  0999 V2000
   26.3538  -23.1653  -12.4428 N   0  0  0  0  0  0  0  0  0  0  0  0
   25.7866  -21.9586  -11.8723 C   0  0  1  0  0  0  0  0  0  0  0  0
   26.7282  -20.8266  -12.1117 C   0  0  0  0  0  0  0  0  0  0  0  0
   27.8113  -20.8956  -11.0996 C   0  0  0  0  0  0  0  0  0  0  0  0
   29.1059  -21.3494  -11.2255 C   0  0  0  0  0  0  0  0  0  0  0  0
   29.7550  -21.2318  -10.0458 N   0  0  0  0  0  0  0  0  0  0  0  0
   28.9205  -20.7080   -9.1319 C   0  0  0  0  0  0  0  0  0  0  0  0
   29.0448  -20.3836   -7.8195 C   0  0  0  0  0  0  0  0  0  0  0  0
   28.0158  -19.8442   -7.0746 C   0  0  0  0  0  0  0  0  0  0  0  0
   26.8065  -19.6374   -7.7374 C   0  0  0  0  0  0  0  0  0  0  0  0
   26.6564  -19.9546   -9.0554 C   0  0  0  0  0  0  0  0  0  0  0  0
   27.7000  -20.4898   -9.7673 C   0  0  0  0  0  0  0  0  0  0  0  0
   24.4204  -21.6800  -12.4267 C   0  0  0  0  0  0  0  0  0  0  0  0
   24.1981  -21.9722  -13.6046 O   0  0  0  0  0  0  0  0  0  0  0  0
   23.4190  -21.1057  -11.6408 N   0  0  0  0  0  0  0  0  0  0  0  0
   22.0163  -20.9846  -11.9151 C   0  0  1  0  0  0  0  0  0  0  0  0
   21.1139  -20.7580  -10.7411 C   0  0  0  0  0  0  0  0  0  0  0  0
   19.6633  -20.7350  -10.9845 C   0  0  0  0  0  0  0  0  0  0  0  0
   19.0105  -22.1082  -10.8842 C   0  0  0  0  0  0  0  0  0  0  0  0
   17.8687  -22.0725  -11.9107 C   0  0  0  0  0  0  0  0  0  0  0  0
   17.1919  -23.3549  -11.9807 N   0  0  0  0  0  0  0  0  0  0  0  0
   21.7515  -20.1474  -13.0886 C   0  0  0  0  0  0  0  0  0  0  0  0
   22.0648  -18.9083  -13.0403 O   0  0  0  0  0  0  0  0  0  0  0  0
   23.0861  -18.6589  -17.2423 C   0  0  0  0  0  0  0  0  0  0  0  0
   22.5010  -20.0363  -17.1891 C   0  0  2  0  0  0  0  0  0  0  0  0
   22.5998  -20.6079  -18.6127 C   0  0  0  0  0  0  0  0  0  0  0  0
   21.0895  -20.1017  -16.7478 C   0  0  0  0  0  0  0  0  0  0  0  0
   20.7660  -19.6902  -15.3612 C   0  0  2  0  0  0  0  0  0  0  0  0
   21.1681  -20.5795  -14.3064 N   0  0  0  0  0  0  0  0  0  0  0  0
   19.3128  -19.4100  -15.1658 C   0  0  0  0  0  0  0  0  0  0  0  0
   18.8082  -18.2841  -15.4580 O   0  0  0  0  0  0  0  0  0  0  0  0
   18.4310  -20.3546  -14.6575 O   0  0  0  0  0  0  0  0  0  0  0  0
  2  1  1  6
  2 13  1  0
  2  3  1  0
  4  5  2  0
  4  3  1  0
  6  5  1  0
  7 12  2  0
  7  6  1  0
  8  7  1  0
  9 10  1  0
  9  8  2  0
 10 11  2  0
 11 12  1  0
 12  4  1  0
 13 14  2  0
 15 16  1  0
 15 13  1  0
 16 17  1  1
 18 17  1  0
 19 20  1  0
 19 18  1  0
 21 20  1  0
 22 16  1  0
 22 23  2  0
 25 24  1  6
 25 26  1  0
 25 27  1  0
 28 27  1  6
 28 29  1  0
 28 30  1  0
 29 22  1  0
 30 31  2  0
 30 32  1  0
M  END
$$$$
