WKL.pdb
     RDKit          3D

 32 33  0  0  1  0  0  0  0  0999 V2000
   24.0917  -12.8389  -20.2620 N   0  0  0  0  0  0  0  0  0  0  0  0
   24.4408  -12.0316  -19.1089 C   0  0  1  0  0  0  0  0  0  0  0  0
   25.8374  -11.5348  -19.2765 C   0  0  0  0  0  0  0  0  0  0  0  0
   26.7593  -12.6956  -19.2086 C   0  0  0  0  0  0  0  0  0  0  0  0
   26.5950  -13.9789  -19.6818 C   0  0  0  0  0  0  0  0  0  0  0  0
   27.6908  -14.7195  -19.4030 N   0  0  0  0  0  0  0  0  0  0  0  0
   28.5861  -13.9573  -18.7523 C   0  0  0  0  0  0  0  0  0  0  0  0
   29.8260  -14.1840  -18.2478 C   0  0  0  0  0  0  0  0  0  0  0  0
   30.5677  -13.2146  -17.6038 C   0  0  0  0  0  0  0  0  0  0  0  0
   29.9812  -11.9550  -17.4856 C   0  0  0  0  0  0  0  0  0  0  0  0
   28.7371  -11.7019  -17.9841 C   0  0  0  0  0  0  0  0  0  0  0  0
   28.0261  -12.6886  -18.6191 C   0  0  0  0  0  0  0  0  0  0  0  0
   23.4651  -10.9091  -18.9099 C   0  0  0  0  0  0  0  0  0  0  0  0
   23.2736  -10.1298  -19.8471 O   0  0  0  0  0  0  0  0  0  0  0  0
   22.7859  -10.7403  -17.7015 N   0  0  0  0  0  0  0  0  0  0  0  0
   21.8656   -9.7079  -17.3213 C   0  0  1  0  0  0  0  0  0  0  0  0
   20.6434  -10.1342  -16.5677 C   0  0  0  0  0  0  0  0  0  0  0  0
   19.6640  -10.9786  -17.2690 C   0  0  0  0  0  0  0  0  0  0  0  0
   19.6779  -12.4313  -16.8094 C   0  0  0  0  0  0  0  0  0  0  0  0
   18.5072  -13.0872  -17.5565 C   0  0  0  0  0  0  0  0  0  0  0  0
   18.3282  -14.4651  -17.1356 N   0  0  0  0  0  0  0  0  0  0  0  0
   22.5493   -8.5207  -16.8004 C   0  0  0  0  0  0  0  0  0  0  0  0
   23.6604   -8.6741  -16.1857 O   0  0  0  0  0  0  0  0  0  0  0  0
   24.9940   -4.3817  -15.3697 C   0  0  0  0  0  0  0  0  0  0  0  0
   24.5326   -4.2222  -16.7854 C   0  0  2  0  0  0  0  0  0  0  0  0
   23.6807   -2.9432  -16.8254 C   0  0  0  0  0  0  0  0  0  0  0  0
   23.7269   -5.3463  -17.3131 C   0  0  0  0  0  0  0  0  0  0  0  0
   22.8086   -6.0497  -16.3862 C   0  0  2  0  0  0  0  0  0  0  0  0
   22.0952   -7.1820  -16.9096 N   0  0  0  0  0  0  0  0  0  0  0  0
   21.7952   -5.1394  -15.7756 C   0  0  0  0  0  0  0  0  0  0  0  0
   20.6400   -4.9984  -16.2789 O   0  0  0  0  0  0  0  0  0  0  0  0
   22.0506   -4.3974  -14.6300 O   0  0  0  0  0  0  0  0  0  0  0  0
  2  1  1  6
  2 13  1  0
  2  3  1  0
  4  5  2  0
  4  3  1  0
  6  5  1  0
  7 12  2  0
  7  6  1  0
  8  7  1  0
  9 10  1  0
  9  8  2  0
 10 11  2  0
 11 12  1  0
 12  4  1  0
 13 14  2  0
 15 16  1  0
 15 13  1  0
 16 17  1  1
 18 17  1  0
 19 20  1  0
 19 18  1  0
 21 20  1  0
 22 16  1  0
 22 23  2  0
 25 24  1  1
 25 26  1  0
 25 27  1  0
 28 27  1  6
 28 29  1  0
 28 30  1  0
 29 22  1  0
 30 31  2  0
 30 32  1  0
M  END
$$$$
