NYE.pdb
     RDKit          3D

 30 30  0  0  1  0  0  0  0  0999 V2000
   33.4983  -14.6854  -19.6492 N   0  0  0  0  0  0  0  0  0  0  0  0
   33.8322  -13.3139  -19.7970 C   0  0  0  0  0  0  0  0  0  0  0  0
   34.7021  -13.0133  -20.6442 O   0  0  0  0  0  0  0  0  0  0  0  0
   33.1924  -12.2642  -18.9945 C   0  0  0  0  0  0  0  0  0  0  0  0
   34.0868  -11.2127  -18.4570 C   0  0  2  0  0  0  0  0  0  0  0  0
   35.2083  -11.6798  -17.7099 N   0  0  0  0  0  0  0  0  0  0  0  0
   33.3301  -10.1327  -17.7289 C   0  0  0  0  0  0  0  0  0  0  0  0
   32.7273  -10.4058  -16.6731 O   0  0  0  0  0  0  0  0  0  0  0  0
   37.4603   -8.5223  -13.6293 O   0  0  0  0  0  0  0  0  0  0  0  0
   36.5006   -8.0651  -14.5504 C   0  0  0  0  0  0  0  0  0  0  0  0
   35.3193   -7.5346  -14.0929 C   0  0  0  0  0  0  0  0  0  0  0  0
   34.3837   -7.0895  -14.9746 C   0  0  0  0  0  0  0  0  0  0  0  0
   34.5634   -7.1439  -16.3631 C   0  0  0  0  0  0  0  0  0  0  0  0
   33.4962   -6.6187  -17.2411 C   0  0  0  0  0  0  0  0  0  0  0  0
   32.5664   -7.7221  -17.7489 C   0  0  2  0  0  0  0  0  0  0  0  0
   33.3079   -8.8251  -18.2437 N   0  0  0  0  0  0  0  0  0  0  0  0
   31.5221   -7.2047  -18.6442 C   0  0  0  0  0  0  0  0  0  0  0  0
   31.7864   -6.7959  -19.8206 O   0  0  0  0  0  0  0  0  0  0  0  0
   35.7474   -7.6756  -16.7913 C   0  0  0  0  0  0  0  0  0  0  0  0
   36.7172   -8.1370  -15.8891 C   0  0  0  0  0  0  0  0  0  0  0  0
   30.1926   -7.1651  -18.1760 N   0  0  0  0  0  0  0  0  0  0  0  0
   29.0895   -6.7264  -19.0769 C   0  0  1  0  0  0  0  0  0  0  0  0
   28.0003   -7.7138  -18.9587 C   0  0  0  0  0  0  0  0  0  0  0  0
   26.7303   -7.4847  -19.7033 C   0  0  0  0  0  0  0  0  0  0  0  0
   25.7218   -8.5354  -19.5038 C   0  0  0  0  0  0  0  0  0  0  0  0
   24.5873   -8.4086  -20.0163 O   0  0  0  0  0  0  0  0  0  0  0  0
   28.8669   -5.3302  -18.8264 C   0  0  0  0  0  0  0  0  0  0  0  0
   29.2063   -4.7815  -17.7341 O   0  0  0  0  0  0  0  0  0  0  0  0
   25.9688   -9.7009  -18.7571 O   0  0  0  0  0  0  0  0  0  0  0  0
   28.2795   -4.4804  -19.7448 O   0  0  0  0  0  0  0  0  0  0  0  0
  2  1  1  0
  2  3  2  0
  4  2  1  0
  5  4  1  0
  5  6  1  1
  7  5  1  0
  7  8  2  0
 10 20  2  0
 10  9  1  0
 11 10  1  0
 12 13  1  0
 12 11  2  0
 13 19  2  0
 14 13  1  0
 15 14  1  6
 15 16  1  0
 16  7  1  0
 17 15  1  0
 17 18  2  0
 19 20  1  0
 21 22  1  0
 21 17  1  0
 22 23  1  1
 23 24  1  0
 24 25  1  0
 25 29  1  0
 25 26  2  0
 27 22  1  0
 28 27  2  0
 30 27  1  0
M  END
$$$$
