NYE.pdb
     RDKit          3D

 30 30  0  0  1  0  0  0  0  0999 V2000
   42.9436  -10.0015   -4.4993 N   0  0  0  0  0  0  0  0  0  0  0  0
   42.7444   -8.6609   -4.9207 C   0  0  0  0  0  0  0  0  0  0  0  0
   43.1149   -7.7466   -4.1517 O   0  0  0  0  0  0  0  0  0  0  0  0
   42.1266   -8.3324   -6.2112 C   0  0  0  0  0  0  0  0  0  0  0  0
   41.5407   -9.4651   -6.9651 C   0  0  2  0  0  0  0  0  0  0  0  0
   42.4342  -10.5363   -7.2620 N   0  0  0  0  0  0  0  0  0  0  0  0
   40.7757   -9.0110   -8.1807 C   0  0  0  0  0  0  0  0  0  0  0  0
   41.2724   -9.1593   -9.3137 O   0  0  0  0  0  0  0  0  0  0  0  0
   37.4904  -13.7602   -6.8007 O   0  0  0  0  0  0  0  0  0  0  0  0
   37.4612  -12.4720   -7.3649 C   0  0  0  0  0  0  0  0  0  0  0  0
   37.7675  -12.3056   -8.6933 C   0  0  0  0  0  0  0  0  0  0  0  0
   37.7428  -11.0644   -9.2496 C   0  0  0  0  0  0  0  0  0  0  0  0
   37.4128   -9.9134   -8.5219 C   0  0  0  0  0  0  0  0  0  0  0  0
   37.3957   -8.6098   -9.2189 C   0  0  0  0  0  0  0  0  0  0  0  0
   38.7073   -7.8418   -9.0465 C   0  0  2  0  0  0  0  0  0  0  0  0
   39.5079   -8.4230   -8.0304 N   0  0  0  0  0  0  0  0  0  0  0  0
   38.4955   -6.3916   -8.9378 C   0  0  0  0  0  0  0  0  0  0  0  0
   38.2129   -5.8342   -7.8286 O   0  0  0  0  0  0  0  0  0  0  0  0
   37.1118  -10.1073   -7.2028 C   0  0  0  0  0  0  0  0  0  0  0  0
   37.1351  -11.3835   -6.6213 C   0  0  0  0  0  0  0  0  0  0  0  0
   38.6116   -5.6049  -10.1022 N   0  0  0  0  0  0  0  0  0  0  0  0
   38.4883   -4.1218  -10.0247 C   0  0  1  0  0  0  0  0  0  0  0  0
   39.7980   -3.5886   -9.6055 C   0  0  0  0  0  0  0  0  0  0  0  0
   40.9972   -3.8705  -10.4435 C   0  0  0  0  0  0  0  0  0  0  0  0
   42.2263   -3.2198   -9.9673 C   0  0  0  0  0  0  0  0  0  0  0  0
   43.1326   -3.9122   -9.4524 O   0  0  0  0  0  0  0  0  0  0  0  0
   37.8533   -3.6849  -11.2361 C   0  0  0  0  0  0  0  0  0  0  0  0
   37.4829   -2.4834  -11.4046 O   0  0  0  0  0  0  0  0  0  0  0  0
   42.4456   -1.8345  -10.0648 O   0  0  0  0  0  0  0  0  0  0  0  0
   37.6038   -4.5245  -12.3055 O   0  0  0  0  0  0  0  0  0  0  0  0
  2  1  1  0
  2  3  2  0
  4  2  1  0
  5  4  1  0
  5  6  1  6
  7  5  1  0
  7  8  2  0
 10 20  2  0
 10  9  1  0
 11 10  1  0
 12 13  1  0
 12 11  2  0
 13 19  2  0
 14 13  1  0
 15 14  1  1
 15 16  1  0
 16  7  1  0
 17 15  1  0
 17 18  2  0
 19 20  1  0
 21 22  1  0
 21 17  1  0
 22 23  1  6
 23 24  1  0
 24 25  1  0
 25 29  1  0
 25 26  2  0
 27 22  1  0
 28 27  2  0
 30 27  1  0
M  END
$$$$
