NYE.pdb
     RDKit          3D

 30 30  0  0  1  0  0  0  0  0999 V2000
   21.4851  -12.0090  -19.9870 N   0  0  0  0  0  0  0  0  0  0  0  0
   20.7781  -10.8022  -20.2287 C   0  0  0  0  0  0  0  0  0  0  0  0
   20.7137  -10.3900  -21.4080 O   0  0  0  0  0  0  0  0  0  0  0  0
   20.1352  -10.0448  -19.1479 C   0  0  0  0  0  0  0  0  0  0  0  0
   20.3521  -10.5515  -17.7729 C   0  0  2  0  0  0  0  0  0  0  0  0
   19.8828  -11.8747  -17.5221 N   0  0  0  0  0  0  0  0  0  0  0  0
   19.8889   -9.5766  -16.7222 C   0  0  0  0  0  0  0  0  0  0  0  0
   18.6808   -9.2823  -16.6428 O   0  0  0  0  0  0  0  0  0  0  0  0
   19.6966   -4.9181   -9.2841 O   0  0  0  0  0  0  0  0  0  0  0  0
   20.0580   -5.7886  -10.3282 C   0  0  0  0  0  0  0  0  0  0  0  0
   21.0556   -5.4260  -11.1997 C   0  0  0  0  0  0  0  0  0  0  0  0
   21.4132   -6.2598  -12.2134 C   0  0  0  0  0  0  0  0  0  0  0  0
   20.8029   -7.5035  -12.4238 C   0  0  0  0  0  0  0  0  0  0  0  0
   21.2729   -8.3480  -13.5425 C   0  0  0  0  0  0  0  0  0  0  0  0
   20.5734   -8.0088  -14.8599 C   0  0  2  0  0  0  0  0  0  0  0  0
   20.8207   -9.0047  -15.8388 N   0  0  0  0  0  0  0  0  0  0  0  0
   20.8227   -6.6241  -15.2844 C   0  0  0  0  0  0  0  0  0  0  0  0
   21.9154   -6.2762  -15.8374 O   0  0  0  0  0  0  0  0  0  0  0  0
   19.8141   -7.8397  -11.5423 C   0  0  0  0  0  0  0  0  0  0  0  0
   19.4390   -6.9858  -10.4946 C   0  0  0  0  0  0  0  0  0  0  0  0
   19.8150   -5.6617  -15.0683 N   0  0  0  0  0  0  0  0  0  0  0  0
   20.0370   -4.2391  -15.4529 C   0  0  1  0  0  0  0  0  0  0  0  0
   19.0169   -3.8864  -16.4580 C   0  0  0  0  0  0  0  0  0  0  0  0
   18.9150   -2.4745  -16.9228 C   0  0  0  0  0  0  0  0  0  0  0  0
   18.0402   -2.2903  -18.0897 C   0  0  0  0  0  0  0  0  0  0  0  0
   17.4505   -3.2779  -18.5822 O   0  0  0  0  0  0  0  0  0  0  0  0
   20.1835   -3.4889  -14.2374 C   0  0  0  0  0  0  0  0  0  0  0  0
   21.2861   -2.9566  -13.9055 O   0  0  0  0  0  0  0  0  0  0  0  0
   17.8219   -1.0387  -18.6921 O   0  0  0  0  0  0  0  0  0  0  0  0
   19.1476   -3.2822  -13.3458 O   0  0  0  0  0  0  0  0  0  0  0  0
  2  1  1  0
  2  3  2  0
  4  2  1  0
  5  4  1  0
  5  6  1  6
  7  5  1  0
  7  8  2  0
 10 20  2  0
 10  9  1  0
 11 10  1  0
 12 13  1  0
 12 11  2  0
 13 19  2  0
 14 13  1  0
 15 14  1  1
 15 16  1  0
 16  7  1  0
 17 15  1  0
 17 18  2  0
 19 20  1  0
 21 22  1  0
 21 17  1  0
 22 23  1  1
 23 24  1  0
 24 25  1  0
 25 29  1  0
 25 26  2  0
 27 22  1  0
 28 27  2  0
 30 27  1  0
M  END
$$$$
