NYE.pdb
     RDKit          3D

 30 30  0  0  1  0  0  0  0  0999 V2000
   11.7221  -11.9410   -9.9154 N   0  0  0  0  0  0  0  0  0  0  0  0
   12.7476  -11.7375  -10.8753 C   0  0  0  0  0  0  0  0  0  0  0  0
   13.2018  -12.7425  -11.4655 O   0  0  0  0  0  0  0  0  0  0  0  0
   13.2744  -10.4023  -11.1830 C   0  0  0  0  0  0  0  0  0  0  0  0
   14.7169  -10.3260  -11.5113 C   0  0  2  0  0  0  0  0  0  0  0  0
   15.6066  -10.7662  -10.4873 N   0  0  0  0  0  0  0  0  0  0  0  0
   15.1094   -8.9809  -12.0642 C   0  0  0  0  0  0  0  0  0  0  0  0
   14.5138   -8.5248  -13.0591 O   0  0  0  0  0  0  0  0  0  0  0  0
   13.1021   -6.9857   -6.5915 O   0  0  0  0  0  0  0  0  0  0  0  0
   13.7633   -6.7112   -7.8023 C   0  0  0  0  0  0  0  0  0  0  0  0
   14.9933   -6.1007   -7.7809 C   0  0  0  0  0  0  0  0  0  0  0  0
   15.6418   -5.8301   -8.9458 C   0  0  0  0  0  0  0  0  0  0  0  0
   15.1094   -6.1487  -10.2021 C   0  0  0  0  0  0  0  0  0  0  0  0
   15.8978   -5.8312  -11.4117 C   0  0  0  0  0  0  0  0  0  0  0  0
   16.7097   -7.0293  -11.9069 C   0  0  2  0  0  0  0  0  0  0  0  0
   16.1439   -8.2491  -11.4561 N   0  0  0  0  0  0  0  0  0  0  0  0
   18.1498   -6.8676  -11.6625 C   0  0  0  0  0  0  0  0  0  0  0  0
   18.7082   -7.3160  -10.6099 O   0  0  0  0  0  0  0  0  0  0  0  0
   13.8849   -6.7558  -10.1947 C   0  0  0  0  0  0  0  0  0  0  0  0
   13.2094   -7.0381   -8.9984 C   0  0  0  0  0  0  0  0  0  0  0  0
   18.9255   -6.1951  -12.6291 N   0  0  0  0  0  0  0  0  0  0  0  0
   20.4005   -6.4000  -12.6869 C   0  0  1  0  0  0  0  0  0  0  0  0
   20.6525   -7.5755  -13.5412 C   0  0  0  0  0  0  0  0  0  0  0  0
   22.0587   -7.9886  -13.8095 C   0  0  0  0  0  0  0  0  0  0  0  0
   22.1815   -9.1458  -14.7076 C   0  0  0  0  0  0  0  0  0  0  0  0
   22.6144   -8.9827  -15.8703 O   0  0  0  0  0  0  0  0  0  0  0  0
   20.9952   -5.1244  -12.9714 C   0  0  0  0  0  0  0  0  0  0  0  0
   20.3564   -4.2030  -13.5648 O   0  0  0  0  0  0  0  0  0  0  0  0
   21.8363  -10.4531  -14.3223 O   0  0  0  0  0  0  0  0  0  0  0  0
   22.2919   -4.7984  -12.6206 O   0  0  0  0  0  0  0  0  0  0  0  0
  2  1  1  0
  2  3  2  0
  4  2  1  0
  5  4  1  0
  5  6  1  1
  7  5  1  0
  7  8  2  0
 10 20  2  0
 10  9  1  0
 11 10  1  0
 12 13  1  0
 12 11  2  0
 13 19  2  0
 14 13  1  0
 15 14  1  1
 15 16  1  0
 16  7  1  0
 17 15  1  0
 17 18  2  0
 19 20  1  0
 21 22  1  0
 21 17  1  0
 22 23  1  6
 23 24  1  0
 24 25  1  0
 25 29  1  0
 25 26  2  0
 27 22  1  0
 28 27  2  0
 30 27  1  0
M  END
$$$$
