NYE.pdb
     RDKit          3D

 30 30  0  0  1  0  0  0  0  0999 V2000
   18.0310  -15.3496  -15.9499 N   0  0  0  0  0  0  0  0  0  0  0  0
   18.3767  -14.2642  -16.7966 C   0  0  0  0  0  0  0  0  0  0  0  0
   18.6527  -14.5199  -17.9896 O   0  0  0  0  0  0  0  0  0  0  0  0
   18.4163  -12.8789  -16.3123 C   0  0  0  0  0  0  0  0  0  0  0  0
   19.4435  -12.0010  -16.9194 C   0  0  2  0  0  0  0  0  0  0  0  0
   20.7714  -12.5211  -16.9296 N   0  0  0  0  0  0  0  0  0  0  0  0
   19.3888  -10.5956  -16.3799 C   0  0  0  0  0  0  0  0  0  0  0  0
   18.2864  -10.0772  -16.1183 O   0  0  0  0  0  0  0  0  0  0  0  0
   22.8287   -2.8922  -13.5339 O   0  0  0  0  0  0  0  0  0  0  0  0
   22.6572   -4.2308  -13.9304 C   0  0  0  0  0  0  0  0  0  0  0  0
   22.0415   -5.1168  -13.0807 C   0  0  0  0  0  0  0  0  0  0  0  0
   21.8704   -6.4140  -13.4534 C   0  0  0  0  0  0  0  0  0  0  0  0
   22.2997   -6.9105  -14.6913 C   0  0  0  0  0  0  0  0  0  0  0  0
   22.0528   -8.3319  -15.0137 C   0  0  0  0  0  0  0  0  0  0  0  0
   20.7069   -8.5445  -15.7089 C   0  0  2  0  0  0  0  0  0  0  0  0
   20.5798   -9.8777  -16.1754 N   0  0  0  0  0  0  0  0  0  0  0  0
   20.4158   -7.4949  -16.6955 C   0  0  0  0  0  0  0  0  0  0  0  0
   20.8977   -7.5266  -17.8736 O   0  0  0  0  0  0  0  0  0  0  0  0
   22.9086   -6.0079  -15.5176 C   0  0  0  0  0  0  0  0  0  0  0  0
   23.0892   -4.6689  -15.1410 C   0  0  0  0  0  0  0  0  0  0  0  0
   19.5771   -6.4271  -16.3153 N   0  0  0  0  0  0  0  0  0  0  0  0
   19.1390   -5.4184  -17.3209 C   0  0  1  0  0  0  0  0  0  0  0  0
   17.9922   -5.9890  -18.0520 C   0  0  0  0  0  0  0  0  0  0  0  0
   17.2466   -5.1306  -19.0149 C   0  0  0  0  0  0  0  0  0  0  0  0
   15.8148   -5.4479  -19.1149 C   0  0  0  0  0  0  0  0  0  0  0  0
   15.3159   -6.3021  -18.3485 O   0  0  0  0  0  0  0  0  0  0  0  0
   19.0433   -4.1566  -16.6423 C   0  0  0  0  0  0  0  0  0  0  0  0
   18.7710   -4.0781  -15.4058 O   0  0  0  0  0  0  0  0  0  0  0  0
   14.9568   -4.8282  -20.0405 O   0  0  0  0  0  0  0  0  0  0  0  0
   19.2443   -2.9418  -17.2705 O   0  0  0  0  0  0  0  0  0  0  0  0
  2  1  1  0
  2  3  2  0
  4  2  1  0
  5  4  1  0
  5  6  1  1
  7  5  1  0
  7  8  2  0
 10 20  2  0
 10  9  1  0
 11 10  1  0
 12 13  1  0
 12 11  2  0
 13 19  2  0
 14 13  1  0
 15 14  1  6
 15 16  1  0
 16  7  1  0
 17 15  1  0
 17 18  2  0
 19 20  1  0
 21 22  1  0
 21 17  1  0
 22 23  1  1
 23 24  1  0
 24 25  1  0
 25 29  1  0
 25 26  2  0
 27 22  1  0
 28 27  2  0
 30 27  1  0
M  END
$$$$
