NYE.pdb
     RDKit          3D

 30 30  0  0  1  0  0  0  0  0999 V2000
   22.4139  -19.8314  -16.3678 N   0  0  0  0  0  0  0  0  0  0  0  0
   22.1074  -19.1958  -15.1364 C   0  0  0  0  0  0  0  0  0  0  0  0
   21.5671  -19.8846  -14.2429 O   0  0  0  0  0  0  0  0  0  0  0  0
   22.4047  -17.7786  -14.8948 C   0  0  0  0  0  0  0  0  0  0  0  0
   23.0498  -17.0447  -16.0082 C   0  0  2  0  0  0  0  0  0  0  0  0
   24.0152  -17.7821  -16.7554 N   0  0  0  0  0  0  0  0  0  0  0  0
   23.5710  -15.6973  -15.5818 C   0  0  0  0  0  0  0  0  0  0  0  0
   22.8277  -14.9181  -14.9549 O   0  0  0  0  0  0  0  0  0  0  0  0
   29.4568   -9.1430  -17.1072 O   0  0  0  0  0  0  0  0  0  0  0  0
   28.8397  -10.3602  -16.7662 C   0  0  0  0  0  0  0  0  0  0  0  0
   28.7507  -11.3616  -17.7018 C   0  0  0  0  0  0  0  0  0  0  0  0
   28.1557  -12.5428  -17.3833 C   0  0  0  0  0  0  0  0  0  0  0  0
   27.6132  -12.8020  -16.1177 C   0  0  0  0  0  0  0  0  0  0  0  0
   27.0026  -14.1236  -15.8609 C   0  0  0  0  0  0  0  0  0  0  0  0
   25.4797  -14.0459  -15.7391 C   0  0  2  0  0  0  0  0  0  0  0  0
   24.8906  -15.3268  -15.8931 N   0  0  0  0  0  0  0  0  0  0  0  0
   24.9065  -12.9782  -16.5705 C   0  0  0  0  0  0  0  0  0  0  0  0
   24.6026  -13.1666  -17.7924 O   0  0  0  0  0  0  0  0  0  0  0  0
   27.7157  -11.7891  -15.2058 C   0  0  0  0  0  0  0  0  0  0  0  0
   28.3272  -10.5681  -15.5260 C   0  0  0  0  0  0  0  0  0  0  0  0
   24.6909  -11.7127  -15.9870 N   0  0  0  0  0  0  0  0  0  0  0  0
   23.9875  -10.6421  -16.7485 C   0  0  1  0  0  0  0  0  0  0  0  0
   23.1064   -9.9306  -15.8036 C   0  0  0  0  0  0  0  0  0  0  0  0
   22.3179   -8.7625  -16.2869 C   0  0  0  0  0  0  0  0  0  0  0  0
   21.5965   -8.0468  -15.2247 C   0  0  0  0  0  0  0  0  0  0  0  0
   21.7177   -6.8055  -15.1234 O   0  0  0  0  0  0  0  0  0  0  0  0
   24.9805   -9.9461  -17.5175 C   0  0  0  0  0  0  0  0  0  0  0  0
   24.8537   -9.7590  -18.7658 O   0  0  0  0  0  0  0  0  0  0  0  0
   20.7572   -8.6933  -14.3005 O   0  0  0  0  0  0  0  0  0  0  0  0
   26.1359   -9.4242  -16.9669 O   0  0  0  0  0  0  0  0  0  0  0  0
  2  1  1  0
  2  3  2  0
  4  2  1  0
  5  4  1  0
  5  6  1  1
  7  5  1  0
  7  8  2  0
 10 20  2  0
 10  9  1  0
 11 10  1  0
 12 13  1  0
 12 11  2  0
 13 19  2  0
 14 13  1  0
 15 14  1  6
 15 16  1  0
 16  7  1  0
 17 15  1  0
 17 18  2  0
 19 20  1  0
 21 22  1  0
 21 17  1  0
 22 23  1  1
 23 24  1  0
 24 25  1  0
 25 29  1  0
 25 26  2  0
 27 22  1  0
 28 27  2  0
 30 27  1  0
M  END
$$$$
