NYE.pdb
     RDKit          3D

 30 30  0  0  1  0  0  0  0  0999 V2000
   24.1700   -8.2925  -21.4181 N   0  0  0  0  0  0  0  0  0  0  0  0
   23.8844   -8.7205  -20.0954 C   0  0  0  0  0  0  0  0  0  0  0  0
   24.7612   -9.3784  -19.4929 O   0  0  0  0  0  0  0  0  0  0  0  0
   22.6099   -8.4139  -19.4343 C   0  0  0  0  0  0  0  0  0  0  0  0
   22.0718   -9.4576  -18.5311 C   0  0  2  0  0  0  0  0  0  0  0  0
   21.8339  -10.7294  -19.1310 N   0  0  0  0  0  0  0  0  0  0  0  0
   20.8865   -8.9741  -17.7373 C   0  0  0  0  0  0  0  0  0  0  0  0
   19.7649   -8.9149  -18.2768 O   0  0  0  0  0  0  0  0  0  0  0  0
   17.6338  -14.0984  -15.5996 O   0  0  0  0  0  0  0  0  0  0  0  0
   18.1733  -12.8441  -15.2620 C   0  0  0  0  0  0  0  0  0  0  0  0
   19.5299  -12.6450  -15.3411 C   0  0  0  0  0  0  0  0  0  0  0  0
   20.0628  -11.4361  -15.0166 C   0  0  0  0  0  0  0  0  0  0  0  0
   19.2824  -10.3518  -14.5942 C   0  0  0  0  0  0  0  0  0  0  0  0
   19.9513   -9.0713  -14.2808 C   0  0  0  0  0  0  0  0  0  0  0  0
   20.0446   -8.1512  -15.4992 C   0  0  2  0  0  0  0  0  0  0  0  0
   21.0519   -8.5926  -16.3946 N   0  0  0  0  0  0  0  0  0  0  0  0
   20.1048   -6.7316  -15.1240 C   0  0  0  0  0  0  0  0  0  0  0  0
   21.1668   -6.2020  -14.6627 O   0  0  0  0  0  0  0  0  0  0  0  0
   17.9360  -10.5767  -14.5249 C   0  0  0  0  0  0  0  0  0  0  0  0
   17.3784  -11.8201  -14.8573 C   0  0  0  0  0  0  0  0  0  0  0  0
   18.9470   -5.9429  -15.2844 N   0  0  0  0  0  0  0  0  0  0  0  0
   18.9851   -4.4814  -14.9954 C   0  0  1  0  0  0  0  0  0  0  0  0
   19.6454   -3.8201  -16.1365 C   0  0  0  0  0  0  0  0  0  0  0  0
   19.6752   -2.3316  -16.1935 C   0  0  0  0  0  0  0  0  0  0  0  0
   20.9694   -1.7746  -16.6128 C   0  0  0  0  0  0  0  0  0  0  0  0
   21.9212   -2.5461  -16.8667 O   0  0  0  0  0  0  0  0  0  0  0  0
   17.6693   -4.0995  -14.5659 C   0  0  0  0  0  0  0  0  0  0  0  0
   16.6442   -4.7929  -14.8445 O   0  0  0  0  0  0  0  0  0  0  0  0
   21.1993   -0.3945  -16.7513 O   0  0  0  0  0  0  0  0  0  0  0  0
   17.4166   -2.9648  -13.8180 O   0  0  0  0  0  0  0  0  0  0  0  0
  2  1  1  0
  2  3  2  0
  4  2  1  0
  5  4  1  0
  5  6  1  6
  7  5  1  0
  7  8  2  0
 10 20  2  0
 10  9  1  0
 11 10  1  0
 12 13  1  0
 12 11  2  0
 13 19  2  0
 14 13  1  0
 15 14  1  1
 15 16  1  0
 16  7  1  0
 17 15  1  0
 17 18  2  0
 19 20  1  0
 21 22  1  0
 21 17  1  0
 22 23  1  6
 23 24  1  0
 24 25  1  0
 25 29  1  0
 25 26  2  0
 27 22  1  0
 28 27  2  0
 30 27  1  0
M  END
$$$$
