NYE.pdb
     RDKit          3D

 30 30  0  0  1  0  0  0  0  0999 V2000
   21.8352  -12.9284  -20.9770 N   0  0  0  0  0  0  0  0  0  0  0  0
   20.9604  -11.8587  -20.6534 C   0  0  0  0  0  0  0  0  0  0  0  0
   20.2559  -11.3832  -21.5712 O   0  0  0  0  0  0  0  0  0  0  0  0
   20.8670  -11.3111  -19.2945 C   0  0  0  0  0  0  0  0  0  0  0  0
   21.7950  -11.8833  -18.2916 C   0  0  2  0  0  0  0  0  0  0  0  0
   21.7137  -13.2957  -18.1113 N   0  0  0  0  0  0  0  0  0  0  0  0
   21.7532  -11.1409  -16.9816 C   0  0  0  0  0  0  0  0  0  0  0  0
   20.9651  -11.5077  -16.0889 O   0  0  0  0  0  0  0  0  0  0  0  0
   28.3435  -11.0607  -17.9651 O   0  0  0  0  0  0  0  0  0  0  0  0
   27.2362  -10.7349  -17.1613 C   0  0  0  0  0  0  0  0  0  0  0  0
   26.8970   -9.4172  -16.9746 C   0  0  0  0  0  0  0  0  0  0  0  0
   25.8282   -9.0903  -16.1990 C   0  0  0  0  0  0  0  0  0  0  0  0
   25.0314  -10.0507  -15.5618 C   0  0  0  0  0  0  0  0  0  0  0  0
   23.8793   -9.5984  -14.7533 C   0  0  0  0  0  0  0  0  0  0  0  0
   22.6754   -9.2211  -15.6182 C   0  0  2  0  0  0  0  0  0  0  0  0
   22.6019  -10.0399  -16.7738 N   0  0  0  0  0  0  0  0  0  0  0  0
   22.5914   -7.7736  -15.8580 C   0  0  0  0  0  0  0  0  0  0  0  0
   23.0896   -7.2339  -16.8979 O   0  0  0  0  0  0  0  0  0  0  0  0
   25.3905  -11.3538  -15.7645 C   0  0  0  0  0  0  0  0  0  0  0  0
   26.4911  -11.6994  -16.5624 C   0  0  0  0  0  0  0  0  0  0  0  0
   21.9375   -6.9694  -14.9020 N   0  0  0  0  0  0  0  0  0  0  0  0
   21.7577   -5.5096  -15.1419 C   0  0  1  0  0  0  0  0  0  0  0  0
   20.3500   -5.2925  -15.5248 C   0  0  0  0  0  0  0  0  0  0  0  0
   19.8681   -3.9019  -15.7571 C   0  0  0  0  0  0  0  0  0  0  0  0
   18.4489   -3.8148  -16.1299 C   0  0  0  0  0  0  0  0  0  0  0  0
   18.1050   -4.0427  -17.3112 O   0  0  0  0  0  0  0  0  0  0  0  0
   22.3471   -4.8208  -14.0283 C   0  0  0  0  0  0  0  0  0  0  0  0
   22.4583   -5.3622  -12.8865 O   0  0  0  0  0  0  0  0  0  0  0  0
   17.4357   -3.4872  -15.2119 O   0  0  0  0  0  0  0  0  0  0  0  0
   22.8409   -3.5324  -14.1103 O   0  0  0  0  0  0  0  0  0  0  0  0
  2  1  1  0
  2  3  2  0
  4  2  1  0
  5  4  1  0
  5  6  1  1
  7  5  1  0
  7  8  2  0
 10 20  2  0
 10  9  1  0
 11 10  1  0
 12 13  1  0
 12 11  2  0
 13 19  2  0
 14 13  1  0
 15 14  1  6
 15 16  1  0
 16  7  1  0
 17 15  1  0
 17 18  2  0
 19 20  1  0
 21 22  1  0
 21 17  1  0
 22 23  1  1
 23 24  1  0
 24 25  1  0
 25 29  1  0
 25 26  2  0
 27 22  1  0
 28 27  2  0
 30 27  1  0
M  END
$$$$
