WHL.pdb
     RDKit          3D

 33 35  0  0  1  0  0  0  0  0999 V2000
    6.1283  -17.4477   24.8609 N   0  0  0  0  0  0  0  0  0  0  0  0
    6.8628  -17.1514   23.6782 C   0  0  1  0  0  0  0  0  0  0  0  0
    6.9002  -15.7116   23.3005 C   0  0  0  0  0  0  0  0  0  0  0  0
    6.5623  -14.8501   24.4558 C   0  0  0  0  0  0  0  0  0  0  0  0
    5.7979  -15.2381   25.5657 C   0  0  0  0  0  0  0  0  0  0  0  0
    5.7104  -14.2185   26.4304 N   0  0  0  0  0  0  0  0  0  0  0  0
    6.3835  -13.1587   25.9498 C   0  0  0  0  0  0  0  0  0  0  0  0
    6.5794  -11.8905   26.4637 C   0  0  0  0  0  0  0  0  0  0  0  0
    7.3141  -10.9868   25.7501 C   0  0  0  0  0  0  0  0  0  0  0  0
    7.8354  -11.3605   24.5476 C   0  0  0  0  0  0  0  0  0  0  0  0
    7.6591  -12.6190   24.0052 C   0  0  0  0  0  0  0  0  0  0  0  0
    6.9187  -13.5468   24.7144 C   0  0  0  0  0  0  0  0  0  0  0  0
    8.2698  -17.6624   23.8485 C   0  0  0  0  0  0  0  0  0  0  0  0
    8.5682  -18.3569   24.8661 O   0  0  0  0  0  0  0  0  0  0  0  0
    9.2938  -17.4020   22.9143 N   0  0  0  0  0  0  0  0  0  0  0  0
   10.6379  -17.8583   23.1622 C   0  0  1  0  0  0  0  0  0  0  0  0
   11.5667  -17.6355   22.0154 C   0  0  0  0  0  0  0  0  0  0  0  0
   12.9241  -18.1982   22.2099 C   0  0  0  0  0  0  0  0  0  0  0  0
   13.2442  -19.4574   22.6939 C   0  0  0  0  0  0  0  0  0  0  0  0
   14.5781  -19.6205   22.7353 N   0  0  0  0  0  0  0  0  0  0  0  0
   15.1230  -18.4809   22.2835 C   0  0  0  0  0  0  0  0  0  0  0  0
   14.1242  -17.6217   21.9660 N   0  0  0  0  0  0  0  0  0  0  0  0
   11.2087  -17.0925   24.3221 C   0  0  0  0  0  0  0  0  0  0  0  0
   11.2957  -15.8365   24.2515 O   0  0  0  0  0  0  0  0  0  0  0  0
    9.1785  -14.6740   28.4065 C   0  0  0  0  0  0  0  0  0  0  0  0
   10.5420  -15.2540   28.1775 C   0  0  2  0  0  0  0  0  0  0  0  0
   11.4981  -14.0446   28.0508 C   0  0  0  0  0  0  0  0  0  0  0  0
   10.7129  -16.0485   26.9587 C   0  0  0  0  0  0  0  0  0  0  0  0
   11.8856  -16.9198   26.7509 C   0  0  2  0  0  0  0  0  0  0  0  0
   11.6552  -17.7135   25.4941 N   0  0  0  0  0  0  0  0  0  0  0  0
   12.2784  -17.8806   27.7520 C   0  0  0  0  0  0  0  0  0  0  0  0
   13.2790  -17.7659   28.7013 O   0  0  0  0  0  0  0  0  0  0  0  0
   11.6590  -19.0097   27.8152 O   0  0  0  0  0  0  0  0  0  0  0  0
  2  1  1  1
  2 13  1  0
  2  3  1  0
  4  5  2  0
  4  3  1  0
  6  5  1  0
  7 12  2  0
  7  6  1  0
  8  7  1  0
  9 10  1  0
  9  8  2  0
 10 11  2  0
 11 12  1  0
 12  4  1  0
 13 14  2  0
 15 13  1  0
 15 16  1  0
 16 17  1  6
 18 22  1  0
 18 17  1  0
 19 18  2  0
 20 19  1  0
 20 21  1  0
 21 22  2  0
 23 24  2  0
 23 16  1  0
 26 25  1  6
 26 27  1  0
 26 28  1  0
 29 28  1  1
 29 30  1  0
 30 23  1  0
 31 32  1  0
 31 29  1  0
 33 31  2  0
M  END
$$$$
