WHL.pdb
     RDKit          3D

 33 35  0  0  1  0  0  0  0  0999 V2000
    6.1183  -17.9134   25.2660 N   0  0  0  0  0  0  0  0  0  0  0  0
    6.9528  -16.8847   24.7449 C   0  0  1  0  0  0  0  0  0  0  0  0
    7.4653  -15.9148   25.7517 C   0  0  0  0  0  0  0  0  0  0  0  0
    6.6217  -14.6993   25.7963 C   0  0  0  0  0  0  0  0  0  0  0  0
    5.3296  -14.6235   26.3364 C   0  0  0  0  0  0  0  0  0  0  0  0
    4.8711  -13.3690   26.2316 N   0  0  0  0  0  0  0  0  0  0  0  0
    5.7998  -12.5956   25.6428 C   0  0  0  0  0  0  0  0  0  0  0  0
    5.7965  -11.2530   25.3139 C   0  0  0  0  0  0  0  0  0  0  0  0
    6.8917  -10.7124   24.7024 C   0  0  0  0  0  0  0  0  0  0  0  0
    7.9609  -11.5131   24.4322 C   0  0  0  0  0  0  0  0  0  0  0  0
    7.9973  -12.8579   24.7474 C   0  0  0  0  0  0  0  0  0  0  0  0
    6.8975  -13.4217   25.3675 C   0  0  0  0  0  0  0  0  0  0  0  0
    8.1135  -17.5267   24.0302 C   0  0  0  0  0  0  0  0  0  0  0  0
    8.5397  -18.6579   24.4118 O   0  0  0  0  0  0  0  0  0  0  0  0
    8.7642  -16.9207   22.9356 N   0  0  0  0  0  0  0  0  0  0  0  0
   10.1564  -17.1884   22.6777 C   0  0  1  0  0  0  0  0  0  0  0  0
   10.6754  -16.5244   21.4460 C   0  0  0  0  0  0  0  0  0  0  0  0
   12.0778  -16.8682   21.1109 C   0  0  0  0  0  0  0  0  0  0  0  0
   12.8241  -17.9197   21.6207 C   0  0  0  0  0  0  0  0  0  0  0  0
   14.0590  -17.9212   21.0893 N   0  0  0  0  0  0  0  0  0  0  0  0
   14.1188  -16.8827   20.2423 C   0  0  0  0  0  0  0  0  0  0  0  0
   12.9223  -16.2465   20.2551 N   0  0  0  0  0  0  0  0  0  0  0  0
   10.9764  -16.6586   23.8199 C   0  0  0  0  0  0  0  0  0  0  0  0
   11.1521  -15.4148   23.9307 O   0  0  0  0  0  0  0  0  0  0  0  0
    9.0914  -15.3786   28.4525 C   0  0  0  0  0  0  0  0  0  0  0  0
   10.4448  -15.8811   28.0479 C   0  0  2  0  0  0  0  0  0  0  0  0
   11.3890  -14.6584   28.1280 C   0  0  0  0  0  0  0  0  0  0  0  0
   10.5611  -16.4076   26.6859 C   0  0  0  0  0  0  0  0  0  0  0  0
   11.8155  -16.9973   26.1796 C   0  0  2  0  0  0  0  0  0  0  0  0
   11.5635  -17.4896   24.7807 N   0  0  0  0  0  0  0  0  0  0  0  0
   12.4478  -18.0938   26.8706 C   0  0  0  0  0  0  0  0  0  0  0  0
   13.5246  -18.0503   27.7389 O   0  0  0  0  0  0  0  0  0  0  0  0
   12.0003  -19.2897   26.6915 O   0  0  0  0  0  0  0  0  0  0  0  0
  2  1  1  1
  2 13  1  0
  2  3  1  0
  4  5  2  0
  4  3  1  0
  6  5  1  0
  7 12  2  0
  7  6  1  0
  8  7  1  0
  9 10  1  0
  9  8  2  0
 10 11  2  0
 11 12  1  0
 12  4  1  0
 13 14  2  0
 15 13  1  0
 15 16  1  0
 16 17  1  6
 18 22  1  0
 18 17  1  0
 19 18  2  0
 20 19  1  0
 20 21  1  0
 21 22  2  0
 23 24  2  0
 23 16  1  0
 26 25  1  6
 26 27  1  0
 26 28  1  0
 29 28  1  1
 29 30  1  0
 30 23  1  0
 31 32  1  0
 31 29  1  0
 33 31  2  0
M  END
$$$$
