WHL.pdb
     RDKit          3D

 33 35  0  0  1  0  0  0  0  0999 V2000
    9.9916  -17.4329   21.0902 N   0  0  0  0  0  0  0  0  0  0  0  0
    9.2847  -16.5893   21.9928 C   0  0  1  0  0  0  0  0  0  0  0  0
    7.8731  -16.3017   21.6163 C   0  0  0  0  0  0  0  0  0  0  0  0
    7.6886  -14.8673   21.3011 C   0  0  0  0  0  0  0  0  0  0  0  0
    7.7015  -14.3072   20.0153 C   0  0  0  0  0  0  0  0  0  0  0  0
    7.4797  -12.9885   20.0968 N   0  0  0  0  0  0  0  0  0  0  0  0
    7.3184  -12.6355   21.3839 C   0  0  0  0  0  0  0  0  0  0  0  0
    7.0760  -11.4081   21.9716 C   0  0  0  0  0  0  0  0  0  0  0  0
    6.9599  -11.3294   23.3303 C   0  0  0  0  0  0  0  0  0  0  0  0
    7.0867  -12.4659   24.0718 C   0  0  0  0  0  0  0  0  0  0  0  0
    7.3287  -13.7078   23.5168 C   0  0  0  0  0  0  0  0  0  0  0  0
    7.4482  -13.8061   22.1428 C   0  0  0  0  0  0  0  0  0  0  0  0
    9.3211  -17.2168   23.3620 C   0  0  0  0  0  0  0  0  0  0  0  0
    8.3668  -17.0159   24.1719 O   0  0  0  0  0  0  0  0  0  0  0  0
   10.3850  -18.0331   23.7985 N   0  0  0  0  0  0  0  0  0  0  0  0
   10.3909  -18.5667   25.1370 C   0  0  1  0  0  0  0  0  0  0  0  0
   11.2995  -19.7379   25.3105 C   0  0  0  0  0  0  0  0  0  0  0  0
   10.8044  -20.9921   24.6948 C   0  0  0  0  0  0  0  0  0  0  0  0
    9.5525  -21.2125   24.1409 C   0  0  0  0  0  0  0  0  0  0  0  0
    9.4576  -22.4713   23.6787 N   0  0  0  0  0  0  0  0  0  0  0  0
   10.6338  -23.0664   23.9278 C   0  0  0  0  0  0  0  0  0  0  0  0
   11.4475  -22.1731   24.5414 N   0  0  0  0  0  0  0  0  0  0  0  0
   10.8819  -17.5081   26.0836 C   0  0  0  0  0  0  0  0  0  0  0  0
   11.9495  -16.8905   25.8212 O   0  0  0  0  0  0  0  0  0  0  0  0
    8.4572  -13.1868   28.4331 C   0  0  0  0  0  0  0  0  0  0  0  0
    9.5821  -14.0523   27.9499 C   0  0  2  0  0  0  0  0  0  0  0  0
    9.1913  -14.4905   26.5188 C   0  0  0  0  0  0  0  0  0  0  0  0
    9.8276  -15.2811   28.7085 C   0  0  0  0  0  0  0  0  0  0  0  0
   10.8366  -16.2721   28.2875 C   0  0  2  0  0  0  0  0  0  0  0  0
   10.2031  -17.1691   27.2595 N   0  0  0  0  0  0  0  0  0  0  0  0
   11.4512  -17.1543   29.2486 C   0  0  0  0  0  0  0  0  0  0  0  0
   11.2340  -18.5095   29.4267 O   0  0  0  0  0  0  0  0  0  0  0  0
   12.3159  -16.6754   30.0765 O   0  0  0  0  0  0  0  0  0  0  0  0
  2  1  1  6
  2 13  1  0
  2  3  1  0
  4  5  2  0
  4  3  1  0
  6  5  1  0
  7 12  2  0
  7  6  1  0
  8  7  1  0
  9 10  1  0
  9  8  2  0
 10 11  2  0
 11 12  1  0
 12  4  1  0
 13 14  2  0
 15 13  1  0
 15 16  1  0
 16 17  1  6
 18 22  1  0
 18 17  1  0
 19 18  2  0
 20 19  1  0
 20 21  1  0
 21 22  2  0
 23 24  2  0
 23 16  1  0
 26 25  1  1
 26 27  1  0
 26 28  1  0
 29 28  1  1
 29 30  1  0
 30 23  1  0
 31 32  1  0
 31 29  1  0
 33 31  2  0
M  END
$$$$
