WHL.pdb
     RDKit          3D

 33 35  0  0  1  0  0  0  0  0999 V2000
    9.8426  -16.7405   20.8083 N   0  0  0  0  0  0  0  0  0  0  0  0
    9.4297  -16.1452   22.0336 C   0  0  1  0  0  0  0  0  0  0  0  0
    7.9767  -15.8342   22.1281 C   0  0  0  0  0  0  0  0  0  0  0  0
    7.5665  -14.8844   21.0694 C   0  0  0  0  0  0  0  0  0  0  0  0
    6.2457  -14.6202   20.6787 C   0  0  0  0  0  0  0  0  0  0  0  0
    6.2394  -13.6922   19.7125 N   0  0  0  0  0  0  0  0  0  0  0  0
    7.5009  -13.3197   19.4346 C   0  0  0  0  0  0  0  0  0  0  0  0
    8.0061  -12.4103   18.5246 C   0  0  0  0  0  0  0  0  0  0  0  0
    9.3572  -12.2274   18.4428 C   0  0  0  0  0  0  0  0  0  0  0  0
   10.1730  -12.9484   19.2627 C   0  0  0  0  0  0  0  0  0  0  0  0
    9.7015  -13.8648   20.1830 C   0  0  0  0  0  0  0  0  0  0  0  0
    8.3363  -14.0620   20.2798 C   0  0  0  0  0  0  0  0  0  0  0  0
    9.8220  -17.0592   23.1653 C   0  0  0  0  0  0  0  0  0  0  0  0
    8.9261  -17.5585   23.9104 O   0  0  0  0  0  0  0  0  0  0  0  0
   11.1630  -17.3947   23.4445 N   0  0  0  0  0  0  0  0  0  0  0  0
   11.4834  -18.2356   24.5700 C   0  0  1  0  0  0  0  0  0  0  0  0
   12.8255  -18.8809   24.4721 C   0  0  0  0  0  0  0  0  0  0  0  0
   12.9552  -19.8568   23.3640 C   0  0  0  0  0  0  0  0  0  0  0  0
   11.9469  -20.6325   22.8126 C   0  0  0  0  0  0  0  0  0  0  0  0
   12.4336  -21.4042   21.8251 N   0  0  0  0  0  0  0  0  0  0  0  0
   13.7447  -21.1357   21.7326 C   0  0  0  0  0  0  0  0  0  0  0  0
   14.0600  -20.2011   22.6619 N   0  0  0  0  0  0  0  0  0  0  0  0
   11.5087  -17.3966   25.8162 C   0  0  0  0  0  0  0  0  0  0  0  0
   12.4181  -16.5357   25.9641 O   0  0  0  0  0  0  0  0  0  0  0  0
   10.0832  -13.4061   27.7730 C   0  0  0  0  0  0  0  0  0  0  0  0
    9.4044  -14.6651   27.3232 C   0  0  2  0  0  0  0  0  0  0  0  0
    7.8951  -14.3314   27.2641 C   0  0  0  0  0  0  0  0  0  0  0  0
    9.5393  -15.8261   28.2062 C   0  0  0  0  0  0  0  0  0  0  0  0
   10.6884  -16.7476   28.1168 C   0  0  2  0  0  0  0  0  0  0  0  0
   10.5589  -17.5256   26.8359 N   0  0  0  0  0  0  0  0  0  0  0  0
   10.9300  -17.7286   29.1459 C   0  0  0  0  0  0  0  0  0  0  0  0
   10.7570  -19.1001   29.0774 O   0  0  0  0  0  0  0  0  0  0  0  0
   11.3564  -17.3373   30.2980 O   0  0  0  0  0  0  0  0  0  0  0  0
  2  1  1  6
  2 13  1  0
  2  3  1  0
  4  5  2  0
  4  3  1  0
  6  5  1  0
  7 12  2  0
  7  6  1  0
  8  7  1  0
  9 10  1  0
  9  8  2  0
 10 11  2  0
 11 12  1  0
 12  4  1  0
 13 14  2  0
 15 13  1  0
 15 16  1  0
 16 17  1  6
 18 22  1  0
 18 17  1  0
 19 18  2  0
 20 19  1  0
 20 21  1  0
 21 22  2  0
 23 24  2  0
 23 16  1  0
 26 25  1  1
 26 27  1  0
 26 28  1  0
 29 28  1  1
 29 30  1  0
 30 23  1  0
 31 32  1  0
 31 29  1  0
 33 31  2  0
M  END
$$$$
