WHL.pdb
     RDKit          3D

 33 35  0  0  1  0  0  0  0  0999 V2000
    5.7927  -18.0292   23.4434 N   0  0  0  0  0  0  0  0  0  0  0  0
    6.5907  -16.9400   23.8939 C   0  0  1  0  0  0  0  0  0  0  0  0
    6.6713  -16.7837   25.3724 C   0  0  0  0  0  0  0  0  0  0  0  0
    6.0988  -15.4880   25.8019 C   0  0  0  0  0  0  0  0  0  0  0  0
    5.0886  -15.3211   26.7605 C   0  0  0  0  0  0  0  0  0  0  0  0
    4.8310  -14.0160   26.9200 N   0  0  0  0  0  0  0  0  0  0  0  0
    5.6247  -13.2957   26.1086 C   0  0  0  0  0  0  0  0  0  0  0  0
    5.7303  -11.9321   25.9078 C   0  0  0  0  0  0  0  0  0  0  0  0
    6.6336  -11.4587   24.9992 C   0  0  0  0  0  0  0  0  0  0  0  0
    7.4084  -12.3456   24.3131 C   0  0  0  0  0  0  0  0  0  0  0  0
    7.3287  -13.7137   24.4895 C   0  0  0  0  0  0  0  0  0  0  0  0
    6.4202  -14.2104   25.4060 C   0  0  0  0  0  0  0  0  0  0  0  0
    7.9786  -17.0984   23.3295 C   0  0  0  0  0  0  0  0  0  0  0  0
    8.4542  -18.2589   23.1450 O   0  0  0  0  0  0  0  0  0  0  0  0
    8.7933  -15.9987   22.9891 N   0  0  0  0  0  0  0  0  0  0  0  0
   10.1555  -16.2055   22.5671 C   0  0  1  0  0  0  0  0  0  0  0  0
   10.6890  -15.1081   21.7078 C   0  0  0  0  0  0  0  0  0  0  0  0
    9.7903  -14.7081   20.5990 C   0  0  0  0  0  0  0  0  0  0  0  0
    8.7509  -15.4495   20.0581 C   0  0  0  0  0  0  0  0  0  0  0  0
    8.1549  -14.7685   19.0640 N   0  0  0  0  0  0  0  0  0  0  0  0
    8.7975  -13.5958   18.9565 C   0  0  0  0  0  0  0  0  0  0  0  0
    9.7853  -13.5591   19.8836 N   0  0  0  0  0  0  0  0  0  0  0  0
   11.0406  -16.2597   23.7800 C   0  0  0  0  0  0  0  0  0  0  0  0
   12.2871  -16.1271   23.6428 O   0  0  0  0  0  0  0  0  0  0  0  0
   10.9147  -13.5122   27.4510 C   0  0  0  0  0  0  0  0  0  0  0  0
   10.0678  -14.7480   27.3909 C   0  0  2  0  0  0  0  0  0  0  0  0
    9.1703  -14.7047   28.6501 C   0  0  0  0  0  0  0  0  0  0  0  0
   10.7815  -16.0265   27.4328 C   0  0  0  0  0  0  0  0  0  0  0  0
   11.4718  -16.5761   26.2500 C   0  0  2  0  0  0  0  0  0  0  0  0
   10.5426  -16.4532   25.0735 N   0  0  0  0  0  0  0  0  0  0  0  0
   11.9401  -17.9401   26.2358 C   0  0  0  0  0  0  0  0  0  0  0  0
   11.5528  -18.9685   25.3945 O   0  0  0  0  0  0  0  0  0  0  0  0
   12.8276  -18.3076   27.0960 O   0  0  0  0  0  0  0  0  0  0  0  0
  2  1  1  1
  2 13  1  0
  2  3  1  0
  4  5  2  0
  4  3  1  0
  6  5  1  0
  7 12  2  0
  7  6  1  0
  8  7  1  0
  9 10  1  0
  9  8  2  0
 10 11  2  0
 11 12  1  0
 12  4  1  0
 13 14  2  0
 15 13  1  0
 15 16  1  0
 16 17  1  6
 18 22  1  0
 18 17  1  0
 19 18  2  0
 20 19  1  0
 20 21  1  0
 21 22  2  0
 23 24  2  0
 23 16  1  0
 26 25  1  1
 26 27  1  0
 26 28  1  0
 29 28  1  1
 29 30  1  0
 30 23  1  0
 31 32  1  0
 31 29  1  0
 33 31  2  0
M  END
$$$$
