WHL.pdb
     RDKit          3D

 33 35  0  0  1  0  0  0  0  0999 V2000
    6.5918  -17.9377   24.3549 N   0  0  0  0  0  0  0  0  0  0  0  0
    7.3463  -16.7421   24.1888 C   0  0  1  0  0  0  0  0  0  0  0  0
    7.5556  -15.9482   25.4309 C   0  0  0  0  0  0  0  0  0  0  0  0
    6.5357  -14.8832   25.5593 C   0  0  0  0  0  0  0  0  0  0  0  0
    5.2128  -15.0689   25.9865 C   0  0  0  0  0  0  0  0  0  0  0  0
    4.5770  -13.8898   26.0071 N   0  0  0  0  0  0  0  0  0  0  0  0
    5.4156  -12.9166   25.6109 C   0  0  0  0  0  0  0  0  0  0  0  0
    5.2305  -11.5548   25.4627 C   0  0  0  0  0  0  0  0  0  0  0  0
    6.2703  -10.7828   25.0284 C   0  0  0  0  0  0  0  0  0  0  0  0
    7.4651  -11.3773   24.7521 C   0  0  0  0  0  0  0  0  0  0  0  0
    7.6840  -12.7347   24.8895 C   0  0  0  0  0  0  0  0  0  0  0  0
    6.6427  -13.5312   25.3289 C   0  0  0  0  0  0  0  0  0  0  0  0
    8.6820  -17.0989   23.5900 C   0  0  0  0  0  0  0  0  0  0  0  0
    9.1015  -18.2934   23.6542 O   0  0  0  0  0  0  0  0  0  0  0  0
    9.5073  -16.1521   22.9486 N   0  0  0  0  0  0  0  0  0  0  0  0
   10.8620  -16.4905   22.5925 C   0  0  1  0  0  0  0  0  0  0  0  0
   11.5257  -15.4716   21.7273 C   0  0  0  0  0  0  0  0  0  0  0  0
   12.8119  -15.9142   21.1384 C   0  0  0  0  0  0  0  0  0  0  0  0
   13.1524  -17.2002   20.7477 C   0  0  0  0  0  0  0  0  0  0  0  0
   14.4040  -17.2272   20.2576 N   0  0  0  0  0  0  0  0  0  0  0  0
   14.8757  -15.9734   20.3273 C   0  0  0  0  0  0  0  0  0  0  0  0
   13.9143  -15.1801   20.8592 N   0  0  0  0  0  0  0  0  0  0  0  0
   11.6882  -16.5838   23.8440 C   0  0  0  0  0  0  0  0  0  0  0  0
   12.9160  -16.8575   23.7559 O   0  0  0  0  0  0  0  0  0  0  0  0
   11.4122  -13.6706   27.4725 C   0  0  0  0  0  0  0  0  0  0  0  0
   10.5270  -14.8789   27.5393 C   0  0  2  0  0  0  0  0  0  0  0  0
    9.7887  -14.7852   28.8953 C   0  0  0  0  0  0  0  0  0  0  0  0
   11.2015  -16.1791   27.5221 C   0  0  0  0  0  0  0  0  0  0  0  0
   11.9746  -16.6440   26.3543 C   0  0  2  0  0  0  0  0  0  0  0  0
   11.1544  -16.3793   25.1214 N   0  0  0  0  0  0  0  0  0  0  0  0
   12.4017  -18.0176   26.2506 C   0  0  0  0  0  0  0  0  0  0  0  0
   13.4750  -18.6287   26.8751 O   0  0  0  0  0  0  0  0  0  0  0  0
   11.7425  -18.8239   25.4905 O   0  0  0  0  0  0  0  0  0  0  0  0
  2  1  1  1
  2 13  1  0
  2  3  1  0
  4  5  2  0
  4  3  1  0
  6  5  1  0
  7 12  2  0
  7  6  1  0
  8  7  1  0
  9 10  1  0
  9  8  2  0
 10 11  2  0
 11 12  1  0
 12  4  1  0
 13 14  2  0
 15 13  1  0
 15 16  1  0
 16 17  1  6
 18 22  1  0
 18 17  1  0
 19 18  2  0
 20 19  1  0
 20 21  1  0
 21 22  2  0
 23 24  2  0
 23 16  1  0
 26 25  1  1
 26 27  1  0
 26 28  1  0
 29 28  1  1
 29 30  1  0
 30 23  1  0
 31 32  1  0
 31 29  1  0
 33 31  2  0
M  END
$$$$
