WHL.pdb
     RDKit          3D

 33 35  0  0  1  0  0  0  0  0999 V2000
    6.0941  -18.1118   23.6723 N   0  0  0  0  0  0  0  0  0  0  0  0
    6.9032  -16.9437   23.7546 C   0  0  1  0  0  0  0  0  0  0  0  0
    7.2653  -16.5208   25.1356 C   0  0  0  0  0  0  0  0  0  0  0  0
    6.4014  -15.4101   25.5952 C   0  0  0  0  0  0  0  0  0  0  0  0
    5.1985  -15.5523   26.3021 C   0  0  0  0  0  0  0  0  0  0  0  0
    4.6930  -14.3425   26.5776 N   0  0  0  0  0  0  0  0  0  0  0  0
    5.5043  -13.3903   26.0853 C   0  0  0  0  0  0  0  0  0  0  0  0
    5.4142  -12.0112   26.1082 C   0  0  0  0  0  0  0  0  0  0  0  0
    6.3939  -11.2679   25.5137 C   0  0  0  0  0  0  0  0  0  0  0  0
    7.4364  -11.9075   24.9124 C   0  0  0  0  0  0  0  0  0  0  0  0
    7.5573  -13.2833   24.8715 C   0  0  0  0  0  0  0  0  0  0  0  0
    6.5750  -14.0514   25.4691 C   0  0  0  0  0  0  0  0  0  0  0  0
    8.1590  -17.1745   22.9549 C   0  0  0  0  0  0  0  0  0  0  0  0
    8.6541  -18.3393   22.8829 O   0  0  0  0  0  0  0  0  0  0  0  0
    8.8265  -16.1393   22.2680 N   0  0  0  0  0  0  0  0  0  0  0  0
   10.1956  -16.3075   21.8512 C   0  0  1  0  0  0  0  0  0  0  0  0
   10.7023  -15.1936   20.9969 C   0  0  0  0  0  0  0  0  0  0  0  0
    9.6855  -14.6056   20.0927 C   0  0  0  0  0  0  0  0  0  0  0  0
    8.9711  -15.2611   19.1015 C   0  0  0  0  0  0  0  0  0  0  0  0
    8.1373  -14.4086   18.4806 N   0  0  0  0  0  0  0  0  0  0  0  0
    8.3052  -13.2101   19.0595 C   0  0  0  0  0  0  0  0  0  0  0  0
    9.2402  -13.3288   20.0332 N   0  0  0  0  0  0  0  0  0  0  0  0
   11.0769  -16.3406   23.0676 C   0  0  0  0  0  0  0  0  0  0  0  0
   12.3294  -16.3660   22.9237 O   0  0  0  0  0  0  0  0  0  0  0  0
   10.4122  -15.0557   29.0759 C   0  0  0  0  0  0  0  0  0  0  0  0
   11.3693  -15.3788   27.9679 C   0  0  2  0  0  0  0  0  0  0  0  0
   12.3301  -14.1700   27.8759 C   0  0  0  0  0  0  0  0  0  0  0  0
   10.7857  -15.5484   26.6351 C   0  0  0  0  0  0  0  0  0  0  0  0
   11.4880  -16.2758   25.5603 C   0  0  2  0  0  0  0  0  0  0  0  0
   10.5689  -16.3450   24.3716 N   0  0  0  0  0  0  0  0  0  0  0  0
   11.9603  -17.6227   25.7667 C   0  0  0  0  0  0  0  0  0  0  0  0
   13.2396  -18.0402   26.0898 O   0  0  0  0  0  0  0  0  0  0  0  0
   11.1327  -18.6037   25.6423 O   0  0  0  0  0  0  0  0  0  0  0  0
  2  1  1  1
  2 13  1  0
  2  3  1  0
  4  5  2  0
  4  3  1  0
  6  5  1  0
  7 12  2  0
  7  6  1  0
  8  7  1  0
  9 10  1  0
  9  8  2  0
 10 11  2  0
 11 12  1  0
 12  4  1  0
 13 14  2  0
 15 13  1  0
 15 16  1  0
 16 17  1  6
 18 22  1  0
 18 17  1  0
 19 18  2  0
 20 19  1  0
 20 21  1  0
 21 22  2  0
 23 24  2  0
 23 16  1  0
 26 25  1  1
 26 27  1  0
 26 28  1  0
 29 28  1  1
 29 30  1  0
 30 23  1  0
 31 32  1  0
 31 29  1  0
 33 31  2  0
M  END
$$$$
