WHL.pdb
     RDKit          3D

 33 35  0  0  1  0  0  0  0  0999 V2000
   10.0601  -15.6104   21.8091 N   0  0  0  0  0  0  0  0  0  0  0  0
    9.3084  -15.6450   23.0173 C   0  0  1  0  0  0  0  0  0  0  0  0
    7.8298  -15.6632   22.8423 C   0  0  0  0  0  0  0  0  0  0  0  0
    7.3182  -14.3165   22.5021 C   0  0  0  0  0  0  0  0  0  0  0  0
    7.0264  -13.8583   21.2091 C   0  0  0  0  0  0  0  0  0  0  0  0
    6.5611  -12.6035   21.2708 N   0  0  0  0  0  0  0  0  0  0  0  0
    6.5275  -12.1958   22.5515 C   0  0  0  0  0  0  0  0  0  0  0  0
    6.1363  -10.9979   23.1195 C   0  0  0  0  0  0  0  0  0  0  0  0
    6.2120  -10.8451   24.4747 C   0  0  0  0  0  0  0  0  0  0  0  0
    6.6722  -11.8803   25.2323 C   0  0  0  0  0  0  0  0  0  0  0  0
    7.0708  -13.0903   24.6972 C   0  0  0  0  0  0  0  0  0  0  0  0
    7.0001  -13.2627   23.3271 C   0  0  0  0  0  0  0  0  0  0  0  0
    9.7347  -16.8523   23.8114 C   0  0  0  0  0  0  0  0  0  0  0  0
    8.8837  -17.4757   24.5144 O   0  0  0  0  0  0  0  0  0  0  0  0
   11.0600  -17.3345   23.8132 N   0  0  0  0  0  0  0  0  0  0  0  0
   11.4419  -18.4092   24.6939 C   0  0  1  0  0  0  0  0  0  0  0  0
   12.6619  -19.1439   24.2475 C   0  0  0  0  0  0  0  0  0  0  0  0
   12.4686  -19.9667   23.0298 C   0  0  0  0  0  0  0  0  0  0  0  0
   12.7764  -19.6120   21.7252 C   0  0  0  0  0  0  0  0  0  0  0  0
   12.4627  -20.6093   20.8800 N   0  0  0  0  0  0  0  0  0  0  0  0
   11.9558  -21.6039   21.6238 C   0  0  0  0  0  0  0  0  0  0  0  0
   11.9592  -21.2161   22.9223 N   0  0  0  0  0  0  0  0  0  0  0  0
   11.7630  -17.8418   26.0476 C   0  0  0  0  0  0  0  0  0  0  0  0
   12.7957  -17.1328   26.1923 O   0  0  0  0  0  0  0  0  0  0  0  0
   10.8153  -14.0875   28.1093 C   0  0  0  0  0  0  0  0  0  0  0  0
   10.0147  -15.3418   27.9255 C   0  0  2  0  0  0  0  0  0  0  0  0
    8.5437  -14.9451   28.1932 C   0  0  0  0  0  0  0  0  0  0  0  0
   10.3201  -16.4462   28.8381 C   0  0  0  0  0  0  0  0  0  0  0  0
   11.3225  -17.4781   28.5095 C   0  0  2  0  0  0  0  0  0  0  0  0
   10.9609  -18.0650   27.1725 N   0  0  0  0  0  0  0  0  0  0  0  0
   11.5370  -18.6044   29.3843 C   0  0  0  0  0  0  0  0  0  0  0  0
   11.2750  -19.9408   29.1377 O   0  0  0  0  0  0  0  0  0  0  0  0
   12.0272  -18.4015   30.5594 O   0  0  0  0  0  0  0  0  0  0  0  0
  2  1  1  6
  2 13  1  0
  2  3  1  0
  4  5  2  0
  4  3  1  0
  6  5  1  0
  7 12  2  0
  7  6  1  0
  8  7  1  0
  9 10  1  0
  9  8  2  0
 10 11  2  0
 11 12  1  0
 12  4  1  0
 13 14  2  0
 15 13  1  0
 15 16  1  0
 16 17  1  6
 18 22  1  0
 18 17  1  0
 19 18  2  0
 20 19  1  0
 20 21  1  0
 21 22  2  0
 23 24  2  0
 23 16  1  0
 26 25  1  1
 26 27  1  0
 26 28  1  0
 29 28  1  1
 29 30  1  0
 30 23  1  0
 31 32  1  0
 31 29  1  0
 33 31  2  0
M  END
$$$$
