WHL.pdb
     RDKit          3D

 33 35  0  0  1  0  0  0  0  0999 V2000
    6.9538  -16.8941   23.9865 N   0  0  0  0  0  0  0  0  0  0  0  0
    8.1424  -16.1390   24.1940 C   0  0  1  0  0  0  0  0  0  0  0  0
    8.2558  -15.4918   25.5302 C   0  0  0  0  0  0  0  0  0  0  0  0
    7.1276  -14.5638   25.7688 C   0  0  0  0  0  0  0  0  0  0  0  0
    5.9278  -14.8895   26.4179 C   0  0  0  0  0  0  0  0  0  0  0  0
    5.1419  -13.8063   26.4809 N   0  0  0  0  0  0  0  0  0  0  0  0
    5.7613  -12.7636   25.9008 C   0  0  0  0  0  0  0  0  0  0  0  0
    5.3637  -11.4531   25.7135 C   0  0  0  0  0  0  0  0  0  0  0  0
    6.2023  -10.5857   25.0732 C   0  0  0  0  0  0  0  0  0  0  0  0
    7.4115  -11.0367   24.6351 C   0  0  0  0  0  0  0  0  0  0  0  0
    7.8399  -12.3392   24.8060 C   0  0  0  0  0  0  0  0  0  0  0  0
    7.0040  -13.2307   25.4528 C   0  0  0  0  0  0  0  0  0  0  0  0
    9.3277  -17.0421   23.9715 C   0  0  0  0  0  0  0  0  0  0  0  0
    9.2985  -18.2353   24.3984 O   0  0  0  0  0  0  0  0  0  0  0  0
   10.4928  -16.6191   23.2987 N   0  0  0  0  0  0  0  0  0  0  0  0
   11.7376  -17.3196   23.4890 C   0  0  1  0  0  0  0  0  0  0  0  0
   12.8209  -16.8773   22.5627 C   0  0  0  0  0  0  0  0  0  0  0  0
   12.5087  -17.0605   21.1253 C   0  0  0  0  0  0  0  0  0  0  0  0
   12.0917  -18.2277   20.5039 C   0  0  0  0  0  0  0  0  0  0  0  0
   11.9052  -18.0198   19.1888 N   0  0  0  0  0  0  0  0  0  0  0  0
   12.1970  -16.7317   18.9538 C   0  0  0  0  0  0  0  0  0  0  0  0
   12.5615  -16.1520   20.1233 N   0  0  0  0  0  0  0  0  0  0  0  0
   12.2392  -17.0567   24.8807 C   0  0  0  0  0  0  0  0  0  0  0  0
   12.9053  -16.0111   25.1111 O   0  0  0  0  0  0  0  0  0  0  0  0
    9.4337  -16.4655   27.1882 C   0  0  0  0  0  0  0  0  0  0  0  0
   10.5098  -16.1619   28.1872 C   0  0  2  0  0  0  0  0  0  0  0  0
   10.3160  -14.6774   28.5766 C   0  0  0  0  0  0  0  0  0  0  0  0
   11.8900  -16.2908   27.7136 C   0  0  0  0  0  0  0  0  0  0  0  0
   12.4700  -17.5950   27.3391 C   0  0  2  0  0  0  0  0  0  0  0  0
   12.0005  -17.9281   25.9494 N   0  0  0  0  0  0  0  0  0  0  0  0
   12.2117  -18.7726   28.1305 C   0  0  0  0  0  0  0  0  0  0  0  0
   11.5344  -19.9210   27.7589 O   0  0  0  0  0  0  0  0  0  0  0  0
   12.6363  -18.8165   29.3471 O   0  0  0  0  0  0  0  0  0  0  0  0
  2  1  1  1
  2 13  1  0
  2  3  1  0
  4  5  2  0
  4  3  1  0
  6  5  1  0
  7 12  2  0
  7  6  1  0
  8  7  1  0
  9 10  1  0
  9  8  2  0
 10 11  2  0
 11 12  1  0
 12  4  1  0
 13 14  2  0
 15 13  1  0
 15 16  1  0
 16 17  1  6
 18 22  1  0
 18 17  1  0
 19 18  2  0
 20 19  1  0
 20 21  1  0
 21 22  2  0
 23 24  2  0
 23 16  1  0
 26 25  1  6
 26 27  1  0
 26 28  1  0
 29 28  1  1
 29 30  1  0
 30 23  1  0
 31 32  1  0
 31 29  1  0
 33 31  2  0
M  END
$$$$
