APP.pdb
     RDKit          3D

 20 21  0  0  1  0  0  0  0  0999 V2000
    6.9993  -16.1353   22.1282 C   0  0  0  0  0  0  0  0  0  0  0  0
    7.4684  -14.6956   22.1433 C   0  0  2  0  0  0  0  0  0  0  0  0
    8.2810  -14.3763   21.0191 N   0  0  0  0  0  0  0  0  0  0  0  0
    8.0312  -14.2810   23.4184 C   0  0  0  0  0  0  0  0  0  0  0  0
    9.3195  -14.4024   23.4624 O   0  0  0  0  0  0  0  0  0  0  0  0
    7.3673  -13.7842   24.5625 N   0  0  0  0  0  0  0  0  0  0  0  0
    5.9702  -13.4749   24.7386 C   0  0  0  0  0  0  0  0  0  0  0  0
    5.9620  -12.5361   25.9615 C   0  0  0  0  0  0  0  0  0  0  0  0
    6.9658  -13.2532   26.8342 C   0  0  0  0  0  0  0  0  0  0  0  0
    8.0874  -13.4959   25.8148 C   0  0  1  0  0  0  0  0  0  0  0  0
    8.7405  -14.7581   26.2429 C   0  0  0  0  0  0  0  0  0  0  0  0
    8.6301  -15.7559   25.4655 O   0  0  0  0  0  0  0  0  0  0  0  0
    9.4625  -14.9033   27.4424 N   0  0  0  0  0  0  0  0  0  0  0  0
    9.2357  -14.1009   28.6204 C   0  0  0  0  0  0  0  0  0  0  0  0
   10.6724  -13.6415   28.9013 C   0  0  0  0  0  0  0  0  0  0  0  0
   11.4289  -14.9335   28.6775 C   0  0  0  0  0  0  0  0  0  0  0  0
   10.5269  -15.8045   27.7919 C   0  0  1  0  0  0  0  0  0  0  0  0
   10.0232  -16.8912   28.7084 C   0  0  0  0  0  0  0  0  0  0  0  0
    8.7071  -16.8017   29.1456 O   0  0  0  0  0  0  0  0  0  0  0  0
   10.7178  -17.8456   29.0840 O   0  0  0  0  0  0  0  0  0  0  0  0
  2  1  1  1
  2  4  1  0
  3  2  1  0
  4  5  2  0
  6 10  1  0
  6  4  1  0
  7  6  1  0
  8  9  1  0
  8  7  1  0
  9 10  1  0
 10 11  1  1
 11 13  1  0
 11 12  2  0
 13 17  1  0
 14 13  1  0
 14 15  1  0
 15 16  1  0
 17 16  1  0
 18 19  1  0
 17 18  1  1
 20 18  2  0
M  END
$$$$
