APP.pdb
     RDKit          3D

 20 21  0  0  1  0  0  0  0  0999 V2000
    7.1076  -16.1895   22.0772 C   0  0  0  0  0  0  0  0  0  0  0  0
    7.3828  -14.7016   22.1349 C   0  0  2  0  0  0  0  0  0  0  0  0
    8.0532  -14.2268   20.9723 N   0  0  0  0  0  0  0  0  0  0  0  0
    7.9868  -14.2701   23.3852 C   0  0  0  0  0  0  0  0  0  0  0  0
    9.2789  -14.3519   23.3737 O   0  0  0  0  0  0  0  0  0  0  0  0
    7.3577  -13.7942   24.5575 N   0  0  0  0  0  0  0  0  0  0  0  0
    5.9591  -13.5403   24.7980 C   0  0  0  0  0  0  0  0  0  0  0  0
    5.9703  -12.5959   26.0167 C   0  0  0  0  0  0  0  0  0  0  0  0
    7.0419  -13.2675   26.8437 C   0  0  0  0  0  0  0  0  0  0  0  0
    8.1234  -13.4704   25.7736 C   0  0  1  0  0  0  0  0  0  0  0  0
    8.8463  -14.7030   26.1749 C   0  0  0  0  0  0  0  0  0  0  0  0
    8.8657  -15.6575   25.3378 O   0  0  0  0  0  0  0  0  0  0  0  0
    9.4993  -14.8653   27.4111 N   0  0  0  0  0  0  0  0  0  0  0  0
    9.2225  -14.0636   28.5790 C   0  0  0  0  0  0  0  0  0  0  0  0
   10.6494  -13.6303   28.9398 C   0  0  0  0  0  0  0  0  0  0  0  0
   11.3948  -14.9343   28.7513 C   0  0  0  0  0  0  0  0  0  0  0  0
   10.5276  -15.7861   27.8137 C   0  0  1  0  0  0  0  0  0  0  0  0
    9.9563  -16.8675   28.6962 C   0  0  0  0  0  0  0  0  0  0  0  0
   10.7675  -17.9602   28.9774 O   0  0  0  0  0  0  0  0  0  0  0  0
    8.8146  -16.8275   29.1751 O   0  0  0  0  0  0  0  0  0  0  0  0
  2  1  1  1
  2  4  1  0
  3  2  1  0
  4  5  2  0
  6 10  1  0
  6  4  1  0
  7  6  1  0
  8  9  1  0
  8  7  1  0
  9 10  1  0
 10 11  1  1
 11 13  1  0
 11 12  2  0
 13 17  1  0
 14 13  1  0
 14 15  1  0
 15 16  1  0
 17 16  1  0
 18 19  1  0
 17 18  1  1
 20 18  2  0
M  END
$$$$
