APP.pdb
     RDKit          3D

 20 21  0  0  1  0  0  0  0  0999 V2000
   10.3786  -18.4106   22.1277 C   0  0  0  0  0  0  0  0  0  0  0  0
   10.4989  -17.1074   21.3660 C   0  0  2  0  0  0  0  0  0  0  0  0
   11.8097  -16.8966   20.8523 N   0  0  0  0  0  0  0  0  0  0  0  0
    9.9508  -15.9647   22.0789 C   0  0  0  0  0  0  0  0  0  0  0  0
   10.8113  -15.4042   22.8673 O   0  0  0  0  0  0  0  0  0  0  0  0
    8.6488  -15.4195   22.0149 N   0  0  0  0  0  0  0  0  0  0  0  0
    7.5608  -15.7683   21.1356 C   0  0  0  0  0  0  0  0  0  0  0  0
    6.6363  -14.5362   21.2026 C   0  0  0  0  0  0  0  0  0  0  0  0
    6.6992  -14.2567   22.6863 C   0  0  0  0  0  0  0  0  0  0  0  0
    8.2151  -14.3358   22.9135 C   0  0  1  0  0  0  0  0  0  0  0  0
    8.3784  -14.8301   24.3035 C   0  0  0  0  0  0  0  0  0  0  0  0
    9.1427  -15.8298   24.4730 O   0  0  0  0  0  0  0  0  0  0  0  0
    7.7428  -14.2588   25.4218 N   0  0  0  0  0  0  0  0  0  0  0  0
    6.7343  -13.2298   25.3359 C   0  0  0  0  0  0  0  0  0  0  0  0
    7.3228  -12.2080   26.3176 C   0  0  0  0  0  0  0  0  0  0  0  0
    7.7559  -13.1198   27.4456 C   0  0  0  0  0  0  0  0  0  0  0  0
    7.9086  -14.5163   26.8266 C   0  0  1  0  0  0  0  0  0  0  0  0
    6.7399  -15.3039   27.3637 C   0  0  0  0  0  0  0  0  0  0  0  0
    5.5879  -15.3507   26.5878 O   0  0  0  0  0  0  0  0  0  0  0  0
    6.7589  -15.9023   28.4482 O   0  0  0  0  0  0  0  0  0  0  0  0
  2  1  1  1
  2  4  1  0
  3  2  1  0
  4  5  2  0
  6 10  1  0
  6  4  1  0
  7  6  1  0
  8  9  1  0
  8  7  1  0
  9 10  1  0
 10 11  1  1
 11 13  1  0
 11 12  2  0
 13 17  1  0
 14 13  1  0
 14 15  1  0
 15 16  1  0
 17 16  1  0
 18 19  1  0
 17 18  1  1
 20 18  2  0
M  END
$$$$
