APP.pdb
     RDKit          3D

 20 21  0  0  1  0  0  0  0  0999 V2000
    7.0665  -16.0054   22.1088 C   0  0  0  0  0  0  0  0  0  0  0  0
    7.4706  -14.5462   22.1190 C   0  0  2  0  0  0  0  0  0  0  0  0
    8.2300  -14.1839   20.9708 N   0  0  0  0  0  0  0  0  0  0  0  0
    8.0566  -14.1140   23.3777 C   0  0  0  0  0  0  0  0  0  0  0  0
    9.3485  -14.1996   23.3862 O   0  0  0  0  0  0  0  0  0  0  0  0
    7.4109  -13.6340   24.5393 N   0  0  0  0  0  0  0  0  0  0  0  0
    6.0169  -13.3273   24.7418 C   0  0  0  0  0  0  0  0  0  0  0  0
    6.0282  -12.4064   25.9784 C   0  0  0  0  0  0  0  0  0  0  0  0
    7.0454  -13.1364   26.8245 C   0  0  0  0  0  0  0  0  0  0  0  0
    8.1507  -13.3641   25.7842 C   0  0  1  0  0  0  0  0  0  0  0  0
    8.8101  -14.6325   26.1834 C   0  0  0  0  0  0  0  0  0  0  0  0
    8.7532  -15.5956   25.3580 O   0  0  0  0  0  0  0  0  0  0  0  0
    9.4828  -14.8192   27.4055 N   0  0  0  0  0  0  0  0  0  0  0  0
    9.2376  -14.0289   28.5882 C   0  0  0  0  0  0  0  0  0  0  0  0
   10.6764  -13.6191   28.9286 C   0  0  0  0  0  0  0  0  0  0  0  0
   11.4007  -14.9302   28.7104 C   0  0  0  0  0  0  0  0  0  0  0  0
   10.5057  -15.7585   27.7780 C   0  0  1  0  0  0  0  0  0  0  0  0
    9.9358  -16.8434   28.6570 C   0  0  0  0  0  0  0  0  0  0  0  0
   10.7392  -17.9478   28.9143 O   0  0  0  0  0  0  0  0  0  0  0  0
    8.8016  -16.7966   29.1530 O   0  0  0  0  0  0  0  0  0  0  0  0
  2  1  1  1
  2  4  1  0
  3  2  1  0
  4  5  2  0
  6 10  1  0
  6  4  1  0
  7  6  1  0
  8  9  1  0
  8  7  1  0
  9 10  1  0
 10 11  1  1
 11 13  1  0
 11 12  2  0
 13 17  1  0
 14 13  1  0
 14 15  1  0
 15 16  1  0
 17 16  1  0
 18 19  1  0
 17 18  1  1
 20 18  2  0
M  END
$$$$
