APP.pdb
     RDKit          3D

 20 21  0  0  1  0  0  0  0  0999 V2000
    7.0612  -15.9670   22.0798 C   0  0  0  0  0  0  0  0  0  0  0  0
    7.4892  -14.5161   22.1485 C   0  0  2  0  0  0  0  0  0  0  0  0
    8.2766  -14.1275   21.0281 N   0  0  0  0  0  0  0  0  0  0  0  0
    8.0577  -14.1379   23.4323 C   0  0  0  0  0  0  0  0  0  0  0  0
    9.3423  -14.2931   23.4784 O   0  0  0  0  0  0  0  0  0  0  0  0
    7.4025  -13.6438   24.5826 N   0  0  0  0  0  0  0  0  0  0  0  0
    6.0130  -13.3024   24.7596 C   0  0  0  0  0  0  0  0  0  0  0  0
    6.0241  -12.3843   25.9982 C   0  0  0  0  0  0  0  0  0  0  0  0
    7.0066  -13.1410   26.8617 C   0  0  0  0  0  0  0  0  0  0  0  0
    8.1252  -13.3947   25.8418 C   0  0  1  0  0  0  0  0  0  0  0  0
    8.7450  -14.6799   26.2505 C   0  0  0  0  0  0  0  0  0  0  0  0
    8.6131  -15.6612   25.4557 O   0  0  0  0  0  0  0  0  0  0  0  0
    9.4581  -14.8636   27.4500 N   0  0  0  0  0  0  0  0  0  0  0  0
    9.2710  -14.0533   28.6297 C   0  0  0  0  0  0  0  0  0  0  0  0
   10.7287  -13.6670   28.9123 C   0  0  0  0  0  0  0  0  0  0  0  0
   11.4198  -14.9946   28.6862 C   0  0  0  0  0  0  0  0  0  0  0  0
   10.4759  -15.8175   27.7981 C   0  0  1  0  0  0  0  0  0  0  0  0
    9.9180  -16.8797   28.7121 C   0  0  0  0  0  0  0  0  0  0  0  0
   10.7139  -17.9906   28.9643 O   0  0  0  0  0  0  0  0  0  0  0  0
    8.7999  -16.8088   29.2406 O   0  0  0  0  0  0  0  0  0  0  0  0
  2  1  1  1
  2  4  1  0
  3  2  1  0
  4  5  2  0
  6 10  1  0
  6  4  1  0
  7  6  1  0
  8  9  1  0
  8  7  1  0
  9 10  1  0
 10 11  1  1
 11 13  1  0
 11 12  2  0
 13 17  1  0
 14 13  1  0
 14 15  1  0
 15 16  1  0
 17 16  1  0
 18 19  1  0
 17 18  1  1
 20 18  2  0
M  END
$$$$
