APP.pdb
     RDKit          3D

 20 21  0  0  1  0  0  0  0  0999 V2000
    7.0881  -16.0256   22.0949 C   0  0  0  0  0  0  0  0  0  0  0  0
    7.4470  -14.5557   22.1549 C   0  0  2  0  0  0  0  0  0  0  0  0
    8.1814  -14.1280   21.0130 N   0  0  0  0  0  0  0  0  0  0  0  0
    8.0340  -14.1519   23.4225 C   0  0  0  0  0  0  0  0  0  0  0  0
    9.3222  -14.2800   23.4433 O   0  0  0  0  0  0  0  0  0  0  0  0
    7.3926  -13.6588   24.5810 N   0  0  0  0  0  0  0  0  0  0  0  0
    6.0006  -13.3421   24.7827 C   0  0  0  0  0  0  0  0  0  0  0  0
    6.0189  -12.4117   26.0120 C   0  0  0  0  0  0  0  0  0  0  0  0
    7.0327  -13.1411   26.8627 C   0  0  0  0  0  0  0  0  0  0  0  0
    8.1354  -13.3836   25.8229 C   0  0  1  0  0  0  0  0  0  0  0  0
    8.7877  -14.6528   26.2313 C   0  0  0  0  0  0  0  0  0  0  0  0
    8.6999  -15.6304   25.4259 O   0  0  0  0  0  0  0  0  0  0  0  0
    9.4854  -14.8253   27.4414 N   0  0  0  0  0  0  0  0  0  0  0  0
    9.2369  -14.0476   28.6317 C   0  0  0  0  0  0  0  0  0  0  0  0
   10.6687  -13.5978   28.9507 C   0  0  0  0  0  0  0  0  0  0  0  0
   11.4269  -14.8865   28.7143 C   0  0  0  0  0  0  0  0  0  0  0  0
   10.5410  -15.7362   27.7926 C   0  0  1  0  0  0  0  0  0  0  0  0
   10.0171  -16.8410   28.6755 C   0  0  0  0  0  0  0  0  0  0  0  0
    8.7081  -16.7324   29.1294 O   0  0  0  0  0  0  0  0  0  0  0  0
   10.6894  -17.8262   29.0101 O   0  0  0  0  0  0  0  0  0  0  0  0
  2  1  1  1
  2  4  1  0
  3  2  1  0
  4  5  2  0
  6 10  1  0
  6  4  1  0
  7  6  1  0
  8  9  1  0
  8  7  1  0
  9 10  1  0
 10 11  1  1
 11 13  1  0
 11 12  2  0
 13 17  1  0
 14 13  1  0
 14 15  1  0
 15 16  1  0
 17 16  1  0
 18 19  1  0
 17 18  1  1
 20 18  2  0
M  END
$$$$
