TRR.pdb
     RDKit          3D

 30 29  0  0  1  0  0  0  0  0999 V2000
   26.5426  -24.4325  -19.0754 C   0  0  0  0  0  0  0  0  0  0  0  0
   27.4011  -25.5591  -18.4977 C   0  0  1  0  0  0  0  0  0  0  0  0
   28.3526  -25.9464  -19.4196 O   0  0  0  0  0  0  0  0  0  0  0  0
   28.0428  -25.1636  -17.2068 C   0  0  2  0  0  0  0  0  0  0  0  0
   28.6232  -26.3544  -16.5466 N   0  0  0  0  0  0  0  0  0  0  0  0
   27.0790  -24.5142  -16.3111 C   0  0  0  0  0  0  0  0  0  0  0  0
   26.2692  -25.2184  -15.6498 O   0  0  0  0  0  0  0  0  0  0  0  0
   27.2975  -21.5124  -10.4648 N   0  0  0  0  0  0  0  0  0  0  0  0
   26.2587  -20.5452  -10.2797 C   0  0  0  0  0  0  0  0  0  0  0  0
   25.5937  -20.5375   -9.2007 N   0  0  0  0  0  0  0  0  0  0  0  0
   25.9813  -19.6139  -11.2926 N   0  0  0  0  0  0  0  0  0  0  0  0
   26.7518  -19.6328  -12.5761 C   0  0  0  0  0  0  0  0  0  0  0  0
   26.1104  -20.6425  -13.4213 C   0  0  0  0  0  0  0  0  0  0  0  0
   26.7790  -21.4576  -14.4170 C   0  0  0  0  0  0  0  0  0  0  0  0
   26.0976  -22.4851  -15.1806 C   0  0  2  0  0  0  0  0  0  0  0  0
   27.0086  -23.1335  -16.1398 N   0  0  0  0  0  0  0  0  0  0  0  0
   24.8217  -22.1556  -15.7974 C   0  0  0  0  0  0  0  0  0  0  0  0
   24.7137  -21.4226  -16.7921 O   0  0  0  0  0  0  0  0  0  0  0  0
   24.8230  -19.8745   -9.0487 N   0  0  0  0  0  0  0  0  0  0  0  0
   17.6325  -24.6467  -13.6512 C   0  0  0  0  0  0  0  0  0  0  0  0
   17.7502  -23.5859  -12.6968 N   0  0  0  0  0  0  0  0  0  0  0  0
   17.2713  -23.6985  -11.5077 N   0  0  0  0  0  0  0  0  0  0  0  0
   18.4065  -22.3885  -13.0707 C   0  0  0  0  0  0  0  0  0  0  0  0
   19.0029  -22.2507  -14.3788 C   0  0  0  0  0  0  0  0  0  0  0  0
   20.5122  -22.0976  -14.2118 C   0  0  0  0  0  0  0  0  0  0  0  0
   21.2526  -23.0168  -15.1328 C   0  0  1  0  0  0  0  0  0  0  0  0
   22.3495  -22.2693  -15.8485 N   0  0  0  0  0  0  0  0  0  0  0  0
   23.6035  -22.7006  -15.2440 C   0  0  0  0  0  0  0  0  0  0  0  0
   22.1701  -20.8267  -15.6852 O   0  0  0  0  0  0  0  0  0  0  0  0
   21.6555  -20.0364  -16.5080 O   0  0  0  0  0  0  0  0  0  0  0  0
  2  1  1  6
  2  3  1  0
  4  5  1  1
  4  2  1  0
  6  7  2  0
  6  4  1  0
  9  8  1  0
 10  9  2  0
 11  9  1  0
 12 11  1  0
 13 12  1  0
 13 14  1  0
 15 14  1  6
 15 17  1  0
 15 16  1  0
 16  6  1  0
 17 27  1  0
 18 17  2  0
 20 19  1  0
 20 22  1  0
 21 20  2  0
 23 22  1  0
 23 24  1  0
 24 25  1  0
 26 25  1  6
 26 28  1  0
 27 26  1  0
 28 29  2  0
 28 30  1  0
M  END
$$$$
