TRR.pdb
     RDKit          3D

 30 29  0  0  1  0  0  0  0  0999 V2000
   26.8689  -13.9474  -19.6766 C   0  0  0  0  0  0  0  0  0  0  0  0
   26.3352  -15.3798  -19.7366 C   0  0  1  0  0  0  0  0  0  0  0  0
   25.3563  -15.4776  -20.7049 O   0  0  0  0  0  0  0  0  0  0  0  0
   27.4271  -16.3704  -19.9837 C   0  0  2  0  0  0  0  0  0  0  0  0
   27.6828  -16.4870  -21.4369 N   0  0  0  0  0  0  0  0  0  0  0  0
   27.0879  -17.6852  -19.4276 C   0  0  0  0  0  0  0  0  0  0  0  0
   26.0042  -18.2400  -19.7545 O   0  0  0  0  0  0  0  0  0  0  0  0
   29.5975  -25.6285  -17.4410 N   0  0  0  0  0  0  0  0  0  0  0  0
   30.0641  -24.9086  -16.2951 C   0  0  0  0  0  0  0  0  0  0  0  0
   30.8824  -25.4589  -15.4988 N   0  0  0  0  0  0  0  0  0  0  0  0
   29.6126  -23.6007  -16.0590 N   0  0  0  0  0  0  0  0  0  0  0  0
   28.7502  -22.9002  -17.0624 C   0  0  0  0  0  0  0  0  0  0  0  0
   28.5548  -21.5408  -16.5532 C   0  0  0  0  0  0  0  0  0  0  0  0
   28.6677  -20.3234  -17.3329 C   0  0  0  0  0  0  0  0  0  0  0  0
   27.5181  -19.6290  -17.8801 C   0  0  2  0  0  0  0  0  0  0  0  0
   27.9149  -18.3751  -18.5441 N   0  0  0  0  0  0  0  0  0  0  0  0
   26.3572  -19.4344  -17.0250 C   0  0  0  0  0  0  0  0  0  0  0  0
   26.3167  -18.5989  -16.1091 O   0  0  0  0  0  0  0  0  0  0  0  0
   31.2544  -24.9604  -14.6805 N   0  0  0  0  0  0  0  0  0  0  0  0
   18.0569  -22.8265  -17.0257 C   0  0  0  0  0  0  0  0  0  0  0  0
   18.1227  -21.8314  -15.9985 N   0  0  0  0  0  0  0  0  0  0  0  0
   17.1035  -21.5618  -15.2605 N   0  0  0  0  0  0  0  0  0  0  0  0
   19.3348  -21.1295  -15.7919 C   0  0  0  0  0  0  0  0  0  0  0  0
   20.5043  -21.4259  -16.5857 C   0  0  0  0  0  0  0  0  0  0  0  0
   21.6783  -20.6146  -16.0444 C   0  0  0  0  0  0  0  0  0  0  0  0
   22.8717  -20.7288  -16.9410 C   0  0  1  0  0  0  0  0  0  0  0  0
   24.0566  -20.0255  -16.3283 N   0  0  0  0  0  0  0  0  0  0  0  0
   25.1769  -20.2405  -17.2354 C   0  0  0  0  0  0  0  0  0  0  0  0
   24.3503  -20.5833  -15.0082 O   0  0  0  0  0  0  0  0  0  0  0  0
   25.0864  -21.5631  -14.7542 O   0  0  0  0  0  0  0  0  0  0  0  0
  2  1  1  6
  2  3  1  0
  4  5  1  6
  4  2  1  0
  6  7  2  0
  6  4  1  0
  9  8  1  0
 10  9  2  0
 11  9  1  0
 12 11  1  0
 13 12  1  0
 13 14  1  0
 15 14  1  1
 15 17  1  0
 15 16  1  0
 16  6  1  0
 17 27  1  0
 18 17  2  0
 20 19  1  0
 20 22  1  0
 21 20  2  0
 23 22  1  0
 23 24  1  0
 24 25  1  0
 26 25  1  6
 26 28  1  0
 27 26  1  0
 28 29  2  0
 28 30  1  0
M  END
$$$$
