TRR.pdb
     RDKit          3D

 30 29  0  0  1  0  0  0  0  0999 V2000
   26.9891  -18.5922  -14.0386 C   0  0  0  0  0  0  0  0  0  0  0  0
   28.0809  -19.6417  -13.8230 C   0  0  1  0  0  0  0  0  0  0  0  0
   29.3104  -19.1214  -14.1739 O   0  0  0  0  0  0  0  0  0  0  0  0
   28.0994  -20.1441  -12.4152 C   0  0  2  0  0  0  0  0  0  0  0  0
   29.1771  -21.1453  -12.2512 N   0  0  0  0  0  0  0  0  0  0  0  0
   26.8078  -20.7330  -12.0439 C   0  0  0  0  0  0  0  0  0  0  0  0
   26.5858  -21.9508  -12.2822 O   0  0  0  0  0  0  0  0  0  0  0  0
   20.3902  -21.7971   -7.5799 N   0  0  0  0  0  0  0  0  0  0  0  0
   19.6709  -21.0762   -8.5858 C   0  0  0  0  0  0  0  0  0  0  0  0
   18.6044  -20.4646   -8.2776 N   0  0  0  0  0  0  0  0  0  0  0  0
   20.1485  -21.0520   -9.9055 N   0  0  0  0  0  0  0  0  0  0  0  0
   21.5936  -21.3124  -10.1971 C   0  0  0  0  0  0  0  0  0  0  0  0
   22.2925  -20.0485   -9.9536 C   0  0  0  0  0  0  0  0  0  0  0  0
   23.6795  -19.7754  -10.2766 C   0  0  0  0  0  0  0  0  0  0  0  0
   24.4120  -20.5112  -11.2892 C   0  0  2  0  0  0  0  0  0  0  0  0
   25.7911  -20.0104  -11.4236 N   0  0  0  0  0  0  0  0  0  0  0  0
   23.7874  -20.7063  -12.5886 C   0  0  0  0  0  0  0  0  0  0  0  0
   23.6955  -19.8116  -13.4428 O   0  0  0  0  0  0  0  0  0  0  0  0
   18.0746  -19.9236   -8.9728 N   0  0  0  0  0  0  0  0  0  0  0  0
   26.4532  -25.1165  -16.0945 C   0  0  0  0  0  0  0  0  0  0  0  0
   25.5135  -25.6265  -17.0467 N   0  0  0  0  0  0  0  0  0  0  0  0
   25.8666  -25.9079  -18.2518 N   0  0  0  0  0  0  0  0  0  0  0  0
   24.1679  -25.8239  -16.6534 C   0  0  0  0  0  0  0  0  0  0  0  0
   23.6883  -25.3248  -15.3858 C   0  0  0  0  0  0  0  0  0  0  0  0
   22.7079  -24.1855  -15.6509 C   0  0  0  0  0  0  0  0  0  0  0  0
   22.2189  -23.5857  -14.3693 C   0  0  2  0  0  0  0  0  0  0  0  0
   22.6670  -22.1501  -14.2582 N   0  0  0  0  0  0  0  0  0  0  0  0
   23.2418  -22.0005  -12.9273 C   0  0  0  0  0  0  0  0  0  0  0  0
   21.5278  -21.2486  -14.4301 O   0  0  0  0  0  0  0  0  0  0  0  0
   20.6094  -21.0344  -13.6074 O   0  0  0  0  0  0  0  0  0  0  0  0
  2  1  1  1
  2  3  1  0
  4  5  1  6
  4  2  1  0
  6  7  2  0
  6  4  1  0
  9  8  1  0
 10  9  2  0
 11  9  1  0
 12 11  1  0
 13 12  1  0
 13 14  1  0
 15 14  1  1
 15 17  1  0
 15 16  1  0
 16  6  1  0
 17 27  1  0
 18 17  2  0
 20 19  1  0
 20 22  1  0
 21 20  2  0
 23 22  1  0
 23 24  1  0
 24 25  1  0
 26 25  1  6
 26 28  1  0
 27 26  1  0
 28 29  2  0
 28 30  1  0
M  END
$$$$
