TRR.pdb
     RDKit          3D

 30 29  0  0  1  0  0  0  0  0999 V2000
   15.6064  -24.0228  -16.5785 C   0  0  0  0  0  0  0  0  0  0  0  0
   14.5145  -24.1889  -15.5201 C   0  0  1  0  0  0  0  0  0  0  0  0
   13.3816  -24.7307  -16.0931 O   0  0  0  0  0  0  0  0  0  0  0  0
   14.9777  -25.0225  -14.3690 C   0  0  2  0  0  0  0  0  0  0  0  0
   13.8797  -25.1849  -13.3899 N   0  0  0  0  0  0  0  0  0  0  0  0
   16.1471  -24.4237  -13.7156 C   0  0  0  0  0  0  0  0  0  0  0  0
   16.0321  -23.3169  -13.1232 O   0  0  0  0  0  0  0  0  0  0  0  0
   16.3008  -24.7752   -9.0533 N   0  0  0  0  0  0  0  0  0  0  0  0
   17.3356  -25.3079   -8.2201 C   0  0  0  0  0  0  0  0  0  0  0  0
   17.0361  -25.8332   -7.1062 N   0  0  0  0  0  0  0  0  0  0  0  0
   18.6737  -25.2441   -8.6393 N   0  0  0  0  0  0  0  0  0  0  0  0
   19.0426  -24.5300   -9.9024 C   0  0  0  0  0  0  0  0  0  0  0  0
   19.1360  -25.5595  -10.9400 C   0  0  0  0  0  0  0  0  0  0  0  0
   19.3798  -25.3178  -12.3488 C   0  0  0  0  0  0  0  0  0  0  0  0
   18.6002  -24.3799  -13.1336 C   0  0  2  0  0  0  0  0  0  0  0  0
   17.4045  -25.0232  -13.7057 N   0  0  0  0  0  0  0  0  0  0  0  0
   19.2903  -23.5648  -14.1215 C   0  0  0  0  0  0  0  0  0  0  0  0
   19.9069  -24.0394  -15.0874 O   0  0  0  0  0  0  0  0  0  0  0  0
   17.7544  -26.2361   -6.4911 N   0  0  0  0  0  0  0  0  0  0  0  0
   18.3579  -23.1771  -18.1802 C   0  0  0  0  0  0  0  0  0  0  0  0
   17.0497  -22.6493  -18.4249 N   0  0  0  0  0  0  0  0  0  0  0  0
   16.3283  -23.0732  -19.4026 N   0  0  0  0  0  0  0  0  0  0  0  0
   16.5407  -21.6393  -17.5732 C   0  0  0  0  0  0  0  0  0  0  0  0
   17.1749  -21.3515  -16.3079 C   0  0  0  0  0  0  0  0  0  0  0  0
   18.3087  -20.3581  -16.5468 C   0  0  0  0  0  0  0  0  0  0  0  0
   19.1133  -20.1487  -15.3018 C   0  0  2  0  0  0  0  0  0  0  0  0
   19.9668  -21.3595  -15.0197 N   0  0  0  0  0  0  0  0  0  0  0  0
   19.2681  -22.1257  -13.9955 C   0  0  0  0  0  0  0  0  0  0  0  0
   21.2873  -20.9490  -14.5426 O   0  0  0  0  0  0  0  0  0  0  0  0
   21.7578  -21.1208  -13.3957 O   0  0  0  0  0  0  0  0  0  0  0  0
  2  1  1  6
  2  3  1  0
  4  5  1  1
  4  2  1  0
  6  7  2  0
  6  4  1  0
  9  8  1  0
 10  9  2  0
 11  9  1  0
 12 11  1  0
 13 12  1  0
 13 14  1  0
 15 14  1  6
 15 17  1  0
 15 16  1  0
 16  6  1  0
 17 27  1  0
 18 17  2  0
 20 19  1  0
 20 22  1  0
 21 20  2  0
 23 22  1  0
 23 24  1  0
 24 25  1  0
 26 25  1  6
 26 28  1  0
 27 26  1  0
 28 29  2  0
 28 30  1  0
M  END
$$$$
