TRR.pdb
     RDKit          3D

 30 29  0  0  1  0  0  0  0  0999 V2000
   28.6176  -18.4526  -16.9517 C   0  0  0  0  0  0  0  0  0  0  0  0
   27.4665  -19.1180  -16.1954 C   0  0  1  0  0  0  0  0  0  0  0  0
   26.4039  -19.3339  -17.0497 O   0  0  0  0  0  0  0  0  0  0  0  0
   27.8926  -20.3948  -15.5451 C   0  0  2  0  0  0  0  0  0  0  0  0
   28.2135  -21.4045  -16.5786 N   0  0  0  0  0  0  0  0  0  0  0  0
   26.8503  -20.9088  -14.6493 C   0  0  0  0  0  0  0  0  0  0  0  0
   26.0742  -21.8171  -15.0515 O   0  0  0  0  0  0  0  0  0  0  0  0
   23.0377  -22.6242   -8.0836 N   0  0  0  0  0  0  0  0  0  0  0  0
   22.8593  -21.2439   -7.7493 C   0  0  0  0  0  0  0  0  0  0  0  0
   21.7630  -20.8572   -7.2443 N   0  0  0  0  0  0  0  0  0  0  0  0
   23.8965  -20.3276   -7.9838 N   0  0  0  0  0  0  0  0  0  0  0  0
   25.1916  -20.7805   -8.5828 C   0  0  0  0  0  0  0  0  0  0  0  0
   24.9363  -20.9652  -10.0132 C   0  0  0  0  0  0  0  0  0  0  0  0
   25.8862  -20.7124  -11.0793 C   0  0  0  0  0  0  0  0  0  0  0  0
   25.5621  -20.8902  -12.4817 C   0  0  2  0  0  0  0  0  0  0  0  0
   26.6675  -20.4457  -13.3482 N   0  0  0  0  0  0  0  0  0  0  0  0
   24.2791  -20.3999  -12.9616 C   0  0  0  0  0  0  0  0  0  0  0  0
   24.0378  -19.1994  -13.1589 O   0  0  0  0  0  0  0  0  0  0  0  0
   21.5924  -19.8682   -7.0221 N   0  0  0  0  0  0  0  0  0  0  0  0
   17.6130  -20.3363  -16.8487 C   0  0  0  0  0  0  0  0  0  0  0  0
   18.5188  -20.7264  -17.8865 N   0  0  0  0  0  0  0  0  0  0  0  0
   18.4607  -20.1999  -19.0593 N   0  0  0  0  0  0  0  0  0  0  0  0
   19.4977  -21.7128  -17.6159 C   0  0  0  0  0  0  0  0  0  0  0  0
   19.5808  -22.3331  -16.3142 C   0  0  0  0  0  0  0  0  0  0  0  0
   20.1464  -21.3167  -15.3261 C   0  0  0  0  0  0  0  0  0  0  0  0
   21.4431  -21.7911  -14.7474 C   0  0  1  0  0  0  0  0  0  0  0  0
   21.9632  -20.7954  -13.7413 N   0  0  0  0  0  0  0  0  0  0  0  0
   23.2162  -21.3399  -13.2337 C   0  0  0  0  0  0  0  0  0  0  0  0
   21.0001  -20.6232  -12.6538 O   0  0  0  0  0  0  0  0  0  0  0  0
   20.9445  -21.2793  -11.5896 O   0  0  0  0  0  0  0  0  0  0  0  0
  2  1  1  6
  2  3  1  0
  4  5  1  6
  4  2  1  0
  6  7  2  0
  6  4  1  0
  9  8  1  0
 10  9  2  0
 11  9  1  0
 12 11  1  0
 13 12  1  0
 13 14  1  0
 15 14  1  1
 15 17  1  0
 15 16  1  0
 16  6  1  0
 17 27  1  0
 18 17  2  0
 20 19  1  0
 20 22  1  0
 21 20  2  0
 23 22  1  0
 23 24  1  0
 24 25  1  0
 26 25  1  6
 26 28  1  0
 27 26  1  0
 28 29  2  0
 28 30  1  0
M  END
$$$$
