TRR.pdb
     RDKit          3D

 30 29  0  0  1  0  0  0  0  0999 V2000
   17.4573  -12.2527  -17.6737 C   0  0  0  0  0  0  0  0  0  0  0  0
   17.3063  -13.3923  -16.6644 C   0  0  1  0  0  0  0  0  0  0  0  0
   16.2500  -14.2043  -17.0253 O   0  0  0  0  0  0  0  0  0  0  0  0
   18.5652  -14.1872  -16.5304 C   0  0  2  0  0  0  0  0  0  0  0  0
   18.3625  -15.2944  -15.5693 N   0  0  0  0  0  0  0  0  0  0  0  0
   19.6830  -13.3430  -16.0936 C   0  0  0  0  0  0  0  0  0  0  0  0
   19.7427  -12.9581  -14.8947 O   0  0  0  0  0  0  0  0  0  0  0  0
   28.5153  -12.5201  -17.3392 N   0  0  0  0  0  0  0  0  0  0  0  0
   27.9678  -11.2469  -16.9811 C   0  0  0  0  0  0  0  0  0  0  0  0
   28.7387  -10.2518  -16.8331 N   0  0  0  0  0  0  0  0  0  0  0  0
   26.5836  -11.1080  -16.7946 N   0  0  0  0  0  0  0  0  0  0  0  0
   25.6562  -12.2423  -17.1026 C   0  0  0  0  0  0  0  0  0  0  0  0
   24.3133  -11.7786  -16.7465 C   0  0  0  0  0  0  0  0  0  0  0  0
   23.0911  -12.5466  -16.8854 C   0  0  0  0  0  0  0  0  0  0  0  0
   21.7867  -12.0226  -16.5287 C   0  0  2  0  0  0  0  0  0  0  0  0
   20.7093  -12.9377  -16.9439 N   0  0  0  0  0  0  0  0  0  0  0  0
   21.4776  -10.6440  -16.8758 C   0  0  0  0  0  0  0  0  0  0  0  0
   21.3570  -10.2450  -18.0440 O   0  0  0  0  0  0  0  0  0  0  0  0
   28.3713   -9.3095  -16.6493 N   0  0  0  0  0  0  0  0  0  0  0  0
   15.2279   -5.8275  -14.8216 C   0  0  0  0  0  0  0  0  0  0  0  0
   15.6339   -6.8607  -15.7258 N   0  0  0  0  0  0  0  0  0  0  0  0
   14.7741   -7.6400  -16.2821 N   0  0  0  0  0  0  0  0  0  0  0  0
   17.0103   -7.0280  -16.0122 C   0  0  0  0  0  0  0  0  0  0  0  0
   17.9918   -6.1114  -15.4808 C   0  0  0  0  0  0  0  0  0  0  0  0
   19.3649   -6.5022  -16.0206 C   0  0  0  0  0  0  0  0  0  0  0  0
   19.6815   -7.9311  -15.7055 C   0  0  1  0  0  0  0  0  0  0  0  0
   21.0480   -8.2930  -16.2306 N   0  0  0  0  0  0  0  0  0  0  0  0
   21.2933   -9.6709  -15.8239 C   0  0  0  0  0  0  0  0  0  0  0  0
   22.0610   -7.4023  -15.6645 O   0  0  0  0  0  0  0  0  0  0  0  0
   22.9562   -7.7084  -14.8453 O   0  0  0  0  0  0  0  0  0  0  0  0
  2  1  1  6
  2  3  1  0
  4  5  1  1
  4  2  1  0
  6  7  2  0
  6  4  1  0
  9  8  1  0
 10  9  2  0
 11  9  1  0
 12 11  1  0
 13 12  1  0
 13 14  1  0
 15 14  1  6
 15 17  1  0
 15 16  1  0
 16  6  1  0
 17 27  1  0
 18 17  2  0
 20 19  1  0
 20 22  1  0
 21 20  2  0
 23 22  1  0
 23 24  1  0
 24 25  1  0
 26 25  1  6
 26 28  1  0
 27 26  1  0
 28 29  2  0
 28 30  1  0
M  END
$$$$
