TRR.pdb
     RDKit          3D

 30 29  0  0  1  0  0  0  0  0999 V2000
   28.3713  -19.6552  -17.5281 C   0  0  0  0  0  0  0  0  0  0  0  0
   27.2024  -19.9669  -16.5919 C   0  0  1  0  0  0  0  0  0  0  0  0
   26.0166  -19.9542  -17.2984 O   0  0  0  0  0  0  0  0  0  0  0  0
   27.3866  -21.2725  -15.8876 C   0  0  2  0  0  0  0  0  0  0  0  0
   27.3247  -22.3845  -16.8625 N   0  0  0  0  0  0  0  0  0  0  0  0
   26.3710  -21.4625  -14.8458 C   0  0  0  0  0  0  0  0  0  0  0  0
   25.2808  -22.0265  -15.1329 O   0  0  0  0  0  0  0  0  0  0  0  0
   22.7298  -20.1702   -7.9359 N   0  0  0  0  0  0  0  0  0  0  0  0
   23.7016  -21.0843   -7.4174 C   0  0  0  0  0  0  0  0  0  0  0  0
   23.3411  -21.9913   -6.6088 N   0  0  0  0  0  0  0  0  0  0  0  0
   25.0459  -20.9705   -7.8049 N   0  0  0  0  0  0  0  0  0  0  0  0
   25.4704  -19.9177   -8.7810 C   0  0  0  0  0  0  0  0  0  0  0  0
   25.0541  -20.3951  -10.1017 C   0  0  0  0  0  0  0  0  0  0  0  0
   25.9350  -20.6353  -11.2282 C   0  0  0  0  0  0  0  0  0  0  0  0
   25.4479  -20.9908  -12.5472 C   0  0  2  0  0  0  0  0  0  0  0  0
   26.5472  -21.0525  -13.5262 N   0  0  0  0  0  0  0  0  0  0  0  0
   24.3020  -20.2686  -13.0782 C   0  0  0  0  0  0  0  0  0  0  0  0
   24.3466  -19.0789  -13.4262 O   0  0  0  0  0  0  0  0  0  0  0  0
   24.0210  -22.6359   -6.1857 N   0  0  0  0  0  0  0  0  0  0  0  0
   22.4804  -16.1645  -17.7959 C   0  0  0  0  0  0  0  0  0  0  0  0
   23.3469  -17.2881  -17.9870 N   0  0  0  0  0  0  0  0  0  0  0  0
   24.5671  -17.1362  -18.3668 N   0  0  0  0  0  0  0  0  0  0  0  0
   22.8495  -18.5930  -17.7539 C   0  0  0  0  0  0  0  0  0  0  0  0
   21.5264  -18.7927  -17.2103 C   0  0  0  0  0  0  0  0  0  0  0  0
   21.6201  -18.7859  -15.6870 C   0  0  0  0  0  0  0  0  0  0  0  0
   21.9187  -20.1546  -15.1589 C   0  0  2  0  0  0  0  0  0  0  0  0
   21.8967  -20.1507  -13.6511 N   0  0  0  0  0  0  0  0  0  0  0  0
   23.0365  -20.9507  -13.2210 C   0  0  0  0  0  0  0  0  0  0  0  0
   20.6470  -20.7319  -13.1607 O   0  0  0  0  0  0  0  0  0  0  0  0
   19.6016  -20.1154  -12.8551 O   0  0  0  0  0  0  0  0  0  0  0  0
  2  1  1  6
  2  3  1  0
  4  5  1  6
  4  2  1  0
  6  7  2  0
  6  4  1  0
  9  8  1  0
 10  9  2  0
 11  9  1  0
 12 11  1  0
 13 12  1  0
 13 14  1  0
 15 14  1  1
 15 17  1  0
 15 16  1  0
 16  6  1  0
 17 27  1  0
 18 17  2  0
 20 19  1  0
 20 22  1  0
 21 20  2  0
 23 22  1  0
 23 24  1  0
 24 25  1  0
 26 25  1  1
 26 28  1  0
 27 26  1  0
 28 29  2  0
 28 30  1  0
M  END
$$$$
