TRR.pdb
     RDKit          3D

 30 29  0  0  1  0  0  0  0  0999 V2000
   26.7523  -20.5507   -9.7662 C   0  0  0  0  0  0  0  0  0  0  0  0
   27.3881  -21.4873  -10.7950 C   0  0  1  0  0  0  0  0  0  0  0  0
   26.4386  -22.3592  -11.2886 O   0  0  0  0  0  0  0  0  0  0  0  0
   28.0429  -20.7311  -11.9059 C   0  0  2  0  0  0  0  0  0  0  0  0
   29.0167  -19.7639  -11.3520 N   0  0  0  0  0  0  0  0  0  0  0  0
   27.0509  -20.0284  -12.7275 C   0  0  0  0  0  0  0  0  0  0  0  0
   26.5195  -18.9702  -12.2951 O   0  0  0  0  0  0  0  0  0  0  0  0
   25.7983  -14.1928  -15.0659 N   0  0  0  0  0  0  0  0  0  0  0  0
   25.8334  -14.5064  -16.4621 C   0  0  0  0  0  0  0  0  0  0  0  0
   25.9776  -13.5761  -17.3106 N   0  0  0  0  0  0  0  0  0  0  0  0
   25.7062  -15.8394  -16.8831 N   0  0  0  0  0  0  0  0  0  0  0  0
   25.7259  -16.9574  -15.8876 C   0  0  0  0  0  0  0  0  0  0  0  0
   25.9703  -18.1812  -16.6543 C   0  0  0  0  0  0  0  0  0  0  0  0
   25.9968  -19.5257  -16.1117 C   0  0  0  0  0  0  0  0  0  0  0  0
   25.5717  -19.8384  -14.7608 C   0  0  2  0  0  0  0  0  0  0  0  0
   26.6572  -20.4684  -13.9893 N   0  0  0  0  0  0  0  0  0  0  0  0
   24.3113  -20.5420  -14.5788 C   0  0  0  0  0  0  0  0  0  0  0  0
   24.2201  -21.7782  -14.5338 O   0  0  0  0  0  0  0  0  0  0  0  0
   26.0686  -13.7738  -18.3152 N   0  0  0  0  0  0  0  0  0  0  0  0
   19.6520  -23.0661   -8.5322 C   0  0  0  0  0  0  0  0  0  0  0  0
   18.7606  -23.2577   -9.6360 N   0  0  0  0  0  0  0  0  0  0  0  0
   17.6297  -23.8537   -9.4882 N   0  0  0  0  0  0  0  0  0  0  0  0
   19.1327  -22.7819  -10.9165 C   0  0  0  0  0  0  0  0  0  0  0  0
   20.3087  -21.9608  -11.0861 C   0  0  0  0  0  0  0  0  0  0  0  0
   20.4606  -21.6285  -12.5680 C   0  0  0  0  0  0  0  0  0  0  0  0
   21.7229  -20.8651  -12.8228 C   0  0  1  0  0  0  0  0  0  0  0  0
   21.8528  -20.5423  -14.2901 N   0  0  0  0  0  0  0  0  0  0  0  0
   23.0892  -19.7847  -14.4368 C   0  0  0  0  0  0  0  0  0  0  0  0
   20.7082  -19.7490  -14.7380 O   0  0  0  0  0  0  0  0  0  0  0  0
   20.6922  -18.5196  -14.9714 O   0  0  0  0  0  0  0  0  0  0  0  0
  2  1  1  1
  2  3  1  0
  4  5  1  1
  4  2  1  0
  6  7  2  0
  6  4  1  0
  9  8  1  0
 10  9  2  0
 11  9  1  0
 12 11  1  0
 13 12  1  0
 13 14  1  0
 15 14  1  6
 15 17  1  0
 15 16  1  0
 16  6  1  0
 17 27  1  0
 18 17  2  0
 20 19  1  0
 20 22  1  0
 21 20  2  0
 23 22  1  0
 23 24  1  0
 24 25  1  0
 26 25  1  6
 26 28  1  0
 27 26  1  0
 28 29  2  0
 28 30  1  0
M  END
$$$$
