TRR.pdb
     RDKit          3D

 30 29  0  0  1  0  0  0  0  0999 V2000
   13.7247  -23.6184  -12.5441 C   0  0  0  0  0  0  0  0  0  0  0  0
   13.8054  -22.1133  -12.8047 C   0  0  1  0  0  0  0  0  0  0  0  0
   12.5361  -21.5928  -12.9577 O   0  0  0  0  0  0  0  0  0  0  0  0
   14.5445  -21.3995  -11.7189 C   0  0  2  0  0  0  0  0  0  0  0  0
   14.6593  -19.9611  -12.0484 N   0  0  0  0  0  0  0  0  0  0  0  0
   15.8789  -21.9752  -11.5169 C   0  0  0  0  0  0  0  0  0  0  0  0
   16.8027  -21.7102  -12.3327 O   0  0  0  0  0  0  0  0  0  0  0  0
   18.4655  -26.3000   -4.4918 N   0  0  0  0  0  0  0  0  0  0  0  0
   17.9497  -26.9250   -5.6718 C   0  0  0  0  0  0  0  0  0  0  0  0
   17.4587  -28.0913   -5.6006 N   0  0  0  0  0  0  0  0  0  0  0  0
   17.9923  -26.2451   -6.8991 N   0  0  0  0  0  0  0  0  0  0  0  0
   19.0867  -25.2657   -7.1894 C   0  0  0  0  0  0  0  0  0  0  0  0
   18.8303  -24.7565   -8.5386 C   0  0  0  0  0  0  0  0  0  0  0  0
   17.6846  -23.9618   -8.9368 C   0  0  0  0  0  0  0  0  0  0  0  0
   17.5149  -23.4424  -10.2802 C   0  0  2  0  0  0  0  0  0  0  0  0
   16.1940  -22.8118  -10.4485 N   0  0  0  0  0  0  0  0  0  0  0  0
   17.8372  -24.3105  -11.4023 C   0  0  0  0  0  0  0  0  0  0  0  0
   17.0460  -25.1433  -11.8701 O   0  0  0  0  0  0  0  0  0  0  0  0
   17.0045  -28.5339   -6.4096 N   0  0  0  0  0  0  0  0  0  0  0  0
   25.1186  -24.5682  -15.3324 C   0  0  0  0  0  0  0  0  0  0  0  0
   24.6054  -25.9005  -15.4390 N   0  0  0  0  0  0  0  0  0  0  0  0
   25.3817  -26.9248  -15.3728 N   0  0  0  0  0  0  0  0  0  0  0  0
   23.2149  -26.0938  -15.6218 C   0  0  0  0  0  0  0  0  0  0  0  0
   22.3086  -24.9693  -15.6359 C   0  0  0  0  0  0  0  0  0  0  0  0
   20.9838  -25.4043  -15.0153 C   0  0  0  0  0  0  0  0  0  0  0  0
   20.7086  -24.6530  -13.7500 C   0  0  2  0  0  0  0  0  0  0  0  0
   19.4061  -25.1096  -13.1423 N   0  0  0  0  0  0  0  0  0  0  0  0
   19.1380  -24.2146  -12.0238 C   0  0  0  0  0  0  0  0  0  0  0  0
   19.5204  -26.4921  -12.6779 O   0  0  0  0  0  0  0  0  0  0  0  0
   20.0311  -26.8835  -11.6045 O   0  0  0  0  0  0  0  0  0  0  0  0
  2  1  1  1
  2  3  1  0
  4  5  1  6
  4  2  1  0
  6  7  2  0
  6  4  1  0
  9  8  1  0
 10  9  2  0
 11  9  1  0
 12 11  1  0
 13 12  1  0
 13 14  1  0
 15 14  1  1
 15 17  1  0
 15 16  1  0
 16  6  1  0
 17 27  1  0
 18 17  2  0
 20 19  1  0
 20 22  1  0
 21 20  2  0
 23 22  1  0
 23 24  1  0
 24 25  1  0
 26 25  1  6
 26 28  1  0
 27 26  1  0
 28 29  2  0
 28 30  1  0
M  END
$$$$
