TRR.pdb
     RDKit          3D

 30 29  0  0  1  0  0  0  0  0999 V2000
   26.7498  -19.0303  -17.0389 C   0  0  0  0  0  0  0  0  0  0  0  0
   27.3817  -20.3142  -17.5796 C   0  0  1  0  0  0  0  0  0  0  0  0
   28.3249  -20.0070  -18.5396 O   0  0  0  0  0  0  0  0  0  0  0  0
   27.9841  -21.1401  -16.4889 C   0  0  2  0  0  0  0  0  0  0  0  0
   28.5602  -22.3803  -17.0551 N   0  0  0  0  0  0  0  0  0  0  0  0
   26.9893  -21.4727  -15.4629 C   0  0  0  0  0  0  0  0  0  0  0  0
   26.1334  -22.3696  -15.6913 O   0  0  0  0  0  0  0  0  0  0  0  0
   26.1318  -19.3956   -6.7727 N   0  0  0  0  0  0  0  0  0  0  0  0
   25.4414  -20.5676   -7.2184 C   0  0  0  0  0  0  0  0  0  0  0  0
   24.9476  -21.3666   -6.3674 N   0  0  0  0  0  0  0  0  0  0  0  0
   25.3168  -20.8260   -8.5924 N   0  0  0  0  0  0  0  0  0  0  0  0
   25.4686  -19.7217   -9.5918 C   0  0  0  0  0  0  0  0  0  0  0  0
   25.2029  -20.3190  -10.9024 C   0  0  0  0  0  0  0  0  0  0  0  0
   26.1857  -20.5325  -11.9472 C   0  0  0  0  0  0  0  0  0  0  0  0
   25.8431  -21.0543  -13.2562 C   0  0  2  0  0  0  0  0  0  0  0  0
   26.9376  -20.8456  -14.2201 N   0  0  0  0  0  0  0  0  0  0  0  0
   24.5545  -20.6943  -13.8277 C   0  0  0  0  0  0  0  0  0  0  0  0
   24.2746  -19.5489  -14.2123 O   0  0  0  0  0  0  0  0  0  0  0  0
   24.4517  -22.2197   -6.6552 N   0  0  0  0  0  0  0  0  0  0  0  0
   22.5805  -21.3735  -19.3969 C   0  0  0  0  0  0  0  0  0  0  0  0
   21.2201  -21.7651  -19.6111 N   0  0  0  0  0  0  0  0  0  0  0  0
   20.5731  -21.3936  -20.6596 N   0  0  0  0  0  0  0  0  0  0  0  0
   20.5741  -22.5772  -18.6479 C   0  0  0  0  0  0  0  0  0  0  0  0
   21.2820  -23.0385  -17.4766 C   0  0  0  0  0  0  0  0  0  0  0  0
   20.7642  -22.2727  -16.2621 C   0  0  0  0  0  0  0  0  0  0  0  0
   21.5972  -22.5558  -15.0509 C   0  0  2  0  0  0  0  0  0  0  0  0
   22.2712  -21.2946  -14.5721 N   0  0  0  0  0  0  0  0  0  0  0  0
   23.5326  -21.7058  -13.9687 C   0  0  0  0  0  0  0  0  0  0  0  0
   21.4301  -20.6119  -13.5890 O   0  0  0  0  0  0  0  0  0  0  0  0
   21.4742  -20.7407  -12.3450 O   0  0  0  0  0  0  0  0  0  0  0  0
  2  1  1  1
  2  3  1  0
  4  5  1  6
  4  2  1  0
  6  7  2  0
  6  4  1  0
  9  8  1  0
 10  9  2  0
 11  9  1  0
 12 11  1  0
 13 12  1  0
 13 14  1  0
 15 14  1  1
 15 17  1  0
 15 16  1  0
 16  6  1  0
 17 27  1  0
 18 17  2  0
 20 19  1  0
 20 22  1  0
 21 20  2  0
 23 22  1  0
 23 24  1  0
 24 25  1  0
 26 25  1  6
 26 28  1  0
 27 26  1  0
 28 29  2  0
 28 30  1  0
M  END
$$$$
