NRV.pdb
     RDKit          3D

 27 26  0  0  1  0  0  0  0  0999 V2000
   15.4866  -24.6939  -14.6500 N   0  0  0  0  0  0  0  0  0  0  0  0
   16.7877  -25.0677  -15.1380 C   0  0  0  0  0  0  0  0  0  0  0  0
   16.8756  -26.0679  -15.8742 O   0  0  0  0  0  0  0  0  0  0  0  0
   17.9023  -24.2233  -14.7212 C   0  0  0  0  0  0  0  0  0  0  0  0
   19.0901  -24.9360  -14.1376 C   0  0  2  0  0  0  0  0  0  0  0  0
   18.7978  -25.1301  -12.7065 N   0  0  0  0  0  0  0  0  0  0  0  0
   20.3007  -24.0757  -14.2648 C   0  0  0  0  0  0  0  0  0  0  0  0
   20.4233  -23.0490  -13.5656 O   0  0  0  0  0  0  0  0  0  0  0  0
   28.3336  -27.0045  -16.2324 N   0  0  0  0  0  0  0  0  0  0  0  0
   28.5279  -25.5768  -16.3249 C   0  0  0  0  0  0  0  0  0  0  0  0
   29.6792  -25.0805  -16.6075 N   0  0  0  0  0  0  0  0  0  0  0  0
   27.4446  -24.6787  -16.1087 N   0  0  0  0  0  0  0  0  0  0  0  0
   26.1089  -25.1405  -15.8754 C   0  0  0  0  0  0  0  0  0  0  0  0
   25.1086  -24.0104  -15.6414 C   0  0  0  0  0  0  0  0  0  0  0  0
   23.7705  -24.6614  -15.5093 C   0  0  0  0  0  0  0  0  0  0  0  0
   22.6138  -23.7667  -15.2664 C   0  0  2  0  0  0  0  0  0  0  0  0
   21.3271  -24.4211  -15.1884 N   0  0  0  0  0  0  0  0  0  0  0  0
   22.5500  -22.5743  -16.1560 C   0  0  0  0  0  0  0  0  0  0  0  0
   22.1900  -22.7305  -17.3719 O   0  0  0  0  0  0  0  0  0  0  0  0
   29.7721  -24.0601  -16.7581 C   0  0  0  0  0  0  0  0  0  0  0  0
   20.5225  -19.3647  -15.9117 C   0  0  2  0  0  0  0  0  0  0  0  0
   22.0000  -18.9857  -16.1301 C   0  0  0  0  0  0  0  0  0  0  0  0
   22.5026  -18.4563  -14.8131 C   0  0  2  0  0  0  0  0  0  0  0  0
   22.7749  -20.1350  -16.6711 N   0  0  0  0  0  0  0  0  0  0  0  0
   22.8690  -21.2504  -15.7396 C   0  0  0  0  0  0  0  0  0  0  0  0
   24.1879  -19.6850  -17.0173 O   0  0  0  0  0  0  0  0  0  0  0  0
   25.1621  -20.0677  -16.3379 O   0  0  0  0  0  0  0  0  0  0  0  0
  2  1  1  0
  3  2  2  0
  4  2  1  0
  4  5  1  0
  5  6  1  1
  5  7  1  0
  7  8  2  0
 10  9  1  0
 10 12  1  0
 11 10  2  0
 13 12  1  0
 13 14  1  0
 15 14  1  0
 16 15  1  6
 17  7  1  0
 17 16  1  0
 18 16  1  0
 18 19  2  0
 21 20  1  6
 21 23  1  0
 22 21  1  0
 23 24  1  6
 23 25  1  0
 24 18  1  0
 25 27  1  0
 26 25  2  0
M  END
$$$$
