NRV.pdb
     RDKit          3D

 27 26  0  0  1  0  0  0  0  0999 V2000
   28.9384  -19.0729  -16.2192 N   0  0  0  0  0  0  0  0  0  0  0  0
   27.6587  -18.7168  -16.7728 C   0  0  0  0  0  0  0  0  0  0  0  0
   27.6274  -17.8758  -17.6903 O   0  0  0  0  0  0  0  0  0  0  0  0
   26.4967  -19.3886  -16.2006 C   0  0  0  0  0  0  0  0  0  0  0  0
   26.7853  -20.4710  -15.1985 C   0  0  2  0  0  0  0  0  0  0  0  0
   27.3465  -21.6026  -15.9574 N   0  0  0  0  0  0  0  0  0  0  0  0
   25.5131  -20.9106  -14.5579 C   0  0  0  0  0  0  0  0  0  0  0  0
   24.8441  -21.8408  -15.0530 O   0  0  0  0  0  0  0  0  0  0  0  0
   22.0565  -21.6522   -7.1796 N   0  0  0  0  0  0  0  0  0  0  0  0
   23.3802  -21.1488   -7.4605 C   0  0  0  0  0  0  0  0  0  0  0  0
   24.3997  -21.5511   -6.7894 N   0  0  0  0  0  0  0  0  0  0  0  0
   23.5919  -20.1934   -8.4947 N   0  0  0  0  0  0  0  0  0  0  0  0
   22.5099  -19.6443   -9.2559 C   0  0  0  0  0  0  0  0  0  0  0  0
   22.3686  -20.2649  -10.6442 C   0  0  0  0  0  0  0  0  0  0  0  0
   23.6967  -20.1026  -11.3085 C   0  0  0  0  0  0  0  0  0  0  0  0
   23.8037  -20.5716  -12.7107 C   0  0  2  0  0  0  0  0  0  0  0  0
   25.0520  -20.2689  -13.3740 N   0  0  0  0  0  0  0  0  0  0  0  0
   22.6439  -20.2205  -13.5759 C   0  0  0  0  0  0  0  0  0  0  0  0
   22.5023  -19.0090  -13.9561 O   0  0  0  0  0  0  0  0  0  0  0  0
   25.3341  -21.1534   -6.9929 C   0  0  0  0  0  0  0  0  0  0  0  0
   20.7221  -22.9581  -15.9725 C   0  0  2  0  0  0  0  0  0  0  0  0
   20.4971  -21.4451  -16.1579 C   0  0  0  0  0  0  0  0  0  0  0  0
   19.1944  -21.2962  -16.8983 C   0  0  1  0  0  0  0  0  0  0  0  0
   20.5528  -20.7302  -14.8540 N   0  0  0  0  0  0  0  0  0  0  0  0
   21.6644  -21.1562  -14.0153 C   0  0  0  0  0  0  0  0  0  0  0  0
   19.2600  -20.9640  -14.0839 O   0  0  0  0  0  0  0  0  0  0  0  0
   18.1765  -20.5123  -14.5071 O   0  0  0  0  0  0  0  0  0  0  0  0
  2  1  1  0
  3  2  2  0
  4  2  1  0
  4  5  1  0
  5  6  1  6
  5  7  1  0
  7  8  2  0
 10  9  1  0
 10 12  1  0
 11 10  2  0
 13 12  1  0
 13 14  1  0
 15 14  1  0
 16 15  1  1
 17  7  1  0
 17 16  1  0
 18 16  1  0
 18 19  2  0
 21 20  1  6
 21 23  1  0
 22 21  1  0
 23 24  1  6
 23 25  1  0
 24 18  1  0
 25 27  1  0
 26 25  2  0
M  END
$$$$
