NRV.pdb
     RDKit          3D

 27 26  0  0  1  0  0  0  0  0999 V2000
   17.5634  -14.6287  -18.9227 N   0  0  0  0  0  0  0  0  0  0  0  0
   17.3344  -13.2492  -18.5831 C   0  0  0  0  0  0  0  0  0  0  0  0
   16.3063  -12.6983  -19.0187 O   0  0  0  0  0  0  0  0  0  0  0  0
   18.3433  -12.6138  -17.7419 C   0  0  0  0  0  0  0  0  0  0  0  0
   19.5140  -13.4716  -17.3507 C   0  0  2  0  0  0  0  0  0  0  0  0
   19.0040  -14.4542  -16.3782 N   0  0  0  0  0  0  0  0  0  0  0  0
   20.5476  -12.6310  -16.6820 C   0  0  0  0  0  0  0  0  0  0  0  0
   20.3894  -12.2528  -15.5031 O   0  0  0  0  0  0  0  0  0  0  0  0
   29.1660  -12.0836  -18.5557 N   0  0  0  0  0  0  0  0  0  0  0  0
   28.9946  -10.9950  -17.6228 C   0  0  0  0  0  0  0  0  0  0  0  0
   29.9976  -10.2955  -17.2273 N   0  0  0  0  0  0  0  0  0  0  0  0
   27.7050  -10.6643  -17.1183 N   0  0  0  0  0  0  0  0  0  0  0  0
   26.5233  -11.3555  -17.5397 C   0  0  0  0  0  0  0  0  0  0  0  0
   25.2541  -10.8660  -16.8454 C   0  0  0  0  0  0  0  0  0  0  0  0
   24.1413  -11.7142  -17.3688 C   0  0  0  0  0  0  0  0  0  0  0  0
   22.7856  -11.4406  -16.8353 C   0  0  2  0  0  0  0  0  0  0  0  0
   21.7246  -12.2529  -17.3873 N   0  0  0  0  0  0  0  0  0  0  0  0
   22.4000  -10.0025  -16.8197 C   0  0  0  0  0  0  0  0  0  0  0  0
   22.6073   -9.2969  -17.8645 O   0  0  0  0  0  0  0  0  0  0  0  0
   29.8372   -9.4682  -16.6252 C   0  0  0  0  0  0  0  0  0  0  0  0
   18.9993   -8.5138  -15.7786 C   0  0  2  0  0  0  0  0  0  0  0  0
   20.1299   -7.7222  -16.4637 C   0  0  0  0  0  0  0  0  0  0  0  0
   19.6793   -6.2860  -16.5048 C   0  0  1  0  0  0  0  0  0  0  0  0
   21.4317   -7.9427  -15.7777 N   0  0  0  0  0  0  0  0  0  0  0  0
   21.8078   -9.3476  -15.7025 C   0  0  0  0  0  0  0  0  0  0  0  0
   21.3652   -7.3923  -14.3593 O   0  0  0  0  0  0  0  0  0  0  0  0
   21.3657   -8.1622  -13.3773 O   0  0  0  0  0  0  0  0  0  0  0  0
  2  1  1  0
  3  2  2  0
  4  2  1  0
  4  5  1  0
  5  6  1  1
  5  7  1  0
  7  8  2  0
 10  9  1  0
 10 12  1  0
 11 10  2  0
 13 12  1  0
 13 14  1  0
 15 14  1  0
 16 15  1  6
 17  7  1  0
 17 16  1  0
 18 16  1  0
 18 19  2  0
 21 20  1  6
 21 23  1  0
 22 21  1  0
 23 24  1  6
 23 25  1  0
 24 18  1  0
 25 27  1  0
 26 25  2  0
M  END
$$$$
