NRV.pdb
     RDKit          3D

 27 26  0  0  1  0  0  0  0  0999 V2000
   23.9531  -11.9139  -15.1278 N   0  0  0  0  0  0  0  0  0  0  0  0
   24.8702  -12.9986  -15.3578 C   0  0  0  0  0  0  0  0  0  0  0  0
   26.0880  -12.7796  -15.2194 O   0  0  0  0  0  0  0  0  0  0  0  0
   24.2780  -14.2779  -15.7343 C   0  0  0  0  0  0  0  0  0  0  0  0
   25.2298  -15.3220  -16.2473 C   0  0  2  0  0  0  0  0  0  0  0  0
   25.6143  -14.9034  -17.6068 N   0  0  0  0  0  0  0  0  0  0  0  0
   24.5309  -16.6360  -16.3326 C   0  0  0  0  0  0  0  0  0  0  0  0
   23.8058  -16.9043  -17.3124 O   0  0  0  0  0  0  0  0  0  0  0  0
   29.0279  -21.5918  -16.9849 N   0  0  0  0  0  0  0  0  0  0  0  0
   28.0159  -22.5535  -16.6168 C   0  0  0  0  0  0  0  0  0  0  0  0
   28.3322  -23.6775  -16.0799 N   0  0  0  0  0  0  0  0  0  0  0  0
   26.6361  -22.2790  -16.8358 N   0  0  0  0  0  0  0  0  0  0  0  0
   26.1755  -20.9926  -17.2656 C   0  0  0  0  0  0  0  0  0  0  0  0
   26.3736  -19.8970  -16.2201 C   0  0  0  0  0  0  0  0  0  0  0  0
   25.2226  -20.0125  -15.2748 C   0  0  0  0  0  0  0  0  0  0  0  0
   24.1898  -18.9517  -15.3476 C   0  0  2  0  0  0  0  0  0  0  0  0
   24.6867  -17.5952  -15.2926 N   0  0  0  0  0  0  0  0  0  0  0  0
   23.0413  -19.1346  -14.4177 C   0  0  0  0  0  0  0  0  0  0  0  0
   23.2130  -18.9043  -13.1727 O   0  0  0  0  0  0  0  0  0  0  0  0
   27.5863  -24.3491  -15.8245 C   0  0  0  0  0  0  0  0  0  0  0  0
   19.9774  -17.3512  -13.9133 C   0  0  2  0  0  0  0  0  0  0  0  0
   19.5341  -18.8212  -14.0428 C   0  0  0  0  0  0  0  0  0  0  0  0
   18.8514  -18.9437  -15.3793 C   0  0  2  0  0  0  0  0  0  0  0  0
   20.6822  -19.7474  -13.8474 N   0  0  0  0  0  0  0  0  0  0  0  0
   21.7439  -19.5566  -14.8257 C   0  0  0  0  0  0  0  0  0  0  0  0
   20.2017  -21.1893  -13.9433 O   0  0  0  0  0  0  0  0  0  0  0  0
   20.5981  -21.9322  -14.8642 O   0  0  0  0  0  0  0  0  0  0  0  0
  2  1  1  0
  3  2  2  0
  4  2  1  0
  4  5  1  0
  5  6  1  6
  5  7  1  0
  7  8  2  0
 10  9  1  0
 10 12  1  0
 11 10  2  0
 13 12  1  0
 13 14  1  0
 15 14  1  0
 16 15  1  1
 17  7  1  0
 17 16  1  0
 18 16  1  0
 18 19  2  0
 21 20  1  1
 21 23  1  0
 22 21  1  0
 23 24  1  1
 23 25  1  0
 24 18  1  0
 25 27  1  0
 26 25  2  0
M  END
$$$$
