NRV.pdb
     RDKit          3D

 27 26  0  0  1  0  0  0  0  0999 V2000
   25.0207  -13.9111  -22.3066 N   0  0  0  0  0  0  0  0  0  0  0  0
   25.3219  -12.5971  -21.8030 C   0  0  0  0  0  0  0  0  0  0  0  0
   26.5089  -12.2215  -21.8103 O   0  0  0  0  0  0  0  0  0  0  0  0
   24.1887  -11.8115  -21.3261 C   0  0  0  0  0  0  0  0  0  0  0  0
   24.3487  -11.1723  -19.9751 C   0  0  2  0  0  0  0  0  0  0  0  0
   24.4556  -12.2744  -19.0028 N   0  0  0  0  0  0  0  0  0  0  0  0
   23.1336  -10.3703  -19.6550 C   0  0  0  0  0  0  0  0  0  0  0  0
   22.1607  -10.3566  -20.4369 O   0  0  0  0  0  0  0  0  0  0  0  0
   17.3975  -11.4230  -14.8027 N   0  0  0  0  0  0  0  0  0  0  0  0
   16.7688  -10.2680  -15.3988 C   0  0  0  0  0  0  0  0  0  0  0  0
   15.8578   -9.6114  -14.7738 N   0  0  0  0  0  0  0  0  0  0  0  0
   17.1460   -9.8223  -16.6974 N   0  0  0  0  0  0  0  0  0  0  0  0
   18.3699  -10.2342  -17.3171 C   0  0  0  0  0  0  0  0  0  0  0  0
   19.4950   -9.2110  -17.1771 C   0  0  0  0  0  0  0  0  0  0  0  0
   20.6661   -9.7791  -17.9102 C   0  0  0  0  0  0  0  0  0  0  0  0
   21.8917   -8.9466  -17.9580 C   0  0  2  0  0  0  0  0  0  0  0  0
   23.0764   -9.6118  -18.4519 N   0  0  0  0  0  0  0  0  0  0  0  0
   22.1865   -8.1981  -16.7050 C   0  0  0  0  0  0  0  0  0  0  0  0
   22.5787   -8.8470  -15.6767 O   0  0  0  0  0  0  0  0  0  0  0  0
   15.4348   -8.7766  -15.2176 C   0  0  0  0  0  0  0  0  0  0  0  0
   24.8569   -5.7022  -16.6950 C   0  0  2  0  0  0  0  0  0  0  0  0
   23.6820   -5.0545  -15.9371 C   0  0  0  0  0  0  0  0  0  0  0  0
   23.1030   -4.0141  -16.8589 C   0  0  2  0  0  0  0  0  0  0  0  0
   22.7097   -6.0816  -15.4749 N   0  0  0  0  0  0  0  0  0  0  0  0
   22.0582   -6.7863  -16.5703 C   0  0  0  0  0  0  0  0  0  0  0  0
   21.6308   -5.4230  -14.6256 O   0  0  0  0  0  0  0  0  0  0  0  0
   20.4534   -5.3546  -15.0333 O   0  0  0  0  0  0  0  0  0  0  0  0
  2  1  1  0
  3  2  2  0
  4  2  1  0
  4  5  1  0
  5  6  1  1
  5  7  1  0
  7  8  2  0
 10  9  1  0
 10 12  1  0
 11 10  2  0
 13 12  1  0
 13 14  1  0
 15 14  1  0
 16 15  1  1
 17  7  1  0
 17 16  1  0
 18 16  1  0
 18 19  2  0
 21 20  1  1
 21 23  1  0
 22 21  1  0
 23 24  1  1
 23 25  1  0
 24 18  1  0
 25 27  1  0
 26 25  2  0
M  END
$$$$
