NRV.pdb
     RDKit          3D

 27 26  0  0  1  0  0  0  0  0999 V2000
   17.8180   -2.4527   -7.8423 N   0  0  0  0  0  0  0  0  0  0  0  0
   16.4543   -2.8547   -7.6200 C   0  0  0  0  0  0  0  0  0  0  0  0
   15.9037   -2.5079   -6.5585 O   0  0  0  0  0  0  0  0  0  0  0  0
   15.8310   -3.6417   -8.6788 C   0  0  0  0  0  0  0  0  0  0  0  0
   16.6753   -3.9005   -9.8951 C   0  0  2  0  0  0  0  0  0  0  0  0
   16.5401   -2.7128  -10.7566 N   0  0  0  0  0  0  0  0  0  0  0  0
   16.1446   -5.0847  -10.6286 C   0  0  0  0  0  0  0  0  0  0  0  0
   15.0497   -5.0211  -11.2245 O   0  0  0  0  0  0  0  0  0  0  0  0
   20.5204  -10.5503  -15.7055 N   0  0  0  0  0  0  0  0  0  0  0  0
   19.1766  -11.0710  -15.7927 C   0  0  0  0  0  0  0  0  0  0  0  0
   18.8719  -11.9823  -16.6462 N   0  0  0  0  0  0  0  0  0  0  0  0
   18.1515  -10.5900  -14.9297 N   0  0  0  0  0  0  0  0  0  0  0  0
   18.3826   -9.5352  -13.9885 C   0  0  0  0  0  0  0  0  0  0  0  0
   17.1537   -9.1907  -13.1497 C   0  0  0  0  0  0  0  0  0  0  0  0
   17.5493   -8.0354  -12.2891 C   0  0  0  0  0  0  0  0  0  0  0  0
   16.5041   -7.4781  -11.3979 C   0  0  2  0  0  0  0  0  0  0  0  0
   16.8860   -6.2995  -10.6529 N   0  0  0  0  0  0  0  0  0  0  0  0
   15.8434   -8.4756  -10.5116 C   0  0  0  0  0  0  0  0  0  0  0  0
   16.4830   -8.9200   -9.4988 O   0  0  0  0  0  0  0  0  0  0  0  0
   17.9257  -12.4030  -16.6279 C   0  0  0  0  0  0  0  0  0  0  0  0
   13.0772   -8.2166   -8.1950 C   0  0  2  0  0  0  0  0  0  0  0  0
   12.7305   -9.4144   -9.1001 C   0  0  0  0  0  0  0  0  0  0  0  0
   11.6369   -8.9473  -10.0238 C   0  0  2  0  0  0  0  0  0  0  0  0
   13.9421   -9.9350   -9.7893 N   0  0  0  0  0  0  0  0  0  0  0  0
   14.5271   -8.9782  -10.7183 C   0  0  0  0  0  0  0  0  0  0  0  0
   13.5897  -11.1965  -10.5661 O   0  0  0  0  0  0  0  0  0  0  0  0
   13.5439  -11.1840  -11.8131 O   0  0  0  0  0  0  0  0  0  0  0  0
  2  1  1  0
  3  2  2  0
  4  2  1  0
  4  5  1  0
  5  6  1  6
  5  7  1  0
  7  8  2  0
 10  9  1  0
 10 12  1  0
 11 10  2  0
 13 12  1  0
 13 14  1  0
 15 14  1  0
 16 15  1  1
 17  7  1  0
 17 16  1  0
 18 16  1  0
 18 19  2  0
 21 20  1  1
 21 23  1  0
 22 21  1  0
 23 24  1  1
 23 25  1  0
 24 18  1  0
 25 27  1  0
 26 25  2  0
M  END
$$$$
