WAV.pdb
     RDKit          3D

 27 28  0  0  1  0  0  0  0  0999 V2000
   26.6095  -19.0287  -12.2384 N   0  0  0  0  0  0  0  0  0  0  0  0
   26.4693  -20.4027  -12.5778 C   0  0  1  0  0  0  0  0  0  0  0  0
   25.8103  -21.2379  -11.4816 C   0  0  0  0  0  0  0  0  0  0  0  0
   26.3369  -20.9031  -10.1493 C   0  0  0  0  0  0  0  0  0  0  0  0
   25.6509  -20.3584   -9.1050 C   0  0  0  0  0  0  0  0  0  0  0  0
   26.4499  -20.2006   -8.0549 N   0  0  0  0  0  0  0  0  0  0  0  0
   27.6751  -20.6530   -8.4289 C   0  0  0  0  0  0  0  0  0  0  0  0
   28.8593  -20.7195   -7.7290 C   0  0  0  0  0  0  0  0  0  0  0  0
   30.0048  -21.2136   -8.2819 C   0  0  0  0  0  0  0  0  0  0  0  0
   29.9431  -21.6554   -9.5911 C   0  0  0  0  0  0  0  0  0  0  0  0
   28.7839  -21.6020  -10.3121 C   0  0  0  0  0  0  0  0  0  0  0  0
   27.6332  -21.0985   -9.7357 C   0  0  0  0  0  0  0  0  0  0  0  0
   25.7979  -20.6951  -13.8432 C   0  0  0  0  0  0  0  0  0  0  0  0
   24.7672  -20.0645  -14.2097 O   0  0  0  0  0  0  0  0  0  0  0  0
   26.5179  -22.9215  -16.7636 C   0  0  0  0  0  0  0  0  0  0  0  0
   25.6390  -21.9302  -16.0561 C   0  0  2  0  0  0  0  0  0  0  0  0
   26.2555  -21.7022  -14.7508 N   0  0  0  0  0  0  0  0  0  0  0  0
   24.2362  -22.3540  -15.9573 C   0  0  0  0  0  0  0  0  0  0  0  0
   23.8449  -23.1545  -15.0637 O   0  0  0  0  0  0  0  0  0  0  0  0
   21.2960  -20.1055  -18.0473 C   0  0  0  0  0  0  0  0  0  0  0  0
   20.9711  -21.0645  -16.8892 C   0  0  2  0  0  0  0  0  0  0  0  0
   21.1174  -20.2608  -15.6199 C   0  0  0  0  0  0  0  0  0  0  0  0
   21.8924  -22.2369  -16.9152 C   0  0  2  0  0  0  0  0  0  0  0  0
   23.2952  -21.8612  -16.8787 N   0  0  0  0  0  0  0  0  0  0  0  0
   21.6303  -23.0970  -18.1205 C   0  0  0  0  0  0  0  0  0  0  0  0
   20.6493  -23.8684  -18.0709 O   0  0  0  0  0  0  0  0  0  0  0  0
   22.4084  -23.0769  -19.2628 O   0  0  0  0  0  0  0  0  0  0  0  0
  2 13  1  0
  2  1  1  1
  3  2  1  0
  4  3  1  0
  5  4  2  0
  6  5  1  0
  7  6  1  0
  7 12  2  0
  8  9  2  0
  8  7  1  0
  9 10  1  0
 10 11  2  0
 12 11  1  0
 12  4  1  0
 13 14  2  0
 16 15  1  1
 17 13  1  0
 17 16  1  0
 18 19  2  0
 18 16  1  0
 21 20  1  6
 21 23  1  0
 22 21  1  0
 23 24  1  6
 24 18  1  0
 25 23  1  0
 26 25  2  0
 27 25  1  0
M  END
$$$$
