WAV.pdb
     RDKit          3D

 27 28  0  0  1  0  0  0  0  0999 V2000
   24.7188  -20.3021   -9.3766 N   0  0  0  0  0  0  0  0  0  0  0  0
   26.0319  -20.5537   -9.8612 C   0  0  1  0  0  0  0  0  0  0  0  0
   26.9058  -21.3328   -8.8799 C   0  0  0  0  0  0  0  0  0  0  0  0
   26.7348  -20.8554   -7.4989 C   0  0  0  0  0  0  0  0  0  0  0  0
   25.5889  -20.8614   -6.7609 C   0  0  0  0  0  0  0  0  0  0  0  0
   25.8118  -20.3584   -5.5512 N   0  0  0  0  0  0  0  0  0  0  0  0
   27.1274  -20.0221   -5.5078 C   0  0  0  0  0  0  0  0  0  0  0  0
   27.8784  -19.4650   -4.4968 C   0  0  0  0  0  0  0  0  0  0  0  0
   29.2080  -19.1950   -4.6418 C   0  0  0  0  0  0  0  0  0  0  0  0
   29.7935  -19.5029   -5.8565 C   0  0  0  0  0  0  0  0  0  0  0  0
   29.0754  -20.0554   -6.8790 C   0  0  0  0  0  0  0  0  0  0  0  0
   27.7295  -20.3221   -6.7142 C   0  0  0  0  0  0  0  0  0  0  0  0
   26.1301  -21.1948  -11.1716 C   0  0  0  0  0  0  0  0  0  0  0  0
   26.3104  -22.4387  -11.2908 O   0  0  0  0  0  0  0  0  0  0  0  0
   23.6615  -20.4079  -12.4959 C   0  0  0  0  0  0  0  0  0  0  0  0
   24.8996  -20.6243  -13.3182 C   0  0  2  0  0  0  0  0  0  0  0  0
   26.0267  -20.4696  -12.4008 N   0  0  0  0  0  0  0  0  0  0  0  0
   24.9909  -19.7395  -14.4871 C   0  0  0  0  0  0  0  0  0  0  0  0
   24.0733  -19.6831  -15.3515 O   0  0  0  0  0  0  0  0  0  0  0  0
   28.8256  -18.0094  -15.4801 C   0  0  0  0  0  0  0  0  0  0  0  0
   27.5461  -17.1659  -15.6138 C   0  0  2  0  0  0  0  0  0  0  0  0
   27.4493  -16.3406  -14.3537 C   0  0  0  0  0  0  0  0  0  0  0  0
   26.3596  -18.0516  -15.7918 C   0  0  2  0  0  0  0  0  0  0  0  0
   26.1277  -18.9297  -14.6580 N   0  0  0  0  0  0  0  0  0  0  0  0
   26.4856  -18.8694  -17.0474 C   0  0  0  0  0  0  0  0  0  0  0  0
   26.9387  -20.0276  -16.9331 O   0  0  0  0  0  0  0  0  0  0  0  0
   26.1306  -18.4108  -18.3021 O   0  0  0  0  0  0  0  0  0  0  0  0
  2 13  1  0
  2  1  1  1
  3  2  1  0
  4  3  1  0
  5  4  2  0
  6  5  1  0
  7  6  1  0
  7 12  2  0
  8  9  2  0
  8  7  1  0
  9 10  1  0
 10 11  2  0
 12 11  1  0
 12  4  1  0
 13 14  2  0
 16 15  1  1
 17 13  1  0
 17 16  1  0
 18 19  2  0
 18 16  1  0
 21 20  1  1
 21 23  1  0
 22 21  1  0
 23 24  1  1
 24 18  1  0
 25 23  1  0
 26 25  2  0
 27 25  1  0
M  END
$$$$
