WAV.pdb
     RDKit          3D

 27 28  0  0  1  0  0  0  0  0999 V2000
   27.8529  -19.5723  -10.0784 N   0  0  0  0  0  0  0  0  0  0  0  0
   26.8493  -20.5592   -9.8752 C   0  0  1  0  0  0  0  0  0  0  0  0
   26.1544  -20.4530   -8.5190 C   0  0  0  0  0  0  0  0  0  0  0  0
   26.9505  -19.6747   -7.5573 C   0  0  0  0  0  0  0  0  0  0  0  0
   27.3107  -18.3639   -7.6555 C   0  0  0  0  0  0  0  0  0  0  0  0
   28.0240  -17.9964   -6.5962 N   0  0  0  0  0  0  0  0  0  0  0  0
   28.1253  -19.0915   -5.7986 C   0  0  0  0  0  0  0  0  0  0  0  0
   28.7536  -19.2629   -4.5852 C   0  0  0  0  0  0  0  0  0  0  0  0
   28.7467  -20.4566   -3.9242 C   0  0  0  0  0  0  0  0  0  0  0  0
   28.0776  -21.5116   -4.5178 C   0  0  0  0  0  0  0  0  0  0  0  0
   27.4454  -21.3736   -5.7210 C   0  0  0  0  0  0  0  0  0  0  0  0
   27.4626  -20.1569   -6.3762 C   0  0  0  0  0  0  0  0  0  0  0  0
   25.8217  -20.6648  -10.9100 C   0  0  0  0  0  0  0  0  0  0  0  0
   25.0853  -19.6863  -11.2172 O   0  0  0  0  0  0  0  0  0  0  0  0
   24.7333  -23.3286  -13.3055 C   0  0  0  0  0  0  0  0  0  0  0  0
   24.5781  -21.9609  -12.7046 C   0  0  2  0  0  0  0  0  0  0  0  0
   25.5800  -21.8686  -11.6448 N   0  0  0  0  0  0  0  0  0  0  0  0
   23.2175  -21.6791  -12.2284 C   0  0  0  0  0  0  0  0  0  0  0  0
   22.8554  -21.9522  -11.0508 O   0  0  0  0  0  0  0  0  0  0  0  0
   20.7100  -19.0197  -14.4558 C   0  0  0  0  0  0  0  0  0  0  0  0
   20.4733  -19.4333  -12.9931 C   0  0  2  0  0  0  0  0  0  0  0  0
   21.2811  -18.4793  -12.1471 C   0  0  0  0  0  0  0  0  0  0  0  0
   20.8872  -20.8506  -12.7835 C   0  0  2  0  0  0  0  0  0  0  0  0
   22.2847  -21.0898  -13.1002 N   0  0  0  0  0  0  0  0  0  0  0  0
   20.0206  -21.7850  -13.5817 C   0  0  0  0  0  0  0  0  0  0  0  0
   18.8337  -21.9175  -13.2164 O   0  0  0  0  0  0  0  0  0  0  0  0
   20.4648  -22.4933  -14.6825 O   0  0  0  0  0  0  0  0  0  0  0  0
  2 13  1  0
  2  1  1  6
  3  2  1  0
  4  3  1  0
  5  4  2  0
  6  5  1  0
  7  6  1  0
  7 12  2  0
  8  9  2  0
  8  7  1  0
  9 10  1  0
 10 11  2  0
 12 11  1  0
 12  4  1  0
 13 14  2  0
 16 15  1  1
 17 13  1  0
 17 16  1  0
 18 19  2  0
 18 16  1  0
 21 20  1  6
 21 23  1  0
 22 21  1  0
 23 24  1  6
 24 18  1  0
 25 23  1  0
 26 25  2  0
 27 25  1  0
M  END
$$$$
