WAV.pdb
     RDKit          3D

 27 28  0  0  1  0  0  0  0  0999 V2000
   27.4559  -22.0770  -10.5372 N   0  0  0  0  0  0  0  0  0  0  0  0
   26.4844  -21.1505  -10.0679 C   0  0  1  0  0  0  0  0  0  0  0  0
   27.0900  -19.9085   -9.4164 C   0  0  0  0  0  0  0  0  0  0  0  0
   28.1791  -20.2543   -8.4899 C   0  0  0  0  0  0  0  0  0  0  0  0
   29.3180  -20.9455   -8.7780 C   0  0  0  0  0  0  0  0  0  0  0  0
   30.0775  -21.0639   -7.6939 N   0  0  0  0  0  0  0  0  0  0  0  0
   29.4159  -20.4361   -6.6870 C   0  0  0  0  0  0  0  0  0  0  0  0
   29.7533  -20.2616   -5.3633 C   0  0  0  0  0  0  0  0  0  0  0  0
   28.9478  -19.5919   -4.4889 C   0  0  0  0  0  0  0  0  0  0  0  0
   27.7588  -19.0821   -4.9782 C   0  0  0  0  0  0  0  0  0  0  0  0
   27.3954  -19.2391   -6.2857 C   0  0  0  0  0  0  0  0  0  0  0  0
   28.2240  -19.9203   -7.1572 C   0  0  0  0  0  0  0  0  0  0  0  0
   25.4785  -20.7162  -11.0361 C   0  0  0  0  0  0  0  0  0  0  0  0
   25.0440  -19.5309  -11.0562 O   0  0  0  0  0  0  0  0  0  0  0  0
   24.1851  -22.0014  -14.2352 C   0  0  0  0  0  0  0  0  0  0  0  0
   23.9592  -21.1398  -13.0260 C   0  0  2  0  0  0  0  0  0  0  0  0
   24.9217  -21.5903  -12.0227 N   0  0  0  0  0  0  0  0  0  0  0  0
   22.5741  -21.1637  -12.5377 C   0  0  0  0  0  0  0  0  0  0  0  0
   22.1853  -22.0058  -11.6820 O   0  0  0  0  0  0  0  0  0  0  0  0
   19.8624  -18.0708  -13.9431 C   0  0  0  0  0  0  0  0  0  0  0  0
   19.7606  -18.7280  -12.5560 C   0  0  2  0  0  0  0  0  0  0  0  0
   20.5826  -17.8741  -11.6214 C   0  0  0  0  0  0  0  0  0  0  0  0
   20.2601  -20.1321  -12.6115 C   0  0  2  0  0  0  0  0  0  0  0  0
   21.6476  -20.2281  -13.0310 N   0  0  0  0  0  0  0  0  0  0  0  0
   19.3993  -20.9711  -13.5151 C   0  0  0  0  0  0  0  0  0  0  0  0
   19.8308  -21.2025  -14.6640 O   0  0  0  0  0  0  0  0  0  0  0  0
   18.1736  -21.4911  -13.1436 O   0  0  0  0  0  0  0  0  0  0  0  0
  2 13  1  0
  2  1  1  6
  3  2  1  0
  4  3  1  0
  5  4  2  0
  6  5  1  0
  7  6  1  0
  7 12  2  0
  8  9  2  0
  8  7  1  0
  9 10  1  0
 10 11  2  0
 12 11  1  0
 12  4  1  0
 13 14  2  0
 16 15  1  6
 17 13  1  0
 17 16  1  0
 18 19  2  0
 18 16  1  0
 21 20  1  6
 21 23  1  0
 22 21  1  0
 23 24  1  6
 24 18  1  0
 25 23  1  0
 26 25  2  0
 27 25  1  0
M  END
$$$$
