WAV.pdb
     RDKit          3D

 27 28  0  0  1  0  0  0  0  0999 V2000
   28.4835  -20.8124   -9.6935 N   0  0  0  0  0  0  0  0  0  0  0  0
   27.1047  -21.1597   -9.6643 C   0  0  1  0  0  0  0  0  0  0  0  0
   26.3301  -20.4889   -8.5313 C   0  0  0  0  0  0  0  0  0  0  0  0
   27.2264  -19.7946   -7.5937 C   0  0  0  0  0  0  0  0  0  0  0  0
   27.6545  -18.5026   -7.6667 C   0  0  0  0  0  0  0  0  0  0  0  0
   28.4506  -18.2175   -6.6415 N   0  0  0  0  0  0  0  0  0  0  0  0
   28.5371  -19.3474   -5.8922 C   0  0  0  0  0  0  0  0  0  0  0  0
   29.2268  -19.6013   -4.7276 C   0  0  0  0  0  0  0  0  0  0  0  0
   29.1916  -20.8181   -4.1113 C   0  0  0  0  0  0  0  0  0  0  0  0
   28.4282  -21.8102   -4.6998 C   0  0  0  0  0  0  0  0  0  0  0  0
   27.7333  -21.5899   -5.8551 C   0  0  0  0  0  0  0  0  0  0  0  0
   27.7806  -20.3508   -6.4655 C   0  0  0  0  0  0  0  0  0  0  0  0
   26.3586  -20.9668  -10.9068 C   0  0  0  0  0  0  0  0  0  0  0  0
   26.4361  -19.8944  -11.5685 O   0  0  0  0  0  0  0  0  0  0  0  0
   24.5425  -23.1684  -13.2632 C   0  0  0  0  0  0  0  0  0  0  0  0
   24.7856  -21.7883  -12.7229 C   0  0  2  0  0  0  0  0  0  0  0  0
   25.4992  -21.9681  -11.4603 N   0  0  0  0  0  0  0  0  0  0  0  0
   23.5612  -20.9903  -12.5766 C   0  0  0  0  0  0  0  0  0  0  0  0
   22.9829  -20.8581  -11.4627 O   0  0  0  0  0  0  0  0  0  0  0  0
   22.0029  -19.0354  -16.1150 C   0  0  0  0  0  0  0  0  0  0  0  0
   21.8212  -18.4500  -14.7041 C   0  0  2  0  0  0  0  0  0  0  0  0
   22.9738  -17.4996  -14.4882 C   0  0  0  0  0  0  0  0  0  0  0  0
   21.8032  -19.5429  -13.6896 C   0  0  2  0  0  0  0  0  0  0  0  0
   23.0091  -20.3527  -13.7017 N   0  0  0  0  0  0  0  0  0  0  0  0
   20.5996  -20.4251  -13.8746 C   0  0  0  0  0  0  0  0  0  0  0  0
   20.7486  -21.4612  -14.5559 O   0  0  0  0  0  0  0  0  0  0  0  0
   19.3561  -20.1513  -13.3367 O   0  0  0  0  0  0  0  0  0  0  0  0
  2 13  1  0
  2  1  1  6
  3  2  1  0
  4  3  1  0
  5  4  2  0
  6  5  1  0
  7  6  1  0
  7 12  2  0
  8  9  2  0
  8  7  1  0
  9 10  1  0
 10 11  2  0
 12 11  1  0
 12  4  1  0
 13 14  2  0
 16 15  1  1
 17 13  1  0
 17 16  1  0
 18 19  2  0
 18 16  1  0
 21 20  1  6
 21 23  1  0
 22 21  1  0
 23 24  1  6
 24 18  1  0
 25 23  1  0
 26 25  2  0
 27 25  1  0
M  END
$$$$
