WAV.pdb
     RDKit          3D

 27 28  0  0  1  0  0  0  0  0999 V2000
   23.9501  -20.3316  -11.3294 N   0  0  0  0  0  0  0  0  0  0  0  0
   25.3485  -20.2559  -11.5770 C   0  0  1  0  0  0  0  0  0  0  0  0
   26.1754  -21.1938  -10.6993 C   0  0  0  0  0  0  0  0  0  0  0  0
   26.4294  -20.6156   -9.3706 C   0  0  0  0  0  0  0  0  0  0  0  0
   25.5156  -20.0615   -8.5246 C   0  0  0  0  0  0  0  0  0  0  0  0
   26.1058  -19.6482   -7.4079 N   0  0  0  0  0  0  0  0  0  0  0  0
   27.4260  -19.9421   -7.5359 C   0  0  0  0  0  0  0  0  0  0  0  0
   28.4800  -19.7306   -6.6752 C   0  0  0  0  0  0  0  0  0  0  0  0
   29.7568  -20.1003   -6.9832 C   0  0  0  0  0  0  0  0  0  0  0  0
   29.9683  -20.7062   -8.2085 C   0  0  0  0  0  0  0  0  0  0  0  0
   28.9439  -20.9291   -9.0845 C   0  0  0  0  0  0  0  0  0  0  0  0
   27.6568  -20.5481   -8.7555 C   0  0  0  0  0  0  0  0  0  0  0  0
   25.7741  -20.4322  -12.9646 C   0  0  0  0  0  0  0  0  0  0  0  0
   25.1981  -21.2475  -13.7377 O   0  0  0  0  0  0  0  0  0  0  0  0
   28.1983  -18.7087  -15.2255 C   0  0  0  0  0  0  0  0  0  0  0  0
   27.2452  -19.8354  -14.9463 C   0  0  2  0  0  0  0  0  0  0  0  0
   26.8590  -19.7003  -13.5433 N   0  0  0  0  0  0  0  0  0  0  0  0
   27.7939  -21.1611  -15.2610 C   0  0  0  0  0  0  0  0  0  0  0  0
   28.7611  -21.6507  -14.6152 O   0  0  0  0  0  0  0  0  0  0  0  0
   25.9691  -24.4520  -15.4939 C   0  0  0  0  0  0  0  0  0  0  0  0
   26.6366  -24.2313  -16.8622 C   0  0  2  0  0  0  0  0  0  0  0  0
   27.1727  -25.5748  -17.2935 C   0  0  0  0  0  0  0  0  0  0  0  0
   27.7176  -23.2100  -16.7512 C   0  0  2  0  0  0  0  0  0  0  0  0
   27.2343  -21.9133  -16.3090 N   0  0  0  0  0  0  0  0  0  0  0  0
   28.4477  -23.0592  -18.0571 C   0  0  0  0  0  0  0  0  0  0  0  0
   27.9185  -22.3383  -18.9289 O   0  0  0  0  0  0  0  0  0  0  0  0
   29.6564  -23.6689  -18.3366 O   0  0  0  0  0  0  0  0  0  0  0  0
  2 13  1  0
  2  1  1  6
  3  2  1  0
  4  3  1  0
  5  4  2  0
  6  5  1  0
  7  6  1  0
  7 12  2  0
  8  9  2  0
  8  7  1  0
  9 10  1  0
 10 11  2  0
 12 11  1  0
 12  4  1  0
 13 14  2  0
 16 15  1  1
 17 13  1  0
 17 16  1  0
 18 19  2  0
 18 16  1  0
 21 20  1  1
 21 23  1  0
 22 21  1  0
 23 24  1  6
 24 18  1  0
 25 23  1  0
 26 25  2  0
 27 25  1  0
M  END
$$$$
