VDV.pdb
     RDKit          3D

 23 22  0  0  1  0  0  0  0  0999 V2000
   15.4514  -13.4114  -17.4604 C   0  0  0  0  0  0  0  0  0  0  0  0
   16.8468  -12.7913  -17.4954 C   0  0  2  0  0  0  0  0  0  0  0  0
   17.8745  -13.8365  -17.1251 C   0  0  0  0  0  0  0  0  0  0  0  0
   16.9040  -11.5965  -16.5645 C   0  0  2  0  0  0  0  0  0  0  0  0
   15.7276  -10.7830  -16.7742 N   0  0  0  0  0  0  0  0  0  0  0  0
   18.1532  -10.8219  -16.7096 C   0  0  0  0  0  0  0  0  0  0  0  0
   19.2874  -11.2819  -16.4632 O   0  0  0  0  0  0  0  0  0  0  0  0
   18.1006   -9.4571  -17.1577 N   0  0  0  0  0  0  0  0  0  0  0  0
   19.3190   -8.6743  -17.3154 C   0  0  1  0  0  0  0  0  0  0  0  0
   19.2071   -7.6549  -18.4282 C   0  0  0  0  0  0  0  0  0  0  0  0
   20.4307   -6.8326  -18.5798 C   0  0  0  0  0  0  0  0  0  0  0  0
   20.8764   -6.2099  -17.5849 O   0  0  0  0  0  0  0  0  0  0  0  0
   19.6319   -8.0121  -16.0353 C   0  0  0  0  0  0  0  0  0  0  0  0
   18.7437   -7.4302  -15.4036 O   0  0  0  0  0  0  0  0  0  0  0  0
   21.1184   -6.7091  -19.7652 O   0  0  0  0  0  0  0  0  0  0  0  0
   22.0747   -8.1016  -11.8527 C   0  0  0  0  0  0  0  0  0  0  0  0
   21.8331   -8.5701  -13.2474 C   0  0  2  0  0  0  0  0  0  0  0  0
   23.1288   -9.0398  -13.8454 C   0  0  0  0  0  0  0  0  0  0  0  0
   21.2515   -7.5189  -14.1585 C   0  0  2  0  0  0  0  0  0  0  0  0
   20.9460   -8.0069  -15.4692 N   0  0  0  0  0  0  0  0  0  0  0  0
   22.0442   -6.2729  -14.1581 C   0  0  0  0  0  0  0  0  0  0  0  0
   22.2453   -5.6999  -13.0600 O   0  0  0  0  0  0  0  0  0  0  0  0
   22.5941   -5.6707  -15.2783 O   0  0  0  0  0  0  0  0  0  0  0  0
  2  1  1  1
  2  3  1  0
  4  6  1  0
  4  2  1  0
  4  5  1  6
  6  7  2  0
  6  8  1  0
  8  9  1  0
  9 13  1  0
  9 10  1  6
 11 10  1  0
 12 11  2  0
 13 14  2  0
 13 20  1  0
 15 11  1  0
 17 16  1  1
 17 18  1  0
 19 21  1  0
 19 17  1  0
 19 20  1  6
 21 23  1  0
 22 21  2  0
M  END
$$$$
