VDV.pdb
     RDKit          3D

 23 22  0  0  1  0  0  0  0  0999 V2000
   21.4247  -11.1764  -15.5554 C   0  0  0  0  0  0  0  0  0  0  0  0
   20.5656  -11.2690  -16.8150 C   0  0  2  0  0  0  0  0  0  0  0  0
   21.0560  -12.4084  -17.6793 C   0  0  0  0  0  0  0  0  0  0  0  0
   20.5968   -9.9490  -17.5591 C   0  0  2  0  0  0  0  0  0  0  0  0
   21.8935   -9.7912  -18.1785 N   0  0  0  0  0  0  0  0  0  0  0  0
   20.2449   -8.8020  -16.6977 C   0  0  0  0  0  0  0  0  0  0  0  0
   19.1709   -8.7113  -16.0676 O   0  0  0  0  0  0  0  0  0  0  0  0
   21.1660   -7.7082  -16.5513 N   0  0  0  0  0  0  0  0  0  0  0  0
   20.7839   -6.4996  -15.8334 C   0  0  1  0  0  0  0  0  0  0  0  0
   21.3742   -6.4473  -14.4410 C   0  0  0  0  0  0  0  0  0  0  0  0
   20.5491   -7.1630  -13.4394 C   0  0  0  0  0  0  0  0  0  0  0  0
   21.1190   -7.8371  -12.5467 O   0  0  0  0  0  0  0  0  0  0  0  0
   21.2027   -5.3235  -16.6185 C   0  0  0  0  0  0  0  0  0  0  0  0
   22.2629   -5.3454  -17.2525 O   0  0  0  0  0  0  0  0  0  0  0  0
   19.1736   -7.1321  -13.4295 O   0  0  0  0  0  0  0  0  0  0  0  0
   20.1269   -1.4945  -19.4014 C   0  0  0  0  0  0  0  0  0  0  0  0
   19.7621   -2.6614  -18.5480 C   0  0  2  0  0  0  0  0  0  0  0  0
   18.4475   -2.3916  -17.8727 C   0  0  0  0  0  0  0  0  0  0  0  0
   20.7775   -2.9863  -17.4817 C   0  0  2  0  0  0  0  0  0  0  0  0
   20.4255   -4.1242  -16.6876 N   0  0  0  0  0  0  0  0  0  0  0  0
   21.1572   -1.8012  -16.6866 C   0  0  0  0  0  0  0  0  0  0  0  0
   20.6919   -1.6931  -15.5263 O   0  0  0  0  0  0  0  0  0  0  0  0
   21.9940   -0.7825  -17.1133 O   0  0  0  0  0  0  0  0  0  0  0  0
  2  1  1  1
  2  3  1  0
  4  6  1  0
  4  2  1  0
  4  5  1  1
  6  7  2  0
  6  8  1  0
  8  9  1  0
  9 13  1  0
  9 10  1  1
 11 10  1  0
 12 11  2  0
 13 14  2  0
 13 20  1  0
 15 11  1  0
 17 16  1  1
 17 18  1  0
 19 21  1  0
 19 17  1  0
 19 20  1  1
 21 23  1  0
 22 21  2  0
M  END
$$$$
