VDV.pdb
     RDKit          3D

 23 22  0  0  1  0  0  0  0  0999 V2000
   16.7914  -18.6114  -18.4575 C   0  0  0  0  0  0  0  0  0  0  0  0
   17.1485  -17.3468  -17.6789 C   0  0  2  0  0  0  0  0  0  0  0  0
   17.0214  -16.1424  -18.5840 C   0  0  0  0  0  0  0  0  0  0  0  0
   18.5463  -17.4708  -17.1061 C   0  0  2  0  0  0  0  0  0  0  0  0
   18.5807  -18.5918  -16.1941 N   0  0  0  0  0  0  0  0  0  0  0  0
   19.0149  -16.2207  -16.4742 C   0  0  0  0  0  0  0  0  0  0  0  0
   18.6510  -15.8361  -15.3436 O   0  0  0  0  0  0  0  0  0  0  0  0
   19.9434  -15.3720  -17.1698 N   0  0  0  0  0  0  0  0  0  0  0  0
   20.4204  -14.1341  -16.5680 C   0  0  1  0  0  0  0  0  0  0  0  0
   21.8693  -13.8535  -16.9024 C   0  0  0  0  0  0  0  0  0  0  0  0
   22.3760  -12.6135  -16.2685 C   0  0  0  0  0  0  0  0  0  0  0  0
   21.6022  -11.9328  -15.5516 O   0  0  0  0  0  0  0  0  0  0  0  0
   19.5606  -13.0221  -17.0145 C   0  0  0  0  0  0  0  0  0  0  0  0
   19.3285  -12.8608  -18.2172 O   0  0  0  0  0  0  0  0  0  0  0  0
   23.6648  -12.1565  -16.4214 O   0  0  0  0  0  0  0  0  0  0  0  0
   16.3878  -11.1415  -14.7729 C   0  0  0  0  0  0  0  0  0  0  0  0
   16.7249  -11.0868  -16.2243 C   0  0  2  0  0  0  0  0  0  0  0  0
   16.2317  -12.3366  -16.8964 C   0  0  0  0  0  0  0  0  0  0  0  0
   18.1993  -10.9531  -16.5098 C   0  0  2  0  0  0  0  0  0  0  0  0
   18.9638  -12.0934  -16.1042 N   0  0  0  0  0  0  0  0  0  0  0  0
   18.7504   -9.6683  -16.0339 C   0  0  0  0  0  0  0  0  0  0  0  0
   18.2759   -8.6084  -16.5095 O   0  0  0  0  0  0  0  0  0  0  0  0
   19.7596   -9.5259  -15.0952 O   0  0  0  0  0  0  0  0  0  0  0  0
  2  1  1  6
  2  3  1  0
  4  6  1  0
  4  2  1  0
  4  5  1  1
  6  7  2  0
  6  8  1  0
  8  9  1  0
  9 13  1  0
  9 10  1  6
 11 10  1  0
 12 11  2  0
 13 14  2  0
 13 20  1  0
 15 11  1  0
 17 16  1  1
 17 18  1  0
 19 21  1  0
 19 17  1  0
 19 20  1  1
 21 23  1  0
 22 21  2  0
M  END
$$$$
