VDV.pdb
     RDKit          3D

 23 22  0  0  1  0  0  0  0  0999 V2000
   18.9602  -22.1142  -18.0510 C   0  0  0  0  0  0  0  0  0  0  0  0
   20.3533  -21.5153  -17.8674 C   0  0  2  0  0  0  0  0  0  0  0  0
   21.1308  -21.6377  -19.1582 C   0  0  0  0  0  0  0  0  0  0  0  0
   21.0638  -22.2038  -16.7192 C   0  0  2  0  0  0  0  0  0  0  0  0
   21.4954  -23.5133  -17.1535 N   0  0  0  0  0  0  0  0  0  0  0  0
   20.2401  -22.2637  -15.4947 C   0  0  0  0  0  0  0  0  0  0  0  0
   19.8039  -21.2551  -14.9019 O   0  0  0  0  0  0  0  0  0  0  0  0
   19.9003  -23.5379  -14.9227 N   0  0  0  0  0  0  0  0  0  0  0  0
   19.0956  -23.6232  -13.7115 C   0  0  1  0  0  0  0  0  0  0  0  0
   17.7847  -22.8780  -13.8387 C   0  0  0  0  0  0  0  0  0  0  0  0
   17.0368  -22.8079  -12.5612 C   0  0  0  0  0  0  0  0  0  0  0  0
   17.5383  -23.3192  -11.5300 O   0  0  0  0  0  0  0  0  0  0  0  0
   18.8558  -25.0436  -13.3949 C   0  0  0  0  0  0  0  0  0  0  0  0
   18.1917  -25.7476  -14.1628 O   0  0  0  0  0  0  0  0  0  0  0  0
   15.8058  -22.2062  -12.4361 O   0  0  0  0  0  0  0  0  0  0  0  0
   20.4882  -29.0366  -10.8909 C   0  0  0  0  0  0  0  0  0  0  0  0
   20.4269  -27.5554  -11.0500 C   0  0  2  0  0  0  0  0  0  0  0  0
   20.2061  -26.9201   -9.7067 C   0  0  0  0  0  0  0  0  0  0  0  0
   19.3369  -27.0799  -11.9769 C   0  0  2  0  0  0  0  0  0  0  0  0
   19.3652  -25.6682  -12.2126 N   0  0  0  0  0  0  0  0  0  0  0  0
   18.0066  -27.5913  -11.5902 C   0  0  0  0  0  0  0  0  0  0  0  0
   17.8014  -28.8267  -11.6699 O   0  0  0  0  0  0  0  0  0  0  0  0
   16.9486  -26.8178  -11.1405 O   0  0  0  0  0  0  0  0  0  0  0  0
  2  1  1  6
  2  3  1  0
  4  6  1  0
  4  2  1  0
  4  5  1  6
  6  7  2  0
  6  8  1  0
  8  9  1  0
  9 13  1  0
  9 10  1  6
 11 10  1  0
 12 11  2  0
 13 14  2  0
 13 20  1  0
 15 11  1  0
 17 16  1  1
 17 18  1  0
 19 21  1  0
 19 17  1  0
 19 20  1  1
 21 23  1  0
 22 21  2  0
M  END
$$$$
