VDV.pdb
     RDKit          3D

 23 22  0  0  1  0  0  0  0  0999 V2000
   18.5029  -12.0175  -18.6560 C   0  0  0  0  0  0  0  0  0  0  0  0
   19.7237  -11.8356  -19.5557 C   0  0  2  0  0  0  0  0  0  0  0  0
   20.3296  -13.1856  -19.8657 C   0  0  0  0  0  0  0  0  0  0  0  0
   20.7243  -10.9138  -18.8876 C   0  0  2  0  0  0  0  0  0  0  0  0
   21.4404  -11.6556  -17.8744 N   0  0  0  0  0  0  0  0  0  0  0  0
   20.0978   -9.6902  -18.3474 C   0  0  0  0  0  0  0  0  0  0  0  0
   19.4295   -8.8911  -19.0355 O   0  0  0  0  0  0  0  0  0  0  0  0
   20.2438   -9.3670  -16.9544 N   0  0  0  0  0  0  0  0  0  0  0  0
   19.6665   -8.1475  -16.4051 C   0  0  1  0  0  0  0  0  0  0  0  0
   18.6411   -8.4311  -15.3290 C   0  0  0  0  0  0  0  0  0  0  0  0
   17.3605   -8.9397  -15.8747 C   0  0  0  0  0  0  0  0  0  0  0  0
   16.7849   -8.2952  -16.7855 O   0  0  0  0  0  0  0  0  0  0  0  0
   20.7515   -7.2998  -15.8767 C   0  0  0  0  0  0  0  0  0  0  0  0
   21.6672   -7.8024  -15.2170 O   0  0  0  0  0  0  0  0  0  0  0  0
   16.7553  -10.0946  -15.4356 O   0  0  0  0  0  0  0  0  0  0  0  0
   23.8393   -3.6437  -16.4304 C   0  0  0  0  0  0  0  0  0  0  0  0
   22.6614   -4.4618  -16.8383 C   0  0  2  0  0  0  0  0  0  0  0  0
   21.7185   -3.6102  -17.6400 C   0  0  0  0  0  0  0  0  0  0  0  0
   21.8917   -5.0522  -15.6841 C   0  0  2  0  0  0  0  0  0  0  0  0
   20.8024   -5.8863  -16.0929 N   0  0  0  0  0  0  0  0  0  0  0  0
   21.5181   -4.0369  -14.6789 C   0  0  0  0  0  0  0  0  0  0  0  0
   20.3732   -3.5280  -14.7491 O   0  0  0  0  0  0  0  0  0  0  0  0
   22.3305   -3.5891  -13.6496 O   0  0  0  0  0  0  0  0  0  0  0  0
  2  1  1  1
  2  3  1  0
  4  6  1  0
  4  2  1  0
  4  5  1  1
  6  7  2  0
  6  8  1  0
  8  9  1  0
  9 13  1  0
  9 10  1  1
 11 10  1  0
 12 11  2  0
 13 14  2  0
 13 20  1  0
 15 11  1  0
 17 16  1  1
 17 18  1  0
 19 21  1  0
 19 17  1  0
 19 20  1  6
 21 23  1  0
 22 21  2  0
M  END
$$$$
