VDV.pdb
     RDKit          3D

 23 22  0  0  1  0  0  0  0  0999 V2000
   24.2997   -9.4999  -15.9254 C   0  0  0  0  0  0  0  0  0  0  0  0
   23.4820  -10.6179  -15.2817 C   0  0  2  0  0  0  0  0  0  0  0  0
   23.6949  -11.9050  -16.0459 C   0  0  0  0  0  0  0  0  0  0  0  0
   22.0179  -10.2281  -15.2397 C   0  0  2  0  0  0  0  0  0  0  0  0
   21.4830  -10.2723  -16.5819 N   0  0  0  0  0  0  0  0  0  0  0  0
   21.7963   -8.9194  -14.5917 C   0  0  0  0  0  0  0  0  0  0  0  0
   22.2039   -8.6343  -13.4466 O   0  0  0  0  0  0  0  0  0  0  0  0
   21.0741   -7.8897  -15.2879 N   0  0  0  0  0  0  0  0  0  0  0  0
   20.9078   -6.5664  -14.7021 C   0  0  1  0  0  0  0  0  0  0  0  0
   22.2171   -5.9851  -14.2144 C   0  0  0  0  0  0  0  0  0  0  0  0
   22.0620   -4.6352  -13.6230 C   0  0  0  0  0  0  0  0  0  0  0  0
   21.5188   -4.5193  -12.4971 O   0  0  0  0  0  0  0  0  0  0  0  0
   20.2850   -5.6761  -15.6993 C   0  0  0  0  0  0  0  0  0  0  0  0
   20.8074   -5.5241  -16.8086 O   0  0  0  0  0  0  0  0  0  0  0  0
   22.4848   -3.4827  -14.2445 O   0  0  0  0  0  0  0  0  0  0  0  0
   16.1001   -4.6989  -15.5923 C   0  0  0  0  0  0  0  0  0  0  0  0
   17.0255   -4.6135  -16.7583 C   0  0  2  0  0  0  0  0  0  0  0  0
   17.1467   -5.9681  -17.3967 C   0  0  0  0  0  0  0  0  0  0  0  0
   18.4123   -4.1348  -16.4106 C   0  0  2  0  0  0  0  0  0  0  0  0
   19.0738   -4.9583  -15.4444 N   0  0  0  0  0  0  0  0  0  0  0  0
   18.4454   -2.6944  -16.0862 C   0  0  0  0  0  0  0  0  0  0  0  0
   18.8242   -2.3547  -14.9392 O   0  0  0  0  0  0  0  0  0  0  0  0
   18.0904   -1.6690  -16.9478 O   0  0  0  0  0  0  0  0  0  0  0  0
  2  1  1  6
  2  3  1  0
  4  6  1  0
  4  2  1  0
  4  5  1  6
  6  7  2  0
  6  8  1  0
  8  9  1  0
  9 13  1  0
  9 10  1  6
 11 10  1  0
 12 11  2  0
 13 14  2  0
 13 20  1  0
 15 11  1  0
 17 16  1  1
 17 18  1  0
 19 21  1  0
 19 17  1  0
 19 20  1  1
 21 23  1  0
 22 21  2  0
M  END
$$$$
