VDV.pdb
     RDKit          3D

 23 22  0  0  1  0  0  0  0  0999 V2000
   13.6525  -12.4064  -11.3164 C   0  0  0  0  0  0  0  0  0  0  0  0
   13.3216  -11.8498  -12.6997 C   0  0  2  0  0  0  0  0  0  0  0  0
   12.3268  -12.7581  -13.3860 C   0  0  0  0  0  0  0  0  0  0  0  0
   14.5921  -11.6968  -13.5119 C   0  0  2  0  0  0  0  0  0  0  0  0
   15.1057  -13.0102  -13.8293 N   0  0  0  0  0  0  0  0  0  0  0  0
   15.5983  -10.8498  -12.8397 C   0  0  0  0  0  0  0  0  0  0  0  0
   16.8284  -11.0549  -12.8984 O   0  0  0  0  0  0  0  0  0  0  0  0
   15.1756   -9.7156  -12.0645 N   0  0  0  0  0  0  0  0  0  0  0  0
   16.1165   -8.6634  -11.7044 C   0  0  1  0  0  0  0  0  0  0  0  0
   16.9599   -8.2198  -12.8799 C   0  0  0  0  0  0  0  0  0  0  0  0
   17.8665   -7.0961  -12.5456 C   0  0  0  0  0  0  0  0  0  0  0  0
   18.6533   -7.2131  -11.5743 O   0  0  0  0  0  0  0  0  0  0  0  0
   15.3681   -7.5230  -11.1437 C   0  0  0  0  0  0  0  0  0  0  0  0
   14.5133   -6.9462  -11.8242 O   0  0  0  0  0  0  0  0  0  0  0  0
   17.8976   -5.9131  -13.2476 O   0  0  0  0  0  0  0  0  0  0  0  0
   15.1355   -6.8092   -6.8512 C   0  0  0  0  0  0  0  0  0  0  0  0
   14.1671   -6.4044   -7.9101 C   0  0  2  0  0  0  0  0  0  0  0  0
   13.2341   -7.5473   -8.1935 C   0  0  0  0  0  0  0  0  0  0  0  0
   14.8113   -5.9936   -9.2099 C   0  0  2  0  0  0  0  0  0  0  0  0
   15.5847   -7.0344   -9.8165 N   0  0  0  0  0  0  0  0  0  0  0  0
   15.5283   -4.7071   -9.1006 C   0  0  0  0  0  0  0  0  0  0  0  0
   16.7702   -4.7046   -9.2803 O   0  0  0  0  0  0  0  0  0  0  0  0
   14.9438   -3.4841   -8.8132 O   0  0  0  0  0  0  0  0  0  0  0  0
  2  1  1  1
  2  3  1  0
  4  6  1  0
  4  2  1  0
  4  5  1  1
  6  7  2  0
  6  8  1  0
  8  9  1  0
  9 13  1  0
  9 10  1  6
 11 10  1  0
 12 11  2  0
 13 14  2  0
 13 20  1  0
 15 11  1  0
 17 16  1  1
 17 18  1  0
 19 21  1  0
 19 17  1  0
 19 20  1  1
 21 23  1  0
 22 21  2  0
M  END
$$$$
