CKQ.pdb
     RDKit          3D

 25 24  0  0  1  0  0  0  0  0999 V2000
    1.6391  -19.8013   21.2010 N   0  0  0  0  0  0  0  0  0  0  0  0
    3.0324  -19.5995   20.9604 C   0  0  1  0  0  0  0  0  0  0  0  0
    3.1967  -18.4026   20.0494 C   0  0  0  0  0  0  0  0  0  0  0  0
    2.7024  -18.7940   18.3703 S   0  0  0  0  0  0  0  0  0  0  0  0
    3.7377  -19.4090   22.2379 C   0  0  0  0  0  0  0  0  0  0  0  0
    3.2241  -18.7586   23.1722 O   0  0  0  0  0  0  0  0  0  0  0  0
    5.0185  -19.9695   22.4153 N   0  0  0  0  0  0  0  0  0  0  0  0
    5.7822  -19.8423   23.6526 C   0  0  1  0  0  0  0  0  0  0  0  0
    6.5653  -21.0591   23.9594 C   0  0  0  0  0  0  0  0  0  0  0  0
    5.7256  -22.2491   24.3328 C   0  0  0  0  0  0  0  0  0  0  0  0
    6.6052  -23.4530   24.6541 C   0  0  0  0  0  0  0  0  0  0  0  0
    5.6412  -24.5622   25.0837 C   0  0  0  0  0  0  0  0  0  0  0  0
    6.4377  -25.7579   25.3043 N   0  0  0  0  0  0  0  0  0  0  0  0
    6.5692  -18.5864   23.5935 C   0  0  0  0  0  0  0  0  0  0  0  0
    7.0916  -18.1104   22.5565 O   0  0  0  0  0  0  0  0  0  0  0  0
    7.2653  -12.0156   26.5239 N   0  0  0  0  0  0  0  0  0  0  0  0
    6.6260  -13.1336   25.9379 C   0  0  0  0  0  0  0  0  0  0  0  0
    5.3827  -13.2244   25.9342 O   0  0  0  0  0  0  0  0  0  0  0  0
    7.5075  -14.1901   25.3294 C   0  0  0  0  0  0  0  0  0  0  0  0
    6.7206  -15.4617   25.2818 C   0  0  0  0  0  0  0  0  0  0  0  0
    7.5508  -16.5955   24.7806 C   0  0  2  0  0  0  0  0  0  0  0  0
    6.7683  -17.8347   24.7895 N   0  0  0  0  0  0  0  0  0  0  0  0
    8.8260  -16.7808   25.4896 C   0  0  0  0  0  0  0  0  0  0  0  0
    9.1228  -17.9865   26.1553 O   0  0  0  0  0  0  0  0  0  0  0  0
    9.6945  -15.9014   25.5393 O   0  0  0  0  0  0  0  0  0  0  0  0
  2  1  1  1
  2  3  1  0
  3  4  1  0
  5  2  1  0
  6  5  2  0
  7  5  1  0
  8  7  1  0
  8  9  1  6
 10 11  1  0
 10  9  1  0
 12 11  1  0
 13 12  1  0
 14 22  1  0
 14  8  1  0
 15 14  2  0
 17 16  1  0
 18 17  2  0
 19 17  1  0
 21 20  1  1
 20 19  1  0
 21 23  1  0
 21 22  1  0
 23 24  1  0
 25 23  2  0
M  END
$$$$
