CKQ.pdb
     RDKit          3D

 25 24  0  0  1  0  0  0  0  0999 V2000
    5.8866  -16.1096   26.3980 N   0  0  0  0  0  0  0  0  0  0  0  0
    6.2541  -14.9322   25.6778 C   0  0  1  0  0  0  0  0  0  0  0  0
    6.9602  -13.9872   26.6253 C   0  0  0  0  0  0  0  0  0  0  0  0
    5.9216  -12.5829   27.0329 S   0  0  0  0  0  0  0  0  0  0  0  0
    7.1082  -15.2919   24.5345 C   0  0  0  0  0  0  0  0  0  0  0  0
    7.7548  -16.3602   24.5182 O   0  0  0  0  0  0  0  0  0  0  0  0
    7.2018  -14.4165   23.4341 N   0  0  0  0  0  0  0  0  0  0  0  0
    7.9399  -14.7389   22.2169 C   0  0  1  0  0  0  0  0  0  0  0  0
    7.6319  -13.8098   21.1079 C   0  0  0  0  0  0  0  0  0  0  0  0
    8.2114  -14.2242   19.7839 C   0  0  0  0  0  0  0  0  0  0  0  0
    7.7922  -13.2559   18.6825 C   0  0  0  0  0  0  0  0  0  0  0  0
    8.3243  -13.8605   17.3804 C   0  0  0  0  0  0  0  0  0  0  0  0
    7.9444  -12.9594   16.3051 N   0  0  0  0  0  0  0  0  0  0  0  0
    9.3791  -14.8577   22.5562 C   0  0  0  0  0  0  0  0  0  0  0  0
   10.0073  -14.0823   23.3171 O   0  0  0  0  0  0  0  0  0  0  0  0
   12.5489  -19.6388   26.1396 N   0  0  0  0  0  0  0  0  0  0  0  0
   11.9106  -18.5124   25.5686 C   0  0  0  0  0  0  0  0  0  0  0  0
   11.1164  -17.8247   26.2395 O   0  0  0  0  0  0  0  0  0  0  0  0
   12.2333  -18.1916   24.1346 C   0  0  0  0  0  0  0  0  0  0  0  0
   11.0069  -17.5957   23.5186 C   0  0  0  0  0  0  0  0  0  0  0  0
   11.3457  -16.4256   22.6571 C   0  0  2  0  0  0  0  0  0  0  0  0
   10.1398  -15.9244   21.9919 N   0  0  0  0  0  0  0  0  0  0  0  0
   12.4140  -16.6755   21.6776 C   0  0  0  0  0  0  0  0  0  0  0  0
   12.1308  -16.7938   20.3026 O   0  0  0  0  0  0  0  0  0  0  0  0
   13.6016  -16.7935   22.0028 O   0  0  0  0  0  0  0  0  0  0  0  0
  2  1  1  1
  2  3  1  0
  3  4  1  0
  5  2  1  0
  6  5  2  0
  7  5  1  0
  8  7  1  0
  8  9  1  6
 10 11  1  0
 10  9  1  0
 12 11  1  0
 13 12  1  0
 14 22  1  0
 14  8  1  0
 15 14  2  0
 17 16  1  0
 18 17  2  0
 19 17  1  0
 21 20  1  6
 20 19  1  0
 21 23  1  0
 21 22  1  0
 23 24  1  0
 25 23  2  0
M  END
$$$$
