CKQ.pdb
     RDKit          3D

 25 24  0  0  1  0  0  0  0  0999 V2000
    7.6383  -14.9710   17.9379 N   0  0  0  0  0  0  0  0  0  0  0  0
    8.3436  -14.4827   19.0798 C   0  0  1  0  0  0  0  0  0  0  0  0
    8.0467  -13.0072   19.2362 C   0  0  0  0  0  0  0  0  0  0  0  0
    8.8827  -12.3269   20.6698 S   0  0  0  0  0  0  0  0  0  0  0  0
    7.9482  -15.2447   20.2751 C   0  0  0  0  0  0  0  0  0  0  0  0
    6.7526  -15.5294   20.4972 O   0  0  0  0  0  0  0  0  0  0  0  0
    8.9345  -15.6637   21.1903 N   0  0  0  0  0  0  0  0  0  0  0  0
    8.6363  -16.4541   22.3805 C   0  0  1  0  0  0  0  0  0  0  0  0
    9.0889  -17.8567   22.2539 C   0  0  0  0  0  0  0  0  0  0  0  0
    8.8012  -18.7037   23.4622 C   0  0  0  0  0  0  0  0  0  0  0  0
    7.4286  -19.3590   23.3497 C   0  0  0  0  0  0  0  0  0  0  0  0
    7.2427  -20.1476   24.6488 C   0  0  0  0  0  0  0  0  0  0  0  0
    5.8736  -20.6356   24.6596 N   0  0  0  0  0  0  0  0  0  0  0  0
    9.1536  -15.7312   23.5680 C   0  0  0  0  0  0  0  0  0  0  0  0
   10.3163  -15.2734   23.6839 O   0  0  0  0  0  0  0  0  0  0  0  0
    5.2047  -11.4998   25.6346 N   0  0  0  0  0  0  0  0  0  0  0  0
    6.1510  -12.1839   26.4337 C   0  0  0  0  0  0  0  0  0  0  0  0
    6.0385  -12.2029   27.6751 O   0  0  0  0  0  0  0  0  0  0  0  0
    7.2815  -12.8758   25.7218 C   0  0  0  0  0  0  0  0  0  0  0  0
    7.6501  -14.0822   26.5262 C   0  0  0  0  0  0  0  0  0  0  0  0
    8.7675  -14.8386   25.8897 C   0  0  2  0  0  0  0  0  0  0  0  0
    8.2902  -15.5219   24.6841 N   0  0  0  0  0  0  0  0  0  0  0  0
    9.4556  -15.7821   26.7838 C   0  0  0  0  0  0  0  0  0  0  0  0
   10.4326  -15.3412   27.6981 O   0  0  0  0  0  0  0  0  0  0  0  0
    9.2174  -16.9960   26.7821 O   0  0  0  0  0  0  0  0  0  0  0  0
  2  1  1  6
  2  3  1  0
  3  4  1  0
  5  2  1  0
  6  5  2  0
  7  5  1  0
  8  7  1  0
  8  9  1  6
 10 11  1  0
 10  9  1  0
 12 11  1  0
 13 12  1  0
 14 22  1  0
 14  8  1  0
 15 14  2  0
 17 16  1  0
 18 17  2  0
 19 17  1  0
 21 20  1  1
 20 19  1  0
 21 23  1  0
 21 22  1  0
 23 24  1  0
 25 23  2  0
M  END
$$$$
