CKQ.pdb
     RDKit          3D

 25 24  0  0  1  0  0  0  0  0999 V2000
    5.5948  -14.9946   26.3772 N   0  0  0  0  0  0  0  0  0  0  0  0
    6.3323  -13.9832   25.6894 C   0  0  1  0  0  0  0  0  0  0  0  0
    7.2647  -13.3116   26.6737 C   0  0  0  0  0  0  0  0  0  0  0  0
    6.5517  -11.7933   27.3087 S   0  0  0  0  0  0  0  0  0  0  0  0
    7.0702  -14.5803   24.5647 C   0  0  0  0  0  0  0  0  0  0  0  0
    7.5153  -15.7456   24.6262 O   0  0  0  0  0  0  0  0  0  0  0  0
    7.2816  -13.8262   23.3932 N   0  0  0  0  0  0  0  0  0  0  0  0
    8.0045  -14.3377   22.2330 C   0  0  1  0  0  0  0  0  0  0  0  0
    7.9856  -13.3927   21.0952 C   0  0  0  0  0  0  0  0  0  0  0  0
    8.6881  -13.9003   19.8667 C   0  0  0  0  0  0  0  0  0  0  0  0
    7.8280  -13.6889   18.6249 C   0  0  0  0  0  0  0  0  0  0  0  0
    8.6086  -14.3259   17.4721 C   0  0  0  0  0  0  0  0  0  0  0  0
    7.7820  -14.2106   16.2821 N   0  0  0  0  0  0  0  0  0  0  0  0
    9.3551  -14.7671   22.6712 C   0  0  0  0  0  0  0  0  0  0  0  0
   10.1015  -14.1211   23.4459 O   0  0  0  0  0  0  0  0  0  0  0  0
   11.0537  -20.1982   24.8030 N   0  0  0  0  0  0  0  0  0  0  0  0
   12.1486  -19.3030   24.8479 C   0  0  0  0  0  0  0  0  0  0  0  0
   12.8946  -19.2619   25.8457 O   0  0  0  0  0  0  0  0  0  0  0  0
   12.3637  -18.4178   23.6506 C   0  0  0  0  0  0  0  0  0  0  0  0
   11.0352  -17.8459   23.2677 C   0  0  0  0  0  0  0  0  0  0  0  0
   11.1831  -16.4975   22.6468 C   0  0  2  0  0  0  0  0  0  0  0  0
    9.8786  -16.0057   22.1947 N   0  0  0  0  0  0  0  0  0  0  0  0
   12.1698  -16.4296   21.5583 C   0  0  0  0  0  0  0  0  0  0  0  0
   11.7948  -16.6483   20.2181 O   0  0  0  0  0  0  0  0  0  0  0  0
   13.3650  -16.1802   21.7573 O   0  0  0  0  0  0  0  0  0  0  0  0
  2  1  1  1
  2  3  1  0
  3  4  1  0
  5  2  1  0
  6  5  2  0
  7  5  1  0
  8  7  1  0
  8  9  1  6
 10 11  1  0
 10  9  1  0
 12 11  1  0
 13 12  1  0
 14 22  1  0
 14  8  1  0
 15 14  2  0
 17 16  1  0
 18 17  2  0
 19 17  1  0
 21 20  1  6
 20 19  1  0
 21 23  1  0
 21 22  1  0
 23 24  1  0
 25 23  2  0
M  END
$$$$
