CKQ.pdb
     RDKit          3D

 25 24  0  0  1  0  0  0  0  0999 V2000
    7.9595  -12.7433   17.7202 N   0  0  0  0  0  0  0  0  0  0  0  0
    7.9054  -14.1696   17.7693 C   0  0  1  0  0  0  0  0  0  0  0  0
    8.8634  -14.7251   16.7382 C   0  0  0  0  0  0  0  0  0  0  0  0
    8.1820  -14.5939   15.0843 S   0  0  0  0  0  0  0  0  0  0  0  0
    8.2382  -14.6360   19.1249 C   0  0  0  0  0  0  0  0  0  0  0  0
    9.1206  -14.0733   19.8065 O   0  0  0  0  0  0  0  0  0  0  0  0
    7.5506  -15.7392   19.6690 N   0  0  0  0  0  0  0  0  0  0  0  0
    7.8708  -16.3180   20.9700 C   0  0  1  0  0  0  0  0  0  0  0  0
    6.9308  -17.3932   21.3556 C   0  0  0  0  0  0  0  0  0  0  0  0
    7.3126  -18.1160   22.6175 C   0  0  0  0  0  0  0  0  0  0  0  0
    6.3350  -19.2499   22.9088 C   0  0  0  0  0  0  0  0  0  0  0  0
    6.7914  -19.8531   24.2400 C   0  0  0  0  0  0  0  0  0  0  0  0
    5.7974  -20.8418   24.6234 N   0  0  0  0  0  0  0  0  0  0  0  0
    9.3031  -16.7036   20.9745 C   0  0  0  0  0  0  0  0  0  0  0  0
    9.8412  -17.4898   20.1576 O   0  0  0  0  0  0  0  0  0  0  0  0
   13.7226  -13.9183   19.6426 N   0  0  0  0  0  0  0  0  0  0  0  0
   14.5286  -14.8777   20.2999 C   0  0  0  0  0  0  0  0  0  0  0  0
   15.7662  -14.8769   20.1505 O   0  0  0  0  0  0  0  0  0  0  0  0
   13.8285  -15.8824   21.1740 C   0  0  0  0  0  0  0  0  0  0  0  0
   12.3700  -15.5488   21.1658 C   0  0  0  0  0  0  0  0  0  0  0  0
   11.5901  -16.5029   22.0069 C   0  0  2  0  0  0  0  0  0  0  0  0
   10.1662  -16.1578   21.9707 N   0  0  0  0  0  0  0  0  0  0  0  0
   12.0611  -16.6214   23.3951 C   0  0  0  0  0  0  0  0  0  0  0  0
   13.3178  -17.1836   23.6943 O   0  0  0  0  0  0  0  0  0  0  0  0
   11.3896  -16.2395   24.3613 O   0  0  0  0  0  0  0  0  0  0  0  0
  2  1  1  1
  2  3  1  0
  3  4  1  0
  5  2  1  0
  6  5  2  0
  7  5  1  0
  8  7  1  0
  8  9  1  6
 10 11  1  0
 10  9  1  0
 12 11  1  0
 13 12  1  0
 14 22  1  0
 14  8  1  0
 15 14  2  0
 17 16  1  0
 18 17  2  0
 19 17  1  0
 21 20  1  1
 20 19  1  0
 21 23  1  0
 21 22  1  0
 23 24  1  0
 25 23  2  0
M  END
$$$$
