CKQ.pdb
     RDKit          3D

 25 24  0  0  1  0  0  0  0  0999 V2000
    5.4566  -13.9074   26.7488 N   0  0  0  0  0  0  0  0  0  0  0  0
    6.3047  -13.1003   25.9307 C   0  0  1  0  0  0  0  0  0  0  0  0
    7.2932  -12.3809   26.8222 C   0  0  0  0  0  0  0  0  0  0  0  0
    6.5934  -10.8630   27.4726 S   0  0  0  0  0  0  0  0  0  0  0  0
    6.9863  -13.9420   24.9343 C   0  0  0  0  0  0  0  0  0  0  0  0
    7.3755  -15.0948   25.2158 O   0  0  0  0  0  0  0  0  0  0  0  0
    7.2066  -13.4416   23.6355 N   0  0  0  0  0  0  0  0  0  0  0  0
    7.8257  -14.2256   22.5714 C   0  0  1  0  0  0  0  0  0  0  0  0
    7.7317  -13.5607   21.2534 C   0  0  0  0  0  0  0  0  0  0  0  0
    8.2192  -14.4028   20.1072 C   0  0  0  0  0  0  0  0  0  0  0  0
    8.0678  -13.6576   18.7851 C   0  0  0  0  0  0  0  0  0  0  0  0
    8.4540  -14.6658   17.6995 C   0  0  0  0  0  0  0  0  0  0  0  0
    8.3232  -13.9870   16.4209 N   0  0  0  0  0  0  0  0  0  0  0  0
    9.1995  -14.5917   22.9943 C   0  0  0  0  0  0  0  0  0  0  0  0
   10.0275  -13.8058   23.5154 O   0  0  0  0  0  0  0  0  0  0  0  0
    9.5425  -19.2537   26.2930 N   0  0  0  0  0  0  0  0  0  0  0  0
   10.9066  -18.9013   26.4245 C   0  0  0  0  0  0  0  0  0  0  0  0
   11.6000  -19.3787   27.3439 O   0  0  0  0  0  0  0  0  0  0  0  0
   11.4690  -17.9373   25.4156 C   0  0  0  0  0  0  0  0  0  0  0  0
   10.3253  -17.4140   24.6053 C   0  0  0  0  0  0  0  0  0  0  0  0
   10.7929  -16.4562   23.5613 C   0  0  2  0  0  0  0  0  0  0  0  0
    9.6488  -15.9331   22.8094 N   0  0  0  0  0  0  0  0  0  0  0  0
   11.8122  -16.9953   22.6484 C   0  0  0  0  0  0  0  0  0  0  0  0
   11.5263  -17.2240   21.2880 O   0  0  0  0  0  0  0  0  0  0  0  0
   12.9591  -17.2729   23.0197 O   0  0  0  0  0  0  0  0  0  0  0  0
  2  1  1  1
  2  3  1  0
  3  4  1  0
  5  2  1  0
  6  5  2  0
  7  5  1  0
  8  7  1  0
  8  9  1  6
 10 11  1  0
 10  9  1  0
 12 11  1  0
 13 12  1  0
 14 22  1  0
 14  8  1  0
 15 14  2  0
 17 16  1  0
 18 17  2  0
 19 17  1  0
 21 20  1  1
 20 19  1  0
 21 23  1  0
 21 22  1  0
 23 24  1  0
 25 23  2  0
M  END
$$$$
