CKQ.pdb
     RDKit          3D

 25 24  0  0  1  0  0  0  0  0999 V2000
    6.1511  -18.7010   24.8292 N   0  0  0  0  0  0  0  0  0  0  0  0
    6.5297  -17.3240   24.8179 C   0  0  1  0  0  0  0  0  0  0  0  0
    7.1398  -16.9799   26.1592 C   0  0  0  0  0  0  0  0  0  0  0  0
    7.2378  -15.2039   26.3895 S   0  0  0  0  0  0  0  0  0  0  0  0
    7.4706  -17.0734   23.7144 C   0  0  0  0  0  0  0  0  0  0  0  0
    8.3321  -17.9180   23.3915 O   0  0  0  0  0  0  0  0  0  0  0  0
    7.4023  -15.8576   23.0050 N   0  0  0  0  0  0  0  0  0  0  0  0
    8.3427  -15.4942   21.9496 C   0  0  1  0  0  0  0  0  0  0  0  0
    7.8047  -14.4507   21.0498 C   0  0  0  0  0  0  0  0  0  0  0  0
    8.4660  -14.4064   19.7002 C   0  0  0  0  0  0  0  0  0  0  0  0
    7.7314  -13.4478   18.7686 C   0  0  0  0  0  0  0  0  0  0  0  0
    8.4519  -13.5521   17.4217 C   0  0  0  0  0  0  0  0  0  0  0  0
    7.8728  -12.5445   16.5489 N   0  0  0  0  0  0  0  0  0  0  0  0
    9.6500  -15.1738   22.5732 C   0  0  0  0  0  0  0  0  0  0  0  0
    9.8008  -14.5709   23.6634 O   0  0  0  0  0  0  0  0  0  0  0  0
   11.9256  -17.7346   26.6855 N   0  0  0  0  0  0  0  0  0  0  0  0
   12.6084  -18.2334   25.5510 C   0  0  0  0  0  0  0  0  0  0  0  0
   12.8625  -19.4493   25.4465 O   0  0  0  0  0  0  0  0  0  0  0  0
   13.0058  -17.2389   24.4943 C   0  0  0  0  0  0  0  0  0  0  0  0
   11.7739  -16.8832   23.7234 C   0  0  0  0  0  0  0  0  0  0  0  0
   12.0672  -15.8696   22.6686 C   0  0  2  0  0  0  0  0  0  0  0  0
   10.8505  -15.5661   21.9099 N   0  0  0  0  0  0  0  0  0  0  0  0
   13.1683  -16.2299   21.7627 C   0  0  0  0  0  0  0  0  0  0  0  0
   14.5136  -16.0618   22.1456 O   0  0  0  0  0  0  0  0  0  0  0  0
   12.9761  -16.6935   20.6320 O   0  0  0  0  0  0  0  0  0  0  0  0
  2  1  1  1
  2  3  1  0
  3  4  1  0
  5  2  1  0
  6  5  2  0
  7  5  1  0
  8  7  1  0
  8  9  1  1
 10 11  1  0
 10  9  1  0
 12 11  1  0
 13 12  1  0
 14 22  1  0
 14  8  1  0
 15 14  2  0
 17 16  1  0
 18 17  2  0
 19 17  1  0
 21 20  1  1
 20 19  1  0
 21 23  1  0
 21 22  1  0
 23 24  1  0
 25 23  2  0
M  END
$$$$
