CKQ.pdb
     RDKit          3D

 25 24  0  0  1  0  0  0  0  0999 V2000
    5.1363  -13.6249   26.7405 N   0  0  0  0  0  0  0  0  0  0  0  0
    6.1784  -12.9424   26.0417 C   0  0  1  0  0  0  0  0  0  0  0  0
    7.1941  -12.4507   27.0496 C   0  0  0  0  0  0  0  0  0  0  0  0
    6.9972  -10.6959   27.3641 S   0  0  0  0  0  0  0  0  0  0  0  0
    6.7897  -13.8436   25.0517 C   0  0  0  0  0  0  0  0  0  0  0  0
    7.0442  -15.0346   25.3282 O   0  0  0  0  0  0  0  0  0  0  0  0
    7.0961  -13.3575   23.7649 N   0  0  0  0  0  0  0  0  0  0  0  0
    7.7102  -14.1783   22.7259 C   0  0  1  0  0  0  0  0  0  0  0  0
    7.7068  -13.5118   21.4053 C   0  0  0  0  0  0  0  0  0  0  0  0
    8.2405  -14.3648   20.2882 C   0  0  0  0  0  0  0  0  0  0  0  0
    8.1804  -13.6174   18.9601 C   0  0  0  0  0  0  0  0  0  0  0  0
    8.6374  -14.6248   17.9015 C   0  0  0  0  0  0  0  0  0  0  0  0
    8.4676  -13.9886   16.6057 N   0  0  0  0  0  0  0  0  0  0  0  0
    9.0428  -14.6224   23.2026 C   0  0  0  0  0  0  0  0  0  0  0  0
    9.8983  -13.8821   23.7457 O   0  0  0  0  0  0  0  0  0  0  0  0
    8.4927  -18.9679   27.1476 N   0  0  0  0  0  0  0  0  0  0  0  0
    9.7265  -18.4425   26.6962 C   0  0  0  0  0  0  0  0  0  0  0  0
   10.6480  -18.2046   27.5013 O   0  0  0  0  0  0  0  0  0  0  0  0
    9.8682  -18.1893   25.2200 C   0  0  0  0  0  0  0  0  0  0  0  0
   10.4856  -16.8369   25.0514 C   0  0  0  0  0  0  0  0  0  0  0  0
   10.6694  -16.4998   23.6097 C   0  0  2  0  0  0  0  0  0  0  0  0
    9.4151  -15.9908   23.0479 N   0  0  0  0  0  0  0  0  0  0  0  0
   11.1997  -17.5976   22.7872 C   0  0  0  0  0  0  0  0  0  0  0  0
   12.5099  -18.0814   22.9720 O   0  0  0  0  0  0  0  0  0  0  0  0
   10.5341  -18.1480   21.9015 O   0  0  0  0  0  0  0  0  0  0  0  0
  2  1  1  1
  2  3  1  0
  3  4  1  0
  5  2  1  0
  6  5  2  0
  7  5  1  0
  8  7  1  0
  8  9  1  6
 10 11  1  0
 10  9  1  0
 12 11  1  0
 13 12  1  0
 14 22  1  0
 14  8  1  0
 15 14  2  0
 17 16  1  0
 18 17  2  0
 19 17  1  0
 21 20  1  1
 20 19  1  0
 21 23  1  0
 21 22  1  0
 23 24  1  0
 25 23  2  0
M  END
$$$$
