CKQ.pdb
     RDKit          3D

 25 24  0  0  1  0  0  0  0  0999 V2000
    6.3714  -18.6833   25.5305 N   0  0  0  0  0  0  0  0  0  0  0  0
    6.3706  -17.3132   25.1269 C   0  0  1  0  0  0  0  0  0  0  0  0
    6.6564  -16.4528   26.3384 C   0  0  0  0  0  0  0  0  0  0  0  0
    8.0029  -17.1300   27.3105 S   0  0  0  0  0  0  0  0  0  0  0  0
    7.3689  -17.1041   24.0660 C   0  0  0  0  0  0  0  0  0  0  0  0
    8.2946  -17.9205   23.8758 O   0  0  0  0  0  0  0  0  0  0  0  0
    7.2829  -15.9612   23.2460 N   0  0  0  0  0  0  0  0  0  0  0  0
    8.2065  -15.6942   22.1479 C   0  0  1  0  0  0  0  0  0  0  0  0
    7.7171  -14.6288   21.2459 C   0  0  0  0  0  0  0  0  0  0  0  0
    8.4388  -14.5632   19.9286 C   0  0  0  0  0  0  0  0  0  0  0  0
    7.7597  -13.5732   18.9879 C   0  0  0  0  0  0  0  0  0  0  0  0
    8.4698  -13.7340   17.6410 C   0  0  0  0  0  0  0  0  0  0  0  0
    7.8651  -12.7824   16.7237 N   0  0  0  0  0  0  0  0  0  0  0  0
    9.5585  -15.4667   22.7141 C   0  0  0  0  0  0  0  0  0  0  0  0
    9.8370  -14.6230   23.6003 O   0  0  0  0  0  0  0  0  0  0  0  0
   12.9535  -19.5957   24.7021 N   0  0  0  0  0  0  0  0  0  0  0  0
   11.9770  -18.8331   25.3855 C   0  0  0  0  0  0  0  0  0  0  0  0
   11.4706  -19.2525   26.4446 O   0  0  0  0  0  0  0  0  0  0  0  0
   11.5868  -17.5124   24.7798 C   0  0  0  0  0  0  0  0  0  0  0  0
   12.3919  -17.3331   23.5315 C   0  0  0  0  0  0  0  0  0  0  0  0
   11.9949  -16.0933   22.8027 C   0  0  2  0  0  0  0  0  0  0  0  0
   10.6517  -16.2499   22.2377 N   0  0  0  0  0  0  0  0  0  0  0  0
   12.9465  -15.6599   21.7684 C   0  0  0  0  0  0  0  0  0  0  0  0
   12.5600  -15.5568   20.4176 O   0  0  0  0  0  0  0  0  0  0  0  0
   14.1206  -15.3663   22.0245 O   0  0  0  0  0  0  0  0  0  0  0  0
  2  1  1  1
  2  3  1  0
  3  4  1  0
  5  2  1  0
  6  5  2  0
  7  5  1  0
  8  7  1  0
  8  9  1  1
 10 11  1  0
 10  9  1  0
 12 11  1  0
 13 12  1  0
 14 22  1  0
 14  8  1  0
 15 14  2  0
 17 16  1  0
 18 17  2  0
 19 17  1  0
 21 20  1  6
 20 19  1  0
 21 23  1  0
 21 22  1  0
 23 24  1  0
 25 23  2  0
M  END
$$$$
