YQV.pdb
     RDKit          3D

 29 29  0  0  1  0  0  0  0  0999 V2000
   30.2094  -15.0909  -18.9958 O   0  0  0  0  0  0  0  0  0  0  0  0
   29.3325  -15.6951  -18.1128 C   0  0  0  0  0  0  0  0  0  0  0  0
   29.6125  -16.9666  -17.6011 C   0  0  0  0  0  0  0  0  0  0  0  0
   28.7070  -17.5245  -16.7251 C   0  0  0  0  0  0  0  0  0  0  0  0
   27.5613  -16.8616  -16.3586 C   0  0  0  0  0  0  0  0  0  0  0  0
   26.6274  -17.4868  -15.4281 C   0  0  0  0  0  0  0  0  0  0  0  0
   25.8670  -18.6424  -16.0136 C   0  0  2  0  0  0  0  0  0  0  0  0
   24.8237  -18.0964  -16.8729 N   0  0  0  0  0  0  0  0  0  0  0  0
   25.2027  -19.3652  -14.9024 C   0  0  0  0  0  0  0  0  0  0  0  0
   24.1571  -18.8713  -14.4157 O   0  0  0  0  0  0  0  0  0  0  0  0
   27.3138  -15.6107  -16.8799 C   0  0  0  0  0  0  0  0  0  0  0  0
   28.1958  -15.0073  -17.7656 C   0  0  0  0  0  0  0  0  0  0  0  0
   24.3431  -25.2030  -14.4273 N   0  0  0  0  0  0  0  0  0  0  0  0
   23.4124  -24.2411  -14.9455 C   0  0  0  0  0  0  0  0  0  0  0  0
   22.4861  -24.6979  -15.6737 O   0  0  0  0  0  0  0  0  0  0  0  0
   23.5474  -22.7927  -14.6317 C   0  0  0  0  0  0  0  0  0  0  0  0
   24.6708  -22.6519  -13.6386 C   0  0  0  0  0  0  0  0  0  0  0  0
   24.9791  -21.2184  -13.2971 C   0  0  2  0  0  0  0  0  0  0  0  0
   25.6907  -20.5825  -14.3662 N   0  0  0  0  0  0  0  0  0  0  0  0
   25.6922  -21.0943  -11.9936 C   0  0  0  0  0  0  0  0  0  0  0  0
   26.9081  -21.3484  -11.9615 O   0  0  0  0  0  0  0  0  0  0  0  0
   26.9669  -19.3801   -7.8395 C   0  0  0  0  0  0  0  0  0  0  0  0
   26.2761  -19.3852   -9.1768 C   0  0  2  0  0  0  0  0  0  0  0  0
   25.1568  -18.3675   -9.1093 C   0  0  0  0  0  0  0  0  0  0  0  0
   25.6865  -20.7162   -9.5325 C   0  0  2  0  0  0  0  0  0  0  0  0
   25.0115  -20.6975  -10.8143 N   0  0  0  0  0  0  0  0  0  0  0  0
   24.7001  -21.0832   -8.4841 C   0  0  0  0  0  0  0  0  0  0  0  0
   25.0828  -21.4637   -7.2053 O   0  0  0  0  0  0  0  0  0  0  0  0
   23.4609  -21.0627   -8.7196 O   0  0  0  0  0  0  0  0  0  0  0  0
  2  1  1  0
  2  3  2  0
  4  3  1  0
  5  4  2  0
  6  5  1  0
  7  6  1  0
  7  8  1  6
  9  7  1  0
  9 10  2  0
 11 12  2  0
 11  5  1  0
 12  2  1  0
 14 16  1  0
 14 13  1  0
 15 14  2  0
 18 17  1  6
 17 16  1  0
 18 19  1  0
 19  9  1  0
 20 18  1  0
 21 20  2  0
 23 22  1  1
 23 25  1  0
 24 23  1  0
 25 26  1  6
 26 20  1  0
 27 25  1  0
 27 28  1  0
 29 27  2  0
M  END
$$$$
