YQV.pdb
     RDKit          3D

 29 29  0  0  1  0  0  0  0  0999 V2000
   29.2907  -28.9365  -17.9789 O   0  0  0  0  0  0  0  0  0  0  0  0
   29.0575  -27.6714  -17.4700 C   0  0  0  0  0  0  0  0  0  0  0  0
   27.7483  -27.1977  -17.3326 C   0  0  0  0  0  0  0  0  0  0  0  0
   27.5699  -25.9310  -16.8206 C   0  0  0  0  0  0  0  0  0  0  0  0
   28.6373  -25.1486  -16.4532 C   0  0  0  0  0  0  0  0  0  0  0  0
   28.4061  -23.8123  -15.9150 C   0  0  0  0  0  0  0  0  0  0  0  0
   27.9333  -22.8180  -16.9369 C   0  0  2  0  0  0  0  0  0  0  0  0
   29.1117  -22.1974  -17.5294 N   0  0  0  0  0  0  0  0  0  0  0  0
   27.1737  -21.7589  -16.2301 C   0  0  0  0  0  0  0  0  0  0  0  0
   27.7865  -20.7190  -15.8872 O   0  0  0  0  0  0  0  0  0  0  0  0
   29.9144  -25.6436  -16.6007 C   0  0  0  0  0  0  0  0  0  0  0  0
   30.1448  -26.9133  -17.1117 C   0  0  0  0  0  0  0  0  0  0  0  0
   21.8155  -17.1242  -15.9282 N   0  0  0  0  0  0  0  0  0  0  0  0
   22.5523  -18.3053  -16.2774 C   0  0  0  0  0  0  0  0  0  0  0  0
   22.3201  -18.7893  -17.4214 O   0  0  0  0  0  0  0  0  0  0  0  0
   23.5297  -18.9104  -15.3323 C   0  0  0  0  0  0  0  0  0  0  0  0
   24.2307  -20.0242  -16.0644 C   0  0  0  0  0  0  0  0  0  0  0  0
   25.1538  -20.8205  -15.1810 C   0  0  2  0  0  0  0  0  0  0  0  0
   25.7942  -21.8648  -15.9246 N   0  0  0  0  0  0  0  0  0  0  0  0
   24.4592  -21.3379  -13.9673 C   0  0  0  0  0  0  0  0  0  0  0  0
   23.6785  -22.2955  -14.0994 O   0  0  0  0  0  0  0  0  0  0  0  0
   24.7124  -19.3778  -10.0544 C   0  0  0  0  0  0  0  0  0  0  0  0
   24.6618  -20.8703  -10.2426 C   0  0  2  0  0  0  0  0  0  0  0  0
   26.0910  -21.3704  -10.2616 C   0  0  0  0  0  0  0  0  0  0  0  0
   23.9977  -21.2827  -11.5210 C   0  0  2  0  0  0  0  0  0  0  0  0
   24.6758  -20.7604  -12.6901 N   0  0  0  0  0  0  0  0  0  0  0  0
   22.6058  -20.7639  -11.5107 C   0  0  0  0  0  0  0  0  0  0  0  0
   21.6088  -21.3287  -10.7276 O   0  0  0  0  0  0  0  0  0  0  0  0
   22.2729  -19.7771  -12.2229 O   0  0  0  0  0  0  0  0  0  0  0  0
  2  1  1  0
  2  3  2  0
  4  3  1  0
  5  4  2  0
  6  5  1  0
  7  6  1  0
  7  8  1  1
  9  7  1  0
  9 10  2  0
 11 12  2  0
 11  5  1  0
 12  2  1  0
 14 16  1  0
 14 13  1  0
 15 14  2  0
 18 17  1  6
 17 16  1  0
 18 19  1  0
 19  9  1  0
 20 18  1  0
 21 20  2  0
 23 22  1  6
 23 25  1  0
 24 23  1  0
 25 26  1  6
 26 20  1  0
 27 25  1  0
 27 28  1  0
 29 27  2  0
M  END
$$$$
