YQV.pdb
     RDKit          3D

 29 29  0  0  1  0  0  0  0  0999 V2000
   26.0565  -11.8859  -19.3827 O   0  0  0  0  0  0  0  0  0  0  0  0
   25.7058  -13.0450  -18.7140 C   0  0  0  0  0  0  0  0  0  0  0  0
   25.8903  -13.1437  -17.3308 C   0  0  0  0  0  0  0  0  0  0  0  0
   25.5248  -14.3195  -16.7123 C   0  0  0  0  0  0  0  0  0  0  0  0
   24.9947  -15.3689  -17.4222 C   0  0  0  0  0  0  0  0  0  0  0  0
   24.6202  -16.5976  -16.7299 C   0  0  0  0  0  0  0  0  0  0  0  0
   25.7878  -17.4658  -16.3566 C   0  0  2  0  0  0  0  0  0  0  0  0
   26.3296  -18.0321  -17.5857 N   0  0  0  0  0  0  0  0  0  0  0  0
   25.2805  -18.5869  -15.5295 C   0  0  0  0  0  0  0  0  0  0  0  0
   24.9023  -19.6306  -16.1142 O   0  0  0  0  0  0  0  0  0  0  0  0
   24.8253  -15.2410  -18.7833 C   0  0  0  0  0  0  0  0  0  0  0  0
   25.1783  -14.0765  -19.4511 C   0  0  0  0  0  0  0  0  0  0  0  0
   26.9136  -21.8847  -11.9420 N   0  0  0  0  0  0  0  0  0  0  0  0
   25.6763  -21.9843  -11.2215 C   0  0  0  0  0  0  0  0  0  0  0  0
   25.4606  -23.0817  -10.6332 O   0  0  0  0  0  0  0  0  0  0  0  0
   24.7153  -20.8487  -11.1815 C   0  0  0  0  0  0  0  0  0  0  0  0
   25.2955  -19.7405  -12.0200 C   0  0  0  0  0  0  0  0  0  0  0  0
   24.6891  -19.6635  -13.3958 C   0  0  2  0  0  0  0  0  0  0  0  0
   25.2028  -18.5358  -14.1156 N   0  0  0  0  0  0  0  0  0  0  0  0
   23.1987  -19.6724  -13.3522 C   0  0  0  0  0  0  0  0  0  0  0  0
   22.6137  -18.6296  -13.0140 O   0  0  0  0  0  0  0  0  0  0  0  0
   18.9338  -21.2468  -15.0358 C   0  0  0  0  0  0  0  0  0  0  0  0
   20.4389  -21.2253  -15.0184 C   0  0  2  0  0  0  0  0  0  0  0  0
   20.9128  -22.6314  -15.3204 C   0  0  0  0  0  0  0  0  0  0  0  0
   21.0087  -20.8058  -13.6975 C   0  0  2  0  0  0  0  0  0  0  0  0
   22.4572  -20.8345  -13.6857 N   0  0  0  0  0  0  0  0  0  0  0  0
   20.5089  -21.7410  -12.6571 C   0  0  0  0  0  0  0  0  0  0  0  0
   19.3800  -21.4705  -11.8963 O   0  0  0  0  0  0  0  0  0  0  0  0
   21.0995  -22.8308  -12.4226 O   0  0  0  0  0  0  0  0  0  0  0  0
  2  1  1  0
  2  3  2  0
  4  3  1  0
  5  4  2  0
  6  5  1  0
  7  6  1  0
  7  8  1  6
  9  7  1  0
  9 10  2  0
 11 12  2  0
 11  5  1  0
 12  2  1  0
 14 16  1  0
 14 13  1  0
 15 14  2  0
 18 17  1  1
 17 16  1  0
 18 19  1  0
 19  9  1  0
 20 18  1  0
 21 20  2  0
 23 22  1  1
 23 25  1  0
 24 23  1  0
 25 26  1  6
 26 20  1  0
 27 25  1  0
 27 28  1  0
 29 27  2  0
M  END
$$$$
