YQV.pdb
     RDKit          3D

 29 29  0  0  1  0  0  0  0  0999 V2000
   21.0598  -12.9926  -20.3610 O   0  0  0  0  0  0  0  0  0  0  0  0
   21.0501  -14.2670  -19.8228 C   0  0  0  0  0  0  0  0  0  0  0  0
   20.6894  -15.3631  -20.6138 C   0  0  0  0  0  0  0  0  0  0  0  0
   20.6958  -16.6112  -20.0302 C   0  0  0  0  0  0  0  0  0  0  0  0
   21.0439  -16.7856  -18.7131 C   0  0  0  0  0  0  0  0  0  0  0  0
   21.0382  -18.1241  -18.1323 C   0  0  0  0  0  0  0  0  0  0  0  0
   22.3631  -18.8273  -18.2108 C   0  0  2  0  0  0  0  0  0  0  0  0
   22.5597  -19.2490  -19.5923 N   0  0  0  0  0  0  0  0  0  0  0  0
   22.2852  -20.0487  -17.3739 C   0  0  0  0  0  0  0  0  0  0  0  0
   21.8490  -21.1008  -17.9004 O   0  0  0  0  0  0  0  0  0  0  0  0
   21.3943  -15.6864  -17.9603 C   0  0  0  0  0  0  0  0  0  0  0  0
   21.4029  -14.4091  -18.5034 C   0  0  0  0  0  0  0  0  0  0  0  0
   24.8775  -23.5300  -14.9748 N   0  0  0  0  0  0  0  0  0  0  0  0
   24.1018  -23.6764  -13.7761 C   0  0  0  0  0  0  0  0  0  0  0  0
   24.1377  -24.8126  -13.2241 O   0  0  0  0  0  0  0  0  0  0  0  0
   23.3071  -22.5428  -13.2303 C   0  0  0  0  0  0  0  0  0  0  0  0
   23.5229  -21.3638  -14.1420 C   0  0  0  0  0  0  0  0  0  0  0  0
   22.5220  -21.2962  -15.2646 C   0  0  2  0  0  0  0  0  0  0  0  0
   22.6783  -20.0841  -16.0131 N   0  0  0  0  0  0  0  0  0  0  0  0
   21.1242  -21.4830  -14.7805 C   0  0  0  0  0  0  0  0  0  0  0  0
   20.6095  -20.5764  -14.1044 O   0  0  0  0  0  0  0  0  0  0  0  0
   18.7470  -25.0133  -15.7743 C   0  0  0  0  0  0  0  0  0  0  0  0
   18.1826  -23.6612  -15.4291 C   0  0  2  0  0  0  0  0  0  0  0  0
   18.0163  -22.8982  -16.7265 C   0  0  0  0  0  0  0  0  0  0  0  0
   19.0693  -22.8650  -14.5206 C   0  0  2  0  0  0  0  0  0  0  0  0
   20.3910  -22.6602  -15.0776 N   0  0  0  0  0  0  0  0  0  0  0  0
   19.2056  -23.6036  -13.2389 C   0  0  0  0  0  0  0  0  0  0  0  0
   18.2147  -23.5934  -12.2672 O   0  0  0  0  0  0  0  0  0  0  0  0
   20.2410  -24.2769  -12.9819 O   0  0  0  0  0  0  0  0  0  0  0  0
  2  1  1  0
  2  3  2  0
  4  3  1  0
  5  4  2  0
  6  5  1  0
  7  6  1  0
  7  8  1  6
  9  7  1  0
  9 10  2  0
 11 12  2  0
 11  5  1  0
 12  2  1  0
 14 16  1  0
 14 13  1  0
 15 14  2  0
 18 17  1  1
 17 16  1  0
 18 19  1  0
 19  9  1  0
 20 18  1  0
 21 20  2  0
 23 22  1  6
 23 25  1  0
 24 23  1  0
 25 26  1  6
 26 20  1  0
 27 25  1  0
 27 28  1  0
 29 27  2  0
M  END
$$$$
