YQV.pdb
     RDKit          3D

 29 29  0  0  1  0  0  0  0  0999 V2000
   16.4966  -14.1381  -22.4811 O   0  0  0  0  0  0  0  0  0  0  0  0
   17.1660  -13.4438  -21.4894 C   0  0  0  0  0  0  0  0  0  0  0  0
   18.4312  -12.9019  -21.7400 C   0  0  0  0  0  0  0  0  0  0  0  0
   19.0557  -12.2194  -20.7188 C   0  0  0  0  0  0  0  0  0  0  0  0
   18.4636  -12.0696  -19.4887 C   0  0  0  0  0  0  0  0  0  0  0  0
   19.1582  -11.3398  -18.4333 C   0  0  0  0  0  0  0  0  0  0  0  0
   20.3310  -12.0777  -17.8534 C   0  0  2  0  0  0  0  0  0  0  0  0
   19.8134  -13.2281  -17.1229 N   0  0  0  0  0  0  0  0  0  0  0  0
   20.9968  -11.1850  -16.8744 C   0  0  0  0  0  0  0  0  0  0  0  0
   20.5958  -11.2056  -15.6857 O   0  0  0  0  0  0  0  0  0  0  0  0
   17.2171  -12.6149  -19.2729 C   0  0  0  0  0  0  0  0  0  0  0  0
   16.5482  -13.3109  -20.2703 C   0  0  0  0  0  0  0  0  0  0  0  0
   26.7557  -10.3397  -16.0652 N   0  0  0  0  0  0  0  0  0  0  0  0
   25.8800  -11.3686  -15.5810 C   0  0  0  0  0  0  0  0  0  0  0  0
   26.4368  -12.4222  -15.1603 O   0  0  0  0  0  0  0  0  0  0  0  0
   24.4031  -11.1862  -15.5825 C   0  0  0  0  0  0  0  0  0  0  0  0
   24.1244   -9.7886  -16.0693 C   0  0  0  0  0  0  0  0  0  0  0  0
   22.6542   -9.4932  -16.2023 C   0  0  2  0  0  0  0  0  0  0  0  0
   22.0602  -10.3134  -17.2163 N   0  0  0  0  0  0  0  0  0  0  0  0
   22.3926   -8.0425  -16.4265 C   0  0  0  0  0  0  0  0  0  0  0  0
   22.7692   -7.5352  -17.4965 O   0  0  0  0  0  0  0  0  0  0  0  0
   19.0543   -6.1129  -15.1737 C   0  0  0  0  0  0  0  0  0  0  0  0
   20.0883   -5.5624  -16.1190 C   0  0  2  0  0  0  0  0  0  0  0  0
   19.8629   -6.2190  -17.4648 C   0  0  0  0  0  0  0  0  0  0  0  0
   21.4949   -5.8418  -15.6843 C   0  0  2  0  0  0  0  0  0  0  0  0
   21.7322   -7.2520  -15.4516 N   0  0  0  0  0  0  0  0  0  0  0  0
   21.7458   -5.1050  -14.4190 C   0  0  0  0  0  0  0  0  0  0  0  0
   21.8993   -3.7262  -14.3807 O   0  0  0  0  0  0  0  0  0  0  0  0
   21.8299   -5.7130  -13.3167 O   0  0  0  0  0  0  0  0  0  0  0  0
  2  1  1  0
  2  3  2  0
  4  3  1  0
  5  4  2  0
  6  5  1  0
  7  6  1  0
  7  8  1  1
  9  7  1  0
  9 10  2  0
 11 12  2  0
 11  5  1  0
 12  2  1  0
 14 16  1  0
 14 13  1  0
 15 14  2  0
 18 17  1  6
 17 16  1  0
 18 19  1  0
 19  9  1  0
 20 18  1  0
 21 20  2  0
 23 22  1  1
 23 25  1  0
 24 23  1  0
 25 26  1  1
 26 20  1  0
 27 25  1  0
 27 28  1  0
 29 27  2  0
M  END
$$$$
