YQV.pdb
     RDKit          3D

 29 29  0  0  1  0  0  0  0  0999 V2000
   20.5834  -20.8373  -17.8457 O   0  0  0  0  0  0  0  0  0  0  0  0
   20.9790  -19.5295  -17.6294 C   0  0  0  0  0  0  0  0  0  0  0  0
   20.3675  -18.7645  -16.6303 C   0  0  0  0  0  0  0  0  0  0  0  0
   20.7979  -17.4674  -16.4552 C   0  0  0  0  0  0  0  0  0  0  0  0
   21.7958  -16.9315  -17.2319 C   0  0  0  0  0  0  0  0  0  0  0  0
   22.2232  -15.5533  -17.0149 C   0  0  0  0  0  0  0  0  0  0  0  0
   21.2089  -14.5283  -17.4353 C   0  0  2  0  0  0  0  0  0  0  0  0
   21.0187  -14.6576  -18.8748 N   0  0  0  0  0  0  0  0  0  0  0  0
   21.7790  -13.1845  -17.1753 C   0  0  0  0  0  0  0  0  0  0  0  0
   22.1401  -12.9104  -16.0054 O   0  0  0  0  0  0  0  0  0  0  0  0
   22.3783  -17.7102  -18.2076 C   0  0  0  0  0  0  0  0  0  0  0  0
   21.9790  -19.0221  -18.4219 C   0  0  0  0  0  0  0  0  0  0  0  0
   24.3191   -9.1869  -21.1719 N   0  0  0  0  0  0  0  0  0  0  0  0
   24.4283   -8.4583  -19.9402 C   0  0  0  0  0  0  0  0  0  0  0  0
   25.0724   -7.3722  -19.9902 O   0  0  0  0  0  0  0  0  0  0  0  0
   23.8111   -8.9692  -18.6862 C   0  0  0  0  0  0  0  0  0  0  0  0
   23.2391  -10.3289  -18.9895 C   0  0  0  0  0  0  0  0  0  0  0  0
   22.4711  -10.9159  -17.8354 C   0  0  2  0  0  0  0  0  0  0  0  0
   21.9348  -12.1990  -18.1814 N   0  0  0  0  0  0  0  0  0  0  0  0
   21.4220   -9.9848  -17.3297 C   0  0  0  0  0  0  0  0  0  0  0  0
   20.3585   -9.8950  -17.9660 O   0  0  0  0  0  0  0  0  0  0  0  0
   20.7736   -9.0533  -13.3402 C   0  0  0  0  0  0  0  0  0  0  0  0
   19.8737   -8.7379  -14.5049 C   0  0  2  0  0  0  0  0  0  0  0  0
   19.1354  -10.0111  -14.8611 C   0  0  0  0  0  0  0  0  0  0  0  0
   20.6186   -8.2664  -15.7167 C   0  0  2  0  0  0  0  0  0  0  0  0
   21.6211   -9.2165  -16.1542 N   0  0  0  0  0  0  0  0  0  0  0  0
   21.2948   -6.9876  -15.3787 C   0  0  0  0  0  0  0  0  0  0  0  0
   22.6756   -6.8495  -15.4011 O   0  0  0  0  0  0  0  0  0  0  0  0
   20.6306   -5.9653  -15.0543 O   0  0  0  0  0  0  0  0  0  0  0  0
  2  1  1  0
  2  3  2  0
  4  3  1  0
  5  4  2  0
  6  5  1  0
  7  6  1  0
  7  8  1  6
  9  7  1  0
  9 10  2  0
 11 12  2  0
 11  5  1  0
 12  2  1  0
 14 16  1  0
 14 13  1  0
 15 14  2  0
 18 17  1  6
 17 16  1  0
 18 19  1  0
 19  9  1  0
 20 18  1  0
 21 20  2  0
 23 22  1  1
 23 25  1  0
 24 23  1  0
 25 26  1  1
 26 20  1  0
 27 25  1  0
 27 28  1  0
 29 27  2  0
M  END
$$$$
