YQV.pdb
     RDKit          3D

 29 29  0  0  1  0  0  0  0  0999 V2000
   31.4688  -16.9588  -18.8834 O   0  0  0  0  0  0  0  0  0  0  0  0
   30.2006  -17.0157  -18.3337 C   0  0  0  0  0  0  0  0  0  0  0  0
   29.3142  -15.9453  -18.4949 C   0  0  0  0  0  0  0  0  0  0  0  0
   28.0629  -16.0515  -17.9279 C   0  0  0  0  0  0  0  0  0  0  0  0
   27.6866  -17.1692  -17.2239 C   0  0  0  0  0  0  0  0  0  0  0  0
   26.3521  -17.2428  -16.6387 C   0  0  0  0  0  0  0  0  0  0  0  0
   25.5050  -18.3527  -17.1927 C   0  0  2  0  0  0  0  0  0  0  0  0
   25.0497  -17.9443  -18.5159 N   0  0  0  0  0  0  0  0  0  0  0  0
   24.3086  -18.4927  -16.3282 C   0  0  0  0  0  0  0  0  0  0  0  0
   23.3593  -17.6895  -16.4958 O   0  0  0  0  0  0  0  0  0  0  0  0
   28.5821  -18.2065  -17.0827 C   0  0  0  0  0  0  0  0  0  0  0  0
   29.8538  -18.1461  -17.6356 C   0  0  0  0  0  0  0  0  0  0  0  0
   19.5551  -17.8005  -13.9952 N   0  0  0  0  0  0  0  0  0  0  0  0
   19.7369  -18.7524  -15.0538 C   0  0  0  0  0  0  0  0  0  0  0  0
   19.2253  -18.4502  -16.1691 O   0  0  0  0  0  0  0  0  0  0  0  0
   20.4881  -20.0175  -14.8309 C   0  0  0  0  0  0  0  0  0  0  0  0
   21.8103  -19.8847  -15.5394 C   0  0  0  0  0  0  0  0  0  0  0  0
   22.9563  -19.6118  -14.6019 C   0  0  2  0  0  0  0  0  0  0  0  0
   24.1868  -19.4865  -15.3257 N   0  0  0  0  0  0  0  0  0  0  0  0
   23.0437  -20.6277  -13.5140 C   0  0  0  0  0  0  0  0  0  0  0  0
   22.9325  -21.8272  -13.8186 O   0  0  0  0  0  0  0  0  0  0  0  0
   23.9531  -19.5886   -9.3399 C   0  0  0  0  0  0  0  0  0  0  0  0
   24.3441  -20.8529  -10.0571 C   0  0  2  0  0  0  0  0  0  0  0  0
   25.6915  -20.6060  -10.7025 C   0  0  0  0  0  0  0  0  0  0  0  0
   23.3718  -21.2510  -11.1257 C   0  0  2  0  0  0  0  0  0  0  0  0
   23.2483  -20.2472  -12.1631 N   0  0  0  0  0  0  0  0  0  0  0  0
   22.0410  -21.4452  -10.4949 C   0  0  0  0  0  0  0  0  0  0  0  0
   21.7580  -22.5310   -9.6780 O   0  0  0  0  0  0  0  0  0  0  0  0
   21.1053  -20.6196  -10.6805 O   0  0  0  0  0  0  0  0  0  0  0  0
  2  1  1  0
  2  3  2  0
  4  3  1  0
  5  4  2  0
  6  5  1  0
  7  6  1  0
  7  8  1  6
  9  7  1  0
  9 10  2  0
 11 12  2  0
 11  5  1  0
 12  2  1  0
 14 16  1  0
 14 13  1  0
 15 14  2  0
 18 17  1  6
 17 16  1  0
 18 19  1  0
 19  9  1  0
 20 18  1  0
 21 20  2  0
 23 22  1  6
 23 25  1  0
 24 23  1  0
 25 26  1  6
 26 20  1  0
 27 25  1  0
 27 28  1  0
 29 27  2  0
M  END
$$$$
