YQV.pdb
     RDKit          3D

 29 29  0  0  1  0  0  0  0  0999 V2000
   20.1198  -21.3471  -12.7241 O   0  0  0  0  0  0  0  0  0  0  0  0
   21.2782  -21.8290  -13.3070 C   0  0  0  0  0  0  0  0  0  0  0  0
   21.4624  -23.2056  -13.4749 C   0  0  0  0  0  0  0  0  0  0  0  0
   22.6335  -23.6341  -14.0608 C   0  0  0  0  0  0  0  0  0  0  0  0
   23.5974  -22.7459  -14.4713 C   0  0  0  0  0  0  0  0  0  0  0  0
   24.8241  -23.2401  -15.0877 C   0  0  0  0  0  0  0  0  0  0  0  0
   24.6867  -23.5538  -16.5502 C   0  0  2  0  0  0  0  0  0  0  0  0
   23.7037  -24.6219  -16.6838 N   0  0  0  0  0  0  0  0  0  0  0  0
   25.9879  -24.0764  -17.0321 C   0  0  0  0  0  0  0  0  0  0  0  0
   26.9703  -23.2961  -17.0485 O   0  0  0  0  0  0  0  0  0  0  0  0
   23.3864  -21.3964  -14.2922 C   0  0  0  0  0  0  0  0  0  0  0  0
   22.2230  -20.9164  -13.7070 C   0  0  0  0  0  0  0  0  0  0  0  0
   30.8072  -26.1639  -17.5584 N   0  0  0  0  0  0  0  0  0  0  0  0
   30.3083  -25.5210  -16.3761 C   0  0  0  0  0  0  0  0  0  0  0  0
   31.1324  -24.8026  -15.7423 O   0  0  0  0  0  0  0  0  0  0  0  0
   28.8977  -25.7024  -15.9382 C   0  0  0  0  0  0  0  0  0  0  0  0
   28.2230  -26.5862  -16.9538 C   0  0  0  0  0  0  0  0  0  0  0  0
   27.4496  -25.8118  -17.9876 C   0  0  2  0  0  0  0  0  0  0  0  0
   26.1739  -25.4100  -17.4731 N   0  0  0  0  0  0  0  0  0  0  0  0
   27.3288  -26.5589  -19.2723 C   0  0  0  0  0  0  0  0  0  0  0  0
   26.2939  -27.2158  -19.4760 O   0  0  0  0  0  0  0  0  0  0  0  0
   28.5520  -25.0815  -22.7955 C   0  0  0  0  0  0  0  0  0  0  0  0
   28.9363  -26.5270  -22.6258 C   0  0  2  0  0  0  0  0  0  0  0  0
   28.6079  -27.2354  -23.9232 C   0  0  0  0  0  0  0  0  0  0  0  0
   28.1987  -27.2080  -21.5133 C   0  0  2  0  0  0  0  0  0  0  0  0
   28.3613  -26.5282  -20.2442 N   0  0  0  0  0  0  0  0  0  0  0  0
   28.7287  -28.5895  -21.3810 C   0  0  0  0  0  0  0  0  0  0  0  0
   29.8243  -28.8912  -20.5842 O   0  0  0  0  0  0  0  0  0  0  0  0
   28.1957  -29.5535  -21.9960 O   0  0  0  0  0  0  0  0  0  0  0  0
  2  1  1  0
  2  3  2  0
  4  3  1  0
  5  4  2  0
  6  5  1  0
  7  6  1  0
  7  8  1  1
  9  7  1  0
  9 10  2  0
 11 12  2  0
 11  5  1  0
 12  2  1  0
 14 16  1  0
 14 13  1  0
 15 14  2  0
 18 17  1  1
 17 16  1  0
 18 19  1  0
 19  9  1  0
 20 18  1  0
 21 20  2  0
 23 22  1  6
 23 25  1  0
 24 23  1  0
 25 26  1  1
 26 20  1  0
 27 25  1  0
 27 28  1  0
 29 27  2  0
M  END
$$$$
