YQV.pdb
     RDKit          3D

 29 29  0  0  1  0  0  0  0  0999 V2000
   24.6504  -21.6187  -18.4011 O   0  0  0  0  0  0  0  0  0  0  0  0
   25.4015  -22.7791  -18.3450 C   0  0  0  0  0  0  0  0  0  0  0  0
   26.6419  -22.8472  -18.9885 C   0  0  0  0  0  0  0  0  0  0  0  0
   27.3507  -24.0256  -18.9023 C   0  0  0  0  0  0  0  0  0  0  0  0
   26.8642  -25.1065  -18.2087 C   0  0  0  0  0  0  0  0  0  0  0  0
   27.6457  -26.3368  -18.1411 C   0  0  0  0  0  0  0  0  0  0  0  0
   27.9068  -26.8158  -16.7416 C   0  0  2  0  0  0  0  0  0  0  0  0
   28.8050  -25.8594  -16.1063 N   0  0  0  0  0  0  0  0  0  0  0  0
   28.6180  -28.1141  -16.8257 C   0  0  0  0  0  0  0  0  0  0  0  0
   29.8666  -28.1147  -16.7026 O   0  0  0  0  0  0  0  0  0  0  0  0
   25.6394  -25.0082  -17.5856 C   0  0  0  0  0  0  0  0  0  0  0  0
   24.8884  -23.8424  -17.6440 C   0  0  0  0  0  0  0  0  0  0  0  0
   26.7628  -33.0363  -14.0882 N   0  0  0  0  0  0  0  0  0  0  0  0
   27.9749  -33.5510  -14.6591 C   0  0  0  0  0  0  0  0  0  0  0  0
   28.3402  -34.6917  -14.2564 O   0  0  0  0  0  0  0  0  0  0  0  0
   28.7434  -32.7706  -15.6665 C   0  0  0  0  0  0  0  0  0  0  0  0
   27.9891  -31.4906  -15.9127 C   0  0  0  0  0  0  0  0  0  0  0  0
   28.6845  -30.5745  -16.8841 C   0  0  2  0  0  0  0  0  0  0  0  0
   27.9570  -29.3493  -17.0377 N   0  0  0  0  0  0  0  0  0  0  0  0
   28.9479  -31.2408  -18.1917 C   0  0  0  0  0  0  0  0  0  0  0  0
   28.0381  -31.2567  -19.0379 O   0  0  0  0  0  0  0  0  0  0  0  0
   32.8604  -32.7382  -19.1238 C   0  0  0  0  0  0  0  0  0  0  0  0
   31.8882  -32.3058  -20.1885 C   0  0  2  0  0  0  0  0  0  0  0  0
   32.1669  -30.8476  -20.4872 C   0  0  0  0  0  0  0  0  0  0  0  0
   30.4555  -32.4391  -19.7701 C   0  0  2  0  0  0  0  0  0  0  0  0
   30.2001  -31.8441  -18.4740 N   0  0  0  0  0  0  0  0  0  0  0  0
   30.1239  -33.8855  -19.7000 C   0  0  0  0  0  0  0  0  0  0  0  0
   29.9891  -34.6721  -20.8355 O   0  0  0  0  0  0  0  0  0  0  0  0
   29.9501  -34.4610  -18.5909 O   0  0  0  0  0  0  0  0  0  0  0  0
  2  1  1  0
  2  3  2  0
  4  3  1  0
  5  4  2  0
  6  5  1  0
  7  6  1  0
  7  8  1  1
  9  7  1  0
  9 10  2  0
 11 12  2  0
 11  5  1  0
 12  2  1  0
 14 16  1  0
 14 13  1  0
 15 14  2  0
 18 17  1  1
 17 16  1  0
 18 19  1  0
 19  9  1  0
 20 18  1  0
 21 20  2  0
 23 22  1  1
 23 25  1  0
 24 23  1  0
 25 26  1  1
 26 20  1  0
 27 25  1  0
 27 28  1  0
 29 27  2  0
M  END
$$$$
