YQV.pdb
     RDKit          3D

 29 29  0  0  1  0  0  0  0  0999 V2000
   28.3582  -19.2889   -3.2035 O   0  0  0  0  0  0  0  0  0  0  0  0
   27.9853  -19.5957   -4.4998 C   0  0  0  0  0  0  0  0  0  0  0  0
   27.7577  -20.9251   -4.8715 C   0  0  0  0  0  0  0  0  0  0  0  0
   27.3882  -21.1775   -6.1747 C   0  0  0  0  0  0  0  0  0  0  0  0
   27.2447  -20.1628   -7.0892 C   0  0  0  0  0  0  0  0  0  0  0  0
   26.8518  -20.4718   -8.4600 C   0  0  0  0  0  0  0  0  0  0  0  0
   25.3654  -20.5099   -8.6732 C   0  0  2  0  0  0  0  0  0  0  0  0
   24.8388  -21.6419   -7.9206 N   0  0  0  0  0  0  0  0  0  0  0  0
   25.1142  -20.7692  -10.1113 C   0  0  0  0  0  0  0  0  0  0  0  0
   24.6718  -21.8959  -10.4416 O   0  0  0  0  0  0  0  0  0  0  0  0
   27.4760  -18.8640   -6.6924 C   0  0  0  0  0  0  0  0  0  0  0  0
   27.8500  -18.5598   -5.3909 C   0  0  0  0  0  0  0  0  0  0  0  0
   22.1159  -20.9993  -14.2311 N   0  0  0  0  0  0  0  0  0  0  0  0
   21.9587  -21.6802  -12.9775 C   0  0  0  0  0  0  0  0  0  0  0  0
   21.3422  -22.7827  -13.0154 O   0  0  0  0  0  0  0  0  0  0  0  0
   22.4980  -21.1044  -11.7157 C   0  0  0  0  0  0  0  0  0  0  0  0
   23.1169  -19.7749  -12.0581 C   0  0  0  0  0  0  0  0  0  0  0  0
   24.5925  -19.8675  -12.3419 C   0  0  2  0  0  0  0  0  0  0  0  0
   25.3490  -19.8088  -11.1262 N   0  0  0  0  0  0  0  0  0  0  0  0
   25.0375  -18.8452  -13.3320 C   0  0  0  0  0  0  0  0  0  0  0  0
   24.7524  -17.6549  -13.1173 O   0  0  0  0  0  0  0  0  0  0  0  0
   28.0893  -19.8250  -16.1805 C   0  0  0  0  0  0  0  0  0  0  0  0
   27.8387  -18.4709  -15.5727 C   0  0  2  0  0  0  0  0  0  0  0  0
   28.5716  -18.4293  -14.2483 C   0  0  0  0  0  0  0  0  0  0  0  0
   26.3874  -18.1956  -15.3209 C   0  0  2  0  0  0  0  0  0  0  0  0
   25.7677  -19.2095  -14.4920 N   0  0  0  0  0  0  0  0  0  0  0  0
   25.6862  -18.1617  -16.6301 C   0  0  0  0  0  0  0  0  0  0  0  0
   25.9308  -17.1779  -17.5780 O   0  0  0  0  0  0  0  0  0  0  0  0
   24.8305  -19.0376  -16.9337 O   0  0  0  0  0  0  0  0  0  0  0  0
  2  1  1  0
  2  3  2  0
  4  3  1  0
  5  4  2  0
  6  5  1  0
  7  6  1  0
  7  8  1  1
  9  7  1  0
  9 10  2  0
 11 12  2  0
 11  5  1  0
 12  2  1  0
 14 16  1  0
 14 13  1  0
 15 14  2  0
 18 17  1  1
 17 16  1  0
 18 19  1  0
 19  9  1  0
 20 18  1  0
 21 20  2  0
 23 22  1  1
 23 25  1  0
 24 23  1  0
 25 26  1  1
 26 20  1  0
 27 25  1  0
 27 28  1  0
 29 27  2  0
M  END
$$$$
