YQV.pdb
     RDKit          3D

 29 29  0  0  1  0  0  0  0  0999 V2000
   28.4890  -19.2142   -5.3323 O   0  0  0  0  0  0  0  0  0  0  0  0
   28.1126  -19.4858   -6.6354 C   0  0  0  0  0  0  0  0  0  0  0  0
   28.9986  -20.1314   -7.5046 C   0  0  0  0  0  0  0  0  0  0  0  0
   28.5754  -20.3787   -8.7924 C   0  0  0  0  0  0  0  0  0  0  0  0
   27.3243  -20.0073   -9.2203 C   0  0  0  0  0  0  0  0  0  0  0  0
   26.9139  -20.2874  -10.5922 C   0  0  0  0  0  0  0  0  0  0  0  0
   26.2299  -21.6136  -10.7641 C   0  0  2  0  0  0  0  0  0  0  0  0
   27.2114  -22.5532  -11.2920 N   0  0  0  0  0  0  0  0  0  0  0  0
   25.1661  -21.4529  -11.7844 C   0  0  0  0  0  0  0  0  0  0  0  0
   25.3805  -21.8958  -12.9386 O   0  0  0  0  0  0  0  0  0  0  0  0
   26.4748  -19.3732   -8.3405 C   0  0  0  0  0  0  0  0  0  0  0  0
   26.8557  -19.1022   -7.0336 C   0  0  0  0  0  0  0  0  0  0  0  0
   19.2764  -21.3842  -10.1646 N   0  0  0  0  0  0  0  0  0  0  0  0
   19.1435  -21.5093  -11.5882 C   0  0  0  0  0  0  0  0  0  0  0  0
   17.9702  -21.6787  -12.0258 O   0  0  0  0  0  0  0  0  0  0  0  0
   20.3319  -21.4407  -12.4812 C   0  0  0  0  0  0  0  0  0  0  0  0
   21.5297  -21.1593  -11.6129 C   0  0  0  0  0  0  0  0  0  0  0  0
   22.8132  -21.0605  -12.3936 C   0  0  2  0  0  0  0  0  0  0  0  0
   23.9238  -20.8254  -11.5189 N   0  0  0  0  0  0  0  0  0  0  0  0
   22.7294  -20.0456  -13.4827 C   0  0  0  0  0  0  0  0  0  0  0  0
   22.8063  -18.8442  -13.1747 O   0  0  0  0  0  0  0  0  0  0  0  0
   24.8488  -19.9504  -16.7175 C   0  0  0  0  0  0  0  0  0  0  0  0
   23.3900  -19.8115  -17.0616 C   0  0  2  0  0  0  0  0  0  0  0  0
   23.2761  -18.7241  -18.1093 C   0  0  0  0  0  0  0  0  0  0  0  0
   22.5395  -19.4308  -15.8881 C   0  0  2  0  0  0  0  0  0  0  0  0
   22.5664  -20.4291  -14.8384 N   0  0  0  0  0  0  0  0  0  0  0  0
   21.1388  -19.2775  -16.3589 C   0  0  0  0  0  0  0  0  0  0  0  0
   20.1532  -20.2120  -16.0736 O   0  0  0  0  0  0  0  0  0  0  0  0
   20.7877  -18.2786  -17.0449 O   0  0  0  0  0  0  0  0  0  0  0  0
  2  1  1  0
  2  3  2  0
  4  3  1  0
  5  4  2  0
  6  5  1  0
  7  6  1  0
  7  8  1  6
  9  7  1  0
  9 10  2  0
 11 12  2  0
 11  5  1  0
 12  2  1  0
 14 16  1  0
 14 13  1  0
 15 14  2  0
 18 17  1  1
 17 16  1  0
 18 19  1  0
 19  9  1  0
 20 18  1  0
 21 20  2  0
 23 22  1  1
 23 25  1  0
 24 23  1  0
 25 26  1  1
 26 20  1  0
 27 25  1  0
 27 28  1  0
 29 27  2  0
M  END
$$$$
