DFM.pdb
     RDKit          3D

 28 28  0  0  1  0  0  0  0  0999 V2000
   22.6026   -5.1501  -18.5725 N   0  0  0  0  0  0  0  0  0  0  0  0
   21.7916   -5.9416  -17.6976 C   0  0  1  0  0  0  0  0  0  0  0  0
   22.4074   -7.3038  -17.5355 C   0  0  0  0  0  0  0  0  0  0  0  0
   21.6362   -8.2205  -16.6840 C   0  0  0  0  0  0  0  0  0  0  0  0
   20.3872   -8.0780  -16.6594 O   0  0  0  0  0  0  0  0  0  0  0  0
   21.6350   -5.2814  -16.3763 C   0  0  0  0  0  0  0  0  0  0  0  0
   22.5952   -4.8396  -15.7068 O   0  0  0  0  0  0  0  0  0  0  0  0
   22.1524   -9.2337  -15.8990 O   0  0  0  0  0  0  0  0  0  0  0  0
   20.3140   -5.1447  -15.8343 N   0  0  0  0  0  0  0  0  0  0  0  0
   20.0892   -4.5395  -14.5385 C   0  0  1  0  0  0  0  0  0  0  0  0
   18.9309   -3.5925  -14.6241 C   0  0  0  0  0  0  0  0  0  0  0  0
   17.7146   -4.1050  -15.2409 C   0  0  0  0  0  0  0  0  0  0  0  0
   17.4866   -4.0467  -16.5828 C   0  0  0  0  0  0  0  0  0  0  0  0
   16.3022   -4.5209  -17.1581 C   0  0  0  0  0  0  0  0  0  0  0  0
   15.3266   -5.0675  -16.3481 C   0  0  0  0  0  0  0  0  0  0  0  0
   15.5398   -5.1358  -14.9814 C   0  0  0  0  0  0  0  0  0  0  0  0
   16.7352   -4.6528  -14.4386 C   0  0  0  0  0  0  0  0  0  0  0  0
   19.6709   -5.6620  -13.6167 C   0  0  0  0  0  0  0  0  0  0  0  0
   19.5940   -6.8168  -14.0844 O   0  0  0  0  0  0  0  0  0  0  0  0
   22.9772   -8.2215   -9.9057 C   0  0  0  0  0  0  0  0  0  0  0  0
   21.5299   -9.2947   -9.9044 S   0  0  0  0  0  0  0  0  0  0  0  0
   20.0463   -8.2917  -10.0787 C   0  0  0  0  0  0  0  0  0  0  0  0
   20.2897   -7.2865  -11.1790 C   0  0  0  0  0  0  0  0  0  0  0  0
   19.0604   -6.4086  -11.2936 C   0  0  2  0  0  0  0  0  0  0  0  0
   19.3871   -5.3728  -12.2856 N   0  0  0  0  0  0  0  0  0  0  0  0
   18.6930   -5.7606  -10.0250 C   0  0  0  0  0  0  0  0  0  0  0  0
   18.8648   -4.4004   -9.8481 O   0  0  0  0  0  0  0  0  0  0  0  0
   18.2164   -6.4379   -9.0824 O   0  0  0  0  0  0  0  0  0  0  0  0
  2  1  1  6
  2  6  1  0
  3  2  1  0
  4  3  1  0
  4  8  1  0
  5  4  2  0
  6  7  2  0
  6  9  1  0
  9 10  1  0
 10 11  1  6
 11 12  1  0
 12 17  2  0
 13 12  1  0
 13 14  2  0
 14 15  1  0
 15 16  2  0
 17 16  1  0
 18 10  1  0
 18 19  2  0
 20 21  1  0
 21 22  1  0
 24 23  1  1
 23 22  1  0
 24 25  1  0
 25 18  1  0
 26 24  1  0
 27 26  1  0
 28 26  2  0
M  END
$$$$
