DFM.pdb
     RDKit          3D

 28 28  0  0  1  0  0  0  0  0999 V2000
   23.1864   -8.9759  -19.8969 N   0  0  0  0  0  0  0  0  0  0  0  0
   22.1443   -9.6955  -19.2292 C   0  0  1  0  0  0  0  0  0  0  0  0
   22.6711  -11.0227  -18.7581 C   0  0  0  0  0  0  0  0  0  0  0  0
   23.0296  -11.9513  -19.8395 C   0  0  0  0  0  0  0  0  0  0  0  0
   22.6733  -11.6488  -21.0067 O   0  0  0  0  0  0  0  0  0  0  0  0
   21.6073   -8.9140  -18.0859 C   0  0  0  0  0  0  0  0  0  0  0  0
   20.6842   -9.3193  -17.3450 O   0  0  0  0  0  0  0  0  0  0  0  0
   23.7258  -13.1367  -19.6997 O   0  0  0  0  0  0  0  0  0  0  0  0
   22.1726   -7.6236  -17.8162 N   0  0  0  0  0  0  0  0  0  0  0  0
   21.7494   -6.8378  -16.6763 C   0  0  1  0  0  0  0  0  0  0  0  0
   22.9077   -6.6447  -15.7453 C   0  0  0  0  0  0  0  0  0  0  0  0
   23.3257   -7.8088  -14.9753 C   0  0  0  0  0  0  0  0  0  0  0  0
   24.4427   -8.5292  -15.2745 C   0  0  0  0  0  0  0  0  0  0  0  0
   24.8180   -9.6602  -14.5406 C   0  0  0  0  0  0  0  0  0  0  0  0
   24.0376  -10.0676  -13.4768 C   0  0  0  0  0  0  0  0  0  0  0  0
   22.8982   -9.3483  -13.1568 C   0  0  0  0  0  0  0  0  0  0  0  0
   22.5516   -8.2222  -13.9109 C   0  0  0  0  0  0  0  0  0  0  0  0
   21.3885   -5.4731  -17.2166 C   0  0  0  0  0  0  0  0  0  0  0  0
   22.1426   -4.9516  -18.0636 O   0  0  0  0  0  0  0  0  0  0  0  0
   16.1978   -3.9728  -20.0908 C   0  0  0  0  0  0  0  0  0  0  0  0
   16.1886   -2.6485  -18.8692 S   0  0  0  0  0  0  0  0  0  0  0  0
   17.8585   -2.4037  -18.2456 C   0  0  0  0  0  0  0  0  0  0  0  0
   18.3722   -3.7355  -17.7531 C   0  0  0  0  0  0  0  0  0  0  0  0
   19.7852   -3.5351  -17.2448 C   0  0  2  0  0  0  0  0  0  0  0  0
   20.2348   -4.8472  -16.7548 N   0  0  0  0  0  0  0  0  0  0  0  0
   19.8718   -2.5573  -16.1493 C   0  0  0  0  0  0  0  0  0  0  0  0
   20.2908   -1.2615  -16.3871 O   0  0  0  0  0  0  0  0  0  0  0  0
   19.5647   -2.8885  -14.9787 O   0  0  0  0  0  0  0  0  0  0  0  0
  2  1  1  1
  2  6  1  0
  3  2  1  0
  4  3  1  0
  4  8  1  0
  5  4  2  0
  6  7  2  0
  6  9  1  0
  9 10  1  0
 10 11  1  1
 11 12  1  0
 12 17  2  0
 13 12  1  0
 13 14  2  0
 14 15  1  0
 15 16  2  0
 17 16  1  0
 18 10  1  0
 18 19  2  0
 20 21  1  0
 21 22  1  0
 24 23  1  1
 23 22  1  0
 24 25  1  0
 25 18  1  0
 26 24  1  0
 27 26  1  0
 28 26  2  0
M  END
$$$$
