DFM.pdb
     RDKit          3D

 28 28  0  0  1  0  0  0  0  0999 V2000
   20.4726   -9.6837  -14.6317 N   0  0  0  0  0  0  0  0  0  0  0  0
   19.4247   -8.7541  -14.3360 C   0  0  1  0  0  0  0  0  0  0  0  0
   18.1464   -9.2153  -14.9798 C   0  0  0  0  0  0  0  0  0  0  0  0
   18.1634   -9.1882  -16.4493 C   0  0  0  0  0  0  0  0  0  0  0  0
   17.7931  -10.2267  -17.0536 O   0  0  0  0  0  0  0  0  0  0  0  0
   19.2439   -8.6063  -12.8691 C   0  0  0  0  0  0  0  0  0  0  0  0
   19.3391   -9.5576  -12.0621 O   0  0  0  0  0  0  0  0  0  0  0  0
   18.5504   -8.1240  -17.2412 O   0  0  0  0  0  0  0  0  0  0  0  0
   18.9401   -7.3053  -12.3469 N   0  0  0  0  0  0  0  0  0  0  0  0
   18.8522   -7.0661  -10.9218 C   0  0  1  0  0  0  0  0  0  0  0  0
   19.9013   -6.0759  -10.5162 C   0  0  0  0  0  0  0  0  0  0  0  0
   20.3372   -5.1333  -11.5381 C   0  0  0  0  0  0  0  0  0  0  0  0
   21.2928   -5.4352  -12.4611 C   0  0  0  0  0  0  0  0  0  0  0  0
   21.7190   -4.5106  -13.4213 C   0  0  0  0  0  0  0  0  0  0  0  0
   21.1591   -3.2486  -13.4425 C   0  0  0  0  0  0  0  0  0  0  0  0
   20.1860   -2.9226  -12.5125 C   0  0  0  0  0  0  0  0  0  0  0  0
   19.7826   -3.8705  -11.5662 C   0  0  0  0  0  0  0  0  0  0  0  0
   17.5125   -6.4066  -10.6877 C   0  0  0  0  0  0  0  0  0  0  0  0
   17.0602   -5.6510  -11.5723 O   0  0  0  0  0  0  0  0  0  0  0  0
   11.0798   -7.2427   -6.3125 C   0  0  0  0  0  0  0  0  0  0  0  0
   12.7049   -7.8405   -6.8107 S   0  0  0  0  0  0  0  0  0  0  0  0
   13.4741   -6.6324   -7.8999 C   0  0  0  0  0  0  0  0  0  0  0  0
   14.8709   -7.1117   -8.2153 C   0  0  0  0  0  0  0  0  0  0  0  0
   15.4722   -6.1675   -9.2361 C   0  0  2  0  0  0  0  0  0  0  0  0
   16.8319   -6.6620   -9.5012 N   0  0  0  0  0  0  0  0  0  0  0  0
   15.5502   -4.7773   -8.7616 C   0  0  0  0  0  0  0  0  0  0  0  0
   16.6721   -4.3165   -8.0984 O   0  0  0  0  0  0  0  0  0  0  0  0
   14.5942   -3.9877   -8.9540 O   0  0  0  0  0  0  0  0  0  0  0  0
  2  1  1  1
  2  6  1  0
  3  2  1  0
  4  3  1  0
  4  8  1  0
  5  4  2  0
  6  7  2  0
  6  9  1  0
  9 10  1  0
 10 11  1  6
 11 12  1  0
 12 17  2  0
 13 12  1  0
 13 14  2  0
 14 15  1  0
 15 16  2  0
 17 16  1  0
 18 10  1  0
 18 19  2  0
 20 21  1  0
 21 22  1  0
 24 23  1  1
 23 22  1  0
 24 25  1  0
 25 18  1  0
 26 24  1  0
 27 26  1  0
 28 26  2  0
M  END
$$$$
