DFM.pdb
     RDKit          3D

 28 28  0  0  1  0  0  0  0  0999 V2000
   27.0097  -20.1691  -16.0769 N   0  0  0  0  0  0  0  0  0  0  0  0
   26.6951  -21.5640  -16.0077 C   0  0  1  0  0  0  0  0  0  0  0  0
   27.9627  -22.3699  -16.0774 C   0  0  0  0  0  0  0  0  0  0  0  0
   28.7607  -22.1411  -17.2903 C   0  0  0  0  0  0  0  0  0  0  0  0
   30.0123  -22.1377  -17.1700 O   0  0  0  0  0  0  0  0  0  0  0  0
   25.9469  -21.8788  -14.7637 C   0  0  0  0  0  0  0  0  0  0  0  0
   25.6966  -23.0446  -14.3846 O   0  0  0  0  0  0  0  0  0  0  0  0
   28.2674  -21.9265  -18.5631 O   0  0  0  0  0  0  0  0  0  0  0  0
   25.4818  -20.7904  -13.9535 N   0  0  0  0  0  0  0  0  0  0  0  0
   24.7570  -21.0227  -12.7219 C   0  0  1  0  0  0  0  0  0  0  0  0
   25.1143  -19.9626  -11.7248 C   0  0  0  0  0  0  0  0  0  0  0  0
   25.9611  -20.3733  -10.6126 C   0  0  0  0  0  0  0  0  0  0  0  0
   25.6011  -20.2044   -9.3095 C   0  0  0  0  0  0  0  0  0  0  0  0
   26.4361  -20.5814   -8.2515 C   0  0  0  0  0  0  0  0  0  0  0  0
   27.6668  -21.1437   -8.5266 C   0  0  0  0  0  0  0  0  0  0  0  0
   28.0508  -21.3238   -9.8450 C   0  0  0  0  0  0  0  0  0  0  0  0
   27.1921  -20.9360  -10.8790 C   0  0  0  0  0  0  0  0  0  0  0  0
   23.2940  -20.8380  -13.0535 C   0  0  0  0  0  0  0  0  0  0  0  0
   22.9124  -19.7184  -13.4521 O   0  0  0  0  0  0  0  0  0  0  0  0
   19.5087  -25.9650  -13.6300 C   0  0  0  0  0  0  0  0  0  0  0  0
   18.2741  -24.8135  -13.0005 S   0  0  0  0  0  0  0  0  0  0  0  0
   18.9179  -23.1366  -13.1046 C   0  0  0  0  0  0  0  0  0  0  0  0
   20.4110  -23.1960  -12.8867 C   0  0  0  0  0  0  0  0  0  0  0  0
   20.9723  -21.8050  -13.0984 C   0  0  2  0  0  0  0  0  0  0  0  0
   22.4262  -21.9154  -12.9044 N   0  0  0  0  0  0  0  0  0  0  0  0
   20.4348  -20.8149  -12.1525 C   0  0  0  0  0  0  0  0  0  0  0  0
   20.8616  -20.7860  -10.8379 O   0  0  0  0  0  0  0  0  0  0  0  0
   19.5777  -19.9794  -12.5288 O   0  0  0  0  0  0  0  0  0  0  0  0
  2  1  1  1
  2  6  1  0
  3  2  1  0
  4  3  1  0
  4  8  1  0
  5  4  2  0
  6  7  2  0
  6  9  1  0
  9 10  1  0
 10 11  1  1
 11 12  1  0
 12 17  2  0
 13 12  1  0
 13 14  2  0
 14 15  1  0
 15 16  2  0
 17 16  1  0
 18 10  1  0
 18 19  2  0
 20 21  1  0
 21 22  1  0
 24 23  1  1
 23 22  1  0
 24 25  1  0
 25 18  1  0
 26 24  1  0
 27 26  1  0
 28 26  2  0
M  END
$$$$
