DFM.pdb
     RDKit          3D

 28 28  0  0  1  0  0  0  0  0999 V2000
   28.0784  -21.9192  -17.6726 N   0  0  0  0  0  0  0  0  0  0  0  0
   27.9201  -20.8562  -16.7267 C   0  0  1  0  0  0  0  0  0  0  0  0
   27.2702  -19.6779  -17.3978 C   0  0  0  0  0  0  0  0  0  0  0  0
   28.0599  -19.0900  -18.4891 C   0  0  0  0  0  0  0  0  0  0  0  0
   29.2832  -18.8899  -18.2782 O   0  0  0  0  0  0  0  0  0  0  0  0
   27.1148  -21.2990  -15.5598 C   0  0  0  0  0  0  0  0  0  0  0  0
   26.1723  -22.1178  -15.6418 O   0  0  0  0  0  0  0  0  0  0  0  0
   27.5869  -18.7307  -19.7367 O   0  0  0  0  0  0  0  0  0  0  0  0
   27.4295  -20.7583  -14.2691 N   0  0  0  0  0  0  0  0  0  0  0  0
   26.6157  -21.0535  -13.1087 C   0  0  1  0  0  0  0  0  0  0  0  0
   27.3012  -20.5466  -11.8762 C   0  0  0  0  0  0  0  0  0  0  0  0
   26.5256  -20.5702  -10.6431 C   0  0  0  0  0  0  0  0  0  0  0  0
   25.8458  -21.6724  -10.2198 C   0  0  0  0  0  0  0  0  0  0  0  0
   25.0846  -21.6722   -9.0454 C   0  0  0  0  0  0  0  0  0  0  0  0
   25.0137  -20.5227   -8.2837 C   0  0  0  0  0  0  0  0  0  0  0  0
   25.6980  -19.3919   -8.6972 C   0  0  0  0  0  0  0  0  0  0  0  0
   26.4500  -19.4259   -9.8763 C   0  0  0  0  0  0  0  0  0  0  0  0
   25.3472  -20.2472  -13.2682 C   0  0  0  0  0  0  0  0  0  0  0  0
   25.4397  -19.0672  -13.6645 O   0  0  0  0  0  0  0  0  0  0  0  0
   19.2922  -18.4062  -16.7509 C   0  0  0  0  0  0  0  0  0  0  0  0
   20.8323  -19.3073  -16.5003 S   0  0  0  0  0  0  0  0  0  0  0  0
   21.2136  -19.3547  -14.7425 C   0  0  0  0  0  0  0  0  0  0  0  0
   22.5387  -20.0583  -14.5717 C   0  0  0  0  0  0  0  0  0  0  0  0
   22.8406  -20.1380  -13.0893 C   0  0  2  0  0  0  0  0  0  0  0  0
   24.1258  -20.8433  -12.9698 N   0  0  0  0  0  0  0  0  0  0  0  0
   21.8168  -20.8723  -12.3299 C   0  0  0  0  0  0  0  0  0  0  0  0
   20.8155  -20.1988  -11.6556 O   0  0  0  0  0  0  0  0  0  0  0  0
   21.8394  -22.1260  -12.2845 O   0  0  0  0  0  0  0  0  0  0  0  0
  2  1  1  6
  2  6  1  0
  3  2  1  0
  4  3  1  0
  4  8  1  0
  5  4  2  0
  6  7  2  0
  6  9  1  0
  9 10  1  0
 10 11  1  1
 11 12  1  0
 12 17  2  0
 13 12  1  0
 13 14  2  0
 14 15  1  0
 15 16  2  0
 17 16  1  0
 18 10  1  0
 18 19  2  0
 20 21  1  0
 21 22  1  0
 24 23  1  6
 23 22  1  0
 24 25  1  0
 25 18  1  0
 26 24  1  0
 27 26  1  0
 28 26  2  0
M  END
$$$$
