DFM.pdb
     RDKit          3D

 28 28  0  0  1  0  0  0  0  0999 V2000
   27.5029  -22.9208  -16.8172 N   0  0  0  0  0  0  0  0  0  0  0  0
   27.4116  -21.6570  -16.1509 C   0  0  1  0  0  0  0  0  0  0  0  0
   26.5241  -20.7348  -16.9403 C   0  0  0  0  0  0  0  0  0  0  0  0
   27.0723  -20.3341  -18.2438 C   0  0  0  0  0  0  0  0  0  0  0  0
   26.3183  -20.4301  -19.2453 O   0  0  0  0  0  0  0  0  0  0  0  0
   26.8923  -21.8213  -14.7690 C   0  0  0  0  0  0  0  0  0  0  0  0
   25.9769  -22.6184  -14.4653 O   0  0  0  0  0  0  0  0  0  0  0  0
   28.3476  -19.8580  -18.4809 O   0  0  0  0  0  0  0  0  0  0  0  0
   27.4661  -21.0223  -13.7251 N   0  0  0  0  0  0  0  0  0  0  0  0
   27.0058  -21.1256  -12.3564 C   0  0  1  0  0  0  0  0  0  0  0  0
   27.9140  -20.3361  -11.4633 C   0  0  0  0  0  0  0  0  0  0  0  0
   27.5190  -20.2267  -10.0652 C   0  0  0  0  0  0  0  0  0  0  0  0
   26.4958  -19.4299   -9.6476 C   0  0  0  0  0  0  0  0  0  0  0  0
   26.1439  -19.3161   -8.2979 C   0  0  0  0  0  0  0  0  0  0  0  0
   26.8503  -20.0304   -7.3506 C   0  0  0  0  0  0  0  0  0  0  0  0
   27.8938  -20.8460   -7.7553 C   0  0  0  0  0  0  0  0  0  0  0  0
   28.2196  -20.9373   -9.1127 C   0  0  0  0  0  0  0  0  0  0  0  0
   25.6542  -20.4504  -12.3149 C   0  0  0  0  0  0  0  0  0  0  0  0
   25.5658  -19.2734  -12.7212 O   0  0  0  0  0  0  0  0  0  0  0  0
   21.2231  -22.7684  -15.1438 C   0  0  0  0  0  0  0  0  0  0  0  0
   20.0680  -21.9333  -14.0415 S   0  0  0  0  0  0  0  0  0  0  0  0
   20.9897  -20.9467  -12.8521 C   0  0  0  0  0  0  0  0  0  0  0  0
   22.4152  -21.4445  -12.8384 C   0  0  0  0  0  0  0  0  0  0  0  0
   23.1913  -20.6194  -11.8325 C   0  0  2  0  0  0  0  0  0  0  0  0
   24.5598  -21.1586  -11.8282 N   0  0  0  0  0  0  0  0  0  0  0  0
   22.6390  -20.6987  -10.4713 C   0  0  0  0  0  0  0  0  0  0  0  0
   21.5080  -19.9846  -10.1225 O   0  0  0  0  0  0  0  0  0  0  0  0
   23.1905  -21.4196   -9.6049 O   0  0  0  0  0  0  0  0  0  0  0  0
  2  1  1  6
  2  6  1  0
  3  2  1  0
  4  3  1  0
  4  8  1  0
  5  4  2  0
  6  7  2  0
  6  9  1  0
  9 10  1  0
 10 11  1  1
 11 12  1  0
 12 17  2  0
 13 12  1  0
 13 14  2  0
 14 15  1  0
 15 16  2  0
 17 16  1  0
 18 10  1  0
 18 19  2  0
 20 21  1  0
 21 22  1  0
 24 23  1  6
 23 22  1  0
 24 25  1  0
 25 18  1  0
 26 24  1  0
 27 26  1  0
 28 26  2  0
M  END
$$$$
