DFM.pdb
     RDKit          3D

 28 28  0  0  1  0  0  0  0  0999 V2000
   39.2304  -33.8540  -18.8584 N   0  0  0  0  0  0  0  0  0  0  0  0
   38.1050  -34.6029  -18.3870 C   0  0  1  0  0  0  0  0  0  0  0  0
   37.8307  -35.7444  -19.3266 C   0  0  0  0  0  0  0  0  0  0  0  0
   37.3763  -35.3341  -20.6628 C   0  0  0  0  0  0  0  0  0  0  0  0
   38.1488  -35.5510  -21.6309 O   0  0  0  0  0  0  0  0  0  0  0  0
   38.3420  -35.1082  -17.0105 C   0  0  0  0  0  0  0  0  0  0  0  0
   39.4045  -35.6629  -16.6518 O   0  0  0  0  0  0  0  0  0  0  0  0
   36.1723  -34.7269  -20.9644 O   0  0  0  0  0  0  0  0  0  0  0  0
   37.2975  -34.9571  -16.0391 N   0  0  0  0  0  0  0  0  0  0  0  0
   37.4415  -35.4655  -14.6913 C   0  0  1  0  0  0  0  0  0  0  0  0
   37.2647  -34.3440  -13.7131 C   0  0  0  0  0  0  0  0  0  0  0  0
   37.1684  -34.7148  -12.3074 C   0  0  0  0  0  0  0  0  0  0  0  0
   38.1924  -35.3025  -11.6274 C   0  0  0  0  0  0  0  0  0  0  0  0
   38.0765  -35.6757  -10.2836 C   0  0  0  0  0  0  0  0  0  0  0  0
   36.8899  -35.4453   -9.6160 C   0  0  0  0  0  0  0  0  0  0  0  0
   35.8373  -34.8488  -10.2900 C   0  0  0  0  0  0  0  0  0  0  0  0
   35.9865  -34.4878  -11.6333 C   0  0  0  0  0  0  0  0  0  0  0  0
   36.2899  -36.4206  -14.4766 C   0  0  0  0  0  0  0  0  0  0  0  0
   35.1286  -36.0007  -14.6586 O   0  0  0  0  0  0  0  0  0  0  0  0
   34.6294  -41.4066  -18.4149 C   0  0  0  0  0  0  0  0  0  0  0  0
   35.4718  -41.4421  -16.8225 S   0  0  0  0  0  0  0  0  0  0  0  0
   35.1876  -39.8859  -15.9652 C   0  0  0  0  0  0  0  0  0  0  0  0
   35.8895  -39.9541  -14.6300 C   0  0  0  0  0  0  0  0  0  0  0  0
   35.5065  -38.7231  -13.8345 C   0  0  2  0  0  0  0  0  0  0  0  0
   36.5606  -37.7282  -14.0854 N   0  0  0  0  0  0  0  0  0  0  0  0
   35.4175  -38.9747  -12.3878 C   0  0  0  0  0  0  0  0  0  0  0  0
   34.1921  -39.1537  -11.7736 O   0  0  0  0  0  0  0  0  0  0  0  0
   36.4583  -39.0304  -11.6893 O   0  0  0  0  0  0  0  0  0  0  0  0
  2  1  1  6
  2  6  1  0
  3  2  1  0
  4  3  1  0
  4  8  1  0
  5  4  2  0
  6  7  2  0
  6  9  1  0
  9 10  1  0
 10 11  1  1
 11 12  1  0
 12 17  2  0
 13 12  1  0
 13 14  2  0
 14 15  1  0
 15 16  2  0
 17 16  1  0
 18 10  1  0
 18 19  2  0
 20 21  1  0
 21 22  1  0
 24 23  1  6
 23 22  1  0
 24 25  1  0
 25 18  1  0
 26 24  1  0
 27 26  1  0
 28 26  2  0
M  END
$$$$
