MHA.pdb
     RDKit          3D

 24 24  0  0  1  0  0  0  0  0999 V2000
   27.8783  -11.9350  -14.8362 C   0  0  0  0  0  0  0  0  0  0  0  0
   27.3084  -13.2056  -16.0009 S   0  0  0  0  0  0  0  0  0  0  0  0
   27.0615  -12.4142  -17.6065 C   0  0  0  0  0  0  0  0  0  0  0  0
   25.9430  -11.4282  -17.6021 C   0  0  0  0  0  0  0  0  0  0  0  0
   24.5802  -12.0215  -17.3478 C   0  0  2  0  0  0  0  0  0  0  0  0
   24.3196  -12.9273  -18.4503 N   0  0  0  0  0  0  0  0  0  0  0  0
   23.5572  -10.9544  -17.2585 C   0  0  0  0  0  0  0  0  0  0  0  0
   23.0302  -10.5004  -18.2975 O   0  0  0  0  0  0  0  0  0  0  0  0
   23.1517  -10.4218  -15.9777 N   0  0  0  0  0  0  0  0  0  0  0  0
   22.0836   -9.4623  -15.8906 C   0  0  1  0  0  0  0  0  0  0  0  0
   20.8479   -9.9267  -15.2213 C   0  0  0  0  0  0  0  0  0  0  0  0
   20.1150  -11.0182  -15.8425 C   0  0  0  0  0  0  0  0  0  0  0  0
   20.3001  -11.7582  -16.9737 C   0  0  0  0  0  0  0  0  0  0  0  0
   19.3194  -12.6848  -17.0940 N   0  0  0  0  0  0  0  0  0  0  0  0
   18.5354  -12.5062  -16.0302 C   0  0  0  0  0  0  0  0  0  0  0  0
   18.9826  -11.5213  -15.2657 N   0  0  0  0  0  0  0  0  0  0  0  0
   22.6296   -8.2062  -15.3108 C   0  0  0  0  0  0  0  0  0  0  0  0
   23.4021   -8.2297  -14.3020 O   0  0  0  0  0  0  0  0  0  0  0  0
   22.5596   -4.5330  -16.1585 C   0  0  0  0  0  0  0  0  0  0  0  0
   22.8589   -5.6963  -15.2105 C   0  0  2  0  0  0  0  0  0  0  0  0
   22.3335   -6.9158  -15.8318 N   0  0  0  0  0  0  0  0  0  0  0  0
   22.2188   -5.4207  -13.9218 C   0  0  0  0  0  0  0  0  0  0  0  0
   22.7739   -4.5931  -12.9603 O   0  0  0  0  0  0  0  0  0  0  0  0
   21.1140   -5.9572  -13.6710 O   0  0  0  0  0  0  0  0  0  0  0  0
  2  1  1  0
  3  2  1  0
  4  5  1  0
  4  3  1  0
  5  7  1  0
  5  6  1  6
  7  8  2  0
  9  7  1  0
  9 10  1  0
 10 17  1  0
 10 11  1  1
 12 11  1  0
 12 16  1  0
 13 14  1  0
 13 12  2  0
 14 15  1  0
 15 16  2  0
 17 18  2  0
 20 19  1  6
 21 20  1  0
 21 17  1  0
 22 23  1  0
 22 20  1  0
 24 22  2  0
M  END
$$$$
