MHA.pdb
     RDKit          3D

 24 24  0  0  1  0  0  0  0  0999 V2000
   19.1104  -26.8042  -12.1312 C   0  0  0  0  0  0  0  0  0  0  0  0
   18.5380  -26.4793  -10.4393 S   0  0  0  0  0  0  0  0  0  0  0  0
   18.9192  -24.7571  -10.0470 C   0  0  0  0  0  0  0  0  0  0  0  0
   18.3635  -24.3242   -8.7329 C   0  0  0  0  0  0  0  0  0  0  0  0
   16.8659  -24.1498   -8.7078 C   0  0  2  0  0  0  0  0  0  0  0  0
   16.5799  -22.9798   -9.5161 N   0  0  0  0  0  0  0  0  0  0  0  0
   16.3845  -23.9889   -7.3166 C   0  0  0  0  0  0  0  0  0  0  0  0
   16.6588  -22.9530   -6.6724 O   0  0  0  0  0  0  0  0  0  0  0  0
   15.5942  -25.0191   -6.6821 N   0  0  0  0  0  0  0  0  0  0  0  0
   15.1421  -24.8616   -5.3256 C   0  0  1  0  0  0  0  0  0  0  0  0
   13.6755  -24.8615   -5.1268 C   0  0  0  0  0  0  0  0  0  0  0  0
   13.0200  -23.5757   -4.9499 C   0  0  0  0  0  0  0  0  0  0  0  0
   13.4715  -22.2969   -4.8004 C   0  0  0  0  0  0  0  0  0  0  0  0
   12.4278  -21.4411   -4.6859 N   0  0  0  0  0  0  0  0  0  0  0  0
   11.3374  -22.2045   -4.7667 C   0  0  0  0  0  0  0  0  0  0  0  0
   11.6568  -23.4804   -4.9243 N   0  0  0  0  0  0  0  0  0  0  0  0
   15.8501  -25.8580   -4.4782 C   0  0  0  0  0  0  0  0  0  0  0  0
   16.1127  -27.0226   -4.9138 O   0  0  0  0  0  0  0  0  0  0  0  0
   16.1238  -27.8923   -2.4458 C   0  0  0  0  0  0  0  0  0  0  0  0
   16.9414  -26.6040   -2.3300 C   0  0  2  0  0  0  0  0  0  0  0  0
   16.2755  -25.5859   -3.1481 N   0  0  0  0  0  0  0  0  0  0  0  0
   18.3029  -26.8755   -2.7978 C   0  0  0  0  0  0  0  0  0  0  0  0
   18.8281  -26.3353   -3.9597 O   0  0  0  0  0  0  0  0  0  0  0  0
   19.0338  -27.6331   -2.1173 O   0  0  0  0  0  0  0  0  0  0  0  0
  2  1  1  0
  3  2  1  0
  4  5  1  0
  4  3  1  0
  5  7  1  0
  5  6  1  6
  7  8  2  0
  9  7  1  0
  9 10  1  0
 10 17  1  0
 10 11  1  6
 12 11  1  0
 12 16  1  0
 13 14  1  0
 13 12  2  0
 14 15  1  0
 15 16  2  0
 17 18  2  0
 20 19  1  6
 21 20  1  0
 21 17  1  0
 22 23  1  0
 22 20  1  0
 24 22  2  0
M  END
$$$$
