MHA.pdb
     RDKit          3D

 24 24  0  0  1  0  0  0  0  0999 V2000
   23.6774  -14.4038  -27.5174 C   0  0  0  0  0  0  0  0  0  0  0  0
   22.9044  -12.8945  -28.1657 S   0  0  0  0  0  0  0  0  0  0  0  0
   21.7212  -12.3053  -26.9335 C   0  0  0  0  0  0  0  0  0  0  0  0
   21.8332  -13.0229  -25.6313 C   0  0  0  0  0  0  0  0  0  0  0  0
   20.8432  -12.5839  -24.5820 C   0  0  2  0  0  0  0  0  0  0  0  0
   21.0573  -11.1620  -24.3915 N   0  0  0  0  0  0  0  0  0  0  0  0
   21.0447  -13.3439  -23.3270 C   0  0  0  0  0  0  0  0  0  0  0  0
   20.8534  -14.5792  -23.3027 O   0  0  0  0  0  0  0  0  0  0  0  0
   21.4633  -12.6764  -22.1155 N   0  0  0  0  0  0  0  0  0  0  0  0
   21.7937  -13.4363  -20.9396 C   0  0  1  0  0  0  0  0  0  0  0  0
   22.7730  -12.8149  -20.0202 C   0  0  0  0  0  0  0  0  0  0  0  0
   23.2073  -13.5943  -18.8719 C   0  0  0  0  0  0  0  0  0  0  0  0
   22.9659  -14.8685  -18.4482 C   0  0  0  0  0  0  0  0  0  0  0  0
   23.6392  -15.1165  -17.2994 N   0  0  0  0  0  0  0  0  0  0  0  0
   24.2929  -13.9870  -17.0248 C   0  0  0  0  0  0  0  0  0  0  0  0
   24.0563  -13.0616  -17.9426 N   0  0  0  0  0  0  0  0  0  0  0  0
   20.5273  -13.8336  -20.2685 C   0  0  0  0  0  0  0  0  0  0  0  0
   19.6458  -12.9702  -19.9648 O   0  0  0  0  0  0  0  0  0  0  0  0
   18.8474  -17.0580  -19.2708 C   0  0  0  0  0  0  0  0  0  0  0  0
   18.9642  -15.5323  -19.2521 C   0  0  2  0  0  0  0  0  0  0  0  0
   20.2176  -15.1792  -19.9256 N   0  0  0  0  0  0  0  0  0  0  0  0
   18.9484  -15.0833  -17.8576 C   0  0  0  0  0  0  0  0  0  0  0  0
   20.0632  -15.1169  -17.0367 O   0  0  0  0  0  0  0  0  0  0  0  0
   17.8761  -14.6459  -17.3778 O   0  0  0  0  0  0  0  0  0  0  0  0
  2  1  1  0
  3  2  1  0
  4  5  1  0
  4  3  1  0
  5  7  1  0
  5  6  1  1
  7  8  2  0
  9  7  1  0
  9 10  1  0
 10 17  1  0
 10 11  1  1
 12 11  1  0
 12 16  1  0
 13 14  1  0
 13 12  2  0
 14 15  1  0
 15 16  2  0
 17 18  2  0
 20 19  1  1
 21 20  1  0
 21 17  1  0
 22 23  1  0
 22 20  1  0
 24 22  2  0
M  END
$$$$
