MHA.pdb
     RDKit          3D

 24 24  0  0  1  0  0  0  0  0999 V2000
   31.0868  -11.3149  -18.4628 C   0  0  0  0  0  0  0  0  0  0  0  0
   29.4213  -10.6082  -18.6131 S   0  0  0  0  0  0  0  0  0  0  0  0
   28.2763  -11.6980  -17.7377 C   0  0  0  0  0  0  0  0  0  0  0  0
   26.8460  -11.3594  -17.9883 C   0  0  0  0  0  0  0  0  0  0  0  0
   26.5011   -9.9030  -17.8048 C   0  0  2  0  0  0  0  0  0  0  0  0
   26.7866   -9.5898  -16.4176 N   0  0  0  0  0  0  0  0  0  0  0  0
   25.0801   -9.6588  -18.1431 C   0  0  0  0  0  0  0  0  0  0  0  0
   24.6524   -9.9223  -19.2881 O   0  0  0  0  0  0  0  0  0  0  0  0
   24.1678   -9.1153  -17.1629 N   0  0  0  0  0  0  0  0  0  0  0  0
   22.7946   -8.8587  -17.5062 C   0  0  1  0  0  0  0  0  0  0  0  0
   21.7869   -9.6957  -16.8176 C   0  0  0  0  0  0  0  0  0  0  0  0
   21.5285   -9.4201  -15.4134 C   0  0  0  0  0  0  0  0  0  0  0  0
   22.2309   -8.7884  -14.4291 C   0  0  0  0  0  0  0  0  0  0  0  0
   21.5232   -8.7873  -13.2742 N   0  0  0  0  0  0  0  0  0  0  0  0
   20.3852   -9.4213  -13.5593 C   0  0  0  0  0  0  0  0  0  0  0  0
   20.3580   -9.8103  -14.8253 N   0  0  0  0  0  0  0  0  0  0  0  0
   22.5423   -7.3997  -17.3654 C   0  0  0  0  0  0  0  0  0  0  0  0
   23.4702   -6.6026  -17.0213 O   0  0  0  0  0  0  0  0  0  0  0  0
   22.1120   -4.7257  -18.5021 C   0  0  0  0  0  0  0  0  0  0  0  0
   21.0842   -5.3504  -17.5559 C   0  0  2  0  0  0  0  0  0  0  0  0
   21.2720   -6.8036  -17.6006 N   0  0  0  0  0  0  0  0  0  0  0  0
   19.7450   -4.9589  -18.0026 C   0  0  0  0  0  0  0  0  0  0  0  0
   19.1859   -3.7214  -17.7310 O   0  0  0  0  0  0  0  0  0  0  0  0
   19.0665   -5.7799  -18.6636 O   0  0  0  0  0  0  0  0  0  0  0  0
  2  1  1  0
  3  2  1  0
  4  5  1  0
  4  3  1  0
  5  7  1  0
  5  6  1  1
  7  8  2  0
  9  7  1  0
  9 10  1  0
 10 17  1  0
 10 11  1  1
 12 11  1  0
 12 16  1  0
 13 14  1  0
 13 12  2  0
 14 15  1  0
 15 16  2  0
 17 18  2  0
 20 19  1  6
 21 20  1  0
 21 17  1  0
 22 23  1  0
 22 20  1  0
 24 22  2  0
M  END
$$$$
