MHA.pdb
     RDKit          3D

 24 24  0  0  1  0  0  0  0  0999 V2000
   19.5865  -20.1250    0.2382 C   0  0  0  0  0  0  0  0  0  0  0  0
   19.5359  -20.8014    1.9221 S   0  0  0  0  0  0  0  0  0  0  0  0
   17.8731  -20.5335    2.5767 C   0  0  0  0  0  0  0  0  0  0  0  0
   17.5870  -19.0990    2.8657 C   0  0  0  0  0  0  0  0  0  0  0  0
   16.2365  -18.8371    3.4834 C   0  0  2  0  0  0  0  0  0  0  0  0
   15.2547  -19.1687    2.4686 N   0  0  0  0  0  0  0  0  0  0  0  0
   16.1272  -17.4245    3.9146 C   0  0  0  0  0  0  0  0  0  0  0  0
   15.7357  -16.5506    3.1107 O   0  0  0  0  0  0  0  0  0  0  0  0
   16.4686  -17.0327    5.2630 N   0  0  0  0  0  0  0  0  0  0  0  0
   16.3428  -15.6616    5.6794 C   0  0  1  0  0  0  0  0  0  0  0  0
   15.6321  -15.4349    6.9577 C   0  0  0  0  0  0  0  0  0  0  0  0
   15.5412  -14.0677    7.4444 C   0  0  0  0  0  0  0  0  0  0  0  0
   14.8312  -12.9702    7.0534 C   0  0  0  0  0  0  0  0  0  0  0  0
   15.0991  -11.9227    7.8694 N   0  0  0  0  0  0  0  0  0  0  0  0
   15.9758  -12.3872    8.7604 C   0  0  0  0  0  0  0  0  0  0  0  0
   16.2591  -13.6613    8.5342 N   0  0  0  0  0  0  0  0  0  0  0  0
   17.6908  -15.0345    5.6370 C   0  0  0  0  0  0  0  0  0  0  0  0
   18.7234  -15.6700    6.0173 O   0  0  0  0  0  0  0  0  0  0  0  0
   19.2952  -11.9479    4.2599 C   0  0  0  0  0  0  0  0  0  0  0  0
   19.2266  -13.0609    5.3079 C   0  0  2  0  0  0  0  0  0  0  0  0
   17.9171  -13.7071    5.1777 N   0  0  0  0  0  0  0  0  0  0  0  0
   19.4109  -12.4626    6.6324 C   0  0  0  0  0  0  0  0  0  0  0  0
   20.6413  -12.0461    7.1125 O   0  0  0  0  0  0  0  0  0  0  0  0
   18.4096  -12.3175    7.3724 O   0  0  0  0  0  0  0  0  0  0  0  0
  2  1  1  0
  3  2  1  0
  4  5  1  0
  4  3  1  0
  5  7  1  0
  5  6  1  6
  7  8  2  0
  9  7  1  0
  9 10  1  0
 10 17  1  0
 10 11  1  1
 12 11  1  0
 12 16  1  0
 13 14  1  0
 13 12  2  0
 14 15  1  0
 15 16  2  0
 17 18  2  0
 20 19  1  6
 21 20  1  0
 21 17  1  0
 22 23  1  0
 22 20  1  0
 24 22  2  0
M  END
$$$$
