MHA.pdb
     RDKit          3D

 24 24  0  0  1  0  0  0  0  0999 V2000
   28.9296  -13.5812  -15.7764 C   0  0  0  0  0  0  0  0  0  0  0  0
   27.4282  -12.5616  -15.7328 S   0  0  0  0  0  0  0  0  0  0  0  0
   26.7508  -12.5018  -17.4069 C   0  0  0  0  0  0  0  0  0  0  0  0
   25.4751  -11.7345  -17.4900 C   0  0  0  0  0  0  0  0  0  0  0  0
   24.4639  -12.0745  -16.4243 C   0  0  2  0  0  0  0  0  0  0  0  0
   24.1079  -13.4653  -16.6313 N   0  0  0  0  0  0  0  0  0  0  0  0
   23.2849  -11.1838  -16.5233 C   0  0  0  0  0  0  0  0  0  0  0  0
   22.2320  -11.5920  -17.0601 O   0  0  0  0  0  0  0  0  0  0  0  0
   23.3290   -9.8356  -16.0048 N   0  0  0  0  0  0  0  0  0  0  0  0
   22.1180   -9.0781  -15.8351 C   0  0  1  0  0  0  0  0  0  0  0  0
   21.0636   -9.7162  -15.0158 C   0  0  0  0  0  0  0  0  0  0  0  0
   20.3269  -10.8213  -15.6079 C   0  0  0  0  0  0  0  0  0  0  0  0
   20.2755  -11.3600  -16.8603 C   0  0  0  0  0  0  0  0  0  0  0  0
   19.4243  -12.4134  -16.8836 N   0  0  0  0  0  0  0  0  0  0  0  0
   18.9571  -12.5146  -15.6386 C   0  0  0  0  0  0  0  0  0  0  0  0
   19.4758  -11.5809  -14.8551 N   0  0  0  0  0  0  0  0  0  0  0  0
   22.4814   -7.7140  -15.3669 C   0  0  0  0  0  0  0  0  0  0  0  0
   23.2140   -7.5445  -14.3424 O   0  0  0  0  0  0  0  0  0  0  0  0
   21.8988   -4.1713  -16.5358 C   0  0  0  0  0  0  0  0  0  0  0  0
   22.4367   -5.1978  -15.5365 C   0  0  2  0  0  0  0  0  0  0  0  0
   22.0452   -6.5262  -16.0173 N   0  0  0  0  0  0  0  0  0  0  0  0
   21.8675   -4.9044  -14.2188 C   0  0  0  0  0  0  0  0  0  0  0  0
   22.4322   -4.0033  -13.3317 O   0  0  0  0  0  0  0  0  0  0  0  0
   20.8177   -5.4946  -13.8712 O   0  0  0  0  0  0  0  0  0  0  0  0
  2  1  1  0
  3  2  1  0
  4  5  1  0
  4  3  1  0
  5  7  1  0
  5  6  1  6
  7  8  2  0
  9  7  1  0
  9 10  1  0
 10 17  1  0
 10 11  1  1
 12 11  1  0
 12 16  1  0
 13 14  1  0
 13 12  2  0
 14 15  1  0
 15 16  2  0
 17 18  2  0
 20 19  1  6
 21 20  1  0
 21 17  1  0
 22 23  1  0
 22 20  1  0
 24 22  2  0
M  END
$$$$
