INM.pdb
     RDKit          3D

 25 24  0  0  1  0  0  0  0  0999 V2000
   29.8196  -18.1743  -18.8514 C   0  0  0  0  0  0  0  0  0  0  0  0
   28.4923  -17.9678  -19.4952 C   0  0  0  0  0  0  0  0  0  0  0  0
   27.5075  -17.2660  -18.6243 C   0  0  2  0  0  0  0  0  0  0  0  0
   27.9441  -15.8341  -18.4526 C   0  0  0  0  0  0  0  0  0  0  0  0
   27.2939  -17.9790  -17.3185 C   0  0  2  0  0  0  0  0  0  0  0  0
   27.4335  -19.4010  -17.4934 N   0  0  0  0  0  0  0  0  0  0  0  0
   25.9992  -17.6416  -16.6948 C   0  0  0  0  0  0  0  0  0  0  0  0
   25.4419  -16.5488  -16.9571 O   0  0  0  0  0  0  0  0  0  0  0  0
   21.5561  -17.0113  -14.9440 N   0  0  0  0  0  0  0  0  0  0  0  0
   21.8507  -17.6257  -16.2321 C   0  0  0  0  0  0  0  0  0  0  0  0
   20.9362  -17.5260  -17.0560 O   0  0  0  0  0  0  0  0  0  0  0  0
   23.1345  -18.2646  -16.4075 C   0  0  0  0  0  0  0  0  0  0  0  0
   24.0309  -18.2353  -15.2037 C   0  0  2  0  0  0  0  0  0  0  0  0
   25.3873  -18.5417  -15.8067 N   0  0  0  0  0  0  0  0  0  0  0  0
   23.7904  -19.2827  -14.2103 C   0  0  0  0  0  0  0  0  0  0  0  0
   22.6453  -19.2341  -13.6052 O   0  0  0  0  0  0  0  0  0  0  0  0
   26.4335  -19.1958   -8.8317 C   0  0  0  0  0  0  0  0  0  0  0  0
   26.1905  -20.9895   -9.0428 S   0  0  0  0  0  0  0  0  0  0  0  0
   25.8257  -21.3694  -10.7300 C   0  0  0  0  0  0  0  0  0  0  0  0
   24.7431  -20.6899  -11.4649 C   0  0  0  0  0  0  0  0  0  0  0  0
   24.1669  -21.2594  -12.6941 C   0  0  2  0  0  0  0  0  0  0  0  0
   24.5978  -20.3360  -13.8050 N   0  0  0  0  0  0  0  0  0  0  0  0
   22.6597  -20.9717  -12.7580 C   0  0  0  0  0  0  0  0  0  0  0  0
   21.8701  -21.7502  -12.1180 O   0  0  0  0  0  0  0  0  0  0  0  0
   22.0727  -19.9635  -13.4383 O   0  0  0  0  0  0  0  0  0  0  0  0
  2  3  1  0
  2  1  1  0
  3  5  1  0
  3  4  1  1
  5  7  1  0
  5  6  1  6
  7  8  2  0
 10  9  1  0
 11 10  2  0
 12 10  1  0
 13 12  1  6
 14 13  1  0
 14  7  1  0
 15 16  2  0
 15 13  1  0
 17 18  1  0
 19 20  1  0
 19 18  1  0
 21 20  1  1
 21 22  1  0
 21 23  1  0
 22 15  1  0
 23 24  2  0
 23 25  1  0
M  END
$$$$
