INM.pdb
     RDKit          3D

 25 24  0  0  1  0  0  0  0  0999 V2000
   28.2285  -19.8448   -6.7092 C   0  0  0  0  0  0  0  0  0  0  0  0
   27.9644  -20.7887   -7.8308 C   0  0  0  0  0  0  0  0  0  0  0  0
   26.7647  -20.4348   -8.6410 C   0  0  2  0  0  0  0  0  0  0  0  0
   25.5514  -20.4562   -7.7479 C   0  0  0  0  0  0  0  0  0  0  0  0
   26.6202  -21.3094   -9.8548 C   0  0  2  0  0  0  0  0  0  0  0  0
   27.9022  -21.8249  -10.2586 N   0  0  0  0  0  0  0  0  0  0  0  0
   25.9453  -20.6198  -10.9719 C   0  0  0  0  0  0  0  0  0  0  0  0
   25.2447  -19.6031  -10.7506 O   0  0  0  0  0  0  0  0  0  0  0  0
   28.9594  -20.4019  -14.0657 N   0  0  0  0  0  0  0  0  0  0  0  0
   27.7023  -19.7116  -14.3243 C   0  0  0  0  0  0  0  0  0  0  0  0
   27.8023  -18.4810  -14.3507 O   0  0  0  0  0  0  0  0  0  0  0  0
   26.5120  -20.5074  -14.5169 C   0  0  0  0  0  0  0  0  0  0  0  0
   25.4649  -20.3561  -13.4518 C   0  0  2  0  0  0  0  0  0  0  0  0
   26.0851  -21.0988  -12.2852 N   0  0  0  0  0  0  0  0  0  0  0  0
   24.1907  -21.0248  -13.7180 C   0  0  0  0  0  0  0  0  0  0  0  0
   24.1225  -22.2701  -13.3655 O   0  0  0  0  0  0  0  0  0  0  0  0
   19.7906  -21.5080  -10.2351 C   0  0  0  0  0  0  0  0  0  0  0  0
   18.8193  -20.7461  -11.5757 S   0  0  0  0  0  0  0  0  0  0  0  0
   19.7049  -20.8265  -13.1032 C   0  0  0  0  0  0  0  0  0  0  0  0
   21.0895  -21.3281  -13.1753 C   0  0  0  0  0  0  0  0  0  0  0  0
   21.8134  -21.4189  -14.4540 C   0  0  2  0  0  0  0  0  0  0  0  0
   23.0254  -20.5372  -14.2928 N   0  0  0  0  0  0  0  0  0  0  0  0
   21.0966  -20.5915  -15.5310 C   0  0  0  0  0  0  0  0  0  0  0  0
   21.5660  -19.4343  -15.8135 O   0  0  0  0  0  0  0  0  0  0  0  0
   19.9974  -20.9678  -16.2196 O   0  0  0  0  0  0  0  0  0  0  0  0
  2  3  1  0
  2  1  1  0
  3  5  1  0
  3  4  1  1
  5  7  1  0
  5  6  1  6
  7  8  2  0
 10  9  1  0
 11 10  2  0
 12 10  1  0
 13 12  1  6
 14 13  1  0
 14  7  1  0
 15 16  2  0
 15 13  1  0
 17 18  1  0
 19 20  1  0
 19 18  1  0
 21 20  1  1
 21 22  1  0
 21 23  1  0
 22 15  1  0
 23 24  2  0
 23 25  1  0
M  END
$$$$
