INM.pdb
     RDKit          3D

 25 24  0  0  1  0  0  0  0  0999 V2000
   25.8984  -15.4037  -12.9837 C   0  0  0  0  0  0  0  0  0  0  0  0
   26.7948  -15.9105  -14.0600 C   0  0  0  0  0  0  0  0  0  0  0  0
   26.4950  -17.3087  -14.4796 C   0  0  2  0  0  0  0  0  0  0  0  0
   26.4891  -18.1919  -13.2588 C   0  0  0  0  0  0  0  0  0  0  0  0
   27.4282  -17.7922  -15.5540 C   0  0  2  0  0  0  0  0  0  0  0  0
   27.5557  -16.8029  -16.5919 N   0  0  0  0  0  0  0  0  0  0  0  0
   27.0242  -19.0994  -16.1080 C   0  0  0  0  0  0  0  0  0  0  0  0
   26.1145  -19.1621  -16.9694 O   0  0  0  0  0  0  0  0  0  0  0  0
   28.5812  -24.3843  -17.3414 N   0  0  0  0  0  0  0  0  0  0  0  0
   28.1126  -23.9326  -16.0376 C   0  0  0  0  0  0  0  0  0  0  0  0
   27.6066  -24.8248  -15.3499 O   0  0  0  0  0  0  0  0  0  0  0  0
   28.2819  -22.5393  -15.6950 C   0  0  0  0  0  0  0  0  0  0  0  0
   27.1668  -21.6350  -16.1336 C   0  0  2  0  0  0  0  0  0  0  0  0
   27.6563  -20.2764  -15.6735 N   0  0  0  0  0  0  0  0  0  0  0  0
   25.8825  -21.8438  -15.4638 C   0  0  0  0  0  0  0  0  0  0  0  0
   25.0906  -20.8183  -15.4296 O   0  0  0  0  0  0  0  0  0  0  0  0
   25.5371  -19.7774  -10.3865 C   0  0  0  0  0  0  0  0  0  0  0  0
   26.7589  -21.0803  -10.7480 S   0  0  0  0  0  0  0  0  0  0  0  0
   26.1165  -22.2163  -11.9401 C   0  0  0  0  0  0  0  0  0  0  0  0
   24.9568  -21.8831  -12.7875 C   0  0  0  0  0  0  0  0  0  0  0  0
   24.3745  -22.8616  -13.7206 C   0  0  2  0  0  0  0  0  0  0  0  0
   25.3645  -22.9764  -14.8516 N   0  0  0  0  0  0  0  0  0  0  0  0
   23.2260  -22.2215  -14.5143 C   0  0  0  0  0  0  0  0  0  0  0  0
   22.6153  -21.2246  -13.9924 O   0  0  0  0  0  0  0  0  0  0  0  0
   22.7848  -22.6155  -15.7283 O   0  0  0  0  0  0  0  0  0  0  0  0
  2  3  1  0
  2  1  1  0
  3  5  1  0
  3  4  1  1
  5  7  1  0
  5  6  1  6
  7  8  2  0
 10  9  1  0
 11 10  2  0
 12 10  1  0
 13 12  1  1
 14 13  1  0
 14  7  1  0
 15 16  2  0
 15 13  1  0
 17 18  1  0
 19 20  1  0
 19 18  1  0
 21 20  1  1
 21 22  1  0
 21 23  1  0
 22 15  1  0
 23 24  2  0
 23 25  1  0
M  END
$$$$
