INM.pdb
     RDKit          3D

 25 24  0  0  1  0  0  0  0  0999 V2000
   22.1876  -16.7931  -15.8212 C   0  0  0  0  0  0  0  0  0  0  0  0
   22.1784  -18.1489  -15.2042 C   0  0  0  0  0  0  0  0  0  0  0  0
   23.4333  -18.9192  -15.4334 C   0  0  2  0  0  0  0  0  0  0  0  0
   23.7105  -18.9678  -16.9136 C   0  0  0  0  0  0  0  0  0  0  0  0
   23.3898  -20.2795  -14.7956 C   0  0  2  0  0  0  0  0  0  0  0  0
   22.5461  -20.2614  -13.6294 N   0  0  0  0  0  0  0  0  0  0  0  0
   24.7344  -20.7973  -14.4747 C   0  0  0  0  0  0  0  0  0  0  0  0
   25.5530  -21.0320  -15.3957 O   0  0  0  0  0  0  0  0  0  0  0  0
   28.9978  -21.4065  -14.0388 N   0  0  0  0  0  0  0  0  0  0  0  0
   28.4074  -20.0742  -14.0255 C   0  0  0  0  0  0  0  0  0  0  0  0
   29.0772  -19.2231  -14.6187 O   0  0  0  0  0  0  0  0  0  0  0  0
   27.1458  -19.8919  -13.3455 C   0  0  0  0  0  0  0  0  0  0  0  0
   26.5609  -21.1362  -12.7429 C   0  0  2  0  0  0  0  0  0  0  0  0
   25.1017  -21.0284  -13.1386 N   0  0  0  0  0  0  0  0  0  0  0  0
   26.5739  -21.1973  -11.2808 C   0  0  0  0  0  0  0  0  0  0  0  0
   27.7363  -21.3684  -10.7336 O   0  0  0  0  0  0  0  0  0  0  0  0
   29.7523  -19.5581   -6.5333 C   0  0  0  0  0  0  0  0  0  0  0  0
   28.1294  -18.7296   -6.5610 S   0  0  0  0  0  0  0  0  0  0  0  0
   26.8688  -19.8568   -7.0753 C   0  0  0  0  0  0  0  0  0  0  0  0
   26.6825  -20.2239   -8.4910 C   0  0  0  0  0  0  0  0  0  0  0  0
   25.7686  -21.3047   -8.8958 C   0  0  2  0  0  0  0  0  0  0  0  0
   25.5313  -21.0990  -10.3702 N   0  0  0  0  0  0  0  0  0  0  0  0
   24.3423  -21.0043   -8.4122 C   0  0  0  0  0  0  0  0  0  0  0  0
   24.0955  -21.1113   -7.1604 O   0  0  0  0  0  0  0  0  0  0  0  0
   23.3018  -20.6362   -9.1905 O   0  0  0  0  0  0  0  0  0  0  0  0
  2  3  1  0
  2  1  1  0
  3  5  1  0
  3  4  1  6
  5  7  1  0
  5  6  1  1
  7  8  2  0
 10  9  1  0
 11 10  2  0
 12 10  1  0
 13 12  1  1
 14 13  1  0
 14  7  1  0
 15 16  2  0
 15 13  1  0
 17 18  1  0
 19 20  1  0
 19 18  1  0
 21 20  1  1
 21 22  1  0
 21 23  1  0
 22 15  1  0
 23 24  2  0
 23 25  1  0
M  END
$$$$
