INM.pdb
     RDKit          3D

 25 24  0  0  1  0  0  0  0  0999 V2000
   16.3494  -14.2709  -17.4673 C   0  0  0  0  0  0  0  0  0  0  0  0
   16.3810  -12.9768  -16.7303 C   0  0  0  0  0  0  0  0  0  0  0  0
   17.7480  -12.5646  -16.3033 C   0  0  2  0  0  0  0  0  0  0  0  0
   18.3501  -13.6665  -15.4705 C   0  0  0  0  0  0  0  0  0  0  0  0
   17.7489  -11.2316  -15.6090 C   0  0  2  0  0  0  0  0  0  0  0  0
   17.0740  -10.2459  -16.4122 N   0  0  0  0  0  0  0  0  0  0  0  0
   19.1076  -10.7847  -15.2439 C   0  0  0  0  0  0  0  0  0  0  0  0
   19.8748  -11.5550  -14.6182 O   0  0  0  0  0  0  0  0  0  0  0  0
   24.0363  -10.8144  -15.8821 N   0  0  0  0  0  0  0  0  0  0  0  0
   23.1477   -9.7819  -16.3997 C   0  0  0  0  0  0  0  0  0  0  0  0
   23.7363   -8.8019  -16.8668 O   0  0  0  0  0  0  0  0  0  0  0  0
   21.7222  -10.0019  -16.3173 C   0  0  0  0  0  0  0  0  0  0  0  0
   20.9884   -9.0839  -15.3833 C   0  0  2  0  0  0  0  0  0  0  0  0
   19.5457   -9.4972  -15.5956 N   0  0  0  0  0  0  0  0  0  0  0  0
   21.0488   -7.6606  -15.7183 C   0  0  0  0  0  0  0  0  0  0  0  0
   20.4522   -7.3133  -16.8152 O   0  0  0  0  0  0  0  0  0  0  0  0
   17.4803   -1.4346  -15.9920 C   0  0  0  0  0  0  0  0  0  0  0  0
   17.7847   -3.2004  -15.6600 S   0  0  0  0  0  0  0  0  0  0  0  0
   19.5206   -3.5262  -15.5926 C   0  0  0  0  0  0  0  0  0  0  0  0
   20.0504   -4.8872  -15.3902 C   0  0  0  0  0  0  0  0  0  0  0  0
   21.4854   -5.1865  -15.5261 C   0  0  2  0  0  0  0  0  0  0  0  0
   21.6471   -6.6056  -15.0438 N   0  0  0  0  0  0  0  0  0  0  0  0
   22.2811   -4.4957  -14.4090 C   0  0  0  0  0  0  0  0  0  0  0  0
   22.4806   -5.1430  -13.3226 O   0  0  0  0  0  0  0  0  0  0  0  0
   22.7971   -3.2485  -14.4574 O   0  0  0  0  0  0  0  0  0  0  0  0
  2  3  1  0
  2  1  1  0
  3  5  1  0
  3  4  1  1
  5  7  1  0
  5  6  1  6
  7  8  2  0
 10  9  1  0
 11 10  2  0
 12 10  1  0
 13 12  1  6
 14 13  1  0
 14  7  1  0
 15 16  2  0
 15 13  1  0
 17 18  1  0
 19 20  1  0
 19 18  1  0
 21 20  1  1
 21 22  1  0
 21 23  1  0
 22 15  1  0
 23 24  2  0
 23 25  1  0
M  END
$$$$
