INM.pdb
     RDKit          3D

 25 24  0  0  1  0  0  0  0  0999 V2000
   27.1825  -23.0777  -15.2353 C   0  0  0  0  0  0  0  0  0  0  0  0
   26.1872  -22.8518  -14.1503 C   0  0  0  0  0  0  0  0  0  0  0  0
   25.6233  -21.4724  -14.1332 C   0  0  2  0  0  0  0  0  0  0  0  0
   26.7519  -20.4878  -13.9690 C   0  0  0  0  0  0  0  0  0  0  0  0
   24.5445  -21.3122  -13.0991 C   0  0  2  0  0  0  0  0  0  0  0  0
   23.6838  -22.4661  -13.0874 N   0  0  0  0  0  0  0  0  0  0  0  0
   23.7692  -20.0688  -13.2782 C   0  0  0  0  0  0  0  0  0  0  0  0
   24.3498  -18.9573  -13.2482 O   0  0  0  0  0  0  0  0  0  0  0  0
   23.6239  -17.5866  -17.3337 N   0  0  0  0  0  0  0  0  0  0  0  0
   22.5283  -18.3148  -16.7069 C   0  0  0  0  0  0  0  0  0  0  0  0
   21.4287  -18.1164  -17.2328 O   0  0  0  0  0  0  0  0  0  0  0  0
   22.8290  -19.1633  -15.5769 C   0  0  0  0  0  0  0  0  0  0  0  0
   21.7225  -19.3021  -14.5718 C   0  0  2  0  0  0  0  0  0  0  0  0
   22.3806  -20.1258  -13.4828 N   0  0  0  0  0  0  0  0  0  0  0  0
   20.5620  -20.0775  -15.0118 C   0  0  0  0  0  0  0  0  0  0  0  0
   19.8645  -19.5541  -15.9706 O   0  0  0  0  0  0  0  0  0  0  0  0
   19.9459  -26.6426  -15.2813 C   0  0  0  0  0  0  0  0  0  0  0  0
   18.8982  -25.9214  -16.5865 S   0  0  0  0  0  0  0  0  0  0  0  0
   18.3774  -24.2945  -16.1323 C   0  0  0  0  0  0  0  0  0  0  0  0
   19.3205  -23.2961  -15.5961 C   0  0  0  0  0  0  0  0  0  0  0  0
   18.8812  -21.9433  -15.2163 C   0  0  2  0  0  0  0  0  0  0  0  0
   20.0792  -21.2998  -14.5659 N   0  0  0  0  0  0  0  0  0  0  0  0
   17.9796  -22.0058  -13.9746 C   0  0  0  0  0  0  0  0  0  0  0  0
   18.5279  -21.8776  -12.8248 O   0  0  0  0  0  0  0  0  0  0  0  0
   16.6417  -22.1905  -13.9743 O   0  0  0  0  0  0  0  0  0  0  0  0
  2  3  1  0
  2  1  1  0
  3  5  1  0
  3  4  1  1
  5  7  1  0
  5  6  1  6
  7  8  2  0
 10  9  1  0
 11 10  2  0
 12 10  1  0
 13 12  1  6
 14 13  1  0
 14  7  1  0
 15 16  2  0
 15 13  1  0
 17 18  1  0
 19 20  1  0
 19 18  1  0
 21 20  1  1
 21 22  1  0
 21 23  1  0
 22 15  1  0
 23 24  2  0
 23 25  1  0
M  END
$$$$
