INM.pdb
     RDKit          3D

 25 24  0  0  1  0  0  0  0  0999 V2000
   17.4510  -14.1667  -19.6992 C   0  0  0  0  0  0  0  0  0  0  0  0
   17.8658  -13.7109  -18.3431 C   0  0  0  0  0  0  0  0  0  0  0  0
   18.3105  -12.2891  -18.2997 C   0  0  2  0  0  0  0  0  0  0  0  0
   19.4201  -12.0961  -19.3006 C   0  0  0  0  0  0  0  0  0  0  0  0
   18.6851  -11.8529  -16.9111 C   0  0  2  0  0  0  0  0  0  0  0  0
   17.7357  -12.3555  -15.9528 N   0  0  0  0  0  0  0  0  0  0  0  0
   18.8338  -10.3885  -16.7989 C   0  0  0  0  0  0  0  0  0  0  0  0
   19.6829   -9.7882  -17.5004 O   0  0  0  0  0  0  0  0  0  0  0  0
   15.5685   -5.9246  -14.0777 N   0  0  0  0  0  0  0  0  0  0  0  0
   16.7865   -6.3764  -14.7379 C   0  0  0  0  0  0  0  0  0  0  0  0
   17.6068   -5.4772  -14.9465 O   0  0  0  0  0  0  0  0  0  0  0  0
   16.9060   -7.7778  -15.0683 C   0  0  0  0  0  0  0  0  0  0  0  0
   18.1751   -8.1607  -15.7728 C   0  0  2  0  0  0  0  0  0  0  0  0
   18.0259   -9.6629  -15.9076 N   0  0  0  0  0  0  0  0  0  0  0  0
   19.4083   -7.9489  -15.0140 C   0  0  0  0  0  0  0  0  0  0  0  0
   19.5755   -8.7167  -13.9833 O   0  0  0  0  0  0  0  0  0  0  0  0
   25.2191  -10.6570  -14.1923 C   0  0  0  0  0  0  0  0  0  0  0  0
   25.2048   -9.0977  -15.1353 S   0  0  0  0  0  0  0  0  0  0  0  0
   24.0295   -7.9705  -14.4479 C   0  0  0  0  0  0  0  0  0  0  0  0
   22.6424   -7.8943  -14.9418 C   0  0  0  0  0  0  0  0  0  0  0  0
   21.6416   -7.0227  -14.3046 C   0  0  2  0  0  0  0  0  0  0  0  0
   20.4446   -7.0492  -15.2205 N   0  0  0  0  0  0  0  0  0  0  0  0
   22.0197   -5.5471  -14.4998 C   0  0  0  0  0  0  0  0  0  0  0  0
   22.9326   -5.0548  -13.7492 O   0  0  0  0  0  0  0  0  0  0  0  0
   21.4721   -4.7001  -15.3978 O   0  0  0  0  0  0  0  0  0  0  0  0
  2  3  1  0
  2  1  1  0
  3  5  1  0
  3  4  1  6
  5  7  1  0
  5  6  1  1
  7  8  2  0
 10  9  1  0
 11 10  2  0
 12 10  1  0
 13 12  1  1
 14 13  1  0
 14  7  1  0
 15 16  2  0
 15 13  1  0
 17 18  1  0
 19 20  1  0
 19 18  1  0
 21 20  1  6
 21 22  1  0
 21 23  1  0
 22 15  1  0
 23 24  2  0
 23 25  1  0
M  END
$$$$
