INM.pdb
     RDKit          3D

 25 24  0  0  1  0  0  0  0  0999 V2000
   19.2891  -11.4341  -20.7728 C   0  0  0  0  0  0  0  0  0  0  0  0
   19.6112  -11.4502  -19.3186 C   0  0  0  0  0  0  0  0  0  0  0  0
   19.5334  -10.1090  -18.6735 C   0  0  2  0  0  0  0  0  0  0  0  0
   20.4273   -9.1561  -19.4240 C   0  0  0  0  0  0  0  0  0  0  0  0
   19.8352  -10.1675  -17.2023 C   0  0  2  0  0  0  0  0  0  0  0  0
   19.0527  -11.1965  -16.5690 N   0  0  0  0  0  0  0  0  0  0  0  0
   19.6467   -8.8649  -16.5339 C   0  0  0  0  0  0  0  0  0  0  0  0
   18.5734   -8.2328  -16.6820 O   0  0  0  0  0  0  0  0  0  0  0  0
   18.6454   -7.9984  -13.2136 N   0  0  0  0  0  0  0  0  0  0  0  0
   20.0199   -7.8615  -12.7491 C   0  0  0  0  0  0  0  0  0  0  0  0
   20.2020   -8.2652  -11.5963 O   0  0  0  0  0  0  0  0  0  0  0  0
   20.9929   -7.2894  -13.6509 C   0  0  0  0  0  0  0  0  0  0  0  0
   20.4859   -6.9959  -15.0330 C   0  0  2  0  0  0  0  0  0  0  0  0
   20.6671   -8.3292  -15.7306 N   0  0  0  0  0  0  0  0  0  0  0  0
   21.2726   -6.0324  -15.8039 C   0  0  0  0  0  0  0  0  0  0  0  0
   22.4947   -6.3790  -16.0611 O   0  0  0  0  0  0  0  0  0  0  0  0
   21.7171   -0.9706  -21.7495 C   0  0  0  0  0  0  0  0  0  0  0  0
   20.8629   -2.3120  -20.8595 S   0  0  0  0  0  0  0  0  0  0  0  0
   21.7159   -2.7007  -19.3611 C   0  0  0  0  0  0  0  0  0  0  0  0
   21.1756   -3.6644  -18.3848 C   0  0  0  0  0  0  0  0  0  0  0  0
   21.8920   -3.9880  -17.1400 C   0  0  2  0  0  0  0  0  0  0  0  0
   20.9196   -4.7910  -16.3141 N   0  0  0  0  0  0  0  0  0  0  0  0
   21.9649   -2.7520  -16.2314 C   0  0  0  0  0  0  0  0  0  0  0  0
   20.9924   -2.5377  -15.4267 O   0  0  0  0  0  0  0  0  0  0  0  0
   22.9688   -1.8494  -16.1992 O   0  0  0  0  0  0  0  0  0  0  0  0
  2  3  1  0
  2  1  1  0
  3  5  1  0
  3  4  1  6
  5  7  1  0
  5  6  1  1
  7  8  2  0
 10  9  1  0
 11 10  2  0
 12 10  1  0
 13 12  1  1
 14 13  1  0
 14  7  1  0
 15 16  2  0
 15 13  1  0
 17 18  1  0
 19 20  1  0
 19 18  1  0
 21 20  1  6
 21 22  1  0
 21 23  1  0
 22 15  1  0
 23 24  2  0
 23 25  1  0
M  END
$$$$
