INM.pdb
     RDKit          3D

 25 24  0  0  1  0  0  0  0  0999 V2000
   23.2981  -20.3104   -7.2398 C   0  0  0  0  0  0  0  0  0  0  0  0
   24.5068  -20.8468   -7.9255 C   0  0  0  0  0  0  0  0  0  0  0  0
   24.7190  -20.2864   -9.2900 C   0  0  2  0  0  0  0  0  0  0  0  0
   23.4708  -20.5057  -10.1050 C   0  0  0  0  0  0  0  0  0  0  0  0
   25.9557  -20.8357   -9.9441 C   0  0  2  0  0  0  0  0  0  0  0  0
   27.1001  -20.6516   -9.0905 N   0  0  0  0  0  0  0  0  0  0  0  0
   26.1899  -20.2612  -11.2836 C   0  0  0  0  0  0  0  0  0  0  0  0
   26.6472  -19.0986  -11.3968 O   0  0  0  0  0  0  0  0  0  0  0  0
   27.6367  -19.9439  -16.3629 N   0  0  0  0  0  0  0  0  0  0  0  0
   27.0712  -21.2179  -15.9380 C   0  0  0  0  0  0  0  0  0  0  0  0
   26.8084  -21.9853  -16.8692 O   0  0  0  0  0  0  0  0  0  0  0  0
   26.8830  -21.4451  -14.5237 C   0  0  0  0  0  0  0  0  0  0  0  0
   26.0595  -20.4087  -13.8156 C   0  0  2  0  0  0  0  0  0  0  0  0
   25.9021  -21.0133  -12.4347 N   0  0  0  0  0  0  0  0  0  0  0  0
   24.7009  -20.2230  -14.3267 C   0  0  0  0  0  0  0  0  0  0  0  0
   23.9694  -21.2912  -14.3862 O   0  0  0  0  0  0  0  0  0  0  0  0
   24.9885  -21.1836  -19.8266 C   0  0  0  0  0  0  0  0  0  0  0  0
   23.3318  -21.6306  -19.2130 S   0  0  0  0  0  0  0  0  0  0  0  0
   22.7571  -20.4273  -18.0528 C   0  0  0  0  0  0  0  0  0  0  0  0
   23.5084  -20.1083  -16.8249 C   0  0  0  0  0  0  0  0  0  0  0  0
   23.0038  -19.1374  -15.8400 C   0  0  2  0  0  0  0  0  0  0  0  0
   24.0566  -19.0738  -14.7630 N   0  0  0  0  0  0  0  0  0  0  0  0
   21.8838  -19.7666  -14.9985 C   0  0  0  0  0  0  0  0  0  0  0  0
   20.7381  -19.1952  -14.9966 O   0  0  0  0  0  0  0  0  0  0  0  0
   21.9900  -20.8807  -14.2425 O   0  0  0  0  0  0  0  0  0  0  0  0
  2  3  1  0
  2  1  1  0
  3  5  1  0
  3  4  1  6
  5  7  1  0
  5  6  1  1
  7  8  2  0
 10  9  1  0
 11 10  2  0
 12 10  1  0
 13 12  1  6
 14 13  1  0
 14  7  1  0
 15 16  2  0
 15 13  1  0
 17 18  1  0
 19 20  1  0
 19 18  1  0
 21 20  1  6
 21 22  1  0
 21 23  1  0
 22 15  1  0
 23 24  2  0
 23 25  1  0
M  END
$$$$
