QHY.pdb
     RDKit          3D

 32 33  0  0  1  0  0  0  0  0999 V2000
   13.7401  -15.8491   20.4307 N   0  0  0  0  0  0  0  0  0  0  0  0
   13.8221  -14.8766   19.3616 C   0  0  0  0  0  0  0  0  0  0  0  0
   14.9444  -14.3534   19.1908 O   0  0  0  0  0  0  0  0  0  0  0  0
   12.6059  -14.6010   18.5885 C   0  0  0  0  0  0  0  0  0  0  0  0
   11.5507  -15.6371   18.6166 C   0  0  0  0  0  0  0  0  0  0  0  0
   10.1714  -15.0911   18.6651 C   0  0  2  0  0  0  0  0  0  0  0  0
    9.8844  -14.0786   17.7130 N   0  0  0  0  0  0  0  0  0  0  0  0
    9.8341  -14.5645   20.0332 C   0  0  0  0  0  0  0  0  0  0  0  0
   10.4761  -13.6084   20.5373 O   0  0  0  0  0  0  0  0  0  0  0  0
    8.7846  -15.1288   20.7958 N   0  0  0  0  0  0  0  0  0  0  0  0
    8.3679  -14.6556   22.0781 C   0  0  1  0  0  0  0  0  0  0  0  0
    6.9111  -14.9634   22.3328 C   0  0  0  0  0  0  0  0  0  0  0  0
    6.4079  -14.4009   23.6087 C   0  0  0  0  0  0  0  0  0  0  0  0
    6.3419  -13.0673   24.0140 C   0  0  0  0  0  0  0  0  0  0  0  0
    5.8213  -12.9853   25.2311 N   0  0  0  0  0  0  0  0  0  0  0  0
    5.5377  -14.2433   25.6456 C   0  0  0  0  0  0  0  0  0  0  0  0
    5.8981  -15.0930   24.6536 N   0  0  0  0  0  0  0  0  0  0  0  0
    9.1769  -15.1912   23.2008 C   0  0  0  0  0  0  0  0  0  0  0  0
    9.6436  -16.3536   23.0887 O   0  0  0  0  0  0  0  0  0  0  0  0
   12.1693  -16.5789   31.4036 O   0  0  0  0  0  0  0  0  0  0  0  0
   11.7211  -15.9575   30.2336 C   0  0  0  0  0  0  0  0  0  0  0  0
   10.3725  -15.7560   30.0258 C   0  0  0  0  0  0  0  0  0  0  0  0
    9.9201  -15.1502   28.8865 C   0  0  0  0  0  0  0  0  0  0  0  0
   10.7719  -14.7092   27.8872 C   0  0  0  0  0  0  0  0  0  0  0  0
   10.2814  -14.0637   26.6470 C   0  0  0  0  0  0  0  0  0  0  0  0
   10.1018  -15.0768   25.5612 C   0  0  2  0  0  0  0  0  0  0  0  0
    9.4520  -14.4748   24.3835 N   0  0  0  0  0  0  0  0  0  0  0  0
    9.2474  -16.2146   25.9562 C   0  0  0  0  0  0  0  0  0  0  0  0
    7.9999  -16.2092   25.7506 O   0  0  0  0  0  0  0  0  0  0  0  0
   12.1343  -14.9194   28.1114 C   0  0  0  0  0  0  0  0  0  0  0  0
   12.5937  -15.5304   29.2606 C   0  0  0  0  0  0  0  0  0  0  0  0
    9.7242  -17.3729   26.5752 O   0  0  0  0  0  0  0  0  0  0  0  0
  1  2  1  0
  2  3  2  0
  4  5  1  0
  4  2  1  0
  6  7  1  6
  6  5  1  0
  8  6  1  0
  8  9  2  0
 10  8  1  0
 11 18  1  0
 11 10  1  0
 11 12  1  1
 13 14  2  0
 13 12  1  0
 15 14  1  0
 16 17  2  0
 16 15  1  0
 17 13  1  0
 18 19  2  0
 20 21  1  0
 21 22  2  0
 21 31  1  0
 22 23  1  0
 23 24  2  0
 24 25  1  0
 26 25  1  1
 26 28  1  0
 27 18  1  0
 27 26  1  0
 28 29  2  0
 28 32  1  0
 30 24  1  0
 31 30  2  0
M  END
$$$$
