QHY.pdb
     RDKit          3D

 32 33  0  0  1  0  0  0  0  0999 V2000
    6.9296  -13.6298   16.8777 N   0  0  0  0  0  0  0  0  0  0  0  0
    8.2385  -13.1393   17.2539 C   0  0  0  0  0  0  0  0  0  0  0  0
    8.5769  -12.0511   16.7405 O   0  0  0  0  0  0  0  0  0  0  0  0
    9.0322  -13.9459   18.1879 C   0  0  0  0  0  0  0  0  0  0  0  0
    8.4278  -14.2205   19.5096 C   0  0  0  0  0  0  0  0  0  0  0  0
    9.2535  -15.0946   20.3798 C   0  0  2  0  0  0  0  0  0  0  0  0
    9.7440  -16.2758   19.7648 N   0  0  0  0  0  0  0  0  0  0  0  0
    8.5150  -15.4833   21.6313 C   0  0  0  0  0  0  0  0  0  0  0  0
    7.9337  -14.6203   22.3366 O   0  0  0  0  0  0  0  0  0  0  0  0
    8.4519  -16.8319   22.0541 N   0  0  0  0  0  0  0  0  0  0  0  0
    7.8124  -17.2778   23.2517 C   0  0  1  0  0  0  0  0  0  0  0  0
    7.4384  -18.7389   23.1659 C   0  0  0  0  0  0  0  0  0  0  0  0
    6.4033  -19.0194   22.1424 C   0  0  0  0  0  0  0  0  0  0  0  0
    5.7126  -18.1240   21.3248 C   0  0  0  0  0  0  0  0  0  0  0  0
    4.8694  -18.7804   20.5393 N   0  0  0  0  0  0  0  0  0  0  0  0
    4.9859  -20.1007   20.8186 C   0  0  0  0  0  0  0  0  0  0  0  0
    5.9186  -20.2332   21.7923 N   0  0  0  0  0  0  0  0  0  0  0  0
    8.6231  -17.0591   24.4751 C   0  0  0  0  0  0  0  0  0  0  0  0
    9.8747  -17.1243   24.3720 O   0  0  0  0  0  0  0  0  0  0  0  0
    6.8512  -10.7849   24.8634 O   0  0  0  0  0  0  0  0  0  0  0  0
    7.1980  -11.9356   25.5786 C   0  0  0  0  0  0  0  0  0  0  0  0
    6.2283  -12.6667   26.2325 C   0  0  0  0  0  0  0  0  0  0  0  0
    6.5530  -13.7935   26.9358 C   0  0  0  0  0  0  0  0  0  0  0  0
    7.8524  -14.2630   27.0346 C   0  0  0  0  0  0  0  0  0  0  0  0
    8.2064  -15.4770   27.8067 C   0  0  0  0  0  0  0  0  0  0  0  0
    8.8913  -16.4776   26.9306 C   0  0  2  0  0  0  0  0  0  0  0  0
    8.0732  -16.7834   25.7437 N   0  0  0  0  0  0  0  0  0  0  0  0
    9.1343  -17.7722   27.5980 C   0  0  0  0  0  0  0  0  0  0  0  0
    8.4973  -18.8150   27.2733 O   0  0  0  0  0  0  0  0  0  0  0  0
    8.8233  -13.5130   26.3672 C   0  0  0  0  0  0  0  0  0  0  0  0
    8.4984  -12.3754   25.6564 C   0  0  0  0  0  0  0  0  0  0  0  0
   10.0667  -17.9620   28.6212 O   0  0  0  0  0  0  0  0  0  0  0  0
  1  2  1  0
  2  3  2  0
  4  5  1  0
  4  2  1  0
  6  7  1  6
  6  5  1  0
  8  6  1  0
  8  9  2  0
 10  8  1  0
 11 18  1  0
 11 10  1  0
 11 12  1  6
 13 14  2  0
 13 12  1  0
 15 14  1  0
 16 17  2  0
 16 15  1  0
 17 13  1  0
 18 19  2  0
 20 21  1  0
 21 22  2  0
 21 31  1  0
 22 23  1  0
 23 24  2  0
 24 25  1  0
 26 25  1  1
 26 28  1  0
 27 18  1  0
 27 26  1  0
 28 29  2  0
 28 32  1  0
 30 24  1  0
 31 30  2  0
M  END
$$$$
