QHY.pdb
     RDKit          3D

 32 33  0  0  1  0  0  0  0  0999 V2000
    6.3025  -12.1494   16.5617 N   0  0  0  0  0  0  0  0  0  0  0  0
    6.8338  -13.4034   16.0715 C   0  0  0  0  0  0  0  0  0  0  0  0
    6.3208  -13.8328   15.0157 O   0  0  0  0  0  0  0  0  0  0  0  0
    7.9073  -14.0425   16.8409 C   0  0  0  0  0  0  0  0  0  0  0  0
    8.3097  -13.3786   18.0998 C   0  0  0  0  0  0  0  0  0  0  0  0
    9.3944  -14.0799   18.8309 C   0  0  2  0  0  0  0  0  0  0  0  0
   10.1242  -15.0302   18.0706 N   0  0  0  0  0  0  0  0  0  0  0  0
    8.8757  -14.7602   20.0681 C   0  0  0  0  0  0  0  0  0  0  0  0
    8.0639  -14.1827   20.8347 O   0  0  0  0  0  0  0  0  0  0  0  0
    9.2855  -16.0709   20.4083 N   0  0  0  0  0  0  0  0  0  0  0  0
    8.7547  -16.8306   21.4960 C   0  0  1  0  0  0  0  0  0  0  0  0
    8.8491  -18.3146   21.2300 C   0  0  0  0  0  0  0  0  0  0  0  0
    7.7586  -18.8253   20.3654 C   0  0  0  0  0  0  0  0  0  0  0  0
    6.6779  -18.1342   19.8159 C   0  0  0  0  0  0  0  0  0  0  0  0
    5.9280  -18.9577   19.0959 N   0  0  0  0  0  0  0  0  0  0  0  0
    6.4906  -20.1884   19.1549 C   0  0  0  0  0  0  0  0  0  0  0  0
    7.5997  -20.0957   19.9277 N   0  0  0  0  0  0  0  0  0  0  0  0
    9.3988  -16.5327   22.7991 C   0  0  0  0  0  0  0  0  0  0  0  0
   10.6535  -16.5893   22.8627 O   0  0  0  0  0  0  0  0  0  0  0  0
   10.6634  -14.6946   31.3919 O   0  0  0  0  0  0  0  0  0  0  0  0
   10.1048  -14.8362   30.1176 C   0  0  0  0  0  0  0  0  0  0  0  0
   10.1563  -13.7938   29.2159 C   0  0  0  0  0  0  0  0  0  0  0  0
    9.6141  -13.9181   27.9668 C   0  0  0  0  0  0  0  0  0  0  0  0
    8.9899  -15.0772   27.5362 C   0  0  0  0  0  0  0  0  0  0  0  0
    8.3914  -15.2082   26.1871 C   0  0  0  0  0  0  0  0  0  0  0  0
    9.3421  -15.8864   25.2524 C   0  0  2  0  0  0  0  0  0  0  0  0
    8.6878  -16.1912   23.9676 N   0  0  0  0  0  0  0  0  0  0  0  0
    9.8477  -17.1761   25.7640 C   0  0  0  0  0  0  0  0  0  0  0  0
    9.1624  -18.2355   25.6830 O   0  0  0  0  0  0  0  0  0  0  0  0
    8.9457  -16.1242   28.4595 C   0  0  0  0  0  0  0  0  0  0  0  0
    9.4923  -16.0015   29.7209 C   0  0  0  0  0  0  0  0  0  0  0  0
   11.0971  -17.3428   26.3668 O   0  0  0  0  0  0  0  0  0  0  0  0
  1  2  1  0
  2  3  2  0
  4  5  1  0
  4  2  1  0
  6  7  1  6
  6  5  1  0
  8  6  1  0
  8  9  2  0
 10  8  1  0
 11 18  1  0
 11 10  1  0
 11 12  1  6
 13 14  2  0
 13 12  1  0
 15 14  1  0
 16 17  2  0
 16 15  1  0
 17 13  1  0
 18 19  2  0
 20 21  1  0
 21 22  2  0
 21 31  1  0
 22 23  1  0
 23 24  2  0
 24 25  1  0
 26 25  1  1
 26 28  1  0
 27 18  1  0
 27 26  1  0
 28 29  2  0
 28 32  1  0
 30 24  1  0
 31 30  2  0
M  END
$$$$
