QHY.pdb
     RDKit          3D

 32 33  0  0  1  0  0  0  0  0999 V2000
    9.3697  -12.4722   17.9215 N   0  0  0  0  0  0  0  0  0  0  0  0
    8.2337  -13.0761   17.2581 C   0  0  0  0  0  0  0  0  0  0  0  0
    7.4219  -12.2785   16.7411 O   0  0  0  0  0  0  0  0  0  0  0  0
    8.1415  -14.5404   17.2497 C   0  0  0  0  0  0  0  0  0  0  0  0
    9.1661  -15.2761   18.0220 C   0  0  0  0  0  0  0  0  0  0  0  0
    8.9888  -16.7496   18.0075 C   0  0  2  0  0  0  0  0  0  0  0  0
    7.8408  -17.2170   17.3165 N   0  0  0  0  0  0  0  0  0  0  0  0
    8.9671  -17.3166   19.4006 C   0  0  0  0  0  0  0  0  0  0  0  0
    7.8948  -17.3986   20.0515 O   0  0  0  0  0  0  0  0  0  0  0  0
   10.1526  -17.7746   20.0223 N   0  0  0  0  0  0  0  0  0  0  0  0
   10.2103  -18.3714   21.3194 C   0  0  1  0  0  0  0  0  0  0  0  0
   11.2543  -19.4616   21.3788 C   0  0  0  0  0  0  0  0  0  0  0  0
   10.7948  -20.7450   20.7964 C   0  0  0  0  0  0  0  0  0  0  0  0
    9.5494  -21.0671   20.2554 C   0  0  0  0  0  0  0  0  0  0  0  0
    9.5453  -22.3254   19.8367 N   0  0  0  0  0  0  0  0  0  0  0  0
   10.7686  -22.8496   20.0886 C   0  0  0  0  0  0  0  0  0  0  0  0
   11.5173  -21.8821   20.6710 N   0  0  0  0  0  0  0  0  0  0  0  0
   10.4667  -17.3988   22.4102 C   0  0  0  0  0  0  0  0  0  0  0  0
   11.2840  -16.4687   22.1902 O   0  0  0  0  0  0  0  0  0  0  0  0
   10.5806  -13.7132   30.4998 O   0  0  0  0  0  0  0  0  0  0  0  0
   10.2059  -14.3836   29.3309 C   0  0  0  0  0  0  0  0  0  0  0  0
    9.5870  -13.7001   28.3051 C   0  0  0  0  0  0  0  0  0  0  0  0
    9.2150  -14.3427   27.1570 C   0  0  0  0  0  0  0  0  0  0  0  0
    9.4317  -15.6958   26.9554 C   0  0  0  0  0  0  0  0  0  0  0  0
    9.0177  -16.3951   25.7164 C   0  0  0  0  0  0  0  0  0  0  0  0
   10.1740  -16.5326   24.7774 C   0  0  2  0  0  0  0  0  0  0  0  0
    9.8493  -17.4566   23.6763 N   0  0  0  0  0  0  0  0  0  0  0  0
   11.3876  -17.0781   25.4177 C   0  0  0  0  0  0  0  0  0  0  0  0
   11.5367  -18.3195   25.6057 O   0  0  0  0  0  0  0  0  0  0  0  0
   10.0595  -16.3747   28.0021 C   0  0  0  0  0  0  0  0  0  0  0  0
   10.4362  -15.7285   29.1620 C   0  0  0  0  0  0  0  0  0  0  0  0
   12.4567  -16.2958   25.8617 O   0  0  0  0  0  0  0  0  0  0  0  0
  1  2  1  0
  2  3  2  0
  4  5  1  0
  4  2  1  0
  6  7  1  1
  6  5  1  0
  8  6  1  0
  8  9  2  0
 10  8  1  0
 11 18  1  0
 11 10  1  0
 11 12  1  6
 13 14  2  0
 13 12  1  0
 15 14  1  0
 16 17  2  0
 16 15  1  0
 17 13  1  0
 18 19  2  0
 20 21  1  0
 21 22  2  0
 21 31  1  0
 22 23  1  0
 23 24  2  0
 24 25  1  0
 26 25  1  1
 26 28  1  0
 27 18  1  0
 27 26  1  0
 28 29  2  0
 28 32  1  0
 30 24  1  0
 31 30  2  0
M  END
$$$$
