QHY.pdb
     RDKit          3D

 32 33  0  0  1  0  0  0  0  0999 V2000
   10.2261  -16.8703   16.4009 N   0  0  0  0  0  0  0  0  0  0  0  0
    9.2398  -17.9096   16.6068 C   0  0  0  0  0  0  0  0  0  0  0  0
    8.4231  -18.0731   15.6747 O   0  0  0  0  0  0  0  0  0  0  0  0
    9.2890  -18.6642   17.8641 C   0  0  0  0  0  0  0  0  0  0  0  0
   10.4193  -18.3716   18.7719 C   0  0  0  0  0  0  0  0  0  0  0  0
   10.0378  -18.2961   20.2043 C   0  0  2  0  0  0  0  0  0  0  0  0
    8.7608  -18.8272   20.5221 N   0  0  0  0  0  0  0  0  0  0  0  0
   10.1058  -16.8846   20.7198 C   0  0  0  0  0  0  0  0  0  0  0  0
   11.1529  -16.1994   20.5999 O   0  0  0  0  0  0  0  0  0  0  0  0
    8.9940  -16.2842   21.3562 N   0  0  0  0  0  0  0  0  0  0  0  0
    8.9572  -14.9336   21.8217 C   0  0  1  0  0  0  0  0  0  0  0  0
    7.7872  -14.1797   21.2344 C   0  0  0  0  0  0  0  0  0  0  0  0
    7.7928  -14.1517   19.7523 C   0  0  0  0  0  0  0  0  0  0  0  0
    8.1937  -13.1257   18.8957 C   0  0  0  0  0  0  0  0  0  0  0  0
    8.0448  -13.5013   17.6325 N   0  0  0  0  0  0  0  0  0  0  0  0
    7.5512  -14.7627   17.6311 C   0  0  0  0  0  0  0  0  0  0  0  0
    7.4022  -15.1461   18.9221 N   0  0  0  0  0  0  0  0  0  0  0  0
    8.9133  -14.8156   23.3001 C   0  0  0  0  0  0  0  0  0  0  0  0
    7.9520  -14.1874   23.8127 O   0  0  0  0  0  0  0  0  0  0  0  0
    6.1533  -10.4792   27.1926 O   0  0  0  0  0  0  0  0  0  0  0  0
    6.6413  -11.7511   26.8762 C   0  0  0  0  0  0  0  0  0  0  0  0
    7.9359  -12.0997   27.2003 C   0  0  0  0  0  0  0  0  0  0  0  0
    8.4265  -13.3394   26.8967 C   0  0  0  0  0  0  0  0  0  0  0  0
    7.6684  -14.3055   26.2559 C   0  0  0  0  0  0  0  0  0  0  0  0
    8.2034  -15.6447   25.9158 C   0  0  0  0  0  0  0  0  0  0  0  0
    9.6645  -15.5652   25.6052 C   0  0  2  0  0  0  0  0  0  0  0  0
    9.8844  -15.3650   24.1619 N   0  0  0  0  0  0  0  0  0  0  0  0
   10.4071  -16.7911   25.9605 C   0  0  0  0  0  0  0  0  0  0  0  0
   10.5688  -17.1424   27.1642 O   0  0  0  0  0  0  0  0  0  0  0  0
    6.3598  -13.9386   25.9343 C   0  0  0  0  0  0  0  0  0  0  0  0
    5.8620  -12.6881   26.2397 C   0  0  0  0  0  0  0  0  0  0  0  0
   10.9830  -17.6554   25.0259 O   0  0  0  0  0  0  0  0  0  0  0  0
  1  2  1  0
  2  3  2  0
  4  5  1  0
  4  2  1  0
  6  7  1  6
  6  5  1  0
  8  6  1  0
  8  9  2  0
 10  8  1  0
 11 18  1  0
 11 10  1  0
 11 12  1  6
 13 14  2  0
 13 12  1  0
 15 14  1  0
 16 17  2  0
 16 15  1  0
 17 13  1  0
 18 19  2  0
 20 21  1  0
 21 22  2  0
 21 31  1  0
 22 23  1  0
 23 24  2  0
 24 25  1  0
 26 25  1  6
 26 28  1  0
 27 18  1  0
 27 26  1  0
 28 29  2  0
 28 32  1  0
 30 24  1  0
 31 30  2  0
M  END
$$$$
