WTH.pdb
     RDKit          3D

 32 34  0  0  1  0  0  0  0  0999 V2000
    8.4678  -16.2700   21.2663 N   0  0  0  0  0  0  0  0  0  0  0  0
    8.7983  -15.9313   22.6288 C   0  0  1  0  0  0  0  0  0  0  0  0
    7.5953  -16.0145   23.5120 C   0  0  0  0  0  0  0  0  0  0  0  0
    6.9556  -14.6898   23.6609 C   0  0  0  0  0  0  0  0  0  0  0  0
    6.1783  -14.0546   22.7062 C   0  0  0  0  0  0  0  0  0  0  0  0
    5.8043  -12.8862   23.2552 N   0  0  0  0  0  0  0  0  0  0  0  0
    6.3078  -12.7648   24.4964 C   0  0  0  0  0  0  0  0  0  0  0  0
    6.2354  -11.7887   25.4788 C   0  0  0  0  0  0  0  0  0  0  0  0
    6.8711  -11.9480   26.6801 C   0  0  0  0  0  0  0  0  0  0  0  0
    7.6060  -13.0879   26.9520 C   0  0  0  0  0  0  0  0  0  0  0  0
    7.6927  -14.0711   25.9927 C   0  0  0  0  0  0  0  0  0  0  0  0
    7.0471  -13.8988   24.7850 C   0  0  0  0  0  0  0  0  0  0  0  0
    9.8220  -16.9167   23.1079 C   0  0  0  0  0  0  0  0  0  0  0  0
    9.7631  -18.1396   22.8229 O   0  0  0  0  0  0  0  0  0  0  0  0
   14.2480  -17.8922   25.0890 C   0  0  0  0  0  0  0  0  0  0  0  0
   13.2498  -16.9318   24.4816 C   0  0  1  0  0  0  0  0  0  0  0  0
   13.7149  -16.7067   23.1759 O   0  0  0  0  0  0  0  0  0  0  0  0
   11.8457  -17.5094   24.4450 C   0  0  2  0  0  0  0  0  0  0  0  0
   10.9190  -16.5133   23.9152 N   0  0  0  0  0  0  0  0  0  0  0  0
   11.4344  -17.7334   25.8541 C   0  0  0  0  0  0  0  0  0  0  0  0
   11.3592  -16.6955   26.5969 O   0  0  0  0  0  0  0  0  0  0  0  0
   11.1213  -18.9654   26.4367 N   0  0  0  0  0  0  0  0  0  0  0  0
   10.8729  -18.9907   27.8897 C   0  0  1  0  0  0  0  0  0  0  0  0
    9.8021  -20.0176   28.2034 C   0  0  0  0  0  0  0  0  0  0  0  0
    8.5511  -19.6485   27.5469 C   0  0  0  0  0  0  0  0  0  0  0  0
    8.2672  -18.4391   26.9614 C   0  0  0  0  0  0  0  0  0  0  0  0
    7.0321  -18.5118   26.4836 N   0  0  0  0  0  0  0  0  0  0  0  0
    6.5175  -19.7250   26.7434 C   0  0  0  0  0  0  0  0  0  0  0  0
    7.4754  -20.4135   27.4031 N   0  0  0  0  0  0  0  0  0  0  0  0
   12.1430  -19.2212   28.5953 C   0  0  0  0  0  0  0  0  0  0  0  0
   12.1922  -19.2115   29.8405 O   0  0  0  0  0  0  0  0  0  0  0  0
   13.2949  -19.4513   27.8738 O   0  0  0  0  0  0  0  0  0  0  0  0
  2  1  1  6
  2 13  1  0
  2  3  1  0
  4  5  2  0
  4  3  1  0
  6  5  1  0
  7 12  2  0
  7  6  1  0
  8  7  1  0
  9 10  1  0
  9  8  2  0
 10 11  2  0
 11 12  1  0
 12  4  1  0
 13 14  2  0
 16 15  1  6
 16 17  1  0
 16 18  1  0
 18 19  1  1
 19 13  1  0
 20 22  1  0
 20 18  1  0
 21 20  2  0
 23 22  1  0
 23 30  1  0
 23 24  1  6
 25 29  1  0
 25 24  1  0
 26 25  2  0
 27 26  1  0
 27 28  1  0
 28 29  2  0
 30 32  1  0
 31 30  2  0
M  END
$$$$
