WTH.pdb
     RDKit          3D

 32 34  0  0  1  0  0  0  0  0999 V2000
    6.3439  -17.3856   24.1061 N   0  0  0  0  0  0  0  0  0  0  0  0
    7.3432  -16.4483   23.6550 C   0  0  1  0  0  0  0  0  0  0  0  0
    7.9892  -15.7521   24.8092 C   0  0  0  0  0  0  0  0  0  0  0  0
    7.0333  -14.8480   25.4839 C   0  0  0  0  0  0  0  0  0  0  0  0
    5.9310  -15.2425   26.2244 C   0  0  0  0  0  0  0  0  0  0  0  0
    5.3501  -14.1081   26.6513 N   0  0  0  0  0  0  0  0  0  0  0  0
    6.0330  -13.0347   26.2151 C   0  0  0  0  0  0  0  0  0  0  0  0
    5.8764  -11.6643   26.3590 C   0  0  0  0  0  0  0  0  0  0  0  0
    6.7565  -10.7891   25.7828 C   0  0  0  0  0  0  0  0  0  0  0  0
    7.8301  -11.2442   25.0387 C   0  0  0  0  0  0  0  0  0  0  0  0
    8.0068  -12.6001   24.8816 C   0  0  0  0  0  0  0  0  0  0  0  0
    7.1123  -13.4728   25.4675 C   0  0  0  0  0  0  0  0  0  0  0  0
    8.3880  -17.2210   22.9069 C   0  0  0  0  0  0  0  0  0  0  0  0
    8.5259  -18.4638   23.0355 O   0  0  0  0  0  0  0  0  0  0  0  0
    9.3619  -16.8890   19.1239 C   0  0  0  0  0  0  0  0  0  0  0  0
   10.6074  -16.8217   19.9796 C   0  0  1  0  0  0  0  0  0  0  0  0
   10.9475  -15.4598   20.0143 O   0  0  0  0  0  0  0  0  0  0  0  0
   10.3659  -17.3374   21.3875 C   0  0  2  0  0  0  0  0  0  0  0  0
    9.2823  -16.5808   22.0079 N   0  0  0  0  0  0  0  0  0  0  0  0
   11.5826  -17.0207   22.1776 C   0  0  0  0  0  0  0  0  0  0  0  0
   11.5238  -15.9826   22.9217 O   0  0  0  0  0  0  0  0  0  0  0  0
   12.7754  -17.7502   22.1844 N   0  0  0  0  0  0  0  0  0  0  0  0
   13.2727  -18.2347   23.4850 C   0  0  1  0  0  0  0  0  0  0  0  0
   12.2555  -19.1778   24.0976 C   0  0  0  0  0  0  0  0  0  0  0  0
   11.7109  -18.5957   25.3210 C   0  0  0  0  0  0  0  0  0  0  0  0
   11.9707  -17.3380   25.8076 C   0  0  0  0  0  0  0  0  0  0  0  0
   11.2846  -17.2010   26.9345 N   0  0  0  0  0  0  0  0  0  0  0  0
   10.5961  -18.3268   27.1844 C   0  0  0  0  0  0  0  0  0  0  0  0
   10.8746  -19.1782   26.1722 N   0  0  0  0  0  0  0  0  0  0  0  0
   14.6044  -18.8329   23.3031 C   0  0  0  0  0  0  0  0  0  0  0  0
   14.7714  -19.7951   22.5290 O   0  0  0  0  0  0  0  0  0  0  0  0
   15.6831  -18.3257   23.9956 O   0  0  0  0  0  0  0  0  0  0  0  0
  2  1  1  1
  2 13  1  0
  2  3  1  0
  4  5  2  0
  4  3  1  0
  6  5  1  0
  7 12  2  0
  7  6  1  0
  8  7  1  0
  9 10  1  0
  9  8  2  0
 10 11  2  0
 11 12  1  0
 12  4  1  0
 13 14  2  0
 16 15  1  6
 16 17  1  0
 16 18  1  0
 18 19  1  1
 19 13  1  0
 20 22  1  0
 20 18  1  0
 21 20  2  0
 23 22  1  0
 23 30  1  0
 23 24  1  6
 25 29  1  0
 25 24  1  0
 26 25  2  0
 27 26  1  0
 27 28  1  0
 28 29  2  0
 30 32  1  0
 31 30  2  0
M  END
$$$$
