WTH.pdb
     RDKit          3D

 32 34  0  0  1  0  0  0  0  0999 V2000
    8.3863  -15.9202   21.1458 N   0  0  0  0  0  0  0  0  0  0  0  0
    8.7449  -15.8358   22.5404 C   0  0  1  0  0  0  0  0  0  0  0  0
    7.5307  -15.8609   23.4117 C   0  0  0  0  0  0  0  0  0  0  0  0
    6.9311  -14.5139   23.5224 C   0  0  0  0  0  0  0  0  0  0  0  0
    6.0973  -13.9201   22.5891 C   0  0  0  0  0  0  0  0  0  0  0  0
    5.7893  -12.7108   23.0884 N   0  0  0  0  0  0  0  0  0  0  0  0
    6.3870  -12.5251   24.2788 C   0  0  0  0  0  0  0  0  0  0  0  0
    6.4084  -11.4884   25.1995 C   0  0  0  0  0  0  0  0  0  0  0  0
    7.1293  -11.5884   26.3584 C   0  0  0  0  0  0  0  0  0  0  0  0
    7.8592  -12.7273   26.6477 C   0  0  0  0  0  0  0  0  0  0  0  0
    7.8536  -13.7701   25.7493 C   0  0  0  0  0  0  0  0  0  0  0  0
    7.1228  -13.6571   24.5839 C   0  0  0  0  0  0  0  0  0  0  0  0
    9.5999  -17.0244   22.8638 C   0  0  0  0  0  0  0  0  0  0  0  0
    9.6295  -18.0492   22.1364 O   0  0  0  0  0  0  0  0  0  0  0  0
   11.8721  -18.3968   21.7884 C   0  0  0  0  0  0  0  0  0  0  0  0
   12.4278  -18.1499   23.1734 C   0  0  1  0  0  0  0  0  0  0  0  0
   13.0199  -16.8786   23.1028 O   0  0  0  0  0  0  0  0  0  0  0  0
   11.3449  -18.1649   24.2381 C   0  0  2  0  0  0  0  0  0  0  0  0
   10.4261  -17.0516   24.0191 N   0  0  0  0  0  0  0  0  0  0  0  0
   12.0116  -17.8879   25.5357 C   0  0  0  0  0  0  0  0  0  0  0  0
   11.9379  -16.6871   25.9686 O   0  0  0  0  0  0  0  0  0  0  0  0
   12.7040  -18.8138   26.3221 N   0  0  0  0  0  0  0  0  0  0  0  0
   11.9278  -19.5907   27.3057 C   0  0  1  0  0  0  0  0  0  0  0  0
   10.8329  -20.3610   26.5935 C   0  0  0  0  0  0  0  0  0  0  0  0
    9.5345  -20.0337   27.1761 C   0  0  0  0  0  0  0  0  0  0  0  0
    9.3012  -19.1316   28.1850 C   0  0  0  0  0  0  0  0  0  0  0  0
    7.9958  -19.1307   28.4200 N   0  0  0  0  0  0  0  0  0  0  0  0
    7.3876  -20.0004   27.5967 C   0  0  0  0  0  0  0  0  0  0  0  0
    8.3595  -20.5492   26.8344 N   0  0  0  0  0  0  0  0  0  0  0  0
   12.8426  -20.4401   28.0842 C   0  0  0  0  0  0  0  0  0  0  0  0
   13.8051  -21.0112   27.5360 O   0  0  0  0  0  0  0  0  0  0  0  0
   12.6360  -20.6087   29.4367 O   0  0  0  0  0  0  0  0  0  0  0  0
  2  1  1  6
  2 13  1  0
  2  3  1  0
  4  5  2  0
  4  3  1  0
  6  5  1  0
  7 12  2  0
  7  6  1  0
  8  7  1  0
  9 10  1  0
  9  8  2  0
 10 11  2  0
 11 12  1  0
 12  4  1  0
 13 14  2  0
 16 15  1  6
 16 17  1  0
 16 18  1  0
 18 19  1  6
 19 13  1  0
 20 22  1  0
 20 18  1  0
 21 20  2  0
 23 22  1  0
 23 30  1  0
 23 24  1  6
 25 29  1  0
 25 24  1  0
 26 25  2  0
 27 26  1  0
 27 28  1  0
 28 29  2  0
 30 32  1  0
 31 30  2  0
M  END
$$$$
