WTH.pdb
     RDKit          3D

 32 34  0  0  1  0  0  0  0  0999 V2000
    6.4510  -17.3558   23.9794 N   0  0  0  0  0  0  0  0  0  0  0  0
    7.5789  -16.5737   23.5360 C   0  0  1  0  0  0  0  0  0  0  0  0
    8.3682  -16.0597   24.6967 C   0  0  0  0  0  0  0  0  0  0  0  0
    7.5261  -15.2266   25.5816 C   0  0  0  0  0  0  0  0  0  0  0  0
    6.6046  -15.6990   26.5018 C   0  0  0  0  0  0  0  0  0  0  0  0
    6.0729  -14.6093   27.0818 N   0  0  0  0  0  0  0  0  0  0  0  0
    6.6153  -13.4899   26.5705 C   0  0  0  0  0  0  0  0  0  0  0  0
    6.4355  -12.1345   26.8020 C   0  0  0  0  0  0  0  0  0  0  0  0
    7.1520  -11.1985   26.1068 C   0  0  0  0  0  0  0  0  0  0  0  0
    8.0783  -11.5755   25.1511 C   0  0  0  0  0  0  0  0  0  0  0  0
    8.2747  -12.9151   24.9033 C   0  0  0  0  0  0  0  0  0  0  0  0
    7.5459  -13.8494   25.6110 C   0  0  0  0  0  0  0  0  0  0  0  0
    8.4555  -17.4661   22.7093 C   0  0  0  0  0  0  0  0  0  0  0  0
    8.1249  -18.6407   22.4071 O   0  0  0  0  0  0  0  0  0  0  0  0
    7.9438  -17.6811   20.0357 C   0  0  0  0  0  0  0  0  0  0  0  0
    9.3740  -17.2380   19.8211 C   0  0  1  0  0  0  0  0  0  0  0  0
    9.3007  -15.8437   19.6718 O   0  0  0  0  0  0  0  0  0  0  0  0
   10.2679  -17.5926   20.9965 C   0  0  2  0  0  0  0  0  0  0  0  0
    9.7149  -17.0245   22.2224 N   0  0  0  0  0  0  0  0  0  0  0  0
   11.5625  -16.8987   20.7789 C   0  0  0  0  0  0  0  0  0  0  0  0
   11.5026  -15.7322   20.2588 O   0  0  0  0  0  0  0  0  0  0  0  0
   12.8301  -17.3993   21.0913 N   0  0  0  0  0  0  0  0  0  0  0  0
   13.7531  -16.5134   21.8241 C   0  0  1  0  0  0  0  0  0  0  0  0
   13.6018  -15.0923   21.3173 C   0  0  0  0  0  0  0  0  0  0  0  0
   14.2387  -14.9598   20.0100 C   0  0  0  0  0  0  0  0  0  0  0  0
   14.7348  -15.9836   19.2408 C   0  0  0  0  0  0  0  0  0  0  0  0
   15.2276  -15.4433   18.1342 N   0  0  0  0  0  0  0  0  0  0  0  0
   15.0636  -14.1106   18.1700 C   0  0  0  0  0  0  0  0  0  0  0  0
   14.4489  -13.8322   19.3411 N   0  0  0  0  0  0  0  0  0  0  0  0
   13.5190  -16.6575   23.2693 C   0  0  0  0  0  0  0  0  0  0  0  0
   12.5672  -17.3388   23.6970 O   0  0  0  0  0  0  0  0  0  0  0  0
   14.3607  -16.0328   24.1648 O   0  0  0  0  0  0  0  0  0  0  0  0
  2  1  1  1
  2 13  1  0
  2  3  1  0
  4  5  2  0
  4  3  1  0
  6  5  1  0
  7 12  2  0
  7  6  1  0
  8  7  1  0
  9 10  1  0
  9  8  2  0
 10 11  2  0
 11 12  1  0
 12  4  1  0
 13 14  2  0
 16 15  1  1
 16 17  1  0
 16 18  1  0
 18 19  1  1
 19 13  1  0
 20 22  1  0
 20 18  1  0
 21 20  2  0
 23 22  1  0
 23 30  1  0
 23 24  1  6
 25 29  1  0
 25 24  1  0
 26 25  2  0
 27 26  1  0
 27 28  1  0
 28 29  2  0
 30 32  1  0
 31 30  2  0
M  END
$$$$
