WTH.pdb
     RDKit          3D

 32 34  0  0  1  0  0  0  0  0999 V2000
    8.8239  -18.0533   21.0520 N   0  0  0  0  0  0  0  0  0  0  0  0
    9.9329  -17.1310   21.0595 C   0  0  1  0  0  0  0  0  0  0  0  0
    9.8407  -16.1864   22.2142 C   0  0  0  0  0  0  0  0  0  0  0  0
    8.6661  -15.2984   22.0787 C   0  0  0  0  0  0  0  0  0  0  0  0
    7.5795  -15.2571   22.9370 C   0  0  0  0  0  0  0  0  0  0  0  0
    6.7566  -14.3164   22.4427 N   0  0  0  0  0  0  0  0  0  0  0  0
    7.2752  -13.7744   21.3264 C   0  0  0  0  0  0  0  0  0  0  0  0
    6.8550  -12.7921   20.4423 C   0  0  0  0  0  0  0  0  0  0  0  0
    7.6182  -12.4417   19.3619 C   0  0  0  0  0  0  0  0  0  0  0  0
    8.8330  -13.0566   19.1179 C   0  0  0  0  0  0  0  0  0  0  0  0
    9.2717  -14.0346   19.9812 C   0  0  0  0  0  0  0  0  0  0  0  0
    8.4930  -14.3792   21.0674 C   0  0  0  0  0  0  0  0  0  0  0  0
   11.1926  -17.9341   21.1879 C   0  0  0  0  0  0  0  0  0  0  0  0
   11.1914  -19.1291   21.5780 O   0  0  0  0  0  0  0  0  0  0  0  0
   13.6373  -18.6905   18.4079 C   0  0  0  0  0  0  0  0  0  0  0  0
   14.3935  -18.0715   19.5625 C   0  0  1  0  0  0  0  0  0  0  0  0
   14.5145  -16.7133   19.2271 O   0  0  0  0  0  0  0  0  0  0  0  0
   13.6538  -18.2217   20.8803 C   0  0  2  0  0  0  0  0  0  0  0  0
   12.4616  -17.3789   20.8726 N   0  0  0  0  0  0  0  0  0  0  0  0
   14.5356  -17.6631   21.9363 C   0  0  0  0  0  0  0  0  0  0  0  0
   14.5002  -16.3949   22.0951 O   0  0  0  0  0  0  0  0  0  0  0  0
   15.3914  -18.3918   22.7679 N   0  0  0  0  0  0  0  0  0  0  0  0
   16.1917  -17.6403   23.7519 C   0  0  1  0  0  0  0  0  0  0  0  0
   16.3835  -18.4819   24.9986 C   0  0  0  0  0  0  0  0  0  0  0  0
   15.1050  -18.6578   25.6817 C   0  0  0  0  0  0  0  0  0  0  0  0
   13.9506  -17.9548   25.4384 C   0  0  0  0  0  0  0  0  0  0  0  0
   13.0245  -18.4166   26.2680 N   0  0  0  0  0  0  0  0  0  0  0  0
   13.5470  -19.3897   27.0324 C   0  0  0  0  0  0  0  0  0  0  0  0
   14.8373  -19.5231   26.6527 N   0  0  0  0  0  0  0  0  0  0  0  0
   17.4512  -17.2095   23.1255 C   0  0  0  0  0  0  0  0  0  0  0  0
   17.7213  -17.5272   21.9512 O   0  0  0  0  0  0  0  0  0  0  0  0
   18.3461  -16.4449   23.8432 O   0  0  0  0  0  0  0  0  0  0  0  0
  2  1  1  1
  2 13  1  0
  2  3  1  0
  4  5  2  0
  4  3  1  0
  6  5  1  0
  7 12  2  0
  7  6  1  0
  8  7  1  0
  9 10  1  0
  9  8  2  0
 10 11  2  0
 11 12  1  0
 12  4  1  0
 13 14  2  0
 16 15  1  6
 16 17  1  0
 16 18  1  0
 18 19  1  6
 19 13  1  0
 20 22  1  0
 20 18  1  0
 21 20  2  0
 23 22  1  0
 23 30  1  0
 23 24  1  1
 25 29  1  0
 25 24  1  0
 26 25  2  0
 27 26  1  0
 27 28  1  0
 28 29  2  0
 30 32  1  0
 31 30  2  0
M  END
$$$$
