EED.pdb
     RDKit          3D

 27 26  0  0  1  0  0  0  0  0999 V2000
   12.7699  -18.9069   15.6247 N   0  0  0  0  0  0  0  0  0  0  0  0
   13.1973  -19.2702   16.9148 C   0  0  1  0  0  0  0  0  0  0  0  0
   14.6582  -19.3166   17.2122 C   0  0  0  0  0  0  0  0  0  0  0  0
   15.3586  -18.0281   16.9536 C   0  0  0  0  0  0  0  0  0  0  0  0
   16.7975  -18.0971   17.2272 C   0  0  0  0  0  0  0  0  0  0  0  0
   17.5650  -18.7859   16.5282 O   0  0  0  0  0  0  0  0  0  0  0  0
   12.5801  -18.4421   18.0192 C   0  0  0  0  0  0  0  0  0  0  0  0
   12.9463  -17.2289   18.1429 O   0  0  0  0  0  0  0  0  0  0  0  0
   17.3151  -17.3651   18.3085 O   0  0  0  0  0  0  0  0  0  0  0  0
   11.6225  -18.9280   18.9272 N   0  0  0  0  0  0  0  0  0  0  0  0
   11.0218  -18.0149   19.8894 C   0  0  1  0  0  0  0  0  0  0  0  0
    9.5443  -18.1724   20.0269 C   0  0  0  0  0  0  0  0  0  0  0  0
    9.1837  -19.6331   19.8243 C   0  0  0  0  0  0  0  0  0  0  0  0
    7.7612  -19.7638   19.4669 C   0  0  0  0  0  0  0  0  0  0  0  0
    7.2789  -20.9128   19.3136 O   0  0  0  0  0  0  0  0  0  0  0  0
   11.6201  -18.2999   21.2561 C   0  0  0  0  0  0  0  0  0  0  0  0
   12.4839  -19.1763   21.3166 O   0  0  0  0  0  0  0  0  0  0  0  0
    7.0031  -18.6235   19.3124 O   0  0  0  0  0  0  0  0  0  0  0  0
   11.2085  -17.5994   22.3938 N   0  0  0  0  0  0  0  0  0  0  0  0
   12.0955  -17.0853   23.4101 C   0  0  1  0  0  0  0  0  0  0  0  0
   13.2161  -16.2870   22.8462 C   0  0  0  0  0  0  0  0  0  0  0  0
   14.4969  -16.7067   23.4405 C   0  0  0  0  0  0  0  0  0  0  0  0
   14.5672  -17.8373   23.9797 O   0  0  0  0  0  0  0  0  0  0  0  0
   11.4236  -16.3883   24.5075 C   0  0  0  0  0  0  0  0  0  0  0  0
   11.7933  -16.5805   25.6899 O   0  0  0  0  0  0  0  0  0  0  0  0
   15.6113  -15.8845   23.4149 O   0  0  0  0  0  0  0  0  0  0  0  0
   10.3788  -15.5023   24.3323 O   0  0  0  0  0  0  0  0  0  0  0  0
  2  1  1  6
  2  7  1  0
  3  2  1  0
  4  3  1  0
  5  6  2  0
  5  4  1  0
  7  8  2  0
  9  5  1  0
 10  7  1  0
 10 11  1  0
 11 12  1  1
 13 12  1  0
 14 13  1  0
 15 14  2  0
 16 11  1  0
 16 17  2  0
 18 14  1  0
 19 16  1  0
 20 19  1  0
 20 21  1  6
 22 21  1  0
 23 22  2  0
 24 20  1  0
 25 24  2  0
 26 22  1  0
 27 24  1  0
M  END
$$$$
