EED.pdb
     RDKit          3D

 27 26  0  0  1  0  0  0  0  0999 V2000
   10.0285  -19.8023   16.1718 N   0  0  0  0  0  0  0  0  0  0  0  0
   10.7409  -18.6085   16.3873 C   0  0  1  0  0  0  0  0  0  0  0  0
   10.6847  -17.5306   15.3579 C   0  0  0  0  0  0  0  0  0  0  0  0
   10.4085  -18.0344   13.9840 C   0  0  0  0  0  0  0  0  0  0  0  0
   10.1574  -16.9569   13.0219 C   0  0  0  0  0  0  0  0  0  0  0  0
    9.1256  -16.9287   12.3242 O   0  0  0  0  0  0  0  0  0  0  0  0
   10.4227  -17.9356   17.7035 C   0  0  0  0  0  0  0  0  0  0  0  0
   10.8053  -16.7336   17.8769 O   0  0  0  0  0  0  0  0  0  0  0  0
   11.1113  -15.9344   12.8890 O   0  0  0  0  0  0  0  0  0  0  0  0
    9.7286  -18.5555   18.7578 N   0  0  0  0  0  0  0  0  0  0  0  0
    9.4234  -17.7917   19.9594 C   0  0  1  0  0  0  0  0  0  0  0  0
    8.2347  -18.2959   20.7071 C   0  0  0  0  0  0  0  0  0  0  0  0
    7.0602  -18.4022   19.7512 C   0  0  0  0  0  0  0  0  0  0  0  0
    5.8760  -18.9263   20.4522 C   0  0  0  0  0  0  0  0  0  0  0  0
    5.9513  -19.1463   21.6859 O   0  0  0  0  0  0  0  0  0  0  0  0
   10.6086  -17.8938   20.9040 C   0  0  0  0  0  0  0  0  0  0  0  0
   11.1502  -18.9958   21.0045 O   0  0  0  0  0  0  0  0  0  0  0  0
    4.7227  -19.1585   19.7347 O   0  0  0  0  0  0  0  0  0  0  0  0
   11.0636  -16.7870   21.6268 N   0  0  0  0  0  0  0  0  0  0  0  0
   12.1335  -16.8193   22.5955 C   0  0  1  0  0  0  0  0  0  0  0  0
   13.2332  -15.8726   22.2706 C   0  0  0  0  0  0  0  0  0  0  0  0
   14.3954  -16.1152   23.1425 C   0  0  0  0  0  0  0  0  0  0  0  0
   14.3491  -17.0717   23.9531 O   0  0  0  0  0  0  0  0  0  0  0  0
   11.6976  -16.6968   23.9870 C   0  0  0  0  0  0  0  0  0  0  0  0
   12.5307  -16.8163   24.9162 O   0  0  0  0  0  0  0  0  0  0  0  0
   15.5245  -15.3152   23.0839 O   0  0  0  0  0  0  0  0  0  0  0  0
   10.3933  -16.4481   24.3666 O   0  0  0  0  0  0  0  0  0  0  0  0
  2  1  1  6
  2  7  1  0
  3  2  1  0
  4  3  1  0
  5  6  2  0
  5  4  1  0
  7  8  2  0
  9  5  1  0
 10  7  1  0
 10 11  1  0
 11 12  1  1
 13 12  1  0
 14 13  1  0
 15 14  2  0
 16 11  1  0
 16 17  2  0
 18 14  1  0
 19 16  1  0
 20 19  1  0
 20 21  1  6
 22 21  1  0
 23 22  2  0
 24 20  1  0
 25 24  2  0
 26 22  1  0
 27 24  1  0
M  END
$$$$
