EED.pdb
     RDKit          3D

 27 26  0  0  1  0  0  0  0  0999 V2000
   14.6500  -16.8558   16.9631 N   0  0  0  0  0  0  0  0  0  0  0  0
   14.8769  -17.7143   18.0542 C   0  0  1  0  0  0  0  0  0  0  0  0
   16.0442  -18.6422   18.0207 C   0  0  0  0  0  0  0  0  0  0  0  0
   17.1374  -18.1898   17.1162 C   0  0  0  0  0  0  0  0  0  0  0  0
   18.2493  -19.1431   17.0454 C   0  0  0  0  0  0  0  0  0  0  0  0
   19.3819  -18.8622   17.4818 O   0  0  0  0  0  0  0  0  0  0  0  0
   14.9569  -17.0026   19.3859 C   0  0  0  0  0  0  0  0  0  0  0  0
   15.5898  -15.8994   19.4456 O   0  0  0  0  0  0  0  0  0  0  0  0
   18.0227  -20.4031   16.4675 O   0  0  0  0  0  0  0  0  0  0  0  0
   14.3757  -17.4838   20.5726 N   0  0  0  0  0  0  0  0  0  0  0  0
   14.4169  -16.6612   21.7734 C   0  0  1  0  0  0  0  0  0  0  0  0
   13.3081  -16.9401   22.7322 C   0  0  0  0  0  0  0  0  0  0  0  0
   13.4081  -15.9709   23.8964 C   0  0  0  0  0  0  0  0  0  0  0  0
   12.3537  -16.2496   24.8858 C   0  0  0  0  0  0  0  0  0  0  0  0
   11.3633  -15.4805   24.9476 O   0  0  0  0  0  0  0  0  0  0  0  0
   15.7135  -16.9541   22.5086 C   0  0  0  0  0  0  0  0  0  0  0  0
   15.9860  -18.1384   22.7114 O   0  0  0  0  0  0  0  0  0  0  0  0
   12.4850  -17.3443   25.7123 O   0  0  0  0  0  0  0  0  0  0  0  0
   16.5589  -15.9259   22.9360 N   0  0  0  0  0  0  0  0  0  0  0  0
   17.7858  -16.1206   23.6713 C   0  0  1  0  0  0  0  0  0  0  0  0
   18.6991  -14.9502   23.5878 C   0  0  0  0  0  0  0  0  0  0  0  0
   19.0982  -14.7075   22.1908 C   0  0  0  0  0  0  0  0  0  0  0  0
   19.2511  -15.6933   21.4298 O   0  0  0  0  0  0  0  0  0  0  0  0
   17.6026  -16.5760   25.0499 C   0  0  0  0  0  0  0  0  0  0  0  0
   18.6003  -16.8747   25.7477 O   0  0  0  0  0  0  0  0  0  0  0  0
   19.3052  -13.4257   21.7088 O   0  0  0  0  0  0  0  0  0  0  0  0
   16.3711  -16.7031   25.6620 O   0  0  0  0  0  0  0  0  0  0  0  0
  2  1  1  6
  2  7  1  0
  3  2  1  0
  4  3  1  0
  5  6  2  0
  5  4  1  0
  7  8  2  0
  9  5  1  0
 10  7  1  0
 10 11  1  0
 11 12  1  1
 13 12  1  0
 14 13  1  0
 15 14  2  0
 16 11  1  0
 16 17  2  0
 18 14  1  0
 19 16  1  0
 20 19  1  0
 20 21  1  1
 22 21  1  0
 23 22  2  0
 24 20  1  0
 25 24  2  0
 26 22  1  0
 27 24  1  0
M  END
$$$$
