EED.pdb
     RDKit          3D

 27 26  0  0  1  0  0  0  0  0999 V2000
   12.8173  -17.2624   19.1707 N   0  0  0  0  0  0  0  0  0  0  0  0
   13.0148  -16.4299   20.2874 C   0  0  1  0  0  0  0  0  0  0  0  0
   12.8044  -14.9600   20.1466 C   0  0  0  0  0  0  0  0  0  0  0  0
   13.0667  -14.4510   18.7719 C   0  0  0  0  0  0  0  0  0  0  0  0
   14.3570  -13.7643   18.6552 C   0  0  0  0  0  0  0  0  0  0  0  0
   15.1011  -13.5962   19.6402 O   0  0  0  0  0  0  0  0  0  0  0  0
   12.2207  -16.8430   21.5061 C   0  0  0  0  0  0  0  0  0  0  0  0
   12.2572  -16.0936   22.5348 O   0  0  0  0  0  0  0  0  0  0  0  0
   14.7558  -13.2857   17.3963 O   0  0  0  0  0  0  0  0  0  0  0  0
   11.4403  -18.0104   21.5795 N   0  0  0  0  0  0  0  0  0  0  0  0
   10.6313  -18.2562   22.7650 C   0  0  1  0  0  0  0  0  0  0  0  0
    9.4574  -19.1439   22.5191 C   0  0  0  0  0  0  0  0  0  0  0  0
    8.7419  -19.3904   23.8351 C   0  0  0  0  0  0  0  0  0  0  0  0
    7.5536  -20.2333   23.6211 C   0  0  0  0  0  0  0  0  0  0  0  0
    6.7844  -20.4516   24.5890 O   0  0  0  0  0  0  0  0  0  0  0  0
   11.4981  -18.9552   23.7981 C   0  0  0  0  0  0  0  0  0  0  0  0
   12.5228  -19.5038   23.3893 O   0  0  0  0  0  0  0  0  0  0  0  0
    7.3215  -20.7557   22.3673 O   0  0  0  0  0  0  0  0  0  0  0  0
   11.1483  -18.9754   25.1515 N   0  0  0  0  0  0  0  0  0  0  0  0
   12.0705  -19.2101   26.2371 C   0  0  1  0  0  0  0  0  0  0  0  0
   13.3636  -18.4980   26.0582 C   0  0  0  0  0  0  0  0  0  0  0  0
   14.4721  -19.4625   25.9537 C   0  0  0  0  0  0  0  0  0  0  0  0
   15.1795  -19.6768   26.9675 O   0  0  0  0  0  0  0  0  0  0  0  0
   11.5069  -18.9968   27.5705 C   0  0  0  0  0  0  0  0  0  0  0  0
   10.4080  -18.4070   27.6980 O   0  0  0  0  0  0  0  0  0  0  0  0
   14.7437  -20.1284   24.7701 O   0  0  0  0  0  0  0  0  0  0  0  0
   12.1139  -19.4131   28.7391 O   0  0  0  0  0  0  0  0  0  0  0  0
  2  1  1  6
  2  7  1  0
  3  2  1  0
  4  3  1  0
  5  6  2  0
  5  4  1  0
  7  8  2  0
  9  5  1  0
 10  7  1  0
 10 11  1  0
 11 12  1  6
 13 12  1  0
 14 13  1  0
 15 14  2  0
 16 11  1  0
 16 17  2  0
 18 14  1  0
 19 16  1  0
 20 19  1  0
 20 21  1  6
 22 21  1  0
 23 22  2  0
 24 20  1  0
 25 24  2  0
 26 22  1  0
 27 24  1  0
M  END
$$$$
