EED.pdb
     RDKit          3D

 27 26  0  0  1  0  0  0  0  0999 V2000
    9.2761  -12.9914   17.7121 N   0  0  0  0  0  0  0  0  0  0  0  0
    9.2816  -14.3982   17.7126 C   0  0  1  0  0  0  0  0  0  0  0  0
    9.1179  -15.1278   16.4220 C   0  0  0  0  0  0  0  0  0  0  0  0
    8.4605  -14.3169   15.3600 C   0  0  0  0  0  0  0  0  0  0  0  0
    8.1600  -15.0944   14.1537 C   0  0  0  0  0  0  0  0  0  0  0  0
    7.9631  -16.3238   14.1987 O   0  0  0  0  0  0  0  0  0  0  0  0
   10.4980  -15.0046   18.3751 C   0  0  0  0  0  0  0  0  0  0  0  0
   10.5381  -16.2683   18.5264 O   0  0  0  0  0  0  0  0  0  0  0  0
    8.0958  -14.4276   12.9191 O   0  0  0  0  0  0  0  0  0  0  0  0
   11.5955  -14.2590   18.8409 N   0  0  0  0  0  0  0  0  0  0  0  0
   12.7034  -14.9465   19.4893 C   0  0  1  0  0  0  0  0  0  0  0  0
   14.0255  -14.2869   19.2809 C   0  0  0  0  0  0  0  0  0  0  0  0
   14.6031  -14.7491   17.9552 C   0  0  0  0  0  0  0  0  0  0  0  0
   15.9503  -14.1873   17.7606 C   0  0  0  0  0  0  0  0  0  0  0  0
   16.8981  -14.6349   18.4516 O   0  0  0  0  0  0  0  0  0  0  0  0
   12.4503  -14.9533   20.9870 C   0  0  0  0  0  0  0  0  0  0  0  0
   11.4752  -14.3185   21.3922 O   0  0  0  0  0  0  0  0  0  0  0  0
   16.1302  -13.1896   16.8273 O   0  0  0  0  0  0  0  0  0  0  0  0
   13.2868  -15.6480   21.8657 N   0  0  0  0  0  0  0  0  0  0  0  0
   12.8530  -16.2807   23.0886 C   0  0  1  0  0  0  0  0  0  0  0  0
   11.6492  -17.1331   22.9004 C   0  0  0  0  0  0  0  0  0  0  0  0
   11.2410  -17.7371   24.1803 C   0  0  0  0  0  0  0  0  0  0  0  0
   11.1900  -18.9878   24.2652 O   0  0  0  0  0  0  0  0  0  0  0  0
   13.9106  -16.9792   23.8201 C   0  0  0  0  0  0  0  0  0  0  0  0
   13.7385  -18.1655   24.1872 O   0  0  0  0  0  0  0  0  0  0  0  0
   10.9163  -16.9576   25.2782 O   0  0  0  0  0  0  0  0  0  0  0  0
   15.1268  -16.4114   24.1451 O   0  0  0  0  0  0  0  0  0  0  0  0
  2  1  1  6
  2  7  1  0
  3  2  1  0
  4  3  1  0
  5  6  2  0
  5  4  1  0
  7  8  2  0
  9  5  1  0
 10  7  1  0
 10 11  1  0
 11 12  1  1
 13 12  1  0
 14 13  1  0
 15 14  2  0
 16 11  1  0
 16 17  2  0
 18 14  1  0
 19 16  1  0
 20 19  1  0
 20 21  1  6
 22 21  1  0
 23 22  2  0
 24 20  1  0
 25 24  2  0
 26 22  1  0
 27 24  1  0
M  END
$$$$
