EED.pdb
     RDKit          3D

 27 26  0  0  1  0  0  0  0  0999 V2000
    7.8846  -14.0328   17.5273 N   0  0  0  0  0  0  0  0  0  0  0  0
    8.8316  -13.4801   18.4086 C   0  0  1  0  0  0  0  0  0  0  0  0
    8.3994  -13.0617   19.7735 C   0  0  0  0  0  0  0  0  0  0  0  0
    7.8595  -14.1804   20.5950 C   0  0  0  0  0  0  0  0  0  0  0  0
    7.5202  -13.7714   21.9616 C   0  0  0  0  0  0  0  0  0  0  0  0
    7.6262  -12.5881   22.3367 O   0  0  0  0  0  0  0  0  0  0  0  0
   10.0547  -14.3453   18.6129 C   0  0  0  0  0  0  0  0  0  0  0  0
    9.9392  -15.6036   18.4559 O   0  0  0  0  0  0  0  0  0  0  0  0
    7.0659  -14.7462   22.8650 O   0  0  0  0  0  0  0  0  0  0  0  0
   11.3208  -13.8482   18.9700 N   0  0  0  0  0  0  0  0  0  0  0  0
   12.4357  -14.7729   19.1191 C   0  0  1  0  0  0  0  0  0  0  0  0
   13.7383  -14.2275   18.6371 C   0  0  0  0  0  0  0  0  0  0  0  0
   14.7997  -15.3058   18.7604 C   0  0  0  0  0  0  0  0  0  0  0  0
   15.9333  -15.0122   17.8675 C   0  0  0  0  0  0  0  0  0  0  0  0
   16.6932  -15.9512   17.5255 O   0  0  0  0  0  0  0  0  0  0  0  0
   12.6100  -15.0764   20.5973 C   0  0  0  0  0  0  0  0  0  0  0  0
   12.5755  -14.1194   21.3724 O   0  0  0  0  0  0  0  0  0  0  0  0
   16.1253  -13.7183   17.4342 O   0  0  0  0  0  0  0  0  0  0  0  0
   12.8014  -16.3828   21.0568 N   0  0  0  0  0  0  0  0  0  0  0  0
   12.8756  -16.7642   22.4471 C   0  0  1  0  0  0  0  0  0  0  0  0
   12.1539  -18.0319   22.7358 C   0  0  0  0  0  0  0  0  0  0  0  0
   12.2643  -18.3731   24.1645 C   0  0  0  0  0  0  0  0  0  0  0  0
   12.9710  -17.6455   24.9029 O   0  0  0  0  0  0  0  0  0  0  0  0
   14.2278  -16.7633   23.0065 C   0  0  0  0  0  0  0  0  0  0  0  0
   15.2189  -16.8749   22.2469 O   0  0  0  0  0  0  0  0  0  0  0  0
   11.6097  -19.4699   24.7000 O   0  0  0  0  0  0  0  0  0  0  0  0
   14.5039  -16.6418   24.3542 O   0  0  0  0  0  0  0  0  0  0  0  0
  2  1  1  1
  2  7  1  0
  3  2  1  0
  4  3  1  0
  5  6  2  0
  5  4  1  0
  7  8  2  0
  9  5  1  0
 10  7  1  0
 10 11  1  0
 11 12  1  1
 13 12  1  0
 14 13  1  0
 15 14  2  0
 16 11  1  0
 16 17  2  0
 18 14  1  0
 19 16  1  0
 20 19  1  0
 20 21  1  6
 22 21  1  0
 23 22  2  0
 24 20  1  0
 25 24  2  0
 26 22  1  0
 27 24  1  0
M  END
$$$$
