EED.pdb
     RDKit          3D

 27 26  0  0  1  0  0  0  0  0999 V2000
   13.1350  -20.9932   16.6830 N   0  0  0  0  0  0  0  0  0  0  0  0
   13.9374  -19.8723   16.9638 C   0  0  1  0  0  0  0  0  0  0  0  0
   14.4663  -19.0537   15.8346 C   0  0  0  0  0  0  0  0  0  0  0  0
   13.5286  -18.9547   14.6820 C   0  0  0  0  0  0  0  0  0  0  0  0
   14.0648  -18.1510   13.5789 C   0  0  0  0  0  0  0  0  0  0  0  0
   14.7360  -18.6619   12.6621 O   0  0  0  0  0  0  0  0  0  0  0  0
   13.3013  -18.8891   17.9203 C   0  0  0  0  0  0  0  0  0  0  0  0
   13.8808  -17.7721   18.1145 O   0  0  0  0  0  0  0  0  0  0  0  0
   13.8111  -16.7696   13.5645 O   0  0  0  0  0  0  0  0  0  0  0  0
   12.1037  -19.1299   18.6169 N   0  0  0  0  0  0  0  0  0  0  0  0
   11.5389  -18.0793   19.4522 C   0  0  1  0  0  0  0  0  0  0  0  0
   10.1251  -18.3288   19.8589 C   0  0  0  0  0  0  0  0  0  0  0  0
    9.2101  -17.9823   18.6982 C   0  0  0  0  0  0  0  0  0  0  0  0
    7.8093  -18.2734   19.0466 C   0  0  0  0  0  0  0  0  0  0  0  0
    7.5040  -18.4178   20.2558 O   0  0  0  0  0  0  0  0  0  0  0  0
   12.3531  -17.9972   20.7318 C   0  0  0  0  0  0  0  0  0  0  0  0
   12.8107  -19.0529   21.1721 O   0  0  0  0  0  0  0  0  0  0  0  0
    6.8771  -18.3777   18.0372 O   0  0  0  0  0  0  0  0  0  0  0  0
   12.5726  -16.7784   21.3807 N   0  0  0  0  0  0  0  0  0  0  0  0
   13.3072  -16.6224   22.6135 C   0  0  1  0  0  0  0  0  0  0  0  0
   14.4359  -15.6618   22.4937 C   0  0  0  0  0  0  0  0  0  0  0  0
   15.4715  -15.9565   23.4989 C   0  0  0  0  0  0  0  0  0  0  0  0
   15.2920  -16.9208   24.2812 O   0  0  0  0  0  0  0  0  0  0  0  0
   12.4758  -16.3481   23.7861 C   0  0  0  0  0  0  0  0  0  0  0  0
   11.3770  -15.7600   23.6499 O   0  0  0  0  0  0  0  0  0  0  0  0
   16.6256  -15.1967   23.5942 O   0  0  0  0  0  0  0  0  0  0  0  0
   12.8210  -16.7030   25.0753 O   0  0  0  0  0  0  0  0  0  0  0  0
  2  1  1  6
  2  7  1  0
  3  2  1  0
  4  3  1  0
  5  6  2  0
  5  4  1  0
  7  8  2  0
  9  5  1  0
 10  7  1  0
 10 11  1  0
 11 12  1  1
 13 12  1  0
 14 13  1  0
 15 14  2  0
 16 11  1  0
 16 17  2  0
 18 14  1  0
 19 16  1  0
 20 19  1  0
 20 21  1  6
 22 21  1  0
 23 22  2  0
 24 20  1  0
 25 24  2  0
 26 22  1  0
 27 24  1  0
M  END
$$$$
