EED.pdb
     RDKit          3D

 27 26  0  0  1  0  0  0  0  0999 V2000
    8.2478  -13.0635   19.5197 N   0  0  0  0  0  0  0  0  0  0  0  0
    8.3209  -14.3796   19.0284 C   0  0  1  0  0  0  0  0  0  0  0  0
    7.9333  -14.6519   17.6140 C   0  0  0  0  0  0  0  0  0  0  0  0
    8.5650  -13.7240   16.6354 C   0  0  0  0  0  0  0  0  0  0  0  0
    8.1892  -14.0165   15.2486 C   0  0  0  0  0  0  0  0  0  0  0  0
    7.3265  -13.3473   14.6486 O   0  0  0  0  0  0  0  0  0  0  0  0
    9.6743  -15.0276   19.2146 C   0  0  0  0  0  0  0  0  0  0  0  0
    9.8455  -16.2096   18.7732 O   0  0  0  0  0  0  0  0  0  0  0  0
    8.8226  -15.0818   14.5877 O   0  0  0  0  0  0  0  0  0  0  0  0
   10.7643  -14.4068   19.8503 N   0  0  0  0  0  0  0  0  0  0  0  0
   12.0380  -15.1078   19.9323 C   0  0  1  0  0  0  0  0  0  0  0  0
   13.1912  -14.3246   19.4003 C   0  0  0  0  0  0  0  0  0  0  0  0
   13.7980  -15.0753   18.2286 C   0  0  0  0  0  0  0  0  0  0  0  0
   15.0780  -14.4622   17.8360 C   0  0  0  0  0  0  0  0  0  0  0  0
   15.0661  -13.5021   17.0272 O   0  0  0  0  0  0  0  0  0  0  0  0
   12.3369  -15.3854   21.3955 C   0  0  0  0  0  0  0  0  0  0  0  0
   11.9700  -14.5384   22.2116 O   0  0  0  0  0  0  0  0  0  0  0  0
   16.2482  -14.9592   18.3675 O   0  0  0  0  0  0  0  0  0  0  0  0
   12.9988  -16.5494   21.7974 N   0  0  0  0  0  0  0  0  0  0  0  0
   13.3176  -16.8850   23.1648 C   0  0  1  0  0  0  0  0  0  0  0  0
   13.1058  -18.3251   23.4686 C   0  0  0  0  0  0  0  0  0  0  0  0
   13.4672  -18.6146   24.8670 C   0  0  0  0  0  0  0  0  0  0  0  0
   14.6593  -18.9016   25.1323 O   0  0  0  0  0  0  0  0  0  0  0  0
   14.6282  -16.4162   23.6162 C   0  0  0  0  0  0  0  0  0  0  0  0
   15.5227  -16.1569   22.7770 O   0  0  0  0  0  0  0  0  0  0  0  0
   12.5250  -18.5762   25.8814 O   0  0  0  0  0  0  0  0  0  0  0  0
   14.9645  -16.2289   24.9425 O   0  0  0  0  0  0  0  0  0  0  0  0
  2  1  1  6
  2  7  1  0
  3  2  1  0
  4  3  1  0
  5  6  2  0
  5  4  1  0
  7  8  2  0
  9  5  1  0
 10  7  1  0
 10 11  1  0
 11 12  1  1
 13 12  1  0
 14 13  1  0
 15 14  2  0
 16 11  1  0
 16 17  2  0
 18 14  1  0
 19 16  1  0
 20 19  1  0
 20 21  1  6
 22 21  1  0
 23 22  2  0
 24 20  1  0
 25 24  2  0
 26 22  1  0
 27 24  1  0
M  END
$$$$
