TQE.pdb
     RDKit          3D

 26 25  0  0  1  0  0  0  0  0999 V2000
    7.4599  -18.5208   23.7167 C   0  0  0  0  0  0  0  0  0  0  0  0
    6.9892  -19.4953   22.6724 C   0  0  1  0  0  0  0  0  0  0  0  0
    5.9639  -20.2741   23.2029 O   0  0  0  0  0  0  0  0  0  0  0  0
    6.5029  -18.7746   21.4104 C   0  0  2  0  0  0  0  0  0  0  0  0
    5.9781  -19.7708   20.5188 N   0  0  0  0  0  0  0  0  0  0  0  0
    7.6688  -18.0574   20.8396 C   0  0  0  0  0  0  0  0  0  0  0  0
    8.5032  -18.7375   20.1880 O   0  0  0  0  0  0  0  0  0  0  0  0
    7.6830  -12.3327   18.6763 N   0  0  0  0  0  0  0  0  0  0  0  0
    9.0899  -12.5363   18.8299 C   0  0  0  0  0  0  0  0  0  0  0  0
    9.8725  -11.6691   18.3747 O   0  0  0  0  0  0  0  0  0  0  0  0
    9.6478  -13.7229   19.4995 C   0  0  0  0  0  0  0  0  0  0  0  0
    8.6098  -14.6612   19.9835 C   0  0  0  0  0  0  0  0  0  0  0  0
    9.0943  -15.9930   20.4810 C   0  0  2  0  0  0  0  0  0  0  0  0
    7.8951  -16.6827   20.9805 N   0  0  0  0  0  0  0  0  0  0  0  0
   10.0583  -15.9112   21.5708 C   0  0  0  0  0  0  0  0  0  0  0  0
    9.7291  -15.4480   22.6853 O   0  0  0  0  0  0  0  0  0  0  0  0
   11.3839  -16.3569   21.3799 N   0  0  0  0  0  0  0  0  0  0  0  0
   12.4031  -16.3116   22.4007 C   0  0  1  0  0  0  0  0  0  0  0  0
   12.7437  -17.7634   22.7533 C   0  0  0  0  0  0  0  0  0  0  0  0
   13.8205  -17.7409   23.7999 C   0  0  0  0  0  0  0  0  0  0  0  0
   14.0962  -19.1204   24.2351 C   0  0  0  0  0  0  0  0  0  0  0  0
   14.9837  -19.3604   25.0779 O   0  0  0  0  0  0  0  0  0  0  0  0
   13.6537  -15.7058   21.8827 C   0  0  0  0  0  0  0  0  0  0  0  0
   13.8436  -15.6675   20.6407 O   0  0  0  0  0  0  0  0  0  0  0  0
   13.3437  -20.1598   23.6858 O   0  0  0  0  0  0  0  0  0  0  0  0
   14.6318  -15.1755   22.7001 O   0  0  0  0  0  0  0  0  0  0  0  0
  2  1  1  1
  3  2  1  0
  4  6  1  0
  4  2  1  0
  4  5  1  6
  6  7  2  0
  8  9  1  0
  9 10  2  0
  9 11  1  0
 11 12  1  0
 13 12  1  1
 14 13  1  0
 14  6  1  0
 15 17  1  0
 15 13  1  0
 16 15  2  0
 18 19  1  6
 18 17  1  0
 19 20  1  0
 20 21  1  0
 21 22  2  0
 23 18  1  0
 23 26  1  0
 24 23  2  0
 25 21  1  0
M  END
$$$$
