TQE.pdb
     RDKit          3D

 26 25  0  0  1  0  0  0  0  0999 V2000
    9.0247  -19.8311   18.4007 C   0  0  0  0  0  0  0  0  0  0  0  0
    9.9961  -19.6593   17.2655 C   0  0  1  0  0  0  0  0  0  0  0  0
    9.7167  -20.6007   16.2782 O   0  0  0  0  0  0  0  0  0  0  0  0
    9.9288  -18.2454   16.6780 C   0  0  2  0  0  0  0  0  0  0  0  0
   10.8458  -18.1920   15.5739 N   0  0  0  0  0  0  0  0  0  0  0  0
   10.2904  -17.3027   17.7643 C   0  0  0  0  0  0  0  0  0  0  0  0
   11.5146  -17.0835   17.9554 O   0  0  0  0  0  0  0  0  0  0  0  0
    6.3461  -13.0111   19.9729 N   0  0  0  0  0  0  0  0  0  0  0  0
    7.4408  -12.8734   20.8823 C   0  0  0  0  0  0  0  0  0  0  0  0
    7.3849  -11.9733   21.7531 O   0  0  0  0  0  0  0  0  0  0  0  0
    8.6250  -13.7467   20.8308 C   0  0  0  0  0  0  0  0  0  0  0  0
    8.5643  -14.7476   19.7415 C   0  0  0  0  0  0  0  0  0  0  0  0
    9.7272  -15.6927   19.6385 C   0  0  2  0  0  0  0  0  0  0  0  0
    9.3611  -16.6482   18.5821 N   0  0  0  0  0  0  0  0  0  0  0  0
    9.9983  -16.4446   20.8571 C   0  0  0  0  0  0  0  0  0  0  0  0
    9.3388  -17.4696   21.1387 O   0  0  0  0  0  0  0  0  0  0  0  0
   11.0154  -16.0217   21.7398 N   0  0  0  0  0  0  0  0  0  0  0  0
   11.4076  -16.7488   22.9231 C   0  0  1  0  0  0  0  0  0  0  0  0
   12.7697  -16.1947   23.3541 C   0  0  0  0  0  0  0  0  0  0  0  0
   13.8327  -17.0237   22.6920 C   0  0  0  0  0  0  0  0  0  0  0  0
   15.1536  -16.4605   23.0182 C   0  0  0  0  0  0  0  0  0  0  0  0
   15.7888  -15.7909   22.1792 O   0  0  0  0  0  0  0  0  0  0  0  0
   10.4773  -16.4846   24.0473 C   0  0  0  0  0  0  0  0  0  0  0  0
    9.6151  -15.5780   23.9250 O   0  0  0  0  0  0  0  0  0  0  0  0
   15.6853  -16.6898   24.2882 O   0  0  0  0  0  0  0  0  0  0  0  0
   10.5072  -17.1885   25.2346 O   0  0  0  0  0  0  0  0  0  0  0  0
  2  1  1  1
  3  2  1  0
  4  6  1  0
  4  2  1  0
  4  5  1  6
  6  7  2  0
  8  9  1  0
  9 10  2  0
  9 11  1  0
 11 12  1  0
 13 12  1  1
 14 13  1  0
 14  6  1  0
 15 17  1  0
 15 13  1  0
 16 15  2  0
 18 19  1  1
 18 17  1  0
 19 20  1  0
 20 21  1  0
 21 22  2  0
 23 18  1  0
 23 26  1  0
 24 23  2  0
 25 21  1  0
M  END
$$$$
