TQE.pdb
     RDKit          3D

 26 25  0  0  1  0  0  0  0  0999 V2000
127303.8438436387.0312420308.5312 C   0  0  0  0  0  0  0  0  0  0  0  0
127304.2344436387.4062420309.9062 C   0  0  1  0  0  0  0  0  0  0  0  0
127303.1094436387.5000420310.7188 O   0  0  0  0  0  0  0  0  0  0  0  0
127305.1719436386.3438420310.5625 C   0  0  2  0  0  0  0  0  0  0  0  0
127306.5156436386.7500420310.3125 N   0  0  0  0  0  0  0  0  0  0  0  0
127304.8281436385.0312420309.9375 C   0  0  0  0  0  0  0  0  0  0  0  0
127303.7500436384.9375420309.3125 O   0  0  0  0  0  0  0  0  0  0  0  0
127302.8594436379.6562420311.6562 N   0  0  0  0  0  0  0  0  0  0  0  0
127302.3750436380.6562420310.7500 C   0  0  0  0  0  0  0  0  0  0  0  0
127301.2812436381.1562420311.0312 O   0  0  0  0  0  0  0  0  0  0  0  0
127303.1562436381.1562420309.6250 C   0  0  0  0  0  0  0  0  0  0  0  0
127303.7812436382.4375420309.8125 C   0  0  0  0  0  0  0  0  0  0  0  0
127305.2500436382.5625420309.5312 C   0  0  2  0  0  0  0  0  0  0  0  0
127305.6562436383.8750420310.0000 N   0  0  0  0  0  0  0  0  0  0  0  0
127305.5781436382.4688420308.1250 C   0  0  0  0  0  0  0  0  0  0  0  0
127305.7656436381.3438420307.5625 O   0  0  0  0  0  0  0  0  0  0  0  0
127305.7031436383.6250420307.3438 N   0  0  0  0  0  0  0  0  0  0  0  0
127306.7500436383.8125420306.3750 C   0  0  1  0  0  0  0  0  0  0  0  0
127306.1406436384.6875420305.2188 C   0  0  0  0  0  0  0  0  0  0  0  0
127305.7969436383.7500420304.1562 C   0  0  0  0  0  0  0  0  0  0  0  0
127304.9219436384.4062420303.1562 C   0  0  0  0  0  0  0  0  0  0  0  0
127304.5938436385.5938420303.2812 O   0  0  0  0  0  0  0  0  0  0  0  0
127307.8438436384.6875420306.9375 C   0  0  0  0  0  0  0  0  0  0  0  0
127309.0000436384.1562420307.0000 O   0  0  0  0  0  0  0  0  0  0  0  0
127304.4219436383.6562420302.0625 O   0  0  0  0  0  0  0  0  0  0  0  0
127307.6562436385.9062420307.4062 O   0  0  0  0  0  0  0  0  0  0  0  0
  2  1  1  6
  3  2  1  0
  4  6  1  0
  4  2  1  0
  4  5  1  6
  6  7  2  0
  8  9  1  0
  9 10  2  0
  9 11  1  0
 11 12  1  0
 13 12  1  6
 14 13  1  0
 14  6  1  0
 15 17  1  0
 15 13  1  0
 16 15  2  0
 18 19  1  6
 18 17  1  0
 19 20  1  0
 20 21  1  0
 21 22  2  0
 23 18  1  0
 23 26  1  0
 24 23  2  0
 25 21  1  0
M  END
$$$$
