TQE.pdb
     RDKit          3D

 26 25  0  0  1  0  0  0  0  0999 V2000
    7.4009  -16.3612   19.8303 C   0  0  0  0  0  0  0  0  0  0  0  0
    8.0165  -15.2128   19.0794 C   0  0  1  0  0  0  0  0  0  0  0  0
    7.6310  -15.2812   17.7430 O   0  0  0  0  0  0  0  0  0  0  0  0
    7.6021  -13.8641   19.6778 C   0  0  2  0  0  0  0  0  0  0  0  0
    7.9543  -12.8442   18.7299 N   0  0  0  0  0  0  0  0  0  0  0  0
    8.3224  -13.7173   20.9658 C   0  0  0  0  0  0  0  0  0  0  0  0
    9.4886  -13.2466   20.9253 O   0  0  0  0  0  0  0  0  0  0  0  0
    5.3269  -13.1943   26.4613 N   0  0  0  0  0  0  0  0  0  0  0  0
    6.6927  -12.8793   26.7439 C   0  0  0  0  0  0  0  0  0  0  0  0
    6.9517  -12.2140   27.7745 O   0  0  0  0  0  0  0  0  0  0  0  0
    7.7987  -13.3059   25.8708 C   0  0  0  0  0  0  0  0  0  0  0  0
    7.4228  -13.3639   24.4399 C   0  0  0  0  0  0  0  0  0  0  0  0
    8.4808  -13.8509   23.4916 C   0  0  2  0  0  0  0  0  0  0  0  0
    7.7884  -14.0672   22.2122 N   0  0  0  0  0  0  0  0  0  0  0  0
    9.1082  -15.1056   23.8864 C   0  0  0  0  0  0  0  0  0  0  0  0
    8.4245  -16.1394   24.0558 O   0  0  0  0  0  0  0  0  0  0  0  0
   10.5044  -15.1690   24.0836 N   0  0  0  0  0  0  0  0  0  0  0  0
   11.1754  -16.2646   24.7412 C   0  0  1  0  0  0  0  0  0  0  0  0
   10.5451  -16.4016   26.1312 C   0  0  0  0  0  0  0  0  0  0  0  0
    9.7659  -17.6853   26.1572 C   0  0  0  0  0  0  0  0  0  0  0  0
   10.0403  -18.3881   27.4217 C   0  0  0  0  0  0  0  0  0  0  0  0
    9.4411  -19.4431   27.7108 O   0  0  0  0  0  0  0  0  0  0  0  0
   10.9201  -17.5469   24.0413 C   0  0  0  0  0  0  0  0  0  0  0  0
    9.9953  -17.6041   23.1917 O   0  0  0  0  0  0  0  0  0  0  0  0
   10.9869  -17.8510   28.2957 O   0  0  0  0  0  0  0  0  0  0  0  0
   11.6515  -18.6942   24.2749 O   0  0  0  0  0  0  0  0  0  0  0  0
  2  1  1  1
  3  2  1  0
  4  6  1  0
  4  2  1  0
  4  5  1  6
  6  7  2  0
  8  9  1  0
  9 10  2  0
  9 11  1  0
 11 12  1  0
 13 12  1  1
 14 13  1  0
 14  6  1  0
 15 17  1  0
 15 13  1  0
 16 15  2  0
 18 19  1  1
 18 17  1  0
 19 20  1  0
 20 21  1  0
 21 22  2  0
 23 18  1  0
 23 26  1  0
 24 23  2  0
 25 21  1  0
M  END
$$$$
