TQE.pdb
     RDKit          3D

 26 25  0  0  1  0  0  0  0  0999 V2000
    7.5287  -17.7637   21.9164 C   0  0  0  0  0  0  0  0  0  0  0  0
    8.0642  -18.7837   20.9496 C   0  0  1  0  0  0  0  0  0  0  0  0
    7.6213  -20.0486   21.3275 O   0  0  0  0  0  0  0  0  0  0  0  0
    7.6252  -18.4803   19.5129 C   0  0  2  0  0  0  0  0  0  0  0  0
    7.8377  -19.6693   18.7358 N   0  0  0  0  0  0  0  0  0  0  0  0
    8.4416  -17.3367   19.0384 C   0  0  0  0  0  0  0  0  0  0  0  0
    8.2222  -16.9139   17.8738 O   0  0  0  0  0  0  0  0  0  0  0  0
    8.9463  -12.0042   18.0469 N   0  0  0  0  0  0  0  0  0  0  0  0
    8.2551  -13.1019   17.4454 C   0  0  0  0  0  0  0  0  0  0  0  0
    7.7848  -12.9527   16.2929 O   0  0  0  0  0  0  0  0  0  0  0  0
    8.0768  -14.3933   18.1295 C   0  0  0  0  0  0  0  0  0  0  0  0
    8.7748  -14.4637   19.4333 C   0  0  0  0  0  0  0  0  0  0  0  0
    9.9708  -15.3697   19.5015 C   0  0  2  0  0  0  0  0  0  0  0  0
    9.4322  -16.7052   19.8005 N   0  0  0  0  0  0  0  0  0  0  0  0
   10.9277  -15.0218   20.5442 C   0  0  0  0  0  0  0  0  0  0  0  0
   11.4869  -13.9028   20.5544 O   0  0  0  0  0  0  0  0  0  0  0  0
   11.2365  -15.9502   21.5616 N   0  0  0  0  0  0  0  0  0  0  0  0
   12.2004  -15.7066   22.6078 C   0  0  1  0  0  0  0  0  0  0  0  0
   11.8584  -16.6599   23.7578 C   0  0  0  0  0  0  0  0  0  0  0  0
   10.3649  -16.6727   23.9145 C   0  0  0  0  0  0  0  0  0  0  0  0
   10.0074  -17.5541   25.0387 C   0  0  0  0  0  0  0  0  0  0  0  0
   10.3723  -17.2885   26.2014 O   0  0  0  0  0  0  0  0  0  0  0  0
   13.5710  -16.0624   22.1671 C   0  0  0  0  0  0  0  0  0  0  0  0
   13.7215  -16.6805   21.0829 O   0  0  0  0  0  0  0  0  0  0  0  0
    9.2498  -18.6974   24.7797 O   0  0  0  0  0  0  0  0  0  0  0  0
   14.7034  -15.7480   22.8914 O   0  0  0  0  0  0  0  0  0  0  0  0
  2  1  1  1
  3  2  1  0
  4  6  1  0
  4  2  1  0
  4  5  1  6
  6  7  2  0
  8  9  1  0
  9 10  2  0
  9 11  1  0
 11 12  1  0
 13 12  1  1
 14 13  1  0
 14  6  1  0
 15 17  1  0
 15 13  1  0
 16 15  2  0
 18 19  1  1
 18 17  1  0
 19 20  1  0
 20 21  1  0
 21 22  2  0
 23 18  1  0
 23 26  1  0
 24 23  2  0
 25 21  1  0
M  END
$$$$
