TQE.pdb
     RDKit          3D

 26 25  0  0  1  0  0  0  0  0999 V2000
    9.4892  -19.2524   16.1329 C   0  0  0  0  0  0  0  0  0  0  0  0
    9.7441  -17.9887   16.9075 C   0  0  1  0  0  0  0  0  0  0  0  0
    8.7402  -17.0670   16.6217 O   0  0  0  0  0  0  0  0  0  0  0  0
    9.7988  -18.2560   18.4156 C   0  0  2  0  0  0  0  0  0  0  0  0
    8.5414  -18.8354   18.7977 N   0  0  0  0  0  0  0  0  0  0  0  0
   10.0517  -16.9551   19.0814 C   0  0  0  0  0  0  0  0  0  0  0  0
   11.1508  -16.3896   18.8460 O   0  0  0  0  0  0  0  0  0  0  0  0
    8.8678  -12.1489   18.9414 N   0  0  0  0  0  0  0  0  0  0  0  0
    7.8734  -13.0627   18.4718 C   0  0  0  0  0  0  0  0  0  0  0  0
    7.3828  -12.8788   17.3328 O   0  0  0  0  0  0  0  0  0  0  0  0
    7.4076  -14.2049   19.2756 C   0  0  0  0  0  0  0  0  0  0  0  0
    8.0875  -14.3110   20.5866 C   0  0  0  0  0  0  0  0  0  0  0  0
    9.4060  -15.0301   20.5979 C   0  0  2  0  0  0  0  0  0  0  0  0
    9.1503  -16.3243   19.9476 N   0  0  0  0  0  0  0  0  0  0  0  0
    9.9367  -15.2883   21.9304 C   0  0  0  0  0  0  0  0  0  0  0  0
    9.1703  -15.4565   22.9047 O   0  0  0  0  0  0  0  0  0  0  0  0
   11.3314  -15.3518   22.1382 N   0  0  0  0  0  0  0  0  0  0  0  0
   11.9476  -16.0026   23.2694 C   0  0  1  0  0  0  0  0  0  0  0  0
   11.4336  -17.4461   23.2859 C   0  0  0  0  0  0  0  0  0  0  0  0
   12.0874  -18.1529   24.4385 C   0  0  0  0  0  0  0  0  0  0  0  0
   11.5171  -19.5052   24.5586 C   0  0  0  0  0  0  0  0  0  0  0  0
   10.6622  -19.9137   23.7474 O   0  0  0  0  0  0  0  0  0  0  0  0
   13.4188  -16.0876   23.1026 C   0  0  0  0  0  0  0  0  0  0  0  0
   14.1233  -16.4470   24.0796 O   0  0  0  0  0  0  0  0  0  0  0  0
   11.9515  -20.3260   25.6006 O   0  0  0  0  0  0  0  0  0  0  0  0
   14.0638  -15.7899   21.9188 O   0  0  0  0  0  0  0  0  0  0  0  0
  2  1  1  6
  3  2  1  0
  4  6  1  0
  4  2  1  0
  4  5  1  1
  6  7  2  0
  8  9  1  0
  9 10  2  0
  9 11  1  0
 11 12  1  0
 13 12  1  1
 14 13  1  0
 14  6  1  0
 15 17  1  0
 15 13  1  0
 16 15  2  0
 18 19  1  6
 18 17  1  0
 19 20  1  0
 20 21  1  0
 21 22  2  0
 23 18  1  0
 23 26  1  0
 24 23  2  0
 25 21  1  0
M  END
$$$$
