TQE.pdb
     RDKit          3D

 26 25  0  0  1  0  0  0  0  0999 V2000
    8.3472  -12.8985   20.0037 C   0  0  0  0  0  0  0  0  0  0  0  0
    7.7049  -13.6278   18.8560 C   0  0  1  0  0  0  0  0  0  0  0  0
    6.5862  -12.9161   18.4307 O   0  0  0  0  0  0  0  0  0  0  0  0
    8.6834  -13.8145   17.6913 C   0  0  2  0  0  0  0  0  0  0  0  0
    7.9676  -14.4558   16.6240 N   0  0  0  0  0  0  0  0  0  0  0  0
    9.8109  -14.6361   18.1947 C   0  0  0  0  0  0  0  0  0  0  0  0
    9.7234  -15.8837   18.0570 O   0  0  0  0  0  0  0  0  0  0  0  0
   15.1546  -15.3743   17.5383 N   0  0  0  0  0  0  0  0  0  0  0  0
   15.4074  -15.2982   18.9436 C   0  0  0  0  0  0  0  0  0  0  0  0
   16.4331  -15.8582   19.3975 O   0  0  0  0  0  0  0  0  0  0  0  0
   14.5093  -14.5897   19.8704 C   0  0  0  0  0  0  0  0  0  0  0  0
   13.2844  -14.0756   19.2166 C   0  0  0  0  0  0  0  0  0  0  0  0
   12.0582  -14.9361   19.3268 C   0  0  2  0  0  0  0  0  0  0  0  0
   10.9557  -14.1124   18.8080 N   0  0  0  0  0  0  0  0  0  0  0  0
   11.7258  -15.3345   20.6886 C   0  0  0  0  0  0  0  0  0  0  0  0
   11.3485  -14.4894   21.5303 O   0  0  0  0  0  0  0  0  0  0  0  0
   11.8266  -16.6880   21.0761 N   0  0  0  0  0  0  0  0  0  0  0  0
   11.5688  -17.1634   22.4141 C   0  0  1  0  0  0  0  0  0  0  0  0
   11.5121  -18.6928   22.3391 C   0  0  0  0  0  0  0  0  0  0  0  0
   11.2640  -19.2114   23.7266 C   0  0  0  0  0  0  0  0  0  0  0  0
   11.2260  -20.6830   23.6896 C   0  0  0  0  0  0  0  0  0  0  0  0
   11.3935  -21.3010   22.6193 O   0  0  0  0  0  0  0  0  0  0  0  0
   12.6913  -16.8336   23.3255 C   0  0  0  0  0  0  0  0  0  0  0  0
   13.8478  -16.7105   22.8485 O   0  0  0  0  0  0  0  0  0  0  0  0
   10.9983  -21.3779   24.8786 O   0  0  0  0  0  0  0  0  0  0  0  0
   12.5330  -16.6525   24.6850 O   0  0  0  0  0  0  0  0  0  0  0  0
  2  1  1  1
  3  2  1  0
  4  6  1  0
  4  2  1  0
  4  5  1  6
  6  7  2  0
  8  9  1  0
  9 10  2  0
  9 11  1  0
 11 12  1  0
 13 12  1  1
 14 13  1  0
 14  6  1  0
 15 17  1  0
 15 13  1  0
 16 15  2  0
 18 19  1  6
 18 17  1  0
 19 20  1  0
 20 21  1  0
 21 22  2  0
 23 18  1  0
 23 26  1  0
 24 23  2  0
 25 21  1  0
M  END
$$$$
