TQE.pdb
     RDKit          3D

 26 25  0  0  1  0  0  0  0  0999 V2000
    8.5859  -14.0084   18.4759 C   0  0  0  0  0  0  0  0  0  0  0  0
    8.5549  -14.5854   19.8645 C   0  0  1  0  0  0  0  0  0  0  0  0
    9.6934  -14.1771   20.5546 O   0  0  0  0  0  0  0  0  0  0  0  0
    7.2961  -14.1530   20.6242 C   0  0  2  0  0  0  0  0  0  0  0  0
    7.3370  -12.7228   20.7499 N   0  0  0  0  0  0  0  0  0  0  0  0
    7.3204  -14.8407   21.9380 C   0  0  0  0  0  0  0  0  0  0  0  0
    7.7157  -14.1764   22.9307 O   0  0  0  0  0  0  0  0  0  0  0  0
    5.6008  -20.8824   22.6951 N   0  0  0  0  0  0  0  0  0  0  0  0
    5.8023  -20.4536   24.0442 C   0  0  0  0  0  0  0  0  0  0  0  0
    5.5807  -21.2694   24.9700 O   0  0  0  0  0  0  0  0  0  0  0  0
    6.2574  -19.0947   24.3814 C   0  0  0  0  0  0  0  0  0  0  0  0
    6.3869  -18.2130   23.1990 C   0  0  0  0  0  0  0  0  0  0  0  0
    6.9451  -16.8410   23.4480 C   0  0  2  0  0  0  0  0  0  0  0  0
    6.9337  -16.1716   22.1385 N   0  0  0  0  0  0  0  0  0  0  0  0
    8.3129  -16.8325   23.9507 C   0  0  0  0  0  0  0  0  0  0  0  0
    9.2642  -16.4855   23.2162 O   0  0  0  0  0  0  0  0  0  0  0  0
    8.5817  -17.2184   25.2815 N   0  0  0  0  0  0  0  0  0  0  0  0
    9.9002  -17.2199   25.8683 C   0  0  1  0  0  0  0  0  0  0  0  0
   10.2101  -15.7736   26.2687 C   0  0  0  0  0  0  0  0  0  0  0  0
    9.2248  -15.3695   27.3277 C   0  0  0  0  0  0  0  0  0  0  0  0
    9.6481  -14.0864   27.9131 C   0  0  0  0  0  0  0  0  0  0  0  0
   10.7429  -13.5733   27.6069 O   0  0  0  0  0  0  0  0  0  0  0  0
    9.9282  -18.0127   27.1213 C   0  0  0  0  0  0  0  0  0  0  0  0
   11.0232  -18.1718   27.7177 O   0  0  0  0  0  0  0  0  0  0  0  0
    8.7993  -13.4511   28.8210 O   0  0  0  0  0  0  0  0  0  0  0  0
    8.8038  -18.5922   27.6744 O   0  0  0  0  0  0  0  0  0  0  0  0
  2  1  1  6
  3  2  1  0
  4  6  1  0
  4  2  1  0
  4  5  1  1
  6  7  2  0
  8  9  1  0
  9 10  2  0
  9 11  1  0
 11 12  1  0
 13 12  1  6
 14 13  1  0
 14  6  1  0
 15 17  1  0
 15 13  1  0
 16 15  2  0
 18 19  1  1
 18 17  1  0
 19 20  1  0
 20 21  1  0
 21 22  2  0
 23 18  1  0
 23 26  1  0
 24 23  2  0
 25 21  1  0
M  END
$$$$
