TQE.pdb
     RDKit          3D

 26 25  0  0  1  0  0  0  0  0999 V2000
   11.0524  -13.8157   18.8822 C   0  0  0  0  0  0  0  0  0  0  0  0
    9.8436  -12.9355   19.0429 C   0  0  1  0  0  0  0  0  0  0  0  0
    9.9422  -11.8589   18.1652 O   0  0  0  0  0  0  0  0  0  0  0  0
    8.5468  -13.7094   18.7823 C   0  0  2  0  0  0  0  0  0  0  0  0
    7.4598  -12.7753   18.8753 N   0  0  0  0  0  0  0  0  0  0  0  0
    8.4647  -14.7818   19.8034 C   0  0  0  0  0  0  0  0  0  0  0  0
    8.0364  -14.4632   20.9428 O   0  0  0  0  0  0  0  0  0  0  0  0
    8.3286  -20.9067   18.5358 N   0  0  0  0  0  0  0  0  0  0  0  0
    8.5941  -20.9173   19.9407 C   0  0  0  0  0  0  0  0  0  0  0  0
    8.6190  -22.0204   20.5360 O   0  0  0  0  0  0  0  0  0  0  0  0
    8.8368  -19.6844   20.7080 C   0  0  0  0  0  0  0  0  0  0  0  0
    8.7412  -18.4573   19.8852 C   0  0  0  0  0  0  0  0  0  0  0  0
    8.8358  -17.1515   20.6214 C   0  0  2  0  0  0  0  0  0  0  0  0
    8.8315  -16.1144   19.5786 N   0  0  0  0  0  0  0  0  0  0  0  0
   10.0501  -16.9958   21.4120 C   0  0  0  0  0  0  0  0  0  0  0  0
   11.0904  -16.5224   20.9035 O   0  0  0  0  0  0  0  0  0  0  0  0
   10.0661  -17.3799   22.7701 N   0  0  0  0  0  0  0  0  0  0  0  0
   11.2565  -17.4034   23.5857 C   0  0  1  0  0  0  0  0  0  0  0  0
   10.8899  -18.1260   24.8863 C   0  0  0  0  0  0  0  0  0  0  0  0
   12.1376  -18.2423   25.7141 C   0  0  0  0  0  0  0  0  0  0  0  0
   11.8265  -18.9787   26.9508 C   0  0  0  0  0  0  0  0  0  0  0  0
   10.6556  -19.3142   27.2187 O   0  0  0  0  0  0  0  0  0  0  0  0
   12.3260  -18.2103   22.9497 C   0  0  0  0  0  0  0  0  0  0  0  0
   13.5028  -17.7683   22.9465 O   0  0  0  0  0  0  0  0  0  0  0  0
   12.8695  -19.2962   27.8224 O   0  0  0  0  0  0  0  0  0  0  0  0
   12.0965  -19.4344   22.3542 O   0  0  0  0  0  0  0  0  0  0  0  0
  2  1  1  6
  3  2  1  0
  4  6  1  0
  4  2  1  0
  4  5  1  1
  6  7  2  0
  8  9  1  0
  9 10  2  0
  9 11  1  0
 11 12  1  0
 13 12  1  6
 14 13  1  0
 14  6  1  0
 15 17  1  0
 15 13  1  0
 16 15  2  0
 18 19  1  1
 18 17  1  0
 19 20  1  0
 20 21  1  0
 21 22  2  0
 23 18  1  0
 23 26  1  0
 24 23  2  0
 25 21  1  0
M  END
$$$$
