TQE.pdb
     RDKit          3D

 26 25  0  0  1  0  0  0  0  0999 V2000
    8.5271  -12.3740   19.3999 C   0  0  0  0  0  0  0  0  0  0  0  0
    7.4506  -13.3834   19.6897 C   0  0  1  0  0  0  0  0  0  0  0  0
    6.7167  -13.6152   18.5291 O   0  0  0  0  0  0  0  0  0  0  0  0
    8.0398  -14.6988   20.2107 C   0  0  2  0  0  0  0  0  0  0  0  0
    6.9509  -15.6170   20.3954 N   0  0  0  0  0  0  0  0  0  0  0  0
    8.7453  -14.3902   21.4783 C   0  0  0  0  0  0  0  0  0  0  0  0
    9.9036  -13.9066   21.3919 O   0  0  0  0  0  0  0  0  0  0  0  0
    6.4859  -12.0770   26.6832 N   0  0  0  0  0  0  0  0  0  0  0  0
    6.1183  -13.4279   26.3923 C   0  0  0  0  0  0  0  0  0  0  0  0
    5.0920  -13.8986   26.9371 O   0  0  0  0  0  0  0  0  0  0  0  0
    6.8997  -14.2803   25.4811 C   0  0  0  0  0  0  0  0  0  0  0  0
    8.0598  -13.5829   24.8814 C   0  0  0  0  0  0  0  0  0  0  0  0
    8.9548  -14.4103   24.0037 C   0  0  2  0  0  0  0  0  0  0  0  0
    8.2055  -14.6024   22.7529 N   0  0  0  0  0  0  0  0  0  0  0  0
    9.2781  -15.7238   24.5459 C   0  0  0  0  0  0  0  0  0  0  0  0
    8.4407  -16.6528   24.5191 O   0  0  0  0  0  0  0  0  0  0  0  0
   10.5488  -15.9644   25.1115 N   0  0  0  0  0  0  0  0  0  0  0  0
   10.9959  -17.2597   25.5644 C   0  0  1  0  0  0  0  0  0  0  0  0
   12.5132  -17.3044   25.3547 C   0  0  0  0  0  0  0  0  0  0  0  0
   12.7844  -17.0243   23.9043 C   0  0  0  0  0  0  0  0  0  0  0  0
   14.2396  -17.0225   23.6795 C   0  0  0  0  0  0  0  0  0  0  0  0
   15.0330  -17.2231   24.6207 O   0  0  0  0  0  0  0  0  0  0  0  0
   10.7731  -17.4241   27.0214 C   0  0  0  0  0  0  0  0  0  0  0  0
   11.1075  -18.5040   27.5711 O   0  0  0  0  0  0  0  0  0  0  0  0
   14.7184  -16.7914   22.3889 O   0  0  0  0  0  0  0  0  0  0  0  0
   10.2119  -16.4442   27.8156 O   0  0  0  0  0  0  0  0  0  0  0  0
  2  1  1  6
  3  2  1  0
  4  6  1  0
  4  2  1  0
  4  5  1  1
  6  7  2  0
  8  9  1  0
  9 10  2  0
  9 11  1  0
 11 12  1  0
 13 12  1  1
 14 13  1  0
 14  6  1  0
 15 17  1  0
 15 13  1  0
 16 15  2  0
 18 19  1  1
 18 17  1  0
 19 20  1  0
 20 21  1  0
 21 22  2  0
 23 18  1  0
 23 26  1  0
 24 23  2  0
 25 21  1  0
M  END
$$$$
