GSG.pdb
     RDKit          3D

 15 14  0  0  1  0  0  0  0  0999 V2000
   -1.8571  -26.0717   25.8619 N   0  0  0  0  0  0  0  0  0  0  0  0
   -3.2263  -26.2979   26.2369 C   0  0  0  0  0  0  0  0  0  0  0  0
   -3.8843  -25.0728   26.7427 C   0  0  0  0  0  0  0  0  0  0  0  0
   -3.5134  -24.5039   27.7971 O   0  0  0  0  0  0  0  0  0  0  0  0
   -7.1378  -21.6806   25.6102 O   0  0  0  0  0  0  0  0  0  0  0  0
   -6.4589  -22.8246   25.2660 C   0  0  0  0  0  0  0  0  0  0  0  0
   -5.6925  -23.3417   26.4741 C   0  0  2  0  0  0  0  0  0  0  0  0
   -4.9624  -24.5140   26.0310 N   0  0  0  0  0  0  0  0  0  0  0  0
   -6.6067  -23.6564   27.6006 C   0  0  0  0  0  0  0  0  0  0  0  0
   -7.3870  -24.6405   27.5405 O   0  0  0  0  0  0  0  0  0  0  0  0
   -6.6464  -22.8737   28.7868 N   0  0  0  0  0  0  0  0  0  0  0  0
   -7.5528  -23.2006   29.8669 C   0  0  0  0  0  0  0  0  0  0  0  0
   -8.1483  -21.9342   30.4232 C   0  0  0  0  0  0  0  0  0  0  0  0
   -7.7383  -20.8085   30.0524 O   0  0  0  0  0  0  0  0  0  0  0  0
   -9.1720  -21.9645   31.3662 O   0  0  0  0  0  0  0  0  0  0  0  0
  2  1  1  0
  3  8  1  0
  3  2  1  0
  4  3  2  0
  5  6  1  0
  7  6  1  6
  7  8  1  0
  9  7  1  0
  9 10  2  0
 11  9  1  0
 12 11  1  0
 12 13  1  0
 13 15  1  0
 14 13  2  0
M  END
$$$$
