GSG.pdb
     RDKit          3D

 15 14  0  0  1  0  0  0  0  0999 V2000
   10.0769  -25.5136   32.4184 N   0  0  0  0  0  0  0  0  0  0  0  0
   10.9569  -24.4266   32.7511 C   0  0  0  0  0  0  0  0  0  0  0  0
   11.1796  -23.5095   31.6113 C   0  0  0  0  0  0  0  0  0  0  0  0
   10.9654  -23.8563   30.4252 O   0  0  0  0  0  0  0  0  0  0  0  0
   10.7365  -19.9598   32.2807 O   0  0  0  0  0  0  0  0  0  0  0  0
   11.6996  -19.8831   31.3036 C   0  0  0  0  0  0  0  0  0  0  0  0
   12.0114  -21.2802   30.7888 C   0  0  2  0  0  0  0  0  0  0  0  0
   11.6464  -22.2028   31.8468 N   0  0  0  0  0  0  0  0  0  0  0  0
   13.4417  -21.4118   30.4136 C   0  0  0  0  0  0  0  0  0  0  0  0
   14.3223  -21.6017   31.2908 O   0  0  0  0  0  0  0  0  0  0  0  0
   13.8826  -21.3311   29.0644 N   0  0  0  0  0  0  0  0  0  0  0  0
   13.1855  -20.5081   28.0992 C   0  0  0  0  0  0  0  0  0  0  0  0
   13.8255  -20.6705   26.7456 C   0  0  0  0  0  0  0  0  0  0  0  0
   14.7834  -21.4613   26.5731 O   0  0  0  0  0  0  0  0  0  0  0  0
   13.3802  -19.9523   25.6393 O   0  0  0  0  0  0  0  0  0  0  0  0
  2  1  1  0
  3  8  1  0
  3  2  1  0
  4  3  2  0
  5  6  1  0
  7  6  1  1
  7  8  1  0
  9  7  1  0
  9 10  2  0
 11  9  1  0
 12 11  1  0
 12 13  1  0
 13 15  1  0
 14 13  2  0
M  END
$$$$
