GSG.pdb
     RDKit          3D

 15 14  0  0  1  0  0  0  0  0999 V2000
    2.4057  -19.6062   20.7317 N   0  0  0  0  0  0  0  0  0  0  0  0
    2.9019  -18.3743   21.2820 C   0  0  0  0  0  0  0  0  0  0  0  0
    4.3256  -18.4632   21.6756 C   0  0  0  0  0  0  0  0  0  0  0  0
    4.9901  -19.5180   21.5395 O   0  0  0  0  0  0  0  0  0  0  0  0
    6.3371  -15.0089   22.3176 O   0  0  0  0  0  0  0  0  0  0  0  0
    7.0305  -16.1567   22.0177 C   0  0  0  0  0  0  0  0  0  0  0  0
    6.3487  -17.3469   22.6754 C   0  0  2  0  0  0  0  0  0  0  0  0
    4.9710  -17.3380   22.2219 N   0  0  0  0  0  0  0  0  0  0  0  0
    6.4410  -17.2736   24.1552 C   0  0  0  0  0  0  0  0  0  0  0  0
    5.5987  -16.6193   24.8209 O   0  0  0  0  0  0  0  0  0  0  0  0
    7.4704  -17.9292   24.8845 N   0  0  0  0  0  0  0  0  0  0  0  0
    7.4942  -17.9011   26.3315 C   0  0  0  0  0  0  0  0  0  0  0  0
    8.7118  -18.6353   26.8279 C   0  0  0  0  0  0  0  0  0  0  0  0
    9.5327  -19.1433   26.0273 O   0  0  0  0  0  0  0  0  0  0  0  0
    8.9714  -18.7776   28.1882 O   0  0  0  0  0  0  0  0  0  0  0  0
  2  1  1  0
  3  8  1  0
  3  2  1  0
  4  3  2  0
  5  6  1  0
  7  6  1  6
  7  8  1  0
  9  7  1  0
  9 10  2  0
 11  9  1  0
 12 11  1  0
 12 13  1  0
 13 15  1  0
 14 13  2  0
M  END
$$$$
