GSG.pdb
     RDKit          3D

 15 14  0  0  1  0  0  0  0  0999 V2000
    4.9810  -18.9176   21.1671 N   0  0  0  0  0  0  0  0  0  0  0  0
    5.1452  -17.8829   22.1515 C   0  0  0  0  0  0  0  0  0  0  0  0
    6.3823  -17.0973   21.9460 C   0  0  0  0  0  0  0  0  0  0  0  0
    7.2029  -17.3718   21.0382 O   0  0  0  0  0  0  0  0  0  0  0  0
    6.9403  -13.6902   24.2332 O   0  0  0  0  0  0  0  0  0  0  0  0
    7.5172  -13.7884   22.9899 C   0  0  0  0  0  0  0  0  0  0  0  0
    7.8929  -15.2374   22.7189 C   0  0  2  0  0  0  0  0  0  0  0  0
    6.6634  -16.0040   22.7865 N   0  0  0  0  0  0  0  0  0  0  0  0
    8.9002  -15.7266   23.6934 C   0  0  0  0  0  0  0  0  0  0  0  0
    8.5492  -16.1496   24.8242 O   0  0  0  0  0  0  0  0  0  0  0  0
   10.2919  -15.7417   23.4029 N   0  0  0  0  0  0  0  0  0  0  0  0
   11.2527  -16.2143   24.3769 C   0  0  0  0  0  0  0  0  0  0  0  0
   12.6356  -16.1654   23.7825 C   0  0  0  0  0  0  0  0  0  0  0  0
   12.8201  -15.7812   22.6031 O   0  0  0  0  0  0  0  0  0  0  0  0
   13.7567  -16.5432   24.5162 O   0  0  0  0  0  0  0  0  0  0  0  0
  2  1  1  0
  3  8  1  0
  3  2  1  0
  4  3  2  0
  5  6  1  0
  7  6  1  1
  7  8  1  0
  9  7  1  0
  9 10  2  0
 11  9  1  0
 12 11  1  0
 12 13  1  0
 13 15  1  0
 14 13  2  0
M  END
$$$$
