GSG.pdb
     RDKit          3D

 15 14  0  0  1  0  0  0  0  0999 V2000
    5.7725  -23.0443   19.9334 N   0  0  0  0  0  0  0  0  0  0  0  0
    5.0707  -22.0923   20.7505 C   0  0  0  0  0  0  0  0  0  0  0  0
    5.9423  -20.9870   21.2070 C   0  0  0  0  0  0  0  0  0  0  0  0
    7.1910  -21.0357   21.1011 O   0  0  0  0  0  0  0  0  0  0  0  0
    4.2367  -17.5069   21.6544 O   0  0  0  0  0  0  0  0  0  0  0  0
    5.6102  -17.4687   21.6637 C   0  0  0  0  0  0  0  0  0  0  0  0
    6.1478  -18.7348   22.3134 C   0  0  2  0  0  0  0  0  0  0  0  0
    5.3692  -19.8367   21.7808 N   0  0  0  0  0  0  0  0  0  0  0  0
    6.0586  -18.6633   23.7935 C   0  0  0  0  0  0  0  0  0  0  0  0
    4.9569  -18.8156   24.3799 O   0  0  0  0  0  0  0  0  0  0  0  0
    7.1964  -18.4226   24.6113 N   0  0  0  0  0  0  0  0  0  0  0  0
    7.0848  -18.3879   26.0540 C   0  0  0  0  0  0  0  0  0  0  0  0
    8.4229  -18.0429   26.6528 C   0  0  0  0  0  0  0  0  0  0  0  0
    9.4154  -17.8025   25.9249 O   0  0  0  0  0  0  0  0  0  0  0  0
    8.6083  -17.9780   28.0310 O   0  0  0  0  0  0  0  0  0  0  0  0
  2  1  1  0
  3  8  1  0
  3  2  1  0
  4  3  2  0
  5  6  1  0
  7  6  1  6
  7  8  1  0
  9  7  1  0
  9 10  2  0
 11  9  1  0
 12 11  1  0
 12 13  1  0
 13 15  1  0
 14 13  2  0
M  END
$$$$
