GSG.pdb
     RDKit          3D

 15 14  0  0  1  0  0  0  0  0999 V2000
    6.3910  -18.7696   17.6224 N   0  0  0  0  0  0  0  0  0  0  0  0
    6.0462  -17.5360   18.2750 C   0  0  0  0  0  0  0  0  0  0  0  0
    7.2371  -16.7818   18.7253 C   0  0  0  0  0  0  0  0  0  0  0  0
    8.3906  -17.2725   18.6864 O   0  0  0  0  0  0  0  0  0  0  0  0
    7.6544  -12.9051   18.2513 O   0  0  0  0  0  0  0  0  0  0  0  0
    7.7793  -13.2196   19.5830 C   0  0  0  0  0  0  0  0  0  0  0  0
    8.1925  -14.6769   19.7228 C   0  0  2  0  0  0  0  0  0  0  0  0
    7.0896  -15.4709   19.2158 N   0  0  0  0  0  0  0  0  0  0  0  0
    8.5117  -15.0159   21.1324 C   0  0  0  0  0  0  0  0  0  0  0  0
    7.6089  -15.0481   22.0069 O   0  0  0  0  0  0  0  0  0  0  0  0
    9.8339  -15.3170   21.5595 N   0  0  0  0  0  0  0  0  0  0  0  0
   10.1092  -15.6868   22.9316 C   0  0  0  0  0  0  0  0  0  0  0  0
   11.5964  -15.8217   23.1264 C   0  0  0  0  0  0  0  0  0  0  0  0
   12.3903  -15.6850   22.1653 O   0  0  0  0  0  0  0  0  0  0  0  0
   12.1442  -16.1021   24.3752 O   0  0  0  0  0  0  0  0  0  0  0  0
  2  1  1  0
  3  8  1  0
  3  2  1  0
  4  3  2  0
  5  6  1  0
  7  6  1  1
  7  8  1  0
  9  7  1  0
  9 10  2  0
 11  9  1  0
 12 11  1  0
 12 13  1  0
 13 15  1  0
 14 13  2  0
M  END
$$$$
