GSG.pdb
     RDKit          3D

 15 14  0  0  1  0  0  0  0  0999 V2000
    1.7915  -19.6667   20.2538 N   0  0  0  0  0  0  0  0  0  0  0  0
    2.3689  -19.2087   21.4881 C   0  0  0  0  0  0  0  0  0  0  0  0
    3.8332  -19.4166   21.5394 C   0  0  0  0  0  0  0  0  0  0  0  0
    4.4458  -20.0631   20.6566 O   0  0  0  0  0  0  0  0  0  0  0  0
    6.0254  -17.1330   24.0298 O   0  0  0  0  0  0  0  0  0  0  0  0
    6.6747  -17.8331   23.0416 C   0  0  0  0  0  0  0  0  0  0  0  0
    5.9814  -19.1703   22.8289 C   0  0  2  0  0  0  0  0  0  0  0  0
    4.5782  -18.8788   22.6055 N   0  0  0  0  0  0  0  0  0  0  0  0
    6.1773  -20.0723   23.9916 C   0  0  0  0  0  0  0  0  0  0  0  0
    5.3130  -20.1461   24.9017 O   0  0  0  0  0  0  0  0  0  0  0  0
    7.3342  -20.8864   24.1337 N   0  0  0  0  0  0  0  0  0  0  0  0
    7.4842  -21.7799   25.2626 C   0  0  0  0  0  0  0  0  0  0  0  0
    8.7999  -22.5050   25.1575 C   0  0  0  0  0  0  0  0  0  0  0  0
    9.4636  -22.4913   24.0934 O   0  0  0  0  0  0  0  0  0  0  0  0
    9.3274  -23.2150   26.2325 O   0  0  0  0  0  0  0  0  0  0  0  0
  2  1  1  0
  3  8  1  0
  3  2  1  0
  4  3  2  0
  5  6  1  0
  7  6  1  1
  7  8  1  0
  9  7  1  0
  9 10  2  0
 11  9  1  0
 12 11  1  0
 12 13  1  0
 13 15  1  0
 14 13  2  0
M  END
$$$$
