GSG.pdb
     RDKit          3D

 15 14  0  0  1  0  0  0  0  0999 V2000
   -4.6022  -28.6045   28.6710 N   0  0  0  0  0  0  0  0  0  0  0  0
   -5.6964  -27.7695   29.0859 C   0  0  0  0  0  0  0  0  0  0  0  0
   -5.2409  -26.5317   29.7569 C   0  0  0  0  0  0  0  0  0  0  0  0
   -5.2474  -26.4093   31.0050 O   0  0  0  0  0  0  0  0  0  0  0  0
   -2.0828  -24.8039   29.1048 O   0  0  0  0  0  0  0  0  0  0  0  0
   -3.0277  -23.8410   28.8438 C   0  0  0  0  0  0  0  0  0  0  0  0
   -4.3232  -24.1958   29.5579 C   0  0  2  0  0  0  0  0  0  0  0  0
   -4.7824  -25.4472   28.9860 N   0  0  0  0  0  0  0  0  0  0  0  0
   -5.3348  -23.1195   29.4098 C   0  0  0  0  0  0  0  0  0  0  0  0
   -5.1723  -22.0028   29.9643 O   0  0  0  0  0  0  0  0  0  0  0  0
   -6.5210  -23.2932   28.6455 N   0  0  0  0  0  0  0  0  0  0  0  0
   -7.4830  -22.2207   28.5061 C   0  0  0  0  0  0  0  0  0  0  0  0
   -8.5665  -22.3808   29.5398 C   0  0  0  0  0  0  0  0  0  0  0  0
   -8.5124  -23.2933   30.3984 O   0  0  0  0  0  0  0  0  0  0  0  0
   -9.6644  -21.5258   29.5815 O   0  0  0  0  0  0  0  0  0  0  0  0
  2  1  1  0
  3  8  1  0
  3  2  1  0
  4  3  2  0
  5  6  1  0
  7  6  1  6
  7  8  1  0
  9  7  1  0
  9 10  2  0
 11  9  1  0
 12 11  1  0
 12 13  1  0
 13 15  1  0
 14 13  2  0
M  END
$$$$
