VKT.pdb
     RDKit          3D

 24 23  0  0  1  0  0  0  0  0999 V2000
   18.4752  -10.0592  -20.3075 C   0  0  0  0  0  0  0  0  0  0  0  0
   19.6020   -9.2491  -20.9049 C   0  0  2  0  0  0  0  0  0  0  0  0
   20.0661   -9.9527  -22.1443 C   0  0  0  0  0  0  0  0  0  0  0  0
   20.7316   -9.1974  -19.8869 C   0  0  2  0  0  0  0  0  0  0  0  0
   21.1723  -10.5576  -19.5868 N   0  0  0  0  0  0  0  0  0  0  0  0
   20.2514   -8.5316  -18.6307 C   0  0  0  0  0  0  0  0  0  0  0  0
   19.8683   -7.3269  -18.7747 O   0  0  0  0  0  0  0  0  0  0  0  0
   20.2270   -9.1894  -17.3893 N   0  0  0  0  0  0  0  0  0  0  0  0
   19.6982   -8.5303  -16.1838 C   0  0  1  0  0  0  0  0  0  0  0  0
   18.9920   -9.5525  -15.3508 C   0  0  0  0  0  0  0  0  0  0  0  0
   17.5043   -9.4467  -15.3385 C   0  0  0  0  0  0  0  0  0  0  0  0
   16.8916  -10.5785  -14.4819 C   0  0  0  0  0  0  0  0  0  0  0  0
   15.3859  -10.4418  -14.4587 C   0  0  0  0  0  0  0  0  0  0  0  0
   14.8283  -11.5734  -13.7408 N   0  0  0  0  0  0  0  0  0  0  0  0
   20.8033   -7.8239  -15.5488 C   0  0  0  0  0  0  0  0  0  0  0  0
   21.8451   -8.4932  -15.2096 O   0  0  0  0  0  0  0  0  0  0  0  0
   22.9104   -4.8638  -16.7266 C   0  0  0  0  0  0  0  0  0  0  0  0
   22.4376   -4.5910  -15.3370 C   0  0  1  0  0  0  0  0  0  0  0  0
   21.3976   -3.6712  -15.2818 O   0  0  0  0  0  0  0  0  0  0  0  0
   22.0525   -5.8472  -14.6091 C   0  0  2  0  0  0  0  0  0  0  0  0
   20.8829   -6.4466  -15.2496 N   0  0  0  0  0  0  0  0  0  0  0  0
   21.7796   -5.5530  -13.1789 C   0  0  0  0  0  0  0  0  0  0  0  0
   22.7750   -5.1350  -12.3096 O   0  0  0  0  0  0  0  0  0  0  0  0
   20.6219   -5.6747  -12.7021 O   0  0  0  0  0  0  0  0  0  0  0  0
  2  1  1  1
  2  4  1  0
  2  3  1  0
  4  5  1  1
  6  7  2  0
  6  4  1  0
  8  6  1  0
  9 10  1  1
  9  8  1  0
 11 10  1  0
 11 12  1  0
 13 14  1  0
 13 12  1  0
 15  9  1  0
 16 15  2  0
 18 19  1  0
 18 20  1  0
 18 17  1  6
 20 21  1  6
 21 15  1  0
 22 23  1  0
 22 20  1  0
 24 22  2  0
M  END
$$$$
