VKT.pdb
     RDKit          3D

 24 23  0  0  1  0  0  0  0  0999 V2000
   13.6271   -5.0474  -16.7347 C   0  0  0  0  0  0  0  0  0  0  0  0
   14.9850   -5.3319  -16.1365 C   0  0  2  0  0  0  0  0  0  0  0  0
   16.0212   -4.9669  -17.1562 C   0  0  0  0  0  0  0  0  0  0  0  0
   15.0602   -6.8212  -15.8343 C   0  0  2  0  0  0  0  0  0  0  0  0
   14.0284   -7.1677  -14.8597 N   0  0  0  0  0  0  0  0  0  0  0  0
   16.4137   -7.1581  -15.2808 C   0  0  0  0  0  0  0  0  0  0  0  0
   16.4945   -7.1374  -14.0112 O   0  0  0  0  0  0  0  0  0  0  0  0
   17.5089   -7.4727  -16.1031 N   0  0  0  0  0  0  0  0  0  0  0  0
   18.7716   -7.9754  -15.5373 C   0  0  1  0  0  0  0  0  0  0  0  0
   19.1088   -9.2736  -16.1994 C   0  0  0  0  0  0  0  0  0  0  0  0
   20.3983   -9.8900  -15.7727 C   0  0  0  0  0  0  0  0  0  0  0  0
   20.6293  -11.2244  -16.5186 C   0  0  0  0  0  0  0  0  0  0  0  0
   21.9702  -11.8022  -16.1256 C   0  0  0  0  0  0  0  0  0  0  0  0
   22.1372  -13.0814  -16.7909 N   0  0  0  0  0  0  0  0  0  0  0  0
   19.7594   -6.9102  -15.6525 C   0  0  0  0  0  0  0  0  0  0  0  0
   20.2811   -6.6791  -16.8026 O   0  0  0  0  0  0  0  0  0  0  0  0
   19.9214   -3.4536  -16.0872 C   0  0  0  0  0  0  0  0  0  0  0  0
   20.7402   -3.7074  -14.8649 C   0  0  1  0  0  0  0  0  0  0  0  0
   20.0561   -3.4507  -13.6830 O   0  0  0  0  0  0  0  0  0  0  0  0
   21.3091   -5.0973  -14.8384 C   0  0  2  0  0  0  0  0  0  0  0  0
   20.2330   -6.0641  -14.6265 N   0  0  0  0  0  0  0  0  0  0  0  0
   22.3411   -5.2134  -13.7762 C   0  0  0  0  0  0  0  0  0  0  0  0
   22.1868   -6.0582  -12.6882 O   0  0  0  0  0  0  0  0  0  0  0  0
   23.4029   -4.5411  -13.8285 O   0  0  0  0  0  0  0  0  0  0  0  0
  2  1  1  6
  2  4  1  0
  2  3  1  0
  4  5  1  1
  6  7  2  0
  6  4  1  0
  8  6  1  0
  9 10  1  6
  9  8  1  0
 11 10  1  0
 11 12  1  0
 13 14  1  0
 13 12  1  0
 15  9  1  0
 16 15  2  0
 18 19  1  0
 18 20  1  0
 18 17  1  6
 20 21  1  1
 21 15  1  0
 22 23  1  0
 22 20  1  0
 24 22  2  0
M  END
$$$$
