VKT.pdb
     RDKit          3D

 24 23  0  0  1  0  0  0  0  0999 V2000
   22.1412  -13.6549  -22.1979 C   0  0  0  0  0  0  0  0  0  0  0  0
   21.3347  -12.7512  -21.2949 C   0  0  2  0  0  0  0  0  0  0  0  0
   22.2163  -11.6125  -20.8793 C   0  0  0  0  0  0  0  0  0  0  0  0
   20.9230  -13.5581  -20.0725 C   0  0  2  0  0  0  0  0  0  0  0  0
   20.0954  -14.6853  -20.4956 N   0  0  0  0  0  0  0  0  0  0  0  0
   20.1480  -12.6870  -19.1279 C   0  0  0  0  0  0  0  0  0  0  0  0
   19.0087  -12.3140  -19.5542 O   0  0  0  0  0  0  0  0  0  0  0  0
   20.6436  -12.3118  -17.8676 N   0  0  0  0  0  0  0  0  0  0  0  0
   19.8212  -11.5423  -16.9196 C   0  0  1  0  0  0  0  0  0  0  0  0
   19.3224  -12.4696  -15.8571 C   0  0  0  0  0  0  0  0  0  0  0  0
   18.1179  -13.2692  -16.2238 C   0  0  0  0  0  0  0  0  0  0  0  0
   17.6930  -14.1733  -15.0438 C   0  0  0  0  0  0  0  0  0  0  0  0
   16.5416  -15.0569  -15.4681 C   0  0  0  0  0  0  0  0  0  0  0  0
   16.9194  -16.4429  -15.2602 N   0  0  0  0  0  0  0  0  0  0  0  0
   20.6153  -10.4057  -16.4712 C   0  0  0  0  0  0  0  0  0  0  0  0
   21.8565  -10.5929  -16.2013 O   0  0  0  0  0  0  0  0  0  0  0  0
   21.6180   -7.1826  -18.1305 C   0  0  0  0  0  0  0  0  0  0  0  0
   21.0095   -6.8560  -16.8069 C   0  0  1  0  0  0  0  0  0  0  0  0
   19.7017   -6.3964  -16.9026 O   0  0  0  0  0  0  0  0  0  0  0  0
   21.0805   -8.0089  -15.8468 C   0  0  2  0  0  0  0  0  0  0  0  0
   20.1830   -9.0740  -16.2915 N   0  0  0  0  0  0  0  0  0  0  0  0
   20.7306   -7.5612  -14.4743 C   0  0  0  0  0  0  0  0  0  0  0  0
   21.5368   -6.6934  -13.7544 O   0  0  0  0  0  0  0  0  0  0  0  0
   19.6783   -7.9591  -13.9118 O   0  0  0  0  0  0  0  0  0  0  0  0
  2  1  1  6
  2  4  1  0
  2  3  1  0
  4  5  1  6
  6  7  2  0
  6  4  1  0
  8  6  1  0
  9 10  1  1
  9  8  1  0
 11 10  1  0
 11 12  1  0
 13 14  1  0
 13 12  1  0
 15  9  1  0
 16 15  2  0
 18 19  1  0
 18 20  1  0
 18 17  1  6
 20 21  1  6
 21 15  1  0
 22 23  1  0
 22 20  1  0
 24 22  2  0
M  END
$$$$
