VKT.pdb
     RDKit          3D

 24 23  0  0  1  0  0  0  0  0999 V2000
   12.7513  -11.8423  -10.2313 C   0  0  0  0  0  0  0  0  0  0  0  0
   12.6895  -11.8919  -11.7401 C   0  0  2  0  0  0  0  0  0  0  0  0
   11.6284  -12.8785  -12.1237 C   0  0  0  0  0  0  0  0  0  0  0  0
   14.0432  -12.3657  -12.2483 C   0  0  2  0  0  0  0  0  0  0  0  0
   14.3642  -13.6527  -11.6358 N   0  0  0  0  0  0  0  0  0  0  0  0
   15.0980  -11.3589  -11.8942 C   0  0  0  0  0  0  0  0  0  0  0  0
   15.7637  -11.6262  -10.8434 O   0  0  0  0  0  0  0  0  0  0  0  0
   15.3325  -10.2079  -12.6654 N   0  0  0  0  0  0  0  0  0  0  0  0
   16.4394   -9.2892  -12.3527 C   0  0  1  0  0  0  0  0  0  0  0  0
   17.2323   -9.0541  -13.5991 C   0  0  0  0  0  0  0  0  0  0  0  0
   18.2898   -8.0076  -13.4933 C   0  0  0  0  0  0  0  0  0  0  0  0
   19.6687   -8.5964  -13.8707 C   0  0  0  0  0  0  0  0  0  0  0  0
   20.7607   -7.6247  -13.4839 C   0  0  0  0  0  0  0  0  0  0  0  0
   20.5375   -6.3731  -14.1844 N   0  0  0  0  0  0  0  0  0  0  0  0
   15.8658   -8.1114  -11.7143 C   0  0  0  0  0  0  0  0  0  0  0  0
   14.7869   -7.6141  -12.2011 O   0  0  0  0  0  0  0  0  0  0  0  0
   14.4480   -7.3256   -8.1734 C   0  0  0  0  0  0  0  0  0  0  0  0
   15.5523   -6.3923   -8.5457 C   0  0  1  0  0  0  0  0  0  0  0  0
   16.7753   -6.7374   -7.9839 O   0  0  0  0  0  0  0  0  0  0  0  0
   15.6939   -6.2416  -10.0335 C   0  0  2  0  0  0  0  0  0  0  0  0
   16.3578   -7.4216  -10.5853 N   0  0  0  0  0  0  0  0  0  0  0  0
   16.4536   -5.0071  -10.3581 C   0  0  0  0  0  0  0  0  0  0  0  0
   15.9434   -3.7419  -10.1127 O   0  0  0  0  0  0  0  0  0  0  0  0
   17.5996   -5.0684  -10.8731 O   0  0  0  0  0  0  0  0  0  0  0  0
  2  1  1  1
  2  4  1  0
  2  3  1  0
  4  5  1  1
  6  7  2  0
  6  4  1  0
  8  6  1  0
  9 10  1  6
  9  8  1  0
 11 10  1  0
 11 12  1  0
 13 14  1  0
 13 12  1  0
 15  9  1  0
 16 15  2  0
 18 19  1  0
 18 20  1  0
 18 17  1  6
 20 21  1  1
 21 15  1  0
 22 23  1  0
 22 20  1  0
 24 22  2  0
M  END
$$$$
