VKT.pdb
     RDKit          3D

 24 23  0  0  1  0  0  0  0  0999 V2000
   36.9047  -11.6065  -18.6447 C   0  0  0  0  0  0  0  0  0  0  0  0
   35.5442  -11.3630  -19.2551 C   0  0  2  0  0  0  0  0  0  0  0  0
   35.7268  -10.4616  -20.4386 C   0  0  0  0  0  0  0  0  0  0  0  0
   34.6793  -10.6741  -18.2100 C   0  0  2  0  0  0  0  0  0  0  0  0
   34.6978  -11.4573  -16.9768 N   0  0  0  0  0  0  0  0  0  0  0  0
   33.2710  -10.5572  -18.7149 C   0  0  0  0  0  0  0  0  0  0  0  0
   33.1140   -9.7482  -19.6842 O   0  0  0  0  0  0  0  0  0  0  0  0
   32.2064  -11.2865  -18.1587 N   0  0  0  0  0  0  0  0  0  0  0  0
   30.8163  -11.0585  -18.5862 C   0  0  1  0  0  0  0  0  0  0  0  0
   29.9790  -12.2082  -18.1232 C   0  0  0  0  0  0  0  0  0  0  0  0
   28.5266  -12.1098  -18.4479 C   0  0  0  0  0  0  0  0  0  0  0  0
   27.7847  -13.3854  -17.9867 C   0  0  0  0  0  0  0  0  0  0  0  0
   26.3581  -13.3539  -18.4867 C   0  0  0  0  0  0  0  0  0  0  0  0
   25.6612  -14.5198  -17.9749 N   0  0  0  0  0  0  0  0  0  0  0  0
   30.4234   -9.7363  -18.1161 C   0  0  0  0  0  0  0  0  0  0  0  0
   30.4885   -9.4882  -16.8581 O   0  0  0  0  0  0  0  0  0  0  0  0
   30.3366   -6.1609  -20.2970 C   0  0  0  0  0  0  0  0  0  0  0  0
   30.3609   -6.2610  -18.8076 C   0  0  1  0  0  0  0  0  0  0  0  0
   30.0050   -5.0776  -18.1722 O   0  0  0  0  0  0  0  0  0  0  0  0
   29.5148   -7.3928  -18.2985 C   0  0  2  0  0  0  0  0  0  0  0  0
   29.9669   -8.6496  -18.8930 N   0  0  0  0  0  0  0  0  0  0  0  0
   28.0826   -7.1469  -18.6068 C   0  0  0  0  0  0  0  0  0  0  0  0
   27.3397   -8.0115  -19.3954 O   0  0  0  0  0  0  0  0  0  0  0  0
   27.4880   -6.1336  -18.1575 O   0  0  0  0  0  0  0  0  0  0  0  0
  2  1  1  1
  2  4  1  0
  2  3  1  0
  4  5  1  1
  6  7  2  0
  6  4  1  0
  8  6  1  0
  9 10  1  1
  9  8  1  0
 11 10  1  0
 11 12  1  0
 13 14  1  0
 13 12  1  0
 15  9  1  0
 16 15  2  0
 18 19  1  0
 18 20  1  0
 18 17  1  6
 20 21  1  6
 21 15  1  0
 22 23  1  0
 22 20  1  0
 24 22  2  0
M  END
$$$$
