VKT.pdb
     RDKit          3D

 24 23  0  0  1  0  0  0  0  0999 V2000
   21.7246  -19.5365  -16.6333 C   0  0  0  0  0  0  0  0  0  0  0  0
   22.2772  -18.8870  -15.3861 C   0  0  2  0  0  0  0  0  0  0  0  0
   23.2399  -17.8201  -15.8124 C   0  0  0  0  0  0  0  0  0  0  0  0
   23.0105  -19.9551  -14.5882 C   0  0  2  0  0  0  0  0  0  0  0  0
   24.1113  -20.4845  -15.3897 N   0  0  0  0  0  0  0  0  0  0  0  0
   22.0625  -21.0633  -14.2345 C   0  0  0  0  0  0  0  0  0  0  0  0
   22.0562  -22.0433  -15.0459 O   0  0  0  0  0  0  0  0  0  0  0  0
   21.2439  -21.0213  -13.0932 N   0  0  0  0  0  0  0  0  0  0  0  0
   20.3283  -22.1269  -12.7667 C   0  0  1  0  0  0  0  0  0  0  0  0
   20.3843  -22.3745  -11.2925 C   0  0  0  0  0  0  0  0  0  0  0  0
   19.4554  -23.4266  -10.7877 C   0  0  0  0  0  0  0  0  0  0  0  0
   19.5087  -23.4956   -9.2442 C   0  0  0  0  0  0  0  0  0  0  0  0
   18.3894  -24.3752   -8.7345 C   0  0  0  0  0  0  0  0  0  0  0  0
   18.4520  -24.4126   -7.2848 N   0  0  0  0  0  0  0  0  0  0  0  0
   19.0225  -21.7943  -13.3217 C   0  0  0  0  0  0  0  0  0  0  0  0
   18.5907  -20.5918  -13.1957 O   0  0  0  0  0  0  0  0  0  0  0  0
   15.1695  -22.7278  -16.3134 C   0  0  0  0  0  0  0  0  0  0  0  0
   16.5298  -23.0350  -15.7801 C   0  0  1  0  0  0  0  0  0  0  0  0
   17.5290  -22.9465  -16.7416 O   0  0  0  0  0  0  0  0  0  0  0  0
   16.8818  -22.1852  -14.5927 C   0  0  2  0  0  0  0  0  0  0  0  0
   18.1381  -22.6532  -14.0093 N   0  0  0  0  0  0  0  0  0  0  0  0
   15.7872  -22.2202  -13.5891 C   0  0  0  0  0  0  0  0  0  0  0  0
   14.8694  -21.1891  -13.4636 O   0  0  0  0  0  0  0  0  0  0  0  0
   15.6543  -23.1983  -12.8096 O   0  0  0  0  0  0  0  0  0  0  0  0
  2  1  1  6
  2  4  1  0
  2  3  1  0
  4  5  1  6
  6  7  2  0
  6  4  1  0
  8  6  1  0
  9 10  1  1
  9  8  1  0
 11 10  1  0
 11 12  1  0
 13 14  1  0
 13 12  1  0
 15  9  1  0
 16 15  2  0
 18 19  1  0
 18 20  1  0
 18 17  1  6
 20 21  1  1
 21 15  1  0
 22 23  1  0
 22 20  1  0
 24 22  2  0
M  END
$$$$
