VKT.pdb
     RDKit          3D

 24 23  0  0  1  0  0  0  0  0999 V2000
   28.7659  -19.4032  -18.1486 C   0  0  0  0  0  0  0  0  0  0  0  0
   27.5799  -19.9197  -17.3680 C   0  0  2  0  0  0  0  0  0  0  0  0
   26.8599  -18.7381  -16.7918 C   0  0  0  0  0  0  0  0  0  0  0  0
   28.1069  -20.8010  -16.2452 C   0  0  2  0  0  0  0  0  0  0  0  0
   28.7346  -21.9888  -16.8192 N   0  0  0  0  0  0  0  0  0  0  0  0
   26.9755  -21.2092  -15.3479 C   0  0  0  0  0  0  0  0  0  0  0  0
   26.1993  -22.0936  -15.8318 O   0  0  0  0  0  0  0  0  0  0  0  0
   26.7879  -20.6561  -14.0699 N   0  0  0  0  0  0  0  0  0  0  0  0
   25.6466  -21.0473  -13.2264 C   0  0  1  0  0  0  0  0  0  0  0  0
   25.9888  -20.7647  -11.7979 C   0  0  0  0  0  0  0  0  0  0  0  0
   24.9051  -21.0527  -10.8144 C   0  0  0  0  0  0  0  0  0  0  0  0
   25.3719  -20.7043   -9.3823 C   0  0  0  0  0  0  0  0  0  0  0  0
   24.2400  -20.9361   -8.4070 C   0  0  0  0  0  0  0  0  0  0  0  0
   24.6477  -20.4540   -7.0999 N   0  0  0  0  0  0  0  0  0  0  0  0
   24.4617  -20.3840  -13.7552 C   0  0  0  0  0  0  0  0  0  0  0  0
   24.4988  -19.1132  -13.9348 O   0  0  0  0  0  0  0  0  0  0  0  0
   20.3335  -20.0019  -16.2962 C   0  0  0  0  0  0  0  0  0  0  0  0
   21.6265  -20.6302  -15.8928 C   0  0  1  0  0  0  0  0  0  0  0  0
   22.6476  -20.4233  -16.8121 O   0  0  0  0  0  0  0  0  0  0  0  0
   22.0696  -20.1948  -14.5253 C   0  0  2  0  0  0  0  0  0  0  0  0
   23.2327  -20.9790  -14.1133 N   0  0  0  0  0  0  0  0  0  0  0  0
   20.9590  -20.3437  -13.5501 C   0  0  0  0  0  0  0  0  0  0  0  0
   20.0274  -19.3400  -13.3354 O   0  0  0  0  0  0  0  0  0  0  0  0
   20.8244  -21.3982  -12.8777 O   0  0  0  0  0  0  0  0  0  0  0  0
  2  1  1  1
  2  4  1  0
  2  3  1  0
  4  5  1  6
  6  7  2  0
  6  4  1  0
  8  6  1  0
  9 10  1  1
  9  8  1  0
 11 10  1  0
 11 12  1  0
 13 14  1  0
 13 12  1  0
 15  9  1  0
 16 15  2  0
 18 19  1  0
 18 20  1  0
 18 17  1  6
 20 21  1  1
 21 15  1  0
 22 23  1  0
 22 20  1  0
 24 22  2  0
M  END
$$$$
