VKT.pdb
     RDKit          3D

 24 23  0  0  1  0  0  0  0  0999 V2000
   16.8445   -7.0842  -16.0167 C   0  0  0  0  0  0  0  0  0  0  0  0
   17.0815   -7.8721  -17.2839 C   0  0  2  0  0  0  0  0  0  0  0  0
   15.7779   -7.9635  -18.0180 C   0  0  0  0  0  0  0  0  0  0  0  0
   17.5498   -9.2646  -16.8880 C   0  0  2  0  0  0  0  0  0  0  0  0
   16.5541   -9.8767  -16.0114 N   0  0  0  0  0  0  0  0  0  0  0  0
   18.8659   -9.1723  -16.1732 C   0  0  0  0  0  0  0  0  0  0  0  0
   18.7871   -9.1589  -14.9034 O   0  0  0  0  0  0  0  0  0  0  0  0
   20.0927   -9.1058  -16.8552 N   0  0  0  0  0  0  0  0  0  0  0  0
   21.3698   -9.0240  -16.1275 C   0  0  1  0  0  0  0  0  0  0  0  0
   22.3972   -9.8137  -16.8747 C   0  0  0  0  0  0  0  0  0  0  0  0
   22.0663  -11.2530  -17.0835 C   0  0  0  0  0  0  0  0  0  0  0  0
   23.1440  -11.9308  -17.9607 C   0  0  0  0  0  0  0  0  0  0  0  0
   22.7889  -13.3854  -18.1708 C   0  0  0  0  0  0  0  0  0  0  0  0
   23.8153  -13.9995  -18.9933 N   0  0  0  0  0  0  0  0  0  0  0  0
   21.6632   -7.6129  -15.9124 C   0  0  0  0  0  0  0  0  0  0  0  0
   22.3252   -6.9799  -16.8122 O   0  0  0  0  0  0  0  0  0  0  0  0
   19.7095   -4.6023  -16.0790 C   0  0  0  0  0  0  0  0  0  0  0  0
   20.3660   -4.5842  -14.7382 C   0  0  1  0  0  0  0  0  0  0  0  0
   19.5215   -4.9804  -13.7083 O   0  0  0  0  0  0  0  0  0  0  0  0
   21.6280   -5.3982  -14.7104 C   0  0  2  0  0  0  0  0  0  0  0  0
   21.2976   -6.8193  -14.8037 N   0  0  0  0  0  0  0  0  0  0  0  0
   22.3990   -5.1146  -13.4728 C   0  0  0  0  0  0  0  0  0  0  0  0
   22.5997   -6.0747  -12.4934 O   0  0  0  0  0  0  0  0  0  0  0  0
   22.9022   -3.9800  -13.2688 O   0  0  0  0  0  0  0  0  0  0  0  0
  2  1  1  1
  2  4  1  0
  2  3  1  0
  4  5  1  1
  6  7  2  0
  6  4  1  0
  8  6  1  0
  9 10  1  6
  9  8  1  0
 11 10  1  0
 11 12  1  0
 13 14  1  0
 13 12  1  0
 15  9  1  0
 16 15  2  0
 18 19  1  0
 18 20  1  0
 18 17  1  6
 20 21  1  1
 21 15  1  0
 22 23  1  0
 22 20  1  0
 24 22  2  0
M  END
$$$$
