PYR.pdb
     RDKit          3D

 31 32  0  0  1  0  0  0  0  0999 V2000
    7.9468  -15.5259   18.4507 N   0  0  0  0  0  0  0  0  0  0  0  0
    6.7879  -14.7096   18.3124 C   0  0  0  0  0  0  0  0  0  0  0  0
    7.2612  -13.2917   18.0893 C   0  0  0  0  0  0  0  0  0  0  0  0
    8.7451  -13.3665   18.2046 C   0  0  0  0  0  0  0  0  0  0  0  0
    9.0395  -14.7097   18.8553 C   0  0  1  0  0  0  0  0  0  0  0  0
    9.1691  -14.4908   20.3044 C   0  0  0  0  0  0  0  0  0  0  0  0
   10.2849  -14.1173   20.8090 O   0  0  0  0  0  0  0  0  0  0  0  0
    6.9148  -12.3183   28.5844 O   0  0  0  0  0  0  0  0  0  0  0  0
    6.9096  -12.7831   27.2613 C   0  0  0  0  0  0  0  0  0  0  0  0
    6.5600  -14.0590   26.9605 C   0  0  0  0  0  0  0  0  0  0  0  0
    6.5664  -14.4847   25.6359 C   0  0  0  0  0  0  0  0  0  0  0  0
    6.9211  -13.6392   24.6089 C   0  0  0  0  0  0  0  0  0  0  0  0
    6.9322  -14.0790   23.2175 C   0  0  0  0  0  0  0  0  0  0  0  0
    8.3237  -14.3900   22.6759 C   0  0  2  0  0  0  0  0  0  0  0  0
    8.1347  -14.6571   21.2634 N   0  0  0  0  0  0  0  0  0  0  0  0
    8.9208  -15.5733   23.3331 C   0  0  0  0  0  0  0  0  0  0  0  0
    8.5947  -16.7473   22.9534 O   0  0  0  0  0  0  0  0  0  0  0  0
    7.2722  -12.3516   24.9340 C   0  0  0  0  0  0  0  0  0  0  0  0
    7.2697  -11.9107   26.2636 C   0  0  0  0  0  0  0  0  0  0  0  0
   17.3406  -16.6857   23.5268 N   0  0  0  0  0  0  0  0  0  0  0  0
   16.7867  -17.8626   24.1285 C   0  0  0  0  0  0  0  0  0  0  0  0
   17.5875  -18.8545   24.3922 N   0  0  0  0  0  0  0  0  0  0  0  0
   15.4185  -17.9797   24.4407 N   0  0  0  0  0  0  0  0  0  0  0  0
   14.5057  -16.9121   24.1221 C   0  0  0  0  0  0  0  0  0  0  0  0
   13.1100  -17.3341   24.6373 C   0  0  0  0  0  0  0  0  0  0  0  0
   12.1289  -16.2562   24.2728 C   0  0  0  0  0  0  0  0  0  0  0  0
   10.7514  -16.6036   24.7173 C   0  0  2  0  0  0  0  0  0  0  0  0
    9.8559  -15.4852   24.3846 N   0  0  0  0  0  0  0  0  0  0  0  0
   10.7014  -16.7925   26.1780 C   0  0  0  0  0  0  0  0  0  0  0  0
   10.1137  -15.7705   26.9479 O   0  0  0  0  0  0  0  0  0  0  0  0
   11.1388  -17.7903   26.8079 O   0  0  0  0  0  0  0  0  0  0  0  0
  1  2  1  0
  3  2  1  0
  4  3  1  0
  5  4  1  0
  5  1  1  0
  5  6  1  1
  6  7  2  0
  8  9  1  0
  9 19  2  0
 10 11  2  0
 10  9  1  0
 11 12  1  0
 12 13  1  0
 12 18  2  0
 14 13  1  1
 14 16  1  0
 15  6  1  0
 15 14  1  0
 16 17  2  0
 19 18  1  0
 20 21  1  0
 21 23  1  0
 22 21  2  0
 23 24  1  0
 24 25  1  0
 25 26  1  0
 27 26  1  1
 27 29  1  0
 28 16  1  0
 28 27  1  0
 29 31  2  0
 29 30  1  0
M  END
$$$$
