PYR.pdb
     RDKit          3D

 31 32  0  0  1  0  0  0  0  0999 V2000
    7.4989  -15.2856   18.5657 N   0  0  0  0  0  0  0  0  0  0  0  0
    6.6705  -14.1591   18.2946 C   0  0  0  0  0  0  0  0  0  0  0  0
    7.5828  -12.9967   17.9771 C   0  0  0  0  0  0  0  0  0  0  0  0
    8.9592  -13.5309   18.1793 C   0  0  0  0  0  0  0  0  0  0  0  0
    8.7869  -14.8263   18.9579 C   0  0  1  0  0  0  0  0  0  0  0  0
    8.9455  -14.5184   20.3879 C   0  0  0  0  0  0  0  0  0  0  0  0
   10.0751  -14.1304   20.8488 O   0  0  0  0  0  0  0  0  0  0  0  0
    7.2103  -12.1829   28.7372 O   0  0  0  0  0  0  0  0  0  0  0  0
    7.1161  -12.5941   27.3998 C   0  0  0  0  0  0  0  0  0  0  0  0
    6.4875  -13.7461   27.0559 C   0  0  0  0  0  0  0  0  0  0  0  0
    6.4135  -14.1219   25.7183 C   0  0  0  0  0  0  0  0  0  0  0  0
    6.9661  -13.3500   24.7213 C   0  0  0  0  0  0  0  0  0  0  0  0
    6.8944  -13.7385   23.3164 C   0  0  0  0  0  0  0  0  0  0  0  0
    8.1739  -14.3741   22.7822 C   0  0  2  0  0  0  0  0  0  0  0  0
    7.9263  -14.6085   21.3729 N   0  0  0  0  0  0  0  0  0  0  0  0
    8.4779  -15.6553   23.4564 C   0  0  0  0  0  0  0  0  0  0  0  0
    7.7061  -16.6592   23.2981 O   0  0  0  0  0  0  0  0  0  0  0  0
    7.5986  -12.1877   25.0897 C   0  0  0  0  0  0  0  0  0  0  0  0
    7.6798  -11.7981   26.4329 C   0  0  0  0  0  0  0  0  0  0  0  0
   14.9333  -18.4787   21.0375 N   0  0  0  0  0  0  0  0  0  0  0  0
   13.6611  -18.8773   20.5116 C   0  0  0  0  0  0  0  0  0  0  0  0
   13.5918  -19.2133   19.2558 N   0  0  0  0  0  0  0  0  0  0  0  0
   12.4956  -18.9170   21.3009 N   0  0  0  0  0  0  0  0  0  0  0  0
   12.5459  -18.5462   22.6918 C   0  0  0  0  0  0  0  0  0  0  0  0
   11.1377  -18.0399   23.0819 C   0  0  0  0  0  0  0  0  0  0  0  0
   11.1627  -17.6537   24.5336 C   0  0  0  0  0  0  0  0  0  0  0  0
    9.8447  -17.1218   24.9762 C   0  0  2  0  0  0  0  0  0  0  0  0
    9.6002  -15.8449   24.2886 N   0  0  0  0  0  0  0  0  0  0  0  0
    9.8453  -16.8525   26.4251 C   0  0  0  0  0  0  0  0  0  0  0  0
    9.7865  -15.5078   26.8383 O   0  0  0  0  0  0  0  0  0  0  0  0
    9.8940  -17.7192   27.3362 O   0  0  0  0  0  0  0  0  0  0  0  0
  1  2  1  0
  3  2  1  0
  4  3  1  0
  5  4  1  0
  5  1  1  0
  5  6  1  1
  6  7  2  0
  8  9  1  0
  9 19  2  0
 10 11  2  0
 10  9  1  0
 11 12  1  0
 12 13  1  0
 12 18  2  0
 14 13  1  1
 14 16  1  0
 15  6  1  0
 15 14  1  0
 16 17  2  0
 19 18  1  0
 20 21  1  0
 21 23  1  0
 22 21  2  0
 23 24  1  0
 24 25  1  0
 25 26  1  0
 27 26  1  6
 27 29  1  0
 28 16  1  0
 28 27  1  0
 29 31  2  0
 29 30  1  0
M  END
$$$$
