PYR.pdb
     RDKit          3D

 31 32  0  0  1  0  0  0  0  0999 V2000
    7.4573  -14.8203   19.7933 N   0  0  0  0  0  0  0  0  0  0  0  0
    6.5958  -13.6951   19.9353 C   0  0  0  0  0  0  0  0  0  0  0  0
    7.4153  -12.4611   19.6350 C   0  0  0  0  0  0  0  0  0  0  0  0
    8.7972  -12.9714   19.4096 C   0  0  0  0  0  0  0  0  0  0  0  0
    8.8045  -14.3920   19.9535 C   0  0  1  0  0  0  0  0  0  0  0  0
    9.2969  -14.3427   21.3391 C   0  0  0  0  0  0  0  0  0  0  0  0
   10.5091  -14.0141   21.5877 O   0  0  0  0  0  0  0  0  0  0  0  0
    9.3500  -14.6456   30.2502 O   0  0  0  0  0  0  0  0  0  0  0  0
    9.0032  -14.5808   28.8930 C   0  0  0  0  0  0  0  0  0  0  0  0
    9.0266  -13.4079   28.2115 C   0  0  0  0  0  0  0  0  0  0  0  0
    8.6761  -13.3822   26.8652 C   0  0  0  0  0  0  0  0  0  0  0  0
    8.3016  -14.5256   26.1961 C   0  0  0  0  0  0  0  0  0  0  0  0
    7.9306  -14.5062   24.7848 C   0  0  0  0  0  0  0  0  0  0  0  0
    9.1100  -14.6661   23.8309 C   0  0  2  0  0  0  0  0  0  0  0  0
    8.5340  -14.6361   22.5006 N   0  0  0  0  0  0  0  0  0  0  0  0
    9.8199  -15.9471   24.0396 C   0  0  0  0  0  0  0  0  0  0  0  0
    9.2019  -17.0527   23.8832 O   0  0  0  0  0  0  0  0  0  0  0  0
    8.2838  -15.7029   26.9036 C   0  0  0  0  0  0  0  0  0  0  0  0
    8.6346  -15.7421   28.2592 C   0  0  0  0  0  0  0  0  0  0  0  0
   15.8003  -14.6474   20.6396 N   0  0  0  0  0  0  0  0  0  0  0  0
   14.8921  -15.4650   19.8908 C   0  0  0  0  0  0  0  0  0  0  0  0
   14.6499  -15.1418   18.6532 N   0  0  0  0  0  0  0  0  0  0  0  0
   14.2598  -16.5949   20.4445 N   0  0  0  0  0  0  0  0  0  0  0  0
   14.4279  -16.9121   21.8393 C   0  0  0  0  0  0  0  0  0  0  0  0
   13.0182  -16.9468   22.4741 C   0  0  0  0  0  0  0  0  0  0  0  0
   13.1667  -17.2866   23.9300 C   0  0  0  0  0  0  0  0  0  0  0  0
   11.8462  -17.3220   24.6162 C   0  0  2  0  0  0  0  0  0  0  0  0
   11.1774  -16.0281   24.4118 N   0  0  0  0  0  0  0  0  0  0  0  0
   12.0123  -17.5110   26.0683 C   0  0  0  0  0  0  0  0  0  0  0  0
   12.5198  -18.7475   26.5110 O   0  0  0  0  0  0  0  0  0  0  0  0
   11.7406  -16.6635   26.9581 O   0  0  0  0  0  0  0  0  0  0  0  0
  1  2  1  0
  3  2  1  0
  4  3  1  0
  5  4  1  0
  5  1  1  0
  5  6  1  1
  6  7  2  0
  8  9  1  0
  9 19  2  0
 10 11  2  0
 10  9  1  0
 11 12  1  0
 12 13  1  0
 12 18  2  0
 14 13  1  1
 14 16  1  0
 15  6  1  0
 15 14  1  0
 16 17  2  0
 19 18  1  0
 20 21  1  0
 21 23  1  0
 22 21  2  0
 23 24  1  0
 24 25  1  0
 25 26  1  0
 27 26  1  6
 27 29  1  0
 28 16  1  0
 28 27  1  0
 29 31  2  0
 29 30  1  0
M  END
$$$$
