PYR.pdb
     RDKit          3D

 31 32  0  0  1  0  0  0  0  0999 V2000
    7.6978  -15.4023   18.2637 N   0  0  0  0  0  0  0  0  0  0  0  0
    6.6411  -14.4597   18.1101 C   0  0  0  0  0  0  0  0  0  0  0  0
    7.2754  -13.1089   17.8705 C   0  0  0  0  0  0  0  0  0  0  0  0
    8.7405  -13.3528   17.9927 C   0  0  0  0  0  0  0  0  0  0  0  0
    8.8763  -14.7122   18.6620 C   0  0  1  0  0  0  0  0  0  0  0  0
    9.0267  -14.4903   20.1087 C   0  0  0  0  0  0  0  0  0  0  0  0
   10.1535  -14.1304   20.5983 O   0  0  0  0  0  0  0  0  0  0  0  0
    6.9861  -12.6955   28.5582 O   0  0  0  0  0  0  0  0  0  0  0  0
    6.9718  -12.9933   27.1879 C   0  0  0  0  0  0  0  0  0  0  0  0
    7.4155  -12.1031   26.2653 C   0  0  0  0  0  0  0  0  0  0  0  0
    7.3864  -12.4338   24.9140 C   0  0  0  0  0  0  0  0  0  0  0  0
    6.9150  -13.6523   24.4804 C   0  0  0  0  0  0  0  0  0  0  0  0
    6.8794  -14.0055   23.0649 C   0  0  0  0  0  0  0  0  0  0  0  0
    8.2290  -14.4343   22.4981 C   0  0  2  0  0  0  0  0  0  0  0  0
    8.0021  -14.6395   21.0808 N   0  0  0  0  0  0  0  0  0  0  0  0
    8.7136  -15.6891   23.1138 C   0  0  0  0  0  0  0  0  0  0  0  0
    8.1198  -16.7918   22.8685 O   0  0  0  0  0  0  0  0  0  0  0  0
    6.4699  -14.5397   25.4298 C   0  0  0  0  0  0  0  0  0  0  0  0
    6.4941  -14.2189   26.7932 C   0  0  0  0  0  0  0  0  0  0  0  0
   14.5601  -20.3385   26.6605 N   0  0  0  0  0  0  0  0  0  0  0  0
   14.5342  -20.7125   25.2773 C   0  0  0  0  0  0  0  0  0  0  0  0
   14.8737  -21.9291   24.9618 N   0  0  0  0  0  0  0  0  0  0  0  0
   14.1572  -19.8161   24.2587 N   0  0  0  0  0  0  0  0  0  0  0  0
   13.8327  -18.4492   24.5760 C   0  0  0  0  0  0  0  0  0  0  0  0
   12.3186  -18.3984   24.8871 C   0  0  0  0  0  0  0  0  0  0  0  0
   11.7628  -17.1274   24.3101 C   0  0  0  0  0  0  0  0  0  0  0  0
   10.2968  -17.0206   24.5452 C   0  0  2  0  0  0  0  0  0  0  0  0
    9.8236  -15.7474   23.9812 N   0  0  0  0  0  0  0  0  0  0  0  0
    9.9946  -17.0065   25.9875 C   0  0  0  0  0  0  0  0  0  0  0  0
   10.1149  -18.2202   26.6908 O   0  0  0  0  0  0  0  0  0  0  0  0
    9.6357  -16.0024   26.6559 O   0  0  0  0  0  0  0  0  0  0  0  0
  1  2  1  0
  3  2  1  0
  4  3  1  0
  5  4  1  0
  5  1  1  0
  5  6  1  1
  6  7  2  0
  8  9  1  0
  9 19  2  0
 10 11  2  0
 10  9  1  0
 11 12  1  0
 12 13  1  0
 12 18  2  0
 14 13  1  1
 14 16  1  0
 15  6  1  0
 15 14  1  0
 16 17  2  0
 19 18  1  0
 20 21  1  0
 21 23  1  0
 22 21  2  0
 23 24  1  0
 24 25  1  0
 25 26  1  0
 27 26  1  1
 27 29  1  0
 28 16  1  0
 28 27  1  0
 29 31  2  0
 29 30  1  0
M  END
$$$$
