PYR.pdb
     RDKit          3D

 31 32  0  0  1  0  0  0  0  0999 V2000
    7.3932  -15.0657   18.3528 N   0  0  0  0  0  0  0  0  0  0  0  0
    6.5374  -13.9367   18.2062 C   0  0  0  0  0  0  0  0  0  0  0  0
    7.4154  -12.7430   17.9086 C   0  0  0  0  0  0  0  0  0  0  0  0
    8.8075  -13.2685   17.9911 C   0  0  0  0  0  0  0  0  0  0  0  0
    8.6982  -14.6132   18.6938 C   0  0  1  0  0  0  0  0  0  0  0  0
    8.9421  -14.3944   20.1282 C   0  0  0  0  0  0  0  0  0  0  0  0
   10.1008  -14.0443   20.5453 O   0  0  0  0  0  0  0  0  0  0  0  0
    7.4967  -12.5293   28.6731 O   0  0  0  0  0  0  0  0  0  0  0  0
    7.3654  -12.8951   27.3257 C   0  0  0  0  0  0  0  0  0  0  0  0
    7.0755  -14.1700   26.9633 C   0  0  0  0  0  0  0  0  0  0  0  0
    6.9526  -14.4960   25.6162 C   0  0  0  0  0  0  0  0  0  0  0  0
    7.1185  -13.5517   24.6283 C   0  0  0  0  0  0  0  0  0  0  0  0
    6.9931  -13.8864   23.2133 C   0  0  0  0  0  0  0  0  0  0  0  0
    8.2984  -14.3341   22.5635 C   0  0  2  0  0  0  0  0  0  0  0  0
    7.9802  -14.5364   21.1635 N   0  0  0  0  0  0  0  0  0  0  0  0
    8.8031  -15.5955   23.1490 C   0  0  0  0  0  0  0  0  0  0  0  0
    8.1599  -16.6836   22.9730 O   0  0  0  0  0  0  0  0  0  0  0  0
    7.4119  -12.2669   25.0154 C   0  0  0  0  0  0  0  0  0  0  0  0
    7.5382  -11.9258   26.3682 C   0  0  0  0  0  0  0  0  0  0  0  0
   14.4663  -13.6872   20.2872 N   0  0  0  0  0  0  0  0  0  0  0  0
   14.3700  -15.0696   20.6530 C   0  0  0  0  0  0  0  0  0  0  0  0
   14.6861  -15.9655   19.7630 N   0  0  0  0  0  0  0  0  0  0  0  0
   13.9489  -15.4859   21.9306 N   0  0  0  0  0  0  0  0  0  0  0  0
   13.7009  -16.8796   22.1965 C   0  0  0  0  0  0  0  0  0  0  0  0
   12.1894  -17.0282   22.4879 C   0  0  0  0  0  0  0  0  0  0  0  0
   11.9925  -16.9954   23.9770 C   0  0  0  0  0  0  0  0  0  0  0  0
   10.5472  -16.9686   24.3326 C   0  0  2  0  0  0  0  0  0  0  0  0
    9.9856  -15.6758   23.9126 N   0  0  0  0  0  0  0  0  0  0  0  0
   10.3616  -17.0804   25.7903 C   0  0  0  0  0  0  0  0  0  0  0  0
   10.3528  -15.8885   26.5398 O   0  0  0  0  0  0  0  0  0  0  0  0
   10.2089  -18.1508   26.4342 O   0  0  0  0  0  0  0  0  0  0  0  0
  1  2  1  0
  3  2  1  0
  4  3  1  0
  5  4  1  0
  5  1  1  0
  5  6  1  1
  6  7  2  0
  8  9  1  0
  9 19  2  0
 10 11  2  0
 10  9  1  0
 11 12  1  0
 12 13  1  0
 12 18  2  0
 14 13  1  1
 14 16  1  0
 15  6  1  0
 15 14  1  0
 16 17  2  0
 19 18  1  0
 20 21  1  0
 21 23  1  0
 22 21  2  0
 23 24  1  0
 24 25  1  0
 25 26  1  0
 27 26  1  1
 27 29  1  0
 28 16  1  0
 28 27  1  0
 29 31  2  0
 29 30  1  0
M  END
$$$$
