PYR.pdb
     RDKit          3D

 31 32  0  0  1  0  0  0  0  0999 V2000
    7.4917  -15.2950   18.2327 N   0  0  0  0  0  0  0  0  0  0  0  0
    6.5598  -14.2523   17.9628 C   0  0  0  0  0  0  0  0  0  0  0  0
    7.3571  -13.0064   17.6523 C   0  0  0  0  0  0  0  0  0  0  0  0
    8.7778  -13.4067   17.8575 C   0  0  0  0  0  0  0  0  0  0  0  0
    8.7284  -14.7156   18.6310 C   0  0  1  0  0  0  0  0  0  0  0  0
    8.8522  -14.3992   20.0625 C   0  0  0  0  0  0  0  0  0  0  0  0
    9.9423  -13.9181   20.5309 O   0  0  0  0  0  0  0  0  0  0  0  0
    6.7161  -12.7116   28.5246 O   0  0  0  0  0  0  0  0  0  0  0  0
    6.7220  -12.9867   27.1495 C   0  0  0  0  0  0  0  0  0  0  0  0
    7.1264  -12.0609   26.2441 C   0  0  0  0  0  0  0  0  0  0  0  0
    7.1188  -12.3698   24.8874 C   0  0  0  0  0  0  0  0  0  0  0  0
    6.7081  -13.6020   24.4312 C   0  0  0  0  0  0  0  0  0  0  0  0
    6.6954  -13.9326   23.0098 C   0  0  0  0  0  0  0  0  0  0  0  0
    8.0586  -14.3303   22.4530 C   0  0  2  0  0  0  0  0  0  0  0  0
    7.8388  -14.5782   21.0414 N   0  0  0  0  0  0  0  0  0  0  0  0
    8.5845  -15.5526   23.0994 C   0  0  0  0  0  0  0  0  0  0  0  0
    7.9592  -16.6585   22.9788 O   0  0  0  0  0  0  0  0  0  0  0  0
    6.3020  -14.5255   25.3634 C   0  0  0  0  0  0  0  0  0  0  0  0
    6.3051  -14.2269   26.7321 C   0  0  0  0  0  0  0  0  0  0  0  0
   16.5919  -18.7352   22.8155 N   0  0  0  0  0  0  0  0  0  0  0  0
   15.7365  -19.7293   23.3934 C   0  0  0  0  0  0  0  0  0  0  0  0
   16.1606  -20.9595   23.4319 N   0  0  0  0  0  0  0  0  0  0  0  0
   14.4654  -19.4218   23.9158 N   0  0  0  0  0  0  0  0  0  0  0  0
   13.9448  -18.0822   23.8214 C   0  0  0  0  0  0  0  0  0  0  0  0
   12.4846  -18.1217   24.3292 C   0  0  0  0  0  0  0  0  0  0  0  0
   11.8038  -16.8526   23.9013 C   0  0  0  0  0  0  0  0  0  0  0  0
   10.3735  -16.8387   24.3135 C   0  0  2  0  0  0  0  0  0  0  0  0
    9.7689  -15.5755   23.8640 N   0  0  0  0  0  0  0  0  0  0  0  0
   10.2480  -16.8932   25.7808 C   0  0  0  0  0  0  0  0  0  0  0  0
   10.4233  -18.1434   26.4042 O   0  0  0  0  0  0  0  0  0  0  0  0
    9.9964  -15.9185   26.5361 O   0  0  0  0  0  0  0  0  0  0  0  0
  1  2  1  0
  3  2  1  0
  4  3  1  0
  5  4  1  0
  5  1  1  0
  5  6  1  1
  6  7  2  0
  8  9  1  0
  9 19  2  0
 10 11  2  0
 10  9  1  0
 11 12  1  0
 12 13  1  0
 12 18  2  0
 14 13  1  1
 14 16  1  0
 15  6  1  0
 15 14  1  0
 16 17  2  0
 19 18  1  0
 20 21  1  0
 21 23  1  0
 22 21  2  0
 23 24  1  0
 24 25  1  0
 25 26  1  0
 27 26  1  1
 27 29  1  0
 28 16  1  0
 28 27  1  0
 29 31  2  0
 29 30  1  0
M  END
$$$$
