ELA.pdb
     RDKit          3D

 23 22  0  0  1  0  0  0  0  0999 V2000
    9.7167  -18.0615   18.7768 N   0  0  0  0  0  0  0  0  0  0  0  0
   11.1054  -17.5479   18.8681 C   0  0  1  0  0  0  0  0  0  0  0  0
   11.4710  -17.0494   17.5066 C   0  0  0  0  0  0  0  0  0  0  0  0
   11.2858  -18.0677   16.4387 C   0  0  0  0  0  0  0  0  0  0  0  0
   11.6918  -17.5495   15.1217 C   0  0  0  0  0  0  0  0  0  0  0  0
   12.8694  -17.3145   14.8235 O   0  0  0  0  0  0  0  0  0  0  0  0
   11.0924  -16.4134   19.8385 C   0  0  0  0  0  0  0  0  0  0  0  0
   12.1225  -15.7847   20.1155 O   0  0  0  0  0  0  0  0  0  0  0  0
   10.7253  -17.3022   14.1432 O   0  0  0  0  0  0  0  0  0  0  0  0
    6.5280  -13.5331   19.9566 C   0  0  0  0  0  0  0  0  0  0  0  0
    8.0302  -13.8248   19.9545 C   0  0  1  0  0  0  0  0  0  0  0  0
    8.7349  -12.5359   19.6896 C   0  0  0  0  0  0  0  0  0  0  0  0
    8.3400  -14.4171   21.3082 C   0  0  0  0  0  0  0  0  0  0  0  0
    9.7686  -14.9183   21.4067 C   0  0  2  0  0  0  0  0  0  0  0  0
    9.8804  -16.0213   20.4775 N   0  0  0  0  0  0  0  0  0  0  0  0
    9.9111  -15.4620   22.7972 C   0  0  0  0  0  0  0  0  0  0  0  0
    9.8245  -14.7064   23.7931 O   0  0  0  0  0  0  0  0  0  0  0  0
    9.9242  -18.8549   24.4323 C   0  0  0  0  0  0  0  0  0  0  0  0
   10.2963  -17.3955   24.3580 C   0  0  2  0  0  0  0  0  0  0  0  0
   10.1470  -16.8345   23.0483 N   0  0  0  0  0  0  0  0  0  0  0  0
   11.7034  -17.2706   24.8007 C   0  0  0  0  0  0  0  0  0  0  0  0
   12.0585  -17.6587   26.0615 O   0  0  0  0  0  0  0  0  0  0  0  0
   12.5306  -16.8093   23.9997 O   0  0  0  0  0  0  0  0  0  0  0  0
  2  1  1  6
  2  7  1  0
  3  2  1  0
  4  3  1  0
  5  4  1  0
  5  6  2  0
  7 15  1  0
  8  7  2  0
  9  5  1  0
 11 10  1  1
 11 12  1  0
 13 11  1  0
 14 13  1  1
 15 14  1  0
 16 14  1  0
 17 16  2  0
 19 18  1  6
 19 20  1  0
 20 16  1  0
 21 19  1  0
 22 21  1  0
 23 21  2  0
M  END
$$$$
