ELA.pdb
     RDKit          3D

 23 22  0  0  1  0  0  0  0  0999 V2000
    9.7461  -15.4044   20.8518 N   0  0  0  0  0  0  0  0  0  0  0  0
    8.7086  -15.9791   21.7430 C   0  0  1  0  0  0  0  0  0  0  0  0
    8.8404  -17.4660   21.6551 C   0  0  0  0  0  0  0  0  0  0  0  0
    7.9030  -18.1929   22.5521 C   0  0  0  0  0  0  0  0  0  0  0  0
    8.1148  -19.6486   22.4897 C   0  0  0  0  0  0  0  0  0  0  0  0
    8.9652  -20.1754   21.7615 O   0  0  0  0  0  0  0  0  0  0  0  0
    9.0179  -15.5223   23.1304 C   0  0  0  0  0  0  0  0  0  0  0  0
   10.1832  -15.4318   23.5390 O   0  0  0  0  0  0  0  0  0  0  0  0
    7.3351  -20.4996   23.2774 O   0  0  0  0  0  0  0  0  0  0  0  0
    5.5379  -11.9539   25.9413 C   0  0  0  0  0  0  0  0  0  0  0  0
    6.8599  -12.5035   25.4008 C   0  0  1  0  0  0  0  0  0  0  0  0
    7.9612  -11.7189   26.0331 C   0  0  0  0  0  0  0  0  0  0  0  0
    6.8777  -13.9697   25.7597 C   0  0  0  0  0  0  0  0  0  0  0  0
    8.1750  -14.6470   25.3599 C   0  0  2  0  0  0  0  0  0  0  0  0
    7.9678  -15.1751   24.0292 N   0  0  0  0  0  0  0  0  0  0  0  0
    8.3344  -15.8031   26.3020 C   0  0  0  0  0  0  0  0  0  0  0  0
    8.5819  -15.6118   27.5155 O   0  0  0  0  0  0  0  0  0  0  0  0
    7.8246  -19.5622   26.1121 C   0  0  0  0  0  0  0  0  0  0  0  0
    8.2911  -18.2772   26.7485 C   0  0  2  0  0  0  0  0  0  0  0  0
    8.2150  -17.1461   25.8727 N   0  0  0  0  0  0  0  0  0  0  0  0
    9.6902  -18.4792   27.1879 C   0  0  0  0  0  0  0  0  0  0  0  0
    9.9847  -19.4525   28.1003 O   0  0  0  0  0  0  0  0  0  0  0  0
   10.5671  -17.7459   26.7061 O   0  0  0  0  0  0  0  0  0  0  0  0
  2  1  1  6
  2  7  1  0
  3  2  1  0
  4  3  1  0
  5  4  1  0
  5  6  2  0
  7 15  1  0
  8  7  2  0
  9  5  1  0
 11 10  1  1
 11 12  1  0
 13 11  1  0
 14 13  1  1
 15 14  1  0
 16 14  1  0
 17 16  2  0
 19 18  1  6
 19 20  1  0
 20 16  1  0
 21 19  1  0
 22 21  1  0
 23 21  2  0
M  END
$$$$
