ELA.pdb
     RDKit          3D

 23 22  0  0  1  0  0  0  0  0999 V2000
    8.2042  -17.2503   22.1318 N   0  0  0  0  0  0  0  0  0  0  0  0
    9.6557  -16.9460   22.1667 C   0  0  1  0  0  0  0  0  0  0  0  0
   10.0033  -16.3508   20.8397 C   0  0  0  0  0  0  0  0  0  0  0  0
   10.2319  -17.3696   19.7807 C   0  0  0  0  0  0  0  0  0  0  0  0
   11.3110  -16.9640   18.8647 C   0  0  0  0  0  0  0  0  0  0  0  0
   12.4306  -16.6115   19.2562 O   0  0  0  0  0  0  0  0  0  0  0  0
    9.8684  -15.9381   23.2474 C   0  0  0  0  0  0  0  0  0  0  0  0
   10.9477  -15.3458   23.3788 O   0  0  0  0  0  0  0  0  0  0  0  0
   11.0904  -16.9674   17.4849 O   0  0  0  0  0  0  0  0  0  0  0  0
    5.4838  -13.1627   25.7325 C   0  0  0  0  0  0  0  0  0  0  0  0
    6.7945  -13.4071   24.9814 C   0  0  1  0  0  0  0  0  0  0  0  0
    7.5072  -12.0987   24.8898 C   0  0  0  0  0  0  0  0  0  0  0  0
    7.5416  -14.4491   25.7783 C   0  0  0  0  0  0  0  0  0  0  0  0
    8.9453  -14.6826   25.2521 C   0  0  2  0  0  0  0  0  0  0  0  0
    8.8226  -15.6291   24.1650 N   0  0  0  0  0  0  0  0  0  0  0  0
    9.6904  -15.3488   26.3703 C   0  0  0  0  0  0  0  0  0  0  0  0
    9.9714  -16.5688   26.3161 O   0  0  0  0  0  0  0  0  0  0  0  0
   11.2694  -14.2231   29.6493 C   0  0  0  0  0  0  0  0  0  0  0  0
   10.9830  -15.1809   28.5205 C   0  0  2  0  0  0  0  0  0  0  0  0
   10.1061  -14.6426   27.5239 N   0  0  0  0  0  0  0  0  0  0  0  0
   10.3850  -16.3999   29.1105 C   0  0  0  0  0  0  0  0  0  0  0  0
    9.1066  -16.7571   28.7875 O   0  0  0  0  0  0  0  0  0  0  0  0
   11.0749  -17.0707   29.8932 O   0  0  0  0  0  0  0  0  0  0  0  0
  2  1  1  6
  2  7  1  0
  3  2  1  0
  4  3  1  0
  5  4  1  0
  5  6  2  0
  7 15  1  0
  8  7  2  0
  9  5  1  0
 11 10  1  1
 11 12  1  0
 13 11  1  0
 14 13  1  1
 15 14  1  0
 16 14  1  0
 17 16  2  0
 19 18  1  1
 19 20  1  0
 20 16  1  0
 21 19  1  0
 22 21  1  0
 23 21  2  0
M  END
$$$$
