ELA.pdb
     RDKit          3D

 23 22  0  0  1  0  0  0  0  0999 V2000
    9.0376  -15.6442   20.9961 N   0  0  0  0  0  0  0  0  0  0  0  0
    8.0287  -15.7953   22.0732 C   0  0  1  0  0  0  0  0  0  0  0  0
    7.6664  -17.2452   22.1241 C   0  0  0  0  0  0  0  0  0  0  0  0
    7.6841  -17.9024   20.7902 C   0  0  0  0  0  0  0  0  0  0  0  0
    7.2356  -19.3024   20.8716 C   0  0  0  0  0  0  0  0  0  0  0  0
    6.9278  -19.8508   21.9372 O   0  0  0  0  0  0  0  0  0  0  0  0
    8.6851  -15.3900   23.3514 C   0  0  0  0  0  0  0  0  0  0  0  0
    9.9166  -15.3971   23.4790 O   0  0  0  0  0  0  0  0  0  0  0  0
    7.1432  -20.0721   19.7090 O   0  0  0  0  0  0  0  0  0  0  0  0
    5.9314  -11.7827   26.4425 C   0  0  0  0  0  0  0  0  0  0  0  0
    7.0786  -12.4510   25.6816 C   0  0  1  0  0  0  0  0  0  0  0  0
    8.2221  -11.4918   25.6654 C   0  0  0  0  0  0  0  0  0  0  0  0
    7.3748  -13.7339   26.4200 C   0  0  0  0  0  0  0  0  0  0  0  0
    8.4515  -14.5576   25.7388 C   0  0  2  0  0  0  0  0  0  0  0  0
    7.9018  -14.9800   24.4692 N   0  0  0  0  0  0  0  0  0  0  0  0
    8.6335  -15.7739   26.5972 C   0  0  0  0  0  0  0  0  0  0  0  0
    9.0755  -15.6738   27.7655 O   0  0  0  0  0  0  0  0  0  0  0  0
    7.9236  -19.4941   26.3249 C   0  0  0  0  0  0  0  0  0  0  0  0
    8.6440  -18.2761   26.8457 C   0  0  2  0  0  0  0  0  0  0  0  0
    8.3197  -17.0745   26.1363 N   0  0  0  0  0  0  0  0  0  0  0  0
   10.0972  -18.5410   26.7473 C   0  0  0  0  0  0  0  0  0  0  0  0
   10.6473  -19.5875   27.4318 O   0  0  0  0  0  0  0  0  0  0  0  0
   10.7821  -17.7918   26.0344 O   0  0  0  0  0  0  0  0  0  0  0  0
  2  1  1  6
  2  7  1  0
  3  2  1  0
  4  3  1  0
  5  4  1  0
  5  6  2  0
  7 15  1  0
  8  7  2  0
  9  5  1  0
 11 10  1  1
 11 12  1  0
 13 11  1  0
 14 13  1  1
 15 14  1  0
 16 14  1  0
 17 16  2  0
 19 18  1  6
 19 20  1  0
 20 16  1  0
 21 19  1  0
 22 21  1  0
 23 21  2  0
M  END
$$$$
