VSF.pdb
     RDKit          3D

 25 25  0  0  1  0  0  0  0  0999 V2000
    8.0650  -12.4252   18.3474 C   0  0  0  0  0  0  0  0  0  0  0  0
    7.9233  -13.2965   19.5560 C   0  0  2  0  0  0  0  0  0  0  0  0
    8.9246  -12.8392   20.5967 C   0  0  0  0  0  0  0  0  0  0  0  0
    8.1911  -14.7531   19.2727 C   0  0  2  0  0  0  0  0  0  0  0  0
    7.3244  -15.2209   18.2146 N   0  0  0  0  0  0  0  0  0  0  0  0
    8.0482  -15.5889   20.4984 C   0  0  0  0  0  0  0  0  0  0  0  0
    6.9240  -15.7420   21.0386 O   0  0  0  0  0  0  0  0  0  0  0  0
   10.7766  -18.3431   21.7962 O   0  0  0  0  0  0  0  0  0  0  0  0
    9.4251  -18.3715   22.1232 C   0  0  0  0  0  0  0  0  0  0  0  0
    8.9814  -16.9383   22.3306 C   0  0  2  0  0  0  0  0  0  0  0  0
    9.1548  -16.2388   21.1014 N   0  0  0  0  0  0  0  0  0  0  0  0
    9.7456  -16.3069   23.4588 C   0  0  0  0  0  0  0  0  0  0  0  0
   10.8034  -15.6991   23.2204 O   0  0  0  0  0  0  0  0  0  0  0  0
    9.2943  -16.3824   24.8024 N   0  0  0  0  0  0  0  0  0  0  0  0
    9.9710  -15.7185   25.9109 C   0  0  1  0  0  0  0  0  0  0  0  0
    9.9224  -14.2389   25.8026 C   0  0  0  0  0  0  0  0  0  0  0  0
    8.5583  -13.7517   25.9847 C   0  0  0  0  0  0  0  0  0  0  0  0
    8.1539  -13.1822   27.1659 C   0  0  0  0  0  0  0  0  0  0  0  0
    6.8384  -12.7187   27.3232 C   0  0  0  0  0  0  0  0  0  0  0  0
    5.9386  -12.8317   26.2899 C   0  0  0  0  0  0  0  0  0  0  0  0
    6.3371  -13.4009   25.1048 C   0  0  0  0  0  0  0  0  0  0  0  0
    7.6368  -13.8515   24.9687 C   0  0  0  0  0  0  0  0  0  0  0  0
    9.5069  -16.1843   27.2075 C   0  0  0  0  0  0  0  0  0  0  0  0
    9.8995  -15.8385   28.3380 O   0  0  0  0  0  0  0  0  0  0  0  0
    8.4797  -17.1538   27.2229 O   0  0  0  0  0  0  0  0  0  0  0  0
  2  1  1  6
  2  4  1  0
  2  3  1  0
  4  6  1  0
  4  5  1  6
  6  7  2  0
  9  8  1  0
 10  9  1  6
 10 12  1  0
 11  6  1  0
 11 10  1  0
 12 13  2  0
 14 15  1  0
 14 12  1  0
 15 23  1  0
 15 16  1  1
 17 16  1  0
 18 17  2  0
 19 18  1  0
 20 21  1  0
 20 19  2  0
 21 22  2  0
 22 17  1  0
 23 24  2  0
 23 25  1  0
M  END
$$$$
