VSF.pdb
     RDKit          3D

 25 25  0  0  1  0  0  0  0  0999 V2000
    7.3308  -12.7850   20.4291 C   0  0  0  0  0  0  0  0  0  0  0  0
    8.5292  -13.3239   19.7124 C   0  0  2  0  0  0  0  0  0  0  0  0
    8.7040  -12.5500   18.4219 C   0  0  0  0  0  0  0  0  0  0  0  0
    8.4015  -14.7836   19.3565 C   0  0  2  0  0  0  0  0  0  0  0  0
    7.3282  -14.9715   18.4066 N   0  0  0  0  0  0  0  0  0  0  0  0
    8.2075  -15.6316   20.5668 C   0  0  0  0  0  0  0  0  0  0  0  0
    7.0528  -15.8619   21.0058 O   0  0  0  0  0  0  0  0  0  0  0  0
   10.8262  -18.3758   21.8991 O   0  0  0  0  0  0  0  0  0  0  0  0
    9.4728  -18.3818   22.2196 C   0  0  0  0  0  0  0  0  0  0  0  0
    9.0609  -16.9448   22.4630 C   0  0  2  0  0  0  0  0  0  0  0  0
    9.2977  -16.2076   21.2669 N   0  0  0  0  0  0  0  0  0  0  0  0
    9.8005  -16.3755   23.6396 C   0  0  0  0  0  0  0  0  0  0  0  0
   10.9356  -15.8951   23.4783 O   0  0  0  0  0  0  0  0  0  0  0  0
    9.2395  -16.3681   24.9434 N   0  0  0  0  0  0  0  0  0  0  0  0
    9.9523  -15.8761   26.1169 C   0  0  1  0  0  0  0  0  0  0  0  0
   10.0749  -14.3969   26.1291 C   0  0  0  0  0  0  0  0  0  0  0  0
    8.7574  -13.7687   26.1061 C   0  0  0  0  0  0  0  0  0  0  0  0
    8.0489  -13.6352   24.9385 C   0  0  0  0  0  0  0  0  0  0  0  0
    6.7829  -13.0289   24.9352 C   0  0  0  0  0  0  0  0  0  0  0  0
    6.2386  -12.5610   26.1078 C   0  0  0  0  0  0  0  0  0  0  0  0
    6.9428  -12.6916   27.2801 C   0  0  0  0  0  0  0  0  0  0  0  0
    8.1881  -13.2914   27.2635 C   0  0  0  0  0  0  0  0  0  0  0  0
    9.3985  -16.3860   27.3606 C   0  0  0  0  0  0  0  0  0  0  0  0
    8.3321  -17.0060   27.5342 O   0  0  0  0  0  0  0  0  0  0  0  0
   10.1398  -16.1672   28.5430 O   0  0  0  0  0  0  0  0  0  0  0  0
  2  1  1  6
  2  4  1  0
  2  3  1  0
  4  6  1  0
  4  5  1  6
  6  7  2  0
  9  8  1  0
 10  9  1  6
 10 12  1  0
 11  6  1  0
 11 10  1  0
 12 13  2  0
 14 15  1  0
 14 12  1  0
 15 23  1  0
 15 16  1  1
 17 16  1  0
 18 17  2  0
 19 18  1  0
 20 21  1  0
 20 19  2  0
 21 22  2  0
 22 17  1  0
 23 24  2  0
 23 25  1  0
M  END
$$$$
