VSF.pdb
     RDKit          3D

 25 25  0  0  1  0  0  0  0  0999 V2000
    8.1657  -12.2847   18.7736 C   0  0  0  0  0  0  0  0  0  0  0  0
    8.0322  -13.1797   19.9658 C   0  0  2  0  0  0  0  0  0  0  0  0
    8.9727  -12.6841   21.0450 C   0  0  0  0  0  0  0  0  0  0  0  0
    8.3880  -14.6155   19.6731 C   0  0  2  0  0  0  0  0  0  0  0  0
    7.6659  -15.0791   18.5097 N   0  0  0  0  0  0  0  0  0  0  0  0
    8.1407  -15.4961   20.8498 C   0  0  0  0  0  0  0  0  0  0  0  0
    6.9765  -15.8805   21.1253 O   0  0  0  0  0  0  0  0  0  0  0  0
   10.9057  -17.9174   22.2438 O   0  0  0  0  0  0  0  0  0  0  0  0
    9.5538  -18.1566   22.4663 C   0  0  0  0  0  0  0  0  0  0  0  0
    8.9049  -16.8232   22.7743 C   0  0  2  0  0  0  0  0  0  0  0  0
    9.1892  -15.9334   21.6983 N   0  0  0  0  0  0  0  0  0  0  0  0
    9.3866  -16.2938   24.0945 C   0  0  0  0  0  0  0  0  0  0  0  0
   10.4291  -15.6185   24.1427 O   0  0  0  0  0  0  0  0  0  0  0  0
    8.6826  -16.5421   25.3018 N   0  0  0  0  0  0  0  0  0  0  0  0
    9.1868  -16.1553   26.6146 C   0  0  1  0  0  0  0  0  0  0  0  0
    8.1318  -15.5698   27.4791 C   0  0  0  0  0  0  0  0  0  0  0  0
    7.5892  -14.3537   26.8808 C   0  0  0  0  0  0  0  0  0  0  0  0
    6.3856  -14.3564   26.2217 C   0  0  0  0  0  0  0  0  0  0  0  0
    5.8787  -13.1775   25.6529 C   0  0  0  0  0  0  0  0  0  0  0  0
    6.5873  -12.0034   25.7515 C   0  0  0  0  0  0  0  0  0  0  0  0
    7.7929  -11.9940   26.4100 C   0  0  0  0  0  0  0  0  0  0  0  0
    8.2758  -13.1650   26.9638 C   0  0  0  0  0  0  0  0  0  0  0  0
    9.8975  -17.2351   27.2797 C   0  0  0  0  0  0  0  0  0  0  0  0
    9.9928  -18.4271   26.9306 O   0  0  0  0  0  0  0  0  0  0  0  0
   10.5782  -16.9270   28.4785 O   0  0  0  0  0  0  0  0  0  0  0  0
  2  1  1  6
  2  4  1  0
  2  3  1  0
  4  6  1  0
  4  5  1  6
  6  7  2  0
  9  8  1  0
 10  9  1  6
 10 12  1  0
 11  6  1  0
 11 10  1  0
 12 13  2  0
 14 15  1  0
 14 12  1  0
 15 23  1  0
 15 16  1  1
 17 16  1  0
 18 17  2  0
 19 18  1  0
 20 21  1  0
 20 19  2  0
 21 22  2  0
 22 17  1  0
 23 24  2  0
 23 25  1  0
M  END
$$$$
