VSF.pdb
     RDKit          3D

 25 25  0  0  1  0  0  0  0  0999 V2000
    7.6169  -12.6742   20.5999 C   0  0  0  0  0  0  0  0  0  0  0  0
    8.6812  -13.3195   19.7687 C   0  0  2  0  0  0  0  0  0  0  0  0
    8.7737  -12.5800   18.4499 C   0  0  0  0  0  0  0  0  0  0  0  0
    8.3978  -14.7684   19.4616 C   0  0  2  0  0  0  0  0  0  0  0  0
    7.2455  -14.8766   18.5956 N   0  0  0  0  0  0  0  0  0  0  0  0
    8.2177  -15.5708   20.7047 C   0  0  0  0  0  0  0  0  0  0  0  0
    7.1398  -15.5165   21.3483 O   0  0  0  0  0  0  0  0  0  0  0  0
    8.4481  -19.1172   21.5311 O   0  0  0  0  0  0  0  0  0  0  0  0
    9.4358  -18.5205   22.3075 C   0  0  0  0  0  0  0  0  0  0  0  0
    9.0621  -17.0617   22.4691 C   0  0  2  0  0  0  0  0  0  0  0  0
    9.2364  -16.4179   21.2099 N   0  0  0  0  0  0  0  0  0  0  0  0
    9.8813  -16.4236   23.5540 C   0  0  0  0  0  0  0  0  0  0  0  0
   11.0986  -16.2425   23.3793 O   0  0  0  0  0  0  0  0  0  0  0  0
    9.3045  -16.0163   24.7853 N   0  0  0  0  0  0  0  0  0  0  0  0
   10.0875  -15.4990   25.9018 C   0  0  1  0  0  0  0  0  0  0  0  0
    9.9968  -14.0224   26.0242 C   0  0  0  0  0  0  0  0  0  0  0  0
    8.6025  -13.5911   26.0570 C   0  0  0  0  0  0  0  0  0  0  0  0
    7.8180  -13.6207   24.9315 C   0  0  0  0  0  0  0  0  0  0  0  0
    6.4790  -13.2027   24.9817 C   0  0  0  0  0  0  0  0  0  0  0  0
    5.9387  -12.7575   26.1650 C   0  0  0  0  0  0  0  0  0  0  0  0
    6.7188  -12.7255   27.2953 C   0  0  0  0  0  0  0  0  0  0  0  0
    8.0354  -13.1411   27.2264 C   0  0  0  0  0  0  0  0  0  0  0  0
    9.7816  -16.1683   27.1556 C   0  0  0  0  0  0  0  0  0  0  0  0
   10.3035  -15.9915   28.2727 O   0  0  0  0  0  0  0  0  0  0  0  0
    8.7669  -17.1509   27.1398 O   0  0  0  0  0  0  0  0  0  0  0  0
  2  1  1  1
  2  4  1  0
  2  3  1  0
  4  6  1  0
  4  5  1  6
  6  7  2  0
  9  8  1  0
 10  9  1  6
 10 12  1  0
 11  6  1  0
 11 10  1  0
 12 13  2  0
 14 15  1  0
 14 12  1  0
 15 23  1  0
 15 16  1  1
 17 16  1  0
 18 17  2  0
 19 18  1  0
 20 21  1  0
 20 19  2  0
 21 22  2  0
 22 17  1  0
 23 24  2  0
 23 25  1  0
M  END
$$$$
