VSF.pdb
     RDKit          3D

 25 25  0  0  1  0  0  0  0  0999 V2000
    2.5507  -18.4470   21.2356 C   0  0  0  0  0  0  0  0  0  0  0  0
    3.9208  -18.1489   21.7592 C   0  0  2  0  0  0  0  0  0  0  0  0
    3.9641  -16.6971   22.1893 C   0  0  0  0  0  0  0  0  0  0  0  0
    5.0063  -18.3545   20.7330 C   0  0  2  0  0  0  0  0  0  0  0  0
    4.9114  -19.6819   20.1684 N   0  0  0  0  0  0  0  0  0  0  0  0
    6.3601  -18.1051   21.3044 C   0  0  0  0  0  0  0  0  0  0  0  0
    6.9035  -18.9563   22.0522 O   0  0  0  0  0  0  0  0  0  0  0  0
    8.6162  -14.8836   20.1448 O   0  0  0  0  0  0  0  0  0  0  0  0
    9.2325  -16.1015   20.4115 C   0  0  0  0  0  0  0  0  0  0  0  0
    8.4271  -16.7863   21.4961 C   0  0  2  0  0  0  0  0  0  0  0  0
    7.0851  -16.9166   21.0355 N   0  0  0  0  0  0  0  0  0  0  0  0
    8.5161  -16.0191   22.7841 C   0  0  0  0  0  0  0  0  0  0  0  0
    7.9582  -14.9125   22.8803 O   0  0  0  0  0  0  0  0  0  0  0  0
    9.2240  -16.5221   23.9069 N   0  0  0  0  0  0  0  0  0  0  0  0
    9.5349  -15.7158   25.0819 C   0  0  1  0  0  0  0  0  0  0  0  0
    8.4932  -15.8190   26.1342 C   0  0  0  0  0  0  0  0  0  0  0  0
    7.6972  -14.5968   26.1954 C   0  0  0  0  0  0  0  0  0  0  0  0
    8.2073  -13.4367   26.7218 C   0  0  0  0  0  0  0  0  0  0  0  0
    7.4277  -12.2705   26.7720 C   0  0  0  0  0  0  0  0  0  0  0  0
    6.1394  -12.2802   26.2918 C   0  0  0  0  0  0  0  0  0  0  0  0
    5.6229  -13.4383   25.7636 C   0  0  0  0  0  0  0  0  0  0  0  0
    6.4059  -14.5768   25.7226 C   0  0  0  0  0  0  0  0  0  0  0  0
   10.8648  -15.9819   25.6053 C   0  0  0  0  0  0  0  0  0  0  0  0
   11.6633  -16.8761   25.2666 O   0  0  0  0  0  0  0  0  0  0  0  0
   11.3435  -15.1365   26.6307 O   0  0  0  0  0  0  0  0  0  0  0  0
  2  1  1  6
  2  4  1  0
  2  3  1  0
  4  6  1  0
  4  5  1  1
  6  7  2  0
  9  8  1  0
 10  9  1  6
 10 12  1  0
 11  6  1  0
 11 10  1  0
 12 13  2  0
 14 15  1  0
 14 12  1  0
 15 23  1  0
 15 16  1  1
 17 16  1  0
 18 17  2  0
 19 18  1  0
 20 21  1  0
 20 19  2  0
 21 22  2  0
 22 17  1  0
 23 24  2  0
 23 25  1  0
M  END
$$$$
