MAF.pdb
     RDKit          3D

 25 25  0  0  1  0  0  0  0  0999 V2000
   22.7302  -16.7260  -16.3056 C   0  0  0  0  0  0  0  0  0  0  0  0
   23.0291  -17.1639  -14.5595 S   0  0  0  0  0  0  0  0  0  0  0  0
   24.8152  -17.3902  -14.2586 C   0  0  0  0  0  0  0  0  0  0  0  0
   25.5399  -16.9893  -15.5112 C   0  0  0  0  0  0  0  0  0  0  0  0
   27.0255  -17.0673  -15.4431 C   0  0  2  0  0  0  0  0  0  0  0  0
   27.6458  -16.5892  -16.6710 N   0  0  0  0  0  0  0  0  0  0  0  0
   27.4435  -18.4547  -15.1382 C   0  0  0  0  0  0  0  0  0  0  0  0
   27.2539  -19.4481  -15.8800 O   0  0  0  0  0  0  0  0  0  0  0  0
   29.8161  -20.0040  -12.6109 C   0  0  0  0  0  0  0  0  0  0  0  0
   28.6685  -20.0609  -13.6277 C   0  0  2  0  0  0  0  0  0  0  0  0
   28.1321  -18.7693  -13.9031 N   0  0  0  0  0  0  0  0  0  0  0  0
   27.6935  -21.0278  -13.1112 C   0  0  0  0  0  0  0  0  0  0  0  0
   27.7610  -22.2657  -13.2304 O   0  0  0  0  0  0  0  0  0  0  0  0
   26.5606  -20.5342  -12.4078 N   0  0  0  0  0  0  0  0  0  0  0  0
   25.5562  -21.4217  -11.8440 C   0  0  1  0  0  0  0  0  0  0  0  0
   25.9975  -22.0977  -10.6102 C   0  0  0  0  0  0  0  0  0  0  0  0
   26.4921  -21.1182   -9.6335 C   0  0  0  0  0  0  0  0  0  0  0  0
   25.6548  -20.2371   -8.9936 C   0  0  0  0  0  0  0  0  0  0  0  0
   26.0818  -19.3133   -8.0686 C   0  0  0  0  0  0  0  0  0  0  0  0
   27.4386  -19.2576   -7.7539 C   0  0  0  0  0  0  0  0  0  0  0  0
   28.3021  -20.1277   -8.3790 C   0  0  0  0  0  0  0  0  0  0  0  0
   27.8374  -21.0414   -9.3019 C   0  0  0  0  0  0  0  0  0  0  0  0
   24.3353  -20.6389  -11.6182 C   0  0  0  0  0  0  0  0  0  0  0  0
   24.3653  -19.2685  -11.9171 O   0  0  0  0  0  0  0  0  0  0  0  0
   23.2437  -21.0610  -11.1793 O   0  0  0  0  0  0  0  0  0  0  0  0
  2  3  1  0
  2  1  1  0
  4  3  1  0
  5  4  1  0
  5  7  1  0
  5  6  1  6
  7 11  1  0
  7  8  2  0
 10  9  1  1
 10 12  1  0
 11 10  1  0
 12 14  1  0
 12 13  2  0
 14 15  1  0
 15 23  1  0
 15 16  1  1
 17 22  2  0
 17 16  1  0
 18 17  1  0
 19 20  1  0
 19 18  2  0
 20 21  2  0
 21 22  1  0
 23 24  1  0
 25 23  2  0
M  END
$$$$
