MAF.pdb
     RDKit          3D

 25 25  0  0  1  0  0  0  0  0999 V2000
   30.8790  -21.1160  -11.2116 C   0  0  0  0  0  0  0  0  0  0  0  0
   29.2726  -21.2344  -12.0691 S   0  0  0  0  0  0  0  0  0  0  0  0
   28.8117  -19.6177  -12.7800 C   0  0  0  0  0  0  0  0  0  0  0  0
   27.4836  -19.7842  -13.4608 C   0  0  0  0  0  0  0  0  0  0  0  0
   27.3682  -20.9684  -14.3563 C   0  0  2  0  0  0  0  0  0  0  0  0
   28.3222  -20.9066  -15.4550 N   0  0  0  0  0  0  0  0  0  0  0  0
   25.9805  -21.0860  -14.8594 C   0  0  0  0  0  0  0  0  0  0  0  0
   25.3439  -20.1795  -15.4478 O   0  0  0  0  0  0  0  0  0  0  0  0
   23.5206  -23.9043  -15.4559 C   0  0  0  0  0  0  0  0  0  0  0  0
   23.8750  -22.4520  -15.1101 C   0  0  2  0  0  0  0  0  0  0  0  0
   25.2322  -22.3157  -14.6964 N   0  0  0  0  0  0  0  0  0  0  0  0
   22.8890  -21.9999  -14.1225 C   0  0  0  0  0  0  0  0  0  0  0  0
   22.9856  -22.1225  -12.8869 O   0  0  0  0  0  0  0  0  0  0  0  0
   21.7079  -21.3614  -14.5909 N   0  0  0  0  0  0  0  0  0  0  0  0
   20.7050  -20.8318  -13.6810 C   0  0  1  0  0  0  0  0  0  0  0  0
   21.0176  -19.4779  -13.1878 C   0  0  0  0  0  0  0  0  0  0  0  0
   21.3834  -18.5940  -14.3026 C   0  0  0  0  0  0  0  0  0  0  0  0
   20.4394  -17.9972  -15.1024 C   0  0  0  0  0  0  0  0  0  0  0  0
   20.7454  -17.1584  -16.1485 C   0  0  0  0  0  0  0  0  0  0  0  0
   22.0855  -16.8910  -16.4233 C   0  0  0  0  0  0  0  0  0  0  0  0
   23.0541  -17.4747  -15.6394 C   0  0  0  0  0  0  0  0  0  0  0  0
   22.7094  -18.3110  -14.5980 C   0  0  0  0  0  0  0  0  0  0  0  0
   19.4079  -20.8654  -14.3671 C   0  0  0  0  0  0  0  0  0  0  0  0
   19.3910  -21.1937  -15.7310 O   0  0  0  0  0  0  0  0  0  0  0  0
   18.2875  -20.6295  -13.8658 O   0  0  0  0  0  0  0  0  0  0  0  0
  2  3  1  0
  2  1  1  0
  4  3  1  0
  5  4  1  0
  5  7  1  0
  5  6  1  6
  7 11  1  0
  7  8  2  0
 10  9  1  1
 10 12  1  0
 11 10  1  0
 12 14  1  0
 12 13  2  0
 14 15  1  0
 15 23  1  0
 15 16  1  6
 17 22  2  0
 17 16  1  0
 18 17  1  0
 19 20  1  0
 19 18  2  0
 20 21  2  0
 21 22  1  0
 23 24  1  0
 25 23  2  0
M  END
$$$$
