MAF.pdb
     RDKit          3D

 25 25  0  0  1  0  0  0  0  0999 V2000
   24.5905  -14.1406  -15.1513 C   0  0  0  0  0  0  0  0  0  0  0  0
   24.8804  -13.9534  -16.9432 S   0  0  0  0  0  0  0  0  0  0  0  0
   23.2923  -13.9078  -17.8419 C   0  0  0  0  0  0  0  0  0  0  0  0
   22.8371  -12.4774  -17.8849 C   0  0  0  0  0  0  0  0  0  0  0  0
   21.9840  -12.0434  -16.7441 C   0  0  2  0  0  0  0  0  0  0  0  0
   20.8110  -12.8938  -16.5959 N   0  0  0  0  0  0  0  0  0  0  0  0
   21.5971  -10.6244  -16.9159 C   0  0  0  0  0  0  0  0  0  0  0  0
   22.3948   -9.6715  -17.0858 O   0  0  0  0  0  0  0  0  0  0  0  0
   18.3164   -8.7263  -17.3628 C   0  0  0  0  0  0  0  0  0  0  0  0
   19.7922   -8.8633  -16.9661 C   0  0  2  0  0  0  0  0  0  0  0  0
   20.2044  -10.2260  -16.8978 N   0  0  0  0  0  0  0  0  0  0  0  0
   19.9662   -8.1112  -15.7186 C   0  0  0  0  0  0  0  0  0  0  0  0
   19.4781   -8.4107  -14.6126 O   0  0  0  0  0  0  0  0  0  0  0  0
   20.7582   -6.9306  -15.7466 N   0  0  0  0  0  0  0  0  0  0  0  0
   21.1255   -6.2194  -14.5327 C   0  0  1  0  0  0  0  0  0  0  0  0
   22.2625   -6.8280  -13.8181 C   0  0  0  0  0  0  0  0  0  0  0  0
   23.3943   -7.0364  -14.7312 C   0  0  0  0  0  0  0  0  0  0  0  0
   23.8579   -8.2904  -15.0466 C   0  0  0  0  0  0  0  0  0  0  0  0
   24.9086   -8.5226  -15.9031 C   0  0  0  0  0  0  0  0  0  0  0  0
   25.5480   -7.4322  -16.4905 C   0  0  0  0  0  0  0  0  0  0  0  0
   25.1063   -6.1634  -16.1934 C   0  0  0  0  0  0  0  0  0  0  0  0
   24.0487   -5.9689  -15.3295 C   0  0  0  0  0  0  0  0  0  0  0  0
   21.4039   -4.8238  -14.8919 C   0  0  0  0  0  0  0  0  0  0  0  0
   21.6746   -3.9172  -13.8560 O   0  0  0  0  0  0  0  0  0  0  0  0
   21.4287   -4.3355  -16.0422 O   0  0  0  0  0  0  0  0  0  0  0  0
  2  3  1  0
  2  1  1  0
  4  3  1  0
  5  4  1  0
  5  7  1  0
  5  6  1  6
  7 11  1  0
  7  8  2  0
 10  9  1  1
 10 12  1  0
 11 10  1  0
 12 14  1  0
 12 13  2  0
 14 15  1  0
 15 23  1  0
 15 16  1  6
 17 22  2  0
 17 16  1  0
 18 17  1  0
 19 20  1  0
 19 18  2  0
 20 21  2  0
 21 22  1  0
 23 24  1  0
 25 23  2  0
M  END
$$$$
