MAF.pdb
     RDKit          3D

 25 25  0  0  1  0  0  0  0  0999 V2000
   29.5388  -21.5679   -3.8784 C   0  0  0  0  0  0  0  0  0  0  0  0
   28.1665  -20.3710   -3.9982 S   0  0  0  0  0  0  0  0  0  0  0  0
   28.4503  -19.2164   -5.3832 C   0  0  0  0  0  0  0  0  0  0  0  0
   27.8537  -19.8325   -6.6159 C   0  0  0  0  0  0  0  0  0  0  0  0
   27.9645  -19.0160   -7.8564 C   0  0  2  0  0  0  0  0  0  0  0  0
   27.4981  -17.6525   -7.6460 N   0  0  0  0  0  0  0  0  0  0  0  0
   27.2226  -19.6707   -8.9581 C   0  0  0  0  0  0  0  0  0  0  0  0
   25.9878  -19.5759   -9.1566 O   0  0  0  0  0  0  0  0  0  0  0  0
   28.5061  -21.2982  -12.1700 C   0  0  0  0  0  0  0  0  0  0  0  0
   27.4353  -20.6876  -11.2565 C   0  0  2  0  0  0  0  0  0  0  0  0
   27.9088  -20.5034   -9.9247 N   0  0  0  0  0  0  0  0  0  0  0  0
   26.2476  -21.5415  -11.3678 C   0  0  0  0  0  0  0  0  0  0  0  0
   25.9706  -22.5052  -10.6290 O   0  0  0  0  0  0  0  0  0  0  0  0
   25.3127  -21.2664  -12.4033 N   0  0  0  0  0  0  0  0  0  0  0  0
   23.8927  -21.1032  -12.1367 C   0  0  1  0  0  0  0  0  0  0  0  0
   23.6000  -20.0588  -11.1379 C   0  0  0  0  0  0  0  0  0  0  0  0
   22.1520  -19.9479  -10.9161 C   0  0  0  0  0  0  0  0  0  0  0  0
   21.3296  -19.2697  -11.7825 C   0  0  0  0  0  0  0  0  0  0  0  0
   19.9702  -19.1529  -11.6105 C   0  0  0  0  0  0  0  0  0  0  0  0
   19.3813  -19.7517  -10.4980 C   0  0  0  0  0  0  0  0  0  0  0  0
   20.1797  -20.4378   -9.6119 C   0  0  0  0  0  0  0  0  0  0  0  0
   21.5403  -20.5342   -9.8172 C   0  0  0  0  0  0  0  0  0  0  0  0
   23.2210  -20.8274  -13.4122 C   0  0  0  0  0  0  0  0  0  0  0  0
   23.7998  -19.8819  -14.2721 O   0  0  0  0  0  0  0  0  0  0  0  0
   22.1662  -21.3495  -13.8332 O   0  0  0  0  0  0  0  0  0  0  0  0
  2  3  1  0
  2  1  1  0
  4  3  1  0
  5  4  1  0
  5  7  1  0
  5  6  1  1
  7 11  1  0
  7  8  2  0
 10  9  1  6
 10 12  1  0
 11 10  1  0
 12 14  1  0
 12 13  2  0
 14 15  1  0
 15 23  1  0
 15 16  1  1
 17 22  2  0
 17 16  1  0
 18 17  1  0
 19 20  1  0
 19 18  2  0
 20 21  2  0
 21 22  1  0
 23 24  1  0
 25 23  2  0
M  END
$$$$
