MAF.pdb
     RDKit          3D

 25 25  0  0  1  0  0  0  0  0999 V2000
   31.6387  -24.0673  -13.0452 C   0  0  0  0  0  0  0  0  0  0  0  0
   32.5270  -24.9174  -14.3937 S   0  0  0  0  0  0  0  0  0  0  0  0
   31.8991  -24.3635  -16.0156 C   0  0  0  0  0  0  0  0  0  0  0  0
   30.6979  -23.4979  -15.7647 C   0  0  0  0  0  0  0  0  0  0  0  0
   29.9543  -23.0680  -16.9812 C   0  0  2  0  0  0  0  0  0  0  0  0
   30.8151  -22.3519  -17.9124 N   0  0  0  0  0  0  0  0  0  0  0  0
   28.7859  -22.2454  -16.5929 C   0  0  0  0  0  0  0  0  0  0  0  0
   28.8309  -21.0406  -16.2469 O   0  0  0  0  0  0  0  0  0  0  0  0
   25.0491  -22.4330  -16.9395 C   0  0  0  0  0  0  0  0  0  0  0  0
   26.3101  -22.0768  -16.1413 C   0  0  2  0  0  0  0  0  0  0  0  0
   27.4504  -22.8066  -16.5872 N   0  0  0  0  0  0  0  0  0  0  0  0
   25.9813  -22.2668  -14.7243 C   0  0  0  0  0  0  0  0  0  0  0  0
   26.4455  -23.1513  -13.9804 O   0  0  0  0  0  0  0  0  0  0  0  0
   25.0521  -21.3753  -14.1212 N   0  0  0  0  0  0  0  0  0  0  0  0
   25.0812  -21.0778  -12.6982 C   0  0  1  0  0  0  0  0  0  0  0  0
   26.3193  -20.4042  -12.2654 C   0  0  0  0  0  0  0  0  0  0  0  0
   26.2950  -20.1603  -10.8169 C   0  0  0  0  0  0  0  0  0  0  0  0
   26.4073  -21.1789   -9.9021 C   0  0  0  0  0  0  0  0  0  0  0  0
   26.3968  -20.9863   -8.5404 C   0  0  0  0  0  0  0  0  0  0  0  0
   26.2649  -19.6890   -8.0479 C   0  0  0  0  0  0  0  0  0  0  0  0
   26.1500  -18.6478   -8.9401 C   0  0  0  0  0  0  0  0  0  0  0  0
   26.1648  -18.8791  -10.2999 C   0  0  0  0  0  0  0  0  0  0  0  0
   23.8950  -20.2745  -12.3789 C   0  0  0  0  0  0  0  0  0  0  0  0
   23.0464  -20.7276  -11.3577 O   0  0  0  0  0  0  0  0  0  0  0  0
   23.5429  -19.2064  -12.9244 O   0  0  0  0  0  0  0  0  0  0  0  0
  2  3  1  0
  2  1  1  0
  4  3  1  0
  5  4  1  0
  5  7  1  0
  5  6  1  6
  7 11  1  0
  7  8  2  0
 10  9  1  6
 10 12  1  0
 11 10  1  0
 12 14  1  0
 12 13  2  0
 14 15  1  0
 15 23  1  0
 15 16  1  6
 17 22  2  0
 17 16  1  0
 18 17  1  0
 19 20  1  0
 19 18  2  0
 20 21  2  0
 21 22  1  0
 23 24  1  0
 25 23  2  0
M  END
$$$$
