MAF.pdb
     RDKit          3D

 25 25  0  0  1  0  0  0  0  0999 V2000
   28.2264  -15.9689  -14.0834 C   0  0  0  0  0  0  0  0  0  0  0  0
   27.6586  -16.5814  -15.7059 S   0  0  0  0  0  0  0  0  0  0  0  0
   27.8016  -18.3994  -15.7837 C   0  0  0  0  0  0  0  0  0  0  0  0
   27.8110  -18.9138  -14.3729 C   0  0  0  0  0  0  0  0  0  0  0  0
   27.9717  -20.3875  -14.2308 C   0  0  2  0  0  0  0  0  0  0  0  0
   28.2594  -21.0227  -15.5094 N   0  0  0  0  0  0  0  0  0  0  0  0
   26.7613  -20.9681  -13.6059 C   0  0  0  0  0  0  0  0  0  0  0  0
   25.9345  -21.7136  -14.1834 O   0  0  0  0  0  0  0  0  0  0  0  0
   25.2100  -20.8671  -10.0999 C   0  0  0  0  0  0  0  0  0  0  0  0
   25.2335  -21.1518  -11.6074 C   0  0  2  0  0  0  0  0  0  0  0  0
   26.4386  -20.6992  -12.2194 N   0  0  0  0  0  0  0  0  0  0  0  0
   24.0096  -20.5679  -12.1671 C   0  0  0  0  0  0  0  0  0  0  0  0
   23.8092  -19.3566  -12.3759 O   0  0  0  0  0  0  0  0  0  0  0  0
   22.9409  -21.4407  -12.5106 N   0  0  0  0  0  0  0  0  0  0  0  0
   21.6834  -20.9459  -13.0474 C   0  0  1  0  0  0  0  0  0  0  0  0
   21.3568  -21.4950  -14.3762 C   0  0  0  0  0  0  0  0  0  0  0  0
   22.2338  -20.9173  -15.4034 C   0  0  0  0  0  0  0  0  0  0  0  0
   23.4585  -21.4596  -15.7082 C   0  0  0  0  0  0  0  0  0  0  0  0
   24.3010  -20.9504  -16.6685 C   0  0  0  0  0  0  0  0  0  0  0  0
   23.9014  -19.8200  -17.3796 C   0  0  0  0  0  0  0  0  0  0  0  0
   22.6796  -19.2540  -17.0962 C   0  0  0  0  0  0  0  0  0  0  0  0
   21.8607  -19.7928  -16.1258 C   0  0  0  0  0  0  0  0  0  0  0  0
   20.6271  -21.2405  -12.0719 C   0  0  0  0  0  0  0  0  0  0  0  0
   19.3347  -20.7614  -12.3336 O   0  0  0  0  0  0  0  0  0  0  0  0
   20.7470  -21.8848  -11.0075 O   0  0  0  0  0  0  0  0  0  0  0  0
  2  3  1  0
  2  1  1  0
  4  3  1  0
  5  4  1  0
  5  7  1  0
  5  6  1  6
  7 11  1  0
  7  8  2  0
 10  9  1  1
 10 12  1  0
 11 10  1  0
 12 14  1  0
 12 13  2  0
 14 15  1  0
 15 23  1  0
 15 16  1  6
 17 22  2  0
 17 16  1  0
 18 17  1  0
 19 20  1  0
 19 18  2  0
 20 21  2  0
 21 22  1  0
 23 24  1  0
 25 23  2  0
M  END
$$$$
