MAF.pdb
     RDKit          3D

 25 25  0  0  1  0  0  0  0  0999 V2000
   20.4473  -19.7308  -20.2055 C   0  0  0  0  0  0  0  0  0  0  0  0
   19.3112  -20.1102  -18.8288 S   0  0  0  0  0  0  0  0  0  0  0  0
   20.1497  -19.8617  -17.2267 C   0  0  0  0  0  0  0  0  0  0  0  0
   21.6292  -19.8713  -17.4835 C   0  0  0  0  0  0  0  0  0  0  0  0
   22.4894  -19.8361  -16.2683 C   0  0  2  0  0  0  0  0  0  0  0  0
   21.7708  -19.3095  -15.1162 N   0  0  0  0  0  0  0  0  0  0  0  0
   23.7135  -19.0487  -16.5404 C   0  0  0  0  0  0  0  0  0  0  0  0
   24.5565  -19.3053  -17.4329 O   0  0  0  0  0  0  0  0  0  0  0  0
   25.1939  -15.7902  -15.1735 C   0  0  0  0  0  0  0  0  0  0  0  0
   25.2153  -17.1068  -15.9610 C   0  0  2  0  0  0  0  0  0  0  0  0
   24.0317  -17.8738  -15.7548 N   0  0  0  0  0  0  0  0  0  0  0  0
   26.4585  -17.7962  -15.5985 C   0  0  0  0  0  0  0  0  0  0  0  0
   27.6114  -17.3544  -15.7619 O   0  0  0  0  0  0  0  0  0  0  0  0
   26.3677  -19.0855  -15.0059 N   0  0  0  0  0  0  0  0  0  0  0  0
   27.5455  -19.8196  -14.5722 C   0  0  1  0  0  0  0  0  0  0  0  0
   27.8934  -19.5873  -13.1584 C   0  0  0  0  0  0  0  0  0  0  0  0
   26.7783  -19.9715  -12.2825 C   0  0  0  0  0  0  0  0  0  0  0  0
   25.5347  -19.3975  -12.3879 C   0  0  0  0  0  0  0  0  0  0  0  0
   24.4668  -19.7384  -11.5911 C   0  0  0  0  0  0  0  0  0  0  0  0
   24.6435  -20.7200  -10.6174 C   0  0  0  0  0  0  0  0  0  0  0  0
   25.8784  -21.3130  -10.4877 C   0  0  0  0  0  0  0  0  0  0  0  0
   26.9267  -20.9455  -11.3054 C   0  0  0  0  0  0  0  0  0  0  0  0
   27.3156  -21.2443  -14.8399 C   0  0  0  0  0  0  0  0  0  0  0  0
   28.4023  -22.1229  -14.7161 O   0  0  0  0  0  0  0  0  0  0  0  0
   26.2371  -21.7805  -15.1740 O   0  0  0  0  0  0  0  0  0  0  0  0
  2  3  1  0
  2  1  1  0
  4  3  1  0
  5  4  1  0
  5  7  1  0
  5  6  1  1
  7 11  1  0
  7  8  2  0
 10  9  1  1
 10 12  1  0
 11 10  1  0
 12 14  1  0
 12 13  2  0
 14 15  1  0
 15 23  1  0
 15 16  1  1
 17 22  2  0
 17 16  1  0
 18 17  1  0
 19 20  1  0
 19 18  2  0
 20 21  2  0
 21 22  1  0
 23 24  1  0
 25 23  2  0
M  END
$$$$
