MAF.pdb
     RDKit          3D

 25 25  0  0  1  0  0  0  0  0999 V2000
   16.2769  -24.4555    4.9208 C   0  0  0  0  0  0  0  0  0  0  0  0
   16.5611  -24.6437    3.1281 S   0  0  0  0  0  0  0  0  0  0  0  0
   15.5273  -23.4644    2.1942 C   0  0  0  0  0  0  0  0  0  0  0  0
   15.8061  -22.0912    2.7341 C   0  0  0  0  0  0  0  0  0  0  0  0
   15.0641  -20.9817    2.0736 C   0  0  2  0  0  0  0  0  0  0  0  0
   15.3787  -20.8947    0.6543 N   0  0  0  0  0  0  0  0  0  0  0  0
   15.3505  -19.7034    2.7639 C   0  0  0  0  0  0  0  0  0  0  0  0
   16.3197  -18.9471    2.5153 O   0  0  0  0  0  0  0  0  0  0  0  0
   13.6005  -17.6711    5.5085 C   0  0  0  0  0  0  0  0  0  0  0  0
   14.6920  -17.9682    4.4719 C   0  0  2  0  0  0  0  0  0  0  0  0
   14.4874  -19.2204    3.8224 N   0  0  0  0  0  0  0  0  0  0  0  0
   15.9787  -17.8451    5.1657 C   0  0  0  0  0  0  0  0  0  0  0  0
   16.6936  -18.7901    5.5491 O   0  0  0  0  0  0  0  0  0  0  0  0
   16.4775  -16.5415    5.4374 N   0  0  0  0  0  0  0  0  0  0  0  0
   17.7021  -16.3260    6.1909 C   0  0  1  0  0  0  0  0  0  0  0  0
   18.8848  -16.1086    5.3378 C   0  0  0  0  0  0  0  0  0  0  0  0
   18.7133  -14.9040    4.5146 C   0  0  0  0  0  0  0  0  0  0  0  0
   18.8787  -13.6397    5.0257 C   0  0  0  0  0  0  0  0  0  0  0  0
   18.7342  -12.4914    4.2828 C   0  0  0  0  0  0  0  0  0  0  0  0
   18.4008  -12.6031    2.9340 C   0  0  0  0  0  0  0  0  0  0  0  0
   18.2281  -13.8567    2.3936 C   0  0  0  0  0  0  0  0  0  0  0  0
   18.3816  -14.9866    3.1697 C   0  0  0  0  0  0  0  0  0  0  0  0
   17.4820  -15.1943    7.0993 C   0  0  0  0  0  0  0  0  0  0  0  0
   16.2906  -14.4650    6.9685 O   0  0  0  0  0  0  0  0  0  0  0  0
   18.2515  -14.7935    7.9991 O   0  0  0  0  0  0  0  0  0  0  0  0
  2  3  1  0
  2  1  1  0
  4  3  1  0
  5  4  1  0
  5  7  1  0
  5  6  1  6
  7 11  1  0
  7  8  2  0
 10  9  1  1
 10 12  1  0
 11 10  1  0
 12 14  1  0
 12 13  2  0
 14 15  1  0
 15 23  1  0
 15 16  1  6
 17 22  2  0
 17 16  1  0
 18 17  1  0
 19 20  1  0
 19 18  2  0
 20 21  2  0
 21 22  1  0
 23 24  1  0
 25 23  2  0
M  END
$$$$
