MAF.pdb
     RDKit          3D

 25 25  0  0  1  0  0  0  0  0999 V2000
   13.9744  -13.6056  -17.5200 C   0  0  0  0  0  0  0  0  0  0  0  0
   15.2390  -12.3189  -17.2454 S   0  0  0  0  0  0  0  0  0  0  0  0
   16.6689  -12.5889  -18.3473 C   0  0  0  0  0  0  0  0  0  0  0  0
   17.7388  -11.6137  -17.9481 C   0  0  0  0  0  0  0  0  0  0  0  0
   18.9854  -11.6640  -18.7612 C   0  0  2  0  0  0  0  0  0  0  0  0
   19.6627  -12.9464  -18.6281 N   0  0  0  0  0  0  0  0  0  0  0  0
   19.8791  -10.5457  -18.3826 C   0  0  0  0  0  0  0  0  0  0  0  0
   20.6959  -10.5614  -17.4309 O   0  0  0  0  0  0  0  0  0  0  0  0
   20.6498   -7.0859  -19.8386 C   0  0  0  0  0  0  0  0  0  0  0  0
   20.6823   -8.1863  -18.7698 C   0  0  2  0  0  0  0  0  0  0  0  0
   19.8669   -9.3007  -19.1232 N   0  0  0  0  0  0  0  0  0  0  0  0
   20.3256   -7.5500  -17.4969 C   0  0  0  0  0  0  0  0  0  0  0  0
   19.1752   -7.4453  -17.0314 O   0  0  0  0  0  0  0  0  0  0  0  0
   21.3674   -6.9950  -16.7041 N   0  0  0  0  0  0  0  0  0  0  0  0
   21.1006   -6.3129  -15.4480 C   0  0  1  0  0  0  0  0  0  0  0  0
   21.5644   -7.0606  -14.2649 C   0  0  0  0  0  0  0  0  0  0  0  0
   22.7966   -7.7994  -14.5715 C   0  0  0  0  0  0  0  0  0  0  0  0
   22.8758   -9.1664  -14.4618 C   0  0  0  0  0  0  0  0  0  0  0  0
   24.0093   -9.8906  -14.7482 C   0  0  0  0  0  0  0  0  0  0  0  0
   25.1491   -9.2108  -15.1745 C   0  0  0  0  0  0  0  0  0  0  0  0
   25.1004   -7.8409  -15.2938 C   0  0  0  0  0  0  0  0  0  0  0  0
   23.9452   -7.1477  -14.9978 C   0  0  0  0  0  0  0  0  0  0  0  0
   21.7159   -4.9821  -15.5155 C   0  0  0  0  0  0  0  0  0  0  0  0
   22.4581   -4.6554  -16.6604 O   0  0  0  0  0  0  0  0  0  0  0  0
   21.6548   -4.0823  -14.6500 O   0  0  0  0  0  0  0  0  0  0  0  0
  2  3  1  0
  2  1  1  0
  4  3  1  0
  5  4  1  0
  5  7  1  0
  5  6  1  1
  7 11  1  0
  7  8  2  0
 10  9  1  6
 10 12  1  0
 11 10  1  0
 12 14  1  0
 12 13  2  0
 14 15  1  0
 15 23  1  0
 15 16  1  1
 17 22  2  0
 17 16  1  0
 18 17  1  0
 19 20  1  0
 19 18  2  0
 20 21  2  0
 21 22  1  0
 23 24  1  0
 25 23  2  0
M  END
$$$$
