MAF.pdb
     RDKit          3D

 25 25  0  0  1  0  0  0  0  0999 V2000
   16.4701  -22.1960    1.0958 C   0  0  0  0  0  0  0  0  0  0  0  0
   15.9995  -20.5768    1.7937 S   0  0  0  0  0  0  0  0  0  0  0  0
   17.4668  -19.7251    2.4669 C   0  0  0  0  0  0  0  0  0  0  0  0
   17.0175  -18.3887    2.9837 C   0  0  0  0  0  0  0  0  0  0  0  0
   16.1080  -18.4318    4.1621 C   0  0  2  0  0  0  0  0  0  0  0  0
   14.7734  -17.9535    3.8290 N   0  0  0  0  0  0  0  0  0  0  0  0
   16.6920  -17.6527    5.2777 C   0  0  0  0  0  0  0  0  0  0  0  0
   16.9313  -16.4217    5.2544 O   0  0  0  0  0  0  0  0  0  0  0  0
   17.1459  -18.1112    8.9756 C   0  0  0  0  0  0  0  0  0  0  0  0
   17.6313  -17.5871    7.6177 C   0  0  2  0  0  0  0  0  0  0  0  0
   17.0417  -18.2935    6.5290 N   0  0  0  0  0  0  0  0  0  0  0  0
   19.0974  -17.6286    7.6480 C   0  0  0  0  0  0  0  0  0  0  0  0
   19.8136  -18.4934    7.1092 O   0  0  0  0  0  0  0  0  0  0  0  0
   19.7877  -16.6016    8.3484 N   0  0  0  0  0  0  0  0  0  0  0  0
   21.2350  -16.6018    8.4878 C   0  0  1  0  0  0  0  0  0  0  0  0
   21.9177  -15.7283    7.5158 C   0  0  0  0  0  0  0  0  0  0  0  0
   21.4205  -14.3501    7.6221 C   0  0  0  0  0  0  0  0  0  0  0  0
   20.4988  -13.9765    8.5697 C   0  0  0  0  0  0  0  0  0  0  0  0
   20.0180  -12.6949    8.7031 C   0  0  0  0  0  0  0  0  0  0  0  0
   20.4841  -11.7102    7.8336 C   0  0  0  0  0  0  0  0  0  0  0  0
   21.4077  -12.0544    6.8734 C   0  0  0  0  0  0  0  0  0  0  0  0
   21.8676  -13.3506    6.7696 C   0  0  0  0  0  0  0  0  0  0  0  0
   21.5573  -16.2213    9.8683 C   0  0  0  0  0  0  0  0  0  0  0  0
   20.5001  -15.8621   10.7178 O   0  0  0  0  0  0  0  0  0  0  0  0
   22.6927  -16.1784   10.3893 O   0  0  0  0  0  0  0  0  0  0  0  0
  2  3  1  0
  2  1  1  0
  4  3  1  0
  5  4  1  0
  5  7  1  0
  5  6  1  6
  7 11  1  0
  7  8  2  0
 10  9  1  1
 10 12  1  0
 11 10  1  0
 12 14  1  0
 12 13  2  0
 14 15  1  0
 15 23  1  0
 15 16  1  6
 17 22  2  0
 17 16  1  0
 18 17  1  0
 19 20  1  0
 19 18  2  0
 20 21  2  0
 21 22  1  0
 23 24  1  0
 25 23  2  0
M  END
$$$$
