RVA.pdb
     RDKit          3D

 24 23  0  0  1  0  0  0  0  0999 V2000
   19.3320  -19.5536  -16.9248 N   0  0  0  0  0  0  0  0  0  0  0  0
   19.5319  -20.7871  -17.6367 C   0  0  0  0  0  0  0  0  0  0  0  0
   19.9625  -20.7465  -18.8432 N   0  0  0  0  0  0  0  0  0  0  0  0
   19.2582  -22.0123  -17.0117 N   0  0  0  0  0  0  0  0  0  0  0  0
   19.2771  -22.1795  -15.5652 C   0  0  0  0  0  0  0  0  0  0  0  0
   20.5948  -22.6501  -15.0620 C   0  0  0  0  0  0  0  0  0  0  0  0
   21.5733  -21.6024  -14.6382 C   0  0  0  0  0  0  0  0  0  0  0  0
   21.7880  -21.6074  -13.1767 C   0  0  2  0  0  0  0  0  0  0  0  0
   20.6203  -21.1252  -12.4857 N   0  0  0  0  0  0  0  0  0  0  0  0
   22.9537  -20.7694  -12.7525 C   0  0  0  0  0  0  0  0  0  0  0  0
   22.7836  -19.5634  -12.4479 O   0  0  0  0  0  0  0  0  0  0  0  0
   20.1404  -21.5234  -19.4762 C   0  0  0  0  0  0  0  0  0  0  0  0
   25.0173  -20.7535   -9.8940 C   0  0  2  0  0  0  0  0  0  0  0  0
   25.9995  -20.8259  -11.0321 C   0  0  0  0  0  0  0  0  0  0  0  0
   26.9269  -21.9908  -11.0000 C   0  0  2  0  0  0  0  0  0  0  0  0
   25.4701  -20.5141  -12.3679 N   0  0  0  0  0  0  0  0  0  0  0  0
   24.2654  -21.2904  -12.6789 C   0  0  0  0  0  0  0  0  0  0  0  0
   26.3824  -20.4527  -13.5074 O   0  0  0  0  0  0  0  0  0  0  0  0
   26.8877  -21.5660  -13.9033 C   0  0  0  0  0  0  0  0  0  0  0  0
   27.0410  -20.3287  -16.4615 C   0  0  2  0  0  0  0  0  0  0  0  0
   27.6320  -19.4073  -15.4183 N   0  0  0  0  0  0  0  0  0  0  0  0
   26.7851  -19.3318  -14.2361 C   0  0  0  0  0  0  0  0  0  0  0  0
   27.7431  -18.0510  -15.9932 O   0  0  0  0  0  0  0  0  0  0  0  0
   27.0224  -16.9597  -15.5253 O   0  0  0  0  0  0  0  0  0  0  0  0
  1  2  1  0
  2  3  2  0
  4  5  1  0
  4  2  1  0
  6  7  1  0
  6  5  1  0
  8  9  1  1
  8  7  1  0
 10  8  1  0
 10 16  1  0
 11 10  2  0
 13 12  1  1
 13 15  1  0
 14 13  1  0
 15 16  1  6
 15 17  1  0
 17 21  1  0
 18 17  2  0
 20 22  1  0
 20 19  1  1
 21 20  1  0
 22 23  1  0
 24 22  2  0
M  END
$$$$
