RVA.pdb
     RDKit          3D

 24 23  0  0  1  0  0  0  0  0999 V2000
   46.5233   -7.9786   -8.2549 N   0  0  0  0  0  0  0  0  0  0  0  0
   47.2589   -7.9266   -9.4896 C   0  0  0  0  0  0  0  0  0  0  0  0
   48.5184   -7.6914   -9.4542 N   0  0  0  0  0  0  0  0  0  0  0  0
   46.5999   -8.1326  -10.7103 N   0  0  0  0  0  0  0  0  0  0  0  0
   45.1761   -8.4260  -10.7961 C   0  0  0  0  0  0  0  0  0  0  0  0
   44.8402   -9.7804  -10.2824 C   0  0  0  0  0  0  0  0  0  0  0  0
   43.4248  -10.2347  -10.4404 C   0  0  0  0  0  0  0  0  0  0  0  0
   42.7617  -10.4368   -9.1360 C   0  0  2  0  0  0  0  0  0  0  0  0
   43.1675  -11.6847   -8.5430 N   0  0  0  0  0  0  0  0  0  0  0  0
   41.2678  -10.4358   -9.2312 C   0  0  0  0  0  0  0  0  0  0  0  0
   40.6684  -11.4216   -9.7264 O   0  0  0  0  0  0  0  0  0  0  0  0
   49.1717   -7.6343  -10.2325 C   0  0  0  0  0  0  0  0  0  0  0  0
   38.3602  -10.2732   -6.8368 C   0  0  2  0  0  0  0  0  0  0  0  0
   38.2945   -9.0793   -7.7508 C   0  0  0  0  0  0  0  0  0  0  0  0
   38.4070   -7.7552   -7.0782 C   0  0  2  0  0  0  0  0  0  0  0  0
   39.0489   -9.1818   -9.0086 N   0  0  0  0  0  0  0  0  0  0  0  0
   40.4874   -9.3485   -8.7773 C   0  0  0  0  0  0  0  0  0  0  0  0
   38.7815   -8.2339  -10.0877 O   0  0  0  0  0  0  0  0  0  0  0  0
   39.5630   -7.2171  -10.1701 C   0  0  0  0  0  0  0  0  0  0  0  0
   36.4602   -7.6067  -13.0106 C   0  0  2  0  0  0  0  0  0  0  0  0
   37.5884   -7.2533  -12.0679 N   0  0  0  0  0  0  0  0  0  0  0  0
   37.7774   -8.2840  -11.0567 C   0  0  0  0  0  0  0  0  0  0  0  0
   37.2527   -5.9893  -11.3809 O   0  0  0  0  0  0  0  0  0  0  0  0
   37.6461   -4.7395  -11.8417 O   0  0  0  0  0  0  0  0  0  0  0  0
  1  2  1  0
  2  3  2  0
  4  5  1  0
  4  2  1  0
  6  7  1  0
  6  5  1  0
  8  9  1  6
  8  7  1  0
 10  8  1  0
 10 16  1  0
 11 10  2  0
 13 12  1  1
 13 15  1  0
 14 13  1  0
 15 16  1  6
 15 17  1  0
 17 21  1  0
 18 17  2  0
 20 22  1  0
 20 19  1  6
 21 20  1  0
 22 23  1  0
 24 22  2  0
M  END
$$$$
