RVA.pdb
     RDKit          3D

 24 23  0  0  1  0  0  0  0  0999 V2000
   38.0646   -5.5984   -8.9483 N   0  0  0  0  0  0  0  0  0  0  0  0
   38.3103   -5.6688  -10.3635 C   0  0  0  0  0  0  0  0  0  0  0  0
   37.9432   -4.6922  -11.1081 N   0  0  0  0  0  0  0  0  0  0  0  0
   38.9440   -6.7929  -10.9125 N   0  0  0  0  0  0  0  0  0  0  0  0
   39.2502   -7.9834  -10.1316 C   0  0  0  0  0  0  0  0  0  0  0  0
   39.9875   -7.6705   -8.8789 C   0  0  0  0  0  0  0  0  0  0  0  0
   40.9648   -8.6921   -8.3931 C   0  0  0  0  0  0  0  0  0  0  0  0
   40.3213   -9.9997   -8.1516 C   0  0  2  0  0  0  0  0  0  0  0  0
   39.2551   -9.8764   -7.1917 N   0  0  0  0  0  0  0  0  0  0  0  0
   41.2751  -11.0389   -7.6505 C   0  0  0  0  0  0  0  0  0  0  0  0
   41.3604  -11.2732   -6.4200 O   0  0  0  0  0  0  0  0  0  0  0  0
   38.0969   -4.5675  -12.1065 C   0  0  0  0  0  0  0  0  0  0  0  0
   44.1838  -14.9451   -8.7809 C   0  0  1  0  0  0  0  0  0  0  0  0
   42.9901  -14.0299   -8.8332 C   0  0  0  0  0  0  0  0  0  0  0  0
   41.6683  -14.6973   -8.6733 C   0  0  1  0  0  0  0  0  0  0  0  0
   43.1144  -12.7578   -8.1065 N   0  0  0  0  0  0  0  0  0  0  0  0
   42.1009  -11.7831   -8.5231 C   0  0  0  0  0  0  0  0  0  0  0  0
   44.4296  -12.1395   -7.9574 O   0  0  0  0  0  0  0  0  0  0  0  0
   44.8569  -11.4443   -8.9502 C   0  0  0  0  0  0  0  0  0  0  0  0
   47.2929  -11.7505   -5.5136 C   0  0  2  0  0  0  0  0  0  0  0  0
   46.6179  -11.5863   -6.8566 N   0  0  0  0  0  0  0  0  0  0  0  0
   45.2980  -12.2015   -6.8657 C   0  0  0  0  0  0  0  0  0  0  0  0
   47.4435  -12.2510   -7.8857 O   0  0  0  0  0  0  0  0  0  0  0  0
   48.3468  -11.5756   -8.6962 O   0  0  0  0  0  0  0  0  0  0  0  0
  1  2  1  0
  2  3  2  0
  4  5  1  0
  4  2  1  0
  6  7  1  0
  6  5  1  0
  8  9  1  1
  8  7  1  0
 10  8  1  0
 10 16  1  0
 11 10  2  0
 13 12  1  6
 13 15  1  0
 14 13  1  0
 15 16  1  6
 15 17  1  0
 17 21  1  0
 18 17  2  0
 20 22  1  0
 20 19  1  1
 21 20  1  0
 22 23  1  0
 24 22  2  0
M  END
$$$$
