RVA.pdb
     RDKit          3D

 24 23  0  0  1  0  0  0  0  0999 V2000
   14.2309  -13.1532  -15.4350 N   0  0  0  0  0  0  0  0  0  0  0  0
   13.1673  -12.2097  -15.2192 C   0  0  0  0  0  0  0  0  0  0  0  0
   11.9849  -12.5028  -15.6181 N   0  0  0  0  0  0  0  0  0  0  0  0
   13.4285  -10.9891  -14.5799 N   0  0  0  0  0  0  0  0  0  0  0  0
   14.6423  -10.2203  -14.8173 C   0  0  0  0  0  0  0  0  0  0  0  0
   15.8480  -10.8601  -14.2275 C   0  0  0  0  0  0  0  0  0  0  0  0
   17.1449  -10.1320  -14.3772 C   0  0  0  0  0  0  0  0  0  0  0  0
   17.5475  -10.0081  -15.7931 C   0  0  2  0  0  0  0  0  0  0  0  0
   18.0249  -11.2677  -16.3019 N   0  0  0  0  0  0  0  0  0  0  0  0
   18.6199   -8.9866  -16.0106 C   0  0  0  0  0  0  0  0  0  0  0  0
   19.8181   -9.2708  -15.7664 O   0  0  0  0  0  0  0  0  0  0  0  0
   11.1351  -11.9493  -15.5333 C   0  0  0  0  0  0  0  0  0  0  0  0
   18.1189   -4.5162  -17.4041 C   0  0  1  0  0  0  0  0  0  0  0  0
   18.9465   -5.7154  -17.7810 C   0  0  0  0  0  0  0  0  0  0  0  0
   20.0439   -5.4521  -18.7529 C   0  0  1  0  0  0  0  0  0  0  0  0
   19.3188   -6.6190  -16.6825 N   0  0  0  0  0  0  0  0  0  0  0  0
   18.3337   -7.6881  -16.4896 C   0  0  0  0  0  0  0  0  0  0  0  0
   19.7642   -6.0586  -15.4090 O   0  0  0  0  0  0  0  0  0  0  0  0
   18.8555   -5.5660  -14.6453 C   0  0  0  0  0  0  0  0  0  0  0  0
   22.4260   -6.2243  -12.8771 C   0  0  2  0  0  0  0  0  0  0  0  0
   21.3836   -5.4051  -13.6043 N   0  0  0  0  0  0  0  0  0  0  0  0
   21.0627   -5.9851  -14.9010 C   0  0  0  0  0  0  0  0  0  0  0  0
   21.9198   -4.0467  -13.8268 O   0  0  0  0  0  0  0  0  0  0  0  0
   22.1890   -3.5267  -15.0863 O   0  0  0  0  0  0  0  0  0  0  0  0
  1  2  1  0
  2  3  2  0
  4  5  1  0
  4  2  1  0
  6  7  1  0
  6  5  1  0
  8  9  1  1
  8  7  1  0
 10  8  1  0
 10 16  1  0
 11 10  2  0
 13 12  1  6
 13 15  1  0
 14 13  1  0
 15 16  1  6
 15 17  1  0
 17 21  1  0
 18 17  2  0
 20 22  1  0
 20 19  1  1
 21 20  1  0
 22 23  1  0
 24 22  2  0
M  END
$$$$
