RVA.pdb
     RDKit          3D

 24 23  0  0  1  0  0  0  0  0999 V2000
   33.0194  -22.5509  -11.7101 N   0  0  0  0  0  0  0  0  0  0  0  0
   33.3733  -21.9816  -12.9824 C   0  0  0  0  0  0  0  0  0  0  0  0
   34.3816  -22.4544  -13.6170 N   0  0  0  0  0  0  0  0  0  0  0  0
   32.6198  -20.9252  -13.5145 N   0  0  0  0  0  0  0  0  0  0  0  0
   31.1792  -20.8160  -13.3317 C   0  0  0  0  0  0  0  0  0  0  0  0
   30.4146  -21.3546  -14.4876 C   0  0  0  0  0  0  0  0  0  0  0  0
   28.9287  -21.1943  -14.4527 C   0  0  0  0  0  0  0  0  0  0  0  0
   28.2532  -22.4178  -13.9743 C   0  0  2  0  0  0  0  0  0  0  0  0
   28.2084  -23.4167  -15.0105 N   0  0  0  0  0  0  0  0  0  0  0  0
   26.8514  -22.1706  -13.5112 C   0  0  0  0  0  0  0  0  0  0  0  0
   25.8813  -22.5451  -14.2147 O   0  0  0  0  0  0  0  0  0  0  0  0
   34.7651  -22.1499  -14.5092 C   0  0  0  0  0  0  0  0  0  0  0  0
   26.2929  -19.9469   -9.8824 C   0  0  1  0  0  0  0  0  0  0  0  0
   25.2564  -20.9476  -10.3177 C   0  0  0  0  0  0  0  0  0  0  0  0
   23.9106  -20.7794   -9.7022 C   0  0  1  0  0  0  0  0  0  0  0  0
   25.2268  -21.2702  -11.7518 N   0  0  0  0  0  0  0  0  0  0  0  0
   26.5683  -21.5198  -12.2890 C   0  0  0  0  0  0  0  0  0  0  0  0
   24.4261  -20.4500  -12.6577 O   0  0  0  0  0  0  0  0  0  0  0  0
   24.9445  -19.3383  -13.0409 C   0  0  0  0  0  0  0  0  0  0  0  0
   21.9899  -20.4182  -15.3088 C   0  0  2  0  0  0  0  0  0  0  0  0
   22.4188  -19.7770  -14.0082 N   0  0  0  0  0  0  0  0  0  0  0  0
   23.1552  -20.7145  -13.1719 C   0  0  0  0  0  0  0  0  0  0  0  0
   21.2121  -19.3504  -13.2704 O   0  0  0  0  0  0  0  0  0  0  0  0
   20.3858  -18.3148  -13.6875 O   0  0  0  0  0  0  0  0  0  0  0  0
  1  2  1  0
  2  3  2  0
  4  5  1  0
  4  2  1  0
  6  7  1  0
  6  5  1  0
  8  9  1  6
  8  7  1  0
 10  8  1  0
 10 16  1  0
 11 10  2  0
 13 12  1  1
 13 15  1  0
 14 13  1  0
 15 16  1  1
 15 17  1  0
 17 21  1  0
 18 17  2  0
 20 22  1  0
 20 19  1  6
 21 20  1  0
 22 23  1  0
 24 22  2  0
M  END
$$$$
