RVA.pdb
     RDKit          3D

 24 23  0  0  1  0  0  0  0  0999 V2000
   20.0986  -19.0520  -11.8299 N   0  0  0  0  0  0  0  0  0  0  0  0
   19.4426  -19.5612  -10.6558 C   0  0  0  0  0  0  0  0  0  0  0  0
   18.1632  -19.6386  -10.6420 N   0  0  0  0  0  0  0  0  0  0  0  0
   20.1994  -19.9659   -9.5467 N   0  0  0  0  0  0  0  0  0  0  0  0
   21.6555  -19.9456   -9.5379 C   0  0  0  0  0  0  0  0  0  0  0  0
   22.2472  -21.1499  -10.1787 C   0  0  0  0  0  0  0  0  0  0  0  0
   23.1895  -20.9199  -11.3162 C   0  0  0  0  0  0  0  0  0  0  0  0
   24.6004  -21.0516  -10.8987 C   0  0  2  0  0  0  0  0  0  0  0  0
   24.7377  -20.8346   -9.4818 N   0  0  0  0  0  0  0  0  0  0  0  0
   25.5118  -20.0949  -11.6022 C   0  0  0  0  0  0  0  0  0  0  0  0
   25.9076  -19.0573  -11.0167 O   0  0  0  0  0  0  0  0  0  0  0  0
   17.5577  -19.9435   -9.8830 C   0  0  0  0  0  0  0  0  0  0  0  0
   28.1295  -21.6316  -13.8225 C   0  0  2  0  0  0  0  0  0  0  0  0
   28.1061  -20.1450  -14.0562 C   0  0  0  0  0  0  0  0  0  0  0  0
   28.6812  -19.6952  -15.3544 C   0  0  2  0  0  0  0  0  0  0  0  0
   26.8718  -19.4460  -13.6698 N   0  0  0  0  0  0  0  0  0  0  0  0
   25.9548  -20.3158  -12.9259 C   0  0  0  0  0  0  0  0  0  0  0  0
   26.1646  -18.6345  -14.6577 O   0  0  0  0  0  0  0  0  0  0  0  0
   25.3868  -19.2590  -15.4680 C   0  0  0  0  0  0  0  0  0  0  0  0
   25.5866  -15.0554  -15.7306 C   0  0  2  0  0  0  0  0  0  0  0  0
   25.4922  -16.5555  -15.8954 N   0  0  0  0  0  0  0  0  0  0  0  0
   26.2195  -17.2517  -14.8432 C   0  0  0  0  0  0  0  0  0  0  0  0
   26.0910  -16.9276  -17.1936 O   0  0  0  0  0  0  0  0  0  0  0  0
   25.3672  -17.0052  -18.3765 O   0  0  0  0  0  0  0  0  0  0  0  0
  1  2  1  0
  2  3  2  0
  4  5  1  0
  4  2  1  0
  6  7  1  0
  6  5  1  0
  8  9  1  1
  8  7  1  0
 10  8  1  0
 10 16  1  0
 11 10  2  0
 13 12  1  1
 13 15  1  0
 14 13  1  0
 15 16  1  1
 15 17  1  0
 17 21  1  0
 18 17  2  0
 20 22  1  0
 20 19  1  1
 21 20  1  0
 22 23  1  0
 24 22  2  0
M  END
$$$$
