RVA.pdb
     RDKit          3D

 24 23  0  0  1  0  0  0  0  0999 V2000
   23.3675  -20.9394   -8.8475 N   0  0  0  0  0  0  0  0  0  0  0  0
   24.5926  -20.8770   -8.0969 C   0  0  0  0  0  0  0  0  0  0  0  0
   24.6315  -21.3948   -6.9250 N   0  0  0  0  0  0  0  0  0  0  0  0
   25.7241  -20.2577   -8.6473 N   0  0  0  0  0  0  0  0  0  0  0  0
   25.9415  -20.1490  -10.0831 C   0  0  0  0  0  0  0  0  0  0  0  0
   25.4655  -21.3465  -10.8250 C   0  0  0  0  0  0  0  0  0  0  0  0
   24.5560  -21.1079  -11.9871 C   0  0  0  0  0  0  0  0  0  0  0  0
   25.3025  -20.9902  -13.2564 C   0  0  2  0  0  0  0  0  0  0  0  0
   26.6635  -20.5869  -13.0147 N   0  0  0  0  0  0  0  0  0  0  0  0
   24.6922  -20.0076  -14.2066 C   0  0  0  0  0  0  0  0  0  0  0  0
   25.2999  -18.9462  -14.4902 O   0  0  0  0  0  0  0  0  0  0  0  0
   25.4136  -21.4257   -6.2745 C   0  0  0  0  0  0  0  0  0  0  0  0
   25.0579  -18.3397  -16.4647 C   0  0  2  0  0  0  0  0  0  0  0  0
   23.8236  -19.0717  -16.9183 C   0  0  0  0  0  0  0  0  0  0  0  0
   24.0561  -20.1605  -17.9075 C   0  0  2  0  0  0  0  0  0  0  0  0
   22.8459  -19.4067  -15.8726 N   0  0  0  0  0  0  0  0  0  0  0  0
   23.4340  -20.2296  -14.8107 C   0  0  0  0  0  0  0  0  0  0  0  0
   21.5191  -19.8846  -16.2541 O   0  0  0  0  0  0  0  0  0  0  0  0
   21.2942  -21.1416  -16.1094 C   0  0  0  0  0  0  0  0  0  0  0  0
   19.2433  -21.0871  -17.6626 C   0  0  1  0  0  0  0  0  0  0  0  0
   19.1323  -19.7238  -17.0181 N   0  0  0  0  0  0  0  0  0  0  0  0
   20.4457  -19.1497  -16.7615 C   0  0  0  0  0  0  0  0  0  0  0  0
   18.4313  -19.8671  -15.7256 O   0  0  0  0  0  0  0  0  0  0  0  0
   18.8946  -20.6655  -14.6878 O   0  0  0  0  0  0  0  0  0  0  0  0
  1  2  1  0
  2  3  2  0
  4  5  1  0
  4  2  1  0
  6  7  1  0
  6  5  1  0
  8  9  1  1
  8  7  1  0
 10  8  1  0
 10 16  1  0
 11 10  2  0
 13 12  1  6
 13 15  1  0
 14 13  1  0
 15 16  1  6
 15 17  1  0
 17 21  1  0
 18 17  2  0
 20 22  1  0
 20 19  1  6
 21 20  1  0
 22 23  1  0
 24 22  2  0
M  END
$$$$
