RVA.pdb
     RDKit          3D

 24 23  0  0  1  0  0  0  0  0999 V2000
   17.2955  -28.1556   -3.7506 N   0  0  0  0  0  0  0  0  0  0  0  0
   18.4178  -28.7049   -4.4626 C   0  0  0  0  0  0  0  0  0  0  0  0
   18.6213  -29.9698   -4.4230 N   0  0  0  0  0  0  0  0  0  0  0  0
   19.2717  -27.8617   -5.1882 N   0  0  0  0  0  0  0  0  0  0  0  0
   18.8867  -26.5198   -5.6027 C   0  0  0  0  0  0  0  0  0  0  0  0
   18.1289  -26.5127   -6.8820 C   0  0  0  0  0  0  0  0  0  0  0  0
   18.4017  -25.3865   -7.8264 C   0  0  0  0  0  0  0  0  0  0  0  0
   18.4251  -24.0810   -7.1357 C   0  0  2  0  0  0  0  0  0  0  0  0
   17.2535  -23.9144   -6.3153 N   0  0  0  0  0  0  0  0  0  0  0  0
   18.4970  -22.9201   -8.0781 C   0  0  0  0  0  0  0  0  0  0  0  0
   17.4443  -22.3464   -8.4507 O   0  0  0  0  0  0  0  0  0  0  0  0
   19.3744  -30.5016   -4.8542 C   0  0  0  0  0  0  0  0  0  0  0  0
   21.7872  -20.7907   -7.8904 C   0  0  2  0  0  0  0  0  0  0  0  0
   21.1318  -20.5511   -9.2239 C   0  0  0  0  0  0  0  0  0  0  0  0
   22.0574  -20.5068  -10.3899 C   0  0  2  0  0  0  0  0  0  0  0  0
   19.8820  -21.2839   -9.4745 N   0  0  0  0  0  0  0  0  0  0  0  0
   19.7265  -22.4326   -8.5763 C   0  0  0  0  0  0  0  0  0  0  0  0
   19.5049  -21.6158  -10.8464 O   0  0  0  0  0  0  0  0  0  0  0  0
   19.8007  -22.7972  -11.2569 C   0  0  0  0  0  0  0  0  0  0  0  0
   19.4068  -22.4108  -13.5612 C   0  0  1  0  0  0  0  0  0  0  0  0
   18.5244  -21.2607  -13.1308 N   0  0  0  0  0  0  0  0  0  0  0  0
   18.8563  -20.8119  -11.7858 C   0  0  0  0  0  0  0  0  0  0  0  0
   17.1192  -21.7165  -13.1312 O   0  0  0  0  0  0  0  0  0  0  0  0
   16.4748  -22.2103  -14.2582 O   0  0  0  0  0  0  0  0  0  0  0  0
  1  2  1  0
  2  3  2  0
  4  5  1  0
  4  2  1  0
  6  7  1  0
  6  5  1  0
  8  9  1  6
  8  7  1  0
 10  8  1  0
 10 16  1  0
 11 10  2  0
 13 12  1  1
 13 15  1  0
 14 13  1  0
 15 16  1  1
 15 17  1  0
 17 21  1  0
 18 17  2  0
 20 22  1  0
 20 19  1  6
 21 20  1  0
 22 23  1  0
 24 22  2  0
M  END
$$$$
