GHM.pdb
     RDKit          3D

 23 23  0  0  1  0  0  0  0  0999 V2000
    7.8974  -13.4996   17.4877 N   0  0  0  0  0  0  0  0  0  0  0  0
    8.8091  -14.2839   18.2640 C   0  0  0  0  0  0  0  0  0  0  0  0
    8.2241  -14.7564   19.5411 C   0  0  0  0  0  0  0  0  0  0  0  0
    7.3177  -14.0589   20.0614 O   0  0  0  0  0  0  0  0  0  0  0  0
    8.6380  -15.9517   20.1975 N   0  0  0  0  0  0  0  0  0  0  0  0
    8.0418  -16.2800   21.4812 C   0  0  1  0  0  0  0  0  0  0  0  0
    7.9709  -17.7721   21.6721 C   0  0  0  0  0  0  0  0  0  0  0  0
    7.1214  -18.4133   20.6354 C   0  0  0  0  0  0  0  0  0  0  0  0
    6.5248  -17.7050   19.6119 C   0  0  0  0  0  0  0  0  0  0  0  0
    5.8313  -18.5957   18.8596 N   0  0  0  0  0  0  0  0  0  0  0  0
    5.9884  -19.8121   19.3921 C   0  0  0  0  0  0  0  0  0  0  0  0
    6.7857  -19.7006   20.4900 N   0  0  0  0  0  0  0  0  0  0  0  0
    8.8856  -15.6904   22.5738 C   0  0  0  0  0  0  0  0  0  0  0  0
   10.1414  -15.7031   22.5307 O   0  0  0  0  0  0  0  0  0  0  0  0
    5.1630  -12.2206   27.6343 C   0  0  0  0  0  0  0  0  0  0  0  0
    6.8790  -12.1671   27.0509 S   0  0  0  0  0  0  0  0  0  0  0  0
    7.0414  -13.1705   25.5673 C   0  0  0  0  0  0  0  0  0  0  0  0
    8.4216  -13.0702   24.9627 C   0  0  0  0  0  0  0  0  0  0  0  0
    9.0538  -14.4252   24.7273 C   0  0  2  0  0  0  0  0  0  0  0  0
    8.2749  -15.0917   23.7061 N   0  0  0  0  0  0  0  0  0  0  0  0
    8.9535  -15.1633   26.0218 C   0  0  0  0  0  0  0  0  0  0  0  0
    8.1401  -16.0713   26.2303 O   0  0  0  0  0  0  0  0  0  0  0  0
    9.8162  -14.8141   27.0449 O   0  0  0  0  0  0  0  0  0  0  0  0
  2  1  1  0
  3  2  1  0
  4  3  2  0
  5  3  1  0
  6 13  1  0
  6  5  1  0
  6  7  1  1
  8  7  1  0
  9  8  2  0
 10 11  1  0
 10  9  1  0
 11 12  2  0
 12  8  1  0
 13 20  1  0
 14 13  2  0
 15 16  1  0
 16 17  1  0
 18 17  1  0
 19 18  1  1
 19 21  1  0
 20 19  1  0
 21 22  2  0
 21 23  1  0
M  END
$$$$
