GHM.pdb
     RDKit          3D

 23 23  0  0  1  0  0  0  0  0999 V2000
    7.5027  -13.2425   17.8872 N   0  0  0  0  0  0  0  0  0  0  0  0
    8.5052  -13.1553   18.9051 C   0  0  0  0  0  0  0  0  0  0  0  0
    8.3627  -14.1979   19.9488 C   0  0  0  0  0  0  0  0  0  0  0  0
    7.2528  -14.2943   20.5299 O   0  0  0  0  0  0  0  0  0  0  0  0
    9.4148  -15.0854   20.3183 N   0  0  0  0  0  0  0  0  0  0  0  0
    9.1593  -16.0696   21.3561 C   0  0  1  0  0  0  0  0  0  0  0  0
    9.9947  -17.3039   21.1402 C   0  0  0  0  0  0  0  0  0  0  0  0
    9.5806  -18.0331   19.9137 C   0  0  0  0  0  0  0  0  0  0  0  0
    8.6106  -19.0152   19.9170 C   0  0  0  0  0  0  0  0  0  0  0  0
    8.4881  -19.4615   18.6419 N   0  0  0  0  0  0  0  0  0  0  0  0
    9.3474  -18.7851   17.8725 C   0  0  0  0  0  0  0  0  0  0  0  0
   10.0233  -17.9017   18.6576 N   0  0  0  0  0  0  0  0  0  0  0  0
    9.5101  -15.4731   22.6883 C   0  0  0  0  0  0  0  0  0  0  0  0
   10.4980  -14.7118   22.8418 O   0  0  0  0  0  0  0  0  0  0  0  0
    6.4619  -11.1279   27.9230 C   0  0  0  0  0  0  0  0  0  0  0  0
    6.1024  -12.5275   26.8277 S   0  0  0  0  0  0  0  0  0  0  0  0
    7.5856  -13.5220   26.6160 C   0  0  0  0  0  0  0  0  0  0  0  0
    7.6251  -14.2026   25.2685 C   0  0  0  0  0  0  0  0  0  0  0  0
    8.8787  -15.0271   25.0693 C   0  0  2  0  0  0  0  0  0  0  0  0
    8.7196  -15.7593   23.8315 N   0  0  0  0  0  0  0  0  0  0  0  0
    8.9465  -15.9697   26.2257 C   0  0  0  0  0  0  0  0  0  0  0  0
    9.1131  -15.6060   27.3959 O   0  0  0  0  0  0  0  0  0  0  0  0
    8.8162  -17.3240   25.9770 O   0  0  0  0  0  0  0  0  0  0  0  0
  2  1  1  0
  3  2  1  0
  4  3  2  0
  5  3  1  0
  6 13  1  0
  6  5  1  0
  6  7  1  6
  8  7  1  0
  9  8  2  0
 10 11  1  0
 10  9  1  0
 11 12  2  0
 12  8  1  0
 13 20  1  0
 14 13  2  0
 15 16  1  0
 16 17  1  0
 18 17  1  0
 19 18  1  1
 19 21  1  0
 20 19  1  0
 21 22  2  0
 21 23  1  0
M  END
$$$$
