GHM.pdb
     RDKit          3D

 23 23  0  0  1  0  0  0  0  0999 V2000
    6.1130  -20.3248   21.1631 N   0  0  0  0  0  0  0  0  0  0  0  0
    6.0717  -19.1315   21.9526 C   0  0  0  0  0  0  0  0  0  0  0  0
    7.2662  -18.2738   21.7681 C   0  0  0  0  0  0  0  0  0  0  0  0
    8.3789  -18.8427   21.6380 O   0  0  0  0  0  0  0  0  0  0  0  0
    7.2103  -16.8502   21.7320 N   0  0  0  0  0  0  0  0  0  0  0  0
    8.4447  -16.1128   21.5234 C   0  0  1  0  0  0  0  0  0  0  0  0
    8.2833  -15.1006   20.4201 C   0  0  0  0  0  0  0  0  0  0  0  0
    8.1513  -15.7578   19.0941 C   0  0  0  0  0  0  0  0  0  0  0  0
    9.1276  -15.6852   18.1211 C   0  0  0  0  0  0  0  0  0  0  0  0
    8.6809  -16.3908   17.0521 N   0  0  0  0  0  0  0  0  0  0  0  0
    7.4734  -16.8845   17.3456 C   0  0  0  0  0  0  0  0  0  0  0  0
    7.1449  -16.4938   18.6079 N   0  0  0  0  0  0  0  0  0  0  0  0
    8.8020  -15.3947   22.7924 C   0  0  0  0  0  0  0  0  0  0  0  0
    9.0596  -14.1650   22.8161 O   0  0  0  0  0  0  0  0  0  0  0  0
    6.6346  -11.2210   27.7554 C   0  0  0  0  0  0  0  0  0  0  0  0
    6.4717  -12.3901   26.3789 S   0  0  0  0  0  0  0  0  0  0  0  0
    7.5251  -13.8174   26.6742 C   0  0  0  0  0  0  0  0  0  0  0  0
    7.5464  -14.7607   25.4951 C   0  0  0  0  0  0  0  0  0  0  0  0
    8.8985  -15.4105   25.2938 C   0  0  2  0  0  0  0  0  0  0  0  0
    8.8593  -16.1001   24.0224 N   0  0  0  0  0  0  0  0  0  0  0  0
    9.0621  -16.3885   26.4106 C   0  0  0  0  0  0  0  0  0  0  0  0
    8.9537  -17.6124   26.2696 O   0  0  0  0  0  0  0  0  0  0  0  0
    9.3506  -15.9014   27.6725 O   0  0  0  0  0  0  0  0  0  0  0  0
  2  1  1  0
  3  2  1  0
  4  3  2  0
  5  3  1  0
  6 13  1  0
  6  5  1  0
  6  7  1  6
  8  7  1  0
  9  8  2  0
 10 11  1  0
 10  9  1  0
 11 12  2  0
 12  8  1  0
 13 20  1  0
 14 13  2  0
 15 16  1  0
 16 17  1  0
 18 17  1  0
 19 18  1  1
 19 21  1  0
 20 19  1  0
 21 22  2  0
 21 23  1  0
M  END
$$$$
