GHM.pdb
     RDKit          3D

 23 23  0  0  1  0  0  0  0  0999 V2000
    8.7221  -19.6707   20.5057 N   0  0  0  0  0  0  0  0  0  0  0  0
    7.9606  -18.5277   20.1024 C   0  0  0  0  0  0  0  0  0  0  0  0
    8.6440  -17.2450   20.3926 C   0  0  0  0  0  0  0  0  0  0  0  0
    9.8362  -17.1205   20.0158 O   0  0  0  0  0  0  0  0  0  0  0  0
    8.0175  -16.1597   21.0713 N   0  0  0  0  0  0  0  0  0  0  0  0
    8.7605  -14.9217   21.2333 C   0  0  1  0  0  0  0  0  0  0  0  0
    7.9878  -13.7568   20.6730 C   0  0  0  0  0  0  0  0  0  0  0  0
    7.9121  -13.8172   19.1903 C   0  0  0  0  0  0  0  0  0  0  0  0
    8.4571  -12.8484   18.3719 C   0  0  0  0  0  0  0  0  0  0  0  0
    8.2055  -13.2182   17.0912 N   0  0  0  0  0  0  0  0  0  0  0  0
    7.5301  -14.3721   17.1089 C   0  0  0  0  0  0  0  0  0  0  0  0
    7.3482  -14.7434   18.4061 N   0  0  0  0  0  0  0  0  0  0  0  0
    8.9996  -14.6866   22.6966 C   0  0  0  0  0  0  0  0  0  0  0  0
    9.5369  -13.6352   23.1268 O   0  0  0  0  0  0  0  0  0  0  0  0
    5.9364  -11.5248   27.2708 C   0  0  0  0  0  0  0  0  0  0  0  0
    7.5539  -12.3270   27.1037 S   0  0  0  0  0  0  0  0  0  0  0  0
    7.3250  -14.0844   26.7981 C   0  0  0  0  0  0  0  0  0  0  0  0
    7.4671  -14.4291   25.3348 C   0  0  0  0  0  0  0  0  0  0  0  0
    8.6125  -15.3825   25.0698 C   0  0  2  0  0  0  0  0  0  0  0  0
    8.6176  -15.6649   23.6508 N   0  0  0  0  0  0  0  0  0  0  0  0
    8.3113  -16.6227   25.8455 C   0  0  0  0  0  0  0  0  0  0  0  0
    7.9022  -17.6697   25.3298 O   0  0  0  0  0  0  0  0  0  0  0  0
    8.4994  -16.6019   27.2156 O   0  0  0  0  0  0  0  0  0  0  0  0
  2  1  1  0
  3  2  1  0
  4  3  2  0
  5  3  1  0
  6 13  1  0
  6  5  1  0
  6  7  1  1
  8  7  1  0
  9  8  2  0
 10 11  1  0
 10  9  1  0
 11 12  2  0
 12  8  1  0
 13 20  1  0
 14 13  2  0
 15 16  1  0
 16 17  1  0
 18 17  1  0
 19 18  1  6
 19 21  1  0
 20 19  1  0
 21 22  2  0
 21 23  1  0
M  END
$$$$
