GHM.pdb
     RDKit          3D

 23 23  0  0  1  0  0  0  0  0999 V2000
    6.3894  -18.5353   19.4034 N   0  0  0  0  0  0  0  0  0  0  0  0
    6.3899  -17.9584   20.7134 C   0  0  0  0  0  0  0  0  0  0  0  0
    7.6015  -17.1508   20.9898 C   0  0  0  0  0  0  0  0  0  0  0  0
    8.6959  -17.7586   21.0982 O   0  0  0  0  0  0  0  0  0  0  0  0
    7.5815  -15.7334   21.1363 N   0  0  0  0  0  0  0  0  0  0  0  0
    8.8415  -15.0397   21.3420 C   0  0  1  0  0  0  0  0  0  0  0  0
    8.8222  -13.6877   20.6790 C   0  0  0  0  0  0  0  0  0  0  0  0
    8.5900  -13.8026   19.2160 C   0  0  0  0  0  0  0  0  0  0  0  0
    7.4210  -13.3916   18.6079 C   0  0  0  0  0  0  0  0  0  0  0  0
    7.5504  -13.6415   17.2809 N   0  0  0  0  0  0  0  0  0  0  0  0
    8.7526  -14.1870   17.0684 C   0  0  0  0  0  0  0  0  0  0  0  0
    9.3963  -14.2871   18.2640 N   0  0  0  0  0  0  0  0  0  0  0  0
    9.0592  -14.8545   22.8157 C   0  0  0  0  0  0  0  0  0  0  0  0
    9.9233  -14.0637   23.2707 O   0  0  0  0  0  0  0  0  0  0  0  0
    6.9708  -10.9776   26.9769 C   0  0  0  0  0  0  0  0  0  0  0  0
    6.1450  -12.5601   27.2958 S   0  0  0  0  0  0  0  0  0  0  0  0
    7.2834  -13.9111   26.9595 C   0  0  0  0  0  0  0  0  0  0  0  0
    7.2859  -14.3013   25.5007 C   0  0  0  0  0  0  0  0  0  0  0  0
    8.3560  -15.3203   25.1726 C   0  0  2  0  0  0  0  0  0  0  0  0
    8.2793  -15.5821   23.7517 N   0  0  0  0  0  0  0  0  0  0  0  0
    8.0126  -16.5504   25.9470 C   0  0  0  0  0  0  0  0  0  0  0  0
    8.0488  -16.6139   27.1815 O   0  0  0  0  0  0  0  0  0  0  0  0
    7.6331  -17.6816   25.2475 O   0  0  0  0  0  0  0  0  0  0  0  0
  2  1  1  0
  3  2  1  0
  4  3  2  0
  5  3  1  0
  6 13  1  0
  6  5  1  0
  6  7  1  6
  8  7  1  0
  9  8  2  0
 10 11  1  0
 10  9  1  0
 11 12  2  0
 12  8  1  0
 13 20  1  0
 14 13  2  0
 15 16  1  0
 16 17  1  0
 18 17  1  0
 19 18  1  1
 19 21  1  0
 20 19  1  0
 21 22  2  0
 21 23  1  0
M  END
$$$$
