GHM.pdb
     RDKit          3D

 23 23  0  0  1  0  0  0  0  0999 V2000
    5.5650  -19.8019   23.4872 N   0  0  0  0  0  0  0  0  0  0  0  0
    6.3001  -18.5740   23.4575 C   0  0  0  0  0  0  0  0  0  0  0  0
    7.7681  -18.7781   23.4530 C   0  0  0  0  0  0  0  0  0  0  0  0
    8.2126  -19.8314   23.9743 O   0  0  0  0  0  0  0  0  0  0  0  0
    8.6869  -17.8450   22.8908 N   0  0  0  0  0  0  0  0  0  0  0  0
   10.1081  -18.0538   23.1091 C   0  0  1  0  0  0  0  0  0  0  0  0
   10.9054  -17.5974   21.9158 C   0  0  0  0  0  0  0  0  0  0  0  0
   10.5270  -18.3469   20.6900 C   0  0  0  0  0  0  0  0  0  0  0  0
   10.9595  -19.6325   20.4339 C   0  0  0  0  0  0  0  0  0  0  0  0
   10.4295  -20.0033   19.2416 N   0  0  0  0  0  0  0  0  0  0  0  0
    9.6950  -18.9897   18.7714 C   0  0  0  0  0  0  0  0  0  0  0  0
    9.7545  -17.9651   19.6660 N   0  0  0  0  0  0  0  0  0  0  0  0
   10.5365  -17.2623   24.3106 C   0  0  0  0  0  0  0  0  0  0  0  0
   10.6454  -16.0107   24.2838 O   0  0  0  0  0  0  0  0  0  0  0  0
    9.9217  -13.2742   29.4865 C   0  0  0  0  0  0  0  0  0  0  0  0
   10.1511  -14.3168   28.0208 S   0  0  0  0  0  0  0  0  0  0  0  0
    9.2562  -15.8619   28.2357 C   0  0  0  0  0  0  0  0  0  0  0  0
    9.3864  -16.7652   27.0327 C   0  0  0  0  0  0  0  0  0  0  0  0
   10.8106  -17.2212   26.7985 C   0  0  2  0  0  0  0  0  0  0  0  0
   10.8356  -17.9201   25.5318 N   0  0  0  0  0  0  0  0  0  0  0  0
   11.1381  -18.1572   27.9152 C   0  0  0  0  0  0  0  0  0  0  0  0
   10.8549  -19.3611   27.9041 O   0  0  0  0  0  0  0  0  0  0  0  0
   11.7941  -17.6528   29.0234 O   0  0  0  0  0  0  0  0  0  0  0  0
  2  1  1  0
  3  2  1  0
  4  3  2  0
  5  3  1  0
  6 13  1  0
  6  5  1  0
  6  7  1  6
  8  7  1  0
  9  8  2  0
 10 11  1  0
 10  9  1  0
 11 12  2  0
 12  8  1  0
 13 20  1  0
 14 13  2  0
 15 16  1  0
 16 17  1  0
 18 17  1  0
 19 18  1  1
 19 21  1  0
 20 19  1  0
 21 22  2  0
 21 23  1  0
M  END
$$$$
