GHM.pdb
     RDKit          3D

 23 23  0  0  1  0  0  0  0  0999 V2000
    4.3452  -19.1108   21.3500 N   0  0  0  0  0  0  0  0  0  0  0  0
    4.9012  -18.0219   22.0945 C   0  0  0  0  0  0  0  0  0  0  0  0
    6.3807  -17.9692   22.0255 C   0  0  0  0  0  0  0  0  0  0  0  0
    7.0245  -18.8926   22.5838 O   0  0  0  0  0  0  0  0  0  0  0  0
    7.0974  -16.9311   21.3623 N   0  0  0  0  0  0  0  0  0  0  0  0
    8.5466  -16.9136   21.4658 C   0  0  1  0  0  0  0  0  0  0  0  0
    9.1714  -16.5065   20.1575 C   0  0  0  0  0  0  0  0  0  0  0  0
    8.8535  -17.4764   19.0778 C   0  0  0  0  0  0  0  0  0  0  0  0
    9.5965  -18.6178   18.8529 C   0  0  0  0  0  0  0  0  0  0  0  0
    9.0307  -19.2634   17.8025 N   0  0  0  0  0  0  0  0  0  0  0  0
    7.9762  -18.5536   17.3877 C   0  0  0  0  0  0  0  0  0  0  0  0
    7.8657  -17.4486   18.1754 N   0  0  0  0  0  0  0  0  0  0  0  0
    8.9463  -15.9253   22.5228 C   0  0  0  0  0  0  0  0  0  0  0  0
    9.6083  -14.8911   22.2564 O   0  0  0  0  0  0  0  0  0  0  0  0
    6.7491  -11.0106   27.7096 C   0  0  0  0  0  0  0  0  0  0  0  0
    6.3830  -12.3463   26.5392 S   0  0  0  0  0  0  0  0  0  0  0  0
    7.8778  -13.2943   26.2218 C   0  0  0  0  0  0  0  0  0  0  0  0
    7.6729  -14.3334   25.1453 C   0  0  0  0  0  0  0  0  0  0  0  0
    8.9051  -15.1812   24.9126 C   0  0  2  0  0  0  0  0  0  0  0  0
    8.5796  -16.1378   23.8770 N   0  0  0  0  0  0  0  0  0  0  0  0
    9.1781  -15.8837   26.2019 C   0  0  0  0  0  0  0  0  0  0  0  0
    8.8397  -17.0512   26.4299 O   0  0  0  0  0  0  0  0  0  0  0  0
    9.8458  -15.1931   27.1970 O   0  0  0  0  0  0  0  0  0  0  0  0
  2  1  1  0
  3  2  1  0
  4  3  2  0
  5  3  1  0
  6 13  1  0
  6  5  1  0
  6  7  1  6
  8  7  1  0
  9  8  2  0
 10 11  1  0
 10  9  1  0
 11 12  2  0
 12  8  1  0
 13 20  1  0
 14 13  2  0
 15 16  1  0
 16 17  1  0
 18 17  1  0
 19 18  1  1
 19 21  1  0
 20 19  1  0
 21 22  2  0
 21 23  1  0
M  END
$$$$
