GHM.pdb
     RDKit          3D

 23 23  0  0  1  0  0  0  0  0999 V2000
    7.7854  -12.7216   18.2326 N   0  0  0  0  0  0  0  0  0  0  0  0
    8.8801  -13.1782   19.0339 C   0  0  0  0  0  0  0  0  0  0  0  0
    8.4783  -14.1883   20.0412 C   0  0  0  0  0  0  0  0  0  0  0  0
    7.3954  -14.0053   20.6516 O   0  0  0  0  0  0  0  0  0  0  0  0
    9.2553  -15.3438   20.3450 N   0  0  0  0  0  0  0  0  0  0  0  0
    8.8292  -16.1975   21.4407 C   0  0  1  0  0  0  0  0  0  0  0  0
    9.4451  -17.5667   21.3227 C   0  0  0  0  0  0  0  0  0  0  0  0
    8.7388  -18.3955   20.3118 C   0  0  0  0  0  0  0  0  0  0  0  0
    7.6071  -17.9658   19.6486 C   0  0  0  0  0  0  0  0  0  0  0  0
    7.2321  -18.9631   18.8089 N   0  0  0  0  0  0  0  0  0  0  0  0
    8.0954  -19.9755   18.9422 C   0  0  0  0  0  0  0  0  0  0  0  0
    9.0273  -19.6257   19.8712 N   0  0  0  0  0  0  0  0  0  0  0  0
    9.2662  -15.5788   22.7368 C   0  0  0  0  0  0  0  0  0  0  0  0
   10.3848  -15.0219   22.8693 O   0  0  0  0  0  0  0  0  0  0  0  0
    6.1215  -11.1270   25.9128 C   0  0  0  0  0  0  0  0  0  0  0  0
    6.4348  -12.3040   27.2561 S   0  0  0  0  0  0  0  0  0  0  0  0
    7.8198  -13.3636   26.8166 C   0  0  0  0  0  0  0  0  0  0  0  0
    7.5824  -14.0987   25.5190 C   0  0  0  0  0  0  0  0  0  0  0  0
    8.7647  -14.9494   25.1072 C   0  0  2  0  0  0  0  0  0  0  0  0
    8.4104  -15.6075   23.8683 N   0  0  0  0  0  0  0  0  0  0  0  0
    8.9538  -15.9556   26.1946 C   0  0  0  0  0  0  0  0  0  0  0  0
    8.5534  -17.1236   26.1231 O   0  0  0  0  0  0  0  0  0  0  0  0
    9.6124  -15.5623   27.3454 O   0  0  0  0  0  0  0  0  0  0  0  0
  2  1  1  0
  3  2  1  0
  4  3  2  0
  5  3  1  0
  6 13  1  0
  6  5  1  0
  6  7  1  6
  8  7  1  0
  9  8  2  0
 10 11  1  0
 10  9  1  0
 11 12  2  0
 12  8  1  0
 13 20  1  0
 14 13  2  0
 15 16  1  0
 16 17  1  0
 18 17  1  0
 19 18  1  1
 19 21  1  0
 20 19  1  0
 21 22  2  0
 21 23  1  0
M  END
$$$$
