VNM.pdb
     RDKit          3D

 24 23  0  0  1  0  0  0  0  0999 V2000
   26.0528  -17.9097  -15.9032 C   0  0  0  0  0  0  0  0  0  0  0  0
   27.4202  -17.8416  -15.2984 C   0  0  2  0  0  0  0  0  0  0  0  0
   28.4981  -17.7720  -16.3647 C   0  0  0  0  0  0  0  0  0  0  0  0
   27.6895  -19.0216  -14.3969 C   0  0  2  0  0  0  0  0  0  0  0  0
   27.6592  -20.2745  -15.0771 N   0  0  0  0  0  0  0  0  0  0  0  0
   26.6681  -19.0302  -13.3233 C   0  0  0  0  0  0  0  0  0  0  0  0
   26.4304  -17.9902  -12.6568 O   0  0  0  0  0  0  0  0  0  0  0  0
   22.7884  -18.9133  -13.0180 N   0  0  0  0  0  0  0  0  0  0  0  0
   22.6706  -20.3421  -13.0248 C   0  0  0  0  0  0  0  0  0  0  0  0
   21.5833  -20.8071  -13.4305 O   0  0  0  0  0  0  0  0  0  0  0  0
   23.8057  -21.1601  -12.5662 C   0  0  0  0  0  0  0  0  0  0  0  0
   24.8937  -20.2645  -12.0502 C   0  0  2  0  0  0  0  0  0  0  0  0
   25.9560  -20.2330  -13.0535 N   0  0  0  0  0  0  0  0  0  0  0  0
   25.4883  -20.8644  -10.7987 C   0  0  0  0  0  0  0  0  0  0  0  0
   25.8850  -22.0545  -10.7630 O   0  0  0  0  0  0  0  0  0  0  0  0
   28.5727  -19.3818   -3.7302 C   0  0  0  0  0  0  0  0  0  0  0  0
   28.0497  -18.8125   -5.3593 S   0  0  0  0  0  0  0  0  0  0  0  0
   27.2281  -20.1726   -6.2567 C   0  0  0  0  0  0  0  0  0  0  0  0
   26.8282  -19.7290   -7.6170 C   0  0  0  0  0  0  0  0  0  0  0  0
   26.0230  -20.7590   -8.3688 C   0  0  2  0  0  0  0  0  0  0  0  0
   25.6201  -20.0976   -9.6112 N   0  0  0  0  0  0  0  0  0  0  0  0
   24.8690  -21.1616   -7.5718 C   0  0  0  0  0  0  0  0  0  0  0  0
   25.1002  -21.9406   -6.4197 O   0  0  0  0  0  0  0  0  0  0  0  0
   23.6937  -20.8790   -7.8170 O   0  0  0  0  0  0  0  0  0  0  0  0
  2  1  1  6
  2  3  1  0
  4  2  1  0
  4  6  1  0
  4  5  1  6
  6  7  2  0
  9 11  1  0
  9  8  1  0
 10  9  2  0
 12 11  1  6
 13  6  1  0
 13 12  1  0
 14 12  1  0
 14 15  2  0
 16 17  1  0
 18 17  1  0
 19 18  1  0
 20 21  1  0
 20 19  1  1
 21 14  1  0
 22 20  1  0
 23 22  1  0
 24 22  2  0
M  END
$$$$
