VNM.pdb
     RDKit          3D

 24 23  0  0  1  0  0  0  0  0999 V2000
   17.5059  -12.6863  -16.2403 C   0  0  0  0  0  0  0  0  0  0  0  0
   18.4976  -12.8855  -17.3435 C   0  0  2  0  0  0  0  0  0  0  0  0
   19.0300  -14.3067  -17.3642 C   0  0  0  0  0  0  0  0  0  0  0  0
   19.6552  -11.9236  -17.2319 C   0  0  2  0  0  0  0  0  0  0  0  0
   20.4567  -12.1319  -16.0711 N   0  0  0  0  0  0  0  0  0  0  0  0
   19.1137  -10.5445  -17.2035 C   0  0  0  0  0  0  0  0  0  0  0  0
   18.4057  -10.1146  -18.1503 O   0  0  0  0  0  0  0  0  0  0  0  0
   16.6374   -6.0983  -15.9036 N   0  0  0  0  0  0  0  0  0  0  0  0
   17.5834   -6.6838  -14.9994 C   0  0  0  0  0  0  0  0  0  0  0  0
   18.0829   -5.9180  -14.1467 O   0  0  0  0  0  0  0  0  0  0  0  0
   17.9052   -8.1154  -15.1217 C   0  0  0  0  0  0  0  0  0  0  0  0
   19.0321   -8.2949  -16.0964 C   0  0  2  0  0  0  0  0  0  0  0  0
   19.4047   -9.7082  -16.0889 N   0  0  0  0  0  0  0  0  0  0  0  0
   20.2374   -7.5197  -15.6209 C   0  0  0  0  0  0  0  0  0  0  0  0
   21.0056   -7.9729  -14.7380 O   0  0  0  0  0  0  0  0  0  0  0  0
   22.4047   -1.3840  -18.0350 C   0  0  0  0  0  0  0  0  0  0  0  0
   23.6552   -2.6824  -17.9859 S   0  0  0  0  0  0  0  0  0  0  0  0
   23.3262   -3.8069  -16.5869 C   0  0  0  0  0  0  0  0  0  0  0  0
   22.0615   -4.5541  -16.8088 C   0  0  0  0  0  0  0  0  0  0  0  0
   21.7545   -5.5473  -15.7161 C   0  0  2  0  0  0  0  0  0  0  0  0
   20.5451   -6.2428  -16.1598 N   0  0  0  0  0  0  0  0  0  0  0  0
   21.5421   -4.8443  -14.4553 C   0  0  0  0  0  0  0  0  0  0  0  0
   22.6554   -4.6455  -13.6133 O   0  0  0  0  0  0  0  0  0  0  0  0
   20.4633   -4.4020  -14.0531 O   0  0  0  0  0  0  0  0  0  0  0  0
  2  1  1  1
  2  3  1  0
  4  2  1  0
  4  6  1  0
  4  5  1  1
  6  7  2  0
  9 11  1  0
  9  8  1  0
 10  9  2  0
 12 11  1  1
 13  6  1  0
 13 12  1  0
 14 12  1  0
 14 15  2  0
 16 17  1  0
 18 17  1  0
 19 18  1  0
 20 21  1  0
 20 19  1  6
 21 14  1  0
 22 20  1  0
 23 22  1  0
 24 22  2  0
M  END
$$$$
