VNM.pdb
     RDKit          3D

 24 23  0  0  1  0  0  0  0  0999 V2000
   19.2974  -21.6808  -13.8574 C   0  0  0  0  0  0  0  0  0  0  0  0
   19.4056  -20.4560  -13.0040 C   0  0  2  0  0  0  0  0  0  0  0  0
   18.2822  -19.4764  -13.2902 C   0  0  0  0  0  0  0  0  0  0  0  0
   20.7312  -19.7601  -13.1945 C   0  0  2  0  0  0  0  0  0  0  0  0
   20.9093  -19.2266  -14.5048 N   0  0  0  0  0  0  0  0  0  0  0  0
   21.8128  -20.7349  -12.9190 C   0  0  0  0  0  0  0  0  0  0  0  0
   21.8305  -21.3848  -11.8421 O   0  0  0  0  0  0  0  0  0  0  0  0
   23.9368  -24.9684  -13.3204 N   0  0  0  0  0  0  0  0  0  0  0  0
   23.2581  -24.0868  -14.2245 C   0  0  0  0  0  0  0  0  0  0  0  0
   22.0950  -24.4121  -14.5480 O   0  0  0  0  0  0  0  0  0  0  0  0
   23.9495  -22.8805  -14.7087 C   0  0  0  0  0  0  0  0  0  0  0  0
   23.9513  -21.8363  -13.6309 C   0  0  2  0  0  0  0  0  0  0  0  0
   22.8355  -20.9286  -13.8901 N   0  0  0  0  0  0  0  0  0  0  0  0
   25.2160  -21.0170  -13.7257 C   0  0  0  0  0  0  0  0  0  0  0  0
   25.3825  -20.1652  -14.6320 O   0  0  0  0  0  0  0  0  0  0  0  0
   29.9689  -22.4135   -9.7795 C   0  0  0  0  0  0  0  0  0  0  0  0
   30.8692  -21.1263  -10.6650 S   0  0  0  0  0  0  0  0  0  0  0  0
   29.8316  -20.4569  -12.0087 C   0  0  0  0  0  0  0  0  0  0  0  0
   28.4392  -20.9605  -11.8883 C   0  0  0  0  0  0  0  0  0  0  0  0
   27.5272  -20.4636  -12.9819 C   0  0  2  0  0  0  0  0  0  0  0  0
   26.2675  -21.1834  -12.7864 N   0  0  0  0  0  0  0  0  0  0  0  0
   28.1172  -20.7504  -14.2852 C   0  0  0  0  0  0  0  0  0  0  0  0
   28.7725  -19.7002  -14.9601 O   0  0  0  0  0  0  0  0  0  0  0  0
   28.0948  -21.8422  -14.8584 O   0  0  0  0  0  0  0  0  0  0  0  0
  2  1  1  6
  2  3  1  0
  4  2  1  0
  4  6  1  0
  4  5  1  6
  6  7  2  0
  9 11  1  0
  9  8  1  0
 10  9  2  0
 12 11  1  6
 13  6  1  0
 13 12  1  0
 14 12  1  0
 14 15  2  0
 16 17  1  0
 18 17  1  0
 19 18  1  0
 20 21  1  0
 20 19  1  1
 21 14  1  0
 22 20  1  0
 23 22  1  0
 24 22  2  0
M  END
$$$$
