VNM.pdb
     RDKit          3D

 24 23  0  0  1  0  0  0  0  0999 V2000
   15.5847  -12.2307  -16.4069 C   0  0  0  0  0  0  0  0  0  0  0  0
   16.6670  -12.6250  -17.3625 C   0  0  2  0  0  0  0  0  0  0  0  0
   16.6433  -14.1157  -17.6470 C   0  0  0  0  0  0  0  0  0  0  0  0
   18.0322  -12.2400  -16.8471 C   0  0  2  0  0  0  0  0  0  0  0  0
   18.3645  -12.8555  -15.6046 N   0  0  0  0  0  0  0  0  0  0  0  0
   18.0695  -10.7678  -16.6818 C   0  0  0  0  0  0  0  0  0  0  0  0
   17.8819  -10.0076  -17.6663 O   0  0  0  0  0  0  0  0  0  0  0  0
   16.3944   -7.5097  -16.4001 N   0  0  0  0  0  0  0  0  0  0  0  0
   16.2497   -7.7321  -14.9912 C   0  0  0  0  0  0  0  0  0  0  0  0
   15.1679   -7.3687  -14.4805 O   0  0  0  0  0  0  0  0  0  0  0  0
   17.3531   -8.3588  -14.2444 C   0  0  0  0  0  0  0  0  0  0  0  0
   18.4323   -8.7765  -15.1998 C   0  0  2  0  0  0  0  0  0  0  0  0
   18.3208  -10.2212  -15.3916 N   0  0  0  0  0  0  0  0  0  0  0  0
   19.7834   -8.5184  -14.5772 C   0  0  0  0  0  0  0  0  0  0  0  0
   20.3337   -9.3594  -13.8256 O   0  0  0  0  0  0  0  0  0  0  0  0
   26.6755   -9.6299  -15.1958 C   0  0  0  0  0  0  0  0  0  0  0  0
   24.9424   -9.5589  -15.6888 S   0  0  0  0  0  0  0  0  0  0  0  0
   24.0772   -8.2708  -14.7284 C   0  0  0  0  0  0  0  0  0  0  0  0
   22.6366   -8.2351  -15.0892 C   0  0  0  0  0  0  0  0  0  0  0  0
   21.8634   -7.1671  -14.3570 C   0  0  2  0  0  0  0  0  0  0  0  0
   20.4824   -7.3073  -14.8223 N   0  0  0  0  0  0  0  0  0  0  0  0
   22.4112   -5.8533  -14.6778 C   0  0  0  0  0  0  0  0  0  0  0  0
   23.5566   -5.4251  -13.9761 O   0  0  0  0  0  0  0  0  0  0  0  0
   21.9579   -5.0724  -15.5180 O   0  0  0  0  0  0  0  0  0  0  0  0
  2  1  1  1
  2  3  1  0
  4  2  1  0
  4  6  1  0
  4  5  1  1
  6  7  2  0
  9 11  1  0
  9  8  1  0
 10  9  2  0
 12 11  1  1
 13  6  1  0
 13 12  1  0
 14 12  1  0
 14 15  2  0
 16 17  1  0
 18 17  1  0
 19 18  1  0
 20 21  1  0
 20 19  1  6
 21 14  1  0
 22 20  1  0
 23 22  1  0
 24 22  2  0
M  END
$$$$
