VNM.pdb
     RDKit          3D

 24 23  0  0  1  0  0  0  0  0999 V2000
   21.5527  -19.9447  -16.3885 C   0  0  0  0  0  0  0  0  0  0  0  0
   21.9414  -18.4993  -16.3931 C   0  0  2  0  0  0  0  0  0  0  0  0
   22.0824  -17.9647  -17.8066 C   0  0  0  0  0  0  0  0  0  0  0  0
   23.2308  -18.2673  -15.6440 C   0  0  2  0  0  0  0  0  0  0  0  0
   24.3753  -18.8041  -16.3037 N   0  0  0  0  0  0  0  0  0  0  0  0
   23.1097  -18.8894  -14.3044 C   0  0  0  0  0  0  0  0  0  0  0  0
   22.1798  -18.5567  -13.5253 O   0  0  0  0  0  0  0  0  0  0  0  0
   21.3514  -21.8680  -11.9059 N   0  0  0  0  0  0  0  0  0  0  0  0
   22.2791  -22.1135  -12.9709 C   0  0  0  0  0  0  0  0  0  0  0  0
   21.7882  -22.4809  -14.0604 O   0  0  0  0  0  0  0  0  0  0  0  0
   23.7191  -21.9244  -12.7290 C   0  0  0  0  0  0  0  0  0  0  0  0
   24.0138  -20.4614  -12.5711 C   0  0  2  0  0  0  0  0  0  0  0  0
   24.0609  -19.8713  -13.9075 N   0  0  0  0  0  0  0  0  0  0  0  0
   25.3853  -20.2867  -11.9644 C   0  0  0  0  0  0  0  0  0  0  0  0
   26.4275  -20.3635  -12.6593 O   0  0  0  0  0  0  0  0  0  0  0  0
   28.1312  -20.6863   -4.9991 C   0  0  0  0  0  0  0  0  0  0  0  0
   27.6111  -19.2850   -6.0078 S   0  0  0  0  0  0  0  0  0  0  0  0
   27.9529  -19.6274   -7.7674 C   0  0  0  0  0  0  0  0  0  0  0  0
   26.6830  -19.7326   -8.5311 C   0  0  0  0  0  0  0  0  0  0  0  0
   26.8902  -19.9822  -10.0040 C   0  0  2  0  0  0  0  0  0  0  0  0
   25.5441  -20.0277  -10.5776 N   0  0  0  0  0  0  0  0  0  0  0  0
   27.6026  -21.2410  -10.1960 C   0  0  0  0  0  0  0  0  0  0  0  0
   28.9935  -21.1863  -10.4203 O   0  0  0  0  0  0  0  0  0  0  0  0
   27.0926  -22.3638  -10.1800 O   0  0  0  0  0  0  0  0  0  0  0  0
  2  1  1  6
  2  3  1  0
  4  2  1  0
  4  6  1  0
  4  5  1  6
  6  7  2  0
  9 11  1  0
  9  8  1  0
 10  9  2  0
 12 11  1  6
 13  6  1  0
 13 12  1  0
 14 12  1  0
 14 15  2  0
 16 17  1  0
 18 17  1  0
 19 18  1  0
 20 21  1  0
 20 19  1  1
 21 14  1  0
 22 20  1  0
 23 22  1  0
 24 22  2  0
M  END
$$$$
