VNM.pdb
     RDKit          3D

 24 23  0  0  1  0  0  0  0  0999 V2000
   19.1026  -10.9486  -15.7082 C   0  0  0  0  0  0  0  0  0  0  0  0
   17.6454  -11.1428  -15.9895 C   0  0  2  0  0  0  0  0  0  0  0  0
   17.1069  -10.0629  -16.9102 C   0  0  0  0  0  0  0  0  0  0  0  0
   16.8311  -11.1631  -14.7191 C   0  0  2  0  0  0  0  0  0  0  0  0
   15.4545  -11.4681  -14.9317 N   0  0  0  0  0  0  0  0  0  0  0  0
   16.9370   -9.8319  -14.0767 C   0  0  0  0  0  0  0  0  0  0  0  0
   16.5818   -8.7936  -14.6918 O   0  0  0  0  0  0  0  0  0  0  0  0
   15.0340   -8.3014  -11.6037 N   0  0  0  0  0  0  0  0  0  0  0  0
   15.8806   -8.5903  -10.4834 C   0  0  0  0  0  0  0  0  0  0  0  0
   15.3042   -8.8398   -9.4024 O   0  0  0  0  0  0  0  0  0  0  0  0
   17.3419   -8.5776  -10.6632 C   0  0  0  0  0  0  0  0  0  0  0  0
   17.6669   -8.4396  -12.1218 C   0  0  2  0  0  0  0  0  0  0  0  0
   17.4468   -9.7405  -12.7508 N   0  0  0  0  0  0  0  0  0  0  0  0
   19.1329   -8.1157  -12.2824 C   0  0  0  0  0  0  0  0  0  0  0  0
   20.0272   -8.9404  -11.9741 O   0  0  0  0  0  0  0  0  0  0  0  0
   23.7946  -10.3599  -14.5700 C   0  0  0  0  0  0  0  0  0  0  0  0
   23.2606   -8.9429  -15.5491 S   0  0  0  0  0  0  0  0  0  0  0  0
   22.8134   -7.5602  -14.4453 C   0  0  0  0  0  0  0  0  0  0  0  0
   21.3842   -7.6535  -14.0506 C   0  0  0  0  0  0  0  0  0  0  0  0
   20.9769   -6.6192  -13.0314 C   0  0  2  0  0  0  0  0  0  0  0  0
   19.5528   -6.8586  -12.7912 N   0  0  0  0  0  0  0  0  0  0  0  0
   21.2184   -5.2815  -13.5617 C   0  0  0  0  0  0  0  0  0  0  0  0
   22.4804   -4.6966  -13.3314 O   0  0  0  0  0  0  0  0  0  0  0  0
   20.4086   -4.6063  -14.2017 O   0  0  0  0  0  0  0  0  0  0  0  0
  2  1  1  1
  2  3  1  0
  4  2  1  0
  4  6  1  0
  4  5  1  6
  6  7  2  0
  9 11  1  0
  9  8  1  0
 10  9  2  0
 12 11  1  1
 13  6  1  0
 13 12  1  0
 14 12  1  0
 14 15  2  0
 16 17  1  0
 18 17  1  0
 19 18  1  0
 20 21  1  0
 20 19  1  6
 21 14  1  0
 22 20  1  0
 23 22  1  0
 24 22  2  0
M  END
$$$$
