VNM.pdb
     RDKit          3D

 24 23  0  0  1  0  0  0  0  0999 V2000
   26.2214  -15.8755  -17.6579 C   0  0  0  0  0  0  0  0  0  0  0  0
   27.6428  -16.1795  -17.3011 C   0  0  2  0  0  0  0  0  0  0  0  0
   28.5148  -16.2969  -18.5378 C   0  0  0  0  0  0  0  0  0  0  0  0
   27.7545  -17.4492  -16.4929 C   0  0  2  0  0  0  0  0  0  0  0  0
   27.6774  -18.6338  -17.2829 N   0  0  0  0  0  0  0  0  0  0  0  0
   26.6601  -17.4632  -15.4938 C   0  0  0  0  0  0  0  0  0  0  0  0
   26.5138  -16.5062  -14.6906 O   0  0  0  0  0  0  0  0  0  0  0  0
   23.4009  -16.4806  -15.3644 N   0  0  0  0  0  0  0  0  0  0  0  0
   22.7572  -17.7403  -15.5973 C   0  0  0  0  0  0  0  0  0  0  0  0
   21.6380  -17.6969  -16.1529 O   0  0  0  0  0  0  0  0  0  0  0  0
   23.4314  -18.9811  -15.1806 C   0  0  0  0  0  0  0  0  0  0  0  0
   24.7032  -18.6434  -14.4591 C   0  0  2  0  0  0  0  0  0  0  0  0
   25.7729  -18.5756  -15.4529 N   0  0  0  0  0  0  0  0  0  0  0  0
   25.0556  -19.7627  -13.5091 C   0  0  0  0  0  0  0  0  0  0  0  0
   25.3300  -20.9155  -13.9224 O   0  0  0  0  0  0  0  0  0  0  0  0
   27.9678  -19.3039   -7.5936 C   0  0  0  0  0  0  0  0  0  0  0  0
   26.4801  -20.2756   -7.2867 S   0  0  0  0  0  0  0  0  0  0  0  0
   25.9433  -21.0908   -8.8287 C   0  0  0  0  0  0  0  0  0  0  0  0
   25.7706  -20.0886   -9.9117 C   0  0  0  0  0  0  0  0  0  0  0  0
   25.2876  -20.6877  -11.2087 C   0  0  2  0  0  0  0  0  0  0  0  0
   25.0889  -19.5482  -12.1061 N   0  0  0  0  0  0  0  0  0  0  0  0
   24.0463  -21.4205  -10.9823 C   0  0  0  0  0  0  0  0  0  0  0  0
   24.1372  -22.7430  -10.5023 O   0  0  0  0  0  0  0  0  0  0  0  0
   22.9094  -20.9829  -11.1749 O   0  0  0  0  0  0  0  0  0  0  0  0
  2  1  1  6
  2  3  1  0
  4  2  1  0
  4  6  1  0
  4  5  1  6
  6  7  2  0
  9 11  1  0
  9  8  1  0
 10  9  2  0
 12 11  1  6
 13  6  1  0
 13 12  1  0
 14 12  1  0
 14 15  2  0
 16 17  1  0
 18 17  1  0
 19 18  1  0
 20 21  1  0
 20 19  1  1
 21 14  1  0
 22 20  1  0
 23 22  1  0
 24 22  2  0
M  END
$$$$
