VNM.pdb
     RDKit          3D

 24 23  0  0  1  0  0  0  0  0999 V2000
   23.8946   -9.6757  -17.0057 C   0  0  0  0  0  0  0  0  0  0  0  0
   23.8257  -10.5771  -15.8128 C   0  0  2  0  0  0  0  0  0  0  0  0
   24.9189  -11.6295  -15.8458 C   0  0  0  0  0  0  0  0  0  0  0  0
   22.4835  -11.2591  -15.7072 C   0  0  2  0  0  0  0  0  0  0  0  0
   22.1688  -12.0711  -16.8363 N   0  0  0  0  0  0  0  0  0  0  0  0
   21.4416  -10.2161  -15.5572 C   0  0  0  0  0  0  0  0  0  0  0  0
   20.7037   -9.9035  -16.5269 O   0  0  0  0  0  0  0  0  0  0  0  0
   18.1733   -6.9324  -13.6151 N   0  0  0  0  0  0  0  0  0  0  0  0
   18.5120   -7.8511  -12.5679 C   0  0  0  0  0  0  0  0  0  0  0  0
   17.7763   -7.8356  -11.5571 O   0  0  0  0  0  0  0  0  0  0  0  0
   19.6755   -8.7375  -12.7364 C   0  0  0  0  0  0  0  0  0  0  0  0
   20.2575   -8.5469  -14.1064 C   0  0  2  0  0  0  0  0  0  0  0  0
   21.2841   -9.5693  -14.2989 N   0  0  0  0  0  0  0  0  0  0  0  0
   20.9516   -7.2079  -14.1768 C   0  0  0  0  0  0  0  0  0  0  0  0
   21.9740   -6.9593  -13.4928 O   0  0  0  0  0  0  0  0  0  0  0  0
   23.3270   -1.6904  -18.9687 C   0  0  0  0  0  0  0  0  0  0  0  0
   22.4851   -3.2501  -18.6371 S   0  0  0  0  0  0  0  0  0  0  0  0
   22.2376   -3.4508  -16.8402 C   0  0  0  0  0  0  0  0  0  0  0  0
   21.5304   -4.7255  -16.5536 C   0  0  0  0  0  0  0  0  0  0  0  0
   21.1906   -4.9056  -15.0953 C   0  0  2  0  0  0  0  0  0  0  0  0
   20.4682   -6.1770  -15.0248 N   0  0  0  0  0  0  0  0  0  0  0  0
   20.3681   -3.7904  -14.6385 C   0  0  0  0  0  0  0  0  0  0  0  0
   21.0209   -2.6719  -14.0813 O   0  0  0  0  0  0  0  0  0  0  0  0
   19.1372   -3.7358  -14.6960 O   0  0  0  0  0  0  0  0  0  0  0  0
  2  1  1  6
  2  3  1  0
  4  2  1  0
  4  6  1  0
  4  5  1  6
  6  7  2  0
  9 11  1  0
  9  8  1  0
 10  9  2  0
 12 11  1  1
 13  6  1  0
 13 12  1  0
 14 12  1  0
 14 15  2  0
 16 17  1  0
 18 17  1  0
 19 18  1  0
 20 21  1  0
 20 19  1  6
 21 14  1  0
 22 20  1  0
 23 22  1  0
 24 22  2  0
M  END
$$$$
