VNM.pdb
     RDKit          3D

 24 23  0  0  1  0  0  0  0  0999 V2000
   18.7610  -11.3768  -20.5210 C   0  0  0  0  0  0  0  0  0  0  0  0
   20.1859  -11.8093  -20.3703 C   0  0  2  0  0  0  0  0  0  0  0  0
   20.2985  -13.3159  -20.2251 C   0  0  0  0  0  0  0  0  0  0  0  0
   20.8468  -11.1460  -19.1867 C   0  0  2  0  0  0  0  0  0  0  0  0
   20.3025  -11.5502  -17.9322 N   0  0  0  0  0  0  0  0  0  0  0  0
   20.6934   -9.6790  -19.3293 C   0  0  0  0  0  0  0  0  0  0  0  0
   21.0863   -9.0920  -20.3702 O   0  0  0  0  0  0  0  0  0  0  0  0
   16.3632   -8.0247  -19.3788 N   0  0  0  0  0  0  0  0  0  0  0  0
   17.6089   -7.3155  -19.3555 C   0  0  0  0  0  0  0  0  0  0  0  0
   17.9565   -6.7697  -20.4253 O   0  0  0  0  0  0  0  0  0  0  0  0
   18.3882   -7.2703  -18.1071 C   0  0  0  0  0  0  0  0  0  0  0  0
   19.8385   -7.5063  -18.4120 C   0  0  2  0  0  0  0  0  0  0  0  0
   20.0945   -8.9384  -18.2713 N   0  0  0  0  0  0  0  0  0  0  0  0
   20.6902   -6.8040  -17.3819 C   0  0  0  0  0  0  0  0  0  0  0  0
   20.7826   -7.2274  -16.2042 O   0  0  0  0  0  0  0  0  0  0  0  0
   26.0305   -1.0300  -16.5147 C   0  0  0  0  0  0  0  0  0  0  0  0
   24.9388   -1.9846  -17.5865 S   0  0  0  0  0  0  0  0  0  0  0  0
   24.0410   -3.2325  -16.6031 C   0  0  0  0  0  0  0  0  0  0  0  0
   23.1142   -4.0060  -17.4689 C   0  0  0  0  0  0  0  0  0  0  0  0
   22.3053   -5.0303  -16.7134 C   0  0  2  0  0  0  0  0  0  0  0  0
   21.4209   -5.6325  -17.7126 N   0  0  0  0  0  0  0  0  0  0  0  0
   21.5519   -4.3767  -15.6483 C   0  0  0  0  0  0  0  0  0  0  0  0
   21.9673   -4.5893  -14.3179 O   0  0  0  0  0  0  0  0  0  0  0  0
   20.5716   -3.6453  -15.8075 O   0  0  0  0  0  0  0  0  0  0  0  0
  2  1  1  1
  2  3  1  0
  4  2  1  0
  4  6  1  0
  4  5  1  1
  6  7  2  0
  9 11  1  0
  9  8  1  0
 10  9  2  0
 12 11  1  1
 13  6  1  0
 13 12  1  0
 14 12  1  0
 14 15  2  0
 16 17  1  0
 18 17  1  0
 19 18  1  0
 20 21  1  0
 20 19  1  6
 21 14  1  0
 22 20  1  0
 23 22  1  0
 24 22  2  0
M  END
$$$$
