VNM.pdb
     RDKit          3D

 24 23  0  0  1  0  0  0  0  0999 V2000
   18.5363  -11.7837  -16.6518 C   0  0  0  0  0  0  0  0  0  0  0  0
   17.7409  -11.5744  -17.9023 C   0  0  2  0  0  0  0  0  0  0  0  0
   17.8554  -12.7618  -18.8407 C   0  0  0  0  0  0  0  0  0  0  0  0
   18.1677  -10.3234  -18.6306 C   0  0  2  0  0  0  0  0  0  0  0  0
   19.4711  -10.4154  -19.2016 N   0  0  0  0  0  0  0  0  0  0  0  0
   18.1392   -9.1937  -17.6721 C   0  0  0  0  0  0  0  0  0  0  0  0
   17.0767   -8.8904  -17.0707 O   0  0  0  0  0  0  0  0  0  0  0  0
   19.7371   -5.3891  -14.6745 N   0  0  0  0  0  0  0  0  0  0  0  0
   20.7234   -6.4296  -14.6744 C   0  0  0  0  0  0  0  0  0  0  0  0
   21.5908   -6.3715  -13.7758 O   0  0  0  0  0  0  0  0  0  0  0  0
   20.6617   -7.4800  -15.7042 C   0  0  0  0  0  0  0  0  0  0  0  0
   19.3628   -7.3773  -16.4488 C   0  0  2  0  0  0  0  0  0  0  0  0
   19.3319   -8.4526  -17.4382 N   0  0  0  0  0  0  0  0  0  0  0  0
   19.3220   -6.0755  -17.2125 C   0  0  0  0  0  0  0  0  0  0  0  0
   20.1350   -5.8278  -18.1358 O   0  0  0  0  0  0  0  0  0  0  0  0
   15.1578   -0.6935  -16.0498 C   0  0  0  0  0  0  0  0  0  0  0  0
   15.1744   -1.2264  -17.7724 S   0  0  0  0  0  0  0  0  0  0  0  0
   16.7994   -1.9491  -18.1817 C   0  0  0  0  0  0  0  0  0  0  0  0
   17.0210   -3.1979  -17.4083 C   0  0  0  0  0  0  0  0  0  0  0  0
   18.3803   -3.8097  -17.6375 C   0  0  2  0  0  0  0  0  0  0  0  0
   18.3558   -5.0801  -16.9104 N   0  0  0  0  0  0  0  0  0  0  0  0
   19.4159   -2.9160  -17.1297 C   0  0  0  0  0  0  0  0  0  0  0  0
   20.0203   -2.0214  -18.0365 O   0  0  0  0  0  0  0  0  0  0  0  0
   19.8165   -2.8709  -15.9641 O   0  0  0  0  0  0  0  0  0  0  0  0
  2  1  1  1
  2  3  1  0
  4  2  1  0
  4  6  1  0
  4  5  1  1
  6  7  2  0
  9 11  1  0
  9  8  1  0
 10  9  2  0
 12 11  1  6
 13  6  1  0
 13 12  1  0
 14 12  1  0
 14 15  2  0
 16 17  1  0
 18 17  1  0
 19 18  1  0
 20 21  1  0
 20 19  1  1
 21 14  1  0
 22 20  1  0
 23 22  1  0
 24 22  2  0
M  END
$$$$
