HAL.pdb
     RDKit          3D

 24 24  0  0  1  0  0  0  0  0999 V2000
    8.6454  -16.6110   19.5123 N   0  0  0  0  0  0  0  0  0  0  0  0
    8.5851  -15.4476   20.3624 C   0  0  1  0  0  0  0  0  0  0  0  0
    7.5925  -14.4704   19.8302 C   0  0  0  0  0  0  0  0  0  0  0  0
    7.8378  -14.0712   18.4357 C   0  0  0  0  0  0  0  0  0  0  0  0
    8.6754  -13.1084   17.9600 C   0  0  0  0  0  0  0  0  0  0  0  0
    8.5977  -13.0590   16.6131 N   0  0  0  0  0  0  0  0  0  0  0  0
    7.7178  -13.9843   16.2522 C   0  0  0  0  0  0  0  0  0  0  0  0
    7.2472  -14.6058   17.3267 N   0  0  0  0  0  0  0  0  0  0  0  0
    8.4168  -15.7790   21.7986 C   0  0  0  0  0  0  0  0  0  0  0  0
    7.3667  -15.4604   22.4208 O   0  0  0  0  0  0  0  0  0  0  0  0
   10.2179  -18.0763   24.0945 C   0  0  0  0  0  0  0  0  0  0  0  0
    9.2717  -16.9125   23.8876 C   0  0  2  0  0  0  0  0  0  0  0  0
    9.4040  -16.4570   22.5403 N   0  0  0  0  0  0  0  0  0  0  0  0
    9.5918  -15.8145   24.8628 C   0  0  0  0  0  0  0  0  0  0  0  0
   10.4923  -14.9715   24.6599 O   0  0  0  0  0  0  0  0  0  0  0  0
    7.9091  -11.9675   25.9554 C   0  0  0  0  0  0  0  0  0  0  0  0
    7.0746  -13.1219   26.4388 C   0  0  2  0  0  0  0  0  0  0  0  0
    5.7469  -12.5802   26.9951 C   0  0  0  0  0  0  0  0  0  0  0  0
    7.7847  -13.9386   27.4463 C   0  0  0  0  0  0  0  0  0  0  0  0
    9.0130  -14.6579   27.0345 C   0  0  2  0  0  0  0  0  0  0  0  0
    8.8492  -15.7154   26.0720 N   0  0  0  0  0  0  0  0  0  0  0  0
    9.8182  -15.1565   28.1783 C   0  0  0  0  0  0  0  0  0  0  0  0
   10.2705  -14.3737   29.0467 O   0  0  0  0  0  0  0  0  0  0  0  0
   10.0992  -16.5034   28.3283 O   0  0  0  0  0  0  0  0  0  0  0  0
  2  1  1  6
  3  4  1  0
  3  2  1  0
  4  5  2  0
  6  5  1  0
  7  6  1  0
  8  7  2  0
  8  4  1  0
  9  2  1  0
 10  9  2  0
 12 11  1  6
 12 14  1  0
 12 13  1  0
 13  9  1  0
 14 21  1  0
 15 14  2  0
 17 16  1  1
 18 17  1  0
 19 17  1  0
 20 19  1  1
 20 22  1  0
 21 20  1  0
 22 23  2  0
 22 24  1  0
M  END
$$$$
