HAL.pdb
     RDKit          3D

 24 24  0  0  1  0  0  0  0  0999 V2000
    8.6663  -16.7288   18.9992 N   0  0  0  0  0  0  0  0  0  0  0  0
    8.3688  -15.6507   19.9096 C   0  0  1  0  0  0  0  0  0  0  0  0
    7.3346  -14.7506   19.3232 C   0  0  0  0  0  0  0  0  0  0  0  0
    7.7283  -14.1460   18.0412 C   0  0  0  0  0  0  0  0  0  0  0  0
    8.4136  -12.9903   17.8191 C   0  0  0  0  0  0  0  0  0  0  0  0
    8.5620  -12.7940   16.4917 N   0  0  0  0  0  0  0  0  0  0  0  0
    7.9732  -13.8202   15.8909 C   0  0  0  0  0  0  0  0  0  0  0  0
    7.4650  -14.6457   16.7979 N   0  0  0  0  0  0  0  0  0  0  0  0
    8.0760  -16.1119   21.2888 C   0  0  0  0  0  0  0  0  0  0  0  0
    6.9034  -16.4218   21.6358 O   0  0  0  0  0  0  0  0  0  0  0  0
    9.6734  -18.0057   23.7532 C   0  0  0  0  0  0  0  0  0  0  0  0
    8.8833  -16.7228   23.6028 C   0  0  2  0  0  0  0  0  0  0  0  0
    9.0738  -16.2281   22.2765 N   0  0  0  0  0  0  0  0  0  0  0  0
    9.3398  -15.7193   24.6243 C   0  0  0  0  0  0  0  0  0  0  0  0
   10.4232  -15.1029   24.5293 O   0  0  0  0  0  0  0  0  0  0  0  0
    8.0859  -11.7151   25.8135 C   0  0  0  0  0  0  0  0  0  0  0  0
    7.1424  -12.7450   26.3718 C   0  0  2  0  0  0  0  0  0  0  0  0
    5.9515  -12.0272   27.0295 C   0  0  0  0  0  0  0  0  0  0  0  0
    7.8126  -13.6553   27.3249 C   0  0  0  0  0  0  0  0  0  0  0  0
    8.8802  -14.5488   26.8170 C   0  0  2  0  0  0  0  0  0  0  0  0
    8.5173  -15.4470   25.7526 N   0  0  0  0  0  0  0  0  0  0  0  0
    9.5726  -15.3108   27.8870 C   0  0  0  0  0  0  0  0  0  0  0  0
    9.5347  -16.5633   27.9234 O   0  0  0  0  0  0  0  0  0  0  0  0
   10.2853  -14.6671   28.8836 O   0  0  0  0  0  0  0  0  0  0  0  0
  2  1  1  6
  3  4  1  0
  3  2  1  0
  4  5  2  0
  6  5  1  0
  7  6  1  0
  8  7  2  0
  8  4  1  0
  9  2  1  0
 10  9  2  0
 12 11  1  6
 12 14  1  0
 12 13  1  0
 13  9  1  0
 14 21  1  0
 15 14  2  0
 17 16  1  1
 18 17  1  0
 19 17  1  0
 20 19  1  1
 20 22  1  0
 21 20  1  0
 22 23  2  0
 22 24  1  0
M  END
$$$$
