HAL.pdb
     RDKit          3D

 24 24  0  0  1  0  0  0  0  0999 V2000
    7.5818  -17.5031   19.1822 N   0  0  0  0  0  0  0  0  0  0  0  0
    7.9124  -16.4779   20.1410 C   0  0  1  0  0  0  0  0  0  0  0  0
    7.1503  -15.2305   19.8464 C   0  0  0  0  0  0  0  0  0  0  0  0
    7.6669  -14.4745   18.6950 C   0  0  0  0  0  0  0  0  0  0  0  0
    8.6855  -14.7983   17.8509 C   0  0  0  0  0  0  0  0  0  0  0  0
    8.8416  -13.8255   16.9278 N   0  0  0  0  0  0  0  0  0  0  0  0
    7.9269  -12.9021   17.1950 C   0  0  0  0  0  0  0  0  0  0  0  0
    7.2092  -13.2673   18.2504 N   0  0  0  0  0  0  0  0  0  0  0  0
    7.8212  -16.9396   21.5479 C   0  0  0  0  0  0  0  0  0  0  0  0
    6.8120  -17.5745   21.9600 O   0  0  0  0  0  0  0  0  0  0  0  0
    9.6514  -18.3905   23.9681 C   0  0  0  0  0  0  0  0  0  0  0  0
    8.8315  -17.1226   23.8557 C   0  0  2  0  0  0  0  0  0  0  0  0
    8.8393  -16.6993   22.4915 N   0  0  0  0  0  0  0  0  0  0  0  0
    9.4049  -16.0623   24.7535 C   0  0  0  0  0  0  0  0  0  0  0  0
   10.4719  -15.4637   24.4967 O   0  0  0  0  0  0  0  0  0  0  0  0
    8.0642  -12.0536   25.4635 C   0  0  0  0  0  0  0  0  0  0  0  0
    7.2791  -13.0495   26.2722 C   0  0  2  0  0  0  0  0  0  0  0  0
    6.0738  -12.3369   26.9089 C   0  0  0  0  0  0  0  0  0  0  0  0
    8.1118  -13.7143   27.2974 C   0  0  0  0  0  0  0  0  0  0  0  0
    9.1466  -14.6768   26.8517 C   0  0  2  0  0  0  0  0  0  0  0  0
    8.7181  -15.7127   25.9491 N   0  0  0  0  0  0  0  0  0  0  0  0
    9.9089  -15.2862   27.9709 C   0  0  0  0  0  0  0  0  0  0  0  0
   10.4826  -14.5768   28.8307 O   0  0  0  0  0  0  0  0  0  0  0  0
   10.0145  -16.6595   28.1068 O   0  0  0  0  0  0  0  0  0  0  0  0
  2  1  1  6
  3  4  1  0
  3  2  1  0
  4  5  2  0
  6  5  1  0
  7  6  1  0
  8  7  2  0
  8  4  1  0
  9  2  1  0
 10  9  2  0
 12 11  1  6
 12 14  1  0
 12 13  1  0
 13  9  1  0
 14 21  1  0
 15 14  2  0
 17 16  1  1
 18 17  1  0
 19 17  1  0
 20 19  1  1
 20 22  1  0
 21 20  1  0
 22 23  2  0
 22 24  1  0
M  END
$$$$
