HAL.pdb
     RDKit          3D

 24 24  0  0  1  0  0  0  0  0999 V2000
    9.4148  -15.7167   19.7174 N   0  0  0  0  0  0  0  0  0  0  0  0
    8.4042  -14.8901   20.3299 C   0  0  1  0  0  0  0  0  0  0  0  0
    7.2257  -14.7605   19.4256 C   0  0  0  0  0  0  0  0  0  0  0  0
    7.5668  -14.3361   18.0590 C   0  0  0  0  0  0  0  0  0  0  0  0
    8.4334  -13.3641   17.6601 C   0  0  0  0  0  0  0  0  0  0  0  0
    8.4497  -13.2906   16.3122 N   0  0  0  0  0  0  0  0  0  0  0  0
    7.5993  -14.2102   15.8743 C   0  0  0  0  0  0  0  0  0  0  0  0
    7.0562  -14.8513   16.9021 N   0  0  0  0  0  0  0  0  0  0  0  0
    8.0758  -15.2975   21.7181 C   0  0  0  0  0  0  0  0  0  0  0  0
    7.2012  -14.6817   22.3869 O   0  0  0  0  0  0  0  0  0  0  0  0
    9.0969  -18.1895   23.8674 C   0  0  0  0  0  0  0  0  0  0  0  0
    8.4460  -16.8342   23.6881 C   0  0  2  0  0  0  0  0  0  0  0  0
    8.7116  -16.3778   22.3610 N   0  0  0  0  0  0  0  0  0  0  0  0
    8.9836  -15.8705   24.7085 C   0  0  0  0  0  0  0  0  0  0  0  0
   10.1113  -15.3403   24.6092 O   0  0  0  0  0  0  0  0  0  0  0  0
    8.2166  -11.7819   25.6183 C   0  0  0  0  0  0  0  0  0  0  0  0
    7.1587  -12.6901   26.1827 C   0  0  2  0  0  0  0  0  0  0  0  0
    5.9811  -11.8356   26.6819 C   0  0  0  0  0  0  0  0  0  0  0  0
    7.6855  -13.5575   27.2580 C   0  0  0  0  0  0  0  0  0  0  0  0
    8.6165  -14.6506   26.8916 C   0  0  2  0  0  0  0  0  0  0  0  0
    8.1897  -15.5363   25.8406 N   0  0  0  0  0  0  0  0  0  0  0  0
    9.0727  -15.4537   28.0544 C   0  0  0  0  0  0  0  0  0  0  0  0
    8.8101  -16.6761   28.1450 O   0  0  0  0  0  0  0  0  0  0  0  0
    9.8046  -14.8829   29.0812 O   0  0  0  0  0  0  0  0  0  0  0  0
  2  1  1  6
  3  4  1  0
  3  2  1  0
  4  5  2  0
  6  5  1  0
  7  6  1  0
  8  7  2  0
  8  4  1  0
  9  2  1  0
 10  9  2  0
 12 11  1  1
 12 14  1  0
 12 13  1  0
 13  9  1  0
 14 21  1  0
 15 14  2  0
 17 16  1  1
 18 17  1  0
 19 17  1  0
 20 19  1  1
 20 22  1  0
 21 20  1  0
 22 23  2  0
 22 24  1  0
M  END
$$$$
