HAL.pdb
     RDKit          3D

 24 24  0  0  1  0  0  0  0  0999 V2000
    9.7518  -19.2665   20.7184 N   0  0  0  0  0  0  0  0  0  0  0  0
    8.7856  -18.4896   21.4550 C   0  0  1  0  0  0  0  0  0  0  0  0
    8.6598  -19.0081   22.8474 C   0  0  0  0  0  0  0  0  0  0  0  0
    8.3050  -20.4337   22.9228 C   0  0  0  0  0  0  0  0  0  0  0  0
    7.9787  -21.2851   21.9111 C   0  0  0  0  0  0  0  0  0  0  0  0
    7.7148  -22.5108   22.4117 N   0  0  0  0  0  0  0  0  0  0  0  0
    7.8755  -22.4238   23.7259 C   0  0  0  0  0  0  0  0  0  0  0  0
    8.2296  -21.1883   24.0584 N   0  0  0  0  0  0  0  0  0  0  0  0
    9.0132  -17.0268   21.3587 C   0  0  0  0  0  0  0  0  0  0  0  0
   10.1788  -16.5459   21.3993 O   0  0  0  0  0  0  0  0  0  0  0  0
    6.8201  -14.1349   20.4922 C   0  0  0  0  0  0  0  0  0  0  0  0
    8.0983  -14.6884   21.0860 C   0  0  2  0  0  0  0  0  0  0  0  0
    7.9583  -16.1035   21.2195 N   0  0  0  0  0  0  0  0  0  0  0  0
    8.3637  -14.0439   22.4176 C   0  0  0  0  0  0  0  0  0  0  0  0
    8.5034  -12.8093   22.5551 O   0  0  0  0  0  0  0  0  0  0  0  0
    5.6331  -12.5813   26.9521 C   0  0  0  0  0  0  0  0  0  0  0  0
    7.0170  -13.0957   26.6644 C   0  0  2  0  0  0  0  0  0  0  0  0
    8.0282  -11.9569   26.8797 C   0  0  0  0  0  0  0  0  0  0  0  0
    7.1286  -13.6616   25.3029 C   0  0  0  0  0  0  0  0  0  0  0  0
    8.3836  -14.3536   24.9261 C   0  0  2  0  0  0  0  0  0  0  0  0
    8.4633  -14.8574   23.5802 N   0  0  0  0  0  0  0  0  0  0  0  0
    8.7755  -15.4264   25.8751 C   0  0  0  0  0  0  0  0  0  0  0  0
    8.7677  -15.2348   27.1140 O   0  0  0  0  0  0  0  0  0  0  0  0
    9.1637  -16.6773   25.4277 O   0  0  0  0  0  0  0  0  0  0  0  0
  2  1  1  1
  3  4  1  0
  3  2  1  0
  4  5  2  0
  6  5  1  0
  7  6  1  0
  8  7  2  0
  8  4  1  0
  9  2  1  0
 10  9  2  0
 12 11  1  1
 12 14  1  0
 12 13  1  0
 13  9  1  0
 14 21  1  0
 15 14  2  0
 17 16  1  6
 18 17  1  0
 19 17  1  0
 20 19  1  1
 20 22  1  0
 21 20  1  0
 22 23  2  0
 22 24  1  0
M  END
$$$$
