NYA.pdb
     RDKit          3D

 26 26  0  0  1  0  0  0  0  0999 V2000
   13.3219  -17.8192   11.3872 N   0  0  0  0  0  0  0  0  0  0  0  0
   12.5718  -18.5889   12.3038 C   0  0  0  0  0  0  0  0  0  0  0  0
   11.3583  -18.2763   12.4879 O   0  0  0  0  0  0  0  0  0  0  0  0
   13.1718  -19.7315   13.0366 C   0  0  0  0  0  0  0  0  0  0  0  0
   12.7535  -19.6458   14.4733 C   0  0  2  0  0  0  0  0  0  0  0  0
   12.9203  -18.3253   14.9934 N   0  0  0  0  0  0  0  0  0  0  0  0
   13.4197  -20.6815   15.3127 C   0  0  0  0  0  0  0  0  0  0  0  0
   13.0356  -21.8736   15.2337 O   0  0  0  0  0  0  0  0  0  0  0  0
   15.9843  -23.1790   10.8728 O   0  0  0  0  0  0  0  0  0  0  0  0
   16.1088  -22.8339   12.2244 C   0  0  0  0  0  0  0  0  0  0  0  0
   16.0358  -23.7892   13.2170 C   0  0  0  0  0  0  0  0  0  0  0  0
   16.1613  -23.4304   14.5544 C   0  0  0  0  0  0  0  0  0  0  0  0
   16.3617  -22.1221   14.9420 C   0  0  0  0  0  0  0  0  0  0  0  0
   16.4885  -21.7904   16.3656 C   0  0  0  0  0  0  0  0  0  0  0  0
   15.1472  -21.4084   16.9951 C   0  0  2  0  0  0  0  0  0  0  0  0
   14.4806  -20.3876   16.2095 N   0  0  0  0  0  0  0  0  0  0  0  0
   15.3299  -20.9779   18.4049 C   0  0  0  0  0  0  0  0  0  0  0  0
   16.2881  -20.2334   18.7036 O   0  0  0  0  0  0  0  0  0  0  0  0
   16.4346  -21.1669   13.9481 C   0  0  0  0  0  0  0  0  0  0  0  0
   16.3094  -21.5282   12.6221 C   0  0  0  0  0  0  0  0  0  0  0  0
   15.6796  -22.6496   21.1615 C   0  0  0  0  0  0  0  0  0  0  0  0
   14.9124  -21.3951   20.8394 C   0  0  2  0  0  0  0  0  0  0  0  0
   14.4564  -21.3749   19.4533 N   0  0  0  0  0  0  0  0  0  0  0  0
   15.7031  -20.1619   21.0908 C   0  0  0  0  0  0  0  0  0  0  0  0
   17.0565  -20.1208   20.7846 O   0  0  0  0  0  0  0  0  0  0  0  0
   15.1946  -19.1212   21.5816 O   0  0  0  0  0  0  0  0  0  0  0  0
  2  3  2  0
  2  1  1  0
  4  2  1  0
  5  4  1  0
  5  6  1  1
  7  5  1  0
  7 16  1  0
  8  7  2  0
  9 10  1  0
 10 11  2  0
 11 12  1  0
 13 14  1  0
 13 12  2  0
 15 14  1  6
 15 16  1  0
 15 17  1  0
 17 18  2  0
 19 13  1  0
 20 19  2  0
 20 10  1  0
 22 21  1  6
 23 17  1  0
 23 22  1  0
 24 25  1  0
 24 22  1  0
 26 24  2  0
M  END
$$$$
