NYA.pdb
     RDKit          3D

 26 26  0  0  1  0  0  0  0  0999 V2000
   10.1476  -20.6100   18.7852 N   0  0  0  0  0  0  0  0  0  0  0  0
    9.3325  -19.4994   19.0978 C   0  0  0  0  0  0  0  0  0  0  0  0
    8.4094  -19.1935   18.2864 O   0  0  0  0  0  0  0  0  0  0  0  0
    9.5383  -18.7051   20.3344 C   0  0  0  0  0  0  0  0  0  0  0  0
    9.6364  -17.2577   19.9576 C   0  0  2  0  0  0  0  0  0  0  0  0
   10.7379  -17.0146   19.0804 N   0  0  0  0  0  0  0  0  0  0  0  0
    9.6476  -16.3679   21.1531 C   0  0  0  0  0  0  0  0  0  0  0  0
   10.7453  -16.0650   21.6806 O   0  0  0  0  0  0  0  0  0  0  0  0
    6.8197  -11.8356   28.2745 O   0  0  0  0  0  0  0  0  0  0  0  0
    6.9166  -12.4357   27.0128 C   0  0  0  0  0  0  0  0  0  0  0  0
    6.1788  -13.5572   26.6947 C   0  0  0  0  0  0  0  0  0  0  0  0
    6.2863  -14.1412   25.4376 C   0  0  0  0  0  0  0  0  0  0  0  0
    7.1233  -13.6322   24.4668 C   0  0  0  0  0  0  0  0  0  0  0  0
    7.2041  -14.2820   23.1539 C   0  0  0  0  0  0  0  0  0  0  0  0
    8.4665  -15.1335   23.0036 C   0  0  2  0  0  0  0  0  0  0  0  0
    8.4663  -15.8372   21.7353 N   0  0  0  0  0  0  0  0  0  0  0  0
    8.6094  -16.0712   24.1466 C   0  0  0  0  0  0  0  0  0  0  0  0
    7.8031  -17.0177   24.2729 O   0  0  0  0  0  0  0  0  0  0  0  0
    7.8611  -12.5100   24.7860 C   0  0  0  0  0  0  0  0  0  0  0  0
    7.7509  -11.9340   26.0353 C   0  0  0  0  0  0  0  0  0  0  0  0
   10.6970  -18.0662   25.7723 C   0  0  0  0  0  0  0  0  0  0  0  0
    9.7826  -16.9425   26.1812 C   0  0  2  0  0  0  0  0  0  0  0  0
    9.6338  -15.9478   25.1239 N   0  0  0  0  0  0  0  0  0  0  0  0
   10.2432  -16.2514   27.4137 C   0  0  0  0  0  0  0  0  0  0  0  0
   10.3697  -16.9513   28.6059 O   0  0  0  0  0  0  0  0  0  0  0  0
   10.5334  -15.0275   27.4340 O   0  0  0  0  0  0  0  0  0  0  0  0
  2  3  2  0
  2  1  1  0
  4  2  1  0
  5  4  1  0
  5  6  1  1
  7  5  1  0
  7 16  1  0
  8  7  2  0
  9 10  1  0
 10 11  2  0
 11 12  1  0
 13 14  1  0
 13 12  2  0
 15 14  1  1
 15 16  1  0
 15 17  1  0
 17 18  2  0
 19 13  1  0
 20 19  2  0
 20 10  1  0
 22 21  1  6
 23 17  1  0
 23 22  1  0
 24 25  1  0
 24 22  1  0
 26 24  2  0
M  END
$$$$
