NYA.pdb
     RDKit          3D

 26 26  0  0  1  0  0  0  0  0999 V2000
    7.8175  -12.5542   15.5161 N   0  0  0  0  0  0  0  0  0  0  0  0
    7.7870  -13.9190   15.1525 C   0  0  0  0  0  0  0  0  0  0  0  0
    7.5970  -14.2042   13.9332 O   0  0  0  0  0  0  0  0  0  0  0  0
    7.9701  -14.9971   16.1557 C   0  0  0  0  0  0  0  0  0  0  0  0
    9.2695  -15.6898   15.8756 C   0  0  2  0  0  0  0  0  0  0  0  0
    9.3166  -16.2039   14.5432 N   0  0  0  0  0  0  0  0  0  0  0  0
    9.5844  -16.7241   16.9013 C   0  0  0  0  0  0  0  0  0  0  0  0
    9.5547  -16.4108   18.1162 O   0  0  0  0  0  0  0  0  0  0  0  0
   10.7483  -24.4394   21.0720 O   0  0  0  0  0  0  0  0  0  0  0  0
   10.4837  -23.4508   20.1159 C   0  0  0  0  0  0  0  0  0  0  0  0
   11.1433  -23.4316   18.9044 C   0  0  0  0  0  0  0  0  0  0  0  0
   10.8693  -22.4433   17.9656 C   0  0  0  0  0  0  0  0  0  0  0  0
    9.9391  -21.4526   18.2010 C   0  0  0  0  0  0  0  0  0  0  0  0
    9.6829  -20.4300   17.1806 C   0  0  0  0  0  0  0  0  0  0  0  0
   10.2376  -19.0605   17.5782 C   0  0  2  0  0  0  0  0  0  0  0  0
    9.9211  -18.0639   16.5730 N   0  0  0  0  0  0  0  0  0  0  0  0
   11.6998  -19.1362   17.8285 C   0  0  0  0  0  0  0  0  0  0  0  0
   12.1319  -19.8676   18.7450 O   0  0  0  0  0  0  0  0  0  0  0  0
    9.2796  -21.4727   19.4135 C   0  0  0  0  0  0  0  0  0  0  0  0
    9.5552  -22.4558   20.3420 C   0  0  0  0  0  0  0  0  0  0  0  0
   14.6379  -19.8539   16.9958 C   0  0  0  0  0  0  0  0  0  0  0  0
   14.0786  -18.5050   17.3618 C   0  0  2  0  0  0  0  0  0  0  0  0
   12.6528  -18.4072   17.0668 N   0  0  0  0  0  0  0  0  0  0  0  0
   14.7779  -17.3904   16.6707 C   0  0  0  0  0  0  0  0  0  0  0  0
   14.0679  -16.5024   15.8742 O   0  0  0  0  0  0  0  0  0  0  0  0
   16.0177  -17.2036   16.7729 O   0  0  0  0  0  0  0  0  0  0  0  0
  2  3  2  0
  2  1  1  0
  4  2  1  0
  5  4  1  0
  5  6  1  6
  7  5  1  0
  7 16  1  0
  8  7  2  0
  9 10  1  0
 10 11  2  0
 11 12  1  0
 13 14  1  0
 13 12  2  0
 15 14  1  6
 15 16  1  0
 15 17  1  0
 17 18  2  0
 19 13  1  0
 20 19  2  0
 20 10  1  0
 22 21  1  6
 23 17  1  0
 23 22  1  0
 24 25  1  0
 24 22  1  0
 26 24  2  0
M  END
$$$$
