NYA.pdb
     RDKit          3D

 26 26  0  0  1  0  0  0  0  0999 V2000
    6.6668  -13.6695   17.7759 N   0  0  0  0  0  0  0  0  0  0  0  0
    7.3717  -14.8536   18.0865 C   0  0  0  0  0  0  0  0  0  0  0  0
    7.3376  -15.8019   17.2477 O   0  0  0  0  0  0  0  0  0  0  0  0
    8.1333  -14.9981   19.3520 C   0  0  0  0  0  0  0  0  0  0  0  0
    7.9637  -13.7430   20.1535 C   0  0  2  0  0  0  0  0  0  0  0  0
    8.3563  -12.5864   19.4119 N   0  0  0  0  0  0  0  0  0  0  0  0
    8.6382  -13.8307   21.4796 C   0  0  0  0  0  0  0  0  0  0  0  0
    9.8664  -13.5856   21.5592 O   0  0  0  0  0  0  0  0  0  0  0  0
   10.2759  -15.0806   30.1103 O   0  0  0  0  0  0  0  0  0  0  0  0
    9.6445  -14.8547   28.8807 C   0  0  0  0  0  0  0  0  0  0  0  0
    9.6835  -13.6172   28.2724 C   0  0  0  0  0  0  0  0  0  0  0  0
    9.0515  -13.4090   27.0516 C   0  0  0  0  0  0  0  0  0  0  0  0
    8.3675  -14.4165   26.4042 C   0  0  0  0  0  0  0  0  0  0  0  0
    7.7157  -14.1505   25.1169 C   0  0  0  0  0  0  0  0  0  0  0  0
    8.6445  -14.4138   23.9297 C   0  0  2  0  0  0  0  0  0  0  0  0
    7.9560  -14.1815   22.6745 N   0  0  0  0  0  0  0  0  0  0  0  0
    9.2085  -15.7863   23.9957 C   0  0  0  0  0  0  0  0  0  0  0  0
    8.4464  -16.7719   23.8993 O   0  0  0  0  0  0  0  0  0  0  0  0
    8.3290  -15.6545   27.0136 C   0  0  0  0  0  0  0  0  0  0  0  0
    8.9579  -15.8559   28.2254 C   0  0  0  0  0  0  0  0  0  0  0  0
   12.1236  -17.5580   22.9774 C   0  0  0  0  0  0  0  0  0  0  0  0
   11.1187  -17.4043   24.0876 C   0  0  2  0  0  0  0  0  0  0  0  0
   10.5957  -16.0442   24.1659 N   0  0  0  0  0  0  0  0  0  0  0  0
   11.6754  -17.7698   25.4163 C   0  0  0  0  0  0  0  0  0  0  0  0
   11.7605  -16.8220   26.4270 O   0  0  0  0  0  0  0  0  0  0  0  0
   12.0864  -18.9289   25.6813 O   0  0  0  0  0  0  0  0  0  0  0  0
  2  3  2  0
  2  1  1  0
  4  2  1  0
  5  4  1  0
  5  6  1  6
  7  5  1  0
  7 16  1  0
  8  7  2  0
  9 10  1  0
 10 11  2  0
 11 12  1  0
 13 14  1  0
 13 12  2  0
 15 14  1  1
 15 16  1  0
 15 17  1  0
 17 18  2  0
 19 13  1  0
 20 19  2  0
 20 10  1  0
 22 21  1  6
 23 17  1  0
 23 22  1  0
 24 25  1  0
 24 22  1  0
 26 24  2  0
M  END
$$$$
