NYA.pdb
     RDKit          3D

 26 26  0  0  1  0  0  0  0  0999 V2000
    6.4777  -17.9030   18.4051 N   0  0  0  0  0  0  0  0  0  0  0  0
    7.6897  -17.9227   19.1306 C   0  0  0  0  0  0  0  0  0  0  0  0
    8.7702  -18.0277   18.4782 O   0  0  0  0  0  0  0  0  0  0  0  0
    7.7135  -17.8245   20.6112 C   0  0  0  0  0  0  0  0  0  0  0  0
    8.4536  -16.5779   20.9919 C   0  0  2  0  0  0  0  0  0  0  0  0
    9.8057  -16.6055   20.5304 N   0  0  0  0  0  0  0  0  0  0  0  0
    8.3508  -16.2897   22.4505 C   0  0  0  0  0  0  0  0  0  0  0  0
    7.2192  -16.2723   22.9929 O   0  0  0  0  0  0  0  0  0  0  0  0
   10.3705  -15.3593   31.0019 O   0  0  0  0  0  0  0  0  0  0  0  0
   10.4613  -15.4116   29.6053 C   0  0  0  0  0  0  0  0  0  0  0  0
   10.4729  -16.6163   28.9331 C   0  0  0  0  0  0  0  0  0  0  0  0
   10.5636  -16.6514   27.5462 C   0  0  0  0  0  0  0  0  0  0  0  0
   10.6448  -15.4996   26.7920 C   0  0  0  0  0  0  0  0  0  0  0  0
   10.7390  -15.5853   25.3304 C   0  0  0  0  0  0  0  0  0  0  0  0
    9.3638  -15.6342   24.6612 C   0  0  2  0  0  0  0  0  0  0  0  0
    9.4803  -16.0302   23.2707 N   0  0  0  0  0  0  0  0  0  0  0  0
    8.6634  -14.3316   24.7996 C   0  0  0  0  0  0  0  0  0  0  0  0
    9.1285  -13.3179   24.2360 O   0  0  0  0  0  0  0  0  0  0  0  0
   10.6331  -14.2946   27.4654 C   0  0  0  0  0  0  0  0  0  0  0  0
   10.5429  -14.2652   28.8422 C   0  0  0  0  0  0  0  0  0  0  0  0
    5.3627  -12.9395   25.8374 C   0  0  0  0  0  0  0  0  0  0  0  0
    6.8615  -12.8571   25.7236 C   0  0  2  0  0  0  0  0  0  0  0  0
    7.4691  -14.1729   25.5534 N   0  0  0  0  0  0  0  0  0  0  0  0
    7.4881  -12.1999   26.9002 C   0  0  0  0  0  0  0  0  0  0  0  0
    8.3499  -12.9100   27.7250 O   0  0  0  0  0  0  0  0  0  0  0  0
    7.2718  -10.9967   27.1972 O   0  0  0  0  0  0  0  0  0  0  0  0
  2  3  2  0
  2  1  1  0
  4  2  1  0
  5  4  1  0
  5  6  1  1
  7  5  1  0
  7 16  1  0
  8  7  2  0
  9 10  1  0
 10 11  2  0
 11 12  1  0
 13 14  1  0
 13 12  2  0
 15 14  1  6
 15 16  1  0
 15 17  1  0
 17 18  2  0
 19 13  1  0
 20 19  2  0
 20 10  1  0
 22 21  1  1
 23 17  1  0
 23 22  1  0
 24 25  1  0
 24 22  1  0
 26 24  2  0
M  END
$$$$
