NYA.pdb
     RDKit          3D

 26 26  0  0  1  0  0  0  0  0999 V2000
   -4.7807  -24.9875   22.4557 N   0  0  0  0  0  0  0  0  0  0  0  0
   -5.8199  -24.6991   23.3682 C   0  0  0  0  0  0  0  0  0  0  0  0
   -6.9642  -25.1912   23.1393 O   0  0  0  0  0  0  0  0  0  0  0  0
   -5.5943  -23.8478   24.5627 C   0  0  0  0  0  0  0  0  0  0  0  0
   -6.1389  -24.5612   25.7632 C   0  0  2  0  0  0  0  0  0  0  0  0
   -7.5491  -24.7672   25.6595 N   0  0  0  0  0  0  0  0  0  0  0  0
   -5.7488  -23.8919   27.0363 C   0  0  0  0  0  0  0  0  0  0  0  0
   -4.5329  -23.6955   27.2773 O   0  0  0  0  0  0  0  0  0  0  0  0
  -12.6987  -22.8644   29.8839 O   0  0  0  0  0  0  0  0  0  0  0  0
  -11.3359  -22.5535   29.7963 C   0  0  0  0  0  0  0  0  0  0  0  0
  -10.5351  -22.5212   30.9192 C   0  0  0  0  0  0  0  0  0  0  0  0
   -9.1838  -22.2108   30.8154 C   0  0  0  0  0  0  0  0  0  0  0  0
   -8.5929  -21.9255   29.6024 C   0  0  0  0  0  0  0  0  0  0  0  0
   -7.1628  -21.6032   29.5412 C   0  0  0  0  0  0  0  0  0  0  0  0
   -6.3012  -22.8348   29.2546 C   0  0  2  0  0  0  0  0  0  0  0  0
   -6.6923  -23.4586   28.0049 N   0  0  0  0  0  0  0  0  0  0  0  0
   -6.3622  -23.7959   30.3854 C   0  0  0  0  0  0  0  0  0  0  0  0
   -5.9796  -23.4386   31.5202 O   0  0  0  0  0  0  0  0  0  0  0  0
   -9.3949  -21.9580   28.4794 C   0  0  0  0  0  0  0  0  0  0  0  0
  -10.7356  -22.2666   28.5877 C   0  0  0  0  0  0  0  0  0  0  0  0
   -6.1262  -25.4674   32.5698 C   0  0  0  0  0  0  0  0  0  0  0  0
   -6.8330  -26.0487   31.3745 C   0  0  2  0  0  0  0  0  0  0  0  0
   -6.8418  -25.1262   30.2438 N   0  0  0  0  0  0  0  0  0  0  0  0
   -8.2362  -26.4366   31.6739 C   0  0  0  0  0  0  0  0  0  0  0  0
   -8.5046  -27.4960   32.5299 O   0  0  0  0  0  0  0  0  0  0  0  0
   -9.2240  -25.8369   31.1768 O   0  0  0  0  0  0  0  0  0  0  0  0
  2  3  2  0
  2  1  1  0
  4  2  1  0
  5  4  1  0
  5  6  1  6
  7  5  1  0
  7 16  1  0
  8  7  2  0
  9 10  1  0
 10 11  2  0
 11 12  1  0
 13 14  1  0
 13 12  2  0
 15 14  1  1
 15 16  1  0
 15 17  1  0
 17 18  2  0
 19 13  1  0
 20 19  2  0
 20 10  1  0
 22 21  1  1
 23 17  1  0
 23 22  1  0
 24 25  1  0
 24 22  1  0
 26 24  2  0
M  END
$$$$
