NYA.pdb
     RDKit          3D

 26 26  0  0  1  0  0  0  0  0999 V2000
   11.0825  -19.1948   18.0783 N   0  0  0  0  0  0  0  0  0  0  0  0
   11.3440  -17.8213   17.8766 C   0  0  0  0  0  0  0  0  0  0  0  0
   12.0784  -17.4944   16.8979 O   0  0  0  0  0  0  0  0  0  0  0  0
   10.7833  -16.7811   18.7743 C   0  0  0  0  0  0  0  0  0  0  0  0
   10.0016  -17.4608   19.8576 C   0  0  2  0  0  0  0  0  0  0  0  0
    8.7011  -17.8456   19.4074 N   0  0  0  0  0  0  0  0  0  0  0  0
    9.9597  -16.6523   21.1088 C   0  0  0  0  0  0  0  0  0  0  0  0
   11.0364  -16.3459   21.6761 O   0  0  0  0  0  0  0  0  0  0  0  0
    7.1053  -11.7500   27.9453 O   0  0  0  0  0  0  0  0  0  0  0  0
    7.1894  -12.4558   26.7385 C   0  0  0  0  0  0  0  0  0  0  0  0
    6.5303  -13.6549   26.5629 C   0  0  0  0  0  0  0  0  0  0  0  0
    6.6238  -14.3435   25.3587 C   0  0  0  0  0  0  0  0  0  0  0  0
    7.3692  -13.8648   24.3017 C   0  0  0  0  0  0  0  0  0  0  0  0
    7.4389  -14.6261   23.0493 C   0  0  0  0  0  0  0  0  0  0  0  0
    8.7167  -15.4617   22.9474 C   0  0  2  0  0  0  0  0  0  0  0  0
    8.7500  -16.2037   21.7016 N   0  0  0  0  0  0  0  0  0  0  0  0
    8.8532  -16.3616   24.1212 C   0  0  0  0  0  0  0  0  0  0  0  0
    7.9709  -17.2167   24.3492 O   0  0  0  0  0  0  0  0  0  0  0  0
    8.0284  -12.6649   24.4783 C   0  0  0  0  0  0  0  0  0  0  0  0
    7.9323  -11.9853   25.6755 C   0  0  0  0  0  0  0  0  0  0  0  0
   11.2072  -18.2139   25.9188 C   0  0  0  0  0  0  0  0  0  0  0  0
   10.0723  -17.2463   26.1228 C   0  0  2  0  0  0  0  0  0  0  0  0
    9.9551  -16.3015   25.0168 N   0  0  0  0  0  0  0  0  0  0  0  0
   10.2000  -16.4749   27.3867 C   0  0  0  0  0  0  0  0  0  0  0  0
   10.1381  -17.1216   28.6136 O   0  0  0  0  0  0  0  0  0  0  0  0
   10.3663  -15.2280   27.4038 O   0  0  0  0  0  0  0  0  0  0  0  0
  2  3  2  0
  2  1  1  0
  4  2  1  0
  5  4  1  0
  5  6  1  6
  7  5  1  0
  7 16  1  0
  8  7  2  0
  9 10  1  0
 10 11  2  0
 11 12  1  0
 13 14  1  0
 13 12  2  0
 15 14  1  1
 15 16  1  0
 15 17  1  0
 17 18  2  0
 19 13  1  0
 20 19  2  0
 20 10  1  0
 22 21  1  6
 23 17  1  0
 23 22  1  0
 24 25  1  0
 24 22  1  0
 26 24  2  0
M  END
$$$$
