NYA.pdb
     RDKit          3D

 26 26  0  0  1  0  0  0  0  0999 V2000
   16.2805  -18.4968   15.0270 N   0  0  0  0  0  0  0  0  0  0  0  0
   16.5914  -19.0745   16.2781 C   0  0  0  0  0  0  0  0  0  0  0  0
   17.0056  -20.2712   16.2927 O   0  0  0  0  0  0  0  0  0  0  0  0
   16.4430  -18.3162   17.5451 C   0  0  0  0  0  0  0  0  0  0  0  0
   15.7110  -19.1770   18.5299 C   0  0  2  0  0  0  0  0  0  0  0  0
   14.3536  -19.3901   18.1375 N   0  0  0  0  0  0  0  0  0  0  0  0
   15.8313  -18.6601   19.9226 C   0  0  0  0  0  0  0  0  0  0  0  0
   15.1515  -17.6627   20.2664 O   0  0  0  0  0  0  0  0  0  0  0  0
   11.2689  -21.4082   23.9831 O   0  0  0  0  0  0  0  0  0  0  0  0
   12.6012  -21.0111   23.8131 C   0  0  0  0  0  0  0  0  0  0  0  0
   13.4508  -21.6966   22.9697 C   0  0  0  0  0  0  0  0  0  0  0  0
   14.7708  -21.2896   22.8118 C   0  0  0  0  0  0  0  0  0  0  0  0
   15.2817  -20.1979   23.4820 C   0  0  0  0  0  0  0  0  0  0  0  0
   16.6815  -19.8053   23.2842 C   0  0  0  0  0  0  0  0  0  0  0  0
   16.8331  -18.7038   22.2329 C   0  0  2  0  0  0  0  0  0  0  0  0
   16.6858  -19.2437   20.8948 N   0  0  0  0  0  0  0  0  0  0  0  0
   18.1284  -17.9951   22.3947 C   0  0  0  0  0  0  0  0  0  0  0  0
   19.1867  -18.5541   22.0354 O   0  0  0  0  0  0  0  0  0  0  0  0
   14.4309  -19.5125   24.3258 C   0  0  0  0  0  0  0  0  0  0  0  0
   13.1215  -19.9206   24.4790 C   0  0  0  0  0  0  0  0  0  0  0  0
   19.3937  -14.5591   22.5623 C   0  0  0  0  0  0  0  0  0  0  0  0
   19.5144  -15.9962   22.9937 C   0  0  2  0  0  0  0  0  0  0  0  0
   18.2312  -16.6896   22.9470 N   0  0  0  0  0  0  0  0  0  0  0  0
   20.0732  -16.1361   24.3638 C   0  0  0  0  0  0  0  0  0  0  0  0
   19.2434  -16.4467   25.4325 O   0  0  0  0  0  0  0  0  0  0  0  0
   21.2966  -15.9830   24.6136 O   0  0  0  0  0  0  0  0  0  0  0  0
  2  3  2  0
  2  1  1  0
  4  2  1  0
  5  4  1  0
  5  6  1  6
  7  5  1  0
  7 16  1  0
  8  7  2  0
  9 10  1  0
 10 11  2  0
 11 12  1  0
 13 14  1  0
 13 12  2  0
 15 14  1  1
 15 16  1  0
 15 17  1  0
 17 18  2  0
 19 13  1  0
 20 19  2  0
 20 10  1  0
 22 21  1  1
 23 17  1  0
 23 22  1  0
 24 25  1  0
 24 22  1  0
 26 24  2  0
M  END
$$$$
