NYA.pdb
     RDKit          3D

 26 26  0  0  1  0  0  0  0  0999 V2000
   13.4989  -17.9064   18.2522 N   0  0  0  0  0  0  0  0  0  0  0  0
   12.1916  -17.4013   18.4294 C   0  0  0  0  0  0  0  0  0  0  0  0
   11.3017  -17.7538   17.6001 O   0  0  0  0  0  0  0  0  0  0  0  0
   11.8550  -16.4851   19.5473 C   0  0  0  0  0  0  0  0  0  0  0  0
   10.8819  -17.1786   20.4522 C   0  0  2  0  0  0  0  0  0  0  0  0
    9.6959  -17.5645   19.7548 N   0  0  0  0  0  0  0  0  0  0  0  0
   10.5931  -16.3823   21.6785 C   0  0  0  0  0  0  0  0  0  0  0  0
   11.5411  -16.0525   22.4317 O   0  0  0  0  0  0  0  0  0  0  0  0
    6.3763  -11.8327   28.0329 O   0  0  0  0  0  0  0  0  0  0  0  0
    6.6985  -12.4878   26.8378 C   0  0  0  0  0  0  0  0  0  0  0  0
    7.5848  -11.9368   25.9355 C   0  0  0  0  0  0  0  0  0  0  0  0
    7.8942  -12.5998   24.7533 C   0  0  0  0  0  0  0  0  0  0  0  0
    7.3366  -13.8204   24.4350 C   0  0  0  0  0  0  0  0  0  0  0  0
    7.6930  -14.4833   23.1755 C   0  0  0  0  0  0  0  0  0  0  0  0
    9.0026  -15.2674   23.2818 C   0  0  2  0  0  0  0  0  0  0  0  0
    9.2845  -15.9712   22.0452 N   0  0  0  0  0  0  0  0  0  0  0  0
    8.9690  -16.1955   24.4411 C   0  0  0  0  0  0  0  0  0  0  0  0
    8.1046  -17.0968   24.4852 O   0  0  0  0  0  0  0  0  0  0  0  0
    6.4499  -14.3710   25.3384 C   0  0  0  0  0  0  0  0  0  0  0  0
    6.1461  -13.7089   26.5105 C   0  0  0  0  0  0  0  0  0  0  0  0
   11.0550  -18.1384   26.2752 C   0  0  0  0  0  0  0  0  0  0  0  0
    9.9418  -17.1599   26.5384 C   0  0  2  0  0  0  0  0  0  0  0  0
    9.8852  -16.1120   25.5244 N   0  0  0  0  0  0  0  0  0  0  0  0
   10.0519  -16.5153   27.8730 C   0  0  0  0  0  0  0  0  0  0  0  0
    9.9176  -17.2697   29.0306 O   0  0  0  0  0  0  0  0  0  0  0  0
   10.2671  -15.2838   28.0132 O   0  0  0  0  0  0  0  0  0  0  0  0
  2  3  2  0
  2  1  1  0
  4  2  1  0
  5  4  1  0
  5  6  1  6
  7  5  1  0
  7 16  1  0
  8  7  2  0
  9 10  1  0
 10 11  2  0
 11 12  1  0
 13 14  1  0
 13 12  2  0
 15 14  1  6
 15 16  1  0
 15 17  1  0
 17 18  2  0
 19 13  1  0
 20 19  2  0
 20 10  1  0
 22 21  1  6
 23 17  1  0
 23 22  1  0
 24 25  1  0
 24 22  1  0
 26 24  2  0
M  END
$$$$
