STE.pdb
     RDKit          3D

 23 22  0  0  1  0  0  0  0  0999 V2000
   14.1247  -12.4961   -9.9005 O   0  0  0  0  0  0  0  0  0  0  0  0
   14.5154  -11.3211  -10.5241 C   0  0  0  0  0  0  0  0  0  0  0  0
   14.0996  -10.1103   -9.7305 C   0  0  2  0  0  0  0  0  0  0  0  0
   12.6526  -10.0570   -9.7217 N   0  0  0  0  0  0  0  0  0  0  0  0
   14.6500   -8.8433  -10.2305 C   0  0  0  0  0  0  0  0  0  0  0  0
   14.0792   -8.2668  -11.2064 O   0  0  0  0  0  0  0  0  0  0  0  0
   14.8955   -5.5316   -8.7116 C   0  0  0  0  0  0  0  0  0  0  0  0
   16.2880   -5.8605   -9.1953 C   0  0  1  0  0  0  0  0  0  0  0  0
   17.0677   -6.2415   -8.1063 O   0  0  0  0  0  0  0  0  0  0  0  0
   16.2422   -6.9238  -10.2568 C   0  0  2  0  0  0  0  0  0  0  0  0
   15.7906   -8.1944   -9.7036 N   0  0  0  0  0  0  0  0  0  0  0  0
   17.6251   -7.1263  -10.7569 C   0  0  0  0  0  0  0  0  0  0  0  0
   18.2922   -8.1404  -10.4367 O   0  0  0  0  0  0  0  0  0  0  0  0
   18.2619   -6.1857  -11.6210 N   0  0  0  0  0  0  0  0  0  0  0  0
   19.5070   -6.4918  -12.3044 C   0  0  1  0  0  0  0  0  0  0  0  0
   19.2971   -7.7020  -13.1573 C   0  0  0  0  0  0  0  0  0  0  0  0
   20.5415   -8.1184  -13.9070 C   0  0  0  0  0  0  0  0  0  0  0  0
   20.1734   -9.2562  -14.7710 C   0  0  0  0  0  0  0  0  0  0  0  0
   21.0612   -9.8590  -15.4043 O   0  0  0  0  0  0  0  0  0  0  0  0
   20.0420   -5.3371  -13.0258 C   0  0  0  0  0  0  0  0  0  0  0  0
   21.3962   -5.1168  -13.1812 O   0  0  0  0  0  0  0  0  0  0  0  0
   18.8643   -9.6504  -14.8789 O   0  0  0  0  0  0  0  0  0  0  0  0
   19.2519   -4.5053  -13.5287 O   0  0  0  0  0  0  0  0  0  0  0  0
  2  1  1  0
  3  4  1  6
  3  2  1  0
  5  3  1  0
  6  5  2  0
  8  7  1  1
  8 10  1  0
  9  8  1  0
 10 12  1  0
 10 11  1  1
 11  5  1  0
 12 14  1  0
 13 12  2  0
 14 15  1  0
 15 20  1  0
 15 16  1  6
 16 17  1  0
 18 17  1  0
 18 22  1  0
 19 18  2  0
 20 23  2  0
 20 21  1  0
M  END
$$$$
