STE.pdb
     RDKit          3D

 23 22  0  0  1  0  0  0  0  0999 V2000
   16.7159  -11.4541  -18.4669 O   0  0  0  0  0  0  0  0  0  0  0  0
   17.3892  -10.7369  -17.4899 C   0  0  0  0  0  0  0  0  0  0  0  0
   18.5819  -11.4963  -16.9709 C   0  0  2  0  0  0  0  0  0  0  0  0
   18.1010  -12.7096  -16.3439 N   0  0  0  0  0  0  0  0  0  0  0  0
   19.4177  -10.7375  -16.0307 C   0  0  0  0  0  0  0  0  0  0  0  0
   19.1036  -10.7234  -14.8012 O   0  0  0  0  0  0  0  0  0  0  0  0
   22.9377  -11.1883  -14.9547 C   0  0  0  0  0  0  0  0  0  0  0  0
   22.7990   -9.7586  -15.4218 C   0  0  1  0  0  0  0  0  0  0  0  0
   23.3336   -9.6466  -16.7027 O   0  0  0  0  0  0  0  0  0  0  0  0
   21.3616   -9.3218  -15.3694 C   0  0  2  0  0  0  0  0  0  0  0  0
   20.5718  -10.0026  -16.3878 N   0  0  0  0  0  0  0  0  0  0  0  0
   21.3168   -7.8695  -15.6733 C   0  0  0  0  0  0  0  0  0  0  0  0
   20.8619   -7.4454  -16.7637 O   0  0  0  0  0  0  0  0  0  0  0  0
   21.7849   -6.8888  -14.7482 N   0  0  0  0  0  0  0  0  0  0  0  0
   21.6047   -5.4660  -14.9811 C   0  0  1  0  0  0  0  0  0  0  0  0
   20.1514   -5.2021  -15.2151 C   0  0  0  0  0  0  0  0  0  0  0  0
   19.8406   -3.7347  -15.3991 C   0  0  0  0  0  0  0  0  0  0  0  0
   18.3801   -3.6132  -15.5687 C   0  0  0  0  0  0  0  0  0  0  0  0
   17.7276   -2.8993  -14.7831 O   0  0  0  0  0  0  0  0  0  0  0  0
   22.1975   -4.6510  -13.9208 C   0  0  0  0  0  0  0  0  0  0  0  0
   22.6205   -3.3528  -14.1263 O   0  0  0  0  0  0  0  0  0  0  0  0
   17.7416   -4.2801  -16.5829 O   0  0  0  0  0  0  0  0  0  0  0  0
   22.3335   -5.1367  -12.7742 O   0  0  0  0  0  0  0  0  0  0  0  0
  2  1  1  0
  3  4  1  1
  3  2  1  0
  5  3  1  0
  6  5  2  0
  8  7  1  6
  8 10  1  0
  9  8  1  0
 10 12  1  0
 10 11  1  6
 11  5  1  0
 12 14  1  0
 13 12  2  0
 14 15  1  0
 15 20  1  0
 15 16  1  1
 16 17  1  0
 18 17  1  0
 18 22  1  0
 19 18  2  0
 20 23  2  0
 20 21  1  0
M  END
$$$$
