STE.pdb
     RDKit          3D

 23 22  0  0  1  0  0  0  0  0999 V2000
   14.3965  -13.1391  -16.5065 O   0  0  0  0  0  0  0  0  0  0  0  0
   15.5615  -12.5654  -16.0206 C   0  0  0  0  0  0  0  0  0  0  0  0
   16.7818  -13.3175  -16.4831 C   0  0  2  0  0  0  0  0  0  0  0  0
   16.7436  -14.6385  -15.8912 N   0  0  0  0  0  0  0  0  0  0  0  0
   18.0545  -12.6565  -16.1644 C   0  0  0  0  0  0  0  0  0  0  0  0
   18.5661  -12.8274  -15.0157 O   0  0  0  0  0  0  0  0  0  0  0  0
   21.4188  -13.1824  -17.6300 C   0  0  0  0  0  0  0  0  0  0  0  0
   21.1237  -11.7030  -17.7064 C   0  0  1  0  0  0  0  0  0  0  0  0
   20.7210  -11.3876  -19.0016 O   0  0  0  0  0  0  0  0  0  0  0  0
   20.0922  -11.3156  -16.6840 C   0  0  2  0  0  0  0  0  0  0  0  0
   18.7767  -11.8246  -17.0510 N   0  0  0  0  0  0  0  0  0  0  0  0
   20.0035   -9.8339  -16.6671 C   0  0  0  0  0  0  0  0  0  0  0  0
   19.0167   -9.2342  -17.1595 O   0  0  0  0  0  0  0  0  0  0  0  0
   21.0277   -9.0218  -16.0942 N   0  0  0  0  0  0  0  0  0  0  0  0
   20.9286   -7.5726  -16.0590 C   0  0  1  0  0  0  0  0  0  0  0  0
   21.5563   -7.0829  -14.7931 C   0  0  0  0  0  0  0  0  0  0  0  0
   21.4955   -5.5800  -14.6475 C   0  0  0  0  0  0  0  0  0  0  0  0
   22.2209   -5.2289  -13.4118 C   0  0  0  0  0  0  0  0  0  0  0  0
   23.3727   -4.7598  -13.4878 O   0  0  0  0  0  0  0  0  0  0  0  0
   21.4622   -6.9506  -17.2708 C   0  0  0  0  0  0  0  0  0  0  0  0
   20.9735   -5.7623  -17.7762 O   0  0  0  0  0  0  0  0  0  0  0  0
   21.6347   -5.4162  -12.1862 O   0  0  0  0  0  0  0  0  0  0  0  0
   22.4007   -7.5069  -17.8862 O   0  0  0  0  0  0  0  0  0  0  0  0
  2  1  1  0
  3  4  1  1
  3  2  1  0
  5  3  1  0
  6  5  2  0
  8  7  1  6
  8 10  1  0
  9  8  1  0
 10 12  1  0
 10 11  1  6
 11  5  1  0
 12 14  1  0
 13 12  2  0
 14 15  1  0
 15 20  1  0
 15 16  1  1
 16 17  1  0
 18 17  1  0
 18 22  1  0
 19 18  2  0
 20 23  2  0
 20 21  1  0
M  END
$$$$
