STE.pdb
     RDKit          3D

 23 22  0  0  1  0  0  0  0  0999 V2000
   14.7405   -9.0705  -17.2783 O   0  0  0  0  0  0  0  0  0  0  0  0
   15.7869   -8.7189  -16.4393 C   0  0  0  0  0  0  0  0  0  0  0  0
   16.6158   -9.9174  -16.0585 C   0  0  2  0  0  0  0  0  0  0  0  0
   15.8285  -10.7393  -15.1634 N   0  0  0  0  0  0  0  0  0  0  0  0
   17.9059   -9.5863  -15.4388 C   0  0  0  0  0  0  0  0  0  0  0  0
   17.9798   -9.5106  -14.1742 O   0  0  0  0  0  0  0  0  0  0  0  0
   22.7840   -9.3066  -15.3214 C   0  0  0  0  0  0  0  0  0  0  0  0
   21.5137   -9.6987  -16.0384 C   0  0  1  0  0  0  0  0  0  0  0  0
   21.3771  -11.0838  -15.9933 O   0  0  0  0  0  0  0  0  0  0  0  0
   20.3287   -8.9944  -15.4392 C   0  0  2  0  0  0  0  0  0  0  0  0
   19.1032   -9.3382  -16.1492 N   0  0  0  0  0  0  0  0  0  0  0  0
   20.5384   -7.5339  -15.6017 C   0  0  0  0  0  0  0  0  0  0  0  0
   20.0828   -6.9164  -16.5951 O   0  0  0  0  0  0  0  0  0  0  0  0
   21.2630   -6.7630  -14.6438 N   0  0  0  0  0  0  0  0  0  0  0  0
   21.3014   -5.3115  -14.6972 C   0  0  1  0  0  0  0  0  0  0  0  0
   19.8987   -4.7958  -14.6447 C   0  0  0  0  0  0  0  0  0  0  0  0
   19.8274   -3.2896  -14.5446 C   0  0  0  0  0  0  0  0  0  0  0  0
   19.3790   -2.7832  -15.8557 C   0  0  0  0  0  0  0  0  0  0  0  0
   19.9866   -1.8346  -16.3884 O   0  0  0  0  0  0  0  0  0  0  0  0
   22.1864   -4.7423  -13.6810 C   0  0  0  0  0  0  0  0  0  0  0  0
   22.5767   -5.4412  -12.5559 O   0  0  0  0  0  0  0  0  0  0  0  0
   18.3014   -3.3501  -16.4868 O   0  0  0  0  0  0  0  0  0  0  0  0
   22.6160   -3.5743  -13.8231 O   0  0  0  0  0  0  0  0  0  0  0  0
  2  1  1  0
  3  4  1  1
  3  2  1  0
  5  3  1  0
  6  5  2  0
  8  7  1  1
  8 10  1  0
  9  8  1  0
 10 12  1  0
 10 11  1  6
 11  5  1  0
 12 14  1  0
 13 12  2  0
 14 15  1  0
 15 20  1  0
 15 16  1  1
 16 17  1  0
 18 17  1  0
 18 22  1  0
 19 18  2  0
 20 23  2  0
 20 21  1  0
M  END
$$$$
