STE.pdb
     RDKit          3D

 23 22  0  0  1  0  0  0  0  0999 V2000
   19.5155  -11.0837  -21.2809 O   0  0  0  0  0  0  0  0  0  0  0  0
   19.3140  -10.4215  -20.0796 C   0  0  0  0  0  0  0  0  0  0  0  0
   19.8990  -11.1873  -18.9221 C   0  0  2  0  0  0  0  0  0  0  0  0
   19.1009  -12.3796  -18.7260 N   0  0  0  0  0  0  0  0  0  0  0  0
   19.9803  -10.4211  -17.6713 C   0  0  0  0  0  0  0  0  0  0  0  0
   18.9786  -10.4065  -16.8923 O   0  0  0  0  0  0  0  0  0  0  0  0
   21.7761  -11.0396  -14.6763 C   0  0  0  0  0  0  0  0  0  0  0  0
   22.1555   -9.6254  -15.0473 C   0  0  1  0  0  0  0  0  0  0  0  0
   23.4190   -9.6341  -15.6325 O   0  0  0  0  0  0  0  0  0  0  0  0
   21.1186   -9.0191  -15.9511 C   0  0  2  0  0  0  0  0  0  0  0  0
   21.1083   -9.6794  -17.2504 N   0  0  0  0  0  0  0  0  0  0  0  0
   21.4891   -7.6000  -16.1797 C   0  0  0  0  0  0  0  0  0  0  0  0
   22.1180   -7.2478  -17.2075 O   0  0  0  0  0  0  0  0  0  0  0  0
   21.1515   -6.5713  -15.2498 N   0  0  0  0  0  0  0  0  0  0  0  0
   21.5204   -5.1838  -15.4727 C   0  0  1  0  0  0  0  0  0  0  0  0
   20.2771   -4.3978  -15.7423 C   0  0  0  0  0  0  0  0  0  0  0  0
   20.5465   -2.9292  -15.9751 C   0  0  0  0  0  0  0  0  0  0  0  0
   19.2411   -2.2676  -16.1618 C   0  0  0  0  0  0  0  0  0  0  0  0
   18.8201   -1.4824  -15.2907 O   0  0  0  0  0  0  0  0  0  0  0  0
   22.3437   -4.6478  -14.3888 C   0  0  0  0  0  0  0  0  0  0  0  0
   23.2336   -3.6081  -14.5724 O   0  0  0  0  0  0  0  0  0  0  0  0
   18.4934   -2.5127  -17.2851 O   0  0  0  0  0  0  0  0  0  0  0  0
   22.2488   -5.1417  -13.2416 O   0  0  0  0  0  0  0  0  0  0  0  0
  2  1  1  0
  3  4  1  1
  3  2  1  0
  5  3  1  0
  6  5  2  0
  8  7  1  6
  8 10  1  0
  9  8  1  0
 10 12  1  0
 10 11  1  6
 11  5  1  0
 12 14  1  0
 13 12  2  0
 14 15  1  0
 15 20  1  0
 15 16  1  1
 16 17  1  0
 18 17  1  0
 18 22  1  0
 19 18  2  0
 20 23  2  0
 20 21  1  0
M  END
$$$$
