STE.pdb
     RDKit          3D

 23 22  0  0  1  0  0  0  0  0999 V2000
   12.3851  -10.0812  -12.5335 O   0  0  0  0  0  0  0  0  0  0  0  0
   13.6591   -9.8463  -13.0275 C   0  0  0  0  0  0  0  0  0  0  0  0
   14.7020  -10.6015  -12.2462 C   0  0  2  0  0  0  0  0  0  0  0  0
   14.7347  -10.0592  -10.9039 N   0  0  0  0  0  0  0  0  0  0  0  0
   16.0452  -10.5642  -12.8401 C   0  0  0  0  0  0  0  0  0  0  0  0
   16.9801  -11.2223  -12.2896 O   0  0  0  0  0  0  0  0  0  0  0  0
   16.7261  -10.3823  -16.7491 C   0  0  0  0  0  0  0  0  0  0  0  0
   17.7960  -10.7846  -15.7617 C   0  0  1  0  0  0  0  0  0  0  0  0
   19.0365  -10.7343  -16.3923 O   0  0  0  0  0  0  0  0  0  0  0  0
   17.7467   -9.9081  -14.5415 C   0  0  2  0  0  0  0  0  0  0  0  0
   16.3941   -9.8390  -14.0029 N   0  0  0  0  0  0  0  0  0  0  0  0
   18.1289   -8.5341  -14.9534 C   0  0  0  0  0  0  0  0  0  0  0  0
   17.2827   -7.7357  -15.4249 O   0  0  0  0  0  0  0  0  0  0  0  0
   19.4678   -8.0544  -14.8351 N   0  0  0  0  0  0  0  0  0  0  0  0
   19.8181   -6.6757  -15.1309 C   0  0  1  0  0  0  0  0  0  0  0  0
   20.7682   -6.1904  -14.0830 C   0  0  0  0  0  0  0  0  0  0  0  0
   21.1196   -4.7286  -14.2367 C   0  0  0  0  0  0  0  0  0  0  0  0
   21.9990   -4.3675  -13.1086 C   0  0  0  0  0  0  0  0  0  0  0  0
   22.4135   -3.1971  -13.0030 O   0  0  0  0  0  0  0  0  0  0  0  0
   20.3024   -6.5082  -16.5011 C   0  0  0  0  0  0  0  0  0  0  0  0
   20.1323   -5.3383  -17.2144 O   0  0  0  0  0  0  0  0  0  0  0  0
   22.3600   -5.3107  -12.1808 O   0  0  0  0  0  0  0  0  0  0  0  0
   20.8976   -7.4559  -17.0638 O   0  0  0  0  0  0  0  0  0  0  0  0
  2  1  1  0
  3  4  1  1
  3  2  1  0
  5  3  1  0
  6  5  2  0
  8  7  1  6
  8 10  1  0
  9  8  1  0
 10 12  1  0
 10 11  1  6
 11  5  1  0
 12 14  1  0
 13 12  2  0
 14 15  1  0
 15 20  1  0
 15 16  1  1
 16 17  1  0
 18 17  1  0
 18 22  1  0
 19 18  2  0
 20 23  2  0
 20 21  1  0
M  END
$$$$
