STE.pdb
     RDKit          3D

 23 22  0  0  1  0  0  0  0  0999 V2000
   16.8899  -14.7689  -15.8064 O   0  0  0  0  0  0  0  0  0  0  0  0
   16.9273  -13.4639  -16.2732 C   0  0  0  0  0  0  0  0  0  0  0  0
   18.3177  -12.8898  -16.1967 C   0  0  2  0  0  0  0  0  0  0  0  0
   18.8563  -13.1960  -14.8880 N   0  0  0  0  0  0  0  0  0  0  0  0
   18.3879  -11.4440  -16.4476 C   0  0  0  0  0  0  0  0  0  0  0  0
   18.4818  -11.0307  -17.6437 O   0  0  0  0  0  0  0  0  0  0  0  0
   15.8507   -8.7509  -15.7631 C   0  0  0  0  0  0  0  0  0  0  0  0
   17.1594   -8.3473  -15.1262 C   0  0  1  0  0  0  0  0  0  0  0  0
   17.1069   -8.6311  -13.7640 O   0  0  0  0  0  0  0  0  0  0  0  0
   18.3117   -9.0360  -15.8027 C   0  0  2  0  0  0  0  0  0  0  0  0
   18.3592  -10.4479  -15.4442 N   0  0  0  0  0  0  0  0  0  0  0  0
   19.5658   -8.4129  -15.3103 C   0  0  0  0  0  0  0  0  0  0  0  0
   20.2778   -8.9773  -14.4441 O   0  0  0  0  0  0  0  0  0  0  0  0
   20.0227   -7.1499  -15.7930 N   0  0  0  0  0  0  0  0  0  0  0  0
   21.2503   -6.5416  -15.3093 C   0  0  1  0  0  0  0  0  0  0  0  0
   21.6440   -5.4493  -16.2517 C   0  0  0  0  0  0  0  0  0  0  0  0
   22.9343   -4.7677  -15.8586 C   0  0  0  0  0  0  0  0  0  0  0  0
   23.1558   -3.6638  -16.8119 C   0  0  0  0  0  0  0  0  0  0  0  0
   23.5761   -3.9163  -17.9574 O   0  0  0  0  0  0  0  0  0  0  0  0
   21.1468   -6.1185  -13.9128 C   0  0  0  0  0  0  0  0  0  0  0  0
   22.2235   -6.1296  -13.0485 O   0  0  0  0  0  0  0  0  0  0  0  0
   22.9020   -2.3674  -16.4433 O   0  0  0  0  0  0  0  0  0  0  0  0
   20.0429   -5.7277  -13.4682 O   0  0  0  0  0  0  0  0  0  0  0  0
  2  1  1  0
  3  4  1  1
  3  2  1  0
  5  3  1  0
  6  5  2  0
  8  7  1  6
  8 10  1  0
  9  8  1  0
 10 12  1  0
 10 11  1  1
 11  5  1  0
 12 14  1  0
 13 12  2  0
 14 15  1  0
 15 20  1  0
 15 16  1  6
 16 17  1  0
 18 17  1  0
 18 22  1  0
 19 18  2  0
 20 23  2  0
 20 21  1  0
M  END
$$$$
