STE.pdb
     RDKit          3D

 23 22  0  0  1  0  0  0  0  0999 V2000
   17.2425  -14.8142  -14.3491 O   0  0  0  0  0  0  0  0  0  0  0  0
   16.2048  -14.2317  -13.6376 C   0  0  0  0  0  0  0  0  0  0  0  0
   15.2198  -13.5539  -14.5535 C   0  0  2  0  0  0  0  0  0  0  0  0
   14.7037  -14.5492  -15.4701 N   0  0  0  0  0  0  0  0  0  0  0  0
   15.7742  -12.4169  -15.3005 C   0  0  0  0  0  0  0  0  0  0  0  0
   16.2493  -12.6154  -16.4604 O   0  0  0  0  0  0  0  0  0  0  0  0
   14.1749   -9.1490  -16.4723 C   0  0  0  0  0  0  0  0  0  0  0  0
   15.4220   -8.8364  -15.6795 C   0  0  1  0  0  0  0  0  0  0  0  0
   15.0556   -8.4446  -14.3945 O   0  0  0  0  0  0  0  0  0  0  0  0
   16.3509  -10.0182  -15.6664 C   0  0  2  0  0  0  0  0  0  0  0  0
   15.8252  -11.0860  -14.8253 N   0  0  0  0  0  0  0  0  0  0  0  0
   17.6370   -9.5785  -15.0698 C   0  0  0  0  0  0  0  0  0  0  0  0
   17.9234   -9.8363  -13.8751 O   0  0  0  0  0  0  0  0  0  0  0  0
   18.6064   -8.8459  -15.8185 N   0  0  0  0  0  0  0  0  0  0  0  0
   19.8713   -8.4301  -15.2371 C   0  0  1  0  0  0  0  0  0  0  0  0
   20.9365   -8.5477  -16.2802 C   0  0  0  0  0  0  0  0  0  0  0  0
   22.3174   -8.2370  -15.7507 C   0  0  0  0  0  0  0  0  0  0  0  0
   23.2572   -8.3509  -16.8822 C   0  0  0  0  0  0  0  0  0  0  0  0
   24.1601   -9.2089  -16.8470 O   0  0  0  0  0  0  0  0  0  0  0  0
   19.7878   -7.1093  -14.6138 C   0  0  0  0  0  0  0  0  0  0  0  0
   20.6501   -6.6995  -13.6163 O   0  0  0  0  0  0  0  0  0  0  0  0
   23.1410   -7.5198  -17.9670 O   0  0  0  0  0  0  0  0  0  0  0  0
   18.9030   -6.3062  -14.9895 O   0  0  0  0  0  0  0  0  0  0  0  0
  2  1  1  0
  3  4  1  6
  3  2  1  0
  5  3  1  0
  6  5  2  0
  8  7  1  6
  8 10  1  0
  9  8  1  0
 10 12  1  0
 10 11  1  1
 11  5  1  0
 12 14  1  0
 13 12  2  0
 14 15  1  0
 15 20  1  0
 15 16  1  6
 16 17  1  0
 18 17  1  0
 18 22  1  0
 19 18  2  0
 20 23  2  0
 20 21  1  0
M  END
$$$$
