SQY.pdb
     RDKit          3D

 28 28  0  0  1  0  0  0  0  0999 V2000
   10.1979  -17.1568   19.4150 O   0  0  0  0  0  0  0  0  0  0  0  0
    9.1129  -16.9833   18.5815 C   0  0  0  0  0  0  0  0  0  0  0  0
    7.9137  -17.8172   19.0081 C   0  0  2  0  0  0  0  0  0  0  0  0
    6.8208  -17.6601   18.0991 N   0  0  0  0  0  0  0  0  0  0  0  0
    7.5701  -17.4396   20.3994 C   0  0  0  0  0  0  0  0  0  0  0  0
    6.9186  -16.3787   20.5738 O   0  0  0  0  0  0  0  0  0  0  0  0
    6.3839  -21.4371   24.8724 N   0  0  0  0  0  0  0  0  0  0  0  0
    6.3950  -20.2189   25.5895 C   0  0  0  0  0  0  0  0  0  0  0  0
    6.0304  -20.2475   26.7893 O   0  0  0  0  0  0  0  0  0  0  0  0
    6.8098  -18.9235   25.0065 C   0  0  0  0  0  0  0  0  0  0  0  0
    7.1178  -19.0926   23.5598 C   0  0  0  0  0  0  0  0  0  0  0  0
    7.5316  -17.8250   22.8629 C   0  0  2  0  0  0  0  0  0  0  0  0
    7.9373  -18.2073   21.5129 N   0  0  0  0  0  0  0  0  0  0  0  0
    8.6580  -17.1313   23.4956 C   0  0  0  0  0  0  0  0  0  0  0  0
    9.8523  -17.5677   23.4377 O   0  0  0  0  0  0  0  0  0  0  0  0
    4.9441  -11.6858   27.4267 O   0  0  0  0  0  0  0  0  0  0  0  0
    6.0513  -12.2032   26.7334 C   0  0  0  0  0  0  0  0  0  0  0  0
    7.2912  -12.1528   27.3267 C   0  0  0  0  0  0  0  0  0  0  0  0
    8.3784  -12.6482   26.6737 C   0  0  0  0  0  0  0  0  0  0  0  0
    8.2621  -13.2045   25.4187 C   0  0  0  0  0  0  0  0  0  0  0  0
    9.4437  -13.7361   24.7217 C   0  0  0  0  0  0  0  0  0  0  0  0
    9.5725  -15.2104   24.8622 C   0  0  2  0  0  0  0  0  0  0  0  0
    8.4832  -15.9240   24.2152 N   0  0  0  0  0  0  0  0  0  0  0  0
    9.7505  -15.6708   26.2602 C   0  0  0  0  0  0  0  0  0  0  0  0
    8.9110  -16.5479   26.9085 O   0  0  0  0  0  0  0  0  0  0  0  0
    7.0108  -13.2462   24.8401 C   0  0  0  0  0  0  0  0  0  0  0  0
    5.9062  -12.7559   25.4753 C   0  0  0  0  0  0  0  0  0  0  0  0
   10.7386  -15.2428   26.9378 O   0  0  0  0  0  0  0  0  0  0  0  0
  1  2  1  0
  3  4  1  6
  3  2  1  0
  5  3  1  0
  6  5  2  0
  8 10  1  0
  8  7  1  0
  9  8  2  0
 11 10  1  0
 12 11  1  1
 12 13  1  0
 13  5  1  0
 14 12  1  0
 14 15  2  0
 16 17  1  0
 17 18  2  0
 18 19  1  0
 20 19  2  0
 20 21  1  0
 22 21  1  1
 22 23  1  0
 23 14  1  0
 24 22  1  0
 25 24  1  0
 26 20  1  0
 27 17  1  0
 27 26  2  0
 28 24  2  0
M  END
$$$$
