SQY.pdb
     RDKit          3D

 28 28  0  0  1  0  0  0  0  0999 V2000
    8.7111  -15.0347   16.2992 O   0  0  0  0  0  0  0  0  0  0  0  0
    9.8443  -15.7895   16.0794 C   0  0  0  0  0  0  0  0  0  0  0  0
    9.5830  -17.2824   16.2150 C   0  0  2  0  0  0  0  0  0  0  0  0
    8.5538  -17.7139   15.3208 N   0  0  0  0  0  0  0  0  0  0  0  0
    9.2709  -17.5612   17.6368 C   0  0  0  0  0  0  0  0  0  0  0  0
    8.0603  -17.6016   17.9729 O   0  0  0  0  0  0  0  0  0  0  0  0
   12.1751  -21.7321   20.7199 N   0  0  0  0  0  0  0  0  0  0  0  0
   10.9119  -21.8360   20.0937 C   0  0  0  0  0  0  0  0  0  0  0  0
   10.5065  -22.9834   19.7899 O   0  0  0  0  0  0  0  0  0  0  0  0
   10.0500  -20.6747   19.7802 C   0  0  0  0  0  0  0  0  0  0  0  0
   10.6877  -19.4215   20.2695 C   0  0  0  0  0  0  0  0  0  0  0  0
    9.9058  -18.1715   19.9698 C   0  0  2  0  0  0  0  0  0  0  0  0
   10.2577  -17.7787   18.6078 N   0  0  0  0  0  0  0  0  0  0  0  0
   10.2085  -17.0454   20.8592 C   0  0  0  0  0  0  0  0  0  0  0  0
   11.2378  -16.3115   20.7106 O   0  0  0  0  0  0  0  0  0  0  0  0
    7.1720  -12.8921   17.5790 O   0  0  0  0  0  0  0  0  0  0  0  0
    7.5175  -13.3035   18.8773 C   0  0  0  0  0  0  0  0  0  0  0  0
    6.6647  -14.1394   19.5599 C   0  0  0  0  0  0  0  0  0  0  0  0
    6.9787  -14.5510   20.8191 C   0  0  0  0  0  0  0  0  0  0  0  0
    8.1442  -14.1440   21.4306 C   0  0  0  0  0  0  0  0  0  0  0  0
    8.4733  -14.5942   22.7921 C   0  0  0  0  0  0  0  0  0  0  0  0
    9.6013  -15.5621   22.8149 C   0  0  2  0  0  0  0  0  0  0  0  0
    9.3668  -16.7041   21.9458 N   0  0  0  0  0  0  0  0  0  0  0  0
    9.9912  -16.0036   24.1754 C   0  0  0  0  0  0  0  0  0  0  0  0
   10.5053  -15.1779   25.1492 O   0  0  0  0  0  0  0  0  0  0  0  0
    8.9867  -13.3060   20.7305 C   0  0  0  0  0  0  0  0  0  0  0  0
    8.6932  -12.8800   19.4671 C   0  0  0  0  0  0  0  0  0  0  0  0
    9.8554  -17.2268   24.4982 O   0  0  0  0  0  0  0  0  0  0  0  0
  1  2  1  0
  3  4  1  6
  3  2  1  0
  5  3  1  0
  6  5  2  0
  8 10  1  0
  8  7  1  0
  9  8  2  0
 11 10  1  0
 12 11  1  1
 12 13  1  0
 13  5  1  0
 14 12  1  0
 14 15  2  0
 16 17  1  0
 17 18  2  0
 18 19  1  0
 20 19  2  0
 20 21  1  0
 22 21  1  1
 22 23  1  0
 23 14  1  0
 24 22  1  0
 25 24  1  0
 26 20  1  0
 27 17  1  0
 27 26  2  0
 28 24  2  0
M  END
$$$$
