SQY.pdb
     RDKit          3D

 28 28  0  0  1  0  0  0  0  0999 V2000
   10.4857  -14.5736   17.7587 O   0  0  0  0  0  0  0  0  0  0  0  0
    9.4894  -15.4429   17.3667 C   0  0  0  0  0  0  0  0  0  0  0  0
    8.1053  -14.9641   17.7796 C   0  0  2  0  0  0  0  0  0  0  0  0
    7.7848  -13.7109   17.1698 N   0  0  0  0  0  0  0  0  0  0  0  0
    8.0647  -14.9161   19.2604 C   0  0  0  0  0  0  0  0  0  0  0  0
    7.9921  -13.7866   19.8073 O   0  0  0  0  0  0  0  0  0  0  0  0
    4.3949  -18.2068   22.4553 N   0  0  0  0  0  0  0  0  0  0  0  0
    5.5676  -18.8981   22.0743 C   0  0  0  0  0  0  0  0  0  0  0  0
    5.5287  -20.1518   22.0727 O   0  0  0  0  0  0  0  0  0  0  0  0
    6.8273  -18.2287   21.6807 C   0  0  0  0  0  0  0  0  0  0  0  0
    6.6933  -16.7552   21.8467 C   0  0  0  0  0  0  0  0  0  0  0  0
    7.9382  -15.9791   21.5126 C   0  0  2  0  0  0  0  0  0  0  0  0
    8.1034  -16.0637   20.0639 N   0  0  0  0  0  0  0  0  0  0  0  0
    9.1575  -16.4997   22.1394 C   0  0  0  0  0  0  0  0  0  0  0  0
    9.6174  -17.6592   21.8863 O   0  0  0  0  0  0  0  0  0  0  0  0
    6.0344  -11.4106   28.2352 O   0  0  0  0  0  0  0  0  0  0  0  0
    6.5202  -12.1504   27.1439 C   0  0  0  0  0  0  0  0  0  0  0  0
    7.0255  -13.4103   27.3657 C   0  0  0  0  0  0  0  0  0  0  0  0
    7.5017  -14.1455   26.3234 C   0  0  0  0  0  0  0  0  0  0  0  0
    7.4882  -13.6496   25.0381 C   0  0  0  0  0  0  0  0  0  0  0  0
    8.0062  -14.4523   23.9192 C   0  0  0  0  0  0  0  0  0  0  0  0
    9.3130  -15.0883   24.2316 C   0  0  2  0  0  0  0  0  0  0  0  0
    9.9027  -15.7372   23.0716 N   0  0  0  0  0  0  0  0  0  0  0  0
    9.2740  -16.0110   25.3914 C   0  0  0  0  0  0  0  0  0  0  0  0
    8.4979  -17.1454   25.4637 O   0  0  0  0  0  0  0  0  0  0  0  0
    6.9777  -12.3845   24.8354 C   0  0  0  0  0  0  0  0  0  0  0  0
    6.4946  -11.6285   25.8646 C   0  0  0  0  0  0  0  0  0  0  0  0
    9.9960  -15.7652   26.4098 O   0  0  0  0  0  0  0  0  0  0  0  0
  1  2  1  0
  3  4  1  6
  3  2  1  0
  5  3  1  0
  6  5  2  0
  8 10  1  0
  8  7  1  0
  9  8  2  0
 11 10  1  0
 12 11  1  1
 12 13  1  0
 13  5  1  0
 14 12  1  0
 14 15  2  0
 16 17  1  0
 17 18  2  0
 18 19  1  0
 20 19  2  0
 20 21  1  0
 22 21  1  6
 22 23  1  0
 23 14  1  0
 24 22  1  0
 25 24  1  0
 26 20  1  0
 27 17  1  0
 27 26  2  0
 28 24  2  0
M  END
$$$$
