SQY.pdb
     RDKit          3D

 28 28  0  0  1  0  0  0  0  0999 V2000
   11.3603  -20.3560   22.5910 O   0  0  0  0  0  0  0  0  0  0  0  0
   10.9022  -20.2615   21.2935 C   0  0  0  0  0  0  0  0  0  0  0  0
   11.6710  -19.2307   20.4799 C   0  0  2  0  0  0  0  0  0  0  0  0
   13.0701  -19.5258   20.4547 N   0  0  0  0  0  0  0  0  0  0  0  0
   11.3701  -17.8928   21.0418 C   0  0  0  0  0  0  0  0  0  0  0  0
   12.3019  -17.2780   21.6197 O   0  0  0  0  0  0  0  0  0  0  0  0
    6.2140  -13.2420   20.2134 N   0  0  0  0  0  0  0  0  0  0  0  0
    7.6261  -13.2613   20.1512 C   0  0  0  0  0  0  0  0  0  0  0  0
    8.1733  -12.6791   19.1844 O   0  0  0  0  0  0  0  0  0  0  0  0
    8.4859  -13.9253   21.1561 C   0  0  0  0  0  0  0  0  0  0  0  0
    8.9001  -15.2678   20.6633 C   0  0  0  0  0  0  0  0  0  0  0  0
    9.8354  -16.0035   21.5840 C   0  0  2  0  0  0  0  0  0  0  0  0
   10.1060  -17.2939   20.9557 N   0  0  0  0  0  0  0  0  0  0  0  0
    9.2881  -16.2558   22.9209 C   0  0  0  0  0  0  0  0  0  0  0  0
    8.4091  -17.1487   23.1448 O   0  0  0  0  0  0  0  0  0  0  0  0
    5.9305  -10.4816   26.8797 O   0  0  0  0  0  0  0  0  0  0  0  0
    6.3845  -11.7687   26.5461 C   0  0  0  0  0  0  0  0  0  0  0  0
    6.1051  -12.2700   25.2960 C   0  0  0  0  0  0  0  0  0  0  0  0
    6.5349  -13.5149   24.9506 C   0  0  0  0  0  0  0  0  0  0  0  0
    7.2510  -14.2912   25.8353 C   0  0  0  0  0  0  0  0  0  0  0  0
    7.7098  -15.6354   25.4519 C   0  0  0  0  0  0  0  0  0  0  0  0
    9.1918  -15.7363   25.3936 C   0  0  2  0  0  0  0  0  0  0  0  0
    9.7081  -15.5149   24.0524 N   0  0  0  0  0  0  0  0  0  0  0  0
    9.7352  -16.9896   25.9698 C   0  0  0  0  0  0  0  0  0  0  0  0
    9.3141  -18.2549   25.6293 O   0  0  0  0  0  0  0  0  0  0  0  0
    7.5214  -13.7716   27.0839 C   0  0  0  0  0  0  0  0  0  0  0  0
    7.1010  -12.5262   27.4530 C   0  0  0  0  0  0  0  0  0  0  0  0
   10.6563  -16.9267   26.8453 O   0  0  0  0  0  0  0  0  0  0  0  0
  1  2  1  0
  3  4  1  1
  3  2  1  0
  5  3  1  0
  6  5  2  0
  8 10  1  0
  8  7  1  0
  9  8  2  0
 11 10  1  0
 12 11  1  6
 12 13  1  0
 13  5  1  0
 14 12  1  0
 14 15  2  0
 16 17  1  0
 17 18  2  0
 18 19  1  0
 20 19  2  0
 20 21  1  0
 22 21  1  6
 22 23  1  0
 23 14  1  0
 24 22  1  0
 25 24  1  0
 26 20  1  0
 27 17  1  0
 27 26  2  0
 28 24  2  0
M  END
$$$$
