SQY.pdb
     RDKit          3D

 28 28  0  0  1  0  0  0  0  0999 V2000
    4.8396  -17.3543   24.5125 O   0  0  0  0  0  0  0  0  0  0  0  0
    5.6303  -18.1033   23.6664 C   0  0  0  0  0  0  0  0  0  0  0  0
    5.5525  -17.6253   22.2238 C   0  0  2  0  0  0  0  0  0  0  0  0
    4.8913  -18.5833   21.3931 N   0  0  0  0  0  0  0  0  0  0  0  0
    6.9304  -17.3186   21.7724 C   0  0  0  0  0  0  0  0  0  0  0  0
    7.6089  -18.2578   21.2849 O   0  0  0  0  0  0  0  0  0  0  0  0
    8.7462  -12.3461   18.8479 N   0  0  0  0  0  0  0  0  0  0  0  0
    8.2457  -13.5798   18.3727 C   0  0  0  0  0  0  0  0  0  0  0  0
    7.7777  -13.6077   17.2093 O   0  0  0  0  0  0  0  0  0  0  0  0
    8.2442  -14.8288   19.1663 C   0  0  0  0  0  0  0  0  0  0  0  0
    8.7943  -14.5684   20.5250 C   0  0  0  0  0  0  0  0  0  0  0  0
    8.8622  -15.7842   21.4087 C   0  0  2  0  0  0  0  0  0  0  0  0
    7.4991  -16.0411   21.8660 N   0  0  0  0  0  0  0  0  0  0  0  0
    9.7142  -15.6211   22.5911 C   0  0  0  0  0  0  0  0  0  0  0  0
   10.9579  -15.3634   22.5100 O   0  0  0  0  0  0  0  0  0  0  0  0
    4.5880  -12.6577   26.2724 O   0  0  0  0  0  0  0  0  0  0  0  0
    5.9135  -13.1158   26.1860 C   0  0  0  0  0  0  0  0  0  0  0  0
    6.7080  -12.6649   25.1577 C   0  0  0  0  0  0  0  0  0  0  0  0
    7.9956  -13.0952   25.0539 C   0  0  0  0  0  0  0  0  0  0  0  0
    8.5251  -13.9816   25.9660 C   0  0  0  0  0  0  0  0  0  0  0  0
    9.9176  -14.4408   25.8438 C   0  0  0  0  0  0  0  0  0  0  0  0
   10.0316  -15.7214   25.0977 C   0  0  2  0  0  0  0  0  0  0  0  0
    9.1998  -15.7417   23.9052 N   0  0  0  0  0  0  0  0  0  0  0  0
    9.7967  -16.9272   25.9276 C   0  0  0  0  0  0  0  0  0  0  0  0
    8.8806  -17.9121   25.6359 O   0  0  0  0  0  0  0  0  0  0  0  0
    7.7133  -14.4225   26.9900 C   0  0  0  0  0  0  0  0  0  0  0  0
    6.4193  -14.0052   27.1148 C   0  0  0  0  0  0  0  0  0  0  0  0
   10.4719  -17.0936   26.9930 O   0  0  0  0  0  0  0  0  0  0  0  0
  1  2  1  0
  3  4  1  6
  3  2  1  0
  5  3  1  0
  6  5  2  0
  8 10  1  0
  8  7  1  0
  9  8  2  0
 11 10  1  0
 12 11  1  6
 12 13  1  0
 13  5  1  0
 14 12  1  0
 14 15  2  0
 16 17  1  0
 17 18  2  0
 18 19  1  0
 20 19  2  0
 20 21  1  0
 22 21  1  1
 22 23  1  0
 23 14  1  0
 24 22  1  0
 25 24  1  0
 26 20  1  0
 27 17  1  0
 27 26  2  0
 28 24  2  0
M  END
$$$$
