SQY.pdb
     RDKit          3D

 28 28  0  0  1  0  0  0  0  0999 V2000
    8.7811  -15.7599   16.2200 O   0  0  0  0  0  0  0  0  0  0  0  0
    7.8243  -16.7051   15.9149 C   0  0  0  0  0  0  0  0  0  0  0  0
    8.2183  -18.1004   16.3769 C   0  0  2  0  0  0  0  0  0  0  0  0
    7.3167  -19.0894   15.8728 N   0  0  0  0  0  0  0  0  0  0  0  0
    8.2934  -18.0842   17.8569 C   0  0  0  0  0  0  0  0  0  0  0  0
    7.2135  -18.0156   18.4967 O   0  0  0  0  0  0  0  0  0  0  0  0
    7.7827  -21.6647   21.6366 N   0  0  0  0  0  0  0  0  0  0  0  0
    9.1324  -21.3543   21.3532 C   0  0  0  0  0  0  0  0  0  0  0  0
    9.9848  -21.6066   22.2380 O   0  0  0  0  0  0  0  0  0  0  0  0
    9.5898  -20.7532   20.0807 C   0  0  0  0  0  0  0  0  0  0  0  0
   10.3121  -19.4796   20.3507 C   0  0  0  0  0  0  0  0  0  0  0  0
    9.5264  -18.2402   20.0189 C   0  0  2  0  0  0  0  0  0  0  0  0
    9.5033  -18.1415   18.5618 N   0  0  0  0  0  0  0  0  0  0  0  0
   10.1060  -17.0014   20.5482 C   0  0  0  0  0  0  0  0  0  0  0  0
   10.2819  -15.9651   19.8305 O   0  0  0  0  0  0  0  0  0  0  0  0
    7.1156  -11.9839   18.6124 O   0  0  0  0  0  0  0  0  0  0  0  0
    7.5527  -12.8230   19.6511 C   0  0  0  0  0  0  0  0  0  0  0  0
    6.6975  -13.7865   20.1332 C   0  0  0  0  0  0  0  0  0  0  0  0
    7.0994  -14.6110   21.1394 C   0  0  0  0  0  0  0  0  0  0  0  0
    8.3570  -14.4999   21.6908 C   0  0  0  0  0  0  0  0  0  0  0  0
    8.7806  -15.3955   22.7784 C   0  0  0  0  0  0  0  0  0  0  0  0
   10.2314  -15.7145   22.7211 C   0  0  2  0  0  0  0  0  0  0  0  0
   10.5080  -16.8829   21.9010 N   0  0  0  0  0  0  0  0  0  0  0  0
   10.8762  -15.8361   24.0506 C   0  0  0  0  0  0  0  0  0  0  0  0
   11.6644  -14.8679   24.6300 O   0  0  0  0  0  0  0  0  0  0  0  0
    9.2003  -13.5280   21.1944 C   0  0  0  0  0  0  0  0  0  0  0  0
    8.8198  -12.6898   20.1861 C   0  0  0  0  0  0  0  0  0  0  0  0
   10.7109  -16.8990   24.7302 O   0  0  0  0  0  0  0  0  0  0  0  0
  1  2  1  0
  3  4  1  1
  3  2  1  0
  5  3  1  0
  6  5  2  0
  8 10  1  0
  8  7  1  0
  9  8  2  0
 11 10  1  0
 12 11  1  6
 12 13  1  0
 13  5  1  0
 14 12  1  0
 14 15  2  0
 16 17  1  0
 17 18  2  0
 18 19  1  0
 20 19  2  0
 20 21  1  0
 22 21  1  1
 22 23  1  0
 23 14  1  0
 24 22  1  0
 25 24  1  0
 26 20  1  0
 27 17  1  0
 27 26  2  0
 28 24  2  0
M  END
$$$$
