SQY.pdb
     RDKit          3D

 28 28  0  0  1  0  0  0  0  0999 V2000
    8.1611  -16.2608   20.0864 O   0  0  0  0  0  0  0  0  0  0  0  0
    6.8176  -16.0764   19.8353 C   0  0  0  0  0  0  0  0  0  0  0  0
    5.9578  -17.1789   20.4360 C   0  0  2  0  0  0  0  0  0  0  0  0
    4.5803  -17.0114   20.0902 N   0  0  0  0  0  0  0  0  0  0  0  0
    6.1915  -17.1902   21.8995 C   0  0  0  0  0  0  0  0  0  0  0  0
    5.6139  -16.3135   22.5909 O   0  0  0  0  0  0  0  0  0  0  0  0
    5.4538  -22.2140   25.7935 N   0  0  0  0  0  0  0  0  0  0  0  0
    6.0688  -21.7241   24.6187 C   0  0  0  0  0  0  0  0  0  0  0  0
    6.7607  -22.5263   23.9471 O   0  0  0  0  0  0  0  0  0  0  0  0
    5.9416  -20.3287   24.1428 C   0  0  0  0  0  0  0  0  0  0  0  0
    7.2069  -19.5870   24.3987 C   0  0  0  0  0  0  0  0  0  0  0  0
    7.1702  -18.1402   23.9871 C   0  0  2  0  0  0  0  0  0  0  0  0
    7.0192  -18.1260   22.5345 N   0  0  0  0  0  0  0  0  0  0  0  0
    8.3833  -17.3884   24.3244 C   0  0  0  0  0  0  0  0  0  0  0  0
    9.2222  -17.0098   23.4453 O   0  0  0  0  0  0  0  0  0  0  0  0
    5.4036  -11.8301   27.4237 O   0  0  0  0  0  0  0  0  0  0  0  0
    6.4942  -12.5726   26.9408 C   0  0  0  0  0  0  0  0  0  0  0  0
    6.3718  -13.2309   25.7392 C   0  0  0  0  0  0  0  0  0  0  0  0
    7.4155  -13.9566   25.2516 C   0  0  0  0  0  0  0  0  0  0  0  0
    8.6038  -14.0466   25.9428 C   0  0  0  0  0  0  0  0  0  0  0  0
    9.7250  -14.8343   25.4071 C   0  0  0  0  0  0  0  0  0  0  0  0
    9.8183  -16.1842   26.0227 C   0  0  2  0  0  0  0  0  0  0  0  0
    8.6967  -17.0354   25.6597 N   0  0  0  0  0  0  0  0  0  0  0  0
   10.0150  -16.1658   27.4921 C   0  0  0  0  0  0  0  0  0  0  0  0
   11.0612  -15.5432   28.1341 O   0  0  0  0  0  0  0  0  0  0  0  0
    8.7077  -13.3798   27.1456 C   0  0  0  0  0  0  0  0  0  0  0  0
    7.6751  -12.6461   27.6547 C   0  0  0  0  0  0  0  0  0  0  0  0
    9.1762  -16.7595   28.2422 O   0  0  0  0  0  0  0  0  0  0  0  0
  1  2  1  0
  3  4  1  1
  3  2  1  0
  5  3  1  0
  6  5  2  0
  8 10  1  0
  8  7  1  0
  9  8  2  0
 11 10  1  0
 12 11  1  6
 12 13  1  0
 13  5  1  0
 14 12  1  0
 14 15  2  0
 16 17  1  0
 17 18  2  0
 18 19  1  0
 20 19  2  0
 20 21  1  0
 22 21  1  1
 22 23  1  0
 23 14  1  0
 24 22  1  0
 25 24  1  0
 26 20  1  0
 27 17  1  0
 27 26  2  0
 28 24  2  0
M  END
$$$$
