SQY.pdb
     RDKit          3D

 28 28  0  0  1  0  0  0  0  0999 V2000
   10.3176  -17.8175   18.4394 O   0  0  0  0  0  0  0  0  0  0  0  0
   11.5010  -18.1792   19.0485 C   0  0  0  0  0  0  0  0  0  0  0  0
   11.3967  -18.1783   20.5666 C   0  0  2  0  0  0  0  0  0  0  0  0
   10.3448  -19.0363   21.0164 N   0  0  0  0  0  0  0  0  0  0  0  0
   11.2292  -16.7738   21.0092 C   0  0  0  0  0  0  0  0  0  0  0  0
   12.1473  -15.9603   20.7341 O   0  0  0  0  0  0  0  0  0  0  0  0
    6.9763  -12.9722   19.8323 N   0  0  0  0  0  0  0  0  0  0  0  0
    6.7775  -14.3133   20.2328 C   0  0  0  0  0  0  0  0  0  0  0  0
    5.6803  -14.8489   19.9458 O   0  0  0  0  0  0  0  0  0  0  0  0
    7.7849  -15.1120   20.9656 C   0  0  0  0  0  0  0  0  0  0  0  0
    8.9845  -14.2782   21.2520 C   0  0  0  0  0  0  0  0  0  0  0  0
    9.9938  -14.9350   22.1542 C   0  0  2  0  0  0  0  0  0  0  0  0
   10.1039  -16.3227   21.7123 N   0  0  0  0  0  0  0  0  0  0  0  0
    9.6198  -14.9389   23.5722 C   0  0  0  0  0  0  0  0  0  0  0  0
    8.9817  -13.9812   24.1158 O   0  0  0  0  0  0  0  0  0  0  0  0
    6.5961  -10.6246   27.1765 O   0  0  0  0  0  0  0  0  0  0  0  0
    6.9647  -11.9442   26.8649 C   0  0  0  0  0  0  0  0  0  0  0  0
    6.0872  -12.7305   26.1552 C   0  0  0  0  0  0  0  0  0  0  0  0
    6.4229  -14.0123   25.8419 C   0  0  0  0  0  0  0  0  0  0  0  0
    7.6349  -14.5440   26.2243 C   0  0  0  0  0  0  0  0  0  0  0  0
    7.9871  -15.9307   25.8811 C   0  0  0  0  0  0  0  0  0  0  0  0
    9.4561  -16.1397   25.7914 C   0  0  2  0  0  0  0  0  0  0  0  0
    9.9491  -16.0175   24.4289 N   0  0  0  0  0  0  0  0  0  0  0  0
    9.9261  -17.4007   26.4133 C   0  0  0  0  0  0  0  0  0  0  0  0
    9.8991  -17.6653   27.7638 O   0  0  0  0  0  0  0  0  0  0  0  0
    8.5015  -13.7404   26.9351 C   0  0  0  0  0  0  0  0  0  0  0  0
    8.1871  -12.4523   27.2609 C   0  0  0  0  0  0  0  0  0  0  0  0
   10.3952  -18.3246   25.6749 O   0  0  0  0  0  0  0  0  0  0  0  0
  1  2  1  0
  3  4  1  6
  3  2  1  0
  5  3  1  0
  6  5  2  0
  8 10  1  0
  8  7  1  0
  9  8  2  0
 11 10  1  0
 12 11  1  6
 12 13  1  0
 13  5  1  0
 14 12  1  0
 14 15  2  0
 16 17  1  0
 17 18  2  0
 18 19  1  0
 20 19  2  0
 20 21  1  0
 22 21  1  6
 22 23  1  0
 23 14  1  0
 24 22  1  0
 25 24  1  0
 26 20  1  0
 27 17  1  0
 27 26  2  0
 28 24  2  0
M  END
$$$$
