YCC.pdb
     RDKit          3D

 25 25  0  0  1  0  0  0  0  0999 V2000
   24.5214  -13.1801  -20.8273 O   0  0  0  0  0  0  0  0  0  0  0  0
   23.6150  -12.2750  -20.2662 C   0  0  0  0  0  0  0  0  0  0  0  0
   24.0941  -11.2272  -19.5211 C   0  0  0  0  0  0  0  0  0  0  0  0
   23.2169  -10.3181  -18.9556 C   0  0  0  0  0  0  0  0  0  0  0  0
   21.8502  -10.4198  -19.1106 C   0  0  0  0  0  0  0  0  0  0  0  0
   20.9398   -9.4246  -18.4884 C   0  0  0  0  0  0  0  0  0  0  0  0
   20.9100   -9.7209  -16.9997 C   0  0  2  0  0  0  0  0  0  0  0  0
   20.3573  -11.0184  -16.7436 N   0  0  0  0  0  0  0  0  0  0  0  0
   20.2840   -8.6453  -16.2259 C   0  0  0  0  0  0  0  0  0  0  0  0
   19.0492   -8.7483  -15.9201 O   0  0  0  0  0  0  0  0  0  0  0  0
   21.3807  -11.4770  -19.8617 C   0  0  0  0  0  0  0  0  0  0  0  0
   22.2533  -12.4013  -20.4379 C   0  0  0  0  0  0  0  0  0  0  0  0
   20.9958   -7.4923  -15.8016 N   0  0  0  0  0  0  0  0  0  0  0  0
   20.2877   -6.4658  -15.0805 C   0  0  1  0  0  0  0  0  0  0  0  0
   19.8346   -6.9844  -13.7126 C   0  0  0  0  0  0  0  0  0  0  0  0
   21.1809   -7.9026  -12.9258 S   0  0  0  0  0  0  0  0  0  0  0  0
   21.1678   -5.2949  -14.7827 C   0  0  0  0  0  0  0  0  0  0  0  0
   22.3170   -5.4713  -14.3066 O   0  0  0  0  0  0  0  0  0  0  0  0
   20.7448   -3.9648  -15.0226 N   0  0  0  0  0  0  0  0  0  0  0  0
   21.5430   -2.7975  -14.8159 C   0  0  1  0  0  0  0  0  0  0  0  0
   21.8447   -2.0882  -16.1278 C   0  0  0  0  0  0  0  0  0  0  0  0
   22.7167   -0.5408  -15.8684 S   0  0  0  0  0  0  0  0  0  0  0  0
   20.9541   -1.8392  -13.8667 C   0  0  0  0  0  0  0  0  0  0  0  0
   21.5768   -0.8778  -13.3889 O   0  0  0  0  0  0  0  0  0  0  0  0
   19.6276   -2.0327  -13.4933 O   0  0  0  0  0  0  0  0  0  0  0  0
  1  2  1  0
  2 12  2  0
  3  4  2  0
  3  2  1  0
  4  5  1  0
  5  6  1  0
  5 11  2  0
  6  7  1  0
  7  9  1  0
  7  8  1  6
  9 10  2  0
 12 11  1  0
 13  9  1  0
 13 14  1  0
 14 17  1  0
 14 15  1  1
 16 15  1  0
 17 18  2  0
 19 17  1  0
 19 20  1  0
 20 23  1  0
 20 21  1  6
 22 21  1  0
 23 24  2  0
 23 25  1  0
M  END
$$$$
