YCC.pdb
     RDKit          3D

 25 25  0  0  1  0  0  0  0  0999 V2000
   29.1539  -19.8958   -3.8596 O   0  0  0  0  0  0  0  0  0  0  0  0
   28.4017  -19.8323   -5.0368 C   0  0  0  0  0  0  0  0  0  0  0  0
   28.7128  -18.8817   -5.9761 C   0  0  0  0  0  0  0  0  0  0  0  0
   27.9829  -18.7989   -7.1493 C   0  0  0  0  0  0  0  0  0  0  0  0
   26.9319  -19.6486   -7.4237 C   0  0  0  0  0  0  0  0  0  0  0  0
   26.1715  -19.5293   -8.6941 C   0  0  0  0  0  0  0  0  0  0  0  0
   26.6557  -20.6416   -9.6069 C   0  0  2  0  0  0  0  0  0  0  0  0
   28.0855  -20.6381   -9.7095 N   0  0  0  0  0  0  0  0  0  0  0  0
   25.9674  -20.6457  -10.9006 C   0  0  0  0  0  0  0  0  0  0  0  0
   26.2487  -19.7337  -11.7479 O   0  0  0  0  0  0  0  0  0  0  0  0
   26.6287  -20.5998   -6.4720 C   0  0  0  0  0  0  0  0  0  0  0  0
   27.3559  -20.6950   -5.2847 C   0  0  0  0  0  0  0  0  0  0  0  0
   24.9996  -21.6241  -11.2505 N   0  0  0  0  0  0  0  0  0  0  0  0
   24.3163  -21.5039  -12.5130 C   0  0  1  0  0  0  0  0  0  0  0  0
   24.8291  -22.5527  -13.5041 C   0  0  0  0  0  0  0  0  0  0  0  0
   26.5944  -22.2989  -13.8102 S   0  0  0  0  0  0  0  0  0  0  0  0
   22.8533  -21.7780  -12.3757 C   0  0  0  0  0  0  0  0  0  0  0  0
   22.4530  -22.7520  -11.6905 O   0  0  0  0  0  0  0  0  0  0  0  0
   21.8804  -20.9624  -13.0033 N   0  0  0  0  0  0  0  0  0  0  0  0
   20.4685  -21.1766  -12.9496 C   0  0  1  0  0  0  0  0  0  0  0  0
   19.7150  -19.8752  -12.7176 C   0  0  0  0  0  0  0  0  0  0  0  0
   20.2165  -18.5950  -13.8716 S   0  0  0  0  0  0  0  0  0  0  0  0
   19.9267  -21.8488  -14.1415 C   0  0  0  0  0  0  0  0  0  0  0  0
   20.5463  -21.9495  -15.2122 O   0  0  0  0  0  0  0  0  0  0  0  0
   18.6508  -22.3966  -14.0498 O   0  0  0  0  0  0  0  0  0  0  0  0
  1  2  1  0
  2 12  2  0
  3  4  2  0
  3  2  1  0
  4  5  1  0
  5  6  1  0
  5 11  2  0
  6  7  1  0
  7  9  1  0
  7  8  1  6
  9 10  2  0
 12 11  1  0
 13  9  1  0
 13 14  1  0
 14 17  1  0
 14 15  1  6
 16 15  1  0
 17 18  2  0
 19 17  1  0
 19 20  1  0
 20 23  1  0
 20 21  1  6
 22 21  1  0
 23 24  2  0
 23 25  1  0
M  END
$$$$
