YCC.pdb
     RDKit          3D

 25 25  0  0  1  0  0  0  0  0999 V2000
   19.1094  -16.5598  -20.5011 O   0  0  0  0  0  0  0  0  0  0  0  0
   19.5469  -15.3938  -19.8650 C   0  0  0  0  0  0  0  0  0  0  0  0
   19.2601  -15.2120  -18.5356 C   0  0  0  0  0  0  0  0  0  0  0  0
   19.6823  -14.0663  -17.8838 C   0  0  0  0  0  0  0  0  0  0  0  0
   20.3952  -13.0750  -18.5251 C   0  0  0  0  0  0  0  0  0  0  0  0
   20.8315  -11.8589  -17.7923 C   0  0  0  0  0  0  0  0  0  0  0  0
   22.3496  -11.8544  -17.8048 C   0  0  2  0  0  0  0  0  0  0  0  0
   22.8738  -13.0055  -17.1302 N   0  0  0  0  0  0  0  0  0  0  0  0
   22.9110  -10.5845  -17.3362 C   0  0  0  0  0  0  0  0  0  0  0  0
   22.9771  -10.3695  -16.0799 O   0  0  0  0  0  0  0  0  0  0  0  0
   20.6774  -13.2691  -19.8612 C   0  0  0  0  0  0  0  0  0  0  0  0
   20.2582  -14.4193  -20.5313 C   0  0  0  0  0  0  0  0  0  0  0  0
   23.3852   -9.5825  -18.2235 N   0  0  0  0  0  0  0  0  0  0  0  0
   23.9750   -8.3895  -17.6719 C   0  0  1  0  0  0  0  0  0  0  0  0
   24.9545   -7.7633  -18.6688 C   0  0  0  0  0  0  0  0  0  0  0  0
   26.3248   -8.9025  -18.9834 S   0  0  0  0  0  0  0  0  0  0  0  0
   22.9477   -7.3340  -17.4176 C   0  0  0  0  0  0  0  0  0  0  0  0
   21.9885   -7.1790  -18.2139 O   0  0  0  0  0  0  0  0  0  0  0  0
   23.0172   -6.4836  -16.2873 N   0  0  0  0  0  0  0  0  0  0  0  0
   22.0277   -5.5199  -15.9205 C   0  0  1  0  0  0  0  0  0  0  0  0
   20.6578   -6.1614  -15.7560 C   0  0  0  0  0  0  0  0  0  0  0  0
   19.4726   -5.0323  -15.0196 S   0  0  0  0  0  0  0  0  0  0  0  0
   22.3621   -4.7633  -14.7032 C   0  0  0  0  0  0  0  0  0  0  0  0
   22.0571   -3.5725  -14.5313 O   0  0  0  0  0  0  0  0  0  0  0  0
   23.0573   -5.4302  -13.6991 O   0  0  0  0  0  0  0  0  0  0  0  0
  1  2  1  0
  2 12  2  0
  3  4  2  0
  3  2  1  0
  4  5  1  0
  5  6  1  0
  5 11  2  0
  6  7  1  0
  7  9  1  0
  7  8  1  1
  9 10  2  0
 12 11  1  0
 13  9  1  0
 13 14  1  0
 14 17  1  0
 14 15  1  6
 16 15  1  0
 17 18  2  0
 19 17  1  0
 19 20  1  0
 20 23  1  0
 20 21  1  1
 22 21  1  0
 23 24  2  0
 23 25  1  0
M  END
$$$$
