YCC.pdb
     RDKit          3D

 25 25  0  0  1  0  0  0  0  0999 V2000
   29.3114   -8.4556  -18.5720 O   0  0  0  0  0  0  0  0  0  0  0  0
   28.4716   -9.0809  -17.6450 C   0  0  0  0  0  0  0  0  0  0  0  0
   28.8647  -10.2706  -17.0859 C   0  0  0  0  0  0  0  0  0  0  0  0
   28.0508  -10.9087  -16.1659 C   0  0  0  0  0  0  0  0  0  0  0  0
   26.8335  -10.3907  -15.7762 C   0  0  0  0  0  0  0  0  0  0  0  0
   25.9871  -11.1044  -14.7859 C   0  0  0  0  0  0  0  0  0  0  0  0
   24.8903  -11.8077  -15.5651 C   0  0  2  0  0  0  0  0  0  0  0  0
   25.4426  -12.6639  -16.5735 N   0  0  0  0  0  0  0  0  0  0  0  0
   23.8738  -10.8787  -16.0663 C   0  0  0  0  0  0  0  0  0  0  0  0
   23.8585  -10.5997  -17.3116 O   0  0  0  0  0  0  0  0  0  0  0  0
   26.4493   -9.1944  -16.3450 C   0  0  0  0  0  0  0  0  0  0  0  0
   27.2595   -8.5398  -17.2739 C   0  0  0  0  0  0  0  0  0  0  0  0
   22.9040  -10.2759  -15.2223 N   0  0  0  0  0  0  0  0  0  0  0  0
   21.9797   -9.3295  -15.7926 C   0  0  1  0  0  0  0  0  0  0  0  0
   20.5631   -9.9107  -15.8199 C   0  0  0  0  0  0  0  0  0  0  0  0
   19.4216   -8.7154  -16.5566 S   0  0  0  0  0  0  0  0  0  0  0  0
   21.8779   -8.0904  -14.9629 C   0  0  0  0  0  0  0  0  0  0  0  0
   21.9206   -8.1623  -13.7094 O   0  0  0  0  0  0  0  0  0  0  0  0
   21.7320   -6.8101  -15.5505 N   0  0  0  0  0  0  0  0  0  0  0  0
   21.6148   -5.5821  -14.8290 C   0  0  1  0  0  0  0  0  0  0  0  0
   22.8571   -4.7187  -14.9911 C   0  0  0  0  0  0  0  0  0  0  0  0
   22.7150   -3.1655  -14.1025 S   0  0  0  0  0  0  0  0  0  0  0  0
   20.4235   -4.7964  -15.1891 C   0  0  0  0  0  0  0  0  0  0  0  0
   20.0147   -4.6666  -16.3538 O   0  0  0  0  0  0  0  0  0  0  0  0
   19.7273   -4.1707  -14.1594 O   0  0  0  0  0  0  0  0  0  0  0  0
  1  2  1  0
  2 12  2  0
  3  4  2  0
  3  2  1  0
  4  5  1  0
  5  6  1  0
  5 11  2  0
  6  7  1  0
  7  9  1  0
  7  8  1  6
  9 10  2  0
 12 11  1  0
 13  9  1  0
 13 14  1  0
 14 17  1  0
 14 15  1  1
 16 15  1  0
 17 18  2  0
 19 17  1  0
 19 20  1  0
 20 23  1  0
 20 21  1  6
 22 21  1  0
 23 24  2  0
 23 25  1  0
M  END
$$$$
