YCC.pdb
     RDKit          3D

 25 25  0  0  1  0  0  0  0  0999 V2000
   30.5742  -21.1374   -7.7676 O   0  0  0  0  0  0  0  0  0  0  0  0
   29.4587  -21.0787   -8.6089 C   0  0  0  0  0  0  0  0  0  0  0  0
   28.2435  -20.7228   -8.0807 C   0  0  0  0  0  0  0  0  0  0  0  0
   27.1247  -20.6575   -8.8931 C   0  0  0  0  0  0  0  0  0  0  0  0
   27.1771  -20.9407  -10.2419 C   0  0  0  0  0  0  0  0  0  0  0  0
   25.9550  -20.8599  -11.0822 C   0  0  0  0  0  0  0  0  0  0  0  0
   26.3829  -21.1272  -12.5141 C   0  0  2  0  0  0  0  0  0  0  0  0
   27.1756  -20.0476  -13.0250 N   0  0  0  0  0  0  0  0  0  0  0  0
   25.2574  -21.4976  -13.3765 C   0  0  0  0  0  0  0  0  0  0  0  0
   24.7172  -20.5962  -14.1008 O   0  0  0  0  0  0  0  0  0  0  0  0
   28.4041  -21.2972  -10.7612 C   0  0  0  0  0  0  0  0  0  0  0  0
   29.5405  -21.3671   -9.9542 C   0  0  0  0  0  0  0  0  0  0  0  0
   24.7430  -22.8195  -13.4394 N   0  0  0  0  0  0  0  0  0  0  0  0
   23.6452  -23.0954  -14.3304 C   0  0  1  0  0  0  0  0  0  0  0  0
   23.4874  -24.6044  -14.5385 C   0  0  0  0  0  0  0  0  0  0  0  0
   22.0548  -24.9336  -15.5939 S   0  0  0  0  0  0  0  0  0  0  0  0
   22.3420  -22.6416  -13.7559 C   0  0  0  0  0  0  0  0  0  0  0  0
   22.0574  -22.8902  -12.5577 O   0  0  0  0  0  0  0  0  0  0  0  0
   21.3956  -21.9261  -14.5291 N   0  0  0  0  0  0  0  0  0  0  0  0
   20.1366  -21.4471  -14.0519 C   0  0  1  0  0  0  0  0  0  0  0  0
   20.0941  -19.9265  -14.0191 C   0  0  0  0  0  0  0  0  0  0  0  0
   20.0320  -19.2215  -15.6687 S   0  0  0  0  0  0  0  0  0  0  0  0
   18.9842  -21.9515  -14.8158 C   0  0  0  0  0  0  0  0  0  0  0  0
   19.0876  -22.5371  -15.9052 O   0  0  0  0  0  0  0  0  0  0  0  0
   17.7164  -21.7551  -14.2767 O   0  0  0  0  0  0  0  0  0  0  0  0
  1  2  1  0
  2 12  2  0
  3  4  2  0
  3  2  1  0
  4  5  1  0
  5  6  1  0
  5 11  2  0
  6  7  1  0
  7  9  1  0
  7  8  1  6
  9 10  2  0
 12 11  1  0
 13  9  1  0
 13 14  1  0
 14 17  1  0
 14 15  1  1
 16 15  1  0
 17 18  2  0
 19 17  1  0
 19 20  1  0
 20 23  1  0
 20 21  1  6
 22 21  1  0
 23 24  2  0
 23 25  1  0
M  END
$$$$
