YCC.pdb
     RDKit          3D

 25 25  0  0  1  0  0  0  0  0999 V2000
   25.4951  -13.1527  -22.0276 O   0  0  0  0  0  0  0  0  0  0  0  0
   24.5140  -12.3891  -21.3872 C   0  0  0  0  0  0  0  0  0  0  0  0
   23.2242  -12.8556  -21.3515 C   0  0  0  0  0  0  0  0  0  0  0  0
   22.2355  -12.1180  -20.7235 C   0  0  0  0  0  0  0  0  0  0  0  0
   22.4940  -10.9064  -20.1175 C   0  0  0  0  0  0  0  0  0  0  0  0
   21.4066  -10.1430  -19.4532 C   0  0  0  0  0  0  0  0  0  0  0  0
   21.3392  -10.6272  -18.0159 C   0  0  2  0  0  0  0  0  0  0  0  0
   20.8487  -11.9725  -17.9480 N   0  0  0  0  0  0  0  0  0  0  0  0
   20.6282   -9.6910  -17.1409 C   0  0  0  0  0  0  0  0  0  0  0  0
   19.3520   -9.6968  -17.1444 O   0  0  0  0  0  0  0  0  0  0  0  0
   23.7941  -10.4480  -20.1600 C   0  0  0  0  0  0  0  0  0  0  0  0
   24.8012  -11.1808  -20.7895 C   0  0  0  0  0  0  0  0  0  0  0  0
   21.3019   -8.7768  -16.2884 N   0  0  0  0  0  0  0  0  0  0  0  0
   20.5202   -7.9132  -15.4409 C   0  0  1  0  0  0  0  0  0  0  0  0
   20.9859   -8.0223  -13.9860 C   0  0  0  0  0  0  0  0  0  0  0  0
   19.8592   -7.1034  -12.9087 S   0  0  0  0  0  0  0  0  0  0  0  0
   20.7023   -6.4744  -15.8028 C   0  0  0  0  0  0  0  0  0  0  0  0
   21.7299   -6.1025  -16.4225 O   0  0  0  0  0  0  0  0  0  0  0  0
   19.7382   -5.4935  -15.4654 N   0  0  0  0  0  0  0  0  0  0  0  0
   19.7849   -4.1222  -15.8650 C   0  0  1  0  0  0  0  0  0  0  0  0
   19.9185   -3.9850  -17.3744 C   0  0  0  0  0  0  0  0  0  0  0  0
   19.9035   -2.2673  -17.8957 S   0  0  0  0  0  0  0  0  0  0  0  0
   18.6323   -3.3322  -15.4029 C   0  0  0  0  0  0  0  0  0  0  0  0
   17.4746   -3.7765  -15.3489 O   0  0  0  0  0  0  0  0  0  0  0  0
   18.8665   -2.0185  -15.0082 O   0  0  0  0  0  0  0  0  0  0  0  0
  1  2  1  0
  2 12  2  0
  3  4  2  0
  3  2  1  0
  4  5  1  0
  5  6  1  0
  5 11  2  0
  6  7  1  0
  7  9  1  0
  7  8  1  6
  9 10  2  0
 12 11  1  0
 13  9  1  0
 13 14  1  0
 14 17  1  0
 14 15  1  1
 16 15  1  0
 17 18  2  0
 19 17  1  0
 19 20  1  0
 20 23  1  0
 20 21  1  6
 22 21  1  0
 23 24  2  0
 23 25  1  0
M  END
$$$$
