YCC.pdb
     RDKit          3D

 25 25  0  0  1  0  0  0  0  0999 V2000
   21.9710  -21.7291   -6.9643 O   0  0  0  0  0  0  0  0  0  0  0  0
   22.8687  -21.2567   -7.9269 C   0  0  0  0  0  0  0  0  0  0  0  0
   24.1731  -21.0291   -7.5670 C   0  0  0  0  0  0  0  0  0  0  0  0
   25.0805  -20.5616   -8.5018 C   0  0  0  0  0  0  0  0  0  0  0  0
   24.7249  -20.3080   -9.8100 C   0  0  0  0  0  0  0  0  0  0  0  0
   25.7269  -19.8066  -10.7851 C   0  0  0  0  0  0  0  0  0  0  0  0
   25.7133  -20.7614  -11.9654 C   0  0  2  0  0  0  0  0  0  0  0  0
   26.1799  -22.0614  -11.5817 N   0  0  0  0  0  0  0  0  0  0  0  0
   26.3920  -20.2100  -13.1413 C   0  0  0  0  0  0  0  0  0  0  0  0
   27.6097  -19.8440  -13.0312 O   0  0  0  0  0  0  0  0  0  0  0  0
   23.4111  -20.5406  -10.1597 C   0  0  0  0  0  0  0  0  0  0  0  0
   22.4853  -21.0119   -9.2279 C   0  0  0  0  0  0  0  0  0  0  0  0
   25.7497  -20.0663  -14.3995 N   0  0  0  0  0  0  0  0  0  0  0  0
   26.5144  -19.5746  -15.5170 C   0  0  1  0  0  0  0  0  0  0  0  0
   26.5571  -20.6157  -16.6393 C   0  0  0  0  0  0  0  0  0  0  0  0
   27.2370  -22.1705  -16.0106 S   0  0  0  0  0  0  0  0  0  0  0  0
   25.8815  -18.3664  -16.1285 C   0  0  0  0  0  0  0  0  0  0  0  0
   24.6337  -18.3035  -16.2608 O   0  0  0  0  0  0  0  0  0  0  0  0
   26.6533  -17.2658  -16.5740 N   0  0  0  0  0  0  0  0  0  0  0  0
   26.1241  -16.0647  -17.1395 C   0  0  1  0  0  0  0  0  0  0  0  0
   26.8348  -14.8329  -16.5988 C   0  0  0  0  0  0  0  0  0  0  0  0
   26.9221  -14.8418  -14.8059 S   0  0  0  0  0  0  0  0  0  0  0  0
   26.1553  -16.0403  -18.6107 C   0  0  0  0  0  0  0  0  0  0  0  0
   26.6895  -16.9239  -19.2994 O   0  0  0  0  0  0  0  0  0  0  0  0
   25.5500  -14.9635  -19.2515 O   0  0  0  0  0  0  0  0  0  0  0  0
  1  2  1  0
  2 12  2  0
  3  4  2  0
  3  2  1  0
  4  5  1  0
  5  6  1  0
  5 11  2  0
  6  7  1  0
  7  9  1  0
  7  8  1  1
  9 10  2  0
 12 11  1  0
 13  9  1  0
 13 14  1  0
 14 17  1  0
 14 15  1  6
 16 15  1  0
 17 18  2  0
 19 17  1  0
 19 20  1  0
 20 23  1  0
 20 21  1  1
 22 21  1  0
 23 24  2  0
 23 25  1  0
M  END
$$$$
