YCC.pdb
     RDKit          3D

 25 25  0  0  1  0  0  0  0  0999 V2000
   24.0251  -21.4702   -7.1430 O   0  0  0  0  0  0  0  0  0  0  0  0
   24.4303  -21.0714   -8.4207 C   0  0  0  0  0  0  0  0  0  0  0  0
   25.7546  -20.7886   -8.6419 C   0  0  0  0  0  0  0  0  0  0  0  0
   26.1802  -20.3920   -9.8978 C   0  0  0  0  0  0  0  0  0  0  0  0
   25.3130  -20.2649  -10.9627 C   0  0  0  0  0  0  0  0  0  0  0  0
   25.8069  -19.8365  -12.2965 C   0  0  0  0  0  0  0  0  0  0  0  0
   25.5874  -21.0010  -13.2455 C   0  0  2  0  0  0  0  0  0  0  0  0
   26.7374  -21.8557  -13.2868 N   0  0  0  0  0  0  0  0  0  0  0  0
   25.1209  -20.5688  -14.5658 C   0  0  0  0  0  0  0  0  0  0  0  0
   25.9268  -19.9312  -15.3227 O   0  0  0  0  0  0  0  0  0  0  0  0
   23.9846  -20.5518  -10.7280 C   0  0  0  0  0  0  0  0  0  0  0  0
   23.5411  -20.9529   -9.4670 C   0  0  0  0  0  0  0  0  0  0  0  0
   23.8077  -20.8309  -15.0380 N   0  0  0  0  0  0  0  0  0  0  0  0
   23.4589  -20.4306  -16.3771 C   0  0  1  0  0  0  0  0  0  0  0  0
   23.8513  -21.5168  -17.3828 C   0  0  0  0  0  0  0  0  0  0  0  0
   25.0265  -20.8470  -18.5848 S   0  0  0  0  0  0  0  0  0  0  0  0
   21.9817  -20.2662  -16.5358 C   0  0  0  0  0  0  0  0  0  0  0  0
   21.1934  -21.1031  -16.0292 O   0  0  0  0  0  0  0  0  0  0  0  0
   21.4257  -19.1781  -17.2517 N   0  0  0  0  0  0  0  0  0  0  0  0
   20.0293  -18.8976  -17.3687 C   0  0  1  0  0  0  0  0  0  0  0  0
   19.7442  -17.4105  -17.2196 C   0  0  0  0  0  0  0  0  0  0  0  0
   17.9861  -17.0546  -17.2864 S   0  0  0  0  0  0  0  0  0  0  0  0
   19.4312  -19.3864  -18.6215 C   0  0  0  0  0  0  0  0  0  0  0  0
   18.2072  -19.4705  -18.8092 O   0  0  0  0  0  0  0  0  0  0  0  0
   20.2952  -19.7716  -19.6421 O   0  0  0  0  0  0  0  0  0  0  0  0
  1  2  1  0
  2 12  2  0
  3  4  2  0
  3  2  1  0
  4  5  1  0
  5  6  1  0
  5 11  2  0
  6  7  1  0
  7  9  1  0
  7  8  1  6
  9 10  2  0
 12 11  1  0
 13  9  1  0
 13 14  1  0
 14 17  1  0
 14 15  1  6
 16 15  1  0
 17 18  2  0
 19 17  1  0
 19 20  1  0
 20 23  1  0
 20 21  1  6
 22 21  1  0
 23 24  2  0
 23 25  1  0
M  END
$$$$
