YCC.pdb
     RDKit          3D

 25 25  0  0  1  0  0  0  0  0999 V2000
   23.9648  -20.5622   -9.6631 O   0  0  0  0  0  0  0  0  0  0  0  0
   24.8557  -20.4261  -10.7325 C   0  0  0  0  0  0  0  0  0  0  0  0
   26.1361  -20.9005  -10.5978 C   0  0  0  0  0  0  0  0  0  0  0  0
   27.0362  -20.7775  -11.6421 C   0  0  0  0  0  0  0  0  0  0  0  0
   26.6967  -20.1856  -12.8406 C   0  0  0  0  0  0  0  0  0  0  0  0
   27.6902  -20.0716  -13.9389 C   0  0  0  0  0  0  0  0  0  0  0  0
   27.5358  -21.3078  -14.8066 C   0  0  2  0  0  0  0  0  0  0  0  0
   28.5444  -21.3522  -15.8242 N   0  0  0  0  0  0  0  0  0  0  0  0
   26.1711  -21.4695  -15.3154 C   0  0  0  0  0  0  0  0  0  0  0  0
   25.8271  -20.8271  -16.3633 O   0  0  0  0  0  0  0  0  0  0  0  0
   25.4070  -19.7127  -12.9639 C   0  0  0  0  0  0  0  0  0  0  0  0
   24.4887  -19.8298  -11.9196 C   0  0  0  0  0  0  0  0  0  0  0  0
   25.2149  -22.3126  -14.6900 N   0  0  0  0  0  0  0  0  0  0  0  0
   23.9271  -22.4828  -15.3126 C   0  0  1  0  0  0  0  0  0  0  0  0
   23.6075  -23.9701  -15.4895 C   0  0  0  0  0  0  0  0  0  0  0  0
   24.3460  -24.9229  -14.1400 S   0  0  0  0  0  0  0  0  0  0  0  0
   22.8260  -21.9455  -14.4564 C   0  0  0  0  0  0  0  0  0  0  0  0
   22.7196  -22.3102  -13.2588 O   0  0  0  0  0  0  0  0  0  0  0  0
   21.8774  -21.0202  -14.9561 N   0  0  0  0  0  0  0  0  0  0  0  0
   20.8022  -20.4560  -14.2025 C   0  0  1  0  0  0  0  0  0  0  0  0
   20.5168  -19.0223  -14.6245 C   0  0  0  0  0  0  0  0  0  0  0  0
   20.3386  -18.8699  -16.4042 S   0  0  0  0  0  0  0  0  0  0  0  0
   19.5590  -21.2410  -14.2677 C   0  0  0  0  0  0  0  0  0  0  0  0
   18.5824  -21.0402  -13.5286 O   0  0  0  0  0  0  0  0  0  0  0  0
   19.4876  -22.2599  -15.2129 O   0  0  0  0  0  0  0  0  0  0  0  0
  1  2  1  0
  2 12  2  0
  3  4  2  0
  3  2  1  0
  4  5  1  0
  5  6  1  0
  5 11  2  0
  6  7  1  0
  7  9  1  0
  7  8  1  6
  9 10  2  0
 12 11  1  0
 13  9  1  0
 13 14  1  0
 14 17  1  0
 14 15  1  1
 16 15  1  0
 17 18  2  0
 19 17  1  0
 19 20  1  0
 20 23  1  0
 20 21  1  6
 22 21  1  0
 23 24  2  0
 23 25  1  0
M  END
$$$$
