YCC.pdb
     RDKit          3D

 25 25  0  0  1  0  0  0  0  0999 V2000
   29.1857  -18.1488  -21.9763 O   0  0  0  0  0  0  0  0  0  0  0  0
   28.3917  -17.9742  -20.8384 C   0  0  0  0  0  0  0  0  0  0  0  0
   28.3870  -16.7547  -20.2097 C   0  0  0  0  0  0  0  0  0  0  0  0
   27.6093  -16.5572  -19.0819 C   0  0  0  0  0  0  0  0  0  0  0  0
   26.8199  -17.5544  -18.5483 C   0  0  0  0  0  0  0  0  0  0  0  0
   25.9984  -17.3050  -17.3362 C   0  0  0  0  0  0  0  0  0  0  0  0
   24.5435  -17.3941  -17.7605 C   0  0  2  0  0  0  0  0  0  0  0  0
   24.1895  -16.3023  -18.6193 N   0  0  0  0  0  0  0  0  0  0  0  0
   23.6371  -17.5731  -16.6230 C   0  0  0  0  0  0  0  0  0  0  0  0
   23.5008  -16.6153  -15.7906 O   0  0  0  0  0  0  0  0  0  0  0  0
   26.8330  -18.7757  -19.1890 C   0  0  0  0  0  0  0  0  0  0  0  0
   27.6122  -18.9893  -20.3270 C   0  0  0  0  0  0  0  0  0  0  0  0
   22.9032  -18.7697  -16.4090 N   0  0  0  0  0  0  0  0  0  0  0  0
   22.0294  -18.8531  -15.2668 C   0  0  1  0  0  0  0  0  0  0  0  0
   20.6836  -19.4674  -15.6628 C   0  0  0  0  0  0  0  0  0  0  0  0
   19.6595  -18.2252  -16.4892 S   0  0  0  0  0  0  0  0  0  0  0  0
   22.5806  -19.7630  -14.2168 C   0  0  0  0  0  0  0  0  0  0  0  0
   23.6738  -20.3539  -14.4013 O   0  0  0  0  0  0  0  0  0  0  0  0
   21.9011  -19.9885  -12.9949 N   0  0  0  0  0  0  0  0  0  0  0  0
   22.3857  -20.7976  -11.9211 C   0  0  1  0  0  0  0  0  0  0  0  0
   23.7459  -20.3214  -11.4332 C   0  0  0  0  0  0  0  0  0  0  0  0
   24.3247  -21.2736  -10.0259 S   0  0  0  0  0  0  0  0  0  0  0  0
   21.4597  -20.8822  -10.7803 C   0  0  0  0  0  0  0  0  0  0  0  0
   20.7602  -19.9326  -10.3938 O   0  0  0  0  0  0  0  0  0  0  0  0
   21.3732  -22.0974  -10.1077 O   0  0  0  0  0  0  0  0  0  0  0  0
  1  2  1  0
  2 12  2  0
  3  4  2  0
  3  2  1  0
  4  5  1  0
  5  6  1  0
  5 11  2  0
  6  7  1  0
  7  9  1  0
  7  8  1  1
  9 10  2  0
 12 11  1  0
 13  9  1  0
 13 14  1  0
 14 17  1  0
 14 15  1  6
 16 15  1  0
 17 18  2  0
 19 17  1  0
 19 20  1  0
 20 23  1  0
 20 21  1  1
 22 21  1  0
 23 24  2  0
 23 25  1  0
M  END
$$$$
