MFM.pdb
     RDKit          3D

 28 28  0  0  1  0  0  0  0  0999 V2000
   14.0426  -29.0584   -2.5321 C   0  0  0  0  0  0  0  0  0  0  0  0
   13.1384  -28.0865   -3.7097 S   0  0  0  0  0  0  0  0  0  0  0  0
   13.8346  -26.5375   -4.2128 C   0  0  0  0  0  0  0  0  0  0  0  0
   14.3162  -25.6502   -3.1523 C   0  0  0  0  0  0  0  0  0  0  0  0
   14.9038  -24.3365   -3.4336 C   0  0  2  0  0  0  0  0  0  0  0  0
   15.8462  -24.1997   -4.4665 N   0  0  0  0  0  0  0  0  0  0  0  0
   15.4834  -23.7372   -2.1737 C   0  0  0  0  0  0  0  0  0  0  0  0
   16.7241  -23.6540   -2.0700 O   0  0  0  0  0  0  0  0  0  0  0  0
   14.6853  -23.2764   -1.1288 N   0  0  0  0  0  0  0  0  0  0  0  0
   15.2513  -22.6190    0.0939 C   0  0  1  0  0  0  0  0  0  0  0  0
   14.2802  -21.5537    0.4071 C   0  0  0  0  0  0  0  0  0  0  0  0
   14.5140  -20.8621    1.6571 C   0  0  0  0  0  0  0  0  0  0  0  0
   13.8541  -21.0988    2.8243 C   0  0  0  0  0  0  0  0  0  0  0  0
   14.1505  -20.3721    3.9537 C   0  0  0  0  0  0  0  0  0  0  0  0
   15.1048  -19.3914    3.9688 C   0  0  0  0  0  0  0  0  0  0  0  0
   15.7855  -19.1322    2.8067 C   0  0  0  0  0  0  0  0  0  0  0  0
   15.4930  -19.8566    1.6720 C   0  0  0  0  0  0  0  0  0  0  0  0
   15.5913  -23.6230    1.0598 C   0  0  0  0  0  0  0  0  0  0  0  0
   14.9776  -24.7558    0.9878 O   0  0  0  0  0  0  0  0  0  0  0  0
   21.1325  -27.4932    5.0436 C   0  0  0  0  0  0  0  0  0  0  0  0
   20.5682  -26.1891    3.9848 S   0  0  0  0  0  0  0  0  0  0  0  0
   18.8183  -25.8691    3.9655 C   0  0  0  0  0  0  0  0  0  0  0  0
   18.3490  -24.7936    3.0618 C   0  0  0  0  0  0  0  0  0  0  0  0
   16.8458  -24.6113    2.9882 C   0  0  2  0  0  0  0  0  0  0  0  0
   16.5385  -23.4953    2.0766 N   0  0  0  0  0  0  0  0  0  0  0  0
   16.2981  -24.2589    4.3096 C   0  0  0  0  0  0  0  0  0  0  0  0
   15.5735  -25.1302    5.1211 O   0  0  0  0  0  0  0  0  0  0  0  0
   16.4639  -23.0931    4.8037 O   0  0  0  0  0  0  0  0  0  0  0  0
  1  2  1  0
  3  2  1  0
  4  3  1  0
  5  4  1  0
  5  6  1  6
  7  5  1  0
  8  7  2  0
  9  7  1  0
 10  9  1  0
 10 11  1  1
 11 12  1  0
 12 17  2  0
 13 12  1  0
 13 14  2  0
 14 15  1  0
 15 16  2  0
 17 16  1  0
 18 19  2  0
 18 10  1  0
 20 21  1  0
 22 21  1  0
 24 23  1  1
 23 22  1  0
 24 25  1  0
 25 18  1  0
 26 24  1  0
 27 26  1  0
 28 26  2  0
M  END
$$$$
