MFM.pdb
     RDKit          3D

 28 28  0  0  1  0  0  0  0  0999 V2000
   22.6698  -18.0813  -13.5445 C   0  0  0  0  0  0  0  0  0  0  0  0
   23.8069  -18.4563  -14.8541 S   0  0  0  0  0  0  0  0  0  0  0  0
   25.1546  -19.5474  -14.4928 C   0  0  0  0  0  0  0  0  0  0  0  0
   25.2468  -20.0580  -13.1236 C   0  0  0  0  0  0  0  0  0  0  0  0
   26.3590  -20.9005  -12.6727 C   0  0  2  0  0  0  0  0  0  0  0  0
   26.6614  -22.0862  -13.3628 N   0  0  0  0  0  0  0  0  0  0  0  0
   26.2134  -21.2248  -11.2043 C   0  0  0  0  0  0  0  0  0  0  0  0
   25.7381  -22.3330  -10.8834 O   0  0  0  0  0  0  0  0  0  0  0  0
   26.5894  -20.3343  -10.2008 N   0  0  0  0  0  0  0  0  0  0  0  0
   26.5446  -20.6886   -8.7448 C   0  0  1  0  0  0  0  0  0  0  0  0
   27.6467  -19.9062   -8.1540 C   0  0  0  0  0  0  0  0  0  0  0  0
   27.7557  -19.9957   -6.7132 C   0  0  0  0  0  0  0  0  0  0  0  0
   28.0307  -21.1303   -6.0125 C   0  0  0  0  0  0  0  0  0  0  0  0
   28.1004  -21.1031   -4.6392 C   0  0  0  0  0  0  0  0  0  0  0  0
   27.9021  -19.9594   -3.9145 C   0  0  0  0  0  0  0  0  0  0  0  0
   27.6238  -18.8016   -4.5949 C   0  0  0  0  0  0  0  0  0  0  0  0
   27.5524  -18.8224   -5.9705 C   0  0  0  0  0  0  0  0  0  0  0  0
   25.1996  -20.5588   -8.2646 C   0  0  0  0  0  0  0  0  0  0  0  0
   24.5559  -19.4827   -8.5693 O   0  0  0  0  0  0  0  0  0  0  0  0
   20.8056  -25.4917   -6.3217 C   0  0  0  0  0  0  0  0  0  0  0  0
   19.9898  -24.0005   -6.8226 S   0  0  0  0  0  0  0  0  0  0  0  0
   20.9308  -22.4944   -6.7174 C   0  0  0  0  0  0  0  0  0  0  0  0
   22.3560  -22.5719   -7.1130 C   0  0  0  0  0  0  0  0  0  0  0  0
   23.1211  -21.2642   -7.0598 C   0  0  2  0  0  0  0  0  0  0  0  0
   24.5082  -21.4978   -7.4979 N   0  0  0  0  0  0  0  0  0  0  0  0
   23.1798  -20.7503   -5.6804 C   0  0  0  0  0  0  0  0  0  0  0  0
   24.2513  -20.9453   -4.8107 O   0  0  0  0  0  0  0  0  0  0  0  0
   22.2172  -20.0713   -5.1872 O   0  0  0  0  0  0  0  0  0  0  0  0
  1  2  1  0
  3  2  1  0
  4  3  1  0
  5  4  1  0
  5  6  1  6
  7  5  1  0
  8  7  2  0
  9  7  1  0
 10  9  1  0
 10 11  1  1
 11 12  1  0
 12 17  2  0
 13 12  1  0
 13 14  2  0
 14 15  1  0
 15 16  2  0
 17 16  1  0
 18 19  2  0
 18 10  1  0
 20 21  1  0
 22 21  1  0
 24 23  1  1
 23 22  1  0
 24 25  1  0
 25 18  1  0
 26 24  1  0
 27 26  1  0
 28 26  2  0
M  END
$$$$
