MFM.pdb
     RDKit          3D

 28 28  0  0  1  0  0  0  0  0999 V2000
   12.6695   -9.9962  -15.1597 C   0  0  0  0  0  0  0  0  0  0  0  0
   13.5283  -11.1051  -16.2467 S   0  0  0  0  0  0  0  0  0  0  0  0
   15.2991  -11.0651  -16.2392 C   0  0  0  0  0  0  0  0  0  0  0  0
   15.9502  -10.7197  -14.9740 C   0  0  0  0  0  0  0  0  0  0  0  0
   17.4025  -10.5547  -14.8573 C   0  0  2  0  0  0  0  0  0  0  0  0
   18.2466  -11.6664  -15.0160 N   0  0  0  0  0  0  0  0  0  0  0  0
   17.7527   -9.8689  -13.5575 C   0  0  0  0  0  0  0  0  0  0  0  0
   17.8817  -10.5674  -12.5316 O   0  0  0  0  0  0  0  0  0  0  0  0
   17.9357   -8.4909  -13.4645 N   0  0  0  0  0  0  0  0  0  0  0  0
   18.3570   -7.8134  -12.1952 C   0  0  1  0  0  0  0  0  0  0  0  0
   19.6096   -7.1242  -12.5584 C   0  0  0  0  0  0  0  0  0  0  0  0
   20.7767   -7.9772  -12.6336 C   0  0  0  0  0  0  0  0  0  0  0  0
   21.3319   -8.6474  -11.5865 C   0  0  0  0  0  0  0  0  0  0  0  0
   22.4517   -9.4246  -11.7698 C   0  0  0  0  0  0  0  0  0  0  0  0
   23.0584   -9.5659  -12.9883 C   0  0  0  0  0  0  0  0  0  0  0  0
   22.5198   -8.9020  -14.0608 C   0  0  0  0  0  0  0  0  0  0  0  0
   21.3984   -8.1218  -13.8834 C   0  0  0  0  0  0  0  0  0  0  0  0
   17.2439   -7.0938  -11.6477 C   0  0  0  0  0  0  0  0  0  0  0  0
   16.4900   -6.4423  -12.4677 O   0  0  0  0  0  0  0  0  0  0  0  0
   12.9660   -8.6276   -6.6474 C   0  0  0  0  0  0  0  0  0  0  0  0
   13.3436   -6.9042   -6.4821 S   0  0  0  0  0  0  0  0  0  0  0  0
   14.1303   -6.1164   -7.8698 C   0  0  0  0  0  0  0  0  0  0  0  0
   15.1812   -6.8928   -8.5673 C   0  0  0  0  0  0  0  0  0  0  0  0
   15.7118   -6.2735   -9.8452 C   0  0  2  0  0  0  0  0  0  0  0  0
   16.8877   -7.0360  -10.2996 N   0  0  0  0  0  0  0  0  0  0  0  0
   16.1545   -4.8885   -9.6087 C   0  0  0  0  0  0  0  0  0  0  0  0
   15.3051   -3.7840   -9.5722 O   0  0  0  0  0  0  0  0  0  0  0  0
   17.3864   -4.6129   -9.4155 O   0  0  0  0  0  0  0  0  0  0  0  0
  1  2  1  0
  3  2  1  0
  4  3  1  0
  5  4  1  0
  5  6  1  1
  7  5  1  0
  8  7  2  0
  9  7  1  0
 10  9  1  0
 10 11  1  6
 11 12  1  0
 12 17  2  0
 13 12  1  0
 13 14  2  0
 14 15  1  0
 15 16  2  0
 17 16  1  0
 18 19  2  0
 18 10  1  0
 20 21  1  0
 22 21  1  0
 24 23  1  1
 23 22  1  0
 24 25  1  0
 25 18  1  0
 26 24  1  0
 27 26  1  0
 28 26  2  0
M  END
$$$$
