MFM.pdb
     RDKit          3D

 28 28  0  0  1  0  0  0  0  0999 V2000
   25.2758  -17.1814  -15.1882 C   0  0  0  0  0  0  0  0  0  0  0  0
   26.9515  -17.4009  -15.7289 S   0  0  0  0  0  0  0  0  0  0  0  0
   27.7849  -18.8908  -15.2567 C   0  0  0  0  0  0  0  0  0  0  0  0
   27.4735  -19.4351  -13.9335 C   0  0  0  0  0  0  0  0  0  0  0  0
   28.1897  -20.5826  -13.3677 C   0  0  2  0  0  0  0  0  0  0  0  0
   28.2967  -21.7726  -14.1067 N   0  0  0  0  0  0  0  0  0  0  0  0
   27.6506  -20.9170  -11.9965 C   0  0  0  0  0  0  0  0  0  0  0  0
   26.8869  -21.8969  -11.8796 O   0  0  0  0  0  0  0  0  0  0  0  0
   27.9745  -20.1735  -10.8637 N   0  0  0  0  0  0  0  0  0  0  0  0
   27.4845  -20.5308   -9.4927 C   0  0  1  0  0  0  0  0  0  0  0  0
   28.4006  -19.8105   -8.5883 C   0  0  0  0  0  0  0  0  0  0  0  0
   28.1021  -19.9494   -7.1786 C   0  0  0  0  0  0  0  0  0  0  0  0
   28.4518  -21.0100   -6.3997 C   0  0  0  0  0  0  0  0  0  0  0  0
   28.1059  -21.0431   -5.0690 C   0  0  0  0  0  0  0  0  0  0  0  0
   27.4063  -20.0340   -4.4649 C   0  0  0  0  0  0  0  0  0  0  0  0
   27.0414  -18.9530   -5.2260 C   0  0  0  0  0  0  0  0  0  0  0  0
   27.3848  -18.9142   -6.5595 C   0  0  0  0  0  0  0  0  0  0  0  0
   26.0659  -20.3317   -9.4274 C   0  0  0  0  0  0  0  0  0  0  0  0
   25.4778  -20.5753   -8.3049 O   0  0  0  0  0  0  0  0  0  0  0  0
   19.2260  -18.2445  -13.0893 C   0  0  0  0  0  0  0  0  0  0  0  0
   20.9523  -18.6415  -13.1351 S   0  0  0  0  0  0  0  0  0  0  0  0
   21.7146  -19.0947  -11.5928 C   0  0  0  0  0  0  0  0  0  0  0  0
   23.1830  -19.2873  -11.6082 C   0  0  0  0  0  0  0  0  0  0  0  0
   23.8047  -19.6794  -10.2823 C   0  0  2  0  0  0  0  0  0  0  0  0
   25.2513  -19.8867  -10.4695 N   0  0  0  0  0  0  0  0  0  0  0  0
   23.2407  -20.9512   -9.7979 C   0  0  0  0  0  0  0  0  0  0  0  0
   22.4113  -21.0731   -8.6844 O   0  0  0  0  0  0  0  0  0  0  0  0
   23.4884  -22.0530  -10.3940 O   0  0  0  0  0  0  0  0  0  0  0  0
  1  2  1  0
  3  2  1  0
  4  3  1  0
  5  4  1  0
  5  6  1  6
  7  5  1  0
  8  7  2  0
  9  7  1  0
 10  9  1  0
 10 11  1  1
 11 12  1  0
 12 17  2  0
 13 12  1  0
 13 14  2  0
 14 15  1  0
 15 16  2  0
 17 16  1  0
 18 19  2  0
 18 10  1  0
 20 21  1  0
 22 21  1  0
 24 23  1  6
 23 22  1  0
 24 25  1  0
 25 18  1  0
 26 24  1  0
 27 26  1  0
 28 26  2  0
M  END
$$$$
