MFM.pdb
     RDKit          3D

 28 28  0  0  1  0  0  0  0  0999 V2000
   21.0355  -15.7038  -18.0590 C   0  0  0  0  0  0  0  0  0  0  0  0
   22.1967  -16.2745  -19.2734 S   0  0  0  0  0  0  0  0  0  0  0  0
   22.2525  -18.0121  -19.6125 C   0  0  0  0  0  0  0  0  0  0  0  0
   22.1865  -18.9156  -18.4621 C   0  0  0  0  0  0  0  0  0  0  0  0
   23.3874  -19.4047  -17.7776 C   0  0  2  0  0  0  0  0  0  0  0  0
   24.3214  -20.1859  -18.4783 N   0  0  0  0  0  0  0  0  0  0  0  0
   23.0115  -20.1318  -16.5077 C   0  0  0  0  0  0  0  0  0  0  0  0
   22.9008  -21.3741  -16.5433 O   0  0  0  0  0  0  0  0  0  0  0  0
   22.7852  -19.4671  -15.3043 N   0  0  0  0  0  0  0  0  0  0  0  0
   22.3668  -20.1778  -14.0524 C   0  0  1  0  0  0  0  0  0  0  0  0
   22.9562  -19.3682  -12.9694 C   0  0  0  0  0  0  0  0  0  0  0  0
   22.6145  -19.7979  -11.6299 C   0  0  0  0  0  0  0  0  0  0  0  0
   21.4923  -19.4369  -10.9486 C   0  0  0  0  0  0  0  0  0  0  0  0
   21.2725  -19.8974   -9.6714 C   0  0  0  0  0  0  0  0  0  0  0  0
   22.1495  -20.7267   -9.0267 C   0  0  0  0  0  0  0  0  0  0  0  0
   23.2883  -21.1066   -9.6899 C   0  0  0  0  0  0  0  0  0  0  0  0
   23.5142  -20.6485  -10.9693 C   0  0  0  0  0  0  0  0  0  0  0  0
   20.9579  -20.4403  -14.1024 C   0  0  0  0  0  0  0  0  0  0  0  0
   20.1874  -19.4966  -14.5278 O   0  0  0  0  0  0  0  0  0  0  0  0
   20.8447  -25.3128  -15.7988 C   0  0  0  0  0  0  0  0  0  0  0  0
   19.5642  -25.6937  -14.6347 S   0  0  0  0  0  0  0  0  0  0  0  0
   18.8632  -24.3286  -13.7346 C   0  0  0  0  0  0  0  0  0  0  0  0
   18.5539  -23.1074  -14.5134 C   0  0  0  0  0  0  0  0  0  0  0  0
   18.8705  -21.7949  -13.8240 C   0  0  2  0  0  0  0  0  0  0  0  0
   20.3327  -21.6341  -13.7395 N   0  0  0  0  0  0  0  0  0  0  0  0
   18.3507  -21.7913  -12.4457 C   0  0  0  0  0  0  0  0  0  0  0  0
   19.1254  -22.0193  -11.3097 O   0  0  0  0  0  0  0  0  0  0  0  0
   17.1161  -21.5696  -12.2061 O   0  0  0  0  0  0  0  0  0  0  0  0
  1  2  1  0
  3  2  1  0
  4  3  1  0
  5  4  1  0
  5  6  1  6
  7  5  1  0
  8  7  2  0
  9  7  1  0
 10  9  1  0
 10 11  1  1
 11 12  1  0
 12 17  2  0
 13 12  1  0
 13 14  2  0
 14 15  1  0
 15 16  2  0
 17 16  1  0
 18 19  2  0
 18 10  1  0
 20 21  1  0
 22 21  1  0
 24 23  1  1
 23 22  1  0
 24 25  1  0
 25 18  1  0
 26 24  1  0
 27 26  1  0
 28 26  2  0
M  END
$$$$
