MFM.pdb
     RDKit          3D

 28 28  0  0  1  0  0  0  0  0999 V2000
   32.5634  -32.0489  -23.0065 C   0  0  0  0  0  0  0  0  0  0  0  0
   34.3100  -32.0296  -22.6941 S   0  0  0  0  0  0  0  0  0  0  0  0
   34.8504  -31.7317  -21.0338 C   0  0  0  0  0  0  0  0  0  0  0  0
   33.9626  -32.1747  -19.9570 C   0  0  0  0  0  0  0  0  0  0  0  0
   33.5326  -31.2819  -18.8762 C   0  0  2  0  0  0  0  0  0  0  0  0
   34.4932  -30.6336  -18.0820 N   0  0  0  0  0  0  0  0  0  0  0  0
   32.5560  -31.9885  -17.9654 C   0  0  0  0  0  0  0  0  0  0  0  0
   33.0074  -32.7221  -17.0626 O   0  0  0  0  0  0  0  0  0  0  0  0
   31.1759  -31.8506  -18.0976 N   0  0  0  0  0  0  0  0  0  0  0  0
   30.2023  -32.5368  -17.1873 C   0  0  1  0  0  0  0  0  0  0  0  0
   29.4153  -31.4312  -16.6093 C   0  0  0  0  0  0  0  0  0  0  0  0
   28.2458  -31.8399  -15.8604 C   0  0  0  0  0  0  0  0  0  0  0  0
   28.2452  -32.2523  -14.5628 C   0  0  0  0  0  0  0  0  0  0  0  0
   27.0728  -32.6297  -13.9506 C   0  0  0  0  0  0  0  0  0  0  0  0
   25.8664  -32.6124  -14.5964 C   0  0  0  0  0  0  0  0  0  0  0  0
   25.8378  -32.2009  -15.9043 C   0  0  0  0  0  0  0  0  0  0  0  0
   27.0088  -31.8218  -16.5230 C   0  0  0  0  0  0  0  0  0  0  0  0
   29.5677  -33.6120  -17.8928 C   0  0  0  0  0  0  0  0  0  0  0  0
   29.3079  -33.4363  -19.1445 O   0  0  0  0  0  0  0  0  0  0  0  0
   27.9652  -41.4182  -18.3935 C   0  0  0  0  0  0  0  0  0  0  0  0
   28.8658  -40.0302  -17.7590 S   0  0  0  0  0  0  0  0  0  0  0  0
   28.3449  -38.4177  -18.3006 C   0  0  0  0  0  0  0  0  0  0  0  0
   28.9794  -37.2560  -17.6362 C   0  0  0  0  0  0  0  0  0  0  0  0
   28.5837  -35.8966  -18.1782 C   0  0  2  0  0  0  0  0  0  0  0  0
   29.2072  -34.8473  -17.3530 N   0  0  0  0  0  0  0  0  0  0  0  0
   27.1251  -35.7071  -18.0963 C   0  0  0  0  0  0  0  0  0  0  0  0
   26.4150  -35.5538  -16.9068 O   0  0  0  0  0  0  0  0  0  0  0  0
   26.4038  -35.6700  -19.1495 O   0  0  0  0  0  0  0  0  0  0  0  0
  1  2  1  0
  3  2  1  0
  4  3  1  0
  5  4  1  0
  5  6  1  1
  7  5  1  0
  8  7  2  0
  9  7  1  0
 10  9  1  0
 10 11  1  6
 11 12  1  0
 12 17  2  0
 13 12  1  0
 13 14  2  0
 14 15  1  0
 15 16  2  0
 17 16  1  0
 18 19  2  0
 18 10  1  0
 20 21  1  0
 22 21  1  0
 24 23  1  1
 23 22  1  0
 24 25  1  0
 25 18  1  0
 26 24  1  0
 27 26  1  0
 28 26  2  0
M  END
$$$$
