GSI.pdb
     RDKit          3D

 19 18  0  0  1  0  0  0  0  0999 V2000
   15.3434  -13.8776  -15.2055 N   0  0  0  0  0  0  0  0  0  0  0  0
   15.2197  -12.4526  -15.1558 C   0  0  0  0  0  0  0  0  0  0  0  0
   16.4329  -11.7721  -15.7186 C   0  0  0  0  0  0  0  0  0  0  0  0
   17.5011  -12.4133  -15.7503 O   0  0  0  0  0  0  0  0  0  0  0  0
   16.1649   -7.8665  -16.8135 O   0  0  0  0  0  0  0  0  0  0  0  0
   16.9795   -8.6361  -17.6394 C   0  0  0  0  0  0  0  0  0  0  0  0
   17.5107   -9.7746  -16.8117 C   0  0  2  0  0  0  0  0  0  0  0  0
   16.3824  -10.4437  -16.2025 N   0  0  0  0  0  0  0  0  0  0  0  0
   18.4389   -9.2926  -15.7418 C   0  0  0  0  0  0  0  0  0  0  0  0
   17.9934   -9.0740  -14.5855 O   0  0  0  0  0  0  0  0  0  0  0  0
   23.5511  -11.2339  -14.8869 C   0  0  0  0  0  0  0  0  0  0  0  0
   22.1455  -10.6839  -14.8683 C   0  0  0  0  0  0  0  0  0  0  0  0
   22.0507   -9.2076  -14.9341 C   0  0  2  0  0  0  0  0  0  0  0  0
   22.7686   -8.6505  -13.7068 C   0  0  0  0  0  0  0  0  0  0  0  0
   20.6790   -8.6214  -14.9393 C   0  0  2  0  0  0  0  0  0  0  0  0
   19.8216   -9.0713  -15.9912 N   0  0  0  0  0  0  0  0  0  0  0  0
   20.7737   -7.1504  -15.0230 C   0  0  0  0  0  0  0  0  0  0  0  0
   20.6196   -6.5822  -16.1237 O   0  0  0  0  0  0  0  0  0  0  0  0
   21.0297   -6.3967  -13.8988 O   0  0  0  0  0  0  0  0  0  0  0  0
  2  1  1  0
  3  4  2  0
  3  2  1  0
  6  5  1  0
  7  8  1  0
  7  6  1  1
  8  3  1  0
  9  7  1  0
 10  9  2  0
 11 12  1  0
 12 13  1  0
 13 14  1  1
 15 16  1  6
 15 13  1  0
 16  9  1  0
 17 15  1  0
 18 17  2  0
 19 17  1  0
M  END
$$$$
