GSI.pdb
     RDKit          3D

 19 18  0  0  1  0  0  0  0  0999 V2000
   16.2659   -9.8423  -19.4814 N   0  0  0  0  0  0  0  0  0  0  0  0
   16.2830   -8.6345  -18.7136 C   0  0  0  0  0  0  0  0  0  0  0  0
   17.6792   -8.2461  -18.3247 C   0  0  0  0  0  0  0  0  0  0  0  0
   18.4860   -9.1570  -18.0552 O   0  0  0  0  0  0  0  0  0  0  0  0
   18.6172   -4.3211  -17.4993 O   0  0  0  0  0  0  0  0  0  0  0  0
   19.5601   -5.0190  -18.2488 C   0  0  0  0  0  0  0  0  0  0  0  0
   19.4212   -6.4761  -17.9012 C   0  0  2  0  0  0  0  0  0  0  0  0
   18.0835   -6.8919  -18.2610 N   0  0  0  0  0  0  0  0  0  0  0  0
   19.6404   -6.7182  -16.4410 C   0  0  0  0  0  0  0  0  0  0  0  0
   18.6495   -6.8019  -15.6700 O   0  0  0  0  0  0  0  0  0  0  0  0
   22.6815  -10.0053  -12.4266 C   0  0  0  0  0  0  0  0  0  0  0  0
   22.0344   -8.6743  -12.7236 C   0  0  0  0  0  0  0  0  0  0  0  0
   21.7808   -8.4084  -14.1581 C   0  0  2  0  0  0  0  0  0  0  0  0
   23.1336   -8.4068  -14.8666 C   0  0  0  0  0  0  0  0  0  0  0  0
   21.1117   -7.1184  -14.4948 C   0  0  2  0  0  0  0  0  0  0  0  0
   20.9444   -6.8581  -15.8907 N   0  0  0  0  0  0  0  0  0  0  0  0
   21.8772   -6.0002  -13.9088 C   0  0  0  0  0  0  0  0  0  0  0  0
   21.8563   -5.8161  -12.6744 O   0  0  0  0  0  0  0  0  0  0  0  0
   22.6156   -5.1572  -14.7096 O   0  0  0  0  0  0  0  0  0  0  0  0
  2  1  1  0
  3  4  2  0
  3  2  1  0
  6  5  1  0
  7  8  1  0
  7  6  1  1
  8  3  1  0
  9  7  1  0
 10  9  2  0
 11 12  1  0
 12 13  1  0
 13 14  1  6
 15 16  1  6
 15 13  1  0
 16  9  1  0
 17 15  1  0
 18 17  2  0
 19 17  1  0
M  END
$$$$
