GSI.pdb
     RDKit          3D

 19 18  0  0  1  0  0  0  0  0999 V2000
   29.4576  -22.8549  -15.8831 N   0  0  0  0  0  0  0  0  0  0  0  0
   28.1497  -22.2784  -15.9573 C   0  0  0  0  0  0  0  0  0  0  0  0
   27.8716  -21.3850  -14.7842 C   0  0  0  0  0  0  0  0  0  0  0  0
   28.7736  -21.2339  -13.9376 O   0  0  0  0  0  0  0  0  0  0  0  0
   24.1896  -19.5927  -14.4249 O   0  0  0  0  0  0  0  0  0  0  0  0
   25.2948  -18.8416  -14.0346 C   0  0  0  0  0  0  0  0  0  0  0  0
   26.3448  -19.8048  -13.5520 C   0  0  2  0  0  0  0  0  0  0  0  0
   26.6289  -20.7271  -14.6293 N   0  0  0  0  0  0  0  0  0  0  0  0
   25.8819  -20.5700  -12.3525 C   0  0  0  0  0  0  0  0  0  0  0  0
   25.4672  -21.7499  -12.4907 O   0  0  0  0  0  0  0  0  0  0  0  0
   27.6774  -19.0712   -7.3384 C   0  0  0  0  0  0  0  0  0  0  0  0
   27.2902  -20.1187   -8.3538 C   0  0  0  0  0  0  0  0  0  0  0  0
   25.8347  -20.2520   -8.5911 C   0  0  2  0  0  0  0  0  0  0  0  0
   25.2934  -21.2366   -7.5569 C   0  0  0  0  0  0  0  0  0  0  0  0
   25.4151  -20.7543   -9.9316 C   0  0  2  0  0  0  0  0  0  0  0  0
   25.8953  -20.0021  -11.0485 N   0  0  0  0  0  0  0  0  0  0  0  0
   23.9408  -20.7903  -10.0033 C   0  0  0  0  0  0  0  0  0  0  0  0
   23.3099  -21.6407   -9.3423 O   0  0  0  0  0  0  0  0  0  0  0  0
   23.2527  -19.8945  -10.7916 O   0  0  0  0  0  0  0  0  0  0  0  0
  2  1  1  0
  3  4  2  0
  3  2  1  0
  6  5  1  0
  7  8  1  0
  7  6  1  6
  8  3  1  0
  9  7  1  0
 10  9  2  0
 11 12  1  0
 12 13  1  0
 13 14  1  1
 15 16  1  6
 15 13  1  0
 16  9  1  0
 17 15  1  0
 18 17  2  0
 19 17  1  0
M  END
$$$$
