GSI.pdb
     RDKit          3D

 19 18  0  0  1  0  0  0  0  0999 V2000
   15.7323  -13.9315  -15.8992 N   0  0  0  0  0  0  0  0  0  0  0  0
   16.1121  -12.7700  -16.6442 C   0  0  0  0  0  0  0  0  0  0  0  0
   17.3877  -12.1733  -16.1260 C   0  0  0  0  0  0  0  0  0  0  0  0
   17.3234  -11.4364  -15.1230 O   0  0  0  0  0  0  0  0  0  0  0  0
   21.1390  -13.8369  -16.3510 O   0  0  0  0  0  0  0  0  0  0  0  0
   21.0013  -12.6001  -16.9749 C   0  0  0  0  0  0  0  0  0  0  0  0
   19.8837  -11.8694  -16.2819 C   0  0  2  0  0  0  0  0  0  0  0  0
   18.6334  -12.4294  -16.7456 N   0  0  0  0  0  0  0  0  0  0  0  0
   19.9130  -10.4040  -16.5823 C   0  0  0  0  0  0  0  0  0  0  0  0
   19.5815   -9.9979  -17.7262 O   0  0  0  0  0  0  0  0  0  0  0  0
   17.9202   -5.0622  -15.4980 C   0  0  0  0  0  0  0  0  0  0  0  0
   19.2014   -5.8054  -15.7883 C   0  0  0  0  0  0  0  0  0  0  0  0
   19.1374   -7.2694  -15.5751 C   0  0  2  0  0  0  0  0  0  0  0  0
   18.8897   -7.5019  -14.0863 C   0  0  0  0  0  0  0  0  0  0  0  0
   20.3503   -8.0562  -15.9425 C   0  0  2  0  0  0  0  0  0  0  0  0
   20.3071   -9.4455  -15.6081 N   0  0  0  0  0  0  0  0  0  0  0  0
   21.5356   -7.4648  -15.2907 C   0  0  0  0  0  0  0  0  0  0  0  0
   21.9874   -6.3753  -15.6994 O   0  0  0  0  0  0  0  0  0  0  0  0
   22.1491   -8.1018  -14.2347 O   0  0  0  0  0  0  0  0  0  0  0  0
  2  1  1  0
  3  4  2  0
  3  2  1  0
  6  5  1  0
  7  8  1  0
  7  6  1  6
  8  3  1  0
  9  7  1  0
 10  9  2  0
 11 12  1  0
 12 13  1  0
 13 14  1  1
 15 16  1  1
 15 13  1  0
 16  9  1  0
 17 15  1  0
 18 17  2  0
 19 17  1  0
M  END
$$$$
