GSI.pdb
     RDKit          3D

 19 18  0  0  1  0  0  0  0  0999 V2000
   16.4031  -12.7312  -14.7792 N   0  0  0  0  0  0  0  0  0  0  0  0
   16.4152  -11.3035  -14.8792 C   0  0  0  0  0  0  0  0  0  0  0  0
   16.7265  -10.6592  -13.5603 C   0  0  0  0  0  0  0  0  0  0  0  0
   16.4511  -11.2906  -12.5216 O   0  0  0  0  0  0  0  0  0  0  0  0
   18.2777   -6.8401  -13.4555 O   0  0  0  0  0  0  0  0  0  0  0  0
   18.7401   -7.7362  -12.4957 C   0  0  0  0  0  0  0  0  0  0  0  0
   17.6342   -8.7212  -12.2310 C   0  0  2  0  0  0  0  0  0  0  0  0
   17.3145   -9.3750  -13.4809 N   0  0  0  0  0  0  0  0  0  0  0  0
   16.4105   -8.0463  -11.6965 C   0  0  0  0  0  0  0  0  0  0  0  0
   15.5064   -7.6798  -12.4913 O   0  0  0  0  0  0  0  0  0  0  0  0
   12.1547   -7.4855   -8.2363 C   0  0  0  0  0  0  0  0  0  0  0  0
   13.4431   -6.7611   -7.9300 C   0  0  0  0  0  0  0  0  0  0  0  0
   14.6680   -7.4237   -8.4331 C   0  0  2  0  0  0  0  0  0  0  0  0
   15.8238   -6.9842   -7.5369 C   0  0  0  0  0  0  0  0  0  0  0  0
   15.0676   -7.1214   -9.8381 C   0  0  2  0  0  0  0  0  0  0  0  0
   16.2338   -7.8030  -10.3064 N   0  0  0  0  0  0  0  0  0  0  0  0
   15.2964   -5.6700   -9.9823 C   0  0  0  0  0  0  0  0  0  0  0  0
   14.3218   -4.8914  -10.0262 O   0  0  0  0  0  0  0  0  0  0  0  0
   16.5748   -5.1644  -10.0682 O   0  0  0  0  0  0  0  0  0  0  0  0
  2  1  1  0
  3  4  2  0
  3  2  1  0
  6  5  1  0
  7  8  1  0
  7  6  1  6
  8  3  1  0
  9  7  1  0
 10  9  2  0
 11 12  1  0
 12 13  1  0
 13 14  1  1
 15 16  1  1
 15 13  1  0
 16  9  1  0
 17 15  1  0
 18 17  2  0
 19 17  1  0
M  END
$$$$
