GSI.pdb
     RDKit          3D

 19 18  0  0  1  0  0  0  0  0999 V2000
   14.5644  -12.2845  -14.8397 N   0  0  0  0  0  0  0  0  0  0  0  0
   15.2590  -12.6467  -16.0376 C   0  0  0  0  0  0  0  0  0  0  0  0
   16.3793  -11.6943  -16.3368 C   0  0  0  0  0  0  0  0  0  0  0  0
   17.5067  -12.1722  -16.5690 O   0  0  0  0  0  0  0  0  0  0  0  0
   15.8564   -7.6398  -15.9056 O   0  0  0  0  0  0  0  0  0  0  0  0
   16.5202   -8.0408  -17.0616 C   0  0  0  0  0  0  0  0  0  0  0  0
   17.1979   -9.3496  -16.7594 C   0  0  2  0  0  0  0  0  0  0  0  0
   16.1786  -10.2941  -16.3584 N   0  0  0  0  0  0  0  0  0  0  0  0
   18.2042   -9.2090  -15.6611 C   0  0  0  0  0  0  0  0  0  0  0  0
   17.8605   -9.4335  -14.4716 O   0  0  0  0  0  0  0  0  0  0  0  0
   23.6377  -10.7327  -13.7809 C   0  0  0  0  0  0  0  0  0  0  0  0
   22.5751   -9.6609  -13.7586 C   0  0  0  0  0  0  0  0  0  0  0  0
   21.5763   -9.7476  -14.8483 C   0  0  2  0  0  0  0  0  0  0  0  0
   22.3285   -9.5935  -16.1684 C   0  0  0  0  0  0  0  0  0  0  0  0
   20.4880   -8.7273  -14.8460 C   0  0  2  0  0  0  0  0  0  0  0  0
   19.5494   -8.8264  -15.9198 N   0  0  0  0  0  0  0  0  0  0  0  0
   21.0816   -7.3759  -14.8795 C   0  0  0  0  0  0  0  0  0  0  0  0
   21.0878   -6.7293  -15.9473 O   0  0  0  0  0  0  0  0  0  0  0  0
   21.6287   -6.8193  -13.7445 O   0  0  0  0  0  0  0  0  0  0  0  0
  2  1  1  0
  3  4  2  0
  3  2  1  0
  6  5  1  0
  7  8  1  0
  7  6  1  1
  8  3  1  0
  9  7  1  0
 10  9  2  0
 11 12  1  0
 12 13  1  0
 13 14  1  6
 15 16  1  6
 15 13  1  0
 16  9  1  0
 17 15  1  0
 18 17  2  0
 19 17  1  0
M  END
$$$$
