GSI.pdb
     RDKit          3D

 19 18  0  0  1  0  0  0  0  0999 V2000
   16.6084  -14.4626  -17.2875 N   0  0  0  0  0  0  0  0  0  0  0  0
   16.6219  -13.5373  -16.1957 C   0  0  0  0  0  0  0  0  0  0  0  0
   17.5654  -12.3980  -16.4479 C   0  0  0  0  0  0  0  0  0  0  0  0
   18.7822  -12.5947  -16.2636 O   0  0  0  0  0  0  0  0  0  0  0  0
   16.9286   -9.2656  -19.1034 O   0  0  0  0  0  0  0  0  0  0  0  0
   17.1537   -8.9215  -17.7735 C   0  0  0  0  0  0  0  0  0  0  0  0
   17.9816  -10.0175  -17.1598 C   0  0  2  0  0  0  0  0  0  0  0  0
   17.1040  -11.1331  -16.8819 N   0  0  0  0  0  0  0  0  0  0  0  0
   18.6340   -9.5707  -15.8896 C   0  0  0  0  0  0  0  0  0  0  0  0
   17.9527   -9.4972  -14.8342 O   0  0  0  0  0  0  0  0  0  0  0  0
   23.7238  -11.1203  -14.4574 C   0  0  0  0  0  0  0  0  0  0  0  0
   22.2704  -10.7231  -14.5471 C   0  0  0  0  0  0  0  0  0  0  0  0
   22.0057   -9.2761  -14.3767 C   0  0  2  0  0  0  0  0  0  0  0  0
   22.3712   -8.9130  -12.9391 C   0  0  0  0  0  0  0  0  0  0  0  0
   20.6034   -8.8183  -14.5982 C   0  0  2  0  0  0  0  0  0  0  0  0
   20.0121   -9.2231  -15.8353 N   0  0  0  0  0  0  0  0  0  0  0  0
   20.5505   -7.3446  -14.5257 C   0  0  0  0  0  0  0  0  0  0  0  0
   20.6133   -6.7771  -13.4157 O   0  0  0  0  0  0  0  0  0  0  0  0
   20.4334   -6.5876  -15.6706 O   0  0  0  0  0  0  0  0  0  0  0  0
  2  1  1  0
  3  4  2  0
  3  2  1  0
  6  5  1  0
  7  8  1  0
  7  6  1  1
  8  3  1  0
  9  7  1  0
 10  9  2  0
 11 12  1  0
 12 13  1  0
 13 14  1  1
 15 16  1  6
 15 13  1  0
 16  9  1  0
 17 15  1  0
 18 17  2  0
 19 17  1  0
M  END
$$$$
