GSI.pdb
     RDKit          3D

 19 18  0  0  1  0  0  0  0  0999 V2000
   16.6296  -11.8382  -14.5790 N   0  0  0  0  0  0  0  0  0  0  0  0
   17.0540  -10.4715  -14.6004 C   0  0  0  0  0  0  0  0  0  0  0  0
   17.1415   -9.8978  -13.2166 C   0  0  0  0  0  0  0  0  0  0  0  0
   16.5543  -10.4988  -12.2962 O   0  0  0  0  0  0  0  0  0  0  0  0
   18.8303   -6.1866  -12.6009 O   0  0  0  0  0  0  0  0  0  0  0  0
   19.1308   -7.1605  -11.6527 C   0  0  0  0  0  0  0  0  0  0  0  0
   17.9830   -8.1328  -11.6281 C   0  0  2  0  0  0  0  0  0  0  0  0
   17.8643   -8.7117  -12.9482 N   0  0  0  0  0  0  0  0  0  0  0  0
   16.6974   -7.4596  -11.2639 C   0  0  0  0  0  0  0  0  0  0  0  0
   15.9460   -7.0225  -12.1736 O   0  0  0  0  0  0  0  0  0  0  0  0
   11.8962   -7.1922   -8.5671 C   0  0  0  0  0  0  0  0  0  0  0  0
   13.0916   -6.4451   -8.0276 C   0  0  0  0  0  0  0  0  0  0  0  0
   14.4037   -7.0584   -8.3355 C   0  0  2  0  0  0  0  0  0  0  0  0
   15.3525   -6.7005   -7.1937 C   0  0  0  0  0  0  0  0  0  0  0  0
   15.0657   -6.6302   -9.6018 C   0  0  2  0  0  0  0  0  0  0  0  0
   16.2929   -7.2957   -9.9102 N   0  0  0  0  0  0  0  0  0  0  0  0
   15.3320   -5.1789   -9.5505 C   0  0  0  0  0  0  0  0  0  0  0  0
   14.3929   -4.3717   -9.7073 O   0  0  0  0  0  0  0  0  0  0  0  0
   16.6064   -4.7048   -9.3306 O   0  0  0  0  0  0  0  0  0  0  0  0
  2  1  1  0
  3  4  2  0
  3  2  1  0
  6  5  1  0
  7  8  1  0
  7  6  1  6
  8  3  1  0
  9  7  1  0
 10  9  2  0
 11 12  1  0
 12 13  1  0
 13 14  1  1
 15 16  1  1
 15 13  1  0
 16  9  1  0
 17 15  1  0
 18 17  2  0
 19 17  1  0
M  END
$$$$
