GSI.pdb
     RDKit          3D

 19 18  0  0  1  0  0  0  0  0999 V2000
   19.1410  -10.4961  -18.8953 N   0  0  0  0  0  0  0  0  0  0  0  0
   20.1081  -10.7234  -17.8651 C   0  0  0  0  0  0  0  0  0  0  0  0
   19.8601   -9.8490  -16.6711 C   0  0  0  0  0  0  0  0  0  0  0  0
   18.6781   -9.6107  -16.3562 O   0  0  0  0  0  0  0  0  0  0  0  0
   21.1418   -8.2146  -12.4995 O   0  0  0  0  0  0  0  0  0  0  0  0
   21.3789   -9.0498  -13.5877 C   0  0  0  0  0  0  0  0  0  0  0  0
   20.7295   -8.4181  -14.7887 C   0  0  2  0  0  0  0  0  0  0  0  0
   20.9245   -9.3040  -15.9152 N   0  0  0  0  0  0  0  0  0  0  0  0
   21.3261   -7.0815  -15.0992 C   0  0  0  0  0  0  0  0  0  0  0  0
   22.4039   -7.0176  -15.7454 O   0  0  0  0  0  0  0  0  0  0  0  0
   18.7240   -2.7250  -17.1937 C   0  0  0  0  0  0  0  0  0  0  0  0
   19.7613   -3.7516  -16.8083 C   0  0  0  0  0  0  0  0  0  0  0  0
   20.3730   -3.5525  -15.4745 C   0  0  2  0  0  0  0  0  0  0  0  0
   21.1644   -2.2475  -15.5271 C   0  0  0  0  0  0  0  0  0  0  0  0
   21.3105   -4.6112  -14.9997 C   0  0  2  0  0  0  0  0  0  0  0  0
   20.7090   -5.8692  -14.6839 N   0  0  0  0  0  0  0  0  0  0  0  0
   22.0264   -4.1318  -13.8008 C   0  0  0  0  0  0  0  0  0  0  0  0
   23.0158   -3.3818  -13.9296 O   0  0  0  0  0  0  0  0  0  0  0  0
   21.6139   -4.5025  -12.5399 O   0  0  0  0  0  0  0  0  0  0  0  0
  2  1  1  0
  3  4  2  0
  3  2  1  0
  6  5  1  0
  7  8  1  0
  7  6  1  1
  8  3  1  0
  9  7  1  0
 10  9  2  0
 11 12  1  0
 12 13  1  0
 13 14  1  6
 15 16  1  1
 15 13  1  0
 16  9  1  0
 17 15  1  0
 18 17  2  0
 19 17  1  0
M  END
$$$$
