NEL.pdb
     RDKit          3D

 26 25  0  0  1  0  0  0  0  0999 V2000
    7.9559  -17.7451   18.1622 N   0  0  0  0  0  0  0  0  0  0  0  0
    6.6583  -17.8897   18.7267 C   0  0  0  0  0  0  0  0  0  0  0  0
    5.9157  -18.7902   18.2047 O   0  0  0  0  0  0  0  0  0  0  0  0
    6.1990  -17.0427   19.8542 C   0  0  0  0  0  0  0  0  0  0  0  0
    7.2843  -16.0349   20.1595 C   0  0  2  0  0  0  0  0  0  0  0  0
    8.2712  -16.0073   19.0980 N   0  0  0  0  0  0  0  0  0  0  0  0
    7.9397  -16.3045   21.4641 C   0  0  0  0  0  0  0  0  0  0  0  0
    7.1810  -16.3698   22.4804 O   0  0  0  0  0  0  0  0  0  0  0  0
    9.3408  -16.4864   21.6132 N   0  0  0  0  0  0  0  0  0  0  0  0
    9.9626  -16.7457   22.9328 C   0  0  1  0  0  0  0  0  0  0  0  0
   11.3970  -16.9958   22.6383 C   0  0  0  0  0  0  0  0  0  0  0  0
   12.2961  -17.2464   23.7928 C   0  0  0  0  0  0  0  0  0  0  0  0
   13.6758  -17.4959   23.2226 C   0  0  0  0  0  0  0  0  0  0  0  0
   14.2775  -18.5451   23.6009 O   0  0  0  0  0  0  0  0  0  0  0  0
    9.6501  -15.6205   23.8108 C   0  0  0  0  0  0  0  0  0  0  0  0
    9.9730  -14.4331   23.4445 O   0  0  0  0  0  0  0  0  0  0  0  0
   14.2895  -16.6535   22.3332 O   0  0  0  0  0  0  0  0  0  0  0  0
    5.4777  -12.6843   26.6149 C   0  0  0  0  0  0  0  0  0  0  0  0
    6.9906  -12.8324   26.5308 C   0  0  2  0  0  0  0  0  0  0  0  0
    7.7082  -11.5400   26.4792 C   0  0  0  0  0  0  0  0  0  0  0  0
    7.4393  -13.9237   25.6424 C   0  0  0  0  0  0  0  0  0  0  0  0
    8.7680  -14.5165   25.9241 C   0  0  2  0  0  0  0  0  0  0  0  0
    9.0081  -15.6776   25.0620 N   0  0  0  0  0  0  0  0  0  0  0  0
    9.0486  -14.9306   27.2927 C   0  0  0  0  0  0  0  0  0  0  0  0
    8.8137  -16.2220   27.7210 O   0  0  0  0  0  0  0  0  0  0  0  0
    9.5117  -14.1323   28.1290 O   0  0  0  0  0  0  0  0  0  0  0  0
  2  3  2  0
  2  1  1  0
  4  2  1  0
  5  4  1  0
  5  6  1  6
  7  5  1  0
  7  8  2  0
  9  7  1  0
 10  9  1  0
 11 12  1  0
 10 11  1  6
 12 13  1  0
 13 17  1  0
 13 14  2  0
 15 10  1  0
 16 15  2  0
 19 20  1  6
 19 18  1  0
 21 19  1  0
 22 21  1  1
 22 23  1  0
 23 15  1  0
 24 22  1  0
 25 24  1  0
 26 24  2  0
M  END
$$$$
