NEL.pdb
     RDKit          3D

 26 25  0  0  1  0  0  0  0  0999 V2000
   13.4795  -15.2734   18.9051 N   0  0  0  0  0  0  0  0  0  0  0  0
   12.6813  -14.1122   19.1005 C   0  0  0  0  0  0  0  0  0  0  0  0
   13.1096  -13.0379   18.5554 O   0  0  0  0  0  0  0  0  0  0  0  0
   11.4271  -14.1514   19.8910 C   0  0  0  0  0  0  0  0  0  0  0  0
   10.8732  -15.5570   19.8271 C   0  0  2  0  0  0  0  0  0  0  0  0
   10.1881  -15.7813   18.5693 N   0  0  0  0  0  0  0  0  0  0  0  0
    9.9658  -15.8473   20.9658 C   0  0  0  0  0  0  0  0  0  0  0  0
    8.7582  -15.4738   20.8419 O   0  0  0  0  0  0  0  0  0  0  0  0
   10.3850  -16.5070   22.1521 N   0  0  0  0  0  0  0  0  0  0  0  0
    9.4219  -16.9421   23.1906 C   0  0  1  0  0  0  0  0  0  0  0  0
    9.6739  -18.3959   23.3624 C   0  0  0  0  0  0  0  0  0  0  0  0
    9.3675  -19.2814   22.2109 C   0  0  0  0  0  0  0  0  0  0  0  0
    9.7614  -20.6832   22.6242 C   0  0  0  0  0  0  0  0  0  0  0  0
    8.8320  -21.5382   22.7305 O   0  0  0  0  0  0  0  0  0  0  0  0
    9.6052  -16.0918   24.3644 C   0  0  0  0  0  0  0  0  0  0  0  0
   10.7923  -15.7346   24.6985 O   0  0  0  0  0  0  0  0  0  0  0  0
   11.0531  -21.0599   22.8829 O   0  0  0  0  0  0  0  0  0  0  0  0
    8.2683  -12.0316   25.3544 C   0  0  0  0  0  0  0  0  0  0  0  0
    7.2122  -13.0426   25.7796 C   0  0  2  0  0  0  0  0  0  0  0  0
    5.8613  -12.4584   25.9265 C   0  0  0  0  0  0  0  0  0  0  0  0
    7.6779  -14.0064   26.7972 C   0  0  0  0  0  0  0  0  0  0  0  0
    8.8505  -14.8415   26.4453 C   0  0  2  0  0  0  0  0  0  0  0  0
    8.5984  -15.5904   25.2105 N   0  0  0  0  0  0  0  0  0  0  0  0
    9.3249  -15.7960   27.4389 C   0  0  0  0  0  0  0  0  0  0  0  0
    9.2928  -17.1569   27.2087 O   0  0  0  0  0  0  0  0  0  0  0  0
    9.7780  -15.4179   28.5357 O   0  0  0  0  0  0  0  0  0  0  0  0
  2  3  2  0
  2  1  1  0
  4  2  1  0
  5  4  1  0
  5  6  1  6
  7  5  1  0
  7  8  2  0
  9  7  1  0
 10  9  1  0
 11 12  1  0
 10 11  1  1
 12 13  1  0
 13 17  1  0
 13 14  2  0
 15 10  1  0
 16 15  2  0
 19 20  1  1
 19 18  1  0
 21 19  1  0
 22 21  1  1
 22 23  1  0
 23 15  1  0
 24 22  1  0
 25 24  1  0
 26 24  2  0
M  END
$$$$
