NEL.pdb
     RDKit          3D

 26 25  0  0  1  0  0  0  0  0999 V2000
    8.5938  -11.5781   18.9310 N   0  0  0  0  0  0  0  0  0  0  0  0
    8.1253  -12.8926   18.6551 C   0  0  0  0  0  0  0  0  0  0  0  0
    8.1730  -13.2608   17.4316 O   0  0  0  0  0  0  0  0  0  0  0  0
    7.6126  -13.7795   19.7276 C   0  0  0  0  0  0  0  0  0  0  0  0
    8.5107  -14.9937   19.8048 C   0  0  2  0  0  0  0  0  0  0  0  0
    8.1844  -15.9399   18.7560 N   0  0  0  0  0  0  0  0  0  0  0  0
    8.4381  -15.6531   21.1330 C   0  0  0  0  0  0  0  0  0  0  0  0
    7.2968  -16.0729   21.4994 O   0  0  0  0  0  0  0  0  0  0  0  0
    9.5630  -15.8266   21.9831 N   0  0  0  0  0  0  0  0  0  0  0  0
    9.4896  -16.6250   23.2291 C   0  0  1  0  0  0  0  0  0  0  0  0
   10.5332  -17.6711   23.0762 C   0  0  0  0  0  0  0  0  0  0  0  0
   10.7163  -18.6207   24.2026 C   0  0  0  0  0  0  0  0  0  0  0  0
   11.8791  -19.5158   23.8313 C   0  0  0  0  0  0  0  0  0  0  0  0
   12.1174  -20.5008   24.5922 O   0  0  0  0  0  0  0  0  0  0  0  0
    9.6238  -15.7121   24.3618 C   0  0  0  0  0  0  0  0  0  0  0  0
   10.6254  -14.9098   24.4030 O   0  0  0  0  0  0  0  0  0  0  0  0
   12.6688  -19.3111   22.7305 O   0  0  0  0  0  0  0  0  0  0  0  0
    8.4494  -11.9983   25.6934 C   0  0  0  0  0  0  0  0  0  0  0  0
    7.3768  -12.9922   26.1173 C   0  0  2  0  0  0  0  0  0  0  0  0
    6.0553  -12.3702   26.3515 C   0  0  0  0  0  0  0  0  0  0  0  0
    7.8505  -14.0193   27.0669 C   0  0  0  0  0  0  0  0  0  0  0  0
    9.0382  -14.8095   26.6651 C   0  0  2  0  0  0  0  0  0  0  0  0
    8.7521  -15.5945   25.4605 N   0  0  0  0  0  0  0  0  0  0  0  0
    9.6093  -15.7212   27.6480 C   0  0  0  0  0  0  0  0  0  0  0  0
   10.3611  -15.2616   28.7109 O   0  0  0  0  0  0  0  0  0  0  0  0
    9.4400  -16.9523   27.5648 O   0  0  0  0  0  0  0  0  0  0  0  0
  2  3  2  0
  2  1  1  0
  4  2  1  0
  5  4  1  0
  5  6  1  6
  7  5  1  0
  7  8  2  0
  9  7  1  0
 10  9  1  0
 11 12  1  0
 10 11  1  6
 12 13  1  0
 13 17  1  0
 13 14  2  0
 15 10  1  0
 16 15  2  0
 19 20  1  1
 19 18  1  0
 21 19  1  0
 22 21  1  1
 22 23  1  0
 23 15  1  0
 24 22  1  0
 25 24  1  0
 26 24  2  0
M  END
$$$$
