NEL.pdb
     RDKit          3D

 26 25  0  0  1  0  0  0  0  0999 V2000
    8.8427  -14.0090   17.2642 N   0  0  0  0  0  0  0  0  0  0  0  0
    8.5354  -13.0809   18.2975 C   0  0  0  0  0  0  0  0  0  0  0  0
    8.5085  -11.8490   17.9563 O   0  0  0  0  0  0  0  0  0  0  0  0
    8.2633  -13.5220   19.6871 C   0  0  0  0  0  0  0  0  0  0  0  0
    8.3492  -15.0312   19.7280 C   0  0  2  0  0  0  0  0  0  0  0  0
    7.3507  -15.6250   18.8608 N   0  0  0  0  0  0  0  0  0  0  0  0
    8.2086  -15.5570   21.1093 C   0  0  0  0  0  0  0  0  0  0  0  0
    7.0252  -15.6936   21.5495 O   0  0  0  0  0  0  0  0  0  0  0  0
    9.3145  -15.9023   21.9316 N   0  0  0  0  0  0  0  0  0  0  0  0
    9.1443  -16.6277   23.2122 C   0  0  1  0  0  0  0  0  0  0  0  0
   10.0583  -17.7947   23.1163 C   0  0  0  0  0  0  0  0  0  0  0  0
    9.4876  -19.0672   22.6074 C   0  0  0  0  0  0  0  0  0  0  0  0
   10.5124  -20.1454   22.8871 C   0  0  0  0  0  0  0  0  0  0  0  0
   10.2881  -20.9171   23.8671 O   0  0  0  0  0  0  0  0  0  0  0  0
    9.3813  -15.6849   24.3028 C   0  0  0  0  0  0  0  0  0  0  0  0
   10.5399  -15.1445   24.4215 O   0  0  0  0  0  0  0  0  0  0  0  0
   11.6487  -20.3196   22.1416 O   0  0  0  0  0  0  0  0  0  0  0  0
    7.6808  -11.8972   25.2451 C   0  0  0  0  0  0  0  0  0  0  0  0
    6.8216  -12.9077   25.9925 C   0  0  2  0  0  0  0  0  0  0  0  0
    5.5078  -12.3713   26.4097 C   0  0  0  0  0  0  0  0  0  0  0  0
    7.5742  -13.7488   26.9451 C   0  0  0  0  0  0  0  0  0  0  0  0
    8.7875  -14.4264   26.4304 C   0  0  2  0  0  0  0  0  0  0  0  0
    8.4566  -15.2743   25.2812 N   0  0  0  0  0  0  0  0  0  0  0  0
    9.5538  -15.2435   27.3623 C   0  0  0  0  0  0  0  0  0  0  0  0
   10.3043  -14.6776   28.3736 O   0  0  0  0  0  0  0  0  0  0  0  0
    9.5602  -16.4863   27.2803 O   0  0  0  0  0  0  0  0  0  0  0  0
  2  3  2  0
  2  1  1  0
  4  2  1  0
  5  4  1  0
  5  6  1  6
  7  5  1  0
  7  8  2  0
  9  7  1  0
 10  9  1  0
 11 12  1  0
 10 11  1  6
 12 13  1  0
 13 17  1  0
 13 14  2  0
 15 10  1  0
 16 15  2  0
 19 20  1  1
 19 18  1  0
 21 19  1  0
 22 21  1  1
 22 23  1  0
 23 15  1  0
 24 22  1  0
 25 24  1  0
 26 24  2  0
M  END
$$$$
