NEL.pdb
     RDKit          3D

 26 25  0  0  1  0  0  0  0  0999 V2000
    9.3265  -13.1489   16.5952 N   0  0  0  0  0  0  0  0  0  0  0  0
    8.1490  -13.9402   16.4903 C   0  0  0  0  0  0  0  0  0  0  0  0
    7.7945  -14.2654   15.3057 O   0  0  0  0  0  0  0  0  0  0  0  0
    7.3818  -14.3603   17.6880 C   0  0  0  0  0  0  0  0  0  0  0  0
    8.0668  -13.7912   18.9102 C   0  0  2  0  0  0  0  0  0  0  0  0
    9.4306  -13.4084   18.6017 N   0  0  0  0  0  0  0  0  0  0  0  0
    8.0450  -14.7416   20.0506 C   0  0  0  0  0  0  0  0  0  0  0  0
    6.9019  -15.1095   20.4643 O   0  0  0  0  0  0  0  0  0  0  0  0
    9.2189  -15.2395   20.6770 N   0  0  0  0  0  0  0  0  0  0  0  0
    9.1598  -16.1592   21.8372 C   0  0  1  0  0  0  0  0  0  0  0  0
   10.1780  -17.2025   21.5518 C   0  0  0  0  0  0  0  0  0  0  0  0
    9.8434  -18.2173   20.5212 C   0  0  0  0  0  0  0  0  0  0  0  0
   11.0656  -19.0964   20.3644 C   0  0  0  0  0  0  0  0  0  0  0  0
   12.1942  -18.5202   20.3430 O   0  0  0  0  0  0  0  0  0  0  0  0
    9.3399  -15.3687   23.0525 C   0  0  0  0  0  0  0  0  0  0  0  0
    9.6789  -14.1345   22.9512 O   0  0  0  0  0  0  0  0  0  0  0  0
   11.0054  -20.4601   20.2472 O   0  0  0  0  0  0  0  0  0  0  0  0
    5.6639  -13.0263   26.3002 C   0  0  0  0  0  0  0  0  0  0  0  0
    7.1688  -13.2561   26.3232 C   0  0  2  0  0  0  0  0  0  0  0  0
    7.9456  -12.0454   26.6676 C   0  0  0  0  0  0  0  0  0  0  0  0
    7.6611  -14.1232   25.2336 C   0  0  0  0  0  0  0  0  0  0  0  0
    8.8713  -14.9318   25.5128 C   0  0  2  0  0  0  0  0  0  0  0  0
    9.1780  -15.8095   24.3793 N   0  0  0  0  0  0  0  0  0  0  0  0
    8.8708  -15.7602   26.7114 C   0  0  0  0  0  0  0  0  0  0  0  0
    9.5445  -15.3797   27.8549 O   0  0  0  0  0  0  0  0  0  0  0  0
    8.2609  -16.8456   26.7485 O   0  0  0  0  0  0  0  0  0  0  0  0
  2  3  2  0
  2  1  1  0
  4  2  1  0
  5  4  1  0
  5  6  1  6
  7  5  1  0
  7  8  2  0
  9  7  1  0
 10  9  1  0
 11 12  1  0
 10 11  1  6
 12 13  1  0
 13 17  1  0
 13 14  2  0
 15 10  1  0
 16 15  2  0
 19 20  1  6
 19 18  1  0
 21 19  1  0
 22 21  1  6
 22 23  1  0
 23 15  1  0
 24 22  1  0
 25 24  1  0
 26 24  2  0
M  END
$$$$
