NEL.pdb
     RDKit          3D

 26 25  0  0  1  0  0  0  0  0999 V2000
    9.1489  -12.8053   17.6572 N   0  0  0  0  0  0  0  0  0  0  0  0
    7.7964  -13.2245   17.7933 C   0  0  0  0  0  0  0  0  0  0  0  0
    7.0055  -12.8862   16.8473 O   0  0  0  0  0  0  0  0  0  0  0  0
    7.3363  -14.0076   18.9658 C   0  0  0  0  0  0  0  0  0  0  0  0
    8.4598  -14.0462   19.9772 C   0  0  2  0  0  0  0  0  0  0  0  0
    9.6806  -14.5369   19.3686 N   0  0  0  0  0  0  0  0  0  0  0  0
    8.1099  -14.8683   21.1630 C   0  0  0  0  0  0  0  0  0  0  0  0
    7.1199  -14.4771   21.8557 O   0  0  0  0  0  0  0  0  0  0  0  0
    8.8194  -16.0399   21.5399 N   0  0  0  0  0  0  0  0  0  0  0  0
    8.4774  -16.8059   22.7612 C   0  0  1  0  0  0  0  0  0  0  0  0
    9.0472  -18.1593   22.5371 C   0  0  0  0  0  0  0  0  0  0  0  0
    8.9657  -19.1275   23.6596 C   0  0  0  0  0  0  0  0  0  0  0  0
    8.3387  -20.3872   23.1020 C   0  0  0  0  0  0  0  0  0  0  0  0
    9.1064  -21.3747   22.8980 O   0  0  0  0  0  0  0  0  0  0  0  0
    8.9691  -16.0602   23.9173 C   0  0  0  0  0  0  0  0  0  0  0  0
   10.2072  -15.7234   23.9637 O   0  0  0  0  0  0  0  0  0  0  0  0
    7.0041  -20.5034   22.8142 O   0  0  0  0  0  0  0  0  0  0  0  0
    8.2783  -12.0419   25.3808 C   0  0  0  0  0  0  0  0  0  0  0  0
    7.2355  -12.9989   25.9418 C   0  0  2  0  0  0  0  0  0  0  0  0
    5.9833  -12.3299   26.3570 C   0  0  0  0  0  0  0  0  0  0  0  0
    7.7937  -14.0530   26.8127 C   0  0  0  0  0  0  0  0  0  0  0  0
    8.7884  -14.9690   26.2064 C   0  0  2  0  0  0  0  0  0  0  0  0
    8.2216  -15.6435   25.0346 N   0  0  0  0  0  0  0  0  0  0  0  0
    9.3679  -15.9995   27.0582 C   0  0  0  0  0  0  0  0  0  0  0  0
    9.1120  -17.3400   26.8492 O   0  0  0  0  0  0  0  0  0  0  0  0
   10.1173  -15.7078   28.0093 O   0  0  0  0  0  0  0  0  0  0  0  0
  2  3  2  0
  2  1  1  0
  4  2  1  0
  5  4  1  0
  5  6  1  6
  7  5  1  0
  7  8  2  0
  9  7  1  0
 10  9  1  0
 11 12  1  0
 10 11  1  6
 12 13  1  0
 13 17  1  0
 13 14  2  0
 15 10  1  0
 16 15  2  0
 19 20  1  1
 19 18  1  0
 21 19  1  0
 22 21  1  1
 22 23  1  0
 23 15  1  0
 24 22  1  0
 25 24  1  0
 26 24  2  0
M  END
$$$$
