NEL.pdb
     RDKit          3D

 26 25  0  0  1  0  0  0  0  0999 V2000
    7.8142  -12.2181   17.4686 N   0  0  0  0  0  0  0  0  0  0  0  0
    7.9025  -13.6360   17.5400 C   0  0  0  0  0  0  0  0  0  0  0  0
    8.2842  -14.2295   16.4737 O   0  0  0  0  0  0  0  0  0  0  0  0
    7.5701  -14.3772   18.7809 C   0  0  0  0  0  0  0  0  0  0  0  0
    8.5996  -14.0244   19.8309 C   0  0  2  0  0  0  0  0  0  0  0  0
    9.9414  -14.1607   19.2991 N   0  0  0  0  0  0  0  0  0  0  0  0
    8.4461  -14.8484   21.0563 C   0  0  0  0  0  0  0  0  0  0  0  0
    7.2856  -14.8948   21.5703 O   0  0  0  0  0  0  0  0  0  0  0  0
    9.5158  -15.5647   21.6569 N   0  0  0  0  0  0  0  0  0  0  0  0
    9.3086  -16.4510   22.8260 C   0  0  1  0  0  0  0  0  0  0  0  0
   10.3058  -17.5399   22.6633 C   0  0  0  0  0  0  0  0  0  0  0  0
   10.3754  -18.5658   23.7341 C   0  0  0  0  0  0  0  0  0  0  0  0
   11.4555  -19.5452   23.3277 C   0  0  0  0  0  0  0  0  0  0  0  0
   11.1312  -20.4589   22.5116 O   0  0  0  0  0  0  0  0  0  0  0  0
    9.4039  -15.6369   24.0353 C   0  0  0  0  0  0  0  0  0  0  0  0
   10.4709  -14.9552   24.2477 O   0  0  0  0  0  0  0  0  0  0  0  0
   12.7424  -19.4874   23.7945 O   0  0  0  0  0  0  0  0  0  0  0  0
    7.9502  -11.8425   25.4979 C   0  0  0  0  0  0  0  0  0  0  0  0
    6.9127  -12.9350   25.7177 C   0  0  2  0  0  0  0  0  0  0  0  0
    5.5330  -12.4198   25.8546 C   0  0  0  0  0  0  0  0  0  0  0  0
    7.3566  -14.0114   26.6264 C   0  0  0  0  0  0  0  0  0  0  0  0
    8.6084  -14.7194   26.2689 C   0  0  2  0  0  0  0  0  0  0  0  0
    8.4278  -15.4978   25.0398 N   0  0  0  0  0  0  0  0  0  0  0  0
    9.1891  -15.6125   27.2630 C   0  0  0  0  0  0  0  0  0  0  0  0
    9.1470  -16.9847   27.1161 O   0  0  0  0  0  0  0  0  0  0  0  0
    9.7461  -15.1695   28.2852 O   0  0  0  0  0  0  0  0  0  0  0  0
  2  3  2  0
  2  1  1  0
  4  2  1  0
  5  4  1  0
  5  6  1  6
  7  5  1  0
  7  8  2  0
  9  7  1  0
 10  9  1  0
 11 12  1  0
 10 11  1  1
 12 13  1  0
 13 17  1  0
 13 14  2  0
 15 10  1  0
 16 15  2  0
 19 20  1  1
 19 18  1  0
 21 19  1  0
 22 21  1  1
 22 23  1  0
 23 15  1  0
 24 22  1  0
 25 24  1  0
 26 24  2  0
M  END
$$$$
