TFE.pdb
     RDKit          3D

 28 28  0  0  1  0  0  0  0  0999 V2000
   28.9434  -18.0610  -14.2080 C   0  0  0  0  0  0  0  0  0  0  0  0
   27.7998  -18.9120  -13.7464 C   0  0  1  0  0  0  0  0  0  0  0  0
   26.8288  -18.9851  -14.7430 O   0  0  0  0  0  0  0  0  0  0  0  0
   28.2506  -20.3029  -13.3424 C   0  0  2  0  0  0  0  0  0  0  0  0
   28.8775  -21.0033  -14.4342 N   0  0  0  0  0  0  0  0  0  0  0  0
   27.0984  -21.1148  -12.8574 C   0  0  0  0  0  0  0  0  0  0  0  0
   26.5107  -21.9607  -13.5807 O   0  0  0  0  0  0  0  0  0  0  0  0
   26.6133  -20.9554  -11.5256 N   0  0  0  0  0  0  0  0  0  0  0  0
   25.3878  -21.4987  -11.0327 C   0  0  1  0  0  0  0  0  0  0  0  0
   25.4255  -21.7619   -9.5424 C   0  0  0  0  0  0  0  0  0  0  0  0
   26.3925  -20.8755   -8.8521 C   0  0  0  0  0  0  0  0  0  0  0  0
   26.0074  -19.6285   -8.3717 C   0  0  0  0  0  0  0  0  0  0  0  0
   26.9248  -18.8205   -7.7324 C   0  0  0  0  0  0  0  0  0  0  0  0
   28.2429  -19.1959   -7.5393 C   0  0  0  0  0  0  0  0  0  0  0  0
   28.6183  -20.4335   -8.0181 C   0  0  0  0  0  0  0  0  0  0  0  0
   27.7051  -21.2436   -8.6570 C   0  0  0  0  0  0  0  0  0  0  0  0
   24.2257  -20.5983  -11.3120 C   0  0  0  0  0  0  0  0  0  0  0  0
   24.3060  -19.3563  -11.1353 O   0  0  0  0  0  0  0  0  0  0  0  0
   22.9854  -21.0928  -11.7854 N   0  0  0  0  0  0  0  0  0  0  0  0
   21.9008  -20.1622  -12.2321 C   0  0  1  0  0  0  0  0  0  0  0  0
   22.0622  -19.9829  -13.6925 C   0  0  0  0  0  0  0  0  0  0  0  0
   22.0480  -21.1425  -14.5828 C   0  0  0  0  0  0  0  0  0  0  0  0
   22.1075  -20.9767  -16.0273 C   0  0  0  0  0  0  0  0  0  0  0  0
   22.1218  -19.8252  -16.5535 O   0  0  0  0  0  0  0  0  0  0  0  0
   20.6587  -20.8618  -11.8862 C   0  0  0  0  0  0  0  0  0  0  0  0
   20.5588  -22.0451  -11.5259 O   0  0  0  0  0  0  0  0  0  0  0  0
   22.1536  -22.0589  -16.8946 O   0  0  0  0  0  0  0  0  0  0  0  0
   19.4377  -20.1589  -11.9556 O   0  0  0  0  0  0  0  0  0  0  0  0
  2  4  1  0
  2  1  1  6
  3  2  1  0
  4  6  1  0
  4  5  1  6
  6  7  2  0
  8  9  1  0
  8  6  1  0
 10 11  1  0
  9 10  1  1
 11 12  2  0
 12 13  1  0
 14 13  2  0
 15 14  1  0
 16 15  2  0
 16 11  1  0
 17 18  2  0
 17  9  1  0
 19 17  1  0
 20 19  1  0
 20 25  1  0
 20 21  1  6
 22 23  1  0
 22 21  1  0
 23 24  2  0
 25 28  1  0
 26 25  2  0
 27 23  1  0
M  END
$$$$
