TFE.pdb
     RDKit          3D

 28 28  0  0  1  0  0  0  0  0999 V2000
   21.4487  -12.3078  -20.5267 C   0  0  0  0  0  0  0  0  0  0  0  0
   21.7650  -11.4908  -19.3110 C   0  0  1  0  0  0  0  0  0  0  0  0
   20.6203  -11.3343  -18.5322 O   0  0  0  0  0  0  0  0  0  0  0  0
   22.8855  -12.1002  -18.4901 C   0  0  2  0  0  0  0  0  0  0  0  0
   22.5561  -13.4253  -18.0304 N   0  0  0  0  0  0  0  0  0  0  0  0
   23.1982  -11.2514  -17.3053 C   0  0  0  0  0  0  0  0  0  0  0  0
   22.8407  -11.5561  -16.1376 O   0  0  0  0  0  0  0  0  0  0  0  0
   23.9304  -10.0373  -17.4606 N   0  0  0  0  0  0  0  0  0  0  0  0
   24.2846   -9.1554  -16.3944 C   0  0  1  0  0  0  0  0  0  0  0  0
   25.7604   -8.8190  -16.3831 C   0  0  0  0  0  0  0  0  0  0  0  0
   26.6008  -10.0363  -16.2849 C   0  0  0  0  0  0  0  0  0  0  0  0
   27.1244  -10.6411  -17.4224 C   0  0  0  0  0  0  0  0  0  0  0  0
   27.9039  -11.7734  -17.3067 C   0  0  0  0  0  0  0  0  0  0  0  0
   28.1995  -12.3542  -16.0857 C   0  0  0  0  0  0  0  0  0  0  0  0
   27.6771  -11.7496  -14.9616 C   0  0  0  0  0  0  0  0  0  0  0  0
   26.8983  -10.6185  -15.0729 C   0  0  0  0  0  0  0  0  0  0  0  0
   23.5198   -7.8706  -16.4554 C   0  0  0  0  0  0  0  0  0  0  0  0
   23.1384   -7.3904  -17.5528 O   0  0  0  0  0  0  0  0  0  0  0  0
   23.1888   -7.1341  -15.2913 N   0  0  0  0  0  0  0  0  0  0  0  0
   22.2382   -5.9788  -15.3506 C   0  0  1  0  0  0  0  0  0  0  0  0
   20.9422   -6.5121  -15.8268 C   0  0  0  0  0  0  0  0  0  0  0  0
   19.7683   -5.6433  -15.8939 C   0  0  0  0  0  0  0  0  0  0  0  0
   18.4832   -6.1563  -16.3444 C   0  0  0  0  0  0  0  0  0  0  0  0
   18.4139   -7.1350  -17.1448 O   0  0  0  0  0  0  0  0  0  0  0  0
   22.1718   -5.4937  -13.9678 C   0  0  0  0  0  0  0  0  0  0  0  0
   22.4376   -6.1476  -12.9472 O   0  0  0  0  0  0  0  0  0  0  0  0
   17.2797   -5.6084  -15.9242 O   0  0  0  0  0  0  0  0  0  0  0  0
   21.7728   -4.1617  -13.7305 O   0  0  0  0  0  0  0  0  0  0  0  0
  2  4  1  0
  2  1  1  6
  3  2  1  0
  4  6  1  0
  4  5  1  1
  6  7  2  0
  8  9  1  0
  8  6  1  0
 10 11  1  0
  9 10  1  6
 11 12  2  0
 12 13  1  0
 14 13  2  0
 15 14  1  0
 16 15  2  0
 16 11  1  0
 17 18  2  0
 17  9  1  0
 19 17  1  0
 20 19  1  0
 20 25  1  0
 20 21  1  1
 22 23  1  0
 22 21  1  0
 23 24  2  0
 25 28  1  0
 26 25  2  0
 27 23  1  0
M  END
$$$$
