TFE.pdb
     RDKit          3D

 28 28  0  0  1  0  0  0  0  0999 V2000
   28.7145  -17.9193  -15.2491 C   0  0  0  0  0  0  0  0  0  0  0  0
   27.5743  -18.7538  -14.7504 C   0  0  1  0  0  0  0  0  0  0  0  0
   26.7285  -19.0837  -15.8072 O   0  0  0  0  0  0  0  0  0  0  0  0
   28.0520  -20.0075  -14.0425 C   0  0  2  0  0  0  0  0  0  0  0  0
   28.6258  -20.9579  -14.9608 N   0  0  0  0  0  0  0  0  0  0  0  0
   26.9302  -20.6677  -13.3163 C   0  0  0  0  0  0  0  0  0  0  0  0
   26.3371  -21.6846  -13.7617 O   0  0  0  0  0  0  0  0  0  0  0  0
   26.4820  -20.1560  -12.0626 N   0  0  0  0  0  0  0  0  0  0  0  0
   25.3531  -20.6456  -11.3375 C   0  0  1  0  0  0  0  0  0  0  0  0
   25.2588  -20.0624   -9.9438 C   0  0  0  0  0  0  0  0  0  0  0  0
   26.5089  -20.2716   -9.1749 C   0  0  0  0  0  0  0  0  0  0  0  0
   27.4569  -21.2027   -9.5849 C   0  0  0  0  0  0  0  0  0  0  0  0
   28.6130  -21.3803   -8.8534 C   0  0  0  0  0  0  0  0  0  0  0  0
   28.8855  -20.6614   -7.7025 C   0  0  0  0  0  0  0  0  0  0  0  0
   27.9413  -19.7397   -7.3013 C   0  0  0  0  0  0  0  0  0  0  0  0
   26.7854  -19.5593   -8.0292 C   0  0  0  0  0  0  0  0  0  0  0  0
   24.0668  -20.3567  -12.0456 C   0  0  0  0  0  0  0  0  0  0  0  0
   23.8937  -19.2789  -12.6691 O   0  0  0  0  0  0  0  0  0  0  0  0
   22.9864  -21.2730  -12.0504 N   0  0  0  0  0  0  0  0  0  0  0  0
   21.7636  -21.0235  -12.8777 C   0  0  1  0  0  0  0  0  0  0  0  0
   21.4628  -22.2846  -13.5920 C   0  0  0  0  0  0  0  0  0  0  0  0
   20.2247  -22.4200  -14.3577 C   0  0  0  0  0  0  0  0  0  0  0  0
   19.9345  -23.6371  -15.1006 C   0  0  0  0  0  0  0  0  0  0  0  0
   20.8244  -24.2041  -15.8005 O   0  0  0  0  0  0  0  0  0  0  0  0
   20.7295  -20.6726  -11.8982 C   0  0  0  0  0  0  0  0  0  0  0  0
   19.7223  -19.9797  -12.1108 O   0  0  0  0  0  0  0  0  0  0  0  0
   18.6827  -24.2353  -15.0801 O   0  0  0  0  0  0  0  0  0  0  0  0
   20.8528  -21.1484  -10.5760 O   0  0  0  0  0  0  0  0  0  0  0  0
  2  4  1  0
  2  1  1  6
  3  2  1  0
  4  6  1  0
  4  5  1  6
  6  7  2  0
  8  9  1  0
  8  6  1  0
 10 11  1  0
  9 10  1  1
 11 12  2  0
 12 13  1  0
 14 13  2  0
 15 14  1  0
 16 15  2  0
 16 11  1  0
 17 18  2  0
 17  9  1  0
 19 17  1  0
 20 19  1  0
 20 25  1  0
 20 21  1  1
 22 23  1  0
 22 21  1  0
 23 24  2  0
 25 28  1  0
 26 25  2  0
 27 23  1  0
M  END
$$$$
