TFE.pdb
     RDKit          3D

 28 28  0  0  1  0  0  0  0  0999 V2000
   21.2404  -33.2487  -13.5758 C   0  0  0  0  0  0  0  0  0  0  0  0
   21.8143  -33.6828  -12.2615 C   0  0  1  0  0  0  0  0  0  0  0  0
   21.0665  -34.7368  -11.7408 O   0  0  0  0  0  0  0  0  0  0  0  0
   23.2747  -34.0761  -12.3789 C   0  0  2  0  0  0  0  0  0  0  0  0
   23.4501  -35.2585  -13.1832 N   0  0  0  0  0  0  0  0  0  0  0  0
   23.8675  -34.3252  -11.0341 C   0  0  0  0  0  0  0  0  0  0  0  0
   24.1073  -35.4823  -10.6008 O   0  0  0  0  0  0  0  0  0  0  0  0
   24.1900  -33.2338  -10.1744 N   0  0  0  0  0  0  0  0  0  0  0  0
   24.7674  -33.3616   -8.8744 C   0  0  1  0  0  0  0  0  0  0  0  0
   25.4518  -32.0922   -8.4139 C   0  0  0  0  0  0  0  0  0  0  0  0
   26.1578  -32.2851   -7.1248 C   0  0  0  0  0  0  0  0  0  0  0  0
   27.3772  -32.9511   -7.0665 C   0  0  0  0  0  0  0  0  0  0  0  0
   28.0161  -33.1188   -5.8553 C   0  0  0  0  0  0  0  0  0  0  0  0
   27.4929  -32.6467   -4.6641 C   0  0  0  0  0  0  0  0  0  0  0  0
   26.2833  -31.9873   -4.7289 C   0  0  0  0  0  0  0  0  0  0  0  0
   25.6422  -31.8175   -5.9365 C   0  0  0  0  0  0  0  0  0  0  0  0
   23.7475  -33.7343   -7.8448 C   0  0  0  0  0  0  0  0  0  0  0  0
   22.7010  -33.0557   -7.6882 O   0  0  0  0  0  0  0  0  0  0  0  0
   23.9058  -34.8604   -6.9997 N   0  0  0  0  0  0  0  0  0  0  0  0
   22.8536  -35.2330   -6.0017 C   0  0  1  0  0  0  0  0  0  0  0  0
   23.1213  -36.6311   -5.5961 C   0  0  0  0  0  0  0  0  0  0  0  0
   24.2083  -36.9329   -4.6662 C   0  0  0  0  0  0  0  0  0  0  0  0
   24.3667  -38.2678   -4.1091 C   0  0  0  0  0  0  0  0  0  0  0  0
   24.5744  -38.4398   -2.8719 O   0  0  0  0  0  0  0  0  0  0  0  0
   23.0462  -34.2824   -4.9012 C   0  0  0  0  0  0  0  0  0  0  0  0
   22.1872  -33.9283   -4.0786 O   0  0  0  0  0  0  0  0  0  0  0  0
   24.2970  -39.4099   -4.8940 O   0  0  0  0  0  0  0  0  0  0  0  0
   24.3146  -33.6911   -4.7245 O   0  0  0  0  0  0  0  0  0  0  0  0
  2  4  1  0
  2  1  1  6
  3  2  1  0
  4  6  1  0
  4  5  1  6
  6  7  2  0
  8  9  1  0
  8  6  1  0
 10 11  1  0
  9 10  1  1
 11 12  2  0
 12 13  1  0
 14 13  2  0
 15 14  1  0
 16 15  2  0
 16 11  1  0
 17 18  2  0
 17  9  1  0
 19 17  1  0
 20 19  1  0
 20 25  1  0
 20 21  1  1
 22 23  1  0
 22 21  1  0
 23 24  2  0
 25 28  1  0
 26 25  2  0
 27 23  1  0
M  END
$$$$
