TFE.pdb
     RDKit          3D

 28 28  0  0  1  0  0  0  0  0999 V2000
   19.9066  -11.3163  -20.2846 C   0  0  0  0  0  0  0  0  0  0  0  0
   20.3274  -10.5987  -19.0383 C   0  0  1  0  0  0  0  0  0  0  0  0
   19.2424  -10.4710  -18.1737 O   0  0  0  0  0  0  0  0  0  0  0  0
   21.4814  -11.2945  -18.3417 C   0  0  2  0  0  0  0  0  0  0  0  0
   21.1191  -12.6129  -17.8875 N   0  0  0  0  0  0  0  0  0  0  0  0
   21.9503  -10.5016  -17.1698 C   0  0  0  0  0  0  0  0  0  0  0  0
   21.6299  -10.7841  -15.9859 O   0  0  0  0  0  0  0  0  0  0  0  0
   22.7980   -9.3699  -17.3571 N   0  0  0  0  0  0  0  0  0  0  0  0
   23.2810   -8.5292  -16.3084 C   0  0  1  0  0  0  0  0  0  0  0  0
   24.7861   -8.3697  -16.3364 C   0  0  0  0  0  0  0  0  0  0  0  0
   25.4795   -9.6705  -16.1790 C   0  0  0  0  0  0  0  0  0  0  0  0
   26.0383  -10.3233  -17.2723 C   0  0  0  0  0  0  0  0  0  0  0  0
   26.6789  -11.5332  -17.1018 C   0  0  0  0  0  0  0  0  0  0  0  0
   26.7973  -12.1473  -15.8671 C   0  0  0  0  0  0  0  0  0  0  0  0
   26.2408  -11.4948  -14.7871 C   0  0  0  0  0  0  0  0  0  0  0  0
   25.6003  -10.2862  -14.9532 C   0  0  0  0  0  0  0  0  0  0  0  0
   22.6721   -7.1633  -16.3627 C   0  0  0  0  0  0  0  0  0  0  0  0
   22.6799   -6.4878  -17.4229 O   0  0  0  0  0  0  0  0  0  0  0  0
   22.0612   -6.5645  -15.2334 N   0  0  0  0  0  0  0  0  0  0  0  0
   21.3862   -5.2318  -15.3343 C   0  0  1  0  0  0  0  0  0  0  0  0
   19.9963   -5.4165  -14.8599 C   0  0  0  0  0  0  0  0  0  0  0  0
   18.9984   -6.0391  -15.7281 C   0  0  0  0  0  0  0  0  0  0  0  0
   17.6662   -6.3506  -15.2325 C   0  0  0  0  0  0  0  0  0  0  0  0
   17.4544   -7.3822  -14.5294 O   0  0  0  0  0  0  0  0  0  0  0  0
   22.1700   -4.3617  -14.4509 C   0  0  0  0  0  0  0  0  0  0  0  0
   22.1376   -3.1214  -14.4251 O   0  0  0  0  0  0  0  0  0  0  0  0
   16.5703   -5.5421  -15.4987 O   0  0  0  0  0  0  0  0  0  0  0  0
   23.0578   -4.9502  -13.5260 O   0  0  0  0  0  0  0  0  0  0  0  0
  2  4  1  0
  2  1  1  6
  3  2  1  0
  4  6  1  0
  4  5  1  1
  6  7  2  0
  8  9  1  0
  8  6  1  0
 10 11  1  0
  9 10  1  6
 11 12  2  0
 12 13  1  0
 14 13  2  0
 15 14  1  0
 16 15  2  0
 16 11  1  0
 17 18  2  0
 17  9  1  0
 19 17  1  0
 20 19  1  0
 20 25  1  0
 20 21  1  1
 22 23  1  0
 22 21  1  0
 23 24  2  0
 25 28  1  0
 26 25  2  0
 27 23  1  0
M  END
$$$$
