TFE.pdb
     RDKit          3D

 28 28  0  0  1  0  0  0  0  0999 V2000
   21.8345   -9.7372  -20.4649 C   0  0  0  0  0  0  0  0  0  0  0  0
   21.4922  -11.1175  -19.9930 C   0  0  1  0  0  0  0  0  0  0  0  0
   21.2780  -11.9544  -21.0861 O   0  0  0  0  0  0  0  0  0  0  0  0
   22.5641  -11.6927  -19.0869 C   0  0  2  0  0  0  0  0  0  0  0  0
   22.2464  -13.0318  -18.6608 N   0  0  0  0  0  0  0  0  0  0  0  0
   22.7500  -10.8418  -17.8772 C   0  0  0  0  0  0  0  0  0  0  0  0
   21.9758  -10.8911  -16.8860 O   0  0  0  0  0  0  0  0  0  0  0  0
   23.8376   -9.9220  -17.8022 N   0  0  0  0  0  0  0  0  0  0  0  0
   24.1848   -9.1609  -16.6446 C   0  0  1  0  0  0  0  0  0  0  0  0
   25.6815   -9.0623  -16.4401 C   0  0  0  0  0  0  0  0  0  0  0  0
   26.2830  -10.3830  -16.1376 C   0  0  0  0  0  0  0  0  0  0  0  0
   27.6585  -10.5299  -15.9953 C   0  0  0  0  0  0  0  0  0  0  0  0
   28.1959  -11.7690  -15.7137 C   0  0  0  0  0  0  0  0  0  0  0  0
   27.4172  -12.9030  -15.5617 C   0  0  0  0  0  0  0  0  0  0  0  0
   26.0539  -12.7504  -15.7042 C   0  0  0  0  0  0  0  0  0  0  0  0
   25.5133  -11.5146  -15.9853 C   0  0  0  0  0  0  0  0  0  0  0  0
   23.6357   -7.7703  -16.7055 C   0  0  0  0  0  0  0  0  0  0  0  0
   24.0421   -6.9458  -17.5631 O   0  0  0  0  0  0  0  0  0  0  0  0
   22.6389   -7.3131  -15.8085 N   0  0  0  0  0  0  0  0  0  0  0  0
   22.1034   -5.9174  -15.8925 C   0  0  1  0  0  0  0  0  0  0  0  0
   20.6288   -6.0257  -15.9607 C   0  0  0  0  0  0  0  0  0  0  0  0
   19.8863   -6.6645  -14.8754 C   0  0  0  0  0  0  0  0  0  0  0  0
   18.4367   -6.5622  -14.7998 C   0  0  0  0  0  0  0  0  0  0  0  0
   17.7879   -5.8469  -15.6187 O   0  0  0  0  0  0  0  0  0  0  0  0
   22.5628   -5.2787  -14.6544 C   0  0  0  0  0  0  0  0  0  0  0  0
   22.4037   -4.0890  -14.3396 O   0  0  0  0  0  0  0  0  0  0  0  0
   17.6967   -7.2369  -13.8392 O   0  0  0  0  0  0  0  0  0  0  0  0
   23.2556   -6.0556  -13.7023 O   0  0  0  0  0  0  0  0  0  0  0  0
  2  4  1  0
  2  1  1  6
  3  2  1  0
  4  6  1  0
  4  5  1  1
  6  7  2  0
  8  9  1  0
  8  6  1  0
 10 11  1  0
  9 10  1  6
 11 12  2  0
 12 13  1  0
 14 13  2  0
 15 14  1  0
 16 15  2  0
 16 11  1  0
 17 18  2  0
 17  9  1  0
 19 17  1  0
 20 19  1  0
 20 25  1  0
 20 21  1  1
 22 23  1  0
 22 21  1  0
 23 24  2  0
 25 28  1  0
 26 25  2  0
 27 23  1  0
M  END
$$$$
