HMN.pdb
     RDKit          3D

 27 27  0  0  1  0  0  0  0  0999 V2000
    9.6011  -15.3592   19.8306 N   0  0  0  0  0  0  0  0  0  0  0  0
    8.6985  -16.0140   20.7266 C   0  0  1  0  0  0  0  0  0  0  0  0
    8.7468  -17.4981   20.4282 C   0  0  0  0  0  0  0  0  0  0  0  0
    8.1864  -17.7479   19.0796 C   0  0  0  0  0  0  0  0  0  0  0  0
    7.7513  -16.7956   18.1701 C   0  0  0  0  0  0  0  0  0  0  0  0
    7.3139  -17.4197   17.0678 N   0  0  0  0  0  0  0  0  0  0  0  0
    7.4533  -18.7431   17.2384 C   0  0  0  0  0  0  0  0  0  0  0  0
    7.9882  -18.9356   18.4727 N   0  0  0  0  0  0  0  0  0  0  0  0
    9.0724  -15.7365   22.1309 C   0  0  0  0  0  0  0  0  0  0  0  0
   10.2837  -15.6274   22.4443 O   0  0  0  0  0  0  0  0  0  0  0  0
    6.5207  -10.6503   26.0238 C   0  0  0  0  0  0  0  0  0  0  0  0
    6.8569  -12.3799   26.3813 S   0  0  0  0  0  0  0  0  0  0  0  0
    6.9241  -13.3839   24.8649 C   0  0  0  0  0  0  0  0  0  0  0  0
    7.1851  -14.8154   25.1498 C   0  0  0  0  0  0  0  0  0  0  0  0
    8.4140  -15.4149   24.5544 C   0  0  2  0  0  0  0  0  0  0  0  0
    8.0819  -15.5935   23.1183 N   0  0  0  0  0  0  0  0  0  0  0  0
    8.8563  -16.6849   25.1344 C   0  0  0  0  0  0  0  0  0  0  0  0
    8.1101  -17.7219   25.0685 O   0  0  0  0  0  0  0  0  0  0  0  0
   11.4480  -18.8216   23.7921 N   0  0  0  0  0  0  0  0  0  0  0  0
   12.4195  -18.4024   24.7785 C   0  0  0  0  0  0  0  0  0  0  0  0
   13.5840  -18.1656   24.4123 O   0  0  0  0  0  0  0  0  0  0  0  0
   12.0285  -18.2611   26.1880 C   0  0  0  0  0  0  0  0  0  0  0  0
   10.5681  -18.1045   26.3564 C   0  0  2  0  0  0  0  0  0  0  0  0
   10.1089  -16.8194   25.7796 N   0  0  0  0  0  0  0  0  0  0  0  0
   10.2100  -18.0946   27.8011 C   0  0  0  0  0  0  0  0  0  0  0  0
    9.7437  -17.0911   28.3428 O   0  0  0  0  0  0  0  0  0  0  0  0
   10.3859  -19.2188   28.6086 O   0  0  0  0  0  0  0  0  0  0  0  0
  2  1  1  6
  2  3  1  0
  4  8  1  0
  4  3  1  0
  5  4  2  0
  6  5  1  0
  6  7  1  0
  7  8  2  0
  9  2  1  0
 10  9  2  0
 12 11  1  0
 13 12  1  0
 14 13  1  0
 15 14  1  1
 15 16  1  0
 16  9  1  0
 17 15  1  0
 17 18  2  0
 20 21  2  0
 20 19  1  0
 22 20  1  0
 23 22  1  1
 23 24  1  0
 24 17  1  0
 25 23  1  0
 26 25  2  0
 27 25  1  0
M  END
$$$$
