HMN.pdb
     RDKit          3D

 27 27  0  0  1  0  0  0  0  0999 V2000
    8.1162  -16.0398   20.4171 N   0  0  0  0  0  0  0  0  0  0  0  0
    9.0034  -14.9333   20.6050 C   0  0  1  0  0  0  0  0  0  0  0  0
    8.4783  -13.7754   19.7820 C   0  0  0  0  0  0  0  0  0  0  0  0
    8.2715  -14.2189   18.3835 C   0  0  0  0  0  0  0  0  0  0  0  0
    8.5335  -15.4771   17.8624 C   0  0  0  0  0  0  0  0  0  0  0  0
    8.2146  -15.4802   16.5608 N   0  0  0  0  0  0  0  0  0  0  0  0
    7.7558  -14.2645   16.2271 C   0  0  0  0  0  0  0  0  0  0  0  0
    7.7939  -13.4981   17.3487 N   0  0  0  0  0  0  0  0  0  0  0  0
    9.0891  -14.5775   22.0385 C   0  0  0  0  0  0  0  0  0  0  0  0
    9.9300  -13.7268   22.4212 O   0  0  0  0  0  0  0  0  0  0  0  0
    7.1691  -11.9215   28.1734 C   0  0  0  0  0  0  0  0  0  0  0  0
    7.5430  -12.5348   26.5252 S   0  0  0  0  0  0  0  0  0  0  0  0
    6.5523  -14.0035   26.1087 C   0  0  0  0  0  0  0  0  0  0  0  0
    6.8372  -14.5046   24.7425 C   0  0  0  0  0  0  0  0  0  0  0  0
    8.2571  -14.8241   24.4170 C   0  0  2  0  0  0  0  0  0  0  0  0
    8.2360  -15.1844   22.9767 N   0  0  0  0  0  0  0  0  0  0  0  0
    8.8704  -15.8993   25.1998 C   0  0  0  0  0  0  0  0  0  0  0  0
    8.8186  -15.8807   26.4778 O   0  0  0  0  0  0  0  0  0  0  0  0
    9.3891  -19.5001   22.1701 N   0  0  0  0  0  0  0  0  0  0  0  0
    9.2036  -19.5526   23.6038 C   0  0  0  0  0  0  0  0  0  0  0  0
    8.0770  -19.8242   24.0544 O   0  0  0  0  0  0  0  0  0  0  0  0
   10.3332  -19.2881   24.5058 C   0  0  0  0  0  0  0  0  0  0  0  0
   10.1027  -18.1109   25.3701 C   0  0  2  0  0  0  0  0  0  0  0  0
    9.5336  -16.9892   24.5870 N   0  0  0  0  0  0  0  0  0  0  0  0
   11.3867  -17.6363   25.9545 C   0  0  0  0  0  0  0  0  0  0  0  0
   11.8077  -16.4974   25.7464 O   0  0  0  0  0  0  0  0  0  0  0  0
   12.1728  -18.4576   26.7634 O   0  0  0  0  0  0  0  0  0  0  0  0
  2  1  1  1
  2  3  1  0
  4  8  1  0
  4  3  1  0
  5  4  2  0
  6  5  1  0
  6  7  1  0
  7  8  2  0
  9  2  1  0
 10  9  2  0
 12 11  1  0
 13 12  1  0
 14 13  1  0
 15 14  1  1
 15 16  1  0
 16  9  1  0
 17 15  1  0
 17 18  2  0
 20 21  2  0
 20 19  1  0
 22 20  1  0
 23 22  1  6
 23 24  1  0
 24 17  1  0
 25 23  1  0
 26 25  2  0
 27 25  1  0
M  END
$$$$
