HMN.pdb
     RDKit          3D

 27 27  0  0  1  0  0  0  0  0999 V2000
    9.4798  -16.2134   19.2869 N   0  0  0  0  0  0  0  0  0  0  0  0
    8.5061  -16.4918   20.2974 C   0  0  1  0  0  0  0  0  0  0  0  0
    8.2775  -17.9889   20.3186 C   0  0  0  0  0  0  0  0  0  0  0  0
    7.6059  -18.4025   19.0644 C   0  0  0  0  0  0  0  0  0  0  0  0
    8.2126  -18.9008   17.9212 C   0  0  0  0  0  0  0  0  0  0  0  0
    7.2666  -19.1562   17.0070 N   0  0  0  0  0  0  0  0  0  0  0  0
    6.0705  -18.8384   17.5248 C   0  0  0  0  0  0  0  0  0  0  0  0
    6.2870  -18.3776   18.7848 N   0  0  0  0  0  0  0  0  0  0  0  0
    8.9721  -16.0013   21.6131 C   0  0  0  0  0  0  0  0  0  0  0  0
   10.1814  -16.1200   21.9308 O   0  0  0  0  0  0  0  0  0  0  0  0
    7.4694  -11.4733   27.7152 C   0  0  0  0  0  0  0  0  0  0  0  0
    7.3422  -11.9727   25.9928 S   0  0  0  0  0  0  0  0  0  0  0  0
    7.3521  -13.7834   25.8106 C   0  0  0  0  0  0  0  0  0  0  0  0
    7.3128  -14.2055   24.3897 C   0  0  0  0  0  0  0  0  0  0  0  0
    8.4720  -14.9943   23.8816 C   0  0  2  0  0  0  0  0  0  0  0  0
    8.0715  -15.4027   22.5114 N   0  0  0  0  0  0  0  0  0  0  0  0
    8.8469  -16.1690   24.6717 C   0  0  0  0  0  0  0  0  0  0  0  0
    8.0442  -17.1591   24.7811 O   0  0  0  0  0  0  0  0  0  0  0  0
   11.4642  -19.0822   23.8679 N   0  0  0  0  0  0  0  0  0  0  0  0
   12.2971  -18.1372   24.5791 C   0  0  0  0  0  0  0  0  0  0  0  0
   13.3104  -17.6869   24.0164 O   0  0  0  0  0  0  0  0  0  0  0  0
   11.9445  -17.7215   25.9437 C   0  0  0  0  0  0  0  0  0  0  0  0
   10.4971  -17.4637   26.0998 C   0  0  2  0  0  0  0  0  0  0  0  0
   10.0937  -16.2604   25.3352 N   0  0  0  0  0  0  0  0  0  0  0  0
   10.1655  -17.2121   27.5289 C   0  0  0  0  0  0  0  0  0  0  0  0
    9.9323  -18.1368   28.3089 O   0  0  0  0  0  0  0  0  0  0  0  0
   10.1027  -15.9198   28.0512 O   0  0  0  0  0  0  0  0  0  0  0  0
  2  1  1  6
  2  3  1  0
  4  8  1  0
  4  3  1  0
  5  4  2  0
  6  5  1  0
  6  7  1  0
  7  8  2  0
  9  2  1  0
 10  9  2  0
 12 11  1  0
 13 12  1  0
 14 13  1  0
 15 14  1  1
 15 16  1  0
 16  9  1  0
 17 15  1  0
 17 18  2  0
 20 21  2  0
 20 19  1  0
 22 20  1  0
 23 22  1  1
 23 24  1  0
 24 17  1  0
 25 23  1  0
 26 25  2  0
 27 25  1  0
M  END
$$$$
