HMN.pdb
     RDKit          3D

 27 27  0  0  1  0  0  0  0  0999 V2000
    9.4524  -15.6883   20.8114 N   0  0  0  0  0  0  0  0  0  0  0  0
    8.5492  -16.2616   21.7613 C   0  0  1  0  0  0  0  0  0  0  0  0
    8.7572  -17.7617   21.7493 C   0  0  0  0  0  0  0  0  0  0  0  0
    8.1668  -18.3311   20.5155 C   0  0  0  0  0  0  0  0  0  0  0  0
    7.0025  -17.9199   19.8840 C   0  0  0  0  0  0  0  0  0  0  0  0
    6.8065  -18.6837   18.8004 N   0  0  0  0  0  0  0  0  0  0  0  0
    7.8069  -19.5733   18.7140 C   0  0  0  0  0  0  0  0  0  0  0  0
    8.6355  -19.3508   19.7679 N   0  0  0  0  0  0  0  0  0  0  0  0
    8.7888  -15.6972   23.1077 C   0  0  0  0  0  0  0  0  0  0  0  0
    9.8931  -15.1607   23.3721 O   0  0  0  0  0  0  0  0  0  0  0  0
    7.2036  -10.3693   26.3399 C   0  0  0  0  0  0  0  0  0  0  0  0
    7.4061  -12.1053   26.7616 S   0  0  0  0  0  0  0  0  0  0  0  0
    6.6252  -13.1961   25.5318 C   0  0  0  0  0  0  0  0  0  0  0  0
    6.7604  -14.6297   25.8858 C   0  0  0  0  0  0  0  0  0  0  0  0
    8.0266  -15.3117   25.4912 C   0  0  2  0  0  0  0  0  0  0  0  0
    7.7893  -15.7566   24.0946 N   0  0  0  0  0  0  0  0  0  0  0  0
    8.4322  -16.4468   26.3230 C   0  0  0  0  0  0  0  0  0  0  0  0
    8.6870  -16.2810   27.5656 O   0  0  0  0  0  0  0  0  0  0  0  0
    6.7191  -20.5440   24.4421 N   0  0  0  0  0  0  0  0  0  0  0  0
    7.2627  -20.3705   25.7715 C   0  0  0  0  0  0  0  0  0  0  0  0
    6.4881  -20.3851   26.7441 O   0  0  0  0  0  0  0  0  0  0  0  0
    8.7075  -20.1806   25.9605 C   0  0  0  0  0  0  0  0  0  0  0  0
    9.0275  -18.8957   26.6181 C   0  0  2  0  0  0  0  0  0  0  0  0
    8.5551  -17.7556   25.7983 N   0  0  0  0  0  0  0  0  0  0  0  0
   10.4999  -18.7465   26.7776 C   0  0  0  0  0  0  0  0  0  0  0  0
   11.2361  -18.5470   25.8101 O   0  0  0  0  0  0  0  0  0  0  0  0
   11.1144  -18.8260   28.0277 O   0  0  0  0  0  0  0  0  0  0  0  0
  2  1  1  6
  2  3  1  0
  4  8  1  0
  4  3  1  0
  5  4  2  0
  6  5  1  0
  6  7  1  0
  7  8  2  0
  9  2  1  0
 10  9  2  0
 12 11  1  0
 13 12  1  0
 14 13  1  0
 15 14  1  1
 15 16  1  0
 16  9  1  0
 17 15  1  0
 17 18  2  0
 20 21  2  0
 20 19  1  0
 22 20  1  0
 23 22  1  6
 23 24  1  0
 24 17  1  0
 25 23  1  0
 26 25  2  0
 27 25  1  0
M  END
$$$$
