HMN.pdb
     RDKit          3D

 27 27  0  0  1  0  0  0  0  0999 V2000
    7.8064  -16.3683   20.2171 N   0  0  0  0  0  0  0  0  0  0  0  0
    9.2023  -16.2465   20.5053 C   0  0  1  0  0  0  0  0  0  0  0  0
    9.8228  -15.3821   19.4275 C   0  0  0  0  0  0  0  0  0  0  0  0
    8.7653  -14.5787   18.7708 C   0  0  0  0  0  0  0  0  0  0  0  0
    7.6951  -13.9486   19.3882 C   0  0  0  0  0  0  0  0  0  0  0  0
    6.9639  -13.3253   18.4541 N   0  0  0  0  0  0  0  0  0  0  0  0
    7.5287  -13.5338   17.2552 C   0  0  0  0  0  0  0  0  0  0  0  0
    8.6312  -14.3021   17.4579 N   0  0  0  0  0  0  0  0  0  0  0  0
    9.4033  -15.6576   21.8475 C   0  0  0  0  0  0  0  0  0  0  0  0
   10.5673  -15.4384   22.2649 O   0  0  0  0  0  0  0  0  0  0  0  0
    6.8513  -11.4160   27.7467 C   0  0  0  0  0  0  0  0  0  0  0  0
    7.0568  -11.8648   26.0179 S   0  0  0  0  0  0  0  0  0  0  0  0
    7.1022  -13.6695   25.7879 C   0  0  0  0  0  0  0  0  0  0  0  0
    7.3337  -14.0502   24.3736 C   0  0  0  0  0  0  0  0  0  0  0  0
    8.4471  -15.0035   24.0988 C   0  0  2  0  0  0  0  0  0  0  0  0
    8.3008  -15.3409   22.6603 N   0  0  0  0  0  0  0  0  0  0  0  0
    8.4628  -16.2247   24.9070 C   0  0  0  0  0  0  0  0  0  0  0  0
    7.6340  -17.1697   24.6691 O   0  0  0  0  0  0  0  0  0  0  0  0
   10.6780  -20.5842   26.1249 N   0  0  0  0  0  0  0  0  0  0  0  0
   11.3908  -19.5370   25.4263 C   0  0  0  0  0  0  0  0  0  0  0  0
   12.5700  -19.7365   25.0862 O   0  0  0  0  0  0  0  0  0  0  0  0
   10.7249  -18.2616   25.1276 C   0  0  0  0  0  0  0  0  0  0  0  0
    9.9673  -17.7353   26.2830 C   0  0  2  0  0  0  0  0  0  0  0  0
    9.3822  -16.4114   25.9669 N   0  0  0  0  0  0  0  0  0  0  0  0
   10.8671  -17.5534   27.4547 C   0  0  0  0  0  0  0  0  0  0  0  0
   10.6792  -18.1578   28.5117 O   0  0  0  0  0  0  0  0  0  0  0  0
   11.9632  -16.6912   27.4114 O   0  0  0  0  0  0  0  0  0  0  0  0
  2  1  1  6
  2  3  1  0
  4  8  1  0
  4  3  1  0
  5  4  2  0
  6  5  1  0
  6  7  1  0
  7  8  2  0
  9  2  1  0
 10  9  2  0
 12 11  1  0
 13 12  1  0
 14 13  1  0
 15 14  1  1
 15 16  1  0
 16  9  1  0
 17 15  1  0
 17 18  2  0
 20 21  2  0
 20 19  1  0
 22 20  1  0
 23 22  1  6
 23 24  1  0
 24 17  1  0
 25 23  1  0
 26 25  2  0
 27 25  1  0
M  END
$$$$
