HMN.pdb
     RDKit          3D

 27 27  0  0  1  0  0  0  0  0999 V2000
   11.0416  -15.9235   20.8471 N   0  0  0  0  0  0  0  0  0  0  0  0
    9.8425  -15.2808   21.2896 C   0  0  1  0  0  0  0  0  0  0  0  0
    8.6733  -15.9749   20.6225 C   0  0  0  0  0  0  0  0  0  0  0  0
    8.1022  -15.0880   19.5822 C   0  0  0  0  0  0  0  0  0  0  0  0
    8.5586  -13.8295   19.2199 C   0  0  0  0  0  0  0  0  0  0  0  0
    7.7761  -13.3514   18.2427 N   0  0  0  0  0  0  0  0  0  0  0  0
    6.8306  -14.2615   17.9642 C   0  0  0  0  0  0  0  0  0  0  0  0
    7.0373  -15.3218   18.7888 N   0  0  0  0  0  0  0  0  0  0  0  0
    9.7353  -15.3460   22.7638 C   0  0  0  0  0  0  0  0  0  0  0  0
   10.6579  -15.8723   23.4339 O   0  0  0  0  0  0  0  0  0  0  0  0
    5.6505  -11.1446   28.1169 C   0  0  0  0  0  0  0  0  0  0  0  0
    5.9143  -11.7831   26.4570 S   0  0  0  0  0  0  0  0  0  0  0  0
    7.2439  -13.0250   26.4129 C   0  0  0  0  0  0  0  0  0  0  0  0
    7.5350  -13.4878   25.0346 C   0  0  0  0  0  0  0  0  0  0  0  0
    8.6123  -14.5062   24.8718 C   0  0  2  0  0  0  0  0  0  0  0  0
    8.6082  -14.8227   23.4212 N   0  0  0  0  0  0  0  0  0  0  0  0
    8.4630  -15.7323   25.6588 C   0  0  0  0  0  0  0  0  0  0  0  0
    8.3657  -15.6763   26.9331 O   0  0  0  0  0  0  0  0  0  0  0  0
    5.7127  -19.1046   24.4647 N   0  0  0  0  0  0  0  0  0  0  0  0
    7.0641  -19.3189   23.9950 C   0  0  0  0  0  0  0  0  0  0  0  0
    7.2685  -19.4051   22.7715 O   0  0  0  0  0  0  0  0  0  0  0  0
    8.1712  -19.4319   24.9546 C   0  0  0  0  0  0  0  0  0  0  0  0
    8.2700  -18.2555   25.8447 C   0  0  2  0  0  0  0  0  0  0  0  0
    8.4172  -17.0112   25.0541 N   0  0  0  0  0  0  0  0  0  0  0  0
    9.4673  -18.3671   26.7220 C   0  0  0  0  0  0  0  0  0  0  0  0
    9.3937  -18.8443   27.8554 O   0  0  0  0  0  0  0  0  0  0  0  0
   10.7267  -17.9369   26.3030 O   0  0  0  0  0  0  0  0  0  0  0  0
  2  1  1  6
  2  3  1  0
  4  8  1  0
  4  3  1  0
  5  4  2  0
  6  5  1  0
  6  7  1  0
  7  8  2  0
  9  2  1  0
 10  9  2  0
 12 11  1  0
 13 12  1  0
 14 13  1  0
 15 14  1  6
 15 16  1  0
 16  9  1  0
 17 15  1  0
 17 18  2  0
 20 21  2  0
 20 19  1  0
 22 20  1  0
 23 22  1  6
 23 24  1  0
 24 17  1  0
 25 23  1  0
 26 25  2  0
 27 25  1  0
M  END
$$$$
