HMN.pdb
     RDKit          3D

 27 27  0  0  1  0  0  0  0  0999 V2000
   10.1483  -15.1914   19.4143 N   0  0  0  0  0  0  0  0  0  0  0  0
    8.8325  -15.2198   19.9752 C   0  0  1  0  0  0  0  0  0  0  0  0
    8.1915  -16.5347   19.5827 C   0  0  0  0  0  0  0  0  0  0  0  0
    7.8595  -16.5093   18.1390 C   0  0  0  0  0  0  0  0  0  0  0  0
    8.2083  -15.5288   17.2223 C   0  0  0  0  0  0  0  0  0  0  0  0
    7.7219  -15.8687   16.0208 N   0  0  0  0  0  0  0  0  0  0  0  0
    7.0711  -17.0364   16.1344 C   0  0  0  0  0  0  0  0  0  0  0  0
    7.1600  -17.4218   17.4345 N   0  0  0  0  0  0  0  0  0  0  0  0
    8.8945  -15.0708   21.4458 C   0  0  0  0  0  0  0  0  0  0  0  0
    9.8863  -15.5131   22.0767 O   0  0  0  0  0  0  0  0  0  0  0  0
    7.2292  -11.7054   27.7833 C   0  0  0  0  0  0  0  0  0  0  0  0
    7.6210  -12.1472   26.0852 S   0  0  0  0  0  0  0  0  0  0  0  0
    6.3466  -13.2211   25.3539 C   0  0  0  0  0  0  0  0  0  0  0  0
    6.6186  -13.5256   23.9285 C   0  0  0  0  0  0  0  0  0  0  0  0
    7.8492  -14.3106   23.6229 C   0  0  2  0  0  0  0  0  0  0  0  0
    7.8513  -14.4373   22.1436 N   0  0  0  0  0  0  0  0  0  0  0  0
    7.9397  -15.6333   24.2453 C   0  0  0  0  0  0  0  0  0  0  0  0
    7.1628  -16.5790   23.8729 O   0  0  0  0  0  0  0  0  0  0  0  0
    8.9769  -19.9388   24.8484 N   0  0  0  0  0  0  0  0  0  0  0  0
    9.8375  -19.1649   23.9805 C   0  0  0  0  0  0  0  0  0  0  0  0
   10.3121  -19.7063   22.9667 O   0  0  0  0  0  0  0  0  0  0  0  0
   10.1408  -17.7628   24.2991 C   0  0  0  0  0  0  0  0  0  0  0  0
    9.4102  -17.2834   25.4917 C   0  0  2  0  0  0  0  0  0  0  0  0
    8.8770  -15.9195   25.2665 N   0  0  0  0  0  0  0  0  0  0  0  0
   10.3220  -17.2140   26.6661 C   0  0  0  0  0  0  0  0  0  0  0  0
   10.5714  -18.2092   27.3483 O   0  0  0  0  0  0  0  0  0  0  0  0
   10.9356  -16.0210   27.0495 O   0  0  0  0  0  0  0  0  0  0  0  0
  2  1  1  1
  2  3  1  0
  4  8  1  0
  4  3  1  0
  5  4  2  0
  6  5  1  0
  6  7  1  0
  7  8  2  0
  9  2  1  0
 10  9  2  0
 12 11  1  0
 13 12  1  0
 14 13  1  0
 15 14  1  1
 15 16  1  0
 16  9  1  0
 17 15  1  0
 17 18  2  0
 20 21  2  0
 20 19  1  0
 22 20  1  0
 23 22  1  6
 23 24  1  0
 24 17  1  0
 25 23  1  0
 26 25  2  0
 27 25  1  0
M  END
$$$$
