HMN.pdb
     RDKit          3D

 27 27  0  0  1  0  0  0  0  0999 V2000
    8.9091  -12.8516   19.5372 N   0  0  0  0  0  0  0  0  0  0  0  0
    8.2320  -13.8676   20.2827 C   0  0  1  0  0  0  0  0  0  0  0  0
    8.3945  -15.1747   19.5352 C   0  0  0  0  0  0  0  0  0  0  0  0
    7.6935  -15.0878   18.2328 C   0  0  0  0  0  0  0  0  0  0  0  0
    7.1945  -13.9420   17.6315 C   0  0  0  0  0  0  0  0  0  0  0  0
    6.6308  -14.2783   16.4632 N   0  0  0  0  0  0  0  0  0  0  0  0
    6.7508  -15.6036   16.2929 C   0  0  0  0  0  0  0  0  0  0  0  0
    7.4026  -16.0917   17.3808 N   0  0  0  0  0  0  0  0  0  0  0  0
    8.7857  -13.9597   21.6516 C   0  0  0  0  0  0  0  0  0  0  0  0
   10.0235  -13.8482   21.8328 O   0  0  0  0  0  0  0  0  0  0  0  0
    6.1916  -11.0355   26.6849 C   0  0  0  0  0  0  0  0  0  0  0  0
    6.3396  -12.7043   27.3373 S   0  0  0  0  0  0  0  0  0  0  0  0
    7.6027  -13.6684   26.4501 C   0  0  0  0  0  0  0  0  0  0  0  0
    7.4128  -13.6254   24.9801 C   0  0  0  0  0  0  0  0  0  0  0  0
    8.4519  -14.2873   24.1398 C   0  0  2  0  0  0  0  0  0  0  0  0
    7.9369  -14.1711   22.7521 N   0  0  0  0  0  0  0  0  0  0  0  0
    8.7409  -15.6873   24.4580 C   0  0  0  0  0  0  0  0  0  0  0  0
    7.8518  -16.5893   24.2781 O   0  0  0  0  0  0  0  0  0  0  0  0
   11.3538  -18.5616   22.7343 N   0  0  0  0  0  0  0  0  0  0  0  0
   12.0915  -17.7854   23.7071 C   0  0  0  0  0  0  0  0  0  0  0  0
   13.0489  -17.0920   23.3214 O   0  0  0  0  0  0  0  0  0  0  0  0
   11.7091  -17.8214   25.1255 C   0  0  0  0  0  0  0  0  0  0  0  0
   10.2800  -17.5047   25.3338 C   0  0  2  0  0  0  0  0  0  0  0  0
    9.9963  -16.0975   24.9669 N   0  0  0  0  0  0  0  0  0  0  0  0
    9.9149  -17.6708   26.7672 C   0  0  0  0  0  0  0  0  0  0  0  0
    9.9264  -16.7194   27.5498 O   0  0  0  0  0  0  0  0  0  0  0  0
    9.5437  -18.9096   27.2911 O   0  0  0  0  0  0  0  0  0  0  0  0
  2  1  1  6
  2  3  1  0
  4  8  1  0
  4  3  1  0
  5  4  2  0
  6  5  1  0
  6  7  1  0
  7  8  2  0
  9  2  1  0
 10  9  2  0
 12 11  1  0
 13 12  1  0
 14 13  1  0
 15 14  1  1
 15 16  1  0
 16  9  1  0
 17 15  1  0
 17 18  2  0
 20 21  2  0
 20 19  1  0
 22 20  1  0
 23 22  1  1
 23 24  1  0
 24 17  1  0
 25 23  1  0
 26 25  2  0
 27 25  1  0
M  END
$$$$
