HMN.pdb
     RDKit          3D

 27 27  0  0  1  0  0  0  0  0999 V2000
   11.4356  -14.8330   20.2875 N   0  0  0  0  0  0  0  0  0  0  0  0
   10.0934  -14.5822   20.7144 C   0  0  1  0  0  0  0  0  0  0  0  0
    9.1771  -15.4790   19.9081 C   0  0  0  0  0  0  0  0  0  0  0  0
    8.2917  -14.6454   19.0618 C   0  0  0  0  0  0  0  0  0  0  0  0
    8.3039  -13.2628   18.9545 C   0  0  0  0  0  0  0  0  0  0  0  0
    7.3513  -12.8886   18.0895 N   0  0  0  0  0  0  0  0  0  0  0  0
    6.7262  -13.9857   17.6364 C   0  0  0  0  0  0  0  0  0  0  0  0
    7.3079  -15.0572   18.2366 N   0  0  0  0  0  0  0  0  0  0  0  0
    9.9560  -14.8395   22.1648 C   0  0  0  0  0  0  0  0  0  0  0  0
   10.9431  -15.2538   22.8214 O   0  0  0  0  0  0  0  0  0  0  0  0
    7.4903  -11.4859   27.6824 C   0  0  0  0  0  0  0  0  0  0  0  0
    6.4894  -12.0631   26.3049 S   0  0  0  0  0  0  0  0  0  0  0  0
    6.8033  -13.8156   25.9277 C   0  0  0  0  0  0  0  0  0  0  0  0
    7.2237  -14.0211   24.5207 C   0  0  0  0  0  0  0  0  0  0  0  0
    8.6278  -14.4663   24.2878 C   0  0  2  0  0  0  0  0  0  0  0  0
    8.7282  -14.6235   22.8148 N   0  0  0  0  0  0  0  0  0  0  0  0
    9.0299  -15.7045   24.9586 C   0  0  0  0  0  0  0  0  0  0  0  0
    9.0743  -15.7645   26.2357 O   0  0  0  0  0  0  0  0  0  0  0  0
   12.4119  -20.3394   25.1248 N   0  0  0  0  0  0  0  0  0  0  0  0
   11.9803  -19.1076   25.7486 C   0  0  0  0  0  0  0  0  0  0  0  0
   12.1068  -18.9806   26.9791 O   0  0  0  0  0  0  0  0  0  0  0  0
   11.4029  -18.0292   24.9343 C   0  0  0  0  0  0  0  0  0  0  0  0
    9.9257  -18.0778   24.8974 C   0  0  2  0  0  0  0  0  0  0  0  0
    9.3780  -16.8706   24.2358 N   0  0  0  0  0  0  0  0  0  0  0  0
    9.3727  -18.1151   26.2788 C   0  0  0  0  0  0  0  0  0  0  0  0
    8.6869  -19.0595   26.6734 O   0  0  0  0  0  0  0  0  0  0  0  0
    9.6039  -17.0840   27.1899 O   0  0  0  0  0  0  0  0  0  0  0  0
  2  1  1  6
  2  3  1  0
  4  8  1  0
  4  3  1  0
  5  4  2  0
  6  5  1  0
  6  7  1  0
  7  8  2  0
  9  2  1  0
 10  9  2  0
 12 11  1  0
 13 12  1  0
 14 13  1  0
 15 14  1  6
 15 16  1  0
 16  9  1  0
 17 15  1  0
 17 18  2  0
 20 21  2  0
 20 19  1  0
 22 20  1  0
 23 22  1  1
 23 24  1  0
 24 17  1  0
 25 23  1  0
 26 25  2  0
 27 25  1  0
M  END
$$$$
