MSH.pdb
     RDKit          3D

 25 25  0  0  1  0  0  0  0  0999 V2000
    8.2034  -12.0007   20.5157 C   0  0  0  0  0  0  0  0  0  0  0  0
    7.6664  -12.3162   18.8254 S   0  0  0  0  0  0  0  0  0  0  0  0
    7.6950  -14.0774   18.4237 C   0  0  0  0  0  0  0  0  0  0  0  0
    8.3396  -14.8544   19.5458 C   0  0  0  0  0  0  0  0  0  0  0  0
    8.5385  -16.3142   19.2005 C   0  0  2  0  0  0  0  0  0  0  0  0
    7.2267  -16.8817   18.9528 N   0  0  0  0  0  0  0  0  0  0  0  0
    9.2113  -16.9483   20.3595 C   0  0  0  0  0  0  0  0  0  0  0  0
    8.4754  -17.2908   21.3255 O   0  0  0  0  0  0  0  0  0  0  0  0
   12.2424  -19.2552   20.2112 O   0  0  0  0  0  0  0  0  0  0  0  0
   12.4918  -18.3778   21.2649 C   0  0  0  0  0  0  0  0  0  0  0  0
   11.1415  -17.7705   21.6715 C   0  0  2  0  0  0  0  0  0  0  0  0
   10.5850  -17.1919   20.4606 N   0  0  0  0  0  0  0  0  0  0  0  0
   11.2883  -16.7855   22.7478 C   0  0  0  0  0  0  0  0  0  0  0  0
   11.6570  -15.6123   22.5168 O   0  0  0  0  0  0  0  0  0  0  0  0
   11.0061  -17.1731   24.0749 N   0  0  0  0  0  0  0  0  0  0  0  0
   11.1560  -16.2342   25.1990 C   0  0  1  0  0  0  0  0  0  0  0  0
   10.0201  -16.4530   26.1391 C   0  0  0  0  0  0  0  0  0  0  0  0
   10.0617  -15.5804   27.3540 C   0  0  0  0  0  0  0  0  0  0  0  0
   10.4504  -14.2654   27.3745 C   0  0  0  0  0  0  0  0  0  0  0  0
   10.3638  -13.8338   28.6401 N   0  0  0  0  0  0  0  0  0  0  0  0
    9.9315  -14.8553   29.3917 C   0  0  0  0  0  0  0  0  0  0  0  0
    9.7468  -15.9206   28.6096 N   0  0  0  0  0  0  0  0  0  0  0  0
   12.4348  -16.4652   25.8642 C   0  0  0  0  0  0  0  0  0  0  0  0
   13.0506  -15.4616   26.5683 O   0  0  0  0  0  0  0  0  0  0  0  0
   13.0053  -17.5810   25.8125 O   0  0  0  0  0  0  0  0  0  0  0  0
  1  2  1  0
  3  2  1  0
  4  3  1  0
  5  4  1  0
  5  6  1  1
  7  5  1  0
  8  7  2  0
  9 10  1  0
 11 10  1  6
 11 12  1  0
 12  7  1  0
 13 15  1  0
 13 11  1  0
 14 13  2  0
 16 15  1  0
 16 17  1  1
 17 18  1  0
 18 19  2  0
 18 22  1  0
 19 20  1  0
 20 21  1  0
 22 21  2  0
 23 16  1  0
 24 23  1  0
 25 23  2  0
M  END
$$$$
