MSH.pdb
     RDKit          3D

 25 25  0  0  1  0  0  0  0  0999 V2000
    8.2015  -11.3763   21.0331 C   0  0  0  0  0  0  0  0  0  0  0  0
    7.5610  -11.7683   19.3956 S   0  0  0  0  0  0  0  0  0  0  0  0
    7.9936  -13.4459   18.8834 C   0  0  0  0  0  0  0  0  0  0  0  0
    8.0385  -14.3591   20.0845 C   0  0  0  0  0  0  0  0  0  0  0  0
    8.3966  -15.7827   19.7174 C   0  0  2  0  0  0  0  0  0  0  0  0
    7.3591  -16.2738   18.8305 N   0  0  0  0  0  0  0  0  0  0  0  0
    8.4626  -16.5551   20.9811 C   0  0  0  0  0  0  0  0  0  0  0  0
    7.3770  -17.0320   21.4123 O   0  0  0  0  0  0  0  0  0  0  0  0
   11.7245  -18.3067   22.3826 O   0  0  0  0  0  0  0  0  0  0  0  0
   10.4626  -18.7826   22.7340 C   0  0  0  0  0  0  0  0  0  0  0  0
    9.5669  -17.5555   22.9566 C   0  0  2  0  0  0  0  0  0  0  0  0
    9.6251  -16.7916   21.7223 N   0  0  0  0  0  0  0  0  0  0  0  0
    9.9932  -16.7731   24.1212 C   0  0  0  0  0  0  0  0  0  0  0  0
   11.0127  -16.0485   24.0865 O   0  0  0  0  0  0  0  0  0  0  0  0
    9.2332  -16.8410   25.3082 N   0  0  0  0  0  0  0  0  0  0  0  0
    9.6925  -16.2039   26.5534 C   0  0  1  0  0  0  0  0  0  0  0  0
    8.5154  -15.5654   27.2080 C   0  0  0  0  0  0  0  0  0  0  0  0
    7.9103  -14.4509   26.4138 C   0  0  0  0  0  0  0  0  0  0  0  0
    8.6013  -13.4032   25.8610 C   0  0  0  0  0  0  0  0  0  0  0  0
    7.7155  -12.6118   25.2410 N   0  0  0  0  0  0  0  0  0  0  0  0
    6.5003  -13.1525   25.4032 C   0  0  0  0  0  0  0  0  0  0  0  0
    6.6171  -14.2734   26.1177 N   0  0  0  0  0  0  0  0  0  0  0  0
   10.2927  -17.2085   27.4263 C   0  0  0  0  0  0  0  0  0  0  0  0
   10.4112  -18.5126   27.0170 O   0  0  0  0  0  0  0  0  0  0  0  0
   10.7154  -16.9115   28.5692 O   0  0  0  0  0  0  0  0  0  0  0  0
  1  2  1  0
  3  2  1  0
  4  3  1  0
  5  4  1  0
  5  6  1  6
  7  5  1  0
  8  7  2  0
  9 10  1  0
 11 10  1  6
 11 12  1  0
 12  7  1  0
 13 15  1  0
 13 11  1  0
 14 13  2  0
 16 15  1  0
 16 17  1  1
 17 18  1  0
 18 19  2  0
 18 22  1  0
 19 20  1  0
 20 21  1  0
 22 21  2  0
 23 16  1  0
 24 23  1  0
 25 23  2  0
M  END
$$$$
