MSH.pdb
     RDKit          3D

 25 25  0  0  1  0  0  0  0  0999 V2000
    8.0485  -10.6067   19.6388 C   0  0  0  0  0  0  0  0  0  0  0  0
    8.3692  -12.3106   20.1277 S   0  0  0  0  0  0  0  0  0  0  0  0
    7.1514  -13.4533   19.4383 C   0  0  0  0  0  0  0  0  0  0  0  0
    7.3412  -14.8301   20.0271 C   0  0  0  0  0  0  0  0  0  0  0  0
    8.7896  -15.1291   20.3472 C   0  0  2  0  0  0  0  0  0  0  0  0
    9.2864  -16.0153   19.3118 N   0  0  0  0  0  0  0  0  0  0  0  0
    8.8177  -15.7643   21.6865 C   0  0  0  0  0  0  0  0  0  0  0  0
    8.4063  -15.0671   22.6542 O   0  0  0  0  0  0  0  0  0  0  0  0
   11.2710  -18.7435   22.8514 O   0  0  0  0  0  0  0  0  0  0  0  0
    9.9495  -18.9484   23.2436 C   0  0  0  0  0  0  0  0  0  0  0  0
    9.2844  -17.5664   23.3167 C   0  0  2  0  0  0  0  0  0  0  0  0
    9.2614  -17.0636   21.9538 N   0  0  0  0  0  0  0  0  0  0  0  0
    9.9926  -16.6681   24.2342 C   0  0  0  0  0  0  0  0  0  0  0  0
   10.3983  -15.5428   23.8669 O   0  0  0  0  0  0  0  0  0  0  0  0
   10.2204  -17.0855   25.5627 N   0  0  0  0  0  0  0  0  0  0  0  0
    9.6749  -16.3385   26.7081 C   0  0  1  0  0  0  0  0  0  0  0  0
    8.1960  -16.2524   26.5424 C   0  0  0  0  0  0  0  0  0  0  0  0
    7.6854  -14.8567   26.3692 C   0  0  0  0  0  0  0  0  0  0  0  0
    8.4586  -13.7241   26.3546 C   0  0  0  0  0  0  0  0  0  0  0  0
    7.6420  -12.6745   26.1906 N   0  0  0  0  0  0  0  0  0  0  0  0
    6.3888  -13.1408   26.1050 C   0  0  0  0  0  0  0  0  0  0  0  0
    6.4133  -14.4705   26.2138 N   0  0  0  0  0  0  0  0  0  0  0  0
   10.0210  -17.0232   27.9502 C   0  0  0  0  0  0  0  0  0  0  0  0
   10.3587  -18.3528   27.9476 O   0  0  0  0  0  0  0  0  0  0  0  0
   10.0199  -16.4201   29.0500 O   0  0  0  0  0  0  0  0  0  0  0  0
  1  2  1  0
  3  2  1  0
  4  3  1  0
  5  4  1  0
  5  6  1  6
  7  5  1  0
  8  7  2  0
  9 10  1  0
 11 10  1  6
 11 12  1  0
 12  7  1  0
 13 15  1  0
 13 11  1  0
 14 13  2  0
 16 15  1  0
 16 17  1  6
 17 18  1  0
 18 19  2  0
 18 22  1  0
 19 20  1  0
 20 21  1  0
 22 21  2  0
 23 16  1  0
 24 23  1  0
 25 23  2  0
M  END
$$$$
