MSH.pdb
     RDKit          3D

 25 25  0  0  1  0  0  0  0  0999 V2000
   12.9487  -19.5046   19.8342 C   0  0  0  0  0  0  0  0  0  0  0  0
   12.6731  -19.3701   18.0590 S   0  0  0  0  0  0  0  0  0  0  0  0
   10.9798  -18.8726   17.6727 C   0  0  0  0  0  0  0  0  0  0  0  0
   10.4088  -18.0548   18.8057 C   0  0  0  0  0  0  0  0  0  0  0  0
    8.9619  -17.6760   18.5755 C   0  0  2  0  0  0  0  0  0  0  0  0
    8.9206  -16.8215   17.4041 N   0  0  0  0  0  0  0  0  0  0  0  0
    8.4959  -16.9740   19.7954 C   0  0  0  0  0  0  0  0  0  0  0  0
    8.8447  -15.7684   19.9247 O   0  0  0  0  0  0  0  0  0  0  0  0
    6.1547  -18.6923   22.6443 O   0  0  0  0  0  0  0  0  0  0  0  0
    5.8929  -17.3581   22.3384 C   0  0  0  0  0  0  0  0  0  0  0  0
    7.2242  -16.7285   21.9038 C   0  0  2  0  0  0  0  0  0  0  0  0
    7.7079  -17.5422   20.8017 N   0  0  0  0  0  0  0  0  0  0  0  0
    8.1820  -16.6586   23.0120 C   0  0  0  0  0  0  0  0  0  0  0  0
    9.1647  -17.4303   23.0787 O   0  0  0  0  0  0  0  0  0  0  0  0
    7.9880  -15.6967   24.0260 N   0  0  0  0  0  0  0  0  0  0  0  0
    8.8624  -15.6389   25.2090 C   0  0  1  0  0  0  0  0  0  0  0  0
    8.3749  -14.5409   26.0915 C   0  0  0  0  0  0  0  0  0  0  0  0
    9.1474  -14.3980   27.3649 C   0  0  0  0  0  0  0  0  0  0  0  0
   10.1973  -15.1917   27.7504 C   0  0  0  0  0  0  0  0  0  0  0  0
   10.6163  -14.7611   28.9481 N   0  0  0  0  0  0  0  0  0  0  0  0
    9.8462  -13.7233   29.3018 C   0  0  0  0  0  0  0  0  0  0  0  0
    8.9504  -13.5006   28.3382 N   0  0  0  0  0  0  0  0  0  0  0  0
    8.8299  -16.9211   25.9064 C   0  0  0  0  0  0  0  0  0  0  0  0
    9.9788  -17.4726   26.4142 O   0  0  0  0  0  0  0  0  0  0  0  0
    7.7574  -17.5528   26.0614 O   0  0  0  0  0  0  0  0  0  0  0  0
  1  2  1  0
  3  2  1  0
  4  3  1  0
  5  4  1  0
  5  6  1  6
  7  5  1  0
  8  7  2  0
  9 10  1  0
 11 10  1  1
 11 12  1  0
 12  7  1  0
 13 15  1  0
 13 11  1  0
 14 13  2  0
 16 15  1  0
 16 17  1  1
 17 18  1  0
 18 19  2  0
 18 22  1  0
 19 20  1  0
 20 21  1  0
 22 21  2  0
 23 16  1  0
 24 23  1  0
 25 23  2  0
M  END
$$$$
