MSH.pdb
     RDKit          3D

 25 25  0  0  1  0  0  0  0  0999 V2000
    8.0256  -11.7485   21.1285 C   0  0  0  0  0  0  0  0  0  0  0  0
    8.6928  -11.8167   19.4566 S   0  0  0  0  0  0  0  0  0  0  0  0
    8.6891  -13.4977   18.7944 C   0  0  0  0  0  0  0  0  0  0  0  0
    9.0434  -14.4834   19.8812 C   0  0  0  0  0  0  0  0  0  0  0  0
    9.1738  -15.8983   19.3606 C   0  0  2  0  0  0  0  0  0  0  0  0
    7.9628  -16.1994   18.6211 N   0  0  0  0  0  0  0  0  0  0  0  0
    9.3429  -16.7822   20.5388 C   0  0  0  0  0  0  0  0  0  0  0  0
    8.3045  -17.0431   21.2064 O   0  0  0  0  0  0  0  0  0  0  0  0
   12.8935  -18.4195   21.6518 O   0  0  0  0  0  0  0  0  0  0  0  0
   11.7511  -19.1788   21.8985 C   0  0  0  0  0  0  0  0  0  0  0  0
   10.5999  -18.1914   22.1379 C   0  0  2  0  0  0  0  0  0  0  0  0
   10.5536  -17.3416   20.9604 N   0  0  0  0  0  0  0  0  0  0  0  0
   10.7857  -17.4263   23.3749 C   0  0  0  0  0  0  0  0  0  0  0  0
   11.6054  -16.4836   23.4458 O   0  0  0  0  0  0  0  0  0  0  0  0
   10.0201  -17.7637   24.5112 N   0  0  0  0  0  0  0  0  0  0  0  0
   10.1713  -17.0390   25.7837 C   0  0  1  0  0  0  0  0  0  0  0  0
    8.8136  -16.8362   26.3648 C   0  0  0  0  0  0  0  0  0  0  0  0
    7.9964  -15.8054   25.6516 C   0  0  0  0  0  0  0  0  0  0  0  0
    8.4739  -14.9165   24.7228 C   0  0  0  0  0  0  0  0  0  0  0  0
    7.4477  -14.1533   24.3230 N   0  0  0  0  0  0  0  0  0  0  0  0
    6.3556  -14.5563   24.9865 C   0  0  0  0  0  0  0  0  0  0  0  0
    6.6882  -15.5630   25.7968 N   0  0  0  0  0  0  0  0  0  0  0  0
   11.0162  -17.8104   26.6905 C   0  0  0  0  0  0  0  0  0  0  0  0
   11.3170  -17.3367   27.9424 O   0  0  0  0  0  0  0  0  0  0  0  0
   11.4893  -18.9224   26.3545 O   0  0  0  0  0  0  0  0  0  0  0  0
  1  2  1  0
  3  2  1  0
  4  3  1  0
  5  4  1  0
  5  6  1  1
  7  5  1  0
  8  7  2  0
  9 10  1  0
 11 10  1  6
 11 12  1  0
 12  7  1  0
 13 15  1  0
 13 11  1  0
 14 13  2  0
 16 15  1  0
 16 17  1  1
 17 18  1  0
 18 19  2  0
 18 22  1  0
 19 20  1  0
 20 21  1  0
 22 21  2  0
 23 16  1  0
 24 23  1  0
 25 23  2  0
M  END
$$$$
