MSH.pdb
     RDKit          3D

 25 25  0  0  1  0  0  0  0  0999 V2000
    7.8700  -11.9920   21.3091 C   0  0  0  0  0  0  0  0  0  0  0  0
    8.0498  -11.9654   19.5168 S   0  0  0  0  0  0  0  0  0  0  0  0
    8.4682  -13.5933   18.8543 C   0  0  0  0  0  0  0  0  0  0  0  0
    8.7187  -14.5634   19.9833 C   0  0  0  0  0  0  0  0  0  0  0  0
    9.0208  -15.9617   19.4899 C   0  0  2  0  0  0  0  0  0  0  0  0
    7.9044  -16.3781   18.6626 N   0  0  0  0  0  0  0  0  0  0  0  0
    9.1796  -16.8214   20.6873 C   0  0  0  0  0  0  0  0  0  0  0  0
    8.2659  -17.6633   20.9069 O   0  0  0  0  0  0  0  0  0  0  0  0
   12.5060  -18.3086   21.9266 O   0  0  0  0  0  0  0  0  0  0  0  0
   11.2471  -18.8591   22.1601 C   0  0  0  0  0  0  0  0  0  0  0  0
   10.3496  -17.7235   22.6724 C   0  0  2  0  0  0  0  0  0  0  0  0
   10.2542  -16.7690   21.5812 N   0  0  0  0  0  0  0  0  0  0  0  0
   10.8792  -17.1211   23.8999 C   0  0  0  0  0  0  0  0  0  0  0  0
   12.0173  -17.4088   24.3331 O   0  0  0  0  0  0  0  0  0  0  0  0
   10.0838  -16.1949   24.6075 N   0  0  0  0  0  0  0  0  0  0  0  0
    9.9561  -16.2520   26.0730 C   0  0  1  0  0  0  0  0  0  0  0  0
    8.5053  -16.3172   26.4089 C   0  0  0  0  0  0  0  0  0  0  0  0
    7.7089  -15.1641   25.8843 C   0  0  0  0  0  0  0  0  0  0  0  0
    8.2199  -14.0932   25.1967 C   0  0  0  0  0  0  0  0  0  0  0  0
    7.2026  -13.2703   24.9081 N   0  0  0  0  0  0  0  0  0  0  0  0
    6.0831  -13.8146   25.4038 C   0  0  0  0  0  0  0  0  0  0  0  0
    6.3898  -14.9688   25.9992 N   0  0  0  0  0  0  0  0  0  0  0  0
   10.6618  -17.4243   26.5819 C   0  0  0  0  0  0  0  0  0  0  0  0
   11.2332  -18.3273   25.7214 O   0  0  0  0  0  0  0  0  0  0  0  0
   10.7664  -17.6398   27.8130 O   0  0  0  0  0  0  0  0  0  0  0  0
  1  2  1  0
  3  2  1  0
  4  3  1  0
  5  4  1  0
  5  6  1  6
  7  5  1  0
  8  7  2  0
  9 10  1  0
 11 10  1  6
 11 12  1  0
 12  7  1  0
 13 15  1  0
 13 11  1  0
 14 13  2  0
 16 15  1  0
 16 17  1  6
 17 18  1  0
 18 19  2  0
 18 22  1  0
 19 20  1  0
 20 21  1  0
 22 21  2  0
 23 16  1  0
 24 23  1  0
 25 23  2  0
M  END
$$$$
