WTF.pdb
     RDKit          3D

 33 35  0  0  1  0  0  0  0  0999 V2000
   27.5674  -21.3498  -13.1816 N   0  0  0  0  0  0  0  0  0  0  0  0
   26.4916  -21.0677  -12.2427 C   0  0  1  0  0  0  0  0  0  0  0  0
   26.8626  -20.0773  -11.1985 C   0  0  0  0  0  0  0  0  0  0  0  0
   27.9762  -20.4525  -10.3277 C   0  0  0  0  0  0  0  0  0  0  0  0
   29.2371  -20.8549  -10.7041 C   0  0  0  0  0  0  0  0  0  0  0  0
   29.9109  -21.0936   -9.5759 N   0  0  0  0  0  0  0  0  0  0  0  0
   29.1596  -20.8690   -8.5015 C   0  0  0  0  0  0  0  0  0  0  0  0
   29.3666  -20.9610   -7.1318 C   0  0  0  0  0  0  0  0  0  0  0  0
   28.3693  -20.6537   -6.2327 C   0  0  0  0  0  0  0  0  0  0  0  0
   27.1248  -20.2423   -6.6643 C   0  0  0  0  0  0  0  0  0  0  0  0
   26.9201  -20.1513   -8.0235 C   0  0  0  0  0  0  0  0  0  0  0  0
   27.9112  -20.4562   -8.9358 C   0  0  0  0  0  0  0  0  0  0  0  0
   25.2551  -20.7493  -12.9926 C   0  0  0  0  0  0  0  0  0  0  0  0
   25.2607  -19.9803  -13.9874 O   0  0  0  0  0  0  0  0  0  0  0  0
   21.5674  -21.4605  -15.3860 C   0  0  0  0  0  0  0  0  0  0  0  0
   22.9260  -21.5735  -14.7098 C   0  0  1  0  0  0  0  0  0  0  0  0
   23.8349  -20.8695  -15.4679 O   0  0  0  0  0  0  0  0  0  0  0  0
   22.7725  -21.0443  -13.3133 C   0  0  2  0  0  0  0  0  0  0  0  0
   24.0076  -21.3128  -12.6030 N   0  0  0  0  0  0  0  0  0  0  0  0
   21.6234  -21.5970  -12.5910 C   0  0  0  0  0  0  0  0  0  0  0  0
   21.6493  -22.7925  -12.2222 O   0  0  0  0  0  0  0  0  0  0  0  0
   20.4905  -20.7849  -12.3112 N   0  0  0  0  0  0  0  0  0  0  0  0
   19.4221  -21.3120  -11.4946 C   0  0  1  0  0  0  0  0  0  0  0  0
   18.9030  -20.2567  -10.5327 C   0  0  0  0  0  0  0  0  0  0  0  0
   18.6322  -18.9932  -11.2500 C   0  0  0  0  0  0  0  0  0  0  0  0
   19.6342  -18.0539  -11.3369 C   0  0  0  0  0  0  0  0  0  0  0  0
   19.4646  -16.8376  -11.9941 C   0  0  0  0  0  0  0  0  0  0  0  0
   18.2398  -16.5994  -12.5652 C   0  0  0  0  0  0  0  0  0  0  0  0
   17.2191  -17.5282  -12.4904 C   0  0  0  0  0  0  0  0  0  0  0  0
   17.4126  -18.7203  -11.8362 C   0  0  0  0  0  0  0  0  0  0  0  0
   18.3172  -21.7579  -12.3680 C   0  0  0  0  0  0  0  0  0  0  0  0
   18.3267  -21.4146  -13.5748 O   0  0  0  0  0  0  0  0  0  0  0  0
   17.2670  -22.5446  -11.8999 O   0  0  0  0  0  0  0  0  0  0  0  0
  2  1  1  6
  2  3  1  0
  4  3  1  0
  5  4  2  0
  6  7  1  0
  6  5  1  0
  7 12  2  0
  8  9  2  0
  8  7  1  0
  9 10  1  0
 10 11  2  0
 12 11  1  0
 12  4  1  0
 13  2  1  0
 13 14  2  0
 16 15  1  6
 16 17  1  0
 16 18  1  0
 18 19  1  1
 19 13  1  0
 20 18  1  0
 21 20  2  0
 22 20  1  0
 23 22  1  0
 23 24  1  1
 24 25  1  0
 25 26  2  0
 26 27  1  0
 28 27  2  0
 29 28  1  0
 30 29  2  0
 30 25  1  0
 31 23  1  0
 32 31  2  0
 33 31  1  0
M  END
$$$$
