WTF.pdb
     RDKit          3D

 33 35  0  0  1  0  0  0  0  0999 V2000
   28.7841  -21.5638  -10.2810 N   0  0  0  0  0  0  0  0  0  0  0  0
   27.4477  -21.0838   -9.9618 C   0  0  1  0  0  0  0  0  0  0  0  0
   27.4447  -19.8441   -9.1421 C   0  0  0  0  0  0  0  0  0  0  0  0
   28.3271  -19.8463   -7.9755 C   0  0  0  0  0  0  0  0  0  0  0  0
   29.6930  -19.6808   -7.9563 C   0  0  0  0  0  0  0  0  0  0  0  0
   30.0657  -19.7579   -6.6761 N   0  0  0  0  0  0  0  0  0  0  0  0
   29.0234  -19.9624   -5.8755 C   0  0  0  0  0  0  0  0  0  0  0  0
   28.8631  -20.1139   -4.5048 C   0  0  0  0  0  0  0  0  0  0  0  0
   27.6213  -20.3200   -3.9455 C   0  0  0  0  0  0  0  0  0  0  0  0
   26.4890  -20.3834   -4.7317 C   0  0  0  0  0  0  0  0  0  0  0  0
   26.6487  -20.2330   -6.0918 C   0  0  0  0  0  0  0  0  0  0  0  0
   27.8878  -20.0258   -6.6655 C   0  0  0  0  0  0  0  0  0  0  0  0
   26.6412  -21.0132  -11.2016 C   0  0  0  0  0  0  0  0  0  0  0  0
   27.1732  -20.8912  -12.3343 O   0  0  0  0  0  0  0  0  0  0  0  0
   26.3319  -21.7972  -13.5557 C   0  0  0  0  0  0  0  0  0  0  0  0
   24.8565  -22.0569  -13.2888 C   0  0  1  0  0  0  0  0  0  0  0  0
   24.7349  -23.3391  -12.8009 O   0  0  0  0  0  0  0  0  0  0  0  0
   24.3866  -21.0030  -12.3285 C   0  0  2  0  0  0  0  0  0  0  0  0
   25.2207  -21.0825  -11.1453 N   0  0  0  0  0  0  0  0  0  0  0  0
   22.9681  -21.1096  -11.9761 C   0  0  0  0  0  0  0  0  0  0  0  0
   22.6474  -21.5873  -10.8649 O   0  0  0  0  0  0  0  0  0  0  0  0
   21.9656  -20.6752  -12.8859 N   0  0  0  0  0  0  0  0  0  0  0  0
   20.6292  -20.4188  -12.4018 C   0  0  1  0  0  0  0  0  0  0  0  0
   20.3158  -18.9325  -12.4353 C   0  0  0  0  0  0  0  0  0  0  0  0
   20.5855  -18.3784  -13.7786 C   0  0  0  0  0  0  0  0  0  0  0  0
   21.8351  -17.8672  -14.0448 C   0  0  0  0  0  0  0  0  0  0  0  0
   22.1743  -17.3267  -15.2829 C   0  0  0  0  0  0  0  0  0  0  0  0
   21.2017  -17.3193  -16.2510 C   0  0  0  0  0  0  0  0  0  0  0  0
   19.9400  -17.8273  -16.0060 C   0  0  0  0  0  0  0  0  0  0  0  0
   19.6314  -18.3548  -14.7760 C   0  0  0  0  0  0  0  0  0  0  0  0
   19.6580  -21.1386  -13.2510 C   0  0  0  0  0  0  0  0  0  0  0  0
   20.0661  -21.6825  -14.3054 O   0  0  0  0  0  0  0  0  0  0  0  0
   18.3074  -21.2347  -12.9228 O   0  0  0  0  0  0  0  0  0  0  0  0
  2  1  1  6
  2  3  1  0
  4  3  1  0
  5  4  2  0
  6  7  1  0
  6  5  1  0
  7 12  2  0
  8  9  2  0
  8  7  1  0
  9 10  1  0
 10 11  2  0
 12 11  1  0
 12  4  1  0
 13  2  1  0
 13 14  2  0
 16 15  1  1
 16 17  1  0
 16 18  1  0
 18 19  1  1
 19 13  1  0
 20 18  1  0
 21 20  2  0
 22 20  1  0
 23 22  1  0
 23 24  1  6
 24 25  1  0
 25 26  2  0
 26 27  1  0
 28 27  2  0
 29 28  1  0
 30 29  2  0
 30 25  1  0
 31 23  1  0
 32 31  2  0
 33 31  1  0
M  END
$$$$
