WTF.pdb
     RDKit          3D

 33 35  0  0  1  0  0  0  0  0999 V2000
   27.5104  -22.4990  -13.2718 N   0  0  0  0  0  0  0  0  0  0  0  0
   26.4863  -21.7182  -12.5935 C   0  0  1  0  0  0  0  0  0  0  0  0
   26.9977  -20.4491  -12.0134 C   0  0  0  0  0  0  0  0  0  0  0  0
   27.9592  -20.5870  -10.9199 C   0  0  0  0  0  0  0  0  0  0  0  0
   29.3027  -20.8689  -11.0145 C   0  0  0  0  0  0  0  0  0  0  0  0
   29.7723  -20.8987   -9.7645 N   0  0  0  0  0  0  0  0  0  0  0  0
   28.8129  -20.6535   -8.8765 C   0  0  0  0  0  0  0  0  0  0  0  0
   28.7659  -20.5700   -7.4915 C   0  0  0  0  0  0  0  0  0  0  0  0
   27.5909  -20.2927   -6.8283 C   0  0  0  0  0  0  0  0  0  0  0  0
   26.4150  -20.0875   -7.5207 C   0  0  0  0  0  0  0  0  0  0  0  0
   26.4622  -20.1705   -8.8949 C   0  0  0  0  0  0  0  0  0  0  0  0
   27.6334  -20.4478   -9.5724 C   0  0  0  0  0  0  0  0  0  0  0  0
   25.3121  -21.5685  -13.4831 C   0  0  0  0  0  0  0  0  0  0  0  0
   25.3379  -21.9367  -14.6851 O   0  0  0  0  0  0  0  0  0  0  0  0
   23.8185  -22.9075  -14.8785 C   0  0  0  0  0  0  0  0  0  0  0  0
   22.5676  -22.3413  -14.2224 C   0  0  1  0  0  0  0  0  0  0  0  0
   22.2216  -23.1755  -13.1828 O   0  0  0  0  0  0  0  0  0  0  0  0
   22.8897  -20.9414  -13.7862 C   0  0  2  0  0  0  0  0  0  0  0  0
   24.1039  -20.9953  -12.9958 N   0  0  0  0  0  0  0  0  0  0  0  0
   21.8100  -20.2874  -13.0417 C   0  0  0  0  0  0  0  0  0  0  0  0
   21.9378  -20.1064  -11.8101 O   0  0  0  0  0  0  0  0  0  0  0  0
   20.6294  -19.8623  -13.7101 N   0  0  0  0  0  0  0  0  0  0  0  0
   19.6967  -18.9980  -13.0251 C   0  0  1  0  0  0  0  0  0  0  0  0
   20.2706  -17.6007  -12.8626 C   0  0  0  0  0  0  0  0  0  0  0  0
   20.6464  -17.0410  -14.1778 C   0  0  0  0  0  0  0  0  0  0  0  0
   21.9765  -17.0141  -14.5298 C   0  0  0  0  0  0  0  0  0  0  0  0
   22.4177  -16.5051  -15.7490 C   0  0  0  0  0  0  0  0  0  0  0  0
   21.4635  -16.0201  -16.6077 C   0  0  0  0  0  0  0  0  0  0  0  0
   20.1222  -16.0370  -16.2751 C   0  0  0  0  0  0  0  0  0  0  0  0
   19.7136  -16.5447  -15.0661 C   0  0  0  0  0  0  0  0  0  0  0  0
   18.4438  -18.9203  -13.8039 C   0  0  0  0  0  0  0  0  0  0  0  0
   17.4623  -18.3162  -13.3081 O   0  0  0  0  0  0  0  0  0  0  0  0
   18.3139  -19.4931  -15.0673 O   0  0  0  0  0  0  0  0  0  0  0  0
  2  1  1  6
  2  3  1  0
  4  3  1  0
  5  4  2  0
  6  7  1  0
  6  5  1  0
  7 12  2  0
  8  9  2  0
  8  7  1  0
  9 10  1  0
 10 11  2  0
 12 11  1  0
 12  4  1  0
 13  2  1  0
 13 14  2  0
 16 15  1  1
 16 17  1  0
 16 18  1  0
 18 19  1  1
 19 13  1  0
 20 18  1  0
 21 20  2  0
 22 20  1  0
 23 22  1  0
 23 24  1  6
 24 25  1  0
 25 26  2  0
 26 27  1  0
 28 27  2  0
 29 28  1  0
 30 29  2  0
 30 25  1  0
 31 23  1  0
 32 31  2  0
 33 31  1  0
M  END
$$$$
