WTF.pdb
     RDKit          3D

 33 35  0  0  1  0  0  0  0  0999 V2000
   27.6313  -21.7837   -9.4492 N   0  0  0  0  0  0  0  0  0  0  0  0
   26.4916  -20.8836   -9.5462 C   0  0  1  0  0  0  0  0  0  0  0  0
   26.5297  -19.7729   -8.5595 C   0  0  0  0  0  0  0  0  0  0  0  0
   26.7168  -20.1640   -7.1626 C   0  0  0  0  0  0  0  0  0  0  0  0
   25.8916  -20.9528   -6.3944 C   0  0  0  0  0  0  0  0  0  0  0  0
   26.4614  -21.0357   -5.1893 N   0  0  0  0  0  0  0  0  0  0  0  0
   27.5995  -20.3491   -5.1390 C   0  0  0  0  0  0  0  0  0  0  0  0
   28.5523  -20.1137   -4.1570 C   0  0  0  0  0  0  0  0  0  0  0  0
   29.6621  -19.3364   -4.4051 C   0  0  0  0  0  0  0  0  0  0  0  0
   29.8659  -18.7624   -5.6434 C   0  0  0  0  0  0  0  0  0  0  0  0
   28.9201  -18.9964   -6.6173 C   0  0  0  0  0  0  0  0  0  0  0  0
   27.8029  -19.7736   -6.3820 C   0  0  0  0  0  0  0  0  0  0  0  0
   26.3172  -20.4608  -10.9545 C   0  0  0  0  0  0  0  0  0  0  0  0
   27.2037  -19.8147  -11.5690 O   0  0  0  0  0  0  0  0  0  0  0  0
   27.3742  -20.4406  -13.2207 C   0  0  0  0  0  0  0  0  0  0  0  0
   26.1144  -21.0569  -13.8114 C   0  0  1  0  0  0  0  0  0  0  0  0
   26.2173  -22.4249  -13.6916 O   0  0  0  0  0  0  0  0  0  0  0  0
   24.9458  -20.4762  -13.0693 C   0  0  2  0  0  0  0  0  0  0  0  0
   25.1240  -20.7782  -11.6625 N   0  0  0  0  0  0  0  0  0  0  0  0
   23.6437  -20.9515  -13.5450 C   0  0  0  0  0  0  0  0  0  0  0  0
   23.1144  -21.9420  -12.9931 O   0  0  0  0  0  0  0  0  0  0  0  0
   22.9874  -20.2953  -14.6220 N   0  0  0  0  0  0  0  0  0  0  0  0
   21.6465  -20.6912  -14.9846 C   0  0  1  0  0  0  0  0  0  0  0  0
   20.6315  -19.6619  -14.5168 C   0  0  0  0  0  0  0  0  0  0  0  0
   20.3881  -19.7998  -13.0656 C   0  0  0  0  0  0  0  0  0  0  0  0
   20.7209  -18.7530  -12.2366 C   0  0  0  0  0  0  0  0  0  0  0  0
   20.5249  -18.7986  -10.8583 C   0  0  0  0  0  0  0  0  0  0  0  0
   19.9775  -19.9456  -10.3409 C   0  0  0  0  0  0  0  0  0  0  0  0
   19.6357  -21.0092  -11.1545 C   0  0  0  0  0  0  0  0  0  0  0  0
   19.8393  -20.9385  -12.5109 C   0  0  0  0  0  0  0  0  0  0  0  0
   21.5596  -20.8256  -16.4532 C   0  0  0  0  0  0  0  0  0  0  0  0
   22.5276  -20.4400  -17.1522 O   0  0  0  0  0  0  0  0  0  0  0  0
   20.4427  -21.3645  -17.0884 O   0  0  0  0  0  0  0  0  0  0  0  0
  2  1  1  6
  2  3  1  0
  4  3  1  0
  5  4  2  0
  6  7  1  0
  6  5  1  0
  7 12  2  0
  8  9  2  0
  8  7  1  0
  9 10  1  0
 10 11  2  0
 12 11  1  0
 12  4  1  0
 13  2  1  0
 13 14  2  0
 16 15  1  1
 16 17  1  0
 16 18  1  0
 18 19  1  1
 19 13  1  0
 20 18  1  0
 21 20  2  0
 22 20  1  0
 23 22  1  0
 23 24  1  6
 24 25  1  0
 25 26  2  0
 26 27  1  0
 28 27  2  0
 29 28  1  0
 30 29  2  0
 30 25  1  0
 31 23  1  0
 32 31  2  0
 33 31  1  0
M  END
$$$$
