WTF.pdb
     RDKit          3D

 33 35  0  0  1  0  0  0  0  0999 V2000
   23.8998  -18.0315  -16.3526 N   0  0  0  0  0  0  0  0  0  0  0  0
   25.0088  -18.2559  -15.4371 C   0  0  1  0  0  0  0  0  0  0  0  0
   25.4784  -17.0177  -14.7624 C   0  0  0  0  0  0  0  0  0  0  0  0
   26.3789  -16.1673  -15.5403 C   0  0  0  0  0  0  0  0  0  0  0  0
   26.1459  -14.8874  -15.9885 C   0  0  0  0  0  0  0  0  0  0  0  0
   27.2430  -14.5129  -16.6517 N   0  0  0  0  0  0  0  0  0  0  0  0
   28.1631  -15.4735  -16.6556 C   0  0  0  0  0  0  0  0  0  0  0  0
   29.4403  -15.5966  -17.1859 C   0  0  0  0  0  0  0  0  0  0  0  0
   30.1771  -16.7491  -17.0233 C   0  0  0  0  0  0  0  0  0  0  0  0
   29.6690  -17.8254  -16.3250 C   0  0  0  0  0  0  0  0  0  0  0  0
   28.4017  -17.7025  -15.7991 C   0  0  0  0  0  0  0  0  0  0  0  0
   27.6522  -16.5529  -15.9546 C   0  0  0  0  0  0  0  0  0  0  0  0
   24.6758  -19.3745  -14.5258 C   0  0  0  0  0  0  0  0  0  0  0  0
   23.4960  -19.5999  -14.1540 O   0  0  0  0  0  0  0  0  0  0  0  0
   24.9725  -22.7206  -15.0018 C   0  0  0  0  0  0  0  0  0  0  0  0
   25.8037  -22.5988  -13.7330 C   0  0  1  0  0  0  0  0  0  0  0  0
   27.1317  -22.6782  -14.0890 O   0  0  0  0  0  0  0  0  0  0  0  0
   25.4340  -21.2971  -13.0830 C   0  0  2  0  0  0  0  0  0  0  0  0
   25.6963  -20.2383  -14.0380 N   0  0  0  0  0  0  0  0  0  0  0  0
   26.1306  -21.0449  -11.8186 C   0  0  0  0  0  0  0  0  0  0  0  0
   27.3715  -20.8835  -11.8248 O   0  0  0  0  0  0  0  0  0  0  0  0
   25.4059  -20.9838  -10.5970 N   0  0  0  0  0  0  0  0  0  0  0  0
   26.1231  -20.9990   -9.3433 C   0  0  1  0  0  0  0  0  0  0  0  0
   27.0898  -19.8301   -9.2570 C   0  0  0  0  0  0  0  0  0  0  0  0
   27.7453  -19.7994   -7.9328 C   0  0  0  0  0  0  0  0  0  0  0  0
   28.6781  -20.7660   -7.6335 C   0  0  0  0  0  0  0  0  0  0  0  0
   29.3432  -20.8109   -6.4106 C   0  0  0  0  0  0  0  0  0  0  0  0
   29.0326  -19.8396   -5.4924 C   0  0  0  0  0  0  0  0  0  0  0  0
   28.0992  -18.8592   -5.7712 C   0  0  0  0  0  0  0  0  0  0  0  0
   27.4575  -18.8376   -6.9853 C   0  0  0  0  0  0  0  0  0  0  0  0
   25.1567  -20.9127   -8.2293 C   0  0  0  0  0  0  0  0  0  0  0  0
   24.0453  -20.3685   -8.4362 O   0  0  0  0  0  0  0  0  0  0  0  0
   25.4354  -21.4133   -6.9593 O   0  0  0  0  0  0  0  0  0  0  0  0
  2  1  1  1
  2  3  1  0
  4  3  1  0
  5  4  2  0
  6  7  1  0
  6  5  1  0
  7 12  2  0
  8  9  2  0
  8  7  1  0
  9 10  1  0
 10 11  2  0
 12 11  1  0
 12  4  1  0
 13  2  1  0
 13 14  2  0
 16 15  1  6
 16 17  1  0
 16 18  1  0
 18 19  1  6
 19 13  1  0
 20 18  1  0
 21 20  2  0
 22 20  1  0
 23 22  1  0
 23 24  1  6
 24 25  1  0
 25 26  2  0
 26 27  1  0
 28 27  2  0
 29 28  1  0
 30 29  2  0
 30 25  1  0
 31 23  1  0
 32 31  2  0
 33 31  1  0
M  END
$$$$
