WTF.pdb
     RDKit          3D

 33 35  0  0  1  0  0  0  0  0999 V2000
   24.4282  -20.9420  -15.4853 N   0  0  0  0  0  0  0  0  0  0  0  0
   23.9717  -20.8650  -14.1054 C   0  0  1  0  0  0  0  0  0  0  0  0
   22.6376  -21.4831  -13.8886 C   0  0  0  0  0  0  0  0  0  0  0  0
   21.4844  -20.6604  -14.2525 C   0  0  0  0  0  0  0  0  0  0  0  0
   20.8923  -20.5458  -15.4894 C   0  0  0  0  0  0  0  0  0  0  0  0
   19.8803  -19.6860  -15.3464 N   0  0  0  0  0  0  0  0  0  0  0  0
   19.7883  -19.2436  -14.0954 C   0  0  0  0  0  0  0  0  0  0  0  0
   18.9421  -18.3646  -13.4329 C   0  0  0  0  0  0  0  0  0  0  0  0
   19.0959  -18.0938  -12.0911 C   0  0  0  0  0  0  0  0  0  0  0  0
   20.1005  -18.6894  -11.3561 C   0  0  0  0  0  0  0  0  0  0  0  0
   20.9398  -19.5615  -12.0140 C   0  0  0  0  0  0  0  0  0  0  0  0
   20.7968  -19.8419  -13.3588 C   0  0  0  0  0  0  0  0  0  0  0  0
   25.0401  -21.3564  -13.2056 C   0  0  0  0  0  0  0  0  0  0  0  0
   25.9241  -22.1588  -13.6000 O   0  0  0  0  0  0  0  0  0  0  0  0
   27.5419  -21.0815  -13.0910 C   0  0  0  0  0  0  0  0  0  0  0  0
   27.4295  -20.4624  -11.7055 C   0  0  1  0  0  0  0  0  0  0  0  0
   27.2769  -19.1026  -11.8617 O   0  0  0  0  0  0  0  0  0  0  0  0
   26.2690  -21.1209  -11.0175 C   0  0  2  0  0  0  0  0  0  0  0  0
   25.0974  -20.9281  -11.8495 N   0  0  0  0  0  0  0  0  0  0  0  0
   26.0297  -20.6328   -9.6566 C   0  0  0  0  0  0  0  0  0  0  0  0
   25.1087  -19.8101   -9.4542 O   0  0  0  0  0  0  0  0  0  0  0  0
   26.8343  -21.0882   -8.5765 N   0  0  0  0  0  0  0  0  0  0  0  0
   26.6091  -20.5611   -7.2508 C   0  0  1  0  0  0  0  0  0  0  0  0
   27.2307  -21.4611   -6.1962 C   0  0  0  0  0  0  0  0  0  0  0  0
   28.3540  -20.7722   -5.5270 C   0  0  0  0  0  0  0  0  0  0  0  0
   29.6328  -20.9935   -5.9847 C   0  0  0  0  0  0  0  0  0  0  0  0
   30.7479  -20.3854   -5.4129 C   0  0  0  0  0  0  0  0  0  0  0  0
   30.5269  -19.5396   -4.3551 C   0  0  0  0  0  0  0  0  0  0  0  0
   29.2514  -19.3026   -3.8788 C   0  0  0  0  0  0  0  0  0  0  0  0
   28.1686  -19.9152   -4.4608 C   0  0  0  0  0  0  0  0  0  0  0  0
   27.2093  -19.2147   -7.1544 C   0  0  0  0  0  0  0  0  0  0  0  0
   28.1420  -18.9130   -7.9376 O   0  0  0  0  0  0  0  0  0  0  0  0
   26.7771  -18.2697   -6.2263 O   0  0  0  0  0  0  0  0  0  0  0  0
  2  1  1  6
  2  3  1  0
  4  3  1  0
  5  4  2  0
  6  7  1  0
  6  5  1  0
  7 12  2  0
  8  9  2  0
  8  7  1  0
  9 10  1  0
 10 11  2  0
 12 11  1  0
 12  4  1  0
 13  2  1  0
 13 14  2  0
 16 15  1  6
 16 17  1  0
 16 18  1  0
 18 19  1  6
 19 13  1  0
 20 18  1  0
 21 20  2  0
 22 20  1  0
 23 22  1  0
 23 24  1  1
 24 25  1  0
 25 26  2  0
 26 27  1  0
 28 27  2  0
 29 28  1  0
 30 29  2  0
 30 25  1  0
 31 23  1  0
 32 31  2  0
 33 31  1  0
M  END
$$$$
