GSA.pdb
     RDKit          3D

 16 15  0  0  1  0  0  0  0  0999 V2000
   19.0468  -11.1796  -16.6582 N   0  0  0  0  0  0  0  0  0  0  0  0
   19.6358   -9.9034  -16.9542 C   0  0  0  0  0  0  0  0  0  0  0  0
   19.5038   -9.0108  -15.7588 C   0  0  0  0  0  0  0  0  0  0  0  0
   18.5077   -9.0543  -15.0012 O   0  0  0  0  0  0  0  0  0  0  0  0
   22.5780   -7.8903  -13.6360 O   0  0  0  0  0  0  0  0  0  0  0  0
   21.2819   -7.7494  -13.2013 C   0  0  0  0  0  0  0  0  0  0  0  0
   20.3737   -7.1885  -14.2963 C   0  0  2  0  0  0  0  0  0  0  0  0
   20.5179   -8.0693  -15.4363 N   0  0  0  0  0  0  0  0  0  0  0  0
   20.8921   -5.8491  -14.6788 C   0  0  0  0  0  0  0  0  0  0  0  0
   21.8869   -5.7417  -15.4605 O   0  0  0  0  0  0  0  0  0  0  0  0
   19.7558   -2.3033  -14.4775 C   0  0  0  0  0  0  0  0  0  0  0  0
   20.8145   -3.3669  -14.6797 C   0  0  2  0  0  0  0  0  0  0  0  0
   20.3223   -4.6424  -14.2065 N   0  0  0  0  0  0  0  0  0  0  0  0
   22.0758   -2.9772  -13.9905 C   0  0  0  0  0  0  0  0  0  0  0  0
   22.5143   -3.7011  -12.9150 O   0  0  0  0  0  0  0  0  0  0  0  0
   22.6944   -1.9797  -14.4371 O   0  0  0  0  0  0  0  0  0  0  0  0
  2  1  1  0
  3  2  1  0
  4  3  2  0
  6  5  1  0
  7  6  1  1
  7  8  1  0
  8  3  1  0
  9 10  2  0
  9  7  1  0
 12 11  1  1
 12 13  1  0
 13  9  1  0
 14 12  1  0
 14 15  1  0
 16 14  2  0
M  END
$$$$
