GSA.pdb
     RDKit          3D

 16 15  0  0  1  0  0  0  0  0999 V2000
   24.4474   -9.6889  -15.7533 N   0  0  0  0  0  0  0  0  0  0  0  0
   25.5693   -8.8238  -15.9905 C   0  0  0  0  0  0  0  0  0  0  0  0
   26.4644   -9.4482  -17.0163 C   0  0  0  0  0  0  0  0  0  0  0  0
   26.1066  -10.4326  -17.7025 O   0  0  0  0  0  0  0  0  0  0  0  0
   29.2230   -7.3412  -18.9223 O   0  0  0  0  0  0  0  0  0  0  0  0
   28.8037   -8.5719  -19.3674 C   0  0  0  0  0  0  0  0  0  0  0  0
   28.6458   -9.5678  -18.2177 C   0  0  2  0  0  0  0  0  0  0  0  0
   27.7700   -8.9393  -17.2513 N   0  0  0  0  0  0  0  0  0  0  0  0
   29.9779   -9.7499  -17.5843 C   0  0  0  0  0  0  0  0  0  0  0  0
   30.3695   -8.9628  -16.6681 O   0  0  0  0  0  0  0  0  0  0  0  0
   32.6298  -12.3241  -17.3245 C   0  0  0  0  0  0  0  0  0  0  0  0
   32.1765  -10.8794  -17.3440 C   0  0  2  0  0  0  0  0  0  0  0  0
   30.8684  -10.7859  -17.9550 N   0  0  0  0  0  0  0  0  0  0  0  0
   33.1750  -10.0347  -18.0562 C   0  0  0  0  0  0  0  0  0  0  0  0
   34.3052   -9.6224  -17.4039 O   0  0  0  0  0  0  0  0  0  0  0  0
   32.9296   -9.7318  -19.2500 O   0  0  0  0  0  0  0  0  0  0  0  0
  2  1  1  0
  3  2  1  0
  4  3  2  0
  6  5  1  0
  7  6  1  6
  7  8  1  0
  8  3  1  0
  9 10  2  0
  9  7  1  0
 12 11  1  6
 12 13  1  0
 13  9  1  0
 14 12  1  0
 14 15  1  0
 16 14  2  0
M  END
$$$$
