GSA.pdb
     RDKit          3D

 16 15  0  0  1  0  0  0  0  0999 V2000
   23.9617  -20.9245  -10.1304 N   0  0  0  0  0  0  0  0  0  0  0  0
   24.4018  -21.4651  -11.3863 C   0  0  0  0  0  0  0  0  0  0  0  0
   25.0711  -20.3854  -12.1797 C   0  0  0  0  0  0  0  0  0  0  0  0
   24.8487  -19.1707  -11.9727 O   0  0  0  0  0  0  0  0  0  0  0  0
   28.8778  -20.3589  -13.3171 O   0  0  0  0  0  0  0  0  0  0  0  0
   28.0173  -20.2316  -14.3809 C   0  0  0  0  0  0  0  0  0  0  0  0
   26.6660  -19.6579  -13.9527 C   0  0  2  0  0  0  0  0  0  0  0  0
   25.9956  -20.7046  -13.2104 N   0  0  0  0  0  0  0  0  0  0  0  0
   25.8756  -19.3837  -15.1811 C   0  0  0  0  0  0  0  0  0  0  0  0
   25.2513  -20.3202  -15.7688 O   0  0  0  0  0  0  0  0  0  0  0  0
   24.3746  -16.4396  -16.8380 C   0  0  0  0  0  0  0  0  0  0  0  0
   24.8928  -17.8619  -16.8797 C   0  0  2  0  0  0  0  0  0  0  0  0
   25.7737  -18.0941  -15.7558 N   0  0  0  0  0  0  0  0  0  0  0  0
   25.5782  -18.1236  -18.1757 C   0  0  0  0  0  0  0  0  0  0  0  0
   26.9343  -17.9657  -18.2713 O   0  0  0  0  0  0  0  0  0  0  0  0
   24.8654  -18.4856  -19.1441 O   0  0  0  0  0  0  0  0  0  0  0  0
  2  1  1  0
  3  2  1  0
  4  3  2  0
  6  5  1  0
  7  6  1  6
  7  8  1  0
  8  3  1  0
  9 10  2  0
  9  7  1  0
 12 11  1  6
 12 13  1  0
 13  9  1  0
 14 12  1  0
 14 15  1  0
 16 14  2  0
M  END
$$$$
