GSA.pdb
     RDKit          3D

 16 15  0  0  1  0  0  0  0  0999 V2000
   15.5297  -10.7429  -16.1758 N   0  0  0  0  0  0  0  0  0  0  0  0
   15.8359   -9.4635  -16.7523 C   0  0  0  0  0  0  0  0  0  0  0  0
   17.3200   -9.2621  -16.7442 C   0  0  0  0  0  0  0  0  0  0  0  0
   18.1088  -10.1349  -16.3152 O   0  0  0  0  0  0  0  0  0  0  0  0
   20.9365   -6.5055  -18.4187 O   0  0  0  0  0  0  0  0  0  0  0  0
   19.6068   -6.8482  -18.3655 C   0  0  0  0  0  0  0  0  0  0  0  0
   19.3323   -7.8917  -17.2818 C   0  0  2  0  0  0  0  0  0  0  0  0
   17.8950   -8.0569  -17.2298 N   0  0  0  0  0  0  0  0  0  0  0  0
   19.7802   -7.3289  -15.9812 C   0  0  0  0  0  0  0  0  0  0  0  0
   19.0535   -6.4982  -15.3534 O   0  0  0  0  0  0  0  0  0  0  0  0
   22.3743   -8.0099  -13.4035 C   0  0  0  0  0  0  0  0  0  0  0  0
   21.3973   -7.0946  -14.1111 C   0  0  2  0  0  0  0  0  0  0  0  0
   21.0132   -7.6762  -15.3789 N   0  0  0  0  0  0  0  0  0  0  0  0
   21.9932   -5.7413  -14.2879 C   0  0  0  0  0  0  0  0  0  0  0  0
   22.1982   -4.9411  -13.1967 O   0  0  0  0  0  0  0  0  0  0  0  0
   22.2875   -5.3871  -15.4563 O   0  0  0  0  0  0  0  0  0  0  0  0
  2  1  1  0
  3  2  1  0
  4  3  2  0
  6  5  1  0
  7  6  1  6
  7  8  1  0
  8  3  1  0
  9 10  2  0
  9  7  1  0
 12 11  1  6
 12 13  1  0
 13  9  1  0
 14 12  1  0
 14 15  1  0
 16 14  2  0
M  END
$$$$
