GSA.pdb
     RDKit          3D

 16 15  0  0  1  0  0  0  0  0999 V2000
   18.0792  -12.1968  -17.8766 N   0  0  0  0  0  0  0  0  0  0  0  0
   19.0787  -11.2365  -18.2535 C   0  0  0  0  0  0  0  0  0  0  0  0
   19.7570  -10.7221  -17.0213 C   0  0  0  0  0  0  0  0  0  0  0  0
   19.2059  -10.7473  -15.8972 O   0  0  0  0  0  0  0  0  0  0  0  0
   23.2898  -11.3021  -15.2046 O   0  0  0  0  0  0  0  0  0  0  0  0
   23.1460  -10.1350  -15.9157 C   0  0  0  0  0  0  0  0  0  0  0  0
   21.7008   -9.6351  -15.9004 C   0  0  2  0  0  0  0  0  0  0  0  0
   21.0687  -10.1795  -17.0837 N   0  0  0  0  0  0  0  0  0  0  0  0
   21.7277   -8.1548  -16.0304 C   0  0  0  0  0  0  0  0  0  0  0  0
   21.8943   -7.6099  -17.1651 O   0  0  0  0  0  0  0  0  0  0  0  0
   20.3111   -5.2905  -15.4694 C   0  0  0  0  0  0  0  0  0  0  0  0
   21.6687   -5.8521  -15.1023 C   0  0  2  0  0  0  0  0  0  0  0  0
   21.5730   -7.2847  -14.9246 N   0  0  0  0  0  0  0  0  0  0  0  0
   22.1905   -5.1824  -13.8788 C   0  0  0  0  0  0  0  0  0  0  0  0
   22.6091   -3.8810  -13.9425 O   0  0  0  0  0  0  0  0  0  0  0  0
   22.2239   -5.8569  -12.8200 O   0  0  0  0  0  0  0  0  0  0  0  0
  2  1  1  0
  3  2  1  0
  4  3  2  0
  6  5  1  0
  7  6  1  6
  7  8  1  0
  8  3  1  0
  9 10  2  0
  9  7  1  0
 12 11  1  1
 12 13  1  0
 13  9  1  0
 14 12  1  0
 14 15  1  0
 16 14  2  0
M  END
$$$$
