GSA.pdb
     RDKit          3D

 16 15  0  0  1  0  0  0  0  0999 V2000
   16.0480  -10.0921  -10.6197 N   0  0  0  0  0  0  0  0  0  0  0  0
   15.6746   -9.1376  -11.6260 C   0  0  0  0  0  0  0  0  0  0  0  0
   16.8632   -8.8392  -12.4870 C   0  0  0  0  0  0  0  0  0  0  0  0
   17.9573   -9.4305  -12.3411 O   0  0  0  0  0  0  0  0  0  0  0  0
   18.2976   -6.7773  -16.6189 O   0  0  0  0  0  0  0  0  0  0  0  0
   17.3184   -7.1335  -15.7229 C   0  0  0  0  0  0  0  0  0  0  0  0
   17.9102   -7.6438  -14.4083 C   0  0  2  0  0  0  0  0  0  0  0  0
   16.7917   -7.8609  -13.5150 N   0  0  0  0  0  0  0  0  0  0  0  0
   18.7548   -6.5626  -13.8369 C   0  0  0  0  0  0  0  0  0  0  0  0
   18.2232   -5.5758  -13.2405 O   0  0  0  0  0  0  0  0  0  0  0  0
   22.2950   -6.0287  -12.8958 C   0  0  0  0  0  0  0  0  0  0  0  0
   20.9400   -5.5021  -13.3198 C   0  0  2  0  0  0  0  0  0  0  0  0
   20.1679   -6.5676  -13.9210 N   0  0  0  0  0  0  0  0  0  0  0  0
   21.1020   -4.3510  -14.2507 C   0  0  0  0  0  0  0  0  0  0  0  0
   21.4804   -3.1299  -13.7623 O   0  0  0  0  0  0  0  0  0  0  0  0
   20.8790   -4.5570  -15.4694 O   0  0  0  0  0  0  0  0  0  0  0  0
  2  1  1  0
  3  2  1  0
  4  3  2  0
  6  5  1  0
  7  6  1  6
  7  8  1  0
  8  3  1  0
  9 10  2  0
  9  7  1  0
 12 11  1  6
 12 13  1  0
 13  9  1  0
 14 12  1  0
 14 15  1  0
 16 14  2  0
M  END
$$$$
