GSA.pdb
     RDKit          3D

 16 15  0  0  1  0  0  0  0  0999 V2000
   13.9697   -7.4409   -6.9095 N   0  0  0  0  0  0  0  0  0  0  0  0
   15.2812   -7.1348   -7.4089 C   0  0  0  0  0  0  0  0  0  0  0  0
   15.4244   -7.6932   -8.7913 C   0  0  0  0  0  0  0  0  0  0  0  0
   14.5588   -8.4405   -9.3013 O   0  0  0  0  0  0  0  0  0  0  0  0
   15.6634   -5.7487  -11.5180 O   0  0  0  0  0  0  0  0  0  0  0  0
   15.5979   -7.1024  -11.7452 C   0  0  0  0  0  0  0  0  0  0  0  0
   16.6597   -7.8636  -10.9503 C   0  0  2  0  0  0  0  0  0  0  0  0
   16.5634   -7.3911   -9.5852 N   0  0  0  0  0  0  0  0  0  0  0  0
   17.9930   -7.4759  -11.4804 C   0  0  0  0  0  0  0  0  0  0  0  0
   18.5513   -6.4013  -11.0989 O   0  0  0  0  0  0  0  0  0  0  0  0
   20.5649   -8.8610  -13.8481 C   0  0  0  0  0  0  0  0  0  0  0  0
   19.9495   -7.7849  -12.9785 C   0  0  2  0  0  0  0  0  0  0  0  0
   18.7033   -8.2619  -12.4194 N   0  0  0  0  0  0  0  0  0  0  0  0
   19.7539   -6.5353  -13.7645 C   0  0  0  0  0  0  0  0  0  0  0  0
   18.4878   -6.1192  -14.0756 O   0  0  0  0  0  0  0  0  0  0  0  0
   20.7824   -5.9053  -14.1145 O   0  0  0  0  0  0  0  0  0  0  0  0
  2  1  1  0
  3  2  1  0
  4  3  2  0
  6  5  1  0
  7  6  1  6
  7  8  1  0
  8  3  1  0
  9 10  2  0
  9  7  1  0
 12 11  1  6
 12 13  1  0
 13  9  1  0
 14 12  1  0
 14 15  1  0
 16 14  2  0
M  END
$$$$
