ENS.pdb
     RDKit          3D

 24 23  0  0  1  0  0  0  0  0999 V2000
   11.6965  -14.7438   17.5999 N   0  0  0  0  0  0  0  0  0  0  0  0
   12.3452  -15.6347   18.5422 C   0  0  1  0  0  0  0  0  0  0  0  0
   13.6334  -14.9921   18.9955 C   0  0  0  0  0  0  0  0  0  0  0  0
   14.4689  -14.7616   17.7537 C   0  0  0  0  0  0  0  0  0  0  0  0
   15.7977  -14.2313   18.0953 C   0  0  0  0  0  0  0  0  0  0  0  0
   16.7931  -14.9845   17.9620 O   0  0  0  0  0  0  0  0  0  0  0  0
   11.4007  -15.8743   19.6522 C   0  0  0  0  0  0  0  0  0  0  0  0
   10.5576  -15.0055   19.9846 O   0  0  0  0  0  0  0  0  0  0  0  0
   16.0066  -12.9447   18.5561 O   0  0  0  0  0  0  0  0  0  0  0  0
    9.1075  -18.6571   19.6327 N   0  0  0  0  0  0  0  0  0  0  0  0
    9.6810  -19.4444   20.6694 C   0  0  0  0  0  0  0  0  0  0  0  0
    9.4591  -20.6960   20.5621 O   0  0  0  0  0  0  0  0  0  0  0  0
   10.4672  -18.8440   21.7734 C   0  0  0  0  0  0  0  0  0  0  0  0
   10.5540  -17.3604   21.5376 C   0  0  2  0  0  0  0  0  0  0  0  0
   11.3999  -17.1053   20.4016 N   0  0  0  0  0  0  0  0  0  0  0  0
   11.0397  -16.6435   22.7588 C   0  0  0  0  0  0  0  0  0  0  0  0
   11.6355  -15.5671   22.5557 O   0  0  0  0  0  0  0  0  0  0  0  0
    8.5398  -15.4945   25.2310 O   0  0  0  0  0  0  0  0  0  0  0  0
    9.9001  -15.1263   25.1562 C   0  0  0  0  0  0  0  0  0  0  0  0
   10.7887  -16.3168   25.2351 C   0  0  2  0  0  0  0  0  0  0  0  0
   10.8526  -17.1251   24.0600 N   0  0  0  0  0  0  0  0  0  0  0  0
   10.5463  -17.0920   26.4931 C   0  0  0  0  0  0  0  0  0  0  0  0
   10.3151  -18.4404   26.5662 O   0  0  0  0  0  0  0  0  0  0  0  0
   10.5529  -16.4694   27.6113 O   0  0  0  0  0  0  0  0  0  0  0  0
  2  1  1  6
  3  2  1  0
  4  3  1  0
  5  6  2  0
  5  4  1  0
  7  8  2  0
  7  2  1  0
  9  5  1  0
 11 10  1  0
 11 13  1  0
 12 11  2  0
 14 13  1  1
 14 15  1  0
 15  7  1  0
 16 14  1  0
 17 16  2  0
 20 19  1  6
 19 18  1  0
 20 21  1  0
 21 16  1  0
 22 20  1  0
 22 23  1  0
 24 22  2  0
M  END
$$$$
