ENS.pdb
     RDKit          3D

 24 23  0  0  1  0  0  0  0  0999 V2000
   12.4815  -22.3766   11.5532 N   0  0  0  0  0  0  0  0  0  0  0  0
   13.4974  -21.8468   12.4418 C   0  0  1  0  0  0  0  0  0  0  0  0
   13.6825  -20.3810   12.1331 C   0  0  0  0  0  0  0  0  0  0  0  0
   12.3642  -19.6997   12.4348 C   0  0  0  0  0  0  0  0  0  0  0  0
   12.4691  -18.2409   12.2774 C   0  0  0  0  0  0  0  0  0  0  0  0
   13.0452  -17.7908   11.2570 O   0  0  0  0  0  0  0  0  0  0  0  0
   13.0486  -22.0901   13.8278 C   0  0  0  0  0  0  0  0  0  0  0  0
   11.9053  -22.5502   14.0674 O   0  0  0  0  0  0  0  0  0  0  0  0
   11.9653  -17.3396   13.1966 O   0  0  0  0  0  0  0  0  0  0  0  0
   16.7294  -23.8118   16.4330 N   0  0  0  0  0  0  0  0  0  0  0  0
   15.3451  -23.6469   16.7156 C   0  0  0  0  0  0  0  0  0  0  0  0
   14.6508  -24.7079   16.5771 O   0  0  0  0  0  0  0  0  0  0  0  0
   14.7749  -22.3442   17.1344 C   0  0  0  0  0  0  0  0  0  0  0  0
   13.5299  -22.0933   16.3274 C   0  0  2  0  0  0  0  0  0  0  0  0
   13.8925  -21.8141   14.9630 N   0  0  0  0  0  0  0  0  0  0  0  0
   12.7130  -20.9866   16.9184 C   0  0  0  0  0  0  0  0  0  0  0  0
   12.8944  -19.8554   16.4263 O   0  0  0  0  0  0  0  0  0  0  0  0
    8.8993  -21.3681   18.6486 O   0  0  0  0  0  0  0  0  0  0  0  0
    9.5270  -20.2139   18.1339 C   0  0  0  0  0  0  0  0  0  0  0  0
   10.9633  -20.1613   18.5181 C   0  0  2  0  0  0  0  0  0  0  0  0
   11.7952  -21.1776   17.9582 N   0  0  0  0  0  0  0  0  0  0  0  0
   11.1231  -19.9921   19.9973 C   0  0  0  0  0  0  0  0  0  0  0  0
   10.4934  -19.0472   20.7639 O   0  0  0  0  0  0  0  0  0  0  0  0
   11.9055  -20.7852   20.6271 O   0  0  0  0  0  0  0  0  0  0  0  0
  2  1  1  6
  3  2  1  0
  4  3  1  0
  5  6  2  0
  5  4  1  0
  7  8  2  0
  7  2  1  0
  9  5  1  0
 11 10  1  0
 11 13  1  0
 12 11  2  0
 14 13  1  1
 14 15  1  0
 15  7  1  0
 16 14  1  0
 17 16  2  0
 20 19  1  1
 19 18  1  0
 20 21  1  0
 21 16  1  0
 22 20  1  0
 22 23  1  0
 24 22  2  0
M  END
$$$$
