ENS.pdb
     RDKit          3D

 24 23  0  0  1  0  0  0  0  0999 V2000
    8.4144  -12.7546   18.2095 N   0  0  0  0  0  0  0  0  0  0  0  0
    8.9723  -14.0847   18.3567 C   0  0  1  0  0  0  0  0  0  0  0  0
   10.3812  -14.0726   17.8157 C   0  0  0  0  0  0  0  0  0  0  0  0
   10.8995  -15.4923   17.9109 C   0  0  0  0  0  0  0  0  0  0  0  0
   12.3345  -15.5589   17.5947 C   0  0  0  0  0  0  0  0  0  0  0  0
   12.9696  -16.5922   17.9183 O   0  0  0  0  0  0  0  0  0  0  0  0
    8.9097  -14.4386   19.7893 C   0  0  0  0  0  0  0  0  0  0  0  0
    9.3285  -13.6489   20.6708 O   0  0  0  0  0  0  0  0  0  0  0  0
   13.0202  -14.5407   16.9587 O   0  0  0  0  0  0  0  0  0  0  0  0
    6.0239  -14.7310   21.3815 N   0  0  0  0  0  0  0  0  0  0  0  0
    5.9322  -16.1131   21.7053 C   0  0  0  0  0  0  0  0  0  0  0  0
    4.7390  -16.5416   21.8454 O   0  0  0  0  0  0  0  0  0  0  0  0
    7.1329  -16.9682   21.8626 C   0  0  0  0  0  0  0  0  0  0  0  0
    8.3512  -16.1198   21.6174 C   0  0  2  0  0  0  0  0  0  0  0  0
    8.3700  -15.6958   20.2422 N   0  0  0  0  0  0  0  0  0  0  0  0
    9.6051  -16.8497   21.9866 C   0  0  0  0  0  0  0  0  0  0  0  0
   10.1431  -17.5025   21.0706 O   0  0  0  0  0  0  0  0  0  0  0  0
   12.4096  -15.9615   22.2054 O   0  0  0  0  0  0  0  0  0  0  0  0
   12.6258  -16.9848   23.1528 C   0  0  0  0  0  0  0  0  0  0  0  0
   11.3397  -17.5234   23.6715 C   0  0  2  0  0  0  0  0  0  0  0  0
   10.1633  -16.8210   23.2702 N   0  0  0  0  0  0  0  0  0  0  0  0
   11.4168  -17.7879   25.1434 C   0  0  0  0  0  0  0  0  0  0  0  0
   12.4246  -18.4633   25.7799 O   0  0  0  0  0  0  0  0  0  0  0  0
   10.4771  -17.3555   25.8970 O   0  0  0  0  0  0  0  0  0  0  0  0
  2  1  1  1
  3  2  1  0
  4  3  1  0
  5  6  2  0
  5  4  1  0
  7  8  2  0
  7  2  1  0
  9  5  1  0
 11 10  1  0
 11 13  1  0
 12 11  2  0
 14 13  1  6
 14 15  1  0
 15  7  1  0
 16 14  1  0
 17 16  2  0
 20 19  1  1
 19 18  1  0
 20 21  1  0
 21 16  1  0
 22 20  1  0
 22 23  1  0
 24 22  2  0
M  END
$$$$
