ENS.pdb
     RDKit          3D

 24 23  0  0  1  0  0  0  0  0999 V2000
   12.8659  -21.3060   18.4832 N   0  0  0  0  0  0  0  0  0  0  0  0
   13.5292  -21.5036   19.7573 C   0  0  1  0  0  0  0  0  0  0  0  0
   14.5409  -20.3993   19.9438 C   0  0  0  0  0  0  0  0  0  0  0  0
   15.5351  -20.5192   18.8078 C   0  0  0  0  0  0  0  0  0  0  0  0
   16.5683  -19.4755   18.8904 C   0  0  0  0  0  0  0  0  0  0  0  0
   17.6564  -19.7559   19.4501 O   0  0  0  0  0  0  0  0  0  0  0  0
   12.4884  -21.5127   20.8053 C   0  0  0  0  0  0  0  0  0  0  0  0
   11.5069  -20.7319   20.7506 O   0  0  0  0  0  0  0  0  0  0  0  0
   16.4021  -18.2003   18.3828 O   0  0  0  0  0  0  0  0  0  0  0  0
   10.9540  -25.5861   21.5977 N   0  0  0  0  0  0  0  0  0  0  0  0
   10.4903  -24.4717   22.3505 C   0  0  0  0  0  0  0  0  0  0  0  0
    9.3219  -24.0718   22.0311 O   0  0  0  0  0  0  0  0  0  0  0  0
   11.3095  -23.8412   23.4130 C   0  0  0  0  0  0  0  0  0  0  0  0
   11.5925  -22.4197   23.0087 C   0  0  2  0  0  0  0  0  0  0  0  0
   12.5472  -22.4096   21.9318 N   0  0  0  0  0  0  0  0  0  0  0  0
   12.0667  -21.6075   24.1735 C   0  0  0  0  0  0  0  0  0  0  0  0
   13.3006  -21.5823   24.3516 O   0  0  0  0  0  0  0  0  0  0  0  0
   11.0330  -18.0826   25.0256 O   0  0  0  0  0  0  0  0  0  0  0  0
   10.9839  -18.7758   26.2538 C   0  0  0  0  0  0  0  0  0  0  0  0
   11.6143  -20.1188   26.1435 C   0  0  2  0  0  0  0  0  0  0  0  0
   11.2045  -20.9092   25.0274 N   0  0  0  0  0  0  0  0  0  0  0  0
   11.5721  -20.8467   27.4514 C   0  0  0  0  0  0  0  0  0  0  0  0
   12.0970  -20.3934   28.6330 O   0  0  0  0  0  0  0  0  0  0  0  0
   11.0009  -21.9909   27.5015 O   0  0  0  0  0  0  0  0  0  0  0  0
  2  1  1  6
  3  2  1  0
  4  3  1  0
  5  6  2  0
  5  4  1  0
  7  8  2  0
  7  2  1  0
  9  5  1  0
 11 10  1  0
 11 13  1  0
 12 11  2  0
 14 13  1  1
 14 15  1  0
 15  7  1  0
 16 14  1  0
 17 16  2  0
 20 19  1  1
 19 18  1  0
 20 21  1  0
 21 16  1  0
 22 20  1  0
 22 23  1  0
 24 22  2  0
M  END
$$$$
