ENS.pdb
     RDKit          3D

 24 23  0  0  1  0  0  0  0  0999 V2000
    9.0501  -12.6588   18.0108 N   0  0  0  0  0  0  0  0  0  0  0  0
    8.4467  -13.9223   18.3876 C   0  0  1  0  0  0  0  0  0  0  0  0
    7.8128  -14.5317   17.1609 C   0  0  0  0  0  0  0  0  0  0  0  0
    8.8539  -14.4885   16.0621 C   0  0  0  0  0  0  0  0  0  0  0  0
    8.3633  -15.1369   14.8363 C   0  0  0  0  0  0  0  0  0  0  0  0
    8.0376  -14.4099   13.8661 O   0  0  0  0  0  0  0  0  0  0  0  0
    9.5095  -14.7691   18.9664 C   0  0  0  0  0  0  0  0  0  0  0  0
    9.2796  -15.9558   19.3056 O   0  0  0  0  0  0  0  0  0  0  0  0
    8.2425  -16.5071   14.6979 O   0  0  0  0  0  0  0  0  0  0  0  0
   14.0884  -16.2400   17.5603 N   0  0  0  0  0  0  0  0  0  0  0  0
   13.4501  -15.0016   17.8476 C   0  0  0  0  0  0  0  0  0  0  0  0
   13.0815  -14.3489   16.8155 O   0  0  0  0  0  0  0  0  0  0  0  0
   13.2396  -14.5256   19.2357 C   0  0  0  0  0  0  0  0  0  0  0  0
   11.9219  -15.0638   19.7237 C   0  0  2  0  0  0  0  0  0  0  0  0
   10.8500  -14.2802   19.1685 N   0  0  0  0  0  0  0  0  0  0  0  0
   11.8668  -15.0920   21.2195 C   0  0  0  0  0  0  0  0  0  0  0  0
   12.1122  -14.0121   21.7924 O   0  0  0  0  0  0  0  0  0  0  0  0
    8.9323  -15.9149   23.4104 O   0  0  0  0  0  0  0  0  0  0  0  0
   10.1819  -15.4117   23.8307 C   0  0  0  0  0  0  0  0  0  0  0  0
   11.2992  -16.2739   23.3603 C   0  0  2  0  0  0  0  0  0  0  0  0
   11.5621  -16.2422   21.9573 N   0  0  0  0  0  0  0  0  0  0  0  0
   11.1936  -17.6558   23.9274 C   0  0  0  0  0  0  0  0  0  0  0  0
   11.2088  -17.9736   25.2599 O   0  0  0  0  0  0  0  0  0  0  0  0
   11.0748  -18.6443   23.1231 O   0  0  0  0  0  0  0  0  0  0  0  0
  2  1  1  6
  3  2  1  0
  4  3  1  0
  5  6  2  0
  5  4  1  0
  7  8  2  0
  7  2  1  0
  9  5  1  0
 11 10  1  0
 11 13  1  0
 12 11  2  0
 14 13  1  1
 14 15  1  0
 15  7  1  0
 16 14  1  0
 17 16  2  0
 20 19  1  6
 19 18  1  0
 20 21  1  0
 21 16  1  0
 22 20  1  0
 22 23  1  0
 24 22  2  0
M  END
$$$$
