ENS.pdb
     RDKit          3D

 24 23  0  0  1  0  0  0  0  0999 V2000
    8.5077  -14.9713   12.7761 N   0  0  0  0  0  0  0  0  0  0  0  0
    8.2286  -15.7822   13.9452 C   0  0  1  0  0  0  0  0  0  0  0  0
    8.8289  -17.1502   13.7301 C   0  0  0  0  0  0  0  0  0  0  0  0
   10.0968  -16.9510   12.9264 C   0  0  0  0  0  0  0  0  0  0  0  0
   10.7567  -18.2349   12.6439 C   0  0  0  0  0  0  0  0  0  0  0  0
   10.4159  -18.8672   11.6143 O   0  0  0  0  0  0  0  0  0  0  0  0
    8.7941  -15.0842   15.1176 C   0  0  0  0  0  0  0  0  0  0  0  0
    9.9265  -14.5445   15.0664 O   0  0  0  0  0  0  0  0  0  0  0  0
   11.7340  -18.7814   13.4548 O   0  0  0  0  0  0  0  0  0  0  0  0
    8.2294  -12.0976   19.8674 N   0  0  0  0  0  0  0  0  0  0  0  0
    8.0915  -13.5084   19.7491 C   0  0  0  0  0  0  0  0  0  0  0  0
    8.5076  -14.1634   20.7615 O   0  0  0  0  0  0  0  0  0  0  0  0
    7.5107  -14.1463   18.5435 C   0  0  0  0  0  0  0  0  0  0  0  0
    8.6242  -14.4069   17.5655 C   0  0  2  0  0  0  0  0  0  0  0  0
    8.0813  -14.9887   16.3664 N   0  0  0  0  0  0  0  0  0  0  0  0
    9.6848  -15.2747   18.1681 C   0  0  0  0  0  0  0  0  0  0  0  0
    9.8243  -16.4005   17.6505 O   0  0  0  0  0  0  0  0  0  0  0  0
   14.0740  -15.3985   18.5420 O   0  0  0  0  0  0  0  0  0  0  0  0
   12.7512  -14.9918   18.2657 C   0  0  0  0  0  0  0  0  0  0  0  0
   11.8556  -15.2352   19.4283 C   0  0  2  0  0  0  0  0  0  0  0  0
   10.4859  -14.8764   19.2450 N   0  0  0  0  0  0  0  0  0  0  0  0
   12.4567  -14.7099   20.6953 C   0  0  0  0  0  0  0  0  0  0  0  0
   13.6872  -15.0483   21.1935 O   0  0  0  0  0  0  0  0  0  0  0  0
   11.7888  -13.8692   21.3918 O   0  0  0  0  0  0  0  0  0  0  0  0
  2  1  1  6
  3  2  1  0
  4  3  1  0
  5  6  2  0
  5  4  1  0
  7  8  2  0
  7  2  1  0
  9  5  1  0
 11 10  1  0
 11 13  1  0
 12 11  2  0
 14 13  1  1
 14 15  1  0
 15  7  1  0
 16 14  1  0
 17 16  2  0
 20 19  1  6
 19 18  1  0
 20 21  1  0
 21 16  1  0
 22 20  1  0
 22 23  1  0
 24 22  2  0
M  END
$$$$
