ENS.pdb
     RDKit          3D

 24 23  0  0  1  0  0  0  0  0999 V2000
   10.7976  -18.3741   18.0183 N   0  0  0  0  0  0  0  0  0  0  0  0
   11.1257  -19.5707   18.7684 C   0  0  1  0  0  0  0  0  0  0  0  0
   11.8262  -20.5356   17.8430 C   0  0  0  0  0  0  0  0  0  0  0  0
   12.3568  -19.7218   16.6813 C   0  0  0  0  0  0  0  0  0  0  0  0
   13.1193  -20.5621   15.7452 C   0  0  0  0  0  0  0  0  0  0  0  0
   12.5157  -21.4832   15.1427 O   0  0  0  0  0  0  0  0  0  0  0  0
   11.9631  -19.1630   19.9147 C   0  0  0  0  0  0  0  0  0  0  0  0
   12.3529  -20.0022   20.7633 O   0  0  0  0  0  0  0  0  0  0  0  0
   14.4679  -20.3892   15.4949 O   0  0  0  0  0  0  0  0  0  0  0  0
   16.0177  -18.4317   21.3977 N   0  0  0  0  0  0  0  0  0  0  0  0
   15.3525  -17.6278   20.4308 C   0  0  0  0  0  0  0  0  0  0  0  0
   15.7007  -17.8597   19.2258 O   0  0  0  0  0  0  0  0  0  0  0  0
   14.3426  -16.6110   20.8099 C   0  0  0  0  0  0  0  0  0  0  0  0
   13.0997  -17.3276   21.2636 C   0  0  2  0  0  0  0  0  0  0  0  0
   12.3706  -17.7952   20.1143 N   0  0  0  0  0  0  0  0  0  0  0  0
   12.2539  -16.4509   22.1339 C   0  0  0  0  0  0  0  0  0  0  0  0
   11.5898  -15.5770   21.5423 O   0  0  0  0  0  0  0  0  0  0  0  0
    9.2220  -16.8597   24.0387 O   0  0  0  0  0  0  0  0  0  0  0  0
    9.9390  -15.6487   23.9350 C   0  0  0  0  0  0  0  0  0  0  0  0
   11.3472  -15.8124   24.3860 C   0  0  2  0  0  0  0  0  0  0  0  0
   12.1911  -16.5790   23.5266 N   0  0  0  0  0  0  0  0  0  0  0  0
   11.4116  -16.2230   25.8246 C   0  0  0  0  0  0  0  0  0  0  0  0
   10.8890  -15.5201   26.8781 O   0  0  0  0  0  0  0  0  0  0  0  0
   11.9957  -17.3211   26.1263 O   0  0  0  0  0  0  0  0  0  0  0  0
  2  1  1  6
  3  2  1  0
  4  3  1  0
  5  6  2  0
  5  4  1  0
  7  8  2  0
  7  2  1  0
  9  5  1  0
 11 10  1  0
 11 13  1  0
 12 11  2  0
 14 13  1  6
 14 15  1  0
 15  7  1  0
 16 14  1  0
 17 16  2  0
 20 19  1  6
 19 18  1  0
 20 21  1  0
 21 16  1  0
 22 20  1  0
 22 23  1  0
 24 22  2  0
M  END
$$$$
