ANM.pdb
     RDKit          3D

 22 21  0  0  1  0  0  0  0  0999 V2000
   18.4221  -14.6410  -18.1139 C   0  0  0  0  0  0  0  0  0  0  0  0
   18.8578  -13.9382  -16.8669 C   0  0  2  0  0  0  0  0  0  0  0  0
   17.8915  -14.0455  -15.7933 N   0  0  0  0  0  0  0  0  0  0  0  0
   19.0995  -12.4865  -17.0880 C   0  0  0  0  0  0  0  0  0  0  0  0
   19.9855  -12.1703  -17.9285 O   0  0  0  0  0  0  0  0  0  0  0  0
   18.4914   -7.1424  -17.1196 N   0  0  0  0  0  0  0  0  0  0  0  0
   17.2993   -7.9173  -16.7910 C   0  0  0  0  0  0  0  0  0  0  0  0
   16.2488   -7.2670  -16.6770 O   0  0  0  0  0  0  0  0  0  0  0  0
   17.4185   -9.3387  -16.6263 C   0  0  0  0  0  0  0  0  0  0  0  0
   18.7221  -10.0325  -16.7951 C   0  0  2  0  0  0  0  0  0  0  0  0
   18.4092  -11.4711  -16.4251 N   0  0  0  0  0  0  0  0  0  0  0  0
   19.8047   -9.6229  -15.8913 C   0  0  0  0  0  0  0  0  0  0  0  0
   19.6756   -9.6880  -14.6229 O   0  0  0  0  0  0  0  0  0  0  0  0
   25.8549  -11.7727  -14.3672 C   0  0  0  0  0  0  0  0  0  0  0  0
   25.8408  -10.2953  -15.4020 S   0  0  0  0  0  0  0  0  0  0  0  0
   24.4954   -9.1888  -14.8732 C   0  0  0  0  0  0  0  0  0  0  0  0
   23.3013   -9.5178  -15.7020 C   0  0  0  0  0  0  0  0  0  0  0  0
   22.0806   -8.6764  -15.4151 C   0  0  2  0  0  0  0  0  0  0  0  0
   21.0453   -9.1433  -16.3447 N   0  0  0  0  0  0  0  0  0  0  0  0
   22.3063   -7.2344  -15.5408 C   0  0  0  0  0  0  0  0  0  0  0  0
   22.6656   -6.4631  -14.4275 O   0  0  0  0  0  0  0  0  0  0  0  0
   22.1900   -6.6411  -16.6268 O   0  0  0  0  0  0  0  0  0  0  0  0
  2  1  1  6
  2  3  1  0
  4  2  1  0
  4 11  1  0
  5  4  2  0
  7  6  1  0
  7  8  2  0
  9  7  1  0
 10 11  1  0
 10  9  1  1
 10 12  1  0
 12 13  2  0
 12 19  1  0
 15 14  1  0
 16 15  1  0
 17 16  1  0
 18 17  1  6
 19 18  1  0
 20 18  1  0
 20 21  1  0
 22 20  2  0
M  END
$$$$
