ANM.pdb
     RDKit          3D

 22 21  0  0  1  0  0  0  0  0999 V2000
   27.1258  -24.5518  -17.9496 C   0  0  0  0  0  0  0  0  0  0  0  0
   26.7421  -24.8567  -16.5359 C   0  0  2  0  0  0  0  0  0  0  0  0
   25.8169  -25.9661  -16.4304 N   0  0  0  0  0  0  0  0  0  0  0  0
   26.1048  -23.6957  -15.8573 C   0  0  0  0  0  0  0  0  0  0  0  0
   26.7449  -22.6087  -15.8500 O   0  0  0  0  0  0  0  0  0  0  0  0
   22.5368  -20.3448  -13.7138 N   0  0  0  0  0  0  0  0  0  0  0  0
   21.9854  -21.4726  -14.4578 C   0  0  0  0  0  0  0  0  0  0  0  0
   20.7595  -21.4449  -14.6473 O   0  0  0  0  0  0  0  0  0  0  0  0
   22.8724  -22.5084  -14.9074 C   0  0  0  0  0  0  0  0  0  0  0  0
   24.3251  -22.4752  -14.5950 C   0  0  2  0  0  0  0  0  0  0  0  0
   24.8556  -23.7441  -15.2375 N   0  0  0  0  0  0  0  0  0  0  0  0
   24.6932  -22.5718  -13.1766 C   0  0  0  0  0  0  0  0  0  0  0  0
   24.4101  -23.6053  -12.4827 O   0  0  0  0  0  0  0  0  0  0  0  0
   29.4414  -19.7421  -10.3574 C   0  0  0  0  0  0  0  0  0  0  0  0
   28.8130  -20.6672   -8.9421 S   0  0  0  0  0  0  0  0  0  0  0  0
   27.0406  -21.0125   -9.1730 C   0  0  0  0  0  0  0  0  0  0  0  0
   26.8232  -21.2534  -10.6276 C   0  0  0  0  0  0  0  0  0  0  0  0
   25.3838  -21.4823  -11.0229 C   0  0  2  0  0  0  0  0  0  0  0  0
   25.3784  -21.5559  -12.4887 N   0  0  0  0  0  0  0  0  0  0  0  0
   24.4596  -20.4573  -10.5320 C   0  0  0  0  0  0  0  0  0  0  0  0
   23.9444  -20.5176   -9.2303 O   0  0  0  0  0  0  0  0  0  0  0  0
   24.0974  -19.5022  -11.2405 O   0  0  0  0  0  0  0  0  0  0  0  0
  2  1  1  6
  2  3  1  0
  4  2  1  0
  4 11  1  0
  5  4  2  0
  7  6  1  0
  7  8  2  0
  9  7  1  0
 10 11  1  0
 10  9  1  1
 10 12  1  0
 12 13  2  0
 12 19  1  0
 15 14  1  0
 16 15  1  0
 17 16  1  0
 18 17  1  6
 19 18  1  0
 20 18  1  0
 20 21  1  0
 22 20  2  0
M  END
$$$$
