ANM.pdb
     RDKit          3D

 22 21  0  0  1  0  0  0  0  0999 V2000
   22.7792  -12.1459  -17.2686 C   0  0  0  0  0  0  0  0  0  0  0  0
   21.4542  -11.4877  -17.4916 C   0  0  2  0  0  0  0  0  0  0  0  0
   21.1912  -11.2107  -18.8887 N   0  0  0  0  0  0  0  0  0  0  0  0
   21.3321  -10.1954  -16.7638 C   0  0  0  0  0  0  0  0  0  0  0  0
   21.4245  -10.2302  -15.5062 O   0  0  0  0  0  0  0  0  0  0  0  0
   24.5851   -7.1863  -17.3554 N   0  0  0  0  0  0  0  0  0  0  0  0
   23.4481   -6.8201  -16.5172 C   0  0  0  0  0  0  0  0  0  0  0  0
   23.7205   -6.5017  -15.3494 O   0  0  0  0  0  0  0  0  0  0  0  0
   22.1290   -6.8519  -17.0835 C   0  0  0  0  0  0  0  0  0  0  0  0
   21.0637   -7.7218  -16.5198 C   0  0  2  0  0  0  0  0  0  0  0  0
   21.1239   -8.9652  -17.3885 N   0  0  0  0  0  0  0  0  0  0  0  0
   19.6850   -7.2296  -16.6365 C   0  0  0  0  0  0  0  0  0  0  0  0
   19.0100   -7.3841  -17.7090 O   0  0  0  0  0  0  0  0  0  0  0  0
   12.8609   -8.9039  -16.2522 C   0  0  0  0  0  0  0  0  0  0  0  0
   14.6468   -9.0121  -16.0230 S   0  0  0  0  0  0  0  0  0  0  0  0
   15.3652   -7.3395  -16.0038 C   0  0  0  0  0  0  0  0  0  0  0  0
   16.8373   -7.4929  -15.8298 C   0  0  0  0  0  0  0  0  0  0  0  0
   17.5979   -6.1948  -15.7008 C   0  0  2  0  0  0  0  0  0  0  0  0
   19.0131   -6.5692  -15.5940 N   0  0  0  0  0  0  0  0  0  0  0  0
   17.1742   -5.3642  -14.5710 C   0  0  0  0  0  0  0  0  0  0  0  0
   16.0693   -4.5095  -14.6815 O   0  0  0  0  0  0  0  0  0  0  0  0
   17.7693   -5.3819  -13.4798 O   0  0  0  0  0  0  0  0  0  0  0  0
  2  1  1  6
  2  3  1  0
  4  2  1  0
  4 11  1  0
  5  4  2  0
  7  6  1  0
  7  8  2  0
  9  7  1  0
 10 11  1  0
 10  9  1  6
 10 12  1  0
 12 13  2  0
 12 19  1  0
 15 14  1  0
 16 15  1  0
 17 16  1  0
 18 17  1  1
 19 18  1  0
 20 18  1  0
 20 21  1  0
 22 20  2  0
M  END
$$$$
