ANM.pdb
     RDKit          3D

 22 21  0  0  1  0  0  0  0  0999 V2000
   17.4745  -13.0112  -15.4359 C   0  0  0  0  0  0  0  0  0  0  0  0
   17.6620  -11.5856  -15.8493 C   0  0  2  0  0  0  0  0  0  0  0  0
   17.0792  -11.2931  -17.1426 N   0  0  0  0  0  0  0  0  0  0  0  0
   19.0974  -11.2000  -15.9243 C   0  0  0  0  0  0  0  0  0  0  0  0
   19.7383  -11.1471  -14.8390 O   0  0  0  0  0  0  0  0  0  0  0  0
   22.0131  -13.7188  -18.5388 N   0  0  0  0  0  0  0  0  0  0  0  0
   22.4741  -12.5433  -17.8072 C   0  0  0  0  0  0  0  0  0  0  0  0
   23.3703  -12.7455  -16.9732 O   0  0  0  0  0  0  0  0  0  0  0  0
   21.8772  -11.2691  -18.0930 C   0  0  0  0  0  0  0  0  0  0  0  0
   21.2159  -10.4667  -17.0309 C   0  0  2  0  0  0  0  0  0  0  0  0
   19.7628  -10.8979  -17.1130 N   0  0  0  0  0  0  0  0  0  0  0  0
   21.2029   -9.0106  -17.2214 C   0  0  0  0  0  0  0  0  0  0  0  0
   20.4224   -8.4549  -18.0651 O   0  0  0  0  0  0  0  0  0  0  0  0
   21.4992   -2.3503  -13.3386 C   0  0  0  0  0  0  0  0  0  0  0  0
   21.5978   -4.1459  -13.4785 S   0  0  0  0  0  0  0  0  0  0  0  0
   21.8233   -4.6138  -15.2232 C   0  0  0  0  0  0  0  0  0  0  0  0
   21.7847   -6.1021  -15.2901 C   0  0  0  0  0  0  0  0  0  0  0  0
   21.9533   -6.6778  -16.6760 C   0  0  2  0  0  0  0  0  0  0  0  0
   22.0283   -8.1327  -16.4983 N   0  0  0  0  0  0  0  0  0  0  0  0
   23.1188   -6.1629  -17.3987 C   0  0  0  0  0  0  0  0  0  0  0  0
   23.0385   -4.9771  -18.1408 O   0  0  0  0  0  0  0  0  0  0  0  0
   24.2150   -6.7488  -17.3847 O   0  0  0  0  0  0  0  0  0  0  0  0
  2  1  1  6
  2  3  1  0
  4  2  1  0
  4 11  1  0
  5  4  2  0
  7  6  1  0
  7  8  2  0
  9  7  1  0
 10 11  1  0
 10  9  1  6
 10 12  1  0
 12 13  2  0
 12 19  1  0
 15 14  1  0
 16 15  1  0
 17 16  1  0
 18 17  1  1
 19 18  1  0
 20 18  1  0
 20 21  1  0
 22 20  2  0
M  END
$$$$
