ANM.pdb
     RDKit          3D

 22 21  0  0  1  0  0  0  0  0999 V2000
   18.2618  -14.0875  -18.2365 C   0  0  0  0  0  0  0  0  0  0  0  0
   19.3532  -13.4880  -17.4070 C   0  0  2  0  0  0  0  0  0  0  0  0
   19.3631  -13.9840  -16.0462 N   0  0  0  0  0  0  0  0  0  0  0  0
   19.2564  -12.0053  -17.3264 C   0  0  0  0  0  0  0  0  0  0  0  0
   19.3823  -11.3592  -18.4027 O   0  0  0  0  0  0  0  0  0  0  0  0
   18.3942   -6.9987  -15.5865 N   0  0  0  0  0  0  0  0  0  0  0  0
   17.4400   -8.0431  -15.2283 C   0  0  0  0  0  0  0  0  0  0  0  0
   16.3702   -7.6498  -14.7379 O   0  0  0  0  0  0  0  0  0  0  0  0
   17.7926   -9.4155  -15.4604 C   0  0  0  0  0  0  0  0  0  0  0  0
   19.0271   -9.7844  -16.2014 C   0  0  2  0  0  0  0  0  0  0  0  0
   19.0371  -11.3012  -16.1418 N   0  0  0  0  0  0  0  0  0  0  0  0
   20.3009   -9.3613  -15.6053 C   0  0  0  0  0  0  0  0  0  0  0  0
   20.7428   -9.8899  -14.5306 O   0  0  0  0  0  0  0  0  0  0  0  0
   27.1382  -10.9477  -15.2561 C   0  0  0  0  0  0  0  0  0  0  0  0
   25.4195  -10.9299  -15.8033 S   0  0  0  0  0  0  0  0  0  0  0  0
   24.6671   -9.3197  -15.4094 C   0  0  0  0  0  0  0  0  0  0  0  0
   23.2404   -9.3826  -15.8353 C   0  0  0  0  0  0  0  0  0  0  0  0
   22.4690   -8.0969  -15.6557 C   0  0  2  0  0  0  0  0  0  0  0  0
   21.1191   -8.3656  -16.1653 N   0  0  0  0  0  0  0  0  0  0  0  0
   23.0744   -6.9397  -16.3193 C   0  0  0  0  0  0  0  0  0  0  0  0
   24.0517   -6.1706  -15.6737 O   0  0  0  0  0  0  0  0  0  0  0  0
   22.7510   -6.5951  -17.4690 O   0  0  0  0  0  0  0  0  0  0  0  0
  2  1  1  6
  2  3  1  0
  4  2  1  0
  4 11  1  0
  5  4  2  0
  7  6  1  0
  7  8  2  0
  9  7  1  0
 10 11  1  0
 10  9  1  1
 10 12  1  0
 12 13  2  0
 12 19  1  0
 15 14  1  0
 16 15  1  0
 17 16  1  0
 18 17  1  6
 19 18  1  0
 20 18  1  0
 20 21  1  0
 22 20  2  0
M  END
$$$$
