NNR.pdb
     RDKit          3D

 28 27  0  0  1  0  0  0  0  0999 V2000
    5.8430  -19.1355   14.5107 N   0  0  0  0  0  0  0  0  0  0  0  0
    7.1349  -18.5534   14.4959 C   0  0  0  0  0  0  0  0  0  0  0  0
    7.3182  -17.5860   13.6834 O   0  0  0  0  0  0  0  0  0  0  0  0
    8.2019  -19.0481   15.3773 C   0  0  0  0  0  0  0  0  0  0  0  0
    7.8648  -20.3583   16.0668 C   0  0  2  0  0  0  0  0  0  0  0  0
    6.6007  -20.1549   16.7470 N   0  0  0  0  0  0  0  0  0  0  0  0
    8.9453  -20.7040   17.0420 C   0  0  0  0  0  0  0  0  0  0  0  0
    9.1231  -21.8853   17.4284 O   0  0  0  0  0  0  0  0  0  0  0  0
   12.4700  -21.1782   16.5113 N   0  0  0  0  0  0  0  0  0  0  0  0
   12.8640  -19.9312   17.0484 C   0  0  0  0  0  0  0  0  0  0  0  0
   13.8713  -19.3970   16.5086 O   0  0  0  0  0  0  0  0  0  0  0  0
   12.1139  -19.3182   18.1795 C   0  0  0  0  0  0  0  0  0  0  0  0
   10.8512  -20.0856   18.5249 C   0  0  2  0  0  0  0  0  0  0  0  0
    9.8262  -19.6975   17.5786 N   0  0  0  0  0  0  0  0  0  0  0  0
   10.4350  -19.8549   19.9241 C   0  0  0  0  0  0  0  0  0  0  0  0
   10.2268  -18.6738   20.2881 O   0  0  0  0  0  0  0  0  0  0  0  0
    7.4283  -23.3297   18.4118 N   0  0  0  0  0  0  0  0  0  0  0  0
    6.4778  -23.8050   19.3822 C   0  0  0  0  0  0  0  0  0  0  0  0
    5.4391  -24.4708   19.0179 N   0  0  0  0  0  0  0  0  0  0  0  0
    6.6594  -23.5542   20.7692 N   0  0  0  0  0  0  0  0  0  0  0  0
    7.9618  -23.3794   21.3736 C   0  0  0  0  0  0  0  0  0  0  0  0
    7.8242  -22.1405   22.2836 C   0  0  0  0  0  0  0  0  0  0  0  0
    9.1468  -21.7691   22.8676 C   0  0  0  0  0  0  0  0  0  0  0  0
    9.7801  -20.5686   22.2445 C   0  0  2  0  0  0  0  0  0  0  0  0
   10.2560  -20.8833   20.8832 N   0  0  0  0  0  0  0  0  0  0  0  0
   10.9624  -20.1656   23.0297 C   0  0  0  0  0  0  0  0  0  0  0  0
   10.9071  -19.8107   24.2463 O   0  0  0  0  0  0  0  0  0  0  0  0
   12.2150  -20.1803   22.3828 O   0  0  0  0  0  0  0  0  0  0  0  0
  1  2  1  0
  2  3  2  0
  4  2  1  0
  4  5  1  0
  5  6  1  1
  7  5  1  0
  7  8  2  0
  9 10  1  0
 10 12  1  0
 11 10  2  0
 13 12  1  6
 13 14  1  0
 14  7  1  0
 15 13  1  0
 16 15  2  0
 18 17  1  0
 19 18  2  0
 20 18  1  0
 21 22  1  0
 21 20  1  0
 22 23  1  0
 24 23  1  1
 24 25  1  0
 24 26  1  0
 25 15  1  0
 26 28  1  0
 27 26  2  0
M  END
$$$$
