NNR.pdb
     RDKit          3D

 28 27  0  0  1  0  0  0  0  0999 V2000
    9.5715  -16.5547   14.3720 N   0  0  0  0  0  0  0  0  0  0  0  0
    9.4108  -17.9152   14.7342 C   0  0  0  0  0  0  0  0  0  0  0  0
    8.7020  -18.6359   13.9545 O   0  0  0  0  0  0  0  0  0  0  0  0
   10.0345  -18.4573   15.9496 C   0  0  0  0  0  0  0  0  0  0  0  0
   10.7474  -17.4108   16.7879 C   0  0  2  0  0  0  0  0  0  0  0  0
   11.9877  -17.1056   16.1018 N   0  0  0  0  0  0  0  0  0  0  0  0
   11.0147  -17.9597   18.1536 C   0  0  0  0  0  0  0  0  0  0  0  0
   10.0769  -18.3006   18.9157 O   0  0  0  0  0  0  0  0  0  0  0  0
   14.0631  -21.5324   19.4693 N   0  0  0  0  0  0  0  0  0  0  0  0
   14.3296  -20.1831   19.1422 C   0  0  0  0  0  0  0  0  0  0  0  0
   14.8509  -19.9874   18.0103 O   0  0  0  0  0  0  0  0  0  0  0  0
   14.0026  -19.0891   20.0983 C   0  0  0  0  0  0  0  0  0  0  0  0
   12.5592  -18.6334   19.9906 C   0  0  2  0  0  0  0  0  0  0  0  0
   12.3574  -18.1198   18.6518 N   0  0  0  0  0  0  0  0  0  0  0  0
   12.2203  -17.6365   21.0276 C   0  0  0  0  0  0  0  0  0  0  0  0
   12.7434  -16.5007   20.9443 O   0  0  0  0  0  0  0  0  0  0  0  0
    7.6020  -11.8804   21.2626 N   0  0  0  0  0  0  0  0  0  0  0  0
    8.1421  -12.5793   20.1265 C   0  0  0  0  0  0  0  0  0  0  0  0
    8.4518  -11.9482   19.0491 N   0  0  0  0  0  0  0  0  0  0  0  0
    8.3500  -13.9847   20.1619 N   0  0  0  0  0  0  0  0  0  0  0  0
    8.2615  -14.7631   21.3778 C   0  0  0  0  0  0  0  0  0  0  0  0
    9.6777  -15.3360   21.5971 C   0  0  0  0  0  0  0  0  0  0  0  0
    9.7095  -16.2065   22.8095 C   0  0  0  0  0  0  0  0  0  0  0  0
   11.0416  -16.8193   23.0929 C   0  0  2  0  0  0  0  0  0  0  0  0
   11.3412  -17.8812   22.1125 N   0  0  0  0  0  0  0  0  0  0  0  0
   11.0231  -17.4568   24.4234 C   0  0  0  0  0  0  0  0  0  0  0  0
   11.0672  -18.7123   24.5988 O   0  0  0  0  0  0  0  0  0  0  0  0
   10.9531  -16.6154   25.5525 O   0  0  0  0  0  0  0  0  0  0  0  0
  1  2  1  0
  2  3  2  0
  4  2  1  0
  4  5  1  0
  5  6  1  6
  7  5  1  0
  7  8  2  0
  9 10  1  0
 10 12  1  0
 11 10  2  0
 13 12  1  6
 13 14  1  0
 14  7  1  0
 15 13  1  0
 16 15  2  0
 18 17  1  0
 19 18  2  0
 20 18  1  0
 21 22  1  0
 21 20  1  0
 22 23  1  0
 24 23  1  6
 24 25  1  0
 24 26  1  0
 25 15  1  0
 26 28  1  0
 27 26  2  0
M  END
$$$$
