NNR.pdb
     RDKit          3D

 28 27  0  0  1  0  0  0  0  0999 V2000
   14.1004  -19.5905   18.3820 N   0  0  0  0  0  0  0  0  0  0  0  0
   13.9561  -18.2124   18.6789 C   0  0  0  0  0  0  0  0  0  0  0  0
   14.1049  -17.3983   17.7068 O   0  0  0  0  0  0  0  0  0  0  0  0
   13.6501  -17.7561   20.0420 C   0  0  0  0  0  0  0  0  0  0  0  0
   13.5414  -18.8843   21.0526 C   0  0  2  0  0  0  0  0  0  0  0  0
   12.4591  -19.7387   20.6044 N   0  0  0  0  0  0  0  0  0  0  0  0
   13.2482  -18.3182   22.4060 C   0  0  0  0  0  0  0  0  0  0  0  0
   14.0606  -17.5560   22.9853 O   0  0  0  0  0  0  0  0  0  0  0  0
   10.3702  -15.4906   26.1616 N   0  0  0  0  0  0  0  0  0  0  0  0
   10.1367  -16.8336   25.7866 C   0  0  0  0  0  0  0  0  0  0  0  0
    9.5991  -17.5613   26.6657 O   0  0  0  0  0  0  0  0  0  0  0  0
   10.5148  -17.3225   24.4317 C   0  0  0  0  0  0  0  0  0  0  0  0
   11.8177  -18.1005   24.4358 C   0  0  2  0  0  0  0  0  0  0  0  0
   12.0234  -18.6235   23.1013 N   0  0  0  0  0  0  0  0  0  0  0  0
   11.8161  -19.1669   25.4589 C   0  0  0  0  0  0  0  0  0  0  0  0
   11.3365  -20.2815   25.1454 O   0  0  0  0  0  0  0  0  0  0  0  0
   16.1403  -21.3017   33.2041 N   0  0  0  0  0  0  0  0  0  0  0  0
   15.2525  -22.3261   32.7211 C   0  0  0  0  0  0  0  0  0  0  0  0
   15.3059  -23.5221   33.1921 N   0  0  0  0  0  0  0  0  0  0  0  0
   14.2914  -22.0466   31.7122 N   0  0  0  0  0  0  0  0  0  0  0  0
   14.3787  -20.8970   30.8388 C   0  0  0  0  0  0  0  0  0  0  0  0
   13.1797  -21.0267   29.8758 C   0  0  0  0  0  0  0  0  0  0  0  0
   13.2323  -19.9660   28.8266 C   0  0  0  0  0  0  0  0  0  0  0  0
   12.1910  -20.0982   27.7643 C   0  0  2  0  0  0  0  0  0  0  0  0
   12.3219  -19.0115   26.7741 N   0  0  0  0  0  0  0  0  0  0  0  0
   10.8490  -19.9722   28.3645 C   0  0  0  0  0  0  0  0  0  0  0  0
   10.1375  -18.9259   28.2748 O   0  0  0  0  0  0  0  0  0  0  0  0
   10.3409  -21.0804   29.0725 O   0  0  0  0  0  0  0  0  0  0  0  0
  1  2  1  0
  2  3  2  0
  4  2  1  0
  4  5  1  0
  5  6  1  6
  7  5  1  0
  7  8  2  0
  9 10  1  0
 10 12  1  0
 11 10  2  0
 13 12  1  6
 13 14  1  0
 14  7  1  0
 15 13  1  0
 16 15  2  0
 18 17  1  0
 19 18  2  0
 20 18  1  0
 21 22  1  0
 21 20  1  0
 22 23  1  0
 24 23  1  1
 24 25  1  0
 24 26  1  0
 25 15  1  0
 26 28  1  0
 27 26  2  0
M  END
$$$$
