NNR.pdb
     RDKit          3D

 28 27  0  0  1  0  0  0  0  0999 V2000
    7.7254  -18.6612   14.6569 N   0  0  0  0  0  0  0  0  0  0  0  0
    8.4608  -17.4812   14.3836 C   0  0  0  0  0  0  0  0  0  0  0  0
    8.5066  -17.1039   13.1648 O   0  0  0  0  0  0  0  0  0  0  0  0
    9.1327  -16.7378   15.4587 C   0  0  0  0  0  0  0  0  0  0  0  0
    8.9753  -17.3723   16.8293 C   0  0  2  0  0  0  0  0  0  0  0  0
    7.5582  -17.6194   17.0108 N   0  0  0  0  0  0  0  0  0  0  0  0
    9.4919  -16.4373   17.8767 C   0  0  0  0  0  0  0  0  0  0  0  0
   10.6698  -16.0038   17.8418 O   0  0  0  0  0  0  0  0  0  0  0  0
    7.7823  -11.9774   19.4133 N   0  0  0  0  0  0  0  0  0  0  0  0
    7.5555  -13.3728   19.4224 C   0  0  0  0  0  0  0  0  0  0  0  0
    6.8507  -13.8185   18.4759 O   0  0  0  0  0  0  0  0  0  0  0  0
    8.1279  -14.2302   20.4972 C   0  0  0  0  0  0  0  0  0  0  0  0
    9.2301  -15.1417   19.9901 C   0  0  2  0  0  0  0  0  0  0  0  0
    8.6613  -15.9956   18.9683 N   0  0  0  0  0  0  0  0  0  0  0  0
    9.8469  -15.9180   21.0861 C   0  0  0  0  0  0  0  0  0  0  0  0
    9.1012  -16.6445   21.7837 O   0  0  0  0  0  0  0  0  0  0  0  0
    8.4739  -21.9989   20.7198 N   0  0  0  0  0  0  0  0  0  0  0  0
    9.6171  -22.3585   21.5165 C   0  0  0  0  0  0  0  0  0  0  0  0
    9.9067  -23.5925   21.7367 N   0  0  0  0  0  0  0  0  0  0  0  0
   10.4588  -21.3626   22.0815 N   0  0  0  0  0  0  0  0  0  0  0  0
   10.2195  -19.9453   21.9197 C   0  0  0  0  0  0  0  0  0  0  0  0
   11.3518  -19.2500   22.7046 C   0  0  0  0  0  0  0  0  0  0  0  0
   11.9713  -18.1678   21.8839 C   0  0  0  0  0  0  0  0  0  0  0  0
   11.7812  -16.7924   22.4339 C   0  0  2  0  0  0  0  0  0  0  0  0
   11.2289  -15.8943   21.4008 N   0  0  0  0  0  0  0  0  0  0  0  0
   13.0858  -16.2325   22.8359 C   0  0  0  0  0  0  0  0  0  0  0  0
   13.7247  -15.3810   22.1461 O   0  0  0  0  0  0  0  0  0  0  0  0
   13.6416  -16.6747   24.0538 O   0  0  0  0  0  0  0  0  0  0  0  0
  1  2  1  0
  2  3  2  0
  4  2  1  0
  4  5  1  0
  5  6  1  1
  7  5  1  0
  7  8  2  0
  9 10  1  0
 10 12  1  0
 11 10  2  0
 13 12  1  1
 13 14  1  0
 14  7  1  0
 15 13  1  0
 16 15  2  0
 18 17  1  0
 19 18  2  0
 20 18  1  0
 21 22  1  0
 21 20  1  0
 22 23  1  0
 24 23  1  6
 24 25  1  0
 24 26  1  0
 25 15  1  0
 26 28  1  0
 27 26  2  0
M  END
$$$$
