NNR.pdb
     RDKit          3D

 28 27  0  0  1  0  0  0  0  0999 V2000
   10.5609  -16.0835   11.6654 N   0  0  0  0  0  0  0  0  0  0  0  0
    9.6338  -17.0189   12.1883 C   0  0  0  0  0  0  0  0  0  0  0  0
    8.7002  -17.3995   11.4051 O   0  0  0  0  0  0  0  0  0  0  0  0
    9.7522  -17.5183   13.5655 C   0  0  0  0  0  0  0  0  0  0  0  0
   10.9779  -17.0019   14.2981 C   0  0  2  0  0  0  0  0  0  0  0  0
   12.0998  -17.7981   13.8403 N   0  0  0  0  0  0  0  0  0  0  0  0
   10.7819  -17.1556   15.7732 C   0  0  0  0  0  0  0  0  0  0  0  0
    9.9056  -16.4989   16.3876 O   0  0  0  0  0  0  0  0  0  0  0  0
    9.5719  -20.2391   18.1863 N   0  0  0  0  0  0  0  0  0  0  0  0
   10.9108  -20.5139   18.5477 C   0  0  0  0  0  0  0  0  0  0  0  0
   11.1420  -21.6921   18.9345 O   0  0  0  0  0  0  0  0  0  0  0  0
   11.9545  -19.4548   18.4645 C   0  0  0  0  0  0  0  0  0  0  0  0
   11.3996  -18.1266   17.9844 C   0  0  2  0  0  0  0  0  0  0  0  0
   11.5893  -18.0617   16.5503 N   0  0  0  0  0  0  0  0  0  0  0  0
   12.0280  -16.9856   18.6825 C   0  0  0  0  0  0  0  0  0  0  0  0
   13.2197  -16.7122   18.4072 O   0  0  0  0  0  0  0  0  0  0  0  0
    7.7383  -15.2621   18.8219 N   0  0  0  0  0  0  0  0  0  0  0  0
    7.4891  -13.8800   19.1358 C   0  0  0  0  0  0  0  0  0  0  0  0
    6.4395  -13.2814   18.6940 N   0  0  0  0  0  0  0  0  0  0  0  0
    8.3930  -13.1375   19.9429 N   0  0  0  0  0  0  0  0  0  0  0  0
    9.4471  -12.3147   19.3914 C   0  0  0  0  0  0  0  0  0  0  0  0
   10.6232  -13.2802   19.1340 C   0  0  0  0  0  0  0  0  0  0  0  0
   11.0999  -13.8797   20.4154 C   0  0  0  0  0  0  0  0  0  0  0  0
   12.0533  -15.0167   20.2464 C   0  0  2  0  0  0  0  0  0  0  0  0
   11.3704  -16.1789   19.6450 N   0  0  0  0  0  0  0  0  0  0  0  0
   12.5522  -15.4482   21.5662 C   0  0  0  0  0  0  0  0  0  0  0  0
   12.1327  -16.4823   22.1693 O   0  0  0  0  0  0  0  0  0  0  0  0
   13.5486  -14.6616   22.1795 O   0  0  0  0  0  0  0  0  0  0  0  0
  1  2  1  0
  2  3  2  0
  4  2  1  0
  4  5  1  0
  5  6  1  6
  7  5  1  0
  7  8  2  0
  9 10  1  0
 10 12  1  0
 11 10  2  0
 13 12  1  1
 13 14  1  0
 14  7  1  0
 15 13  1  0
 16 15  2  0
 18 17  1  0
 19 18  2  0
 20 18  1  0
 21 22  1  0
 21 20  1  0
 22 23  1  0
 24 23  1  1
 24 25  1  0
 24 26  1  0
 25 15  1  0
 26 28  1  0
 27 26  2  0
M  END
$$$$
