ESE.pdb
     RDKit          3D

 25 24  0  0  1  0  0  0  0  0999 V2000
   23.2228   -8.6502  -15.3550 N   0  0  0  0  0  0  0  0  0  0  0  0
   22.6779   -7.4510  -16.0500 C   0  0  1  0  0  0  0  0  0  0  0  0
   22.6888   -6.3873  -14.9985 C   0  0  0  0  0  0  0  0  0  0  0  0
   21.7876   -6.4969  -13.8460 C   0  0  0  0  0  0  0  0  0  0  0  0
   21.7531   -5.4141  -12.8696 C   0  0  0  0  0  0  0  0  0  0  0  0
   22.5751   -5.3906  -11.8928 O   0  0  0  0  0  0  0  0  0  0  0  0
   23.5613   -7.1209  -17.1814 C   0  0  0  0  0  0  0  0  0  0  0  0
   24.7950   -7.2726  -17.0778 O   0  0  0  0  0  0  0  0  0  0  0  0
   20.8213   -4.3811  -12.9854 O   0  0  0  0  0  0  0  0  0  0  0  0
   22.0187   -6.8474  -20.8913 O   0  0  0  0  0  0  0  0  0  0  0  0
   23.3816   -7.1147  -20.7465 C   0  0  0  0  0  0  0  0  0  0  0  0
   23.9376   -6.3560  -19.5678 C   0  0  2  0  0  0  0  0  0  0  0  0
   23.0944   -6.6230  -18.4287 N   0  0  0  0  0  0  0  0  0  0  0  0
   24.1118   -4.9094  -19.8200 C   0  0  0  0  0  0  0  0  0  0  0  0
   23.1549   -4.1621  -19.4638 O   0  0  0  0  0  0  0  0  0  0  0  0
   25.2507   -4.3328  -20.4182 N   0  0  0  0  0  0  0  0  0  0  0  0
   25.4078   -2.8656  -20.5930 C   0  0  1  0  0  0  0  0  0  0  0  0
   25.0709   -2.2675  -19.2749 C   0  0  0  0  0  0  0  0  0  0  0  0
   25.2377   -0.7869  -19.2051 C   0  0  0  0  0  0  0  0  0  0  0  0
   25.0412   -0.2075  -17.8662 C   0  0  0  0  0  0  0  0  0  0  0  0
   24.9155   -0.9756  -16.8805 O   0  0  0  0  0  0  0  0  0  0  0  0
   26.6029   -2.5030  -21.2956 C   0  0  0  0  0  0  0  0  0  0  0  0
   27.6402   -3.2415  -21.2119 O   0  0  0  0  0  0  0  0  0  0  0  0
   24.9929    1.1517  -17.6662 O   0  0  0  0  0  0  0  0  0  0  0  0
   26.6878   -1.3534  -22.0978 O   0  0  0  0  0  0  0  0  0  0  0  0
  2  1  1  1
  3  2  1  0
  4  3  1  0
  5  9  1  0
  5  4  1  0
  6  5  2  0
  7  2  1  0
  7  8  2  0
 10 11  1  0
 12 11  1  6
 12 13  1  0
 12 14  1  0
 13  7  1  0
 14 16  1  0
 15 14  2  0
 16 17  1  0
 17 22  1  0
 18 19  1  0
 17 18  1  1
 19 20  1  0
 20 21  2  0
 20 24  1  0
 22 23  2  0
 22 25  1  0
M  END
$$$$
