ESE.pdb
     RDKit          3D

 25 24  0  0  1  0  0  0  0  0999 V2000
   20.8785   -9.7638  -20.8368 N   0  0  0  0  0  0  0  0  0  0  0  0
   22.0699   -9.8286  -19.9455 C   0  0  1  0  0  0  0  0  0  0  0  0
   23.0189   -8.8353  -20.5372 C   0  0  0  0  0  0  0  0  0  0  0  0
   23.6442   -9.1131  -21.8350 C   0  0  0  0  0  0  0  0  0  0  0  0
   24.5880   -8.1476  -22.3865 C   0  0  0  0  0  0  0  0  0  0  0  0
   25.1399   -8.3499  -23.5201 O   0  0  0  0  0  0  0  0  0  0  0  0
   21.6579   -9.4567  -18.5812 C   0  0  0  0  0  0  0  0  0  0  0  0
   20.6978   -8.6798  -18.4068 O   0  0  0  0  0  0  0  0  0  0  0  0
   24.9048   -6.9825  -21.6860 O   0  0  0  0  0  0  0  0  0  0  0  0
   23.9857  -10.5030  -15.2412 O   0  0  0  0  0  0  0  0  0  0  0  0
   22.5977  -10.4571  -15.0955 C   0  0  0  0  0  0  0  0  0  0  0  0
   22.0051   -9.4716  -16.0711 C   0  0  2  0  0  0  0  0  0  0  0  0
   22.2977   -9.9350  -17.4051 N   0  0  0  0  0  0  0  0  0  0  0  0
   22.4399   -8.0764  -15.8454 C   0  0  0  0  0  0  0  0  0  0  0  0
   23.1634   -7.5647  -16.7486 O   0  0  0  0  0  0  0  0  0  0  0  0
   22.1039   -7.3067  -14.7131 N   0  0  0  0  0  0  0  0  0  0  0  0
   22.4807   -5.8758  -14.5764 C   0  0  1  0  0  0  0  0  0  0  0  0
   22.0843   -5.2339  -15.8568 C   0  0  0  0  0  0  0  0  0  0  0  0
   22.2293   -3.7495  -15.8770 C   0  0  0  0  0  0  0  0  0  0  0  0
   21.6787   -3.0932  -17.0741 C   0  0  0  0  0  0  0  0  0  0  0  0
   20.4475   -2.8508  -17.1264 O   0  0  0  0  0  0  0  0  0  0  0  0
   22.1140   -5.3113  -13.3114 C   0  0  0  0  0  0  0  0  0  0  0  0
   21.2542   -5.9010  -12.5756 O   0  0  0  0  0  0  0  0  0  0  0  0
   22.4766   -2.7377  -18.1357 O   0  0  0  0  0  0  0  0  0  0  0  0
   22.6742   -4.1183  -12.8261 O   0  0  0  0  0  0  0  0  0  0  0  0
  2  1  1  6
  3  2  1  0
  4  3  1  0
  5  9  1  0
  5  4  1  0
  6  5  2  0
  7  2  1  0
  7  8  2  0
 10 11  1  0
 12 11  1  1
 12 13  1  0
 12 14  1  0
 13  7  1  0
 14 16  1  0
 15 14  2  0
 16 17  1  0
 17 22  1  0
 18 19  1  0
 17 18  1  6
 19 20  1  0
 20 21  2  0
 20 24  1  0
 22 23  2  0
 22 25  1  0
M  END
$$$$
