ESE.pdb
     RDKit          3D

 25 24  0  0  1  0  0  0  0  0999 V2000
   24.2278  -35.3058  -10.1005 N   0  0  0  0  0  0  0  0  0  0  0  0
   24.5622  -34.0115   -9.4442 C   0  0  1  0  0  0  0  0  0  0  0  0
   23.2883  -33.2308   -9.5136 C   0  0  0  0  0  0  0  0  0  0  0  0
   22.2428  -33.4571   -8.5095 C   0  0  0  0  0  0  0  0  0  0  0  0
   20.9590  -32.7816   -8.6605 C   0  0  0  0  0  0  0  0  0  0  0  0
   20.6998  -32.1012   -9.7095 O   0  0  0  0  0  0  0  0  0  0  0  0
   24.9724  -34.2802   -8.0553 C   0  0  0  0  0  0  0  0  0  0  0  0
   24.3993  -35.1689   -7.3938 O   0  0  0  0  0  0  0  0  0  0  0  0
   19.9880  -32.8676   -7.6613 O   0  0  0  0  0  0  0  0  0  0  0  0
   28.1800  -33.2922   -4.5005 O   0  0  0  0  0  0  0  0  0  0  0  0
   27.7156  -33.0640   -5.7974 C   0  0  0  0  0  0  0  0  0  0  0  0
   26.4569  -33.8565   -6.0458 C   0  0  2  0  0  0  0  0  0  0  0  0
   26.0111  -33.5750   -7.3881 N   0  0  0  0  0  0  0  0  0  0  0  0
   25.4010  -33.6277   -5.0361 C   0  0  0  0  0  0  0  0  0  0  0  0
   24.7058  -32.5808   -5.1835 O   0  0  0  0  0  0  0  0  0  0  0  0
   25.1334  -34.4852   -3.9496 N   0  0  0  0  0  0  0  0  0  0  0  0
   24.0916  -34.1886   -2.9325 C   0  0  1  0  0  0  0  0  0  0  0  0
   22.8651  -34.8844   -3.4016 C   0  0  0  0  0  0  0  0  0  0  0  0
   21.6796  -34.7188   -2.5116 C   0  0  0  0  0  0  0  0  0  0  0  0
   20.4950  -35.4951   -2.9130 C   0  0  0  0  0  0  0  0  0  0  0  0
   20.5471  -36.1947   -3.9548 O   0  0  0  0  0  0  0  0  0  0  0  0
   24.5598  -34.3244   -1.5850 C   0  0  0  0  0  0  0  0  0  0  0  0
   25.5828  -35.0451   -1.3354 O   0  0  0  0  0  0  0  0  0  0  0  0
   19.3340  -35.4756   -2.1772 O   0  0  0  0  0  0  0  0  0  0  0  0
   23.9395  -33.6809   -0.5016 O   0  0  0  0  0  0  0  0  0  0  0  0
  2  1  1  6
  3  2  1  0
  4  3  1  0
  5  9  1  0
  5  4  1  0
  6  5  2  0
  7  2  1  0
  7  8  2  0
 10 11  1  0
 12 11  1  1
 12 13  1  0
 12 14  1  0
 13  7  1  0
 14 16  1  0
 15 14  2  0
 16 17  1  0
 17 22  1  0
 18 19  1  0
 17 18  1  6
 19 20  1  0
 20 21  2  0
 20 24  1  0
 22 23  2  0
 22 25  1  0
M  END
$$$$
