ESE.pdb
     RDKit          3D

 25 24  0  0  1  0  0  0  0  0999 V2000
   16.4826   -9.6195  -13.6607 N   0  0  0  0  0  0  0  0  0  0  0  0
   17.8020   -9.6516  -14.3507 C   0  0  1  0  0  0  0  0  0  0  0  0
   17.4542   -9.8922  -15.7854 C   0  0  0  0  0  0  0  0  0  0  0  0
   17.0463  -11.2334  -16.2182 C   0  0  0  0  0  0  0  0  0  0  0  0
   17.8951  -12.3722  -15.8868 C   0  0  0  0  0  0  0  0  0  0  0  0
   19.1549  -12.3271  -16.0899 O   0  0  0  0  0  0  0  0  0  0  0  0
   18.4687   -8.3533  -14.1523 C   0  0  0  0  0  0  0  0  0  0  0  0
   17.7928   -7.3081  -14.0711 O   0  0  0  0  0  0  0  0  0  0  0  0
   17.3462  -13.5331  -15.3394 O   0  0  0  0  0  0  0  0  0  0  0  0
   22.6207   -6.0343  -13.1098 O   0  0  0  0  0  0  0  0  0  0  0  0
   21.9832   -7.2142  -13.4987 C   0  0  0  0  0  0  0  0  0  0  0  0
   20.5474   -6.9330  -13.8642 C   0  0  2  0  0  0  0  0  0  0  0  0
   19.8777   -8.1976  -14.0431 N   0  0  0  0  0  0  0  0  0  0  0  0
   20.3951   -6.0385  -15.0318 C   0  0  0  0  0  0  0  0  0  0  0  0
   20.0249   -6.5873  -16.1102 O   0  0  0  0  0  0  0  0  0  0  0  0
   20.6326   -4.6490  -15.0119 N   0  0  0  0  0  0  0  0  0  0  0  0
   20.4536   -3.7883  -16.2098 C   0  0  1  0  0  0  0  0  0  0  0  0
   19.1195   -4.1420  -16.7607 C   0  0  0  0  0  0  0  0  0  0  0  0
   18.6894   -3.3130  -17.9238 C   0  0  0  0  0  0  0  0  0  0  0  0
   17.3637   -3.6532  -18.4658 C   0  0  0  0  0  0  0  0  0  0  0  0
   16.4886   -2.7561  -18.5479 O   0  0  0  0  0  0  0  0  0  0  0  0
   20.8349   -2.4245  -15.9902 C   0  0  0  0  0  0  0  0  0  0  0  0
   20.6878   -1.8997  -14.8365 O   0  0  0  0  0  0  0  0  0  0  0  0
   17.0587   -4.9263  -18.8854 O   0  0  0  0  0  0  0  0  0  0  0  0
   21.3838   -1.6215  -17.0033 O   0  0  0  0  0  0  0  0  0  0  0  0
  2  1  1  1
  3  2  1  0
  4  3  1  0
  5  9  1  0
  5  4  1  0
  6  5  2  0
  7  2  1  0
  7  8  2  0
 10 11  1  0
 12 11  1  6
 12 13  1  0
 12 14  1  0
 13  7  1  0
 14 16  1  0
 15 14  2  0
 16 17  1  0
 17 22  1  0
 18 19  1  0
 17 18  1  1
 19 20  1  0
 20 21  2  0
 20 24  1  0
 22 23  2  0
 22 25  1  0
M  END
$$$$
