ESE.pdb
     RDKit          3D

 25 24  0  0  1  0  0  0  0  0999 V2000
   13.5319   -9.7053   -9.3470 N   0  0  0  0  0  0  0  0  0  0  0  0
   14.9838   -9.4938   -9.6022 C   0  0  1  0  0  0  0  0  0  0  0  0
   15.2565  -10.3009  -10.8316 C   0  0  0  0  0  0  0  0  0  0  0  0
   15.2805  -11.7655  -10.7476 C   0  0  0  0  0  0  0  0  0  0  0  0
   15.5171  -12.5397  -11.9608 C   0  0  0  0  0  0  0  0  0  0  0  0
   15.7586  -11.9555  -13.0702 O   0  0  0  0  0  0  0  0  0  0  0  0
   15.2189   -8.0562   -9.8197 C   0  0  0  0  0  0  0  0  0  0  0  0
   14.3445   -7.3541  -10.3658 O   0  0  0  0  0  0  0  0  0  0  0  0
   15.4857  -13.9350  -11.9317 O   0  0  0  0  0  0  0  0  0  0  0  0
   16.8645   -3.8197   -8.9850 O   0  0  0  0  0  0  0  0  0  0  0  0
   16.5820   -5.1428   -8.6392 C   0  0  0  0  0  0  0  0  0  0  0  0
   16.7562   -6.0417   -9.8374 C   0  0  2  0  0  0  0  0  0  0  0  0
   16.4133   -7.3849   -9.4398 N   0  0  0  0  0  0  0  0  0  0  0  0
   18.0969   -5.9562  -10.4553 C   0  0  0  0  0  0  0  0  0  0  0  0
   18.9620   -6.7737  -10.0261 O   0  0  0  0  0  0  0  0  0  0  0  0
   18.4553   -5.0411  -11.4661 N   0  0  0  0  0  0  0  0  0  0  0  0
   19.7649   -5.0931  -12.1663 C   0  0  1  0  0  0  0  0  0  0  0  0
   20.0219   -6.5333  -12.4275 C   0  0  0  0  0  0  0  0  0  0  0  0
   21.2877   -6.8133  -13.1652 C   0  0  0  0  0  0  0  0  0  0  0  0
   21.6008   -8.2421  -13.3308 C   0  0  0  0  0  0  0  0  0  0  0  0
   22.5528   -8.7386  -12.6791 O   0  0  0  0  0  0  0  0  0  0  0  0
   19.8939   -4.1103  -13.2011 C   0  0  0  0  0  0  0  0  0  0  0  0
   18.8588   -3.7047  -13.8274 O   0  0  0  0  0  0  0  0  0  0  0  0
   20.8781   -9.0474  -14.1788 O   0  0  0  0  0  0  0  0  0  0  0  0
   21.1310   -3.5517  -13.5619 O   0  0  0  0  0  0  0  0  0  0  0  0
  2  1  1  6
  3  2  1  0
  4  3  1  0
  5  9  1  0
  5  4  1  0
  6  5  2  0
  7  2  1  0
  7  8  2  0
 10 11  1  0
 12 11  1  1
 12 13  1  0
 12 14  1  0
 13  7  1  0
 14 16  1  0
 15 14  2  0
 16 17  1  0
 17 22  1  0
 18 19  1  0
 17 18  1  6
 19 20  1  0
 20 21  2  0
 20 24  1  0
 22 23  2  0
 22 25  1  0
M  END
$$$$
