ESE.pdb
     RDKit          3D

 25 24  0  0  1  0  0  0  0  0999 V2000
   26.5688  -21.3734  -15.3443 N   0  0  0  0  0  0  0  0  0  0  0  0
   26.1077  -20.5099  -14.2219 C   0  0  1  0  0  0  0  0  0  0  0  0
   26.1860  -19.1230  -14.7765 C   0  0  0  0  0  0  0  0  0  0  0  0
   25.9352  -18.8972  -16.2043 C   0  0  0  0  0  0  0  0  0  0  0  0
   27.0445  -18.4977  -17.0628 C   0  0  0  0  0  0  0  0  0  0  0  0
   27.6672  -17.4022  -16.8559 O   0  0  0  0  0  0  0  0  0  0  0  0
   24.7283  -20.8897  -13.8719 C   0  0  0  0  0  0  0  0  0  0  0  0
   24.0010  -21.4533  -14.7141 O   0  0  0  0  0  0  0  0  0  0  0  0
   27.4481  -19.3066  -18.1264 O   0  0  0  0  0  0  0  0  0  0  0  0
   22.9782  -19.7018  -10.2565 O   0  0  0  0  0  0  0  0  0  0  0  0
   22.6786  -20.9764  -10.7416 C   0  0  0  0  0  0  0  0  0  0  0  0
   22.7882  -20.9993  -12.2454 C   0  0  2  0  0  0  0  0  0  0  0  0
   24.1427  -20.6519  -12.5984 N   0  0  0  0  0  0  0  0  0  0  0  0
   21.7872  -20.1513  -12.9278 C   0  0  0  0  0  0  0  0  0  0  0  0
   22.1840  -19.0081  -13.2975 O   0  0  0  0  0  0  0  0  0  0  0  0
   20.4543  -20.5336  -13.1817 N   0  0  0  0  0  0  0  0  0  0  0  0
   19.4626  -19.6177  -13.8027 C   0  0  1  0  0  0  0  0  0  0  0  0
   18.5865  -20.4822  -14.6356 C   0  0  0  0  0  0  0  0  0  0  0  0
   17.5651  -19.7442  -15.4336 C   0  0  0  0  0  0  0  0  0  0  0  0
   16.6834  -20.5982  -16.2460 C   0  0  0  0  0  0  0  0  0  0  0  0
   16.8486  -21.8431  -16.2238 O   0  0  0  0  0  0  0  0  0  0  0  0
   18.9165  -18.6649  -12.8822 C   0  0  0  0  0  0  0  0  0  0  0  0
   18.8376  -18.9509  -11.6411 O   0  0  0  0  0  0  0  0  0  0  0  0
   15.6833  -20.0695  -17.0271 O   0  0  0  0  0  0  0  0  0  0  0  0
   18.4619  -17.3991  -13.2867 O   0  0  0  0  0  0  0  0  0  0  0  0
  2  1  1  6
  3  2  1  0
  4  3  1  0
  5  9  1  0
  5  4  1  0
  6  5  2  0
  7  2  1  0
  7  8  2  0
 10 11  1  0
 12 11  1  1
 12 13  1  0
 12 14  1  0
 13  7  1  0
 14 16  1  0
 15 14  2  0
 16 17  1  0
 17 22  1  0
 18 19  1  0
 17 18  1  1
 19 20  1  0
 20 21  2  0
 20 24  1  0
 22 23  2  0
 22 25  1  0
M  END
$$$$
