ESE.pdb
     RDKit          3D

 25 24  0  0  1  0  0  0  0  0999 V2000
   18.4586  -13.1509  -16.5283 N   0  0  0  0  0  0  0  0  0  0  0  0
   18.6324  -11.7051  -16.8402 C   0  0  1  0  0  0  0  0  0  0  0  0
   17.2401  -11.1593  -16.8139 C   0  0  0  0  0  0  0  0  0  0  0  0
   16.2800  -11.5704  -17.8444 C   0  0  0  0  0  0  0  0  0  0  0  0
   14.9587  -10.9531  -17.8666 C   0  0  0  0  0  0  0  0  0  0  0  0
   14.5535  -10.3174  -18.8972 O   0  0  0  0  0  0  0  0  0  0  0  0
   19.4848  -11.0991  -15.8031 C   0  0  0  0  0  0  0  0  0  0  0  0
   19.7203  -11.7175  -14.7458 O   0  0  0  0  0  0  0  0  0  0  0  0
   14.1109  -11.0472  -16.7616 O   0  0  0  0  0  0  0  0  0  0  0  0
   23.0788   -9.7201  -13.8923 O   0  0  0  0  0  0  0  0  0  0  0  0
   22.1276  -10.2407  -14.7721 C   0  0  0  0  0  0  0  0  0  0  0  0
   21.0064   -9.2519  -14.9699 C   0  0  2  0  0  0  0  0  0  0  0  0
   20.0804   -9.8135  -15.9222 N   0  0  0  0  0  0  0  0  0  0  0  0
   21.4665   -7.8998  -15.3533 C   0  0  0  0  0  0  0  0  0  0  0  0
   21.5923   -7.6845  -16.5938 O   0  0  0  0  0  0  0  0  0  0  0  0
   21.7645   -6.8673  -14.4409 N   0  0  0  0  0  0  0  0  0  0  0  0
   21.7253   -5.4302  -14.8164 C   0  0  1  0  0  0  0  0  0  0  0  0
   20.4853   -5.2599  -15.6177 C   0  0  0  0  0  0  0  0  0  0  0  0
   20.1768   -3.8489  -15.9902 C   0  0  0  0  0  0  0  0  0  0  0  0
   18.9581   -3.6777  -16.7979 C   0  0  0  0  0  0  0  0  0  0  0  0
   18.6943   -4.5195  -17.6919 O   0  0  0  0  0  0  0  0  0  0  0  0
   22.0403   -4.5513  -13.7293 C   0  0  0  0  0  0  0  0  0  0  0  0
   22.3375   -3.3322  -13.9611 O   0  0  0  0  0  0  0  0  0  0  0  0
   18.1008   -2.6216  -16.5989 O   0  0  0  0  0  0  0  0  0  0  0  0
   22.0286   -4.9730  -12.3897 O   0  0  0  0  0  0  0  0  0  0  0  0
  2  1  1  1
  3  2  1  0
  4  3  1  0
  5  9  1  0
  5  4  1  0
  6  5  2  0
  7  2  1  0
  7  8  2  0
 10 11  1  0
 12 11  1  6
 12 13  1  0
 12 14  1  0
 13  7  1  0
 14 16  1  0
 15 14  2  0
 16 17  1  0
 17 22  1  0
 18 19  1  0
 17 18  1  1
 19 20  1  0
 20 21  2  0
 20 24  1  0
 22 23  2  0
 22 25  1  0
M  END
$$$$
