NYY.pdb
     RDKit          3D

 33 34  0  0  1  0  0  0  0  0999 V2000
   29.6497  -21.1665  -16.8212 N   0  0  0  0  0  0  0  0  0  0  0  0
   28.4199  -20.5427  -16.4427 C   0  0  0  0  0  0  0  0  0  0  0  0
   28.0956  -19.4866  -17.0405 O   0  0  0  0  0  0  0  0  0  0  0  0
   27.6367  -21.1890  -15.3810 C   0  0  0  0  0  0  0  0  0  0  0  0
   27.0469  -20.0982  -14.4677 C   0  0  2  0  0  0  0  0  0  0  0  0
   28.1537  -19.3489  -13.9657 N   0  0  0  0  0  0  0  0  0  0  0  0
   26.1790  -20.7035  -13.4407 C   0  0  0  0  0  0  0  0  0  0  0  0
   25.3950  -21.6150  -13.8773 O   0  0  0  0  0  0  0  0  0  0  0  0
   31.1470  -21.3217   -8.7842 O   0  0  0  0  0  0  0  0  0  0  0  0
   29.7986  -21.2185   -9.0302 C   0  0  0  0  0  0  0  0  0  0  0  0
   29.0246  -20.3980   -8.2152 C   0  0  0  0  0  0  0  0  0  0  0  0
   27.6594  -20.2775   -8.4434 C   0  0  0  0  0  0  0  0  0  0  0  0
   27.0350  -20.9599   -9.4706 C   0  0  0  0  0  0  0  0  0  0  0  0
   25.5926  -20.8755   -9.7334 C   0  0  0  0  0  0  0  0  0  0  0  0
   25.2072  -20.9806  -11.1948 C   0  0  2  0  0  0  0  0  0  0  0  0
   26.1575  -20.3568  -12.0653 N   0  0  0  0  0  0  0  0  0  0  0  0
   23.8347  -20.4186  -11.3419 C   0  0  0  0  0  0  0  0  0  0  0  0
   23.6934  -19.1963  -11.0107 O   0  0  0  0  0  0  0  0  0  0  0  0
   27.8207  -21.7619  -10.2573 C   0  0  0  0  0  0  0  0  0  0  0  0
   29.1948  -21.8964  -10.0447 C   0  0  0  0  0  0  0  0  0  0  0  0
   17.3431  -17.1041  -15.9310 O   0  0  0  0  0  0  0  0  0  0  0  0
   18.4557  -17.7372  -15.3520 C   0  0  0  0  0  0  0  0  0  0  0  0
   19.0792  -17.1816  -14.2336 C   0  0  0  0  0  0  0  0  0  0  0  0
   20.1785  -17.8172  -13.6717 C   0  0  0  0  0  0  0  0  0  0  0  0
   20.7037  -18.9905  -14.1636 C   0  0  0  0  0  0  0  0  0  0  0  0
   21.8769  -19.6620  -13.5686 C   0  0  0  0  0  0  0  0  0  0  0  0
   21.5186  -20.4747  -12.3321 C   0  0  2  0  0  0  0  0  0  0  0  0
   22.7172  -21.1185  -11.8060 N   0  0  0  0  0  0  0  0  0  0  0  0
   20.5095  -21.4910  -12.6592 C   0  0  0  0  0  0  0  0  0  0  0  0
   19.2857  -21.2797  -12.5134 O   0  0  0  0  0  0  0  0  0  0  0  0
   20.0595  -19.5196  -15.2803 C   0  0  0  0  0  0  0  0  0  0  0  0
   18.9651  -18.9043  -15.8537 C   0  0  0  0  0  0  0  0  0  0  0  0
   20.8925  -22.7492  -13.1536 O   0  0  0  0  0  0  0  0  0  0  0  0
  2  1  1  0
  3  2  2  0
  4  5  1  0
  4  2  1  0
  5  6  1  1
  7  5  1  0
  7  8  2  0
  9 10  1  0
 10 11  2  0
 11 12  1  0
 13 12  2  0
 13 14  1  0
 15 14  1  1
 15 16  1  0
 16  7  1  0
 17 15  1  0
 18 17  2  0
 19 13  1  0
 20 10  1  0
 20 19  2  0
 22 21  1  0
 22 23  2  0
 24 23  1  0
 25 24  2  0
 26 25  1  0
 27 28  1  0
 27 26  1  6
 28 17  1  0
 29 27  1  0
 30 29  2  0
 31 32  2  0
 31 25  1  0
 32 22  1  0
 33 29  1  0
M  END
$$$$
