NYY.pdb
     RDKit          3D

 33 34  0  0  1  0  0  0  0  0999 V2000
   44.6202   -8.5541   -4.3543 N   0  0  0  0  0  0  0  0  0  0  0  0
   44.9627   -9.9014   -4.0192 C   0  0  0  0  0  0  0  0  0  0  0  0
   44.2578  -10.4833   -3.1575 O   0  0  0  0  0  0  0  0  0  0  0  0
   46.1158  -10.4941   -4.7101 C   0  0  0  0  0  0  0  0  0  0  0  0
   45.6304  -11.6976   -5.5394 C   0  0  2  0  0  0  0  0  0  0  0  0
   46.7877  -12.2491   -6.1676 N   0  0  0  0  0  0  0  0  0  0  0  0
   44.5519  -11.2862   -6.4572 C   0  0  0  0  0  0  0  0  0  0  0  0
   44.9547  -10.7163   -7.5291 O   0  0  0  0  0  0  0  0  0  0  0  0
   42.9289  -16.1847  -10.8530 O   0  0  0  0  0  0  0  0  0  0  0  0
   42.4933  -15.1670  -10.0382 C   0  0  0  0  0  0  0  0  0  0  0  0
   42.0284  -13.9903  -10.6176 C   0  0  0  0  0  0  0  0  0  0  0  0
   41.5832  -12.9471   -9.8152 C   0  0  0  0  0  0  0  0  0  0  0  0
   41.5894  -13.0422   -8.4362 C   0  0  0  0  0  0  0  0  0  0  0  0
   41.1461  -11.9564   -7.5522 C   0  0  0  0  0  0  0  0  0  0  0  0
   42.2235  -10.9556   -7.1880 C   0  0  2  0  0  0  0  0  0  0  0  0
   43.1626  -11.4722   -6.2388 N   0  0  0  0  0  0  0  0  0  0  0  0
   41.5466   -9.7155   -6.7132 C   0  0  0  0  0  0  0  0  0  0  0  0
   40.7857   -9.8478   -5.6997 O   0  0  0  0  0  0  0  0  0  0  0  0
   42.0535  -14.2117   -7.8918 C   0  0  0  0  0  0  0  0  0  0  0  0
   42.5050  -15.2722   -8.6810 C   0  0  0  0  0  0  0  0  0  0  0  0
   40.1393   -1.5807   -3.7902 O   0  0  0  0  0  0  0  0  0  0  0  0
   40.5791   -2.8392   -4.2336 C   0  0  0  0  0  0  0  0  0  0  0  0
   41.4833   -2.9363   -5.2924 C   0  0  0  0  0  0  0  0  0  0  0  0
   41.9093   -4.1865   -5.7212 C   0  0  0  0  0  0  0  0  0  0  0  0
   41.4824   -5.3645   -5.1517 C   0  0  0  0  0  0  0  0  0  0  0  0
   41.9315   -6.6937   -5.6131 C   0  0  0  0  0  0  0  0  0  0  0  0
   41.0678   -7.2420   -6.7405 C   0  0  2  0  0  0  0  0  0  0  0  0
   41.6826   -8.4474   -7.2855 N   0  0  0  0  0  0  0  0  0  0  0  0
   40.9103   -6.2390   -7.8022 C   0  0  0  0  0  0  0  0  0  0  0  0
   41.6267   -6.2418   -8.8271 O   0  0  0  0  0  0  0  0  0  0  0  0
   40.5802   -5.2341   -4.0977 C   0  0  0  0  0  0  0  0  0  0  0  0
   40.1448   -4.0012   -3.6555 C   0  0  0  0  0  0  0  0  0  0  0  0
   39.9362   -5.2316   -7.6988 O   0  0  0  0  0  0  0  0  0  0  0  0
  2  1  1  0
  3  2  2  0
  4  5  1  0
  4  2  1  0
  5  6  1  6
  7  5  1  0
  7  8  2  0
  9 10  1  0
 10 11  2  0
 11 12  1  0
 13 12  2  0
 13 14  1  0
 15 14  1  1
 15 16  1  0
 16  7  1  0
 17 15  1  0
 18 17  2  0
 19 13  1  0
 20 10  1  0
 20 19  2  0
 22 21  1  0
 22 23  2  0
 24 23  1  0
 25 24  2  0
 26 25  1  0
 27 28  1  0
 27 26  1  1
 28 17  1  0
 29 27  1  0
 30 29  2  0
 31 32  2  0
 31 25  1  0
 32 22  1  0
 33 29  1  0
M  END
$$$$
