NYY.pdb
     RDKit          3D

 33 34  0  0  1  0  0  0  0  0999 V2000
   26.9740  -25.3509  -21.6806 N   0  0  0  0  0  0  0  0  0  0  0  0
   26.8132  -24.8610  -20.3468 C   0  0  0  0  0  0  0  0  0  0  0  0
   27.3398  -25.5219  -19.4174 O   0  0  0  0  0  0  0  0  0  0  0  0
   26.0408  -23.6234  -20.1733 C   0  0  0  0  0  0  0  0  0  0  0  0
   25.3516  -23.2794  -21.5068 C   0  0  2  0  0  0  0  0  0  0  0  0
   26.3757  -22.8040  -22.3806 N   0  0  0  0  0  0  0  0  0  0  0  0
   24.2338  -22.3448  -21.2801 C   0  0  0  0  0  0  0  0  0  0  0  0
   24.4661  -21.4404  -20.4060 O   0  0  0  0  0  0  0  0  0  0  0  0
   25.7227  -16.9236  -24.3577 O   0  0  0  0  0  0  0  0  0  0  0  0
   24.7332  -17.8078  -23.9992 C   0  0  0  0  0  0  0  0  0  0  0  0
   23.7710  -17.4067  -23.0774 C   0  0  0  0  0  0  0  0  0  0  0  0
   22.7610  -18.2825  -22.6988 C   0  0  0  0  0  0  0  0  0  0  0  0
   22.6816  -19.5617  -23.2163 C   0  0  0  0  0  0  0  0  0  0  0  0
   21.6425  -20.5244  -22.8284 C   0  0  0  0  0  0  0  0  0  0  0  0
   21.9924  -21.3877  -21.6336 C   0  0  2  0  0  0  0  0  0  0  0  0
   22.9769  -22.3819  -21.9369 N   0  0  0  0  0  0  0  0  0  0  0  0
   20.7246  -21.9721  -21.1115 C   0  0  0  0  0  0  0  0  0  0  0  0
   20.4372  -23.1424  -21.5254 O   0  0  0  0  0  0  0  0  0  0  0  0
   23.6427  -19.9312  -24.1215 C   0  0  0  0  0  0  0  0  0  0  0  0
   24.6660  -19.0657  -24.5154 C   0  0  0  0  0  0  0  0  0  0  0  0
   13.0014  -23.1525  -16.7876 O   0  0  0  0  0  0  0  0  0  0  0  0
   14.2465  -22.6679  -17.2220 C   0  0  0  0  0  0  0  0  0  0  0  0
   14.3357  -21.8930  -18.3794 C   0  0  0  0  0  0  0  0  0  0  0  0
   15.5728  -21.4210  -18.7980 C   0  0  0  0  0  0  0  0  0  0  0  0
   16.7450  -21.6784  -18.1244 C   0  0  0  0  0  0  0  0  0  0  0  0
   18.0608  -21.1810  -18.5745 C   0  0  0  0  0  0  0  0  0  0  0  0
   18.5665  -21.9080  -19.8128 C   0  0  2  0  0  0  0  0  0  0  0  0
   19.8483  -21.3443  -20.2214 N   0  0  0  0  0  0  0  0  0  0  0  0
   17.5972  -21.7896  -20.9104 C   0  0  0  0  0  0  0  0  0  0  0  0
   17.5419  -20.7741  -21.6379 O   0  0  0  0  0  0  0  0  0  0  0  0
   16.6228  -22.4547  -16.9736 C   0  0  0  0  0  0  0  0  0  0  0  0
   15.4029  -22.9330  -16.5397 C   0  0  0  0  0  0  0  0  0  0  0  0
   16.6901  -22.8277  -21.1817 O   0  0  0  0  0  0  0  0  0  0  0  0
  2  1  1  0
  3  2  2  0
  4  5  1  0
  4  2  1  0
  5  6  1  6
  7  5  1  0
  7  8  2  0
  9 10  1  0
 10 11  2  0
 11 12  1  0
 13 12  2  0
 13 14  1  0
 15 14  1  6
 15 16  1  0
 16  7  1  0
 17 15  1  0
 18 17  2  0
 19 13  1  0
 20 10  1  0
 20 19  2  0
 22 21  1  0
 22 23  2  0
 24 23  1  0
 25 24  2  0
 26 25  1  0
 27 28  1  0
 27 26  1  1
 28 17  1  0
 29 27  1  0
 30 29  2  0
 31 32  2  0
 31 25  1  0
 32 22  1  0
 33 29  1  0
M  END
$$$$
