NYY.pdb
     RDKit          3D

 33 34  0  0  1  0  0  0  0  0999 V2000
   23.7588  -26.7408  -15.7903 N   0  0  0  0  0  0  0  0  0  0  0  0
   23.1746  -26.5488  -14.4993 C   0  0  0  0  0  0  0  0  0  0  0  0
   22.7482  -27.5655  -13.8972 O   0  0  0  0  0  0  0  0  0  0  0  0
   23.1186  -25.1743  -13.9839 C   0  0  0  0  0  0  0  0  0  0  0  0
   23.7119  -24.2250  -15.0415 C   0  0  2  0  0  0  0  0  0  0  0  0
   25.1010  -24.5410  -15.1349 N   0  0  0  0  0  0  0  0  0  0  0  0
   23.4070  -22.8230  -14.7008 C   0  0  0  0  0  0  0  0  0  0  0  0
   22.1701  -22.5877  -14.4758 O   0  0  0  0  0  0  0  0  0  0  0  0
   25.0255  -21.2310   -7.9692 O   0  0  0  0  0  0  0  0  0  0  0  0
   24.9824  -20.8589   -9.2917 C   0  0  0  0  0  0  0  0  0  0  0  0
   26.0849  -21.1151  -10.1013 C   0  0  0  0  0  0  0  0  0  0  0  0
   26.0657  -20.7480  -11.4412 C   0  0  0  0  0  0  0  0  0  0  0  0
   24.9683  -20.1243  -12.0043 C   0  0  0  0  0  0  0  0  0  0  0  0
   24.9149  -19.7028  -13.4102 C   0  0  0  0  0  0  0  0  0  0  0  0
   23.9090  -20.4528  -14.2592 C   0  0  2  0  0  0  0  0  0  0  0  0
   24.3513  -21.7682  -14.6111 N   0  0  0  0  0  0  0  0  0  0  0  0
   23.6039  -19.6093  -15.4494 C   0  0  0  0  0  0  0  0  0  0  0  0
   24.5222  -19.5324  -16.3295 O   0  0  0  0  0  0  0  0  0  0  0  0
   23.8966  -19.8829  -11.1841 C   0  0  0  0  0  0  0  0  0  0  0  0
   23.8958  -20.2443   -9.8348 C   0  0  0  0  0  0  0  0  0  0  0  0
   17.3178  -22.3048  -17.7208 O   0  0  0  0  0  0  0  0  0  0  0  0
   18.4645  -21.4977  -17.8089 C   0  0  0  0  0  0  0  0  0  0  0  0
   19.6809  -21.9433  -17.2894 C   0  0  0  0  0  0  0  0  0  0  0  0
   20.8063  -21.1352  -17.3824 C   0  0  0  0  0  0  0  0  0  0  0  0
   20.7941  -19.8905  -17.9697 C   0  0  0  0  0  0  0  0  0  0  0  0
   21.9906  -19.0296  -18.0622 C   0  0  0  0  0  0  0  0  0  0  0  0
   22.1441  -18.1132  -16.8562 C   0  0  2  0  0  0  0  0  0  0  0  0
   22.4114  -18.9126  -15.6656 N   0  0  0  0  0  0  0  0  0  0  0  0
   20.9266  -17.3155  -16.6580 C   0  0  0  0  0  0  0  0  0  0  0  0
   20.2236  -17.4249  -15.6297 O   0  0  0  0  0  0  0  0  0  0  0  0
   19.5653  -19.4743  -18.4782 C   0  0  0  0  0  0  0  0  0  0  0  0
   18.4349  -20.2622  -18.3969 C   0  0  0  0  0  0  0  0  0  0  0  0
   20.5081  -16.3914  -17.6302 O   0  0  0  0  0  0  0  0  0  0  0  0
  2  1  1  0
  3  2  2  0
  4  5  1  0
  4  2  1  0
  5  6  1  1
  7  5  1  0
  7  8  2  0
  9 10  1  0
 10 11  2  0
 11 12  1  0
 13 12  2  0
 13 14  1  0
 15 14  1  6
 15 16  1  0
 16  7  1  0
 17 15  1  0
 18 17  2  0
 19 13  1  0
 20 10  1  0
 20 19  2  0
 22 21  1  0
 22 23  2  0
 24 23  1  0
 25 24  2  0
 26 25  1  0
 27 28  1  0
 27 26  1  6
 28 17  1  0
 29 27  1  0
 30 29  2  0
 31 32  2  0
 31 25  1  0
 32 22  1  0
 33 29  1  0
M  END
$$$$
