NYY.pdb
     RDKit          3D

 33 34  0  0  1  0  0  0  0  0999 V2000
   29.7039   -4.4289  -20.4602 N   0  0  0  0  0  0  0  0  0  0  0  0
   28.5376   -3.9932  -21.1637 C   0  0  0  0  0  0  0  0  0  0  0  0
   28.5563   -2.8405  -21.6625 O   0  0  0  0  0  0  0  0  0  0  0  0
   27.4098   -4.9314  -21.2423 C   0  0  0  0  0  0  0  0  0  0  0  0
   27.7920   -6.2273  -20.5033 C   0  0  2  0  0  0  0  0  0  0  0  0
   28.3228   -7.1135  -21.4888 N   0  0  0  0  0  0  0  0  0  0  0  0
   26.6371   -6.7461  -19.7472 C   0  0  0  0  0  0  0  0  0  0  0  0
   25.5220   -6.6832  -20.3707 O   0  0  0  0  0  0  0  0  0  0  0  0
   21.1978  -11.4174  -14.6368 O   0  0  0  0  0  0  0  0  0  0  0  0
   22.2760  -10.8919  -15.3082 C   0  0  0  0  0  0  0  0  0  0  0  0
   22.0642  -10.2364  -16.5174 C   0  0  0  0  0  0  0  0  0  0  0  0
   23.1379   -9.6972  -17.2150 C   0  0  0  0  0  0  0  0  0  0  0  0
   24.4318   -9.7945  -16.7387 C   0  0  0  0  0  0  0  0  0  0  0  0
   25.5959   -9.2559  -17.4541 C   0  0  0  0  0  0  0  0  0  0  0  0
   25.4814   -7.7961  -17.8428 C   0  0  2  0  0  0  0  0  0  0  0  0
   26.6800   -7.2842  -18.4354 N   0  0  0  0  0  0  0  0  0  0  0  0
   25.0681   -7.0362  -16.6291 C   0  0  0  0  0  0  0  0  0  0  0  0
   25.9016   -7.0273  -15.6653 O   0  0  0  0  0  0  0  0  0  0  0  0
   24.6122  -10.4462  -15.5461 C   0  0  0  0  0  0  0  0  0  0  0  0
   23.5461  -10.9949  -14.8292 C   0  0  0  0  0  0  0  0  0  0  0  0
   19.0188   -3.2975  -19.3414 O   0  0  0  0  0  0  0  0  0  0  0  0
   20.0873   -3.4957  -18.4509 C   0  0  0  0  0  0  0  0  0  0  0  0
   19.8562   -3.5560  -17.0758 C   0  0  0  0  0  0  0  0  0  0  0  0
   20.9214   -3.7515  -16.2067 C   0  0  0  0  0  0  0  0  0  0  0  0
   22.2235   -3.8920  -16.6299 C   0  0  0  0  0  0  0  0  0  0  0  0
   23.3562   -4.0936  -15.7038 C   0  0  0  0  0  0  0  0  0  0  0  0
   23.5266   -5.5514  -15.2997 C   0  0  2  0  0  0  0  0  0  0  0  0
   23.8609   -6.3486  -16.4748 N   0  0  0  0  0  0  0  0  0  0  0  0
   22.2940   -6.0622  -14.6849 C   0  0  0  0  0  0  0  0  0  0  0  0
   21.8951   -5.6611  -13.5697 O   0  0  0  0  0  0  0  0  0  0  0  0
   22.4215   -3.8269  -18.0077 C   0  0  0  0  0  0  0  0  0  0  0  0
   21.3766   -3.6341  -18.8888 C   0  0  0  0  0  0  0  0  0  0  0  0
   21.5134   -7.0299  -15.3394 O   0  0  0  0  0  0  0  0  0  0  0  0
  2  1  1  0
  3  2  2  0
  4  5  1  0
  4  2  1  0
  5  6  1  6
  7  5  1  0
  7  8  2  0
  9 10  1  0
 10 11  2  0
 11 12  1  0
 13 12  2  0
 13 14  1  0
 15 14  1  1
 15 16  1  0
 16  7  1  0
 17 15  1  0
 18 17  2  0
 19 13  1  0
 20 10  1  0
 20 19  2  0
 22 21  1  0
 22 23  2  0
 24 23  1  0
 25 24  2  0
 26 25  1  0
 27 28  1  0
 27 26  1  6
 28 17  1  0
 29 27  1  0
 30 29  2  0
 31 32  2  0
 31 25  1  0
 32 22  1  0
 33 29  1  0
M  END
$$$$
