NYY.pdb
     RDKit          3D

 33 34  0  0  1  0  0  0  0  0999 V2000
   19.0413  -24.5348   -8.5188 N   0  0  0  0  0  0  0  0  0  0  0  0
   18.0740  -23.7616   -7.8037 C   0  0  0  0  0  0  0  0  0  0  0  0
   17.9087  -22.5673   -8.1562 O   0  0  0  0  0  0  0  0  0  0  0  0
   17.3536  -24.4292   -6.7112 C   0  0  0  0  0  0  0  0  0  0  0  0
   17.9763  -25.8195   -6.4851 C   0  0  2  0  0  0  0  0  0  0  0  0
   17.5802  -26.6254   -7.5950 N   0  0  0  0  0  0  0  0  0  0  0  0
   17.5956  -26.3425   -5.1599 C   0  0  0  0  0  0  0  0  0  0  0  0
   16.3589  -26.6477   -5.0442 O   0  0  0  0  0  0  0  0  0  0  0  0
   16.6968  -32.3961   -6.1165 O   0  0  0  0  0  0  0  0  0  0  0  0
   17.1402  -31.4302   -5.2449 C   0  0  0  0  0  0  0  0  0  0  0  0
   16.4310  -31.2051   -4.0689 C   0  0  0  0  0  0  0  0  0  0  0  0
   16.8590  -30.2340   -3.1721 C   0  0  0  0  0  0  0  0  0  0  0  0
   17.9850  -29.4704   -3.4162 C   0  0  0  0  0  0  0  0  0  0  0  0
   18.4598  -28.4214   -2.5045 C   0  0  0  0  0  0  0  0  0  0  0  0
   17.9545  -27.0290   -2.8222 C   0  0  2  0  0  0  0  0  0  0  0  0
   18.4701  -26.5201   -4.0571 N   0  0  0  0  0  0  0  0  0  0  0  0
   18.2768  -26.1548   -1.6589 C   0  0  0  0  0  0  0  0  0  0  0  0
   19.4139  -26.3444   -1.1161 O   0  0  0  0  0  0  0  0  0  0  0  0
   18.6641  -29.7120   -4.5824 C   0  0  0  0  0  0  0  0  0  0  0  0
   18.2505  -30.6837   -5.4968 C   0  0  0  0  0  0  0  0  0  0  0  0
   11.9473  -21.5542   -1.7482 O   0  0  0  0  0  0  0  0  0  0  0  0
   12.8091  -22.5512   -1.2613 C   0  0  0  0  0  0  0  0  0  0  0  0
   14.0374  -22.7848   -1.8816 C   0  0  0  0  0  0  0  0  0  0  0  0
   14.8794  -23.7739   -1.3906 C   0  0  0  0  0  0  0  0  0  0  0  0
   14.5677  -24.5575   -0.3029 C   0  0  0  0  0  0  0  0  0  0  0  0
   15.4616  -25.6133    0.2143 C   0  0  0  0  0  0  0  0  0  0  0  0
   16.9222  -25.1842    0.2309 C   0  0  2  0  0  0  0  0  0  0  0  0
   17.4417  -25.1652   -1.1321 N   0  0  0  0  0  0  0  0  0  0  0  0
   17.7188  -26.1028    1.0553 C   0  0  0  0  0  0  0  0  0  0  0  0
   17.8360  -25.9509    2.2909 O   0  0  0  0  0  0  0  0  0  0  0  0
   13.3351  -24.3002    0.2940 C   0  0  0  0  0  0  0  0  0  0  0  0
   12.4838  -23.3214   -0.1777 C   0  0  0  0  0  0  0  0  0  0  0  0
   18.3825  -27.1964    0.4740 O   0  0  0  0  0  0  0  0  0  0  0  0
  2  1  1  0
  3  2  2  0
  4  5  1  0
  4  2  1  0
  5  6  1  6
  7  5  1  0
  7  8  2  0
  9 10  1  0
 10 11  2  0
 11 12  1  0
 13 12  2  0
 13 14  1  0
 15 14  1  1
 15 16  1  0
 16  7  1  0
 17 15  1  0
 18 17  2  0
 19 13  1  0
 20 10  1  0
 20 19  2  0
 22 21  1  0
 22 23  2  0
 24 23  1  0
 25 24  2  0
 26 25  1  0
 27 28  1  0
 27 26  1  6
 28 17  1  0
 29 27  1  0
 30 29  2  0
 31 32  2  0
 31 25  1  0
 32 22  1  0
 33 29  1  0
M  END
$$$$
