NYY.pdb
     RDKit          3D

 33 34  0  0  1  0  0  0  0  0999 V2000
   47.9437  -13.0925   -5.5154 N   0  0  0  0  0  0  0  0  0  0  0  0
   47.4491  -12.0157   -6.3158 C   0  0  0  0  0  0  0  0  0  0  0  0
   48.1572  -10.9816   -6.4007 O   0  0  0  0  0  0  0  0  0  0  0  0
   46.1488  -12.2074   -6.9720 C   0  0  0  0  0  0  0  0  0  0  0  0
   45.2807  -10.9599   -6.7234 C   0  0  2  0  0  0  0  0  0  0  0  0
   45.0573  -10.8967   -5.3147 N   0  0  0  0  0  0  0  0  0  0  0  0
   44.0620  -11.0098   -7.5523 C   0  0  0  0  0  0  0  0  0  0  0  0
   44.2601  -10.8150   -8.8008 O   0  0  0  0  0  0  0  0  0  0  0  0
   44.0298  -16.9421  -10.0279 O   0  0  0  0  0  0  0  0  0  0  0  0
   43.2842  -15.8897   -9.5525 C   0  0  0  0  0  0  0  0  0  0  0  0
   43.1768  -15.7053   -8.1773 C   0  0  0  0  0  0  0  0  0  0  0  0
   42.4285  -14.6491   -7.6723 C   0  0  0  0  0  0  0  0  0  0  0  0
   41.7750  -13.7620   -8.5069 C   0  0  0  0  0  0  0  0  0  0  0  0
   40.9586  -12.6451   -8.0140 C   0  0  0  0  0  0  0  0  0  0  0  0
   41.6595  -11.3020   -8.0076 C   0  0  2  0  0  0  0  0  0  0  0  0
   42.7467  -11.2480   -7.0775 N   0  0  0  0  0  0  0  0  0  0  0  0
   40.6293  -10.2557   -7.7519 C   0  0  0  0  0  0  0  0  0  0  0  0
   39.8501  -10.4686   -6.7664 O   0  0  0  0  0  0  0  0  0  0  0  0
   41.8966  -13.9675   -9.8569 C   0  0  0  0  0  0  0  0  0  0  0  0
   42.6443  -15.0229  -10.3846 C   0  0  0  0  0  0  0  0  0  0  0  0
   36.0160   -2.9234   -6.4821 O   0  0  0  0  0  0  0  0  0  0  0  0
   36.9475   -3.9618   -6.6492 C   0  0  0  0  0  0  0  0  0  0  0  0
   38.0788   -3.7718   -7.4442 C   0  0  0  0  0  0  0  0  0  0  0  0
   38.9912   -4.8067   -7.6017 C   0  0  0  0  0  0  0  0  0  0  0  0
   38.8430   -6.0391   -7.0070 C   0  0  0  0  0  0  0  0  0  0  0  0
   39.8111   -7.1409   -7.1805 C   0  0  0  0  0  0  0  0  0  0  0  0
   39.3878   -8.1238   -8.2634 C   0  0  2  0  0  0  0  0  0  0  0  0
   40.4597   -9.0852   -8.4971 N   0  0  0  0  0  0  0  0  0  0  0  0
   39.0757   -7.4124   -9.5102 C   0  0  0  0  0  0  0  0  0  0  0  0
   39.9039   -7.3152  -10.4420 O   0  0  0  0  0  0  0  0  0  0  0  0
   37.7038   -6.1975   -6.2202 C   0  0  0  0  0  0  0  0  0  0  0  0
   36.7851   -5.1816   -6.0500 C   0  0  0  0  0  0  0  0  0  0  0  0
   37.8197   -6.8111   -9.6981 O   0  0  0  0  0  0  0  0  0  0  0  0
  2  1  1  0
  3  2  2  0
  4  5  1  0
  4  2  1  0
  5  6  1  1
  7  5  1  0
  7  8  2  0
  9 10  1  0
 10 11  2  0
 11 12  1  0
 13 12  2  0
 13 14  1  0
 15 14  1  1
 15 16  1  0
 16  7  1  0
 17 15  1  0
 18 17  2  0
 19 13  1  0
 20 10  1  0
 20 19  2  0
 22 21  1  0
 22 23  2  0
 24 23  1  0
 25 24  2  0
 26 25  1  0
 27 28  1  0
 27 26  1  1
 28 17  1  0
 29 27  1  0
 30 29  2  0
 31 32  2  0
 31 25  1  0
 32 22  1  0
 33 29  1  0
M  END
$$$$
