NYY.pdb
     RDKit          3D

 33 34  0  0  1  0  0  0  0  0999 V2000
   31.5596  -26.2181  -15.9095 N   0  0  0  0  0  0  0  0  0  0  0  0
   31.2868  -26.4407  -17.2954 C   0  0  0  0  0  0  0  0  0  0  0  0
   32.0655  -25.9197  -18.1321 O   0  0  0  0  0  0  0  0  0  0  0  0
   30.1133  -27.2600  -17.6269 C   0  0  0  0  0  0  0  0  0  0  0  0
   30.5957  -28.6164  -18.1740 C   0  0  2  0  0  0  0  0  0  0  0  0
   30.9643  -28.3954  -19.5354 N   0  0  0  0  0  0  0  0  0  0  0  0
   29.5665  -29.6507  -17.9605 C   0  0  0  0  0  0  0  0  0  0  0  0
   28.8160  -29.8706  -18.9727 O   0  0  0  0  0  0  0  0  0  0  0  0
   24.7804  -36.6120  -15.4409 O   0  0  0  0  0  0  0  0  0  0  0  0
   25.7140  -35.6053  -15.5057 C   0  0  0  0  0  0  0  0  0  0  0  0
   26.4883  -35.4756  -16.6547 C   0  0  0  0  0  0  0  0  0  0  0  0
   27.4390  -34.4663  -16.7440 C   0  0  0  0  0  0  0  0  0  0  0  0
   27.6445  -33.5731  -15.7094 C   0  0  0  0  0  0  0  0  0  0  0  0
   28.6516  -32.5051  -15.7557 C   0  0  0  0  0  0  0  0  0  0  0  0
   28.3280  -31.3692  -16.7045 C   0  0  2  0  0  0  0  0  0  0  0  0
   29.3637  -30.3825  -16.7623 N   0  0  0  0  0  0  0  0  0  0  0  0
   27.0120  -30.8007  -16.2968 C   0  0  0  0  0  0  0  0  0  0  0  0
   27.0248  -30.0410  -15.2740 O   0  0  0  0  0  0  0  0  0  0  0  0
   26.8691  -33.7242  -14.5890 C   0  0  0  0  0  0  0  0  0  0  0  0
   25.9079  -34.7319  -14.4796 C   0  0  0  0  0  0  0  0  0  0  0  0
   27.2536  -24.5941  -16.9560 O   0  0  0  0  0  0  0  0  0  0  0  0
   26.4881  -25.7632  -17.1016 C   0  0  0  0  0  0  0  0  0  0  0  0
   25.4042  -26.0052  -16.2562 C   0  0  0  0  0  0  0  0  0  0  0  0
   24.6565  -27.1651  -16.4104 C   0  0  0  0  0  0  0  0  0  0  0  0
   24.9270  -28.1142  -17.3698 C   0  0  0  0  0  0  0  0  0  0  0  0
   24.1346  -29.3504  -17.5284 C   0  0  0  0  0  0  0  0  0  0  0  0
   24.5309  -30.4292  -16.5300 C   0  0  2  0  0  0  0  0  0  0  0  0
   25.7931  -31.0349  -16.9399 N   0  0  0  0  0  0  0  0  0  0  0  0
   23.4876  -31.4600  -16.4453 C   0  0  0  0  0  0  0  0  0  0  0  0
   23.3367  -32.3239  -17.3367 O   0  0  0  0  0  0  0  0  0  0  0  0
   26.0149  -27.8439  -18.1975 C   0  0  0  0  0  0  0  0  0  0  0  0
   26.7706  -26.6969  -18.0616 C   0  0  0  0  0  0  0  0  0  0  0  0
   22.6150  -31.5090  -15.3451 O   0  0  0  0  0  0  0  0  0  0  0  0
  2  1  1  0
  3  2  2  0
  4  5  1  0
  4  2  1  0
  5  6  1  6
  7  5  1  0
  7  8  2  0
  9 10  1  0
 10 11  2  0
 11 12  1  0
 13 12  2  0
 13 14  1  0
 15 14  1  1
 15 16  1  0
 16  7  1  0
 17 15  1  0
 18 17  2  0
 19 13  1  0
 20 10  1  0
 20 19  2  0
 22 21  1  0
 22 23  2  0
 24 23  1  0
 25 24  2  0
 26 25  1  0
 27 28  1  0
 27 26  1  6
 28 17  1  0
 29 27  1  0
 30 29  2  0
 31 32  2  0
 31 25  1  0
 32 22  1  0
 33 29  1  0
M  END
$$$$
