NYY.pdb
     RDKit          3D

 33 34  0  0  1  0  0  0  0  0999 V2000
   36.4859  -28.2784  -21.4378 N   0  0  0  0  0  0  0  0  0  0  0  0
   35.4995  -28.4098  -20.4109 C   0  0  0  0  0  0  0  0  0  0  0  0
   35.5343  -27.5867  -19.4627 O   0  0  0  0  0  0  0  0  0  0  0  0
   34.5262  -29.5016  -20.5489 C   0  0  0  0  0  0  0  0  0  0  0  0
   34.5296  -30.3339  -19.2532 C   0  0  2  0  0  0  0  0  0  0  0  0
   35.5427  -31.3271  -19.4131 N   0  0  0  0  0  0  0  0  0  0  0  0
   33.1779  -30.8529  -18.9736 C   0  0  0  0  0  0  0  0  0  0  0  0
   32.7967  -31.7910  -19.7550 O   0  0  0  0  0  0  0  0  0  0  0  0
   26.1452  -34.4074  -15.3050 O   0  0  0  0  0  0  0  0  0  0  0  0
   27.2731  -33.6557  -15.5333 C   0  0  0  0  0  0  0  0  0  0  0  0
   27.1549  -32.2723  -15.6262 C   0  0  0  0  0  0  0  0  0  0  0  0
   28.2803  -31.4908  -15.8569 C   0  0  0  0  0  0  0  0  0  0  0  0
   29.5344  -32.0539  -16.0011 C   0  0  0  0  0  0  0  0  0  0  0  0
   30.7453  -31.2660  -16.2651 C   0  0  0  0  0  0  0  0  0  0  0  0
   31.0610  -31.0610  -17.7326 C   0  0  2  0  0  0  0  0  0  0  0  0
   32.3136  -30.4006  -17.9436 N   0  0  0  0  0  0  0  0  0  0  0  0
   29.9142  -30.3312  -18.3440 C   0  0  0  0  0  0  0  0  0  0  0  0
   29.3528  -29.4560  -17.6074 O   0  0  0  0  0  0  0  0  0  0  0  0
   29.6221  -33.4187  -15.9063 C   0  0  0  0  0  0  0  0  0  0  0  0
   28.5030  -34.2220  -15.6745 C   0  0  0  0  0  0  0  0  0  0  0  0
   31.2264  -36.2108  -22.1875 O   0  0  0  0  0  0  0  0  0  0  0  0
   30.4211  -35.2913  -21.4948 C   0  0  0  0  0  0  0  0  0  0  0  0
   29.5357  -34.4666  -22.1906 C   0  0  0  0  0  0  0  0  0  0  0  0
   28.7461  -33.5615  -21.4938 C   0  0  0  0  0  0  0  0  0  0  0  0
   28.7854  -33.4248  -20.1248 C   0  0  0  0  0  0  0  0  0  0  0  0
   27.9494  -32.4572  -19.3857 C   0  0  0  0  0  0  0  0  0  0  0  0
   28.0841  -31.0396  -19.9241 C   0  0  2  0  0  0  0  0  0  0  0  0
   29.4212  -30.5323  -19.6365 N   0  0  0  0  0  0  0  0  0  0  0  0
   27.0760  -30.1607  -19.3163 C   0  0  0  0  0  0  0  0  0  0  0  0
   26.9202  -28.9766  -19.6870 O   0  0  0  0  0  0  0  0  0  0  0  0
   29.6790  -34.2616  -19.4593 C   0  0  0  0  0  0  0  0  0  0  0  0
   30.4723  -35.1685  -20.1327 C   0  0  0  0  0  0  0  0  0  0  0  0
   26.2434  -30.6289  -18.2859 O   0  0  0  0  0  0  0  0  0  0  0  0
  2  1  1  0
  3  2  2  0
  4  5  1  0
  4  2  1  0
  5  6  1  6
  7  5  1  0
  7  8  2  0
  9 10  1  0
 10 11  2  0
 11 12  1  0
 13 12  2  0
 13 14  1  0
 15 14  1  1
 15 16  1  0
 16  7  1  0
 17 15  1  0
 18 17  2  0
 19 13  1  0
 20 10  1  0
 20 19  2  0
 22 21  1  0
 22 23  2  0
 24 23  1  0
 25 24  2  0
 26 25  1  0
 27 28  1  0
 27 26  1  1
 28 17  1  0
 29 27  1  0
 30 29  2  0
 31 32  2  0
 31 25  1  0
 32 22  1  0
 33 29  1  0
M  END
$$$$
