NYY.pdb
     RDKit          3D

 33 34  0  0  1  0  0  0  0  0999 V2000
   30.8046  -20.8309  -21.0632 N   0  0  0  0  0  0  0  0  0  0  0  0
   31.3579  -21.7420  -20.1099 C   0  0  0  0  0  0  0  0  0  0  0  0
   32.6060  -21.7475  -19.9675 O   0  0  0  0  0  0  0  0  0  0  0  0
   30.4185  -22.6005  -19.3760 C   0  0  0  0  0  0  0  0  0  0  0  0
   28.9819  -22.2213  -19.7813 C   0  0  2  0  0  0  0  0  0  0  0  0
   28.8460  -20.8228  -19.5282 N   0  0  0  0  0  0  0  0  0  0  0  0
   28.0085  -23.0841  -19.0866 C   0  0  0  0  0  0  0  0  0  0  0  0
   27.8655  -24.2460  -19.6018 O   0  0  0  0  0  0  0  0  0  0  0  0
   31.5640  -27.3223  -16.1973 O   0  0  0  0  0  0  0  0  0  0  0  0
   30.4107  -26.5754  -16.1582 C   0  0  0  0  0  0  0  0  0  0  0  0
   30.5048  -25.1870  -16.1720 C   0  0  0  0  0  0  0  0  0  0  0  0
   29.3535  -24.4102  -16.1328 C   0  0  0  0  0  0  0  0  0  0  0  0
   28.0966  -24.9827  -16.0779 C   0  0  0  0  0  0  0  0  0  0  0  0
   26.8565  -24.1983  -16.0156 C   0  0  0  0  0  0  0  0  0  0  0  0
   26.3653  -23.6817  -17.3523 C   0  0  2  0  0  0  0  0  0  0  0  0
   27.2556  -22.7260  -17.9388 N   0  0  0  0  0  0  0  0  0  0  0  0
   24.9909  -23.1415  -17.1508 C   0  0  0  0  0  0  0  0  0  0  0  0
   24.9173  -21.9170  -16.8059 O   0  0  0  0  0  0  0  0  0  0  0  0
   28.0328  -26.3521  -16.0643 C   0  0  0  0  0  0  0  0  0  0  0  0
   29.1782  -27.1509  -16.1035 C   0  0  0  0  0  0  0  0  0  0  0  0
   17.0751  -19.9441  -18.5093 O   0  0  0  0  0  0  0  0  0  0  0  0
   18.3634  -20.5030  -18.4662 C   0  0  0  0  0  0  0  0  0  0  0  0
   18.7689  -21.2536  -17.3616 C   0  0  0  0  0  0  0  0  0  0  0  0
   20.0453  -21.7997  -17.3315 C   0  0  0  0  0  0  0  0  0  0  0  0
   20.9573  -21.6408  -18.3500 C   0  0  0  0  0  0  0  0  0  0  0  0
   22.3167  -22.2170  -18.3137 C   0  0  0  0  0  0  0  0  0  0  0  0
   22.4756  -23.2678  -17.2237 C   0  0  2  0  0  0  0  0  0  0  0  0
   23.8045  -23.8636  -17.3089 N   0  0  0  0  0  0  0  0  0  0  0  0
   21.4515  -24.3118  -17.3625 C   0  0  0  0  0  0  0  0  0  0  0  0
   21.4389  -25.1022  -18.3314 O   0  0  0  0  0  0  0  0  0  0  0  0
   20.5227  -20.8865  -19.4381 C   0  0  0  0  0  0  0  0  0  0  0  0
   19.2581  -20.3356  -19.4883 C   0  0  0  0  0  0  0  0  0  0  0  0
   20.4404  -24.4579  -16.3978 O   0  0  0  0  0  0  0  0  0  0  0  0
  2  1  1  0
  3  2  2  0
  4  5  1  0
  4  2  1  0
  5  6  1  1
  7  5  1  0
  7  8  2  0
  9 10  1  0
 10 11  2  0
 11 12  1  0
 13 12  2  0
 13 14  1  0
 15 14  1  1
 15 16  1  0
 16  7  1  0
 17 15  1  0
 18 17  2  0
 19 13  1  0
 20 10  1  0
 20 19  2  0
 22 21  1  0
 22 23  2  0
 24 23  1  0
 25 24  2  0
 26 25  1  0
 27 28  1  0
 27 26  1  6
 28 17  1  0
 29 27  1  0
 30 29  2  0
 31 32  2  0
 31 25  1  0
 32 22  1  0
 33 29  1  0
M  END
$$$$
