LSP.pdb
     RDKit          3D

 22 22  0  0  1  0  0  0  0  0999 V2000
   19.2120  -10.9729  -19.8659 C   0  0  0  0  0  0  0  0  0  0  0  0
   17.9604  -11.2925  -19.0623 C   0  0  2  0  0  0  0  0  0  0  0  0
   16.7680  -10.9417  -19.9408 C   0  0  0  0  0  0  0  0  0  0  0  0
   17.9259  -10.5042  -17.7744 C   0  0  0  0  0  0  0  0  0  0  0  0
   19.1247  -10.7697  -16.9152 C   0  0  2  0  0  0  0  0  0  0  0  0
   19.0055  -12.0786  -16.3205 N   0  0  0  0  0  0  0  0  0  0  0  0
   19.2726   -9.7131  -15.8535 C   0  0  0  0  0  0  0  0  0  0  0  0
   18.5245   -9.7993  -14.8662 O   0  0  0  0  0  0  0  0  0  0  0  0
   21.6773   -6.8373  -13.1968 O   0  0  0  0  0  0  0  0  0  0  0  0
   21.4866   -7.8537  -14.1288 C   0  0  0  0  0  0  0  0  0  0  0  0
   20.3404   -7.5602  -15.0759 C   0  0  2  0  0  0  0  0  0  0  0  0
   20.2097   -8.6788  -15.9701 N   0  0  0  0  0  0  0  0  0  0  0  0
   20.4828   -6.2622  -15.7646 C   0  0  0  0  0  0  0  0  0  0  0  0
   21.5289   -5.9485  -16.4019 O   0  0  0  0  0  0  0  0  0  0  0  0
   19.4347   -5.3192  -15.7317 N   0  0  0  0  0  0  0  0  0  0  0  0
   18.0333   -5.6777  -15.4400 C   0  0  0  0  0  0  0  0  0  0  0  0
   17.7741   -4.7280  -14.2948 C   0  0  0  0  0  0  0  0  0  0  0  0
   18.4230   -3.4374  -14.8209 C   0  0  0  0  0  0  0  0  0  0  0  0
   19.3749   -3.8983  -15.9351 C   0  0  1  0  0  0  0  0  0  0  0  0
   20.6045   -3.1374  -15.8094 C   0  0  0  0  0  0  0  0  0  0  0  0
   21.7259   -3.4446  -15.0958 O   0  0  0  0  0  0  0  0  0  0  0  0
   20.6483   -2.0269  -16.4490 O   0  0  0  0  0  0  0  0  0  0  0  0
  2  1  1  6
  2  3  1  0
  4  2  1  0
  4  5  1  0
  5  6  1  1
  7  5  1  0
  8  7  2  0
  9 10  1  0
 11 12  1  0
 11 10  1  6
 12  7  1  0
 13 11  1  0
 14 13  2  0
 15 13  1  0
 16 15  1  0
 17 16  1  0
 17 18  1  0
 18 19  1  0
 19 15  1  0
 20 21  1  0
 19 20  1  1
 22 20  2  0
M  END
$$$$
