LSP.pdb
     RDKit          3D

 22 22  0  0  1  0  0  0  0  0999 V2000
   19.6116  -22.2983  -13.7762 C   0  0  0  0  0  0  0  0  0  0  0  0
   20.4091  -22.3413  -15.0711 C   0  0  2  0  0  0  0  0  0  0  0  0
   19.9713  -23.5921  -15.8199 C   0  0  0  0  0  0  0  0  0  0  0  0
   21.8933  -22.3762  -14.7939 C   0  0  0  0  0  0  0  0  0  0  0  0
   22.3555  -21.1730  -14.0292 C   0  0  2  0  0  0  0  0  0  0  0  0
   22.2040  -19.9975  -14.8516 N   0  0  0  0  0  0  0  0  0  0  0  0
   23.7845  -21.3321  -13.5846 C   0  0  0  0  0  0  0  0  0  0  0  0
   24.5745  -21.8351  -14.3999 O   0  0  0  0  0  0  0  0  0  0  0  0
   27.2621  -18.9744  -12.5659 O   0  0  0  0  0  0  0  0  0  0  0  0
   26.0032  -19.4701  -12.8941 C   0  0  0  0  0  0  0  0  0  0  0  0
   25.5505  -20.5655  -11.9495 C   0  0  2  0  0  0  0  0  0  0  0  0
   24.2078  -20.9323  -12.3108 N   0  0  0  0  0  0  0  0  0  0  0  0
   25.7040  -20.1974  -10.5281 C   0  0  0  0  0  0  0  0  0  0  0  0
   25.0834  -19.2235  -10.0131 O   0  0  0  0  0  0  0  0  0  0  0  0
   26.5622  -20.9378   -9.6889 N   0  0  0  0  0  0  0  0  0  0  0  0
   27.2093  -22.1976  -10.1033 C   0  0  0  0  0  0  0  0  0  0  0  0
   28.6476  -21.8357   -9.8190 C   0  0  0  0  0  0  0  0  0  0  0  0
   28.5189  -21.1396   -8.4542 C   0  0  0  0  0  0  0  0  0  0  0  0
   27.0367  -20.7508   -8.3458 C   0  0  1  0  0  0  0  0  0  0  0  0
   26.9695  -19.4175   -7.7764 C   0  0  0  0  0  0  0  0  0  0  0  0
   26.9875  -19.0518   -6.4622 O   0  0  0  0  0  0  0  0  0  0  0  0
   26.8781  -18.4506   -8.6136 O   0  0  0  0  0  0  0  0  0  0  0  0
  2  1  1  1
  2  3  1  0
  4  2  1  0
  4  5  1  0
  5  6  1  6
  7  5  1  0
  8  7  2  0
  9 10  1  0
 11 12  1  0
 11 10  1  6
 12  7  1  0
 13 11  1  0
 14 13  2  0
 15 13  1  0
 16 15  1  0
 17 16  1  0
 17 18  1  0
 18 19  1  0
 19 15  1  0
 20 21  1  0
 19 20  1  6
 22 20  2  0
M  END
$$$$
