LSP.pdb
     RDKit          3D

 22 22  0  0  1  0  0  0  0  0999 V2000
   20.3450  -20.0800  -16.6297 C   0  0  0  0  0  0  0  0  0  0  0  0
   20.9422  -21.2584  -17.3842 C   0  0  2  0  0  0  0  0  0  0  0  0
   20.0711  -22.4684  -17.0776 C   0  0  0  0  0  0  0  0  0  0  0  0
   22.3705  -21.5069  -16.9605 C   0  0  0  0  0  0  0  0  0  0  0  0
   23.2432  -20.3084  -17.1797 C   0  0  2  0  0  0  0  0  0  0  0  0
   23.5295  -20.1772  -18.5874 N   0  0  0  0  0  0  0  0  0  0  0  0
   24.5165  -20.4153  -16.3842 C   0  0  0  0  0  0  0  0  0  0  0  0
   25.4007  -21.1611  -16.8356 O   0  0  0  0  0  0  0  0  0  0  0  0
   26.0034  -17.3981  -13.9878 O   0  0  0  0  0  0  0  0  0  0  0  0
   26.6529  -18.5093  -14.5185 C   0  0  0  0  0  0  0  0  0  0  0  0
   25.8549  -19.7849  -14.3369 C   0  0  2  0  0  0  0  0  0  0  0  0
   24.6995  -19.7075  -15.1896 N   0  0  0  0  0  0  0  0  0  0  0  0
   25.5329  -20.0643  -12.9235 C   0  0  0  0  0  0  0  0  0  0  0  0
   24.5694  -19.5024  -12.3279 O   0  0  0  0  0  0  0  0  0  0  0  0
   26.3049  -20.9852  -12.1854 N   0  0  0  0  0  0  0  0  0  0  0  0
   27.3569  -21.8255  -12.7891 C   0  0  0  0  0  0  0  0  0  0  0  0
   28.5124  -21.4473  -11.8934 C   0  0  0  0  0  0  0  0  0  0  0  0
   27.8405  -21.4664  -10.5107 C   0  0  0  0  0  0  0  0  0  0  0  0
   26.3352  -21.3652  -10.8002 C   0  0  1  0  0  0  0  0  0  0  0  0
   25.7580  -20.4545   -9.8287 C   0  0  0  0  0  0  0  0  0  0  0  0
   25.1805  -20.7461   -8.6276 O   0  0  0  0  0  0  0  0  0  0  0  0
   25.7890  -19.2096  -10.1346 O   0  0  0  0  0  0  0  0  0  0  0  0
  2  1  1  1
  2  3  1  0
  4  2  1  0
  4  5  1  0
  5  6  1  6
  7  5  1  0
  8  7  2  0
  9 10  1  0
 11 12  1  0
 11 10  1  1
 12  7  1  0
 13 11  1  0
 14 13  2  0
 15 13  1  0
 16 15  1  0
 17 16  1  0
 17 18  1  0
 18 19  1  0
 19 15  1  0
 20 21  1  0
 19 20  1  1
 22 20  2  0
M  END
$$$$
