LSP.pdb
     RDKit          3D

 22 22  0  0  1  0  0  0  0  0999 V2000
   24.4395  -18.1205   11.8722 C   0  0  0  0  0  0  0  0  0  0  0  0
   25.5679  -17.3025   12.4823 C   0  0  2  0  0  0  0  0  0  0  0  0
   25.7959  -16.1090   11.5656 C   0  0  0  0  0  0  0  0  0  0  0  0
   26.8274  -18.1259   12.6111 C   0  0  0  0  0  0  0  0  0  0  0  0
   26.6298  -19.3321   13.4785 C   0  0  2  0  0  0  0  0  0  0  0  0
   26.4724  -18.9134   14.8500 N   0  0  0  0  0  0  0  0  0  0  0  0
   27.7829  -20.2897   13.3422 C   0  0  0  0  0  0  0  0  0  0  0  0
   28.8191  -20.0150   13.9688 O   0  0  0  0  0  0  0  0  0  0  0  0
   28.9909  -24.8152   12.1834 O   0  0  0  0  0  0  0  0  0  0  0  0
   28.0691  -23.7720   12.2025 C   0  0  0  0  0  0  0  0  0  0  0  0
   28.7321  -22.4196   12.3713 C   0  0  2  0  0  0  0  0  0  0  0  0
   27.6950  -21.4389   12.5465 N   0  0  0  0  0  0  0  0  0  0  0  0
   29.6729  -22.1012   11.2792 C   0  0  0  0  0  0  0  0  0  0  0  0
   29.2881  -21.9264   10.0874 O   0  0  0  0  0  0  0  0  0  0  0  0
   31.0533  -21.9787   11.5408 N   0  0  0  0  0  0  0  0  0  0  0  0
   31.6064  -21.7981   12.8968 C   0  0  0  0  0  0  0  0  0  0  0  0
   32.5779  -22.9541   12.9177 C   0  0  0  0  0  0  0  0  0  0  0  0
   33.2092  -22.8423   11.5203 C   0  0  0  0  0  0  0  0  0  0  0  0
   32.2234  -21.9896   10.7073 C   0  0  1  0  0  0  0  0  0  0  0  0
   32.1155  -22.5781    9.3850 C   0  0  0  0  0  0  0  0  0  0  0  0
   32.8792  -22.3354    8.2809 O   0  0  0  0  0  0  0  0  0  0  0  0
   31.1785  -23.4388    9.2255 O   0  0  0  0  0  0  0  0  0  0  0  0
  2  1  1  6
  2  3  1  0
  4  2  1  0
  4  5  1  0
  5  6  1  1
  7  5  1  0
  8  7  2  0
  9 10  1  0
 11 12  1  0
 11 10  1  6
 12  7  1  0
 13 11  1  0
 14 13  2  0
 15 13  1  0
 16 15  1  0
 17 16  1  0
 17 18  1  0
 18 19  1  0
 19 15  1  0
 20 21  1  0
 19 20  1  6
 22 20  2  0
M  END
$$$$
