LSP.pdb
     RDKit          3D

 22 22  0  0  1  0  0  0  0  0999 V2000
   27.1608  -18.7350   -7.2865 C   0  0  0  0  0  0  0  0  0  0  0  0
   26.3297  -19.6263   -8.1973 C   0  0  2  0  0  0  0  0  0  0  0  0
   26.1145  -20.9387   -7.4569 C   0  0  0  0  0  0  0  0  0  0  0  0
   27.0322  -19.8638   -9.5130 C   0  0  0  0  0  0  0  0  0  0  0  0
   26.7268  -21.2160  -10.0825 C   0  0  2  0  0  0  0  0  0  0  0  0
   27.9591  -21.9376  -10.2865 N   0  0  0  0  0  0  0  0  0  0  0  0
   25.9584  -21.0978  -11.3713 C   0  0  0  0  0  0  0  0  0  0  0  0
   26.6179  -20.8855  -12.4018 O   0  0  0  0  0  0  0  0  0  0  0  0
   21.7652  -21.7780  -11.3439 O   0  0  0  0  0  0  0  0  0  0  0  0
   22.6053  -22.1883  -12.3754 C   0  0  0  0  0  0  0  0  0  0  0  0
   23.7552  -21.2268  -12.5998 C   0  0  2  0  0  0  0  0  0  0  0  0
   24.5639  -21.2214  -11.4107 N   0  0  0  0  0  0  0  0  0  0  0  0
   23.3073  -19.8844  -13.0201 C   0  0  0  0  0  0  0  0  0  0  0  0
   22.6747  -19.1114  -12.2447 O   0  0  0  0  0  0  0  0  0  0  0  0
   23.5800  -19.4175  -14.3226 N   0  0  0  0  0  0  0  0  0  0  0  0
   24.8132  -19.7532  -15.0602 C   0  0  0  0  0  0  0  0  0  0  0  0
   24.1966  -20.3192  -16.3173 C   0  0  0  0  0  0  0  0  0  0  0  0
   23.0750  -19.3028  -16.5866 C   0  0  0  0  0  0  0  0  0  0  0  0
   22.8613  -18.5839  -15.2460 C   0  0  1  0  0  0  0  0  0  0  0  0
   21.4318  -18.4240  -15.0526 C   0  0  0  0  0  0  0  0  0  0  0  0
   20.6394  -17.3685  -15.3979 O   0  0  0  0  0  0  0  0  0  0  0  0
   20.8276  -19.3989  -14.4792 O   0  0  0  0  0  0  0  0  0  0  0  0
  2  1  1  1
  2  3  1  0
  4  2  1  0
  4  5  1  0
  5  6  1  6
  7  5  1  0
  8  7  2  0
  9 10  1  0
 11 12  1  0
 11 10  1  1
 12  7  1  0
 13 11  1  0
 14 13  2  0
 15 13  1  0
 16 15  1  0
 17 16  1  0
 17 18  1  0
 18 19  1  0
 19 15  1  0
 20 21  1  0
 19 20  1  1
 22 20  2  0
M  END
$$$$
