LSP.pdb
     RDKit          3D

 22 22  0  0  1  0  0  0  0  0999 V2000
   25.5421  -23.5527  -20.7836 C   0  0  0  0  0  0  0  0  0  0  0  0
   25.8763  -22.0738  -20.9087 C   0  0  2  0  0  0  0  0  0  0  0  0
   26.9467  -21.9507  -21.9839 C   0  0  0  0  0  0  0  0  0  0  0  0
   26.3713  -21.5159  -19.5954 C   0  0  0  0  0  0  0  0  0  0  0  0
   25.5088  -21.9313  -18.4422 C   0  0  2  0  0  0  0  0  0  0  0  0
   24.1807  -21.3981  -18.6229 N   0  0  0  0  0  0  0  0  0  0  0  0
   26.0957  -21.4694  -17.1355 C   0  0  0  0  0  0  0  0  0  0  0  0
   27.2598  -21.8222  -16.8858 O   0  0  0  0  0  0  0  0  0  0  0  0
   26.4583  -18.1218  -13.8929 O   0  0  0  0  0  0  0  0  0  0  0  0
   25.9605  -18.6865  -15.0640 C   0  0  0  0  0  0  0  0  0  0  0  0
   25.8377  -20.1942  -14.9704 C   0  0  2  0  0  0  0  0  0  0  0  0
   25.3657  -20.6779  -16.2398 N   0  0  0  0  0  0  0  0  0  0  0  0
   25.0169  -20.6333  -13.8246 C   0  0  0  0  0  0  0  0  0  0  0  0
   23.7570  -20.5272  -13.8180 O   0  0  0  0  0  0  0  0  0  0  0  0
   25.6276  -21.1962  -12.6848 N   0  0  0  0  0  0  0  0  0  0  0  0
   27.0005  -21.7370  -12.6869 C   0  0  0  0  0  0  0  0  0  0  0  0
   27.5776  -20.9366  -11.5437 C   0  0  0  0  0  0  0  0  0  0  0  0
   26.4372  -21.0147  -10.5155 C   0  0  0  0  0  0  0  0  0  0  0  0
   25.1947  -21.4037  -11.3307 C   0  0  1  0  0  0  0  0  0  0  0  0
   24.0793  -20.6147  -10.8410 C   0  0  0  0  0  0  0  0  0  0  0  0
   23.2949  -20.8374   -9.7473 O   0  0  0  0  0  0  0  0  0  0  0  0
   23.7848  -19.5699  -11.5236 O   0  0  0  0  0  0  0  0  0  0  0  0
  2  1  1  1
  2  3  1  0
  4  2  1  0
  4  5  1  0
  5  6  1  6
  7  5  1  0
  8  7  2  0
  9 10  1  0
 11 12  1  0
 11 10  1  6
 12  7  1  0
 13 11  1  0
 14 13  2  0
 15 13  1  0
 16 15  1  0
 17 16  1  0
 17 18  1  0
 18 19  1  0
 19 15  1  0
 20 21  1  0
 19 20  1  1
 22 20  2  0
M  END
$$$$
