LSP.pdb
     RDKit          3D

 22 22  0  0  1  0  0  0  0  0999 V2000
   21.4607  -11.9454  -19.9219 C   0  0  0  0  0  0  0  0  0  0  0  0
   19.9904  -11.5912  -20.0869 C   0  0  2  0  0  0  0  0  0  0  0  0
   19.8276  -11.0152  -21.4864 C   0  0  0  0  0  0  0  0  0  0  0  0
   19.5522  -10.5914  -19.0431 C   0  0  0  0  0  0  0  0  0  0  0  0
   19.7691  -11.0961  -17.6487 C   0  0  2  0  0  0  0  0  0  0  0  0
   18.8654  -12.1906  -17.3910 N   0  0  0  0  0  0  0  0  0  0  0  0
   19.5753   -9.9958  -16.6402 C   0  0  0  0  0  0  0  0  0  0  0  0
   18.4114   -9.6086  -16.4471 O   0  0  0  0  0  0  0  0  0  0  0  0
   20.9270   -7.9478  -12.6420 O   0  0  0  0  0  0  0  0  0  0  0  0
   21.0975   -8.8699  -13.6710 C   0  0  0  0  0  0  0  0  0  0  0  0
   20.5737   -8.3572  -14.9976 C   0  0  2  0  0  0  0  0  0  0  0  0
   20.6553   -9.4323  -15.9491 N   0  0  0  0  0  0  0  0  0  0  0  0
   21.2454   -7.1194  -15.4402 C   0  0  0  0  0  0  0  0  0  0  0  0
   22.4630   -7.0979  -15.7804 O   0  0  0  0  0  0  0  0  0  0  0  0
   20.5328   -5.9038  -15.4989 N   0  0  0  0  0  0  0  0  0  0  0  0
   19.0742   -5.8309  -15.7104 C   0  0  0  0  0  0  0  0  0  0  0  0
   18.6961   -5.0031  -14.5052 C   0  0  0  0  0  0  0  0  0  0  0  0
   19.7976   -3.9307  -14.5189 C   0  0  0  0  0  0  0  0  0  0  0  0
   20.9179   -4.5243  -15.3863 C   0  0  1  0  0  0  0  0  0  0  0  0
   22.1834   -4.2179  -14.7452 C   0  0  0  0  0  0  0  0  0  0  0  0
   22.9651   -3.1095  -14.8921 O   0  0  0  0  0  0  0  0  0  0  0  0
   22.6338   -5.1033  -13.9344 O   0  0  0  0  0  0  0  0  0  0  0  0
  2  1  1  1
  2  3  1  0
  4  2  1  0
  4  5  1  0
  5  6  1  1
  7  5  1  0
  8  7  2  0
  9 10  1  0
 11 12  1  0
 11 10  1  1
 12  7  1  0
 13 11  1  0
 14 13  2  0
 15 13  1  0
 16 15  1  0
 17 16  1  0
 17 18  1  0
 18 19  1  0
 19 15  1  0
 20 21  1  0
 19 20  1  1
 22 20  2  0
M  END
$$$$
