LSP.pdb
     RDKit          3D

 22 22  0  0  1  0  0  0  0  0999 V2000
   15.5240  -11.3257  -17.0826 C   0  0  0  0  0  0  0  0  0  0  0  0
   15.9459  -12.0809  -15.8311 C   0  0  2  0  0  0  0  0  0  0  0  0
   14.8258  -11.9139  -14.8140 C   0  0  0  0  0  0  0  0  0  0  0  0
   17.2478  -11.5437  -15.2856 C   0  0  0  0  0  0  0  0  0  0  0  0
   18.3787  -11.7064  -16.2555 C   0  0  2  0  0  0  0  0  0  0  0  0
   18.7450  -13.0996  -16.3325 N   0  0  0  0  0  0  0  0  0  0  0  0
   19.5604  -10.8658  -15.8527 C   0  0  0  0  0  0  0  0  0  0  0  0
   20.4129  -11.4045  -15.1282 O   0  0  0  0  0  0  0  0  0  0  0  0
   23.0693   -8.2749  -16.7859 O   0  0  0  0  0  0  0  0  0  0  0  0
   21.9116   -9.0185  -16.9977 C   0  0  0  0  0  0  0  0  0  0  0  0
   20.8194   -8.6812  -16.0024 C   0  0  2  0  0  0  0  0  0  0  0  0
   19.6960   -9.5370  -16.2737 N   0  0  0  0  0  0  0  0  0  0  0  0
   20.4817   -7.2442  -15.9859 C   0  0  0  0  0  0  0  0  0  0  0  0
   19.9626   -6.6622  -16.9812 O   0  0  0  0  0  0  0  0  0  0  0  0
   20.7317   -6.4667  -14.8362 N   0  0  0  0  0  0  0  0  0  0  0  0
   21.1047   -7.0480  -13.5322 C   0  0  0  0  0  0  0  0  0  0  0  0
   22.3805   -6.2800  -13.2810 C   0  0  0  0  0  0  0  0  0  0  0  0
   21.9646   -4.8601  -13.6991 C   0  0  0  0  0  0  0  0  0  0  0  0
   20.7171   -5.0541  -14.5743 C   0  0  1  0  0  0  0  0  0  0  0  0
   20.8234   -4.1483  -15.7033 C   0  0  0  0  0  0  0  0  0  0  0  0
   20.4858   -2.8281  -15.7695 O   0  0  0  0  0  0  0  0  0  0  0  0
   21.2935   -4.6493  -16.7860 O   0  0  0  0  0  0  0  0  0  0  0  0
  2  1  1  6
  2  3  1  0
  4  2  1  0
  4  5  1  0
  5  6  1  1
  7  5  1  0
  8  7  2  0
  9 10  1  0
 11 12  1  0
 11 10  1  6
 12  7  1  0
 13 11  1  0
 14 13  2  0
 15 13  1  0
 16 15  1  0
 17 16  1  0
 17 18  1  0
 18 19  1  0
 19 15  1  0
 20 21  1  0
 19 20  1  6
 22 20  2  0
M  END
$$$$
