HNA.pdb
     RDKit          3D

 24 24  0  0  1  0  0  0  0  0999 V2000
    8.9625  -17.2119   17.7737 N   0  0  0  0  0  0  0  0  0  0  0  0
    9.5077  -16.4098   18.8284 C   0  0  1  0  0  0  0  0  0  0  0  0
    8.3544  -15.5909   19.4073 C   0  0  0  0  0  0  0  0  0  0  0  0
    7.9404  -14.5936   18.4052 C   0  0  0  0  0  0  0  0  0  0  0  0
    8.3412  -13.2925   18.3524 C   0  0  0  0  0  0  0  0  0  0  0  0
    7.7474  -12.6944   17.2908 N   0  0  0  0  0  0  0  0  0  0  0  0
    6.9884  -13.6379   16.7048 C   0  0  0  0  0  0  0  0  0  0  0  0
    7.1052  -14.8021   17.3860 N   0  0  0  0  0  0  0  0  0  0  0  0
   10.0789  -17.2028   19.9244 C   0  0  0  0  0  0  0  0  0  0  0  0
    9.5942  -18.3508   20.1309 O   0  0  0  0  0  0  0  0  0  0  0  0
   13.1279  -20.1905   22.4471 N   0  0  0  0  0  0  0  0  0  0  0  0
   13.8427  -19.0102   22.1174 C   0  0  0  0  0  0  0  0  0  0  0  0
   14.9843  -18.8732   22.6117 O   0  0  0  0  0  0  0  0  0  0  0  0
   13.1882  -18.0396   21.2214 C   0  0  0  0  0  0  0  0  0  0  0  0
   11.7952  -17.6750   21.6779 C   0  0  2  0  0  0  0  0  0  0  0  0
   11.1403  -16.7634   20.7670 N   0  0  0  0  0  0  0  0  0  0  0  0
   11.7790  -17.1785   23.0682 C   0  0  0  0  0  0  0  0  0  0  0  0
   12.5236  -16.2322   23.3871 O   0  0  0  0  0  0  0  0  0  0  0  0
    9.6046  -16.7474   25.8434 C   0  0  0  0  0  0  0  0  0  0  0  0
   10.9727  -17.2898   25.3982 C   0  0  2  0  0  0  0  0  0  0  0  0
   10.9431  -17.7453   24.0498 N   0  0  0  0  0  0  0  0  0  0  0  0
   11.3740  -18.2949   26.3773 C   0  0  0  0  0  0  0  0  0  0  0  0
   11.5978  -17.9237   27.6879 O   0  0  0  0  0  0  0  0  0  0  0  0
   11.5269  -19.4975   26.0777 O   0  0  0  0  0  0  0  0  0  0  0  0
  2  1  1  6
  3  2  1  0
  4  8  1  0
  4  3  1  0
  5  4  2  0
  6  5  1  0
  6  7  1  0
  7  8  2  0
  9 10  2  0
  9  2  1  0
 12 14  1  0
 12 11  1  0
 13 12  2  0
 15 14  1  6
 15 16  1  0
 16  9  1  0
 17 15  1  0
 18 17  2  0
 20 19  1  1
 20 21  1  0
 21 17  1  0
 22 23  1  0
 22 20  1  0
 24 22  2  0
M  END
$$$$
