HNA.pdb
     RDKit          3D

 24 24  0  0  1  0  0  0  0  0999 V2000
    8.2144  -16.5401   20.6642 N   0  0  0  0  0  0  0  0  0  0  0  0
    8.1087  -15.3976   21.5224 C   0  0  1  0  0  0  0  0  0  0  0  0
    7.0270  -14.4945   20.9310 C   0  0  0  0  0  0  0  0  0  0  0  0
    7.5179  -13.9535   19.6518 C   0  0  0  0  0  0  0  0  0  0  0  0
    8.2786  -12.8346   19.4909 C   0  0  0  0  0  0  0  0  0  0  0  0
    8.5288  -12.6618   18.1699 N   0  0  0  0  0  0  0  0  0  0  0  0
    7.9173  -13.6787   17.5361 C   0  0  0  0  0  0  0  0  0  0  0  0
    7.2974  -14.4711   18.4422 N   0  0  0  0  0  0  0  0  0  0  0  0
    7.7002  -15.7364   22.8916 C   0  0  0  0  0  0  0  0  0  0  0  0
    6.5098  -16.1199   23.0696 O   0  0  0  0  0  0  0  0  0  0  0  0
    6.4298  -18.4365   26.9404 N   0  0  0  0  0  0  0  0  0  0  0  0
    7.7147  -18.5052   26.3430 C   0  0  0  0  0  0  0  0  0  0  0  0
    8.5911  -19.1695   26.9404 O   0  0  0  0  0  0  0  0  0  0  0  0
    7.9179  -17.7915   25.0691 C   0  0  0  0  0  0  0  0  0  0  0  0
    8.2104  -16.3227   25.2663 C   0  0  2  0  0  0  0  0  0  0  0  0
    8.5557  -15.6610   24.0283 N   0  0  0  0  0  0  0  0  0  0  0  0
    9.2203  -16.0944   26.3188 C   0  0  0  0  0  0  0  0  0  0  0  0
   10.3755  -16.5332   26.1617 O   0  0  0  0  0  0  0  0  0  0  0  0
    9.5323  -13.7989   29.2576 C   0  0  0  0  0  0  0  0  0  0  0  0
    9.9331  -15.0300   28.4283 C   0  0  2  0  0  0  0  0  0  0  0  0
    8.9157  -15.3920   27.5008 N   0  0  0  0  0  0  0  0  0  0  0  0
   10.3054  -16.0792   29.3721 C   0  0  0  0  0  0  0  0  0  0  0  0
   11.3569  -15.8759   30.2429 O   0  0  0  0  0  0  0  0  0  0  0  0
    9.7047  -17.1725   29.4284 O   0  0  0  0  0  0  0  0  0  0  0  0
  2  1  1  6
  3  2  1  0
  4  8  1  0
  4  3  1  0
  5  4  2  0
  6  5  1  0
  6  7  1  0
  7  8  2  0
  9 10  2  0
  9  2  1  0
 12 14  1  0
 12 11  1  0
 13 12  2  0
 15 14  1  6
 15 16  1  0
 16  9  1  0
 17 15  1  0
 18 17  2  0
 20 19  1  1
 20 21  1  0
 21 17  1  0
 22 23  1  0
 22 20  1  0
 24 22  2  0
M  END
$$$$
