HNA.pdb
     RDKit          3D

 24 24  0  0  1  0  0  0  0  0999 V2000
    9.0507  -15.4836   20.9365 N   0  0  0  0  0  0  0  0  0  0  0  0
    8.4529  -14.4215   21.6898 C   0  0  1  0  0  0  0  0  0  0  0  0
    7.2078  -13.9771   20.9229 C   0  0  0  0  0  0  0  0  0  0  0  0
    7.5866  -13.7277   19.5213 C   0  0  0  0  0  0  0  0  0  0  0  0
    8.4604  -12.7794   19.0811 C   0  0  0  0  0  0  0  0  0  0  0  0
    8.5482  -12.8585   17.7308 N   0  0  0  0  0  0  0  0  0  0  0  0
    7.7257  -13.8560   17.3590 C   0  0  0  0  0  0  0  0  0  0  0  0
    7.1357  -14.3898   18.4546 N   0  0  0  0  0  0  0  0  0  0  0  0
    8.0206  -14.8336   23.0313 C   0  0  0  0  0  0  0  0  0  0  0  0
    7.4269  -13.9765   23.7443 O   0  0  0  0  0  0  0  0  0  0  0  0
    6.6523  -19.1907   23.1508 N   0  0  0  0  0  0  0  0  0  0  0  0
    6.3393  -18.2603   24.1750 C   0  0  0  0  0  0  0  0  0  0  0  0
    5.1659  -17.8273   24.2186 O   0  0  0  0  0  0  0  0  0  0  0  0
    7.4163  -17.8767   25.1058 C   0  0  0  0  0  0  0  0  0  0  0  0
    7.8430  -16.4373   24.9392 C   0  0  2  0  0  0  0  0  0  0  0  0
    8.2262  -16.1326   23.5791 N   0  0  0  0  0  0  0  0  0  0  0  0
    8.8864  -16.0519   25.9100 C   0  0  0  0  0  0  0  0  0  0  0  0
   10.0731  -16.3547   25.6831 O   0  0  0  0  0  0  0  0  0  0  0  0
    9.1830  -13.6661   28.7668 C   0  0  0  0  0  0  0  0  0  0  0  0
    9.6019  -14.9214   27.9840 C   0  0  2  0  0  0  0  0  0  0  0  0
    8.5790  -15.3486   27.0909 N   0  0  0  0  0  0  0  0  0  0  0  0
   10.0167  -15.9192   28.9651 C   0  0  0  0  0  0  0  0  0  0  0  0
    9.3662  -17.1352   29.0228 O   0  0  0  0  0  0  0  0  0  0  0  0
   10.9507  -15.7188   29.7694 O   0  0  0  0  0  0  0  0  0  0  0  0
  2  1  1  6
  3  2  1  0
  4  8  1  0
  4  3  1  0
  5  4  2  0
  6  5  1  0
  6  7  1  0
  7  8  2  0
  9 10  2  0
  9  2  1  0
 12 14  1  0
 12 11  1  0
 13 12  2  0
 15 14  1  6
 15 16  1  0
 16  9  1  0
 17 15  1  0
 18 17  2  0
 20 19  1  1
 20 21  1  0
 21 17  1  0
 22 23  1  0
 22 20  1  0
 24 22  2  0
M  END
$$$$
