HNA.pdb
     RDKit          3D

 24 24  0  0  1  0  0  0  0  0999 V2000
   10.3159  -16.4397   10.8295 N   0  0  0  0  0  0  0  0  0  0  0  0
   11.6507  -16.2538   11.3160 C   0  0  1  0  0  0  0  0  0  0  0  0
   11.6525  -14.9595   12.1288 C   0  0  0  0  0  0  0  0  0  0  0  0
   11.5013  -13.8251   11.2013 C   0  0  0  0  0  0  0  0  0  0  0  0
   12.4864  -13.2727   10.4391 C   0  0  0  0  0  0  0  0  0  0  0  0
   11.9615  -12.2517    9.7184 N   0  0  0  0  0  0  0  0  0  0  0  0
   10.6587  -12.1905   10.0482 C   0  0  0  0  0  0  0  0  0  0  0  0
   10.3748  -13.1536   10.9566 N   0  0  0  0  0  0  0  0  0  0  0  0
   12.0998  -17.3330   12.2047 C   0  0  0  0  0  0  0  0  0  0  0  0
   11.2261  -17.9148   12.9074 O   0  0  0  0  0  0  0  0  0  0  0  0
   13.6474  -22.0273   13.2958 N   0  0  0  0  0  0  0  0  0  0  0  0
   14.7808  -21.1985   13.0934 C   0  0  0  0  0  0  0  0  0  0  0  0
   15.8715  -21.5919   13.5645 O   0  0  0  0  0  0  0  0  0  0  0  0
   14.5873  -19.9423   12.3464 C   0  0  0  0  0  0  0  0  0  0  0  0
   13.7971  -18.9182   13.1265 C   0  0  2  0  0  0  0  0  0  0  0  0
   13.4519  -17.7653   12.3258 N   0  0  0  0  0  0  0  0  0  0  0  0
   14.4696  -18.5394   14.3851 C   0  0  0  0  0  0  0  0  0  0  0  0
   14.8466  -19.4318   15.1682 O   0  0  0  0  0  0  0  0  0  0  0  0
   14.3214  -17.4142   17.1398 C   0  0  0  0  0  0  0  0  0  0  0  0
   15.1926  -16.8325   16.0144 C   0  0  2  0  0  0  0  0  0  0  0  0
   14.6990  -17.1931   14.7288 N   0  0  0  0  0  0  0  0  0  0  0  0
   16.5675  -17.2429   16.2817 C   0  0  0  0  0  0  0  0  0  0  0  0
   17.2430  -18.0171   15.3599 O   0  0  0  0  0  0  0  0  0  0  0  0
   17.1714  -16.9194   17.3258 O   0  0  0  0  0  0  0  0  0  0  0  0
  2  1  1  1
  3  2  1  0
  4  8  1  0
  4  3  1  0
  5  4  2  0
  6  5  1  0
  6  7  1  0
  7  8  2  0
  9 10  2  0
  9  2  1  0
 12 14  1  0
 12 11  1  0
 13 12  2  0
 15 14  1  6
 15 16  1  0
 16  9  1  0
 17 15  1  0
 18 17  2  0
 20 19  1  1
 20 21  1  0
 21 17  1  0
 22 23  1  0
 22 20  1  0
 24 22  2  0
M  END
$$$$
