HNA.pdb
     RDKit          3D

 24 24  0  0  1  0  0  0  0  0999 V2000
   11.3624  -14.9692   16.8098 N   0  0  0  0  0  0  0  0  0  0  0  0
   12.1712  -16.1514   16.8431 C   0  0  1  0  0  0  0  0  0  0  0  0
   12.9640  -16.1859   15.5370 C   0  0  0  0  0  0  0  0  0  0  0  0
   12.0131  -16.1577   14.4122 C   0  0  0  0  0  0  0  0  0  0  0  0
   10.6600  -16.2917   14.4996 C   0  0  0  0  0  0  0  0  0  0  0  0
   10.1310  -16.2121   13.2542 N   0  0  0  0  0  0  0  0  0  0  0  0
   11.1682  -16.0300   12.4170 C   0  0  0  0  0  0  0  0  0  0  0  0
   12.3220  -15.9964   13.1245 N   0  0  0  0  0  0  0  0  0  0  0  0
   13.1395  -16.1611   17.9469 C   0  0  0  0  0  0  0  0  0  0  0  0
   13.9467  -17.1307   18.0094 O   0  0  0  0  0  0  0  0  0  0  0  0
   16.2572  -13.0664   17.9834 N   0  0  0  0  0  0  0  0  0  0  0  0
   16.1363  -14.1881   18.8437 C   0  0  0  0  0  0  0  0  0  0  0  0
   16.8428  -15.1883   18.5859 O   0  0  0  0  0  0  0  0  0  0  0  0
   15.1911  -14.0893   19.9708 C   0  0  0  0  0  0  0  0  0  0  0  0
   14.2084  -15.2359   20.0072 C   0  0  2  0  0  0  0  0  0  0  0  0
   13.2277  -15.1518   18.9486 N   0  0  0  0  0  0  0  0  0  0  0  0
   13.5810  -15.3870   21.3351 C   0  0  0  0  0  0  0  0  0  0  0  0
   14.3022  -15.4262   22.3499 O   0  0  0  0  0  0  0  0  0  0  0  0
   10.1352  -15.0838   22.7701 C   0  0  0  0  0  0  0  0  0  0  0  0
   11.5894  -15.5830   22.7795 C   0  0  2  0  0  0  0  0  0  0  0  0
   12.1849  -15.4889   21.4899 N   0  0  0  0  0  0  0  0  0  0  0  0
   11.5778  -16.9245   23.3542 C   0  0  0  0  0  0  0  0  0  0  0  0
   11.1580  -17.1085   24.6562 O   0  0  0  0  0  0  0  0  0  0  0  0
   11.9371  -17.9318   22.7095 O   0  0  0  0  0  0  0  0  0  0  0  0
  2  1  1  6
  3  2  1  0
  4  8  1  0
  4  3  1  0
  5  4  2  0
  6  5  1  0
  6  7  1  0
  7  8  2  0
  9 10  2  0
  9  2  1  0
 12 14  1  0
 12 11  1  0
 13 12  2  0
 15 14  1  1
 15 16  1  0
 16  9  1  0
 17 15  1  0
 18 17  2  0
 20 19  1  6
 20 21  1  0
 21 17  1  0
 22 23  1  0
 22 20  1  0
 24 22  2  0
M  END
$$$$
