HNA.pdb
     RDKit          3D

 24 24  0  0  1  0  0  0  0  0999 V2000
   11.4823  -15.1634   18.4095 N   0  0  0  0  0  0  0  0  0  0  0  0
   10.9383  -15.2978   19.7282 C   0  0  1  0  0  0  0  0  0  0  0  0
    9.4222  -15.4149   19.5751 C   0  0  0  0  0  0  0  0  0  0  0  0
    8.8862  -14.0929   19.2076 C   0  0  0  0  0  0  0  0  0  0  0  0
    9.6174  -12.9745   18.9409 C   0  0  0  0  0  0  0  0  0  0  0  0
    8.7707  -11.9590   18.6423 N   0  0  0  0  0  0  0  0  0  0  0  0
    7.5285  -12.4682   18.7297 C   0  0  0  0  0  0  0  0  0  0  0  0
    7.5972  -13.7753   19.0759 N   0  0  0  0  0  0  0  0  0  0  0  0
   11.4049  -16.5012   20.4284 C   0  0  0  0  0  0  0  0  0  0  0  0
   11.7127  -17.5050   19.7261 O   0  0  0  0  0  0  0  0  0  0  0  0
   15.9259  -15.8284   23.4427 N   0  0  0  0  0  0  0  0  0  0  0  0
   15.2272  -16.6938   22.5621 C   0  0  0  0  0  0  0  0  0  0  0  0
   15.7438  -17.8080   22.3218 O   0  0  0  0  0  0  0  0  0  0  0  0
   13.9510  -16.2155   21.9997 C   0  0  0  0  0  0  0  0  0  0  0  0
   12.7712  -17.0451   22.4485 C   0  0  2  0  0  0  0  0  0  0  0  0
   11.5327  -16.6102   21.8432 N   0  0  0  0  0  0  0  0  0  0  0  0
   12.6739  -17.1213   23.9197 C   0  0  0  0  0  0  0  0  0  0  0  0
   13.6653  -17.4877   24.5788 O   0  0  0  0  0  0  0  0  0  0  0  0
   10.1367  -16.2363   26.5713 C   0  0  0  0  0  0  0  0  0  0  0  0
   11.3808  -16.9478   26.0147 C   0  0  2  0  0  0  0  0  0  0  0  0
   11.4881  -16.7907   24.6040 N   0  0  0  0  0  0  0  0  0  0  0  0
   11.3251  -18.3313   26.4762 C   0  0  0  0  0  0  0  0  0  0  0  0
   11.2478  -19.3578   25.5565 O   0  0  0  0  0  0  0  0  0  0  0  0
   11.3446  -18.6340   27.6875 O   0  0  0  0  0  0  0  0  0  0  0  0
  2  1  1  6
  3  2  1  0
  4  8  1  0
  4  3  1  0
  5  4  2  0
  6  5  1  0
  6  7  1  0
  7  8  2  0
  9 10  2  0
  9  2  1  0
 12 14  1  0
 12 11  1  0
 13 12  2  0
 15 14  1  1
 15 16  1  0
 16  9  1  0
 17 15  1  0
 18 17  2  0
 20 19  1  6
 20 21  1  0
 21 17  1  0
 22 23  1  0
 22 20  1  0
 24 22  2  0
M  END
$$$$
