HNA.pdb
     RDKit          3D

 24 24  0  0  1  0  0  0  0  0999 V2000
    5.9186  -16.0479   20.8117 N   0  0  0  0  0  0  0  0  0  0  0  0
    7.1122  -15.6715   21.5093 C   0  0  1  0  0  0  0  0  0  0  0  0
    7.2505  -14.1559   21.3702 C   0  0  0  0  0  0  0  0  0  0  0  0
    7.8353  -13.8590   20.0512 C   0  0  0  0  0  0  0  0  0  0  0  0
    7.2481  -13.1385   19.0549 C   0  0  0  0  0  0  0  0  0  0  0  0
    8.0946  -13.0829   17.9977 N   0  0  0  0  0  0  0  0  0  0  0  0
    9.1924  -13.7712   18.3595 C   0  0  0  0  0  0  0  0  0  0  0  0
    9.0355  -14.2474   19.6172 N   0  0  0  0  0  0  0  0  0  0  0  0
    7.0674  -15.9803   22.9442 C   0  0  0  0  0  0  0  0  0  0  0  0
    6.0073  -15.6991   23.5708 O   0  0  0  0  0  0  0  0  0  0  0  0
    7.7828  -17.6567   27.6771 N   0  0  0  0  0  0  0  0  0  0  0  0
    7.9669  -18.7233   26.7599 C   0  0  0  0  0  0  0  0  0  0  0  0
    8.0213  -19.8819   27.2299 O   0  0  0  0  0  0  0  0  0  0  0  0
    8.0795  -18.3860   25.3292 C   0  0  0  0  0  0  0  0  0  0  0  0
    7.9952  -16.8995   25.0743 C   0  0  2  0  0  0  0  0  0  0  0  0
    8.1377  -16.5741   23.6731 N   0  0  0  0  0  0  0  0  0  0  0  0
    8.9351  -16.1372   25.9202 C   0  0  0  0  0  0  0  0  0  0  0  0
   10.1598  -16.2407   25.7178 O   0  0  0  0  0  0  0  0  0  0  0  0
    8.7671  -13.2627   28.2976 C   0  0  0  0  0  0  0  0  0  0  0  0
    9.4030  -14.5525   27.7534 C   0  0  2  0  0  0  0  0  0  0  0  0
    8.4866  -15.2926   26.9540 N   0  0  0  0  0  0  0  0  0  0  0  0
    9.9452  -15.2784   28.8976 C   0  0  0  0  0  0  0  0  0  0  0  0
   10.9159  -14.6914   29.6840 O   0  0  0  0  0  0  0  0  0  0  0  0
    9.5637  -16.4276   29.2029 O   0  0  0  0  0  0  0  0  0  0  0  0
  2  1  1  6
  3  2  1  0
  4  8  1  0
  4  3  1  0
  5  4  2  0
  6  5  1  0
  6  7  1  0
  7  8  2  0
  9 10  2  0
  9  2  1  0
 12 14  1  0
 12 11  1  0
 13 12  2  0
 15 14  1  6
 15 16  1  0
 16  9  1  0
 17 15  1  0
 18 17  2  0
 20 19  1  1
 20 21  1  0
 21 17  1  0
 22 23  1  0
 22 20  1  0
 24 22  2  0
M  END
$$$$
