HMM.pdb
     RDKit          3D

 27 27  0  0  1  0  0  0  0  0999 V2000
    9.1394  -17.7100   19.8913 N   0  0  0  0  0  0  0  0  0  0  0  0
    9.5030  -16.3225   19.9596 C   0  0  1  0  0  0  0  0  0  0  0  0
    8.7917  -15.5330   18.8931 C   0  0  0  0  0  0  0  0  0  0  0  0
    8.6463  -16.3463   17.6529 C   0  0  0  0  0  0  0  0  0  0  0  0
    9.1407  -17.6105   17.4538 C   0  0  0  0  0  0  0  0  0  0  0  0
    8.7921  -17.9858   16.2071 N   0  0  0  0  0  0  0  0  0  0  0  0
    8.1080  -16.9852   15.6629 C   0  0  0  0  0  0  0  0  0  0  0  0
    8.0087  -15.9742   16.5320 N   0  0  0  0  0  0  0  0  0  0  0  0
    9.3244  -15.7389   21.2977 C   0  0  0  0  0  0  0  0  0  0  0  0
    8.9541  -14.5360   21.3636 O   0  0  0  0  0  0  0  0  0  0  0  0
    6.3551  -12.1294   26.2095 C   0  0  0  0  0  0  0  0  0  0  0  0
    6.1722  -13.6507   25.2057 S   0  0  0  0  0  0  0  0  0  0  0  0
    7.7691  -14.4588   25.1554 C   0  0  0  0  0  0  0  0  0  0  0  0
    8.0403  -15.1389   23.8341 C   0  0  0  0  0  0  0  0  0  0  0  0
    9.4197  -15.7416   23.7799 C   0  0  2  0  0  0  0  0  0  0  0  0
    9.5363  -16.4236   22.5061 N   0  0  0  0  0  0  0  0  0  0  0  0
    9.5920  -16.7484   24.8667 C   0  0  0  0  0  0  0  0  0  0  0  0
    9.4163  -17.9874   24.6381 O   0  0  0  0  0  0  0  0  0  0  0  0
   10.4495  -12.4294   28.7800 C   0  0  0  0  0  0  0  0  0  0  0  0
   10.2781  -14.1678   29.1895 S   0  0  0  0  0  0  0  0  0  0  0  0
   11.3606  -15.1601   28.1229 C   0  0  0  0  0  0  0  0  0  0  0  0
   11.1290  -16.6330   28.3218 C   0  0  0  0  0  0  0  0  0  0  0  0
   10.7720  -17.2815   27.0331 C   0  0  2  0  0  0  0  0  0  0  0  0
    9.9544  -16.3966   26.1947 N   0  0  0  0  0  0  0  0  0  0  0  0
   10.1352  -18.6124   27.1388 C   0  0  0  0  0  0  0  0  0  0  0  0
    8.9494  -18.8857   26.8524 O   0  0  0  0  0  0  0  0  0  0  0  0
   10.8729  -19.7303   27.5993 O   0  0  0  0  0  0  0  0  0  0  0  0
  2  1  1  1
  2  3  1  0
  4  3  1  0
  5  4  2  0
  6  5  1  0
  7  6  1  0
  7  8  2  0
  8  4  1  0
  9  2  1  0
  9 10  2  0
 12 11  1  0
 13 14  1  0
 13 12  1  0
 15 14  1  1
 15 16  1  0
 16  9  1  0
 17 24  1  0
 17 15  1  0
 18 17  2  0
 20 19  1  0
 21 20  1  0
 22 21  1  0
 23 22  1  1
 23 24  1  0
 23 25  1  0
 25 27  1  0
 26 25  2  0
M  END
$$$$
