HMM.pdb
     RDKit          3D

 27 27  0  0  1  0  0  0  0  0999 V2000
    9.3420  -18.0695   19.2453 N   0  0  0  0  0  0  0  0  0  0  0  0
    8.9427  -18.1752   20.6205 C   0  0  1  0  0  0  0  0  0  0  0  0
    9.5764  -19.3779   21.2676 C   0  0  0  0  0  0  0  0  0  0  0  0
    8.7731  -20.6020   20.9906 C   0  0  0  0  0  0  0  0  0  0  0  0
    7.4115  -20.6554   20.8314 C   0  0  0  0  0  0  0  0  0  0  0  0
    7.0850  -21.9420   20.5973 N   0  0  0  0  0  0  0  0  0  0  0  0
    8.2088  -22.6507   20.6128 C   0  0  0  0  0  0  0  0  0  0  0  0
    9.2512  -21.8485   20.8518 N   0  0  0  0  0  0  0  0  0  0  0  0
    9.1716  -16.9428   21.3898 C   0  0  0  0  0  0  0  0  0  0  0  0
   10.2714  -16.3496   21.2255 O   0  0  0  0  0  0  0  0  0  0  0  0
    6.5924  -11.7413   26.7109 C   0  0  0  0  0  0  0  0  0  0  0  0
    6.3121  -13.3968   25.9789 S   0  0  0  0  0  0  0  0  0  0  0  0
    7.6895  -13.7449   24.8891 C   0  0  0  0  0  0  0  0  0  0  0  0
    7.4104  -14.8843   23.9375 C   0  0  0  0  0  0  0  0  0  0  0  0
    8.6105  -15.2237   23.0928 C   0  0  2  0  0  0  0  0  0  0  0  0
    8.2550  -16.3795   22.2934 N   0  0  0  0  0  0  0  0  0  0  0  0
    9.7692  -15.5913   23.9568 C   0  0  0  0  0  0  0  0  0  0  0  0
   10.8603  -14.9405   23.8916 O   0  0  0  0  0  0  0  0  0  0  0  0
   10.2901  -14.0939   31.0016 C   0  0  0  0  0  0  0  0  0  0  0  0
    9.8755  -13.8989   29.2668 S   0  0  0  0  0  0  0  0  0  0  0  0
   10.4780  -15.3295   28.3264 C   0  0  0  0  0  0  0  0  0  0  0  0
    9.9179  -15.3459   26.9305 C   0  0  0  0  0  0  0  0  0  0  0  0
   10.3579  -16.5680   26.2084 C   0  0  2  0  0  0  0  0  0  0  0  0
    9.7295  -16.6659   24.8855 N   0  0  0  0  0  0  0  0  0  0  0  0
   10.1958  -17.8414   26.9433 C   0  0  0  0  0  0  0  0  0  0  0  0
    9.1360  -18.4944   27.0593 O   0  0  0  0  0  0  0  0  0  0  0  0
   11.2976  -18.4387   27.6030 O   0  0  0  0  0  0  0  0  0  0  0  0
  2  1  1  6
  2  3  1  0
  4  3  1  0
  5  4  2  0
  6  5  1  0
  7  6  1  0
  7  8  2  0
  8  4  1  0
  9  2  1  0
  9 10  2  0
 12 11  1  0
 13 14  1  0
 13 12  1  0
 15 14  1  1
 15 16  1  0
 16  9  1  0
 17 24  1  0
 17 15  1  0
 18 17  2  0
 20 19  1  0
 21 20  1  0
 22 21  1  0
 23 22  1  1
 23 24  1  0
 23 25  1  0
 25 27  1  0
 26 25  2  0
M  END
$$$$
