HMM.pdb
     RDKit          3D

 27 27  0  0  1  0  0  0  0  0999 V2000
    7.1420  -17.8773   19.4707 N   0  0  0  0  0  0  0  0  0  0  0  0
    8.4608  -17.3203   19.3587 C   0  0  1  0  0  0  0  0  0  0  0  0
    8.7571  -16.9366   17.9333 C   0  0  0  0  0  0  0  0  0  0  0  0
    8.5836  -18.1102   17.0315 C   0  0  0  0  0  0  0  0  0  0  0  0
    8.7231  -19.4283   17.3856 C   0  0  0  0  0  0  0  0  0  0  0  0
    8.4830  -20.1672   16.2842 N   0  0  0  0  0  0  0  0  0  0  0  0
    8.2061  -19.3293   15.2909 C   0  0  0  0  0  0  0  0  0  0  0  0
    8.2628  -18.0674   15.7289 N   0  0  0  0  0  0  0  0  0  0  0  0
    8.7073  -16.2144   20.2964 C   0  0  0  0  0  0  0  0  0  0  0  0
    8.6495  -15.0407   19.8407 O   0  0  0  0  0  0  0  0  0  0  0  0
    6.4005  -12.8209   26.1566 C   0  0  0  0  0  0  0  0  0  0  0  0
    7.3368  -12.7537   24.5838 S   0  0  0  0  0  0  0  0  0  0  0  0
    7.2113  -14.3645   23.8122 C   0  0  0  0  0  0  0  0  0  0  0  0
    7.8987  -14.4258   22.4685 C   0  0  0  0  0  0  0  0  0  0  0  0
    9.1786  -15.2183   22.5226 C   0  0  2  0  0  0  0  0  0  0  0  0
    9.0023  -16.3707   21.6611 N   0  0  0  0  0  0  0  0  0  0  0  0
    9.4319  -15.7056   23.9093 C   0  0  0  0  0  0  0  0  0  0  0  0
    8.5642  -16.4077   24.5196 O   0  0  0  0  0  0  0  0  0  0  0  0
   11.2030  -13.5572   30.3854 C   0  0  0  0  0  0  0  0  0  0  0  0
    9.7203  -13.8568   29.4205 S   0  0  0  0  0  0  0  0  0  0  0  0
    9.9759  -15.2831   28.3277 C   0  0  0  0  0  0  0  0  0  0  0  0
    9.8716  -14.8921   26.8790 C   0  0  0  0  0  0  0  0  0  0  0  0
   10.7720  -15.7328   26.0478 C   0  0  2  0  0  0  0  0  0  0  0  0
   10.6294  -15.4236   24.6200 N   0  0  0  0  0  0  0  0  0  0  0  0
   10.6688  -17.1925   26.2643 C   0  0  0  0  0  0  0  0  0  0  0  0
    9.6781  -17.9075   25.9994 O   0  0  0  0  0  0  0  0  0  0  0  0
   11.7513  -17.9176   26.8194 O   0  0  0  0  0  0  0  0  0  0  0  0
  2  1  1  6
  2  3  1  0
  4  3  1  0
  5  4  2  0
  6  5  1  0
  7  6  1  0
  7  8  2  0
  8  4  1  0
  9  2  1  0
  9 10  2  0
 12 11  1  0
 13 14  1  0
 13 12  1  0
 15 14  1  1
 15 16  1  0
 16  9  1  0
 17 24  1  0
 17 15  1  0
 18 17  2  0
 20 19  1  0
 21 20  1  0
 22 21  1  0
 23 22  1  1
 23 24  1  0
 23 25  1  0
 25 27  1  0
 26 25  2  0
M  END
$$$$
