HMM.pdb
     RDKit          3D

 27 27  0  0  1  0  0  0  0  0999 V2000
    8.0650  -18.9298   20.3424 N   0  0  0  0  0  0  0  0  0  0  0  0
    9.4334  -18.7053   19.9696 C   0  0  1  0  0  0  0  0  0  0  0  0
    9.6225  -18.9111   18.4902 C   0  0  0  0  0  0  0  0  0  0  0  0
    9.0304  -20.2111   18.0655 C   0  0  0  0  0  0  0  0  0  0  0  0
    8.7406  -21.2725   18.8850 C   0  0  0  0  0  0  0  0  0  0  0  0
    8.2211  -22.2464   18.1115 N   0  0  0  0  0  0  0  0  0  0  0  0
    8.1942  -21.7955   16.8620 C   0  0  0  0  0  0  0  0  0  0  0  0
    8.6852  -20.5529   16.8143 N   0  0  0  0  0  0  0  0  0  0  0  0
    9.9551  -17.4072   20.4230 C   0  0  0  0  0  0  0  0  0  0  0  0
   11.1516  -17.1296   20.1405 O   0  0  0  0  0  0  0  0  0  0  0  0
    7.6640  -11.4505   20.0918 C   0  0  0  0  0  0  0  0  0  0  0  0
    7.0922  -13.0549   19.4180 S   0  0  0  0  0  0  0  0  0  0  0  0
    8.3287  -14.2833   19.8277 C   0  0  0  0  0  0  0  0  0  0  0  0
    8.8999  -14.1001   21.2140 C   0  0  0  0  0  0  0  0  0  0  0  0
    9.8313  -15.2208   21.5955 C   0  0  2  0  0  0  0  0  0  0  0  0
    9.2179  -16.4552   21.1471 N   0  0  0  0  0  0  0  0  0  0  0  0
    9.9873  -15.2877   23.0773 C   0  0  0  0  0  0  0  0  0  0  0  0
   10.6569  -14.4036   23.7005 O   0  0  0  0  0  0  0  0  0  0  0  0
    7.6064  -11.9253   27.0213 C   0  0  0  0  0  0  0  0  0  0  0  0
    6.4128  -13.2163   26.6636 S   0  0  0  0  0  0  0  0  0  0  0  0
    7.2535  -14.8221   26.5706 C   0  0  0  0  0  0  0  0  0  0  0  0
    7.7462  -15.1054   25.1780 C   0  0  0  0  0  0  0  0  0  0  0  0
    8.8867  -16.0576   25.2141 C   0  0  2  0  0  0  0  0  0  0  0  0
    9.4120  -16.3181   23.8685 N   0  0  0  0  0  0  0  0  0  0  0  0
    8.6352  -17.3344   25.9173 C   0  0  0  0  0  0  0  0  0  0  0  0
    8.7712  -18.4796   25.4346 O   0  0  0  0  0  0  0  0  0  0  0  0
    8.1974  -17.3419   27.2642 O   0  0  0  0  0  0  0  0  0  0  0  0
  2  1  1  6
  2  3  1  0
  4  3  1  0
  5  4  2  0
  6  5  1  0
  7  6  1  0
  7  8  2  0
  8  4  1  0
  9  2  1  0
  9 10  2  0
 12 11  1  0
 13 14  1  0
 13 12  1  0
 15 14  1  1
 15 16  1  0
 16  9  1  0
 17 24  1  0
 17 15  1  0
 18 17  2  0
 20 19  1  0
 21 20  1  0
 22 21  1  0
 23 22  1  6
 23 24  1  0
 23 25  1  0
 25 27  1  0
 26 25  2  0
M  END
$$$$
