HMM.pdb
     RDKit          3D

 27 27  0  0  1  0  0  0  0  0999 V2000
    8.5034  -15.9215   19.5086 N   0  0  0  0  0  0  0  0  0  0  0  0
    9.7575  -15.4379   20.0140 C   0  0  1  0  0  0  0  0  0  0  0  0
   10.2759  -14.3108   19.1609 C   0  0  0  0  0  0  0  0  0  0  0  0
    9.2830  -13.9557   18.1079 C   0  0  0  0  0  0  0  0  0  0  0  0
    8.2782  -13.0289   18.2252 C   0  0  0  0  0  0  0  0  0  0  0  0
    7.6102  -13.0111   17.0547 N   0  0  0  0  0  0  0  0  0  0  0  0
    8.1871  -13.8967   16.2496 C   0  0  0  0  0  0  0  0  0  0  0  0
    9.2116  -14.4841   16.8762 N   0  0  0  0  0  0  0  0  0  0  0  0
    9.7123  -15.0820   21.4403 C   0  0  0  0  0  0  0  0  0  0  0  0
   10.7687  -14.6353   21.9628 O   0  0  0  0  0  0  0  0  0  0  0  0
    5.4040  -12.5735   25.8575 C   0  0  0  0  0  0  0  0  0  0  0  0
    7.1182  -13.0978   25.4808 S   0  0  0  0  0  0  0  0  0  0  0  0
    7.1733  -14.8838   25.5948 C   0  0  0  0  0  0  0  0  0  0  0  0
    7.3207  -15.5527   24.2485 C   0  0  0  0  0  0  0  0  0  0  0  0
    8.7122  -15.4035   23.6913 C   0  0  2  0  0  0  0  0  0  0  0  0
    8.5790  -15.2038   22.2617 N   0  0  0  0  0  0  0  0  0  0  0  0
    9.5009  -16.6490   23.9178 C   0  0  0  0  0  0  0  0  0  0  0  0
   10.3891  -17.0159   23.0843 O   0  0  0  0  0  0  0  0  0  0  0  0
   11.2306  -13.1879   29.2035 C   0  0  0  0  0  0  0  0  0  0  0  0
   10.4632  -14.8096   29.2047 S   0  0  0  0  0  0  0  0  0  0  0  0
   11.1712  -15.8257   27.8780 C   0  0  0  0  0  0  0  0  0  0  0  0
   10.2264  -15.9473   26.7140 C   0  0  0  0  0  0  0  0  0  0  0  0
   10.1505  -17.3575   26.2514 C   0  0  2  0  0  0  0  0  0  0  0  0
    9.3150  -17.4851   25.0514 N   0  0  0  0  0  0  0  0  0  0  0  0
    9.7317  -18.3456   27.2695 C   0  0  0  0  0  0  0  0  0  0  0  0
    8.5648  -18.7476   27.4685 O   0  0  0  0  0  0  0  0  0  0  0  0
   10.6836  -18.9352   28.1367 O   0  0  0  0  0  0  0  0  0  0  0  0
  2  1  1  6
  2  3  1  0
  4  3  1  0
  5  4  2  0
  6  5  1  0
  7  6  1  0
  7  8  2  0
  8  4  1  0
  9  2  1  0
  9 10  2  0
 12 11  1  0
 13 14  1  0
 13 12  1  0
 15 14  1  1
 15 16  1  0
 16  9  1  0
 17 24  1  0
 17 15  1  0
 18 17  2  0
 20 19  1  0
 21 20  1  0
 22 21  1  0
 23 22  1  1
 23 24  1  0
 23 25  1  0
 25 27  1  0
 26 25  2  0
M  END
$$$$
