HMM.pdb
     RDKit          3D

 27 27  0  0  1  0  0  0  0  0999 V2000
    8.4541  -17.7537   19.9726 N   0  0  0  0  0  0  0  0  0  0  0  0
    9.4579  -16.7269   19.9652 C   0  0  1  0  0  0  0  0  0  0  0  0
    9.3102  -15.8472   18.7523 C   0  0  0  0  0  0  0  0  0  0  0  0
    9.4581  -16.6501   17.5057 C   0  0  0  0  0  0  0  0  0  0  0  0
   10.6316  -17.1528   17.0035 C   0  0  0  0  0  0  0  0  0  0  0  0
   10.3314  -17.8144   15.8682 N   0  0  0  0  0  0  0  0  0  0  0  0
    9.0191  -17.7193   15.6829 C   0  0  0  0  0  0  0  0  0  0  0  0
    8.4683  -17.0110   16.6740 N   0  0  0  0  0  0  0  0  0  0  0  0
    9.5067  -15.9512   21.2137 C   0  0  0  0  0  0  0  0  0  0  0  0
   10.4478  -15.1239   21.3489 O   0  0  0  0  0  0  0  0  0  0  0  0
    6.4003  -12.5728   26.1502 C   0  0  0  0  0  0  0  0  0  0  0  0
    7.4247  -12.5006   24.6335 S   0  0  0  0  0  0  0  0  0  0  0  0
    7.0677  -13.9677   23.6712 C   0  0  0  0  0  0  0  0  0  0  0  0
    7.6444  -15.2235   24.2814 C   0  0  0  0  0  0  0  0  0  0  0  0
    8.9252  -15.6434   23.6091 C   0  0  2  0  0  0  0  0  0  0  0  0
    8.5820  -16.0652   22.2654 N   0  0  0  0  0  0  0  0  0  0  0  0
    9.5325  -16.8039   24.3226 C   0  0  0  0  0  0  0  0  0  0  0  0
    8.9368  -17.9273   24.3601 O   0  0  0  0  0  0  0  0  0  0  0  0
    9.5957  -13.0388   28.9898 C   0  0  0  0  0  0  0  0  0  0  0  0
   10.6528  -14.3944   29.5036 S   0  0  0  0  0  0  0  0  0  0  0  0
   10.1883  -15.9071   28.6147 C   0  0  0  0  0  0  0  0  0  0  0  0
   10.2076  -15.6981   27.1253 C   0  0  0  0  0  0  0  0  0  0  0  0
   10.8897  -16.8328   26.4502 C   0  0  2  0  0  0  0  0  0  0  0  0
   10.7848  -16.7306   24.9898 N   0  0  0  0  0  0  0  0  0  0  0  0
   10.4827  -18.1833   26.8956 C   0  0  0  0  0  0  0  0  0  0  0  0
    9.3345  -18.6707   26.8125 O   0  0  0  0  0  0  0  0  0  0  0  0
   11.4249  -19.0643   27.4803 O   0  0  0  0  0  0  0  0  0  0  0  0
  2  1  1  1
  2  3  1  0
  4  3  1  0
  5  4  2  0
  6  5  1  0
  7  6  1  0
  7  8  2  0
  8  4  1  0
  9  2  1  0
  9 10  2  0
 12 11  1  0
 13 14  1  0
 13 12  1  0
 15 14  1  1
 15 16  1  0
 16  9  1  0
 17 24  1  0
 17 15  1  0
 18 17  2  0
 20 19  1  0
 21 20  1  0
 22 21  1  0
 23 22  1  1
 23 24  1  0
 23 25  1  0
 25 27  1  0
 26 25  2  0
M  END
$$$$
