HMM.pdb
     RDKit          3D

 27 27  0  0  1  0  0  0  0  0999 V2000
    8.0332  -15.8060   21.0298 N   0  0  0  0  0  0  0  0  0  0  0  0
    9.1833  -14.9471   20.9910 C   0  0  1  0  0  0  0  0  0  0  0  0
    8.8379  -13.6236   20.3619 C   0  0  0  0  0  0  0  0  0  0  0  0
    8.3763  -13.8188   18.9585 C   0  0  0  0  0  0  0  0  0  0  0  0
    7.0758  -13.7797   18.5234 C   0  0  0  0  0  0  0  0  0  0  0  0
    7.0905  -14.0032   17.1943 N   0  0  0  0  0  0  0  0  0  0  0  0
    8.3568  -14.1730   16.8296 C   0  0  0  0  0  0  0  0  0  0  0  0
    9.1573  -14.0638   17.8948 N   0  0  0  0  0  0  0  0  0  0  0  0
    9.8363  -14.7889   22.2992 C   0  0  0  0  0  0  0  0  0  0  0  0
   10.6572  -13.8415   22.4296 O   0  0  0  0  0  0  0  0  0  0  0  0
    7.1041  -10.9489   25.3091 C   0  0  0  0  0  0  0  0  0  0  0  0
    6.0365  -12.4175   25.0676 S   0  0  0  0  0  0  0  0  0  0  0  0
    7.0140  -13.8653   25.4602 C   0  0  0  0  0  0  0  0  0  0  0  0
    7.7318  -14.4314   24.2577 C   0  0  0  0  0  0  0  0  0  0  0  0
    9.0366  -15.0844   24.6324 C   0  0  2  0  0  0  0  0  0  0  0  0
    9.6121  -15.6159   23.4127 N   0  0  0  0  0  0  0  0  0  0  0  0
    8.8011  -16.2190   25.5714 C   0  0  0  0  0  0  0  0  0  0  0  0
    7.9954  -16.0971   26.5482 O   0  0  0  0  0  0  0  0  0  0  0  0
    9.8434  -14.0203   29.2634 C   0  0  0  0  0  0  0  0  0  0  0  0
   10.8584  -15.4615   29.5977 S   0  0  0  0  0  0  0  0  0  0  0  0
   11.2859  -16.2872   28.0390 C   0  0  0  0  0  0  0  0  0  0  0  0
   10.3164  -17.3914   27.7173 C   0  0  0  0  0  0  0  0  0  0  0  0
   10.5345  -17.8875   26.3335 C   0  0  2  0  0  0  0  0  0  0  0  0
    9.4460  -17.4780   25.4381 N   0  0  0  0  0  0  0  0  0  0  0  0
   10.7799  -19.3404   26.2036 C   0  0  0  0  0  0  0  0  0  0  0  0
   11.6300  -20.0028   26.8372 O   0  0  0  0  0  0  0  0  0  0  0  0
   10.0215  -20.1218   25.2980 O   0  0  0  0  0  0  0  0  0  0  0  0
  2  1  1  1
  2  3  1  0
  4  3  1  0
  5  4  2  0
  6  5  1  0
  7  6  1  0
  7  8  2  0
  8  4  1  0
  9  2  1  0
  9 10  2  0
 12 11  1  0
 13 14  1  0
 13 12  1  0
 15 14  1  6
 15 16  1  0
 16  9  1  0
 17 24  1  0
 17 15  1  0
 18 17  2  0
 20 19  1  0
 21 20  1  0
 22 21  1  0
 23 22  1  1
 23 24  1  0
 23 25  1  0
 25 27  1  0
 26 25  2  0
M  END
$$$$
