HMM.pdb
     RDKit          3D

 27 27  0  0  1  0  0  0  0  0999 V2000
    5.9741  -17.5337   19.6449 N   0  0  0  0  0  0  0  0  0  0  0  0
    6.7288  -16.6006   20.4334 C   0  0  1  0  0  0  0  0  0  0  0  0
    6.4453  -15.1868   20.0005 C   0  0  0  0  0  0  0  0  0  0  0  0
    7.2504  -14.8399   18.7954 C   0  0  0  0  0  0  0  0  0  0  0  0
    8.1585  -15.6553   18.1689 C   0  0  0  0  0  0  0  0  0  0  0  0
    8.6636  -14.9667   17.1261 N   0  0  0  0  0  0  0  0  0  0  0  0
    8.0838  -13.7712   17.1157 C   0  0  0  0  0  0  0  0  0  0  0  0
    7.2168  -13.6754   18.1289 N   0  0  0  0  0  0  0  0  0  0  0  0
    6.5528  -16.7860   21.8817 C   0  0  0  0  0  0  0  0  0  0  0  0
    5.3938  -16.6307   22.3521 O   0  0  0  0  0  0  0  0  0  0  0  0
    7.9911  -20.7031   28.3356 C   0  0  0  0  0  0  0  0  0  0  0  0
    8.1524  -20.5622   26.5165 S   0  0  0  0  0  0  0  0  0  0  0  0
    7.5918  -18.9269   26.0504 C   0  0  0  0  0  0  0  0  0  0  0  0
    7.6268  -18.6987   24.5576 C   0  0  0  0  0  0  0  0  0  0  0  0
    7.3161  -17.2699   24.1955 C   0  0  2  0  0  0  0  0  0  0  0  0
    7.5810  -17.1230   22.7779 N   0  0  0  0  0  0  0  0  0  0  0  0
    8.2126  -16.3372   24.9377 C   0  0  0  0  0  0  0  0  0  0  0  0
    9.4516  -16.2668   24.6579 O   0  0  0  0  0  0  0  0  0  0  0  0
    5.3187  -11.4635   27.1570 C   0  0  0  0  0  0  0  0  0  0  0  0
    6.7885  -11.0439   26.2174 S   0  0  0  0  0  0  0  0  0  0  0  0
    7.7281  -12.5503   25.8407 C   0  0  0  0  0  0  0  0  0  0  0  0
    8.0377  -13.3321   27.0879 C   0  0  0  0  0  0  0  0  0  0  0  0
    8.6679  -14.6330   26.7427 C   0  0  2  0  0  0  0  0  0  0  0  0
    7.7513  -15.4883   25.9795 N   0  0  0  0  0  0  0  0  0  0  0  0
    9.2427  -15.3890   27.8768 C   0  0  0  0  0  0  0  0  0  0  0  0
    8.7943  -16.4540   28.3539 O   0  0  0  0  0  0  0  0  0  0  0  0
   10.4085  -14.9267   28.5348 O   0  0  0  0  0  0  0  0  0  0  0  0
  2  1  1  6
  2  3  1  0
  4  3  1  0
  5  4  2  0
  6  5  1  0
  7  6  1  0
  7  8  2  0
  8  4  1  0
  9  2  1  0
  9 10  2  0
 12 11  1  0
 13 14  1  0
 13 12  1  0
 15 14  1  1
 15 16  1  0
 16  9  1  0
 17 24  1  0
 17 15  1  0
 18 17  2  0
 20 19  1  0
 21 20  1  0
 22 21  1  0
 23 22  1  1
 23 24  1  0
 23 25  1  0
 25 27  1  0
 26 25  2  0
M  END
$$$$
