HMM.pdb
     RDKit          3D

 27 27  0  0  1  0  0  0  0  0999 V2000
    8.4114  -13.1757   18.6033 N   0  0  0  0  0  0  0  0  0  0  0  0
    8.3735  -14.3278   19.4596 C   0  0  1  0  0  0  0  0  0  0  0  0
    9.2287  -15.4340   18.9012 C   0  0  0  0  0  0  0  0  0  0  0  0
    8.6911  -15.8968   17.5906 C   0  0  0  0  0  0  0  0  0  0  0  0
    7.6645  -15.3172   16.8890 C   0  0  0  0  0  0  0  0  0  0  0  0
    7.4913  -16.0375   15.7630 N   0  0  0  0  0  0  0  0  0  0  0  0
    8.3817  -17.0236   15.7761 C   0  0  0  0  0  0  0  0  0  0  0  0
    9.1241  -16.9537   16.8857 N   0  0  0  0  0  0  0  0  0  0  0  0
    8.7010  -14.0232   20.8606 C   0  0  0  0  0  0  0  0  0  0  0  0
    9.6560  -13.2295   21.0761 O   0  0  0  0  0  0  0  0  0  0  0  0
    5.4660  -10.7847   25.7957 C   0  0  0  0  0  0  0  0  0  0  0  0
    5.5419  -12.6018   26.0136 S   0  0  0  0  0  0  0  0  0  0  0  0
    7.0952  -13.1635   25.3223 C   0  0  0  0  0  0  0  0  0  0  0  0
    6.9618  -13.6464   23.8973 C   0  0  0  0  0  0  0  0  0  0  0  0
    8.2885  -14.0514   23.3100 C   0  0  2  0  0  0  0  0  0  0  0  0
    8.0277  -14.5518   21.9747 N   0  0  0  0  0  0  0  0  0  0  0  0
    8.8991  -15.1517   24.1106 C   0  0  0  0  0  0  0  0  0  0  0  0
    8.7494  -16.3668   23.7648 O   0  0  0  0  0  0  0  0  0  0  0  0
   11.2575  -14.4696   30.2025 C   0  0  0  0  0  0  0  0  0  0  0  0
   11.8875  -16.1054   29.8197 S   0  0  0  0  0  0  0  0  0  0  0  0
   11.1895  -16.6801   28.2460 C   0  0  0  0  0  0  0  0  0  0  0  0
   10.7040  -15.5301   27.4067 C   0  0  0  0  0  0  0  0  0  0  0  0
   10.1676  -16.0224   26.1112 C   0  0  2  0  0  0  0  0  0  0  0  0
    9.6681  -14.9189   25.2823 N   0  0  0  0  0  0  0  0  0  0  0  0
    9.1486  -17.0907   26.2026 C   0  0  0  0  0  0  0  0  0  0  0  0
    7.9297  -16.9279   26.4280 O   0  0  0  0  0  0  0  0  0  0  0  0
    9.5103  -18.4492   26.0302 O   0  0  0  0  0  0  0  0  0  0  0  0
  2  1  1  6
  2  3  1  0
  4  3  1  0
  5  4  2  0
  6  5  1  0
  7  6  1  0
  7  8  2  0
  8  4  1  0
  9  2  1  0
  9 10  2  0
 12 11  1  0
 13 14  1  0
 13 12  1  0
 15 14  1  1
 15 16  1  0
 16  9  1  0
 17 24  1  0
 17 15  1  0
 18 17  2  0
 20 19  1  0
 21 20  1  0
 22 21  1  0
 23 22  1  1
 23 24  1  0
 23 25  1  0
 25 27  1  0
 26 25  2  0
M  END
$$$$
