INN.pdb
     RDKit          3D

 25 24  0  0  1  0  0  0  0  0999 V2000
    7.8003  -12.0058   20.1093 C   0  0  0  0  0  0  0  0  0  0  0  0
    7.3489  -13.2593   20.8084 C   0  0  0  0  0  0  0  0  0  0  0  0
    8.1837  -14.4663   20.4471 C   0  0  2  0  0  0  0  0  0  0  0  0
    8.2761  -14.6680   18.9585 C   0  0  0  0  0  0  0  0  0  0  0  0
    7.5799  -15.6593   21.1542 C   0  0  2  0  0  0  0  0  0  0  0  0
    7.5664  -15.3835   22.5604 N   0  0  0  0  0  0  0  0  0  0  0  0
    8.3231  -16.9084   20.9016 C   0  0  0  0  0  0  0  0  0  0  0  0
    8.5682  -17.2517   19.7228 O   0  0  0  0  0  0  0  0  0  0  0  0
   13.1014  -17.6318   20.7201 N   0  0  0  0  0  0  0  0  0  0  0  0
   12.3328  -16.7710   21.5195 C   0  0  0  0  0  0  0  0  0  0  0  0
   12.8857  -16.0102   22.3695 O   0  0  0  0  0  0  0  0  0  0  0  0
   10.8697  -16.7433   21.3782 C   0  0  0  0  0  0  0  0  0  0  0  0
   10.2076  -17.8527   22.2118 C   0  0  2  0  0  0  0  0  0  0  0  0
    8.7715  -17.7372   21.9579 N   0  0  0  0  0  0  0  0  0  0  0  0
   10.4797  -17.5987   23.6511 C   0  0  0  0  0  0  0  0  0  0  0  0
   11.6772  -17.7109   24.0850 O   0  0  0  0  0  0  0  0  0  0  0  0
    6.5222  -15.2573   25.2680 N   0  0  0  0  0  0  0  0  0  0  0  0
    7.9270  -15.3066   25.5529 C   0  0  0  0  0  0  0  0  0  0  0  0
    8.6481  -14.4651   24.9792 O   0  0  0  0  0  0  0  0  0  0  0  0
    8.4708  -16.3093   26.4801 C   0  0  0  0  0  0  0  0  0  0  0  0
    9.6892  -17.0071   25.9644 C   0  0  2  0  0  0  0  0  0  0  0  0
    9.4449  -17.2405   24.5329 N   0  0  0  0  0  0  0  0  0  0  0  0
    9.9701  -18.3061   26.6116 C   0  0  0  0  0  0  0  0  0  0  0  0
   10.4075  -18.2746   27.9476 O   0  0  0  0  0  0  0  0  0  0  0  0
    9.8606  -19.4280   26.0975 O   0  0  0  0  0  0  0  0  0  0  0  0
  1  2  1  0
  2  3  1  0
  3  4  1  6
  5  3  1  0
  5  6  1  1
  7  8  2  0
  7  5  1  0
 10  9  1  0
 10 12  1  0
 11 10  2  0
 13 12  1  6
 13 14  1  0
 14  7  1  0
 15 22  1  0
 15 13  1  0
 16 15  2  0
 18 17  1  0
 19 18  2  0
 20 18  1  0
 21 22  1  0
 21 20  1  1
 23 21  1  0
 24 23  1  0
 25 23  2  0
M  END
$$$$
