INN.pdb
     RDKit          3D

 25 24  0  0  1  0  0  0  0  0999 V2000
    7.0771  -11.9316   19.9596 C   0  0  0  0  0  0  0  0  0  0  0  0
    7.6777  -12.9418   19.0203 C   0  0  0  0  0  0  0  0  0  0  0  0
    8.7662  -13.7687   19.6650 C   0  0  2  0  0  0  0  0  0  0  0  0
    9.8957  -12.9180   20.1808 C   0  0  0  0  0  0  0  0  0  0  0  0
    9.2285  -14.7815   18.6411 C   0  0  2  0  0  0  0  0  0  0  0  0
    8.0865  -15.5329   18.2112 N   0  0  0  0  0  0  0  0  0  0  0  0
   10.2550  -15.6996   19.1700 C   0  0  0  0  0  0  0  0  0  0  0  0
    9.9064  -16.6707   19.8791 O   0  0  0  0  0  0  0  0  0  0  0  0
   15.2632  -18.2543   19.0030 N   0  0  0  0  0  0  0  0  0  0  0  0
   15.0207  -16.9423   19.4399 C   0  0  0  0  0  0  0  0  0  0  0  0
   15.7271  -16.4235   20.3558 O   0  0  0  0  0  0  0  0  0  0  0  0
   13.9381  -16.1520   18.8359 C   0  0  0  0  0  0  0  0  0  0  0  0
   12.6114  -16.3592   19.5847 C   0  0  2  0  0  0  0  0  0  0  0  0
   11.6321  -15.5159   18.8989 N   0  0  0  0  0  0  0  0  0  0  0  0
   12.7737  -15.8926   20.9868 C   0  0  0  0  0  0  0  0  0  0  0  0
   12.4633  -14.6871   21.2790 O   0  0  0  0  0  0  0  0  0  0  0  0
   10.8425  -16.6938   25.4792 N   0  0  0  0  0  0  0  0  0  0  0  0
   10.2784  -16.5458   24.1689 C   0  0  0  0  0  0  0  0  0  0  0  0
    9.0667  -16.2540   24.1069 O   0  0  0  0  0  0  0  0  0  0  0  0
   11.1063  -16.7336   22.9689 C   0  0  0  0  0  0  0  0  0  0  0  0
   12.5585  -16.9350   23.2657 C   0  0  2  0  0  0  0  0  0  0  0  0
   13.2607  -16.7533   21.9861 N   0  0  0  0  0  0  0  0  0  0  0  0
   12.8939  -18.2714   23.8008 C   0  0  0  0  0  0  0  0  0  0  0  0
   13.9722  -18.3491   24.7000 O   0  0  0  0  0  0  0  0  0  0  0  0
   12.3215  -19.3385   23.5387 O   0  0  0  0  0  0  0  0  0  0  0  0
  1  2  1  0
  2  3  1  0
  3  4  1  6
  5  3  1  0
  5  6  1  1
  7  8  2  0
  7  5  1  0
 10  9  1  0
 10 12  1  0
 11 10  2  0
 13 12  1  6
 13 14  1  0
 14  7  1  0
 15 22  1  0
 15 13  1  0
 16 15  2  0
 18 17  1  0
 19 18  2  0
 20 18  1  0
 21 22  1  0
 21 20  1  6
 23 21  1  0
 24 23  1  0
 25 23  2  0
M  END
$$$$
