INN.pdb
     RDKit          3D

 25 24  0  0  1  0  0  0  0  0999 V2000
    7.1753  -11.3663   23.6754 C   0  0  0  0  0  0  0  0  0  0  0  0
    7.6652  -12.3593   24.6941 C   0  0  0  0  0  0  0  0  0  0  0  0
    6.5411  -13.0167   25.4612 C   0  0  2  0  0  0  0  0  0  0  0  0
    5.7169  -12.0180   26.2284 C   0  0  0  0  0  0  0  0  0  0  0  0
    7.1612  -14.0638   26.3595 C   0  0  2  0  0  0  0  0  0  0  0  0
    8.2968  -13.4780   27.0082 N   0  0  0  0  0  0  0  0  0  0  0  0
    7.5801  -15.2715   25.6230 C   0  0  0  0  0  0  0  0  0  0  0  0
    6.7533  -16.1909   25.4264 O   0  0  0  0  0  0  0  0  0  0  0  0
    8.1428  -15.9406   22.1474 N   0  0  0  0  0  0  0  0  0  0  0  0
    9.4960  -15.6790   22.4143 C   0  0  0  0  0  0  0  0  0  0  0  0
   10.1140  -14.7638   21.7918 O   0  0  0  0  0  0  0  0  0  0  0  0
   10.2146  -16.4691   23.4246 C   0  0  0  0  0  0  0  0  0  0  0  0
    9.3312  -16.7391   24.6536 C   0  0  2  0  0  0  0  0  0  0  0  0
    8.8972  -15.4248   25.1276 N   0  0  0  0  0  0  0  0  0  0  0  0
   10.1547  -17.3981   25.7012 C   0  0  0  0  0  0  0  0  0  0  0  0
   11.3865  -17.6414   25.4597 O   0  0  0  0  0  0  0  0  0  0  0  0
   11.7621  -15.9032   28.1602 N   0  0  0  0  0  0  0  0  0  0  0  0
   10.9528  -16.2969   29.2769 C   0  0  0  0  0  0  0  0  0  0  0  0
   10.9574  -15.5415   30.2701 O   0  0  0  0  0  0  0  0  0  0  0  0
   10.1629  -17.5358   29.2325 C   0  0  0  0  0  0  0  0  0  0  0  0
   10.4086  -18.3623   28.0103 C   0  0  2  0  0  0  0  0  0  0  0  0
    9.5997  -17.7544   26.9429 N   0  0  0  0  0  0  0  0  0  0  0  0
   10.0205  -19.7824   28.1440 C   0  0  0  0  0  0  0  0  0  0  0  0
   10.8642  -20.6076   28.9084 O   0  0  0  0  0  0  0  0  0  0  0  0
    9.0233  -20.3265   27.6498 O   0  0  0  0  0  0  0  0  0  0  0  0
  1  2  1  0
  2  3  1  0
  3  4  1  1
  5  3  1  0
  5  6  1  6
  7  8  2  0
  7  5  1  0
 10  9  1  0
 10 12  1  0
 11 10  2  0
 13 12  1  6
 13 14  1  0
 14  7  1  0
 15 22  1  0
 15 13  1  0
 16 15  2  0
 18 17  1  0
 19 18  2  0
 20 18  1  0
 21 22  1  0
 21 20  1  1
 23 21  1  0
 24 23  1  0
 25 23  2  0
M  END
$$$$
