INN.pdb
     RDKit          3D

 25 24  0  0  1  0  0  0  0  0999 V2000
    7.2438  -12.2396   20.5468 C   0  0  0  0  0  0  0  0  0  0  0  0
    8.0715  -13.4520   20.2174 C   0  0  0  0  0  0  0  0  0  0  0  0
    8.9155  -13.2677   18.9772 C   0  0  2  0  0  0  0  0  0  0  0  0
    8.0852  -12.9143   17.7726 C   0  0  0  0  0  0  0  0  0  0  0  0
    9.7073  -14.5410   18.7781 C   0  0  2  0  0  0  0  0  0  0  0  0
    8.7860  -15.5949   18.4717 N   0  0  0  0  0  0  0  0  0  0  0  0
   10.5037  -14.9087   19.9643 C   0  0  0  0  0  0  0  0  0  0  0  0
   11.3584  -14.1071   20.4051 O   0  0  0  0  0  0  0  0  0  0  0  0
   10.8965  -18.3412   19.8293 N   0  0  0  0  0  0  0  0  0  0  0  0
   10.6208  -18.7838   21.1329 C   0  0  0  0  0  0  0  0  0  0  0  0
   10.2897  -19.9877   21.3519 O   0  0  0  0  0  0  0  0  0  0  0  0
   10.7137  -17.8493   22.2641 C   0  0  0  0  0  0  0  0  0  0  0  0
   11.1507  -16.4509   21.7981 C   0  0  2  0  0  0  0  0  0  0  0  0
   10.3307  -16.1487   20.6248 N   0  0  0  0  0  0  0  0  0  0  0  0
   12.5830  -16.5023   21.4034 C   0  0  0  0  0  0  0  0  0  0  0  0
   12.9092  -17.1195   20.3321 O   0  0  0  0  0  0  0  0  0  0  0  0
   17.5122  -13.6631   21.5876 N   0  0  0  0  0  0  0  0  0  0  0  0
   16.5838  -14.2955   20.6959 C   0  0  0  0  0  0  0  0  0  0  0  0
   17.0158  -14.6221   19.5717 O   0  0  0  0  0  0  0  0  0  0  0  0
   15.1935  -14.5381   21.1070 C   0  0  0  0  0  0  0  0  0  0  0  0
   14.9860  -15.8597   21.7759 C   0  0  2  0  0  0  0  0  0  0  0  0
   13.5742  -15.8863   22.1875 N   0  0  0  0  0  0  0  0  0  0  0  0
   15.8285  -16.0798   22.9704 C   0  0  0  0  0  0  0  0  0  0  0  0
   17.1609  -16.4719   22.7509 O   0  0  0  0  0  0  0  0  0  0  0  0
   15.4822  -15.9547   24.1533 O   0  0  0  0  0  0  0  0  0  0  0  0
  1  2  1  0
  2  3  1  0
  3  4  1  6
  5  3  1  0
  5  6  1  1
  7  8  2  0
  7  5  1  0
 10  9  1  0
 10 12  1  0
 11 10  2  0
 13 12  1  6
 13 14  1  0
 14  7  1  0
 15 22  1  0
 15 13  1  0
 16 15  2  0
 18 17  1  0
 19 18  2  0
 20 18  1  0
 21 22  1  0
 21 20  1  1
 23 21  1  0
 24 23  1  0
 25 23  2  0
M  END
$$$$
