INN.pdb
     RDKit          3D

 25 24  0  0  1  0  0  0  0  0999 V2000
    7.0186  -11.2384   25.6231 C   0  0  0  0  0  0  0  0  0  0  0  0
    7.4755  -12.6567   25.4153 C   0  0  0  0  0  0  0  0  0  0  0  0
    6.3622  -13.6639   25.5893 C   0  0  2  0  0  0  0  0  0  0  0  0
    5.8188  -13.6731   26.9929 C   0  0  0  0  0  0  0  0  0  0  0  0
    6.9058  -15.0125   25.1727 C   0  0  2  0  0  0  0  0  0  0  0  0
    8.1337  -15.2345   25.8773 N   0  0  0  0  0  0  0  0  0  0  0  0
    7.1443  -15.1073   23.7200 C   0  0  0  0  0  0  0  0  0  0  0  0
    6.1834  -15.3394   22.9517 O   0  0  0  0  0  0  0  0  0  0  0  0
    7.6035  -12.7661   19.1337 N   0  0  0  0  0  0  0  0  0  0  0  0
    7.5250  -13.3771   20.3953 C   0  0  0  0  0  0  0  0  0  0  0  0
    6.4012  -13.6062   20.9352 O   0  0  0  0  0  0  0  0  0  0  0  0
    8.7530  -13.7595   21.1073 C   0  0  0  0  0  0  0  0  0  0  0  0
    8.6247  -15.1600   21.7285 C   0  0  2  0  0  0  0  0  0  0  0  0
    8.4352  -14.9427   23.1628 N   0  0  0  0  0  0  0  0  0  0  0  0
    9.8918  -15.9037   21.5018 C   0  0  0  0  0  0  0  0  0  0  0  0
   10.3388  -16.0178   20.3093 O   0  0  0  0  0  0  0  0  0  0  0  0
   11.5506  -18.1231   25.7046 N   0  0  0  0  0  0  0  0  0  0  0  0
   11.8017  -17.0182   24.8252 C   0  0  0  0  0  0  0  0  0  0  0  0
   11.3091  -15.9181   25.1480 O   0  0  0  0  0  0  0  0  0  0  0  0
   12.6040  -17.1954   23.6064 C   0  0  0  0  0  0  0  0  0  0  0  0
   11.7858  -17.3184   22.3603 C   0  0  2  0  0  0  0  0  0  0  0  0
   10.5975  -16.4782   22.5734 N   0  0  0  0  0  0  0  0  0  0  0  0
   11.3405  -18.6943   22.0542 C   0  0  0  0  0  0  0  0  0  0  0  0
   12.3395  -19.6431   21.7732 O   0  0  0  0  0  0  0  0  0  0  0  0
   10.1715  -19.1029   22.0184 O   0  0  0  0  0  0  0  0  0  0  0  0
  1  2  1  0
  2  3  1  0
  3  4  1  1
  5  3  1  0
  5  6  1  1
  7  8  2  0
  7  5  1  0
 10  9  1  0
 10 12  1  0
 11 10  2  0
 13 12  1  6
 13 14  1  0
 14  7  1  0
 15 22  1  0
 15 13  1  0
 16 15  2  0
 18 17  1  0
 19 18  2  0
 20 18  1  0
 21 22  1  0
 21 20  1  1
 23 21  1  0
 24 23  1  0
 25 23  2  0
M  END
$$$$
