INN.pdb
     RDKit          3D

 25 24  0  0  1  0  0  0  0  0999 V2000
    8.2268  -11.6760   20.5942 C   0  0  0  0  0  0  0  0  0  0  0  0
    7.6667  -13.0168   20.2042 C   0  0  0  0  0  0  0  0  0  0  0  0
    8.7251  -14.0920   20.1149 C   0  0  2  0  0  0  0  0  0  0  0  0
    9.8623  -13.6960   19.2120 C   0  0  0  0  0  0  0  0  0  0  0  0
    8.0405  -15.3608   19.6572 C   0  0  2  0  0  0  0  0  0  0  0  0
    6.9314  -15.6080   20.5304 N   0  0  0  0  0  0  0  0  0  0  0  0
    8.9424  -16.5282   19.6594 C   0  0  0  0  0  0  0  0  0  0  0  0
    8.9381  -17.3082   20.6386 O   0  0  0  0  0  0  0  0  0  0  0  0
   11.5149  -20.6753   16.8540 N   0  0  0  0  0  0  0  0  0  0  0  0
   12.0390  -19.4043   17.1383 C   0  0  0  0  0  0  0  0  0  0  0  0
   13.2807  -19.2455   17.3382 O   0  0  0  0  0  0  0  0  0  0  0  0
   11.1473  -18.2374   17.2077 C   0  0  0  0  0  0  0  0  0  0  0  0
   10.7005  -17.9620   18.6528 C   0  0  2  0  0  0  0  0  0  0  0  0
    9.8193  -16.7964   18.5810 N   0  0  0  0  0  0  0  0  0  0  0  0
   11.8971  -17.6305   19.4703 C   0  0  0  0  0  0  0  0  0  0  0  0
   12.7477  -18.5504   19.7259 O   0  0  0  0  0  0  0  0  0  0  0  0
   13.9394  -14.3123   17.6810 N   0  0  0  0  0  0  0  0  0  0  0  0
   14.4997  -14.8267   18.8970 C   0  0  0  0  0  0  0  0  0  0  0  0
   15.6064  -15.3966   18.8104 O   0  0  0  0  0  0  0  0  0  0  0  0
   13.7870  -14.6788   20.1741 C   0  0  0  0  0  0  0  0  0  0  0  0
   13.2966  -15.9725   20.7425 C   0  0  2  0  0  0  0  0  0  0  0  0
   12.1023  -16.3294   19.9618 N   0  0  0  0  0  0  0  0  0  0  0  0
   12.9234  -15.9104   22.1715 C   0  0  0  0  0  0  0  0  0  0  0  0
   11.5731  -16.1379   22.4912 O   0  0  0  0  0  0  0  0  0  0  0  0
   13.6800  -15.6771   23.1244 O   0  0  0  0  0  0  0  0  0  0  0  0
  1  2  1  0
  2  3  1  0
  3  4  1  6
  5  3  1  0
  5  6  1  1
  7  8  2  0
  7  5  1  0
 10  9  1  0
 10 12  1  0
 11 10  2  0
 13 12  1  6
 13 14  1  0
 14  7  1  0
 15 22  1  0
 15 13  1  0
 16 15  2  0
 18 17  1  0
 19 18  2  0
 20 18  1  0
 21 22  1  0
 21 20  1  6
 23 21  1  0
 24 23  1  0
 25 23  2  0
M  END
$$$$
