INN.pdb
     RDKit          3D

 25 24  0  0  1  0  0  0  0  0999 V2000
    7.8369  -12.3178   21.3275 C   0  0  0  0  0  0  0  0  0  0  0  0
    7.3418  -13.4937   20.5301 C   0  0  0  0  0  0  0  0  0  0  0  0
    8.2880  -14.6715   20.5713 C   0  0  2  0  0  0  0  0  0  0  0  0
    9.6875  -14.2901   20.1696 C   0  0  0  0  0  0  0  0  0  0  0  0
    7.7061  -15.7478   19.6820 C   0  0  2  0  0  0  0  0  0  0  0  0
    6.3571  -15.9899   20.1006 N   0  0  0  0  0  0  0  0  0  0  0  0
    8.4738  -17.0065   19.7329 C   0  0  0  0  0  0  0  0  0  0  0  0
    8.0700  -17.9457   20.4556 O   0  0  0  0  0  0  0  0  0  0  0  0
   11.7479  -20.9008   17.5769 N   0  0  0  0  0  0  0  0  0  0  0  0
   12.2525  -19.6557   17.9847 C   0  0  0  0  0  0  0  0  0  0  0  0
   13.4462  -19.5438   18.3964 O   0  0  0  0  0  0  0  0  0  0  0  0
   11.3959  -18.4618   17.9382 C   0  0  0  0  0  0  0  0  0  0  0  0
   10.3928  -18.4491   19.1033 C   0  0  2  0  0  0  0  0  0  0  0  0
    9.6617  -17.1874   18.9846 N   0  0  0  0  0  0  0  0  0  0  0  0
   11.1457  -18.4684   20.3851 C   0  0  0  0  0  0  0  0  0  0  0  0
   11.8677  -19.4859   20.6648 O   0  0  0  0  0  0  0  0  0  0  0  0
   13.7670  -15.3745   24.4805 N   0  0  0  0  0  0  0  0  0  0  0  0
   12.4003  -15.7944   24.3678 C   0  0  0  0  0  0  0  0  0  0  0  0
   11.7822  -15.9928   25.4336 O   0  0  0  0  0  0  0  0  0  0  0  0
   11.7765  -15.9763   23.0493 C   0  0  0  0  0  0  0  0  0  0  0  0
   11.8155  -17.3875   22.5551 C   0  0  2  0  0  0  0  0  0  0  0  0
   11.0730  -17.3910   21.2854 N   0  0  0  0  0  0  0  0  0  0  0  0
   11.1943  -18.3721   23.4661 C   0  0  0  0  0  0  0  0  0  0  0  0
   12.0591  -19.2352   24.1621 O   0  0  0  0  0  0  0  0  0  0  0  0
    9.9833  -18.5186   23.6826 O   0  0  0  0  0  0  0  0  0  0  0  0
  1  2  1  0
  2  3  1  0
  3  4  1  6
  5  3  1  0
  5  6  1  1
  7  8  2  0
  7  5  1  0
 10  9  1  0
 10 12  1  0
 11 10  2  0
 13 12  1  6
 13 14  1  0
 14  7  1  0
 15 22  1  0
 15 13  1  0
 16 15  2  0
 18 17  1  0
 19 18  2  0
 20 18  1  0
 21 22  1  0
 21 20  1  1
 23 21  1  0
 24 23  1  0
 25 23  2  0
M  END
$$$$
