WHC.pdb
     RDKit          3D

 31 33  0  0  1  0  0  0  0  0999 V2000
    6.2533  -17.2056   23.5516 N   0  0  0  0  0  0  0  0  0  0  0  0
    7.2861  -16.2055   23.4566 C   0  0  1  0  0  0  0  0  0  0  0  0
    7.9792  -15.9095   24.7686 C   0  0  0  0  0  0  0  0  0  0  0  0
    7.0919  -15.0498   25.5994 C   0  0  0  0  0  0  0  0  0  0  0  0
    6.0190  -15.5293   26.3675 C   0  0  0  0  0  0  0  0  0  0  0  0
    5.5181  -14.4684   26.9880 N   0  0  0  0  0  0  0  0  0  0  0  0
    6.1733  -13.3556   26.6865 C   0  0  0  0  0  0  0  0  0  0  0  0
    6.0428  -12.0197   27.0552 C   0  0  0  0  0  0  0  0  0  0  0  0
    6.9062  -11.0715   26.5395 C   0  0  0  0  0  0  0  0  0  0  0  0
    7.9140  -11.3943   25.6587 C   0  0  0  0  0  0  0  0  0  0  0  0
    8.0373  -12.7218   25.2989 C   0  0  0  0  0  0  0  0  0  0  0  0
    7.1774  -13.6996   25.8044 C   0  0  0  0  0  0  0  0  0  0  0  0
    8.2996  -16.6265   22.4637 C   0  0  0  0  0  0  0  0  0  0  0  0
    8.5962  -17.8490   22.3688 O   0  0  0  0  0  0  0  0  0  0  0  0
    8.9407  -15.7033   21.6165 N   0  0  0  0  0  0  0  0  0  0  0  0
    9.9512  -16.1247   20.6867 C   0  0  1  0  0  0  0  0  0  0  0  0
   10.2370  -15.0361   19.7049 C   0  0  0  0  0  0  0  0  0  0  0  0
    9.1540  -14.7205   18.7729 C   0  0  0  0  0  0  0  0  0  0  0  0
    7.9993  -15.3879   18.5328 C   0  0  0  0  0  0  0  0  0  0  0  0
    7.3180  -14.7006   17.5882 N   0  0  0  0  0  0  0  0  0  0  0  0
    8.0464  -13.6100   17.2445 C   0  0  0  0  0  0  0  0  0  0  0  0
    9.1598  -13.6230   17.9607 N   0  0  0  0  0  0  0  0  0  0  0  0
   11.2350  -16.2602   21.4956 C   0  0  0  0  0  0  0  0  0  0  0  0
   11.8605  -15.2598   21.9104 O   0  0  0  0  0  0  0  0  0  0  0  0
   11.7698  -17.5388   21.8055 N   0  0  0  0  0  0  0  0  0  0  0  0
   13.0412  -17.7300   22.5000 C   0  0  1  0  0  0  0  0  0  0  0  0
   12.9191  -18.1481   23.9184 C   0  0  0  0  0  0  0  0  0  0  0  0
   11.2866  -17.6608   24.5694 S   0  0  0  0  0  0  0  0  0  0  0  0
   13.8449  -18.7807   21.7535 C   0  0  0  0  0  0  0  0  0  0  0  0
   13.2756  -19.3556   20.8254 O   0  0  0  0  0  0  0  0  0  0  0  0
   15.1324  -19.0708   22.1030 O   0  0  0  0  0  0  0  0  0  0  0  0
  2  1  1  1
  2 13  1  0
  2  3  1  0
  3  4  1  0
  4  5  2  0
  5  6  1  0
  7  6  1  0
  8  7  2  0
  9  8  1  0
 10 11  1  0
 10  9  2  0
 11 12  2  0
 12  4  1  0
 12  7  1  0
 13 14  2  0
 15 13  1  0
 15 16  1  0
 16 17  1  6
 17 18  1  0
 18 22  1  0
 19 18  2  0
 19 20  1  0
 20 21  1  0
 22 21  2  0
 23 24  2  0
 23 16  1  0
 25 23  1  0
 26 25  1  0
 26 27  1  1
 28 27  1  0
 29 31  1  0
 29 26  1  0
 30 29  2  0
M  END
$$$$
