WHC.pdb
     RDKit          3D

 31 33  0  0  1  0  0  0  0  0999 V2000
    6.5153  -17.1342   23.4667 N   0  0  0  0  0  0  0  0  0  0  0  0
    7.4759  -16.0608   23.4927 C   0  0  1  0  0  0  0  0  0  0  0  0
    8.0340  -15.7671   24.8680 C   0  0  0  0  0  0  0  0  0  0  0  0
    7.0355  -14.9714   25.6338 C   0  0  0  0  0  0  0  0  0  0  0  0
    5.9995  -15.5287   26.4000 C   0  0  0  0  0  0  0  0  0  0  0  0
    5.3690  -14.5009   26.9546 N   0  0  0  0  0  0  0  0  0  0  0  0
    5.9080  -13.3385   26.6127 C   0  0  0  0  0  0  0  0  0  0  0  0
    5.6229  -12.0090   26.9105 C   0  0  0  0  0  0  0  0  0  0  0  0
    6.3927  -10.9974   26.3680 C   0  0  0  0  0  0  0  0  0  0  0  0
    7.4543  -11.2491   25.5280 C   0  0  0  0  0  0  0  0  0  0  0  0
    7.7310  -12.5707   25.2384 C   0  0  0  0  0  0  0  0  0  0  0  0
    6.9681  -13.6118   25.7725 C   0  0  0  0  0  0  0  0  0  0  0  0
    8.5966  -16.3708   22.5771 C   0  0  0  0  0  0  0  0  0  0  0  0
    9.0151  -17.5583   22.4981 O   0  0  0  0  0  0  0  0  0  0  0  0
    9.2080  -15.3801   21.7861 N   0  0  0  0  0  0  0  0  0  0  0  0
   10.2958  -15.6993   20.9041 C   0  0  1  0  0  0  0  0  0  0  0  0
   10.4726  -14.6185   19.8885 C   0  0  0  0  0  0  0  0  0  0  0  0
    9.4041  -14.4984   18.8960 C   0  0  0  0  0  0  0  0  0  0  0  0
    8.3567  -15.3224   18.6506 C   0  0  0  0  0  0  0  0  0  0  0  0
    7.6395  -14.7827   17.6391 N   0  0  0  0  0  0  0  0  0  0  0  0
    8.2387  -13.6273   17.2592 C   0  0  0  0  0  0  0  0  0  0  0  0
    9.3090  -13.4560   18.0194 N   0  0  0  0  0  0  0  0  0  0  0  0
   11.5578  -15.6377   21.7553 C   0  0  0  0  0  0  0  0  0  0  0  0
   11.7225  -14.7546   22.6255 O   0  0  0  0  0  0  0  0  0  0  0  0
   12.5991  -16.5882   21.5851 N   0  0  0  0  0  0  0  0  0  0  0  0
   13.3644  -17.1479   22.6969 C   0  0  1  0  0  0  0  0  0  0  0  0
   12.5816  -18.0017   23.6242 C   0  0  0  0  0  0  0  0  0  0  0  0
   12.4530  -17.1912   25.2530 S   0  0  0  0  0  0  0  0  0  0  0  0
   14.5071  -17.9719   22.1291 C   0  0  0  0  0  0  0  0  0  0  0  0
   14.2715  -18.6096   21.1026 O   0  0  0  0  0  0  0  0  0  0  0  0
   15.7302  -18.0022   22.7349 O   0  0  0  0  0  0  0  0  0  0  0  0
  2  1  1  1
  2 13  1  0
  2  3  1  0
  3  4  1  0
  4  5  2  0
  5  6  1  0
  7  6  1  0
  8  7  2  0
  9  8  1  0
 10 11  1  0
 10  9  2  0
 11 12  2  0
 12  4  1  0
 12  7  1  0
 13 14  2  0
 15 13  1  0
 15 16  1  0
 16 17  1  6
 17 18  1  0
 18 22  1  0
 19 18  2  0
 19 20  1  0
 20 21  1  0
 22 21  2  0
 23 24  2  0
 23 16  1  0
 25 23  1  0
 26 25  1  0
 26 27  1  6
 28 27  1  0
 29 31  1  0
 29 26  1  0
 30 29  2  0
M  END
$$$$
