WHC.pdb
     RDKit          3D

 31 33  0  0  1  0  0  0  0  0999 V2000
    6.3374  -17.3266   23.8216 N   0  0  0  0  0  0  0  0  0  0  0  0
    7.2740  -16.2509   23.6178 C   0  0  1  0  0  0  0  0  0  0  0  0
    7.9541  -15.7785   24.8842 C   0  0  0  0  0  0  0  0  0  0  0  0
    7.0047  -14.9272   25.6527 C   0  0  0  0  0  0  0  0  0  0  0  0
    5.8934  -15.4181   26.3561 C   0  0  0  0  0  0  0  0  0  0  0  0
    5.3397  -14.3612   26.9373 N   0  0  0  0  0  0  0  0  0  0  0  0
    5.9962  -13.2405   26.6694 C   0  0  0  0  0  0  0  0  0  0  0  0
    5.8237  -11.9046   27.0203 C   0  0  0  0  0  0  0  0  0  0  0  0
    6.7036  -10.9467   26.5526 C   0  0  0  0  0  0  0  0  0  0  0  0
    7.7686  -11.2596   25.7381 C   0  0  0  0  0  0  0  0  0  0  0  0
    7.9332  -12.5872   25.3955 C   0  0  0  0  0  0  0  0  0  0  0  0
    7.0578  -13.5747   25.8535 C   0  0  0  0  0  0  0  0  0  0  0  0
    8.3087  -16.6667   22.6448 C   0  0  0  0  0  0  0  0  0  0  0  0
    8.5601  -17.8946   22.5022 O   0  0  0  0  0  0  0  0  0  0  0  0
    9.0190  -15.7322   21.8680 N   0  0  0  0  0  0  0  0  0  0  0  0
   10.0600  -16.1495   20.9707 C   0  0  1  0  0  0  0  0  0  0  0  0
   10.3237  -15.0871   19.9545 C   0  0  0  0  0  0  0  0  0  0  0  0
    9.1785  -14.6966   19.1317 C   0  0  0  0  0  0  0  0  0  0  0  0
    8.3429  -15.4666   18.3934 C   0  0  0  0  0  0  0  0  0  0  0  0
    7.4350  -14.6477   17.8155 N   0  0  0  0  0  0  0  0  0  0  0  0
    7.7051  -13.3744   18.1950 C   0  0  0  0  0  0  0  0  0  0  0  0
    8.7627  -13.4037   18.9909 N   0  0  0  0  0  0  0  0  0  0  0  0
   11.3336  -16.2092   21.8045 C   0  0  0  0  0  0  0  0  0  0  0  0
   12.3469  -15.5391   21.5074 O   0  0  0  0  0  0  0  0  0  0  0  0
   11.4132  -17.0372   22.9555 N   0  0  0  0  0  0  0  0  0  0  0  0
   12.6411  -17.2259   23.7248 C   0  0  1  0  0  0  0  0  0  0  0  0
   12.4500  -17.2997   25.1944 C   0  0  0  0  0  0  0  0  0  0  0  0
   11.4745  -15.8680   25.7647 S   0  0  0  0  0  0  0  0  0  0  0  0
   13.3094  -18.5080   23.2591 C   0  0  0  0  0  0  0  0  0  0  0  0
   12.6276  -19.2681   22.5713 O   0  0  0  0  0  0  0  0  0  0  0  0
   14.6008  -18.7980   23.5944 O   0  0  0  0  0  0  0  0  0  0  0  0
  2  1  1  1
  2 13  1  0
  2  3  1  0
  3  4  1  0
  4  5  2  0
  5  6  1  0
  7  6  1  0
  8  7  2  0
  9  8  1  0
 10 11  1  0
 10  9  2  0
 11 12  2  0
 12  4  1  0
 12  7  1  0
 13 14  2  0
 15 13  1  0
 15 16  1  0
 16 17  1  6
 17 18  1  0
 18 22  1  0
 19 18  2  0
 19 20  1  0
 20 21  1  0
 22 21  2  0
 23 24  2  0
 23 16  1  0
 25 23  1  0
 26 25  1  0
 26 27  1  1
 28 27  1  0
 29 31  1  0
 29 26  1  0
 30 29  2  0
M  END
$$$$
