WHC.pdb
     RDKit          3D

 31 33  0  0  1  0  0  0  0  0999 V2000
    6.2388  -17.0214   23.3993 N   0  0  0  0  0  0  0  0  0  0  0  0
    7.3029  -16.0501   23.3999 C   0  0  1  0  0  0  0  0  0  0  0  0
    7.8869  -15.7775   24.7688 C   0  0  0  0  0  0  0  0  0  0  0  0
    6.9378  -14.9256   25.5371 C   0  0  0  0  0  0  0  0  0  0  0  0
    5.7759  -15.4030   26.1641 C   0  0  0  0  0  0  0  0  0  0  0  0
    5.2388  -14.3535   26.7737 N   0  0  0  0  0  0  0  0  0  0  0  0
    5.9517  -13.2500   26.5933 C   0  0  0  0  0  0  0  0  0  0  0  0
    5.8170  -11.9270   27.0044 C   0  0  0  0  0  0  0  0  0  0  0  0
    6.7556  -10.9854   26.6264 C   0  0  0  0  0  0  0  0  0  0  0  0
    7.8441  -11.3027   25.8451 C   0  0  0  0  0  0  0  0  0  0  0  0
    7.9708  -12.6175   25.4423 C   0  0  0  0  0  0  0  0  0  0  0  0
    7.0359  -13.5882   25.8094 C   0  0  0  0  0  0  0  0  0  0  0  0
    8.3872  -16.4960   22.4967 C   0  0  0  0  0  0  0  0  0  0  0  0
    8.5788  -17.7317   22.3299 O   0  0  0  0  0  0  0  0  0  0  0  0
    9.2098  -15.5816   21.8123 N   0  0  0  0  0  0  0  0  0  0  0  0
   10.2556  -16.0329   20.9373 C   0  0  1  0  0  0  0  0  0  0  0  0
   10.5333  -15.0049   19.8899 C   0  0  0  0  0  0  0  0  0  0  0  0
    9.4240  -14.7050   18.9842 C   0  0  0  0  0  0  0  0  0  0  0  0
    8.7759  -15.5168   18.1140 C   0  0  0  0  0  0  0  0  0  0  0  0
    7.8179  -14.7821   17.5046 N   0  0  0  0  0  0  0  0  0  0  0  0
    7.8703  -13.5195   17.9959 C   0  0  0  0  0  0  0  0  0  0  0  0
    8.8447  -13.4721   18.8909 N   0  0  0  0  0  0  0  0  0  0  0  0
   11.5221  -16.0724   21.7831 C   0  0  0  0  0  0  0  0  0  0  0  0
   12.1147  -15.0273   22.1304 O   0  0  0  0  0  0  0  0  0  0  0  0
   12.0777  -17.3089   22.2064 N   0  0  0  0  0  0  0  0  0  0  0  0
   13.2605  -17.4073   23.0588 C   0  0  1  0  0  0  0  0  0  0  0  0
   13.0697  -18.1982   24.2997 C   0  0  0  0  0  0  0  0  0  0  0  0
   11.6048  -17.5921   25.2013 S   0  0  0  0  0  0  0  0  0  0  0  0
   14.3844  -18.0355   22.2530 C   0  0  0  0  0  0  0  0  0  0  0  0
   14.0933  -18.4553   21.1327 O   0  0  0  0  0  0  0  0  0  0  0  0
   15.6508  -18.1302   22.7545 O   0  0  0  0  0  0  0  0  0  0  0  0
  2  1  1  1
  2 13  1  0
  2  3  1  0
  3  4  1  0
  4  5  2  0
  5  6  1  0
  7  6  1  0
  8  7  2  0
  9  8  1  0
 10 11  1  0
 10  9  2  0
 11 12  2  0
 12  4  1  0
 12  7  1  0
 13 14  2  0
 15 13  1  0
 15 16  1  0
 16 17  1  6
 17 18  1  0
 18 22  1  0
 19 18  2  0
 19 20  1  0
 20 21  1  0
 22 21  2  0
 23 24  2  0
 23 16  1  0
 25 23  1  0
 26 25  1  0
 26 27  1  1
 28 27  1  0
 29 31  1  0
 29 26  1  0
 30 29  2  0
M  END
$$$$
