VIQ.pdb
     RDKit          3D

 25 24  0  0  1  0  0  0  0  0999 V2000
    6.5558  -15.4731   19.0525 C   0  0  0  0  0  0  0  0  0  0  0  0
    6.9987  -14.6137   20.2015 C   0  0  2  0  0  0  0  0  0  0  0  0
    7.6522  -13.3681   19.6784 C   0  0  0  0  0  0  0  0  0  0  0  0
    7.8748  -15.3394   21.1874 C   0  0  2  0  0  0  0  0  0  0  0  0
    7.1347  -16.4986   21.6509 N   0  0  0  0  0  0  0  0  0  0  0  0
    8.2755  -14.4758   22.3289 C   0  0  0  0  0  0  0  0  0  0  0  0
    8.1650  -13.2381   22.3197 O   0  0  0  0  0  0  0  0  0  0  0  0
    6.5766  -12.0163   26.4817 C   0  0  0  0  0  0  0  0  0  0  0  0
    7.9548  -12.6779   26.2806 C   0  0  0  0  0  0  0  0  0  0  0  0
    7.8793  -13.5127   25.0403 C   0  0  2  0  0  0  0  0  0  0  0  0
    6.6311  -14.3694   25.1088 C   0  0  0  0  0  0  0  0  0  0  0  0
    9.1205  -14.2970   24.7143 C   0  0  2  0  0  0  0  0  0  0  0  0
    8.8130  -15.0839   23.4948 N   0  0  0  0  0  0  0  0  0  0  0  0
    9.4712  -15.2509   25.7793 C   0  0  0  0  0  0  0  0  0  0  0  0
    8.6388  -16.1453   26.1001 O   0  0  0  0  0  0  0  0  0  0  0  0
   11.1973  -15.8691   30.2665 N   0  0  0  0  0  0  0  0  0  0  0  0
   10.9128  -17.2532   30.2186 C   0  0  0  0  0  0  0  0  0  0  0  0
   10.5690  -17.8388   31.2671 O   0  0  0  0  0  0  0  0  0  0  0  0
   11.0116  -18.0223   28.9627 C   0  0  0  0  0  0  0  0  0  0  0  0
   10.2993  -17.2909   27.8420 C   0  0  0  0  0  0  0  0  0  0  0  0
   11.2830  -16.5208   26.9829 C   0  0  2  0  0  0  0  0  0  0  0  0
   10.6899  -15.2755   26.5072 N   0  0  0  0  0  0  0  0  0  0  0  0
   11.6575  -17.4158   25.8669 C   0  0  0  0  0  0  0  0  0  0  0  0
   12.8237  -17.8257   25.7348 O   0  0  0  0  0  0  0  0  0  0  0  0
   10.6772  -17.7916   24.9652 O   0  0  0  0  0  0  0  0  0  0  0  0
  2  1  1  6
  2  3  1  0
  4  2  1  0
  4  6  1  0
  4  5  1  1
  6  7  2  0
  9  8  1  0
 10  9  1  0
 10 11  1  1
 12 10  1  0
 13  6  1  0
 12 13  1  6
 14 15  2  0
 14 12  1  0
 16 17  1  0
 17 18  2  0
 19 17  1  0
 19 20  1  0
 21 20  1  1
 21 22  1  0
 22 14  1  0
 23 21  1  0
 23 25  1  0
 24 23  2  0
M  END
$$$$
