VIQ.pdb
     RDKit          3D

 25 24  0  0  1  0  0  0  0  0999 V2000
    9.2228  -16.2349   15.3652 C   0  0  0  0  0  0  0  0  0  0  0  0
   10.0610  -17.3123   15.9910 C   0  0  2  0  0  0  0  0  0  0  0  0
   10.1862  -18.4696   15.0437 C   0  0  0  0  0  0  0  0  0  0  0  0
    9.5663  -17.7428   17.3459 C   0  0  2  0  0  0  0  0  0  0  0  0
    8.1212  -17.8496   17.2639 N   0  0  0  0  0  0  0  0  0  0  0  0
    9.9672  -16.7968   18.4201 C   0  0  0  0  0  0  0  0  0  0  0  0
   11.1507  -16.5171   18.6761 O   0  0  0  0  0  0  0  0  0  0  0  0
    6.6629  -12.5746   19.3655 C   0  0  0  0  0  0  0  0  0  0  0  0
    7.9999  -13.3259   19.2057 C   0  0  0  0  0  0  0  0  0  0  0  0
    8.1395  -14.2540   20.3721 C   0  0  2  0  0  0  0  0  0  0  0  0
    8.1397  -13.4334   21.6461 C   0  0  0  0  0  0  0  0  0  0  0  0
    9.2859  -15.2241   20.2905 C   0  0  2  0  0  0  0  0  0  0  0  0
    8.9561  -16.1746   19.2002 N   0  0  0  0  0  0  0  0  0  0  0  0
    9.4410  -16.0068   21.5276 C   0  0  0  0  0  0  0  0  0  0  0  0
    8.4852  -16.7356   21.9162 O   0  0  0  0  0  0  0  0  0  0  0  0
   14.3970  -18.9672   23.6237 N   0  0  0  0  0  0  0  0  0  0  0  0
   13.3177  -19.5431   22.9150 C   0  0  0  0  0  0  0  0  0  0  0  0
   13.4870  -20.6361   22.3345 O   0  0  0  0  0  0  0  0  0  0  0  0
   11.9979  -18.8862   22.8440 C   0  0  0  0  0  0  0  0  0  0  0  0
   12.0208  -17.5783   23.6103 C   0  0  0  0  0  0  0  0  0  0  0  0
   10.6752  -16.8829   23.5408 C   0  0  2  0  0  0  0  0  0  0  0  0
   10.5926  -16.0333   22.3575 N   0  0  0  0  0  0  0  0  0  0  0  0
   10.5392  -16.1040   24.7904 C   0  0  0  0  0  0  0  0  0  0  0  0
   10.5014  -14.8615   24.7728 O   0  0  0  0  0  0  0  0  0  0  0  0
   10.4539  -16.7899   25.9894 O   0  0  0  0  0  0  0  0  0  0  0  0
  2  1  1  6
  2  3  1  0
  4  2  1  0
  4  6  1  0
  4  5  1  6
  6  7  2  0
  9  8  1  0
 10  9  1  0
 10 11  1  1
 12 10  1  0
 13  6  1  0
 12 13  1  6
 14 15  2  0
 14 12  1  0
 16 17  1  0
 17 18  2  0
 19 17  1  0
 19 20  1  0
 21 20  1  1
 21 22  1  0
 22 14  1  0
 23 21  1  0
 23 25  1  0
 24 23  2  0
M  END
$$$$
