VIQ.pdb
     RDKit          3D

 25 24  0  0  1  0  0  0  0  0999 V2000
    7.3838  -18.0251   22.0281 C   0  0  0  0  0  0  0  0  0  0  0  0
    6.2540  -17.0655   21.7879 C   0  0  2  0  0  0  0  0  0  0  0  0
    5.4522  -17.5154   20.6017 C   0  0  0  0  0  0  0  0  0  0  0  0
    6.7032  -15.6348   21.6557 C   0  0  2  0  0  0  0  0  0  0  0  0
    7.3878  -15.5132   20.3817 N   0  0  0  0  0  0  0  0  0  0  0  0
    7.5876  -15.2151   22.7742 C   0  0  0  0  0  0  0  0  0  0  0  0
    8.8240  -15.3382   22.7494 O   0  0  0  0  0  0  0  0  0  0  0  0
    5.8579  -11.1583   25.9725 C   0  0  0  0  0  0  0  0  0  0  0  0
    6.8084  -12.0348   25.1324 C   0  0  0  0  0  0  0  0  0  0  0  0
    7.0713  -13.2884   25.9074 C   0  0  2  0  0  0  0  0  0  0  0  0
    7.7375  -12.9171   27.2169 C   0  0  0  0  0  0  0  0  0  0  0  0
    7.7988  -14.3699   25.1569 C   0  0  2  0  0  0  0  0  0  0  0  0
    7.0024  -14.6434   23.9355 N   0  0  0  0  0  0  0  0  0  0  0  0
    7.8763  -15.6237   25.9243 C   0  0  0  0  0  0  0  0  0  0  0  0
    6.9239  -16.4501   25.8467 O   0  0  0  0  0  0  0  0  0  0  0  0
   12.3201  -17.4032   23.4736 N   0  0  0  0  0  0  0  0  0  0  0  0
   12.0178  -18.6385   24.0911 C   0  0  0  0  0  0  0  0  0  0  0  0
   12.7073  -19.6418   23.8112 O   0  0  0  0  0  0  0  0  0  0  0  0
   10.9096  -18.7722   25.0568 C   0  0  0  0  0  0  0  0  0  0  0  0
   10.1911  -17.4470   25.2178 C   0  0  0  0  0  0  0  0  0  0  0  0
    9.6217  -17.3027   26.6156 C   0  0  2  0  0  0  0  0  0  0  0  0
    8.9467  -16.0183   26.7691 N   0  0  0  0  0  0  0  0  0  0  0  0
   10.7592  -17.4439   27.5499 C   0  0  0  0  0  0  0  0  0  0  0  0
   11.1895  -18.5642   27.8745 O   0  0  0  0  0  0  0  0  0  0  0  0
   11.3405  -16.2962   28.0599 O   0  0  0  0  0  0  0  0  0  0  0  0
  2  1  1  6
  2  3  1  0
  4  2  1  0
  4  6  1  0
  4  5  1  6
  6  7  2  0
  9  8  1  0
 10  9  1  0
 10 11  1  1
 12 10  1  0
 13  6  1  0
 12 13  1  6
 14 15  2  0
 14 12  1  0
 16 17  1  0
 17 18  2  0
 19 17  1  0
 19 20  1  0
 21 20  1  6
 21 22  1  0
 22 14  1  0
 23 21  1  0
 23 25  1  0
 24 23  2  0
M  END
$$$$
