VIQ.pdb
     RDKit          3D

 25 24  0  0  1  0  0  0  0  0999 V2000
    7.4688  -19.6019   24.1962 C   0  0  0  0  0  0  0  0  0  0  0  0
    6.1393  -18.9148   24.0730 C   0  0  2  0  0  0  0  0  0  0  0  0
    5.1149  -19.8844   23.5604 C   0  0  0  0  0  0  0  0  0  0  0  0
    6.1907  -17.6581   23.2460 C   0  0  2  0  0  0  0  0  0  0  0  0
    6.3467  -18.0595   21.8600 N   0  0  0  0  0  0  0  0  0  0  0  0
    7.2937  -16.7529   23.6624 C   0  0  0  0  0  0  0  0  0  0  0  0
    8.3802  -16.6811   23.0635 O   0  0  0  0  0  0  0  0  0  0  0  0
    5.7577  -12.3133   26.5528 C   0  0  0  0  0  0  0  0  0  0  0  0
    6.6045  -13.0191   25.4746 C   0  0  0  0  0  0  0  0  0  0  0  0
    7.4973  -13.9990   26.1702 C   0  0  2  0  0  0  0  0  0  0  0  0
    8.4669  -13.2326   27.0470 C   0  0  0  0  0  0  0  0  0  0  0  0
    8.1714  -15.0039   25.2770 C   0  0  2  0  0  0  0  0  0  0  0  0
    7.1089  -15.9232   24.8006 N   0  0  0  0  0  0  0  0  0  0  0  0
    9.1647  -15.8136   26.0013 C   0  0  0  0  0  0  0  0  0  0  0  0
   10.2450  -15.2729   26.3709 O   0  0  0  0  0  0  0  0  0  0  0  0
   12.5853  -20.5142   25.2294 N   0  0  0  0  0  0  0  0  0  0  0  0
   13.2254  -19.5083   25.9891 C   0  0  0  0  0  0  0  0  0  0  0  0
   14.4565  -19.3407   25.8595 O   0  0  0  0  0  0  0  0  0  0  0  0
   12.4767  -18.6525   26.9302 C   0  0  0  0  0  0  0  0  0  0  0  0
   11.3611  -17.9259   26.2050 C   0  0  0  0  0  0  0  0  0  0  0  0
   10.0895  -17.9181   27.0307 C   0  0  2  0  0  0  0  0  0  0  0  0
    9.0314  -17.1848   26.3440 N   0  0  0  0  0  0  0  0  0  0  0  0
   10.4351  -17.3018   28.3296 C   0  0  0  0  0  0  0  0  0  0  0  0
   11.2117  -17.8634   29.1215 O   0  0  0  0  0  0  0  0  0  0  0  0
    9.8734  -16.0781   28.6496 O   0  0  0  0  0  0  0  0  0  0  0  0
  2  1  1  6
  2  3  1  0
  4  2  1  0
  4  6  1  0
  4  5  1  6
  6  7  2  0
  9  8  1  0
 10  9  1  0
 10 11  1  6
 12 10  1  0
 13  6  1  0
 12 13  1  1
 14 15  2  0
 14 12  1  0
 16 17  1  0
 17 18  2  0
 19 17  1  0
 19 20  1  0
 21 20  1  6
 21 22  1  0
 22 14  1  0
 23 21  1  0
 23 25  1  0
 24 23  2  0
M  END
$$$$
