VIQ.pdb
     RDKit          3D

 25 24  0  0  1  0  0  0  0  0999 V2000
    7.7334  -12.4520   20.5849 C   0  0  0  0  0  0  0  0  0  0  0  0
    8.3070  -13.7032   19.9845 C   0  0  2  0  0  0  0  0  0  0  0  0
    7.5902  -14.0248   18.7059 C   0  0  0  0  0  0  0  0  0  0  0  0
    8.3182  -14.8709   20.9345 C   0  0  2  0  0  0  0  0  0  0  0  0
    6.9454  -15.3162   21.0873 N   0  0  0  0  0  0  0  0  0  0  0  0
    8.9112  -14.5212   22.2519 C   0  0  0  0  0  0  0  0  0  0  0  0
   10.0900  -14.1541   22.3937 O   0  0  0  0  0  0  0  0  0  0  0  0
    6.8611  -11.7906   27.1257 C   0  0  0  0  0  0  0  0  0  0  0  0
    7.9828  -12.7623   26.7072 C   0  0  0  0  0  0  0  0  0  0  0  0
    7.5808  -13.3836   25.4058 C   0  0  2  0  0  0  0  0  0  0  0  0
    6.2493  -14.0823   25.5939 C   0  0  0  0  0  0  0  0  0  0  0  0
    8.6220  -14.2546   24.7582 C   0  0  2  0  0  0  0  0  0  0  0  0
    8.0999  -14.6067   23.4149 N   0  0  0  0  0  0  0  0  0  0  0  0
    8.8316  -15.5118   25.4947 C   0  0  0  0  0  0  0  0  0  0  0  0
    7.8769  -16.3338   25.5892 O   0  0  0  0  0  0  0  0  0  0  0  0
   12.3694  -20.2084   23.8799 N   0  0  0  0  0  0  0  0  0  0  0  0
   12.4426  -18.8493   24.2622 C   0  0  0  0  0  0  0  0  0  0  0  0
   13.5346  -18.2500   24.1674 O   0  0  0  0  0  0  0  0  0  0  0  0
   11.2630  -18.1217   24.7698 C   0  0  0  0  0  0  0  0  0  0  0  0
   11.3420  -17.9806   26.2771 C   0  0  0  0  0  0  0  0  0  0  0  0
   10.1597  -17.1973   26.8134 C   0  0  2  0  0  0  0  0  0  0  0  0
   10.0360  -15.9145   26.1293 N   0  0  0  0  0  0  0  0  0  0  0  0
   10.3897  -17.0294   28.2645 C   0  0  0  0  0  0  0  0  0  0  0  0
   10.5315  -15.9010   28.7667 O   0  0  0  0  0  0  0  0  0  0  0  0
   10.4443  -18.1611   29.0591 O   0  0  0  0  0  0  0  0  0  0  0  0
  2  1  1  1
  2  3  1  0
  4  2  1  0
  4  6  1  0
  4  5  1  1
  6  7  2  0
  9  8  1  0
 10  9  1  0
 10 11  1  1
 12 10  1  0
 13  6  1  0
 12 13  1  6
 14 15  2  0
 14 12  1  0
 16 17  1  0
 17 18  2  0
 19 17  1  0
 19 20  1  0
 21 20  1  6
 21 22  1  0
 22 14  1  0
 23 21  1  0
 23 25  1  0
 24 23  2  0
M  END
$$$$
