VIQ.pdb
     RDKit          3D

 25 24  0  0  1  0  0  0  0  0999 V2000
    8.3531  -17.6310   21.8003 C   0  0  0  0  0  0  0  0  0  0  0  0
    7.0023  -16.9763   21.7578 C   0  0  2  0  0  0  0  0  0  0  0  0
    6.2049  -17.5364   20.6164 C   0  0  0  0  0  0  0  0  0  0  0  0
    7.0681  -15.4730   21.7164 C   0  0  2  0  0  0  0  0  0  0  0  0
    7.5482  -15.0980   20.3991 N   0  0  0  0  0  0  0  0  0  0  0  0
    7.9469  -14.9169   22.7784 C   0  0  0  0  0  0  0  0  0  0  0  0
    9.1346  -14.6051   22.5872 O   0  0  0  0  0  0  0  0  0  0  0  0
    5.8614  -11.6911   26.6907 C   0  0  0  0  0  0  0  0  0  0  0  0
    6.8376  -12.2526   25.6374 C   0  0  0  0  0  0  0  0  0  0  0  0
    7.3753  -13.5470   26.1634 C   0  0  2  0  0  0  0  0  0  0  0  0
    8.0123  -13.2929   27.5148 C   0  0  0  0  0  0  0  0  0  0  0  0
    8.2674  -14.3057   25.2197 C   0  0  2  0  0  0  0  0  0  0  0  0
    7.4143  -14.7277   24.0817 N   0  0  0  0  0  0  0  0  0  0  0  0
    8.8190  -15.5241   25.8346 C   0  0  0  0  0  0  0  0  0  0  0  0
    8.0302  -16.3491   26.3758 O   0  0  0  0  0  0  0  0  0  0  0  0
   14.4744  -18.1291   24.9046 N   0  0  0  0  0  0  0  0  0  0  0  0
   13.3796  -18.0246   24.0163 C   0  0  0  0  0  0  0  0  0  0  0  0
   13.5574  -18.2627   22.8030 O   0  0  0  0  0  0  0  0  0  0  0  0
   12.0336  -17.6419   24.4859 C   0  0  0  0  0  0  0  0  0  0  0  0
   12.0238  -17.5052   25.9957 C   0  0  0  0  0  0  0  0  0  0  0  0
   10.6445  -17.1271   26.4992 C   0  0  2  0  0  0  0  0  0  0  0  0
   10.1912  -15.8850   25.8823 N   0  0  0  0  0  0  0  0  0  0  0  0
   10.7517  -17.0066   27.9692 C   0  0  0  0  0  0  0  0  0  0  0  0
   10.5461  -15.9227   28.5422 O   0  0  0  0  0  0  0  0  0  0  0  0
   11.0878  -18.1324   28.7006 O   0  0  0  0  0  0  0  0  0  0  0  0
  2  1  1  6
  2  3  1  0
  4  2  1  0
  4  6  1  0
  4  5  1  6
  6  7  2  0
  9  8  1  0
 10  9  1  0
 10 11  1  1
 12 10  1  0
 13  6  1  0
 12 13  1  6
 14 15  2  0
 14 12  1  0
 16 17  1  0
 17 18  2  0
 19 17  1  0
 19 20  1  0
 21 20  1  6
 21 22  1  0
 22 14  1  0
 23 21  1  0
 23 25  1  0
 24 23  2  0
M  END
$$$$
