YVS.pdb
     RDKit          3D

 26 26  0  0  1  0  0  0  0  0999 V2000
   10.2201  -14.1523   30.4399 O   0  0  0  0  0  0  0  0  0  0  0  0
   10.0013  -14.4303   29.0972 C   0  0  0  0  0  0  0  0  0  0  0  0
   10.2867  -15.6884   28.5921 C   0  0  0  0  0  0  0  0  0  0  0  0
   10.0883  -16.0088   27.2789 C   0  0  0  0  0  0  0  0  0  0  0  0
    9.5845  -15.0769   26.3752 C   0  0  0  0  0  0  0  0  0  0  0  0
    9.3516  -15.3674   24.9685 C   0  0  0  0  0  0  0  0  0  0  0  0
    7.9056  -15.4874   24.5616 C   0  0  2  0  0  0  0  0  0  0  0  0
    7.2207  -16.5019   25.3545 N   0  0  0  0  0  0  0  0  0  0  0  0
    7.7124  -15.7960   23.1267 C   0  0  0  0  0  0  0  0  0  0  0  0
    7.3661  -16.9775   22.7807 O   0  0  0  0  0  0  0  0  0  0  0  0
    9.2981  -13.8248   26.8681 C   0  0  0  0  0  0  0  0  0  0  0  0
    9.5015  -13.4963   28.2145 C   0  0  0  0  0  0  0  0  0  0  0  0
    8.6948  -12.9867   20.0331 C   0  0  0  0  0  0  0  0  0  0  0  0
    7.5737  -13.9700   19.9158 C   0  0  2  0  0  0  0  0  0  0  0  0
    6.3231  -13.2984   20.4628 C   0  0  0  0  0  0  0  0  0  0  0  0
    7.8420  -15.2795   20.6488 C   0  0  2  0  0  0  0  0  0  0  0  0
    7.8772  -14.8822   22.0787 N   0  0  0  0  0  0  0  0  0  0  0  0
    9.0967  -15.9251   20.2702 C   0  0  0  0  0  0  0  0  0  0  0  0
   10.2096  -15.5751   20.8060 O   0  0  0  0  0  0  0  0  0  0  0  0
    9.4080  -19.7011   19.4275 O   0  0  0  0  0  0  0  0  0  0  0  0
   10.5659  -18.9596   19.6460 C   0  0  0  0  0  0  0  0  0  0  0  0
   10.4680  -17.5880   19.0105 C   0  0  2  0  0  0  0  0  0  0  0  0
    9.1847  -16.9632   19.3102 N   0  0  0  0  0  0  0  0  0  0  0  0
   10.7033  -17.6617   17.5499 C   0  0  0  0  0  0  0  0  0  0  0  0
   11.8634  -18.2103   17.0523 O   0  0  0  0  0  0  0  0  0  0  0  0
    9.8486  -17.2252   16.7422 O   0  0  0  0  0  0  0  0  0  0  0  0
  2  3  2  0
  2  1  1  0
  4  3  1  0
  5  4  2  0
  6  5  1  0
  7  6  1  0
  7  9  1  0
  7  8  1  1
  9 17  1  0
  9 10  2  0
 11  5  1  0
 11 12  2  0
 12  2  1  0
 14 13  1  1
 14 15  1  0
 16 14  1  0
 16 17  1  1
 18 16  1  0
 18 19  2  0
 20 21  1  0
 22 21  1  6
 22 23  1  0
 23 18  1  0
 24 22  1  0
 25 24  1  0
 26 24  2  0
M  END
$$$$
