YVS.pdb
     RDKit          3D

 26 26  0  0  1  0  0  0  0  0999 V2000
    7.3218  -14.0681   15.6126 O   0  0  0  0  0  0  0  0  0  0  0  0
    7.7119  -14.0016   16.9435 C   0  0  0  0  0  0  0  0  0  0  0  0
    7.4121  -12.8808   17.7008 C   0  0  0  0  0  0  0  0  0  0  0  0
    7.7749  -12.7696   19.0132 C   0  0  0  0  0  0  0  0  0  0  0  0
    8.4707  -13.7876   19.6600 C   0  0  0  0  0  0  0  0  0  0  0  0
    8.8775  -13.7210   21.0555 C   0  0  0  0  0  0  0  0  0  0  0  0
    8.4774  -14.8996   21.9049 C   0  0  2  0  0  0  0  0  0  0  0  0
    7.0370  -15.1207   21.8491 N   0  0  0  0  0  0  0  0  0  0  0  0
    8.8848  -14.7797   23.3231 C   0  0  0  0  0  0  0  0  0  0  0  0
   10.1114  -14.5538   23.6059 O   0  0  0  0  0  0  0  0  0  0  0  0
    8.7726  -14.9045   18.9156 C   0  0  0  0  0  0  0  0  0  0  0  0
    8.4007  -15.0186   17.5700 C   0  0  0  0  0  0  0  0  0  0  0  0
    6.0802  -14.2358   26.2886 C   0  0  0  0  0  0  0  0  0  0  0  0
    7.5126  -13.8521   26.4840 C   0  0  2  0  0  0  0  0  0  0  0  0
    7.6871  -12.4503   25.9195 C   0  0  0  0  0  0  0  0  0  0  0  0
    8.4904  -14.8194   25.8263 C   0  0  2  0  0  0  0  0  0  0  0  0
    8.0215  -14.8921   24.4197 N   0  0  0  0  0  0  0  0  0  0  0  0
    8.5022  -16.1511   26.4271 C   0  0  0  0  0  0  0  0  0  0  0  0
    7.4084  -16.7756   26.6748 O   0  0  0  0  0  0  0  0  0  0  0  0
   10.3631  -18.9209   25.2869 O   0  0  0  0  0  0  0  0  0  0  0  0
   10.3909  -19.1886   26.6529 C   0  0  0  0  0  0  0  0  0  0  0  0
    9.6227  -18.1420   27.4335 C   0  0  2  0  0  0  0  0  0  0  0  0
    9.6888  -16.8437   26.7725 N   0  0  0  0  0  0  0  0  0  0  0  0
   10.1072  -18.0605   28.8308 C   0  0  0  0  0  0  0  0  0  0  0  0
   10.1214  -19.1772   29.6355 O   0  0  0  0  0  0  0  0  0  0  0  0
   10.5127  -16.9719   29.3041 O   0  0  0  0  0  0  0  0  0  0  0  0
  2  3  2  0
  2  1  1  0
  4  3  1  0
  5  4  2  0
  6  5  1  0
  7  6  1  0
  7  9  1  0
  7  8  1  1
  9 17  1  0
  9 10  2  0
 11  5  1  0
 11 12  2  0
 12  2  1  0
 14 13  1  6
 14 15  1  0
 16 14  1  0
 16 17  1  6
 18 16  1  0
 18 19  2  0
 20 21  1  0
 22 21  1  6
 22 23  1  0
 23 18  1  0
 24 22  1  0
 25 24  1  0
 26 24  2  0
M  END
$$$$
