YVS.pdb
     RDKit          3D

 26 26  0  0  1  0  0  0  0  0999 V2000
   10.7911  -14.5760   30.4198 O   0  0  0  0  0  0  0  0  0  0  0  0
   10.0970  -14.6320   29.2186 C   0  0  0  0  0  0  0  0  0  0  0  0
    9.7180  -15.8557   28.6909 C   0  0  0  0  0  0  0  0  0  0  0  0
    9.0343  -15.9611   27.5129 C   0  0  0  0  0  0  0  0  0  0  0  0
    8.6816  -14.8324   26.7778 C   0  0  0  0  0  0  0  0  0  0  0  0
    7.9514  -14.8890   25.5204 C   0  0  0  0  0  0  0  0  0  0  0  0
    8.6606  -15.5881   24.3894 C   0  0  2  0  0  0  0  0  0  0  0  0
   10.0023  -15.0491   24.1995 N   0  0  0  0  0  0  0  0  0  0  0  0
    7.9363  -15.5242   23.0998 C   0  0  0  0  0  0  0  0  0  0  0  0
    6.6969  -15.8371   23.0609 O   0  0  0  0  0  0  0  0  0  0  0  0
    9.0538  -13.6128   27.2943 C   0  0  0  0  0  0  0  0  0  0  0  0
    9.7549  -13.5047   28.5022 C   0  0  0  0  0  0  0  0  0  0  0  0
    9.1420  -13.2544   19.8530 C   0  0  0  0  0  0  0  0  0  0  0  0
    7.7718  -13.8200   20.0529 C   0  0  2  0  0  0  0  0  0  0  0  0
    7.0366  -12.8974   21.0134 C   0  0  0  0  0  0  0  0  0  0  0  0
    7.7817  -15.2486   20.5852 C   0  0  2  0  0  0  0  0  0  0  0  0
    8.5017  -15.1377   21.8786 N   0  0  0  0  0  0  0  0  0  0  0  0
    8.4559  -16.2036   19.7090 C   0  0  0  0  0  0  0  0  0  0  0  0
    9.7330  -16.3332   19.7288 O   0  0  0  0  0  0  0  0  0  0  0  0
    6.9398  -19.6943   18.7215 O   0  0  0  0  0  0  0  0  0  0  0  0
    7.6148  -19.1859   17.6150 C   0  0  0  0  0  0  0  0  0  0  0  0
    8.5070  -18.0243   18.0018 C   0  0  2  0  0  0  0  0  0  0  0  0
    7.7742  -17.0434   18.7941 N   0  0  0  0  0  0  0  0  0  0  0  0
    9.1172  -17.4021   16.8041 C   0  0  0  0  0  0  0  0  0  0  0  0
    9.9447  -18.1297   15.9792 O   0  0  0  0  0  0  0  0  0  0  0  0
    8.8898  -16.2013   16.5218 O   0  0  0  0  0  0  0  0  0  0  0  0
  2  3  2  0
  2  1  1  0
  4  3  1  0
  5  4  2  0
  6  5  1  0
  7  6  1  0
  7  9  1  0
  7  8  1  6
  9 17  1  0
  9 10  2  0
 11  5  1  0
 11 12  2  0
 12  2  1  0
 14 13  1  1
 14 15  1  0
 16 14  1  0
 16 17  1  1
 18 16  1  0
 18 19  2  0
 20 21  1  0
 22 21  1  6
 22 23  1  0
 23 18  1  0
 24 22  1  0
 25 24  1  0
 26 24  2  0
M  END
$$$$
