YVS.pdb
     RDKit          3D

 26 26  0  0  1  0  0  0  0  0999 V2000
    6.8807  -22.8259   13.8873 O   0  0  0  0  0  0  0  0  0  0  0  0
    7.3247  -21.8918   14.8138 C   0  0  0  0  0  0  0  0  0  0  0  0
    6.4755  -20.8882   15.2509 C   0  0  0  0  0  0  0  0  0  0  0  0
    6.8668  -19.9472   16.1607 C   0  0  0  0  0  0  0  0  0  0  0  0
    8.1513  -19.9511   16.6983 C   0  0  0  0  0  0  0  0  0  0  0  0
    8.6172  -18.9749   17.6717 C   0  0  0  0  0  0  0  0  0  0  0  0
    8.6159  -17.5420   17.2051 C   0  0  2  0  0  0  0  0  0  0  0  0
    9.4622  -17.3731   16.0294 N   0  0  0  0  0  0  0  0  0  0  0  0
    9.0447  -16.5759   18.2415 C   0  0  0  0  0  0  0  0  0  0  0  0
   10.2908  -16.4413   18.4957 O   0  0  0  0  0  0  0  0  0  0  0  0
    9.0015  -20.9443   16.2699 C   0  0  0  0  0  0  0  0  0  0  0  0
    8.6003  -21.9091   15.3371 C   0  0  0  0  0  0  0  0  0  0  0  0
    7.3629  -13.0677   18.7658 C   0  0  0  0  0  0  0  0  0  0  0  0
    7.5767  -13.7533   20.0779 C   0  0  2  0  0  0  0  0  0  0  0  0
    7.9266  -12.6802   21.0979 C   0  0  0  0  0  0  0  0  0  0  0  0
    8.6642  -14.8206   20.0296 C   0  0  2  0  0  0  0  0  0  0  0  0
    8.1829  -15.7673   18.9925 N   0  0  0  0  0  0  0  0  0  0  0  0
    8.8687  -15.5173   21.2974 C   0  0  0  0  0  0  0  0  0  0  0  0
    8.1271  -16.5093   21.6350 O   0  0  0  0  0  0  0  0  0  0  0  0
   11.0540  -18.5350   23.1221 O   0  0  0  0  0  0  0  0  0  0  0  0
   10.3700  -17.5610   22.3998 C   0  0  0  0  0  0  0  0  0  0  0  0
   10.5344  -16.1932   23.0297 C   0  0  2  0  0  0  0  0  0  0  0  0
    9.8758  -15.1666   22.2301 N   0  0  0  0  0  0  0  0  0  0  0  0
   11.9655  -15.8751   23.2418 C   0  0  0  0  0  0  0  0  0  0  0  0
   12.7136  -15.3016   22.2389 O   0  0  0  0  0  0  0  0  0  0  0  0
   12.5193  -16.1234   24.3396 O   0  0  0  0  0  0  0  0  0  0  0  0
  2  3  2  0
  2  1  1  0
  4  3  1  0
  5  4  2  0
  6  5  1  0
  7  6  1  0
  7  9  1  0
  7  8  1  6
  9 17  1  0
  9 10  2  0
 11  5  1  0
 11 12  2  0
 12  2  1  0
 14 13  1  6
 14 15  1  0
 16 14  1  0
 16 17  1  6
 18 16  1  0
 18 19  2  0
 20 21  1  0
 22 21  1  6
 22 23  1  0
 23 18  1  0
 24 22  1  0
 25 24  1  0
 26 24  2  0
M  END
$$$$
