YVS.pdb
     RDKit          3D

 26 26  0  0  1  0  0  0  0  0999 V2000
    2.8655  -21.7629   16.1330 O   0  0  0  0  0  0  0  0  0  0  0  0
    3.8496  -20.9937   16.7395 C   0  0  0  0  0  0  0  0  0  0  0  0
    5.1876  -21.2895   16.5355 C   0  0  0  0  0  0  0  0  0  0  0  0
    6.1908  -20.5620   17.1105 C   0  0  0  0  0  0  0  0  0  0  0  0
    5.9144  -19.4768   17.9380 C   0  0  0  0  0  0  0  0  0  0  0  0
    6.9445  -18.6677   18.5719 C   0  0  0  0  0  0  0  0  0  0  0  0
    7.2113  -17.3333   17.9245 C   0  0  2  0  0  0  0  0  0  0  0  0
    7.6272  -17.4983   16.5364 N   0  0  0  0  0  0  0  0  0  0  0  0
    8.2260  -16.5189   18.6306 C   0  0  0  0  0  0  0  0  0  0  0  0
    9.4637  -16.6807   18.3523 O   0  0  0  0  0  0  0  0  0  0  0  0
    4.5882  -19.1757   18.1463 C   0  0  0  0  0  0  0  0  0  0  0  0
    3.5596  -19.9216   17.5567 C   0  0  0  0  0  0  0  0  0  0  0  0
    7.1556  -13.6291   21.5769 C   0  0  0  0  0  0  0  0  0  0  0  0
    8.3633  -13.4994   20.7040 C   0  0  2  0  0  0  0  0  0  0  0  0
    7.9315  -12.7743   19.4383 C   0  0  0  0  0  0  0  0  0  0  0  0
    9.0051  -14.8390   20.3609 C   0  0  2  0  0  0  0  0  0  0  0  0
    7.9459  -15.5540   19.6058 N   0  0  0  0  0  0  0  0  0  0  0  0
    9.4111  -15.6187   21.5278 C   0  0  0  0  0  0  0  0  0  0  0  0
    8.5446  -16.2377   22.2448 O   0  0  0  0  0  0  0  0  0  0  0  0
   11.9834  -18.2569   21.4458 O   0  0  0  0  0  0  0  0  0  0  0  0
   11.1225  -18.1069   22.5297 C   0  0  0  0  0  0  0  0  0  0  0  0
   11.1068  -16.6752   23.0247 C   0  0  2  0  0  0  0  0  0  0  0  0
   10.7568  -15.7540   21.9496 N   0  0  0  0  0  0  0  0  0  0  0  0
   12.4030  -16.3134   23.6435 C   0  0  0  0  0  0  0  0  0  0  0  0
   12.8467  -16.9614   24.7739 O   0  0  0  0  0  0  0  0  0  0  0  0
   13.1180  -15.4101   23.1472 O   0  0  0  0  0  0  0  0  0  0  0  0
  2  3  2  0
  2  1  1  0
  4  3  1  0
  5  4  2  0
  6  5  1  0
  7  6  1  0
  7  9  1  0
  7  8  1  6
  9 17  1  0
  9 10  2  0
 11  5  1  0
 11 12  2  0
 12  2  1  0
 14 13  1  1
 14 15  1  0
 16 14  1  0
 16 17  1  1
 18 16  1  0
 18 19  2  0
 20 21  1  0
 22 21  1  6
 22 23  1  0
 23 18  1  0
 24 22  1  0
 25 24  1  0
 26 24  2  0
M  END
$$$$
