YVS.pdb
     RDKit          3D

 26 26  0  0  1  0  0  0  0  0999 V2000
   10.5927  -14.3347   31.1573 O   0  0  0  0  0  0  0  0  0  0  0  0
   10.3614  -14.6822   29.8331 C   0  0  0  0  0  0  0  0  0  0  0  0
    9.9706  -13.7172   28.9191 C   0  0  0  0  0  0  0  0  0  0  0  0
    9.7315  -14.0109   27.6064 C   0  0  0  0  0  0  0  0  0  0  0  0
    9.8705  -15.3076   27.1185 C   0  0  0  0  0  0  0  0  0  0  0  0
    9.6316  -15.6730   25.7304 C   0  0  0  0  0  0  0  0  0  0  0  0
    8.1902  -15.6469   25.2915 C   0  0  2  0  0  0  0  0  0  0  0  0
    7.4014  -16.6300   26.0252 N   0  0  0  0  0  0  0  0  0  0  0  0
    8.0032  -15.8751   23.8409 C   0  0  0  0  0  0  0  0  0  0  0  0
    7.6377  -17.0298   23.4301 O   0  0  0  0  0  0  0  0  0  0  0  0
   10.2584  -16.2725   28.0192 C   0  0  0  0  0  0  0  0  0  0  0  0
   10.5035  -15.9714   29.3651 C   0  0  0  0  0  0  0  0  0  0  0  0
    6.6327  -13.1931   21.2703 C   0  0  0  0  0  0  0  0  0  0  0  0
    7.8585  -13.8702   20.7447 C   0  0  2  0  0  0  0  0  0  0  0  0
    7.6811  -14.0254   19.2419 C   0  0  0  0  0  0  0  0  0  0  0  0
    8.1247  -15.2233   21.3947 C   0  0  2  0  0  0  0  0  0  0  0  0
    8.1937  -14.9104   22.8442 N   0  0  0  0  0  0  0  0  0  0  0  0
    9.3632  -15.8603   20.9534 C   0  0  0  0  0  0  0  0  0  0  0  0
   10.5016  -15.2987   21.1450 O   0  0  0  0  0  0  0  0  0  0  0  0
    9.6022  -19.8400   19.9920 O   0  0  0  0  0  0  0  0  0  0  0  0
   10.7693  -19.1537   20.3160 C   0  0  0  0  0  0  0  0  0  0  0  0
   10.6842  -17.6991   19.9016 C   0  0  2  0  0  0  0  0  0  0  0  0
    9.4078  -17.1160   20.2989 N   0  0  0  0  0  0  0  0  0  0  0  0
   10.9162  -17.5473   18.4466 C   0  0  0  0  0  0  0  0  0  0  0  0
    9.9783  -16.9360   17.6459 O   0  0  0  0  0  0  0  0  0  0  0  0
   11.9719  -17.9736   17.9200 O   0  0  0  0  0  0  0  0  0  0  0  0
  2  3  2  0
  2  1  1  0
  4  3  1  0
  5  4  2  0
  6  5  1  0
  7  6  1  0
  7  9  1  0
  7  8  1  1
  9 17  1  0
  9 10  2  0
 11  5  1  0
 11 12  2  0
 12  2  1  0
 14 13  1  1
 14 15  1  0
 16 14  1  0
 16 17  1  1
 18 16  1  0
 18 19  2  0
 20 21  1  0
 22 21  1  6
 22 23  1  0
 23 18  1  0
 24 22  1  0
 25 24  1  0
 26 24  2  0
M  END
$$$$
