YVS.pdb
     RDKit          3D

 26 26  0  0  1  0  0  0  0  0999 V2000
   10.5335  -13.9729   30.4896 O   0  0  0  0  0  0  0  0  0  0  0  0
   10.3156  -14.3102   29.1604 C   0  0  0  0  0  0  0  0  0  0  0  0
   10.6297  -15.5803   28.7048 C   0  0  0  0  0  0  0  0  0  0  0  0
   10.4334  -15.9583   27.4068 C   0  0  0  0  0  0  0  0  0  0  0  0
    9.9025  -15.0764   26.4690 C   0  0  0  0  0  0  0  0  0  0  0  0
    9.6706  -15.4291   25.0765 C   0  0  0  0  0  0  0  0  0  0  0  0
    8.2262  -15.4646   24.6482 C   0  0  2  0  0  0  0  0  0  0  0  0
    7.4575  -16.3888   25.4739 N   0  0  0  0  0  0  0  0  0  0  0  0
    8.0337  -15.8261   23.2256 C   0  0  0  0  0  0  0  0  0  0  0  0
    7.8472  -17.0514   22.9100 O   0  0  0  0  0  0  0  0  0  0  0  0
    9.5876  -13.8128   26.9126 C   0  0  0  0  0  0  0  0  0  0  0  0
    9.7889  -13.4252   28.2435 C   0  0  0  0  0  0  0  0  0  0  0  0
    8.5714  -13.0002   20.0484 C   0  0  0  0  0  0  0  0  0  0  0  0
    7.5307  -14.0738   20.0062 C   0  0  2  0  0  0  0  0  0  0  0  0
    6.2608  -13.4977   20.6141 C   0  0  0  0  0  0  0  0  0  0  0  0
    7.9462  -15.3444   20.7389 C   0  0  2  0  0  0  0  0  0  0  0  0
    8.0346  -14.9196   22.1585 N   0  0  0  0  0  0  0  0  0  0  0  0
    9.2238  -15.8955   20.2934 C   0  0  0  0  0  0  0  0  0  0  0  0
   10.3326  -15.3203   20.5897 O   0  0  0  0  0  0  0  0  0  0  0  0
    9.6149  -19.7674   19.3495 O   0  0  0  0  0  0  0  0  0  0  0  0
   10.7843  -19.0566   19.6053 C   0  0  0  0  0  0  0  0  0  0  0  0
   10.6531  -17.6099   19.1752 C   0  0  2  0  0  0  0  0  0  0  0  0
    9.3401  -17.0783   19.5223 N   0  0  0  0  0  0  0  0  0  0  0  0
   10.9299  -17.4593   17.7279 C   0  0  0  0  0  0  0  0  0  0  0  0
   12.1052  -17.9270   17.1853 O   0  0  0  0  0  0  0  0  0  0  0  0
   10.0973  -16.9027   16.9727 O   0  0  0  0  0  0  0  0  0  0  0  0
  2  3  2  0
  2  1  1  0
  4  3  1  0
  5  4  2  0
  6  5  1  0
  7  6  1  0
  7  9  1  0
  7  8  1  1
  9 17  1  0
  9 10  2  0
 11  5  1  0
 11 12  2  0
 12  2  1  0
 14 13  1  1
 14 15  1  0
 16 14  1  0
 16 17  1  1
 18 16  1  0
 18 19  2  0
 20 21  1  0
 22 21  1  6
 22 23  1  0
 23 18  1  0
 24 22  1  0
 25 24  1  0
 26 24  2  0
M  END
$$$$
