GVQ.pdb
     RDKit          3D

 21 20  0  0  1  0  0  0  0  0999 V2000
    5.7416  -18.9578   19.3074 N   0  0  0  0  0  0  0  0  0  0  0  0
    5.3881  -17.8035   20.1039 C   0  0  0  0  0  0  0  0  0  0  0  0
    6.5762  -16.9710   20.4251 C   0  0  0  0  0  0  0  0  0  0  0  0
    7.6961  -17.5411   20.4497 O   0  0  0  0  0  0  0  0  0  0  0  0
    7.3389  -13.0546   19.4337 C   0  0  0  0  0  0  0  0  0  0  0  0
    7.4042  -13.3236   20.9028 C   0  0  2  0  0  0  0  0  0  0  0  0
    8.4716  -12.5139   21.5998 C   0  0  0  0  0  0  0  0  0  0  0  0
    7.5621  -14.7946   21.2195 C   0  0  2  0  0  0  0  0  0  0  0  0
    6.4647  -15.5796   20.6968 N   0  0  0  0  0  0  0  0  0  0  0  0
    7.6329  -14.9703   22.6999 C   0  0  0  0  0  0  0  0  0  0  0  0
    6.5671  -14.8499   23.3442 O   0  0  0  0  0  0  0  0  0  0  0  0
    7.1093  -19.7661   27.2392 N   0  0  0  0  0  0  0  0  0  0  0  0
    7.5252  -19.2057   26.0018 C   0  0  0  0  0  0  0  0  0  0  0  0
    7.3670  -19.8727   24.9566 O   0  0  0  0  0  0  0  0  0  0  0  0
    8.1277  -17.8630   25.9929 C   0  0  0  0  0  0  0  0  0  0  0  0
    8.1555  -17.1720   24.6794 C   0  0  0  0  0  0  0  0  0  0  0  0
    8.8794  -15.8760   24.6976 C   0  0  2  0  0  0  0  0  0  0  0  0
    8.8540  -15.2623   23.3613 N   0  0  0  0  0  0  0  0  0  0  0  0
   10.2754  -16.0034   25.1195 C   0  0  0  0  0  0  0  0  0  0  0  0
   11.1915  -15.9958   24.2609 O   0  0  0  0  0  0  0  0  0  0  0  0
   10.6737  -16.1345   26.4387 O   0  0  0  0  0  0  0  0  0  0  0  0
  1  2  1  0
  3  2  1  0
  3  4  2  0
  6  5  1  6
  6  8  1  0
  7  6  1  0
  8  9  1  1
  8 10  1  0
  9  3  1  0
 10 11  2  0
 13 14  2  0
 13 12  1  0
 15 13  1  0
 16 15  1  0
 17 16  1  6
 18 10  1  0
 18 17  1  0
 19 21  1  0
 19 17  1  0
 20 19  2  0
M  END
$$$$
