GVQ.pdb
     RDKit          3D

 21 20  0  0  1  0  0  0  0  0999 V2000
    4.7779  -18.0221   22.9944 N   0  0  0  0  0  0  0  0  0  0  0  0
    4.6245  -17.1177   24.1126 C   0  0  0  0  0  0  0  0  0  0  0  0
    5.8076  -16.2331   24.2720 C   0  0  0  0  0  0  0  0  0  0  0  0
    6.7675  -16.3971   23.4773 O   0  0  0  0  0  0  0  0  0  0  0  0
    5.7128  -12.4087   25.9195 C   0  0  0  0  0  0  0  0  0  0  0  0
    6.7893  -13.2927   26.4624 C   0  0  2  0  0  0  0  0  0  0  0  0
    8.0663  -12.5443   26.7618 C   0  0  0  0  0  0  0  0  0  0  0  0
    7.0683  -14.4845   25.5732 C   0  0  2  0  0  0  0  0  0  0  0  0
    5.8651  -15.2337   25.2821 N   0  0  0  0  0  0  0  0  0  0  0  0
    8.0540  -15.3779   26.2495 C   0  0  0  0  0  0  0  0  0  0  0  0
    7.6509  -16.0371   27.2337 O   0  0  0  0  0  0  0  0  0  0  0  0
    9.9571  -20.9365   26.8230 N   0  0  0  0  0  0  0  0  0  0  0  0
    8.8309  -20.1174   26.5422 C   0  0  0  0  0  0  0  0  0  0  0  0
    7.7864  -20.6568   26.1175 O   0  0  0  0  0  0  0  0  0  0  0  0
    8.9325  -18.6654   26.7591 C   0  0  0  0  0  0  0  0  0  0  0  0
    9.6148  -17.8948   25.6895 C   0  0  0  0  0  0  0  0  0  0  0  0
   10.2402  -16.6343   26.1628 C   0  0  2  0  0  0  0  0  0  0  0  0
    9.3971  -15.4839   25.8037 N   0  0  0  0  0  0  0  0  0  0  0  0
   11.5784  -16.4144   25.6117 C   0  0  0  0  0  0  0  0  0  0  0  0
   11.7393  -15.6084   24.6624 O   0  0  0  0  0  0  0  0  0  0  0  0
   12.7176  -17.0490   26.0757 O   0  0  0  0  0  0  0  0  0  0  0  0
  1  2  1  0
  3  2  1  0
  3  4  2  0
  6  5  1  6
  6  8  1  0
  7  6  1  0
  8  9  1  1
  8 10  1  0
  9  3  1  0
 10 11  2  0
 13 14  2  0
 13 12  1  0
 15 13  1  0
 16 15  1  0
 17 16  1  6
 18 10  1  0
 18 17  1  0
 19 21  1  0
 19 17  1  0
 20 19  2  0
M  END
$$$$
