GVQ.pdb
     RDKit          3D

 21 20  0  0  1  0  0  0  0  0999 V2000
    4.1859  -18.8150   20.3723 N   0  0  0  0  0  0  0  0  0  0  0  0
    4.2038  -17.4559   20.8665 C   0  0  0  0  0  0  0  0  0  0  0  0
    5.5890  -16.9323   20.9888 C   0  0  0  0  0  0  0  0  0  0  0  0
    6.5331  -17.7555   20.8833 O   0  0  0  0  0  0  0  0  0  0  0  0
    6.6857  -13.2177   19.6806 C   0  0  0  0  0  0  0  0  0  0  0  0
    7.2428  -13.5425   21.0293 C   0  0  2  0  0  0  0  0  0  0  0  0
    8.6403  -13.0067   21.2305 C   0  0  0  0  0  0  0  0  0  0  0  0
    7.1917  -15.0223   21.3399 C   0  0  2  0  0  0  0  0  0  0  0  0
    5.8513  -15.5534   21.2167 N   0  0  0  0  0  0  0  0  0  0  0  0
    7.6851  -15.2465   22.7305 C   0  0  0  0  0  0  0  0  0  0  0  0
    6.9370  -14.8933   23.6693 O   0  0  0  0  0  0  0  0  0  0  0  0
    6.9878  -20.1290   25.8535 N   0  0  0  0  0  0  0  0  0  0  0  0
    7.8140  -19.0437   26.2509 C   0  0  0  0  0  0  0  0  0  0  0  0
    8.4902  -19.1547   27.2963 O   0  0  0  0  0  0  0  0  0  0  0  0
    7.8446  -17.8287   25.4212 C   0  0  0  0  0  0  0  0  0  0  0  0
    9.0848  -17.6095   24.6355 C   0  0  0  0  0  0  0  0  0  0  0  0
    9.3739  -16.1805   24.3555 C   0  0  2  0  0  0  0  0  0  0  0  0
    8.9498  -15.8355   22.9902 N   0  0  0  0  0  0  0  0  0  0  0  0
   10.7912  -15.8425   24.4968 C   0  0  0  0  0  0  0  0  0  0  0  0
   11.5317  -15.8148   23.4832 O   0  0  0  0  0  0  0  0  0  0  0  0
   11.3953  -15.5397   25.7048 O   0  0  0  0  0  0  0  0  0  0  0  0
  1  2  1  0
  3  2  1  0
  3  4  2  0
  6  5  1  6
  6  8  1  0
  7  6  1  0
  8  9  1  1
  8 10  1  0
  9  3  1  0
 10 11  2  0
 13 14  2  0
 13 12  1  0
 15 13  1  0
 16 15  1  0
 17 16  1  6
 18 10  1  0
 18 17  1  0
 19 21  1  0
 19 17  1  0
 20 19  2  0
M  END
$$$$
