GVQ.pdb
     RDKit          3D

 21 20  0  0  1  0  0  0  0  0999 V2000
    9.7673  -15.4280   14.3586 N   0  0  0  0  0  0  0  0  0  0  0  0
    8.9661  -15.8897   15.4706 C   0  0  0  0  0  0  0  0  0  0  0  0
    9.4533  -15.3451   16.7643 C   0  0  0  0  0  0  0  0  0  0  0  0
   10.6906  -15.3838   16.9824 O   0  0  0  0  0  0  0  0  0  0  0  0
    7.3501  -12.5145   18.9819 C   0  0  0  0  0  0  0  0  0  0  0  0
    7.9159  -13.6374   19.7907 C   0  0  2  0  0  0  0  0  0  0  0  0
    8.4150  -13.1909   21.1442 C   0  0  0  0  0  0  0  0  0  0  0  0
    8.9933  -14.4016   19.0531 C   0  0  2  0  0  0  0  0  0  0  0  0
    8.5637  -14.7973   17.7292 N   0  0  0  0  0  0  0  0  0  0  0  0
    9.3535  -15.6183   19.8388 C   0  0  0  0  0  0  0  0  0  0  0  0
    9.0304  -16.7280   19.3596 O   0  0  0  0  0  0  0  0  0  0  0  0
   15.9787  -14.8961   20.4047 N   0  0  0  0  0  0  0  0  0  0  0  0
   14.7343  -15.0830   19.7452 C   0  0  0  0  0  0  0  0  0  0  0  0
   14.5425  -14.5110   18.6506 O   0  0  0  0  0  0  0  0  0  0  0  0
   13.7158  -15.9403   20.3724 C   0  0  0  0  0  0  0  0  0  0  0  0
   12.3112  -15.4760   20.2507 C   0  0  0  0  0  0  0  0  0  0  0  0
   11.3927  -16.0712   21.2538 C   0  0  2  0  0  0  0  0  0  0  0  0
   10.0350  -15.5326   21.0806 N   0  0  0  0  0  0  0  0  0  0  0  0
   11.8127  -15.8260   22.6345 C   0  0  0  0  0  0  0  0  0  0  0  0
   12.6564  -16.5826   23.1754 O   0  0  0  0  0  0  0  0  0  0  0  0
   11.3342  -14.7867   23.4134 O   0  0  0  0  0  0  0  0  0  0  0  0
  1  2  1  0
  3  2  1  0
  3  4  2  0
  6  5  1  6
  6  8  1  0
  7  6  1  0
  8  9  1  6
  8 10  1  0
  9  3  1  0
 10 11  2  0
 13 14  2  0
 13 12  1  0
 15 13  1  0
 16 15  1  0
 17 16  1  6
 18 10  1  0
 18 17  1  0
 19 21  1  0
 19 17  1  0
 20 19  2  0
M  END
$$$$
