GVQ.pdb
     RDKit          3D

 21 20  0  0  1  0  0  0  0  0999 V2000
    7.6778  -14.8254   20.5211 N   0  0  0  0  0  0  0  0  0  0  0  0
    6.7094  -14.4130   21.5131 C   0  0  0  0  0  0  0  0  0  0  0  0
    7.3393  -14.1972   22.8414 C   0  0  0  0  0  0  0  0  0  0  0  0
    8.5622  -14.4647   22.9554 O   0  0  0  0  0  0  0  0  0  0  0  0
    6.4901  -11.1776   25.3515 C   0  0  0  0  0  0  0  0  0  0  0  0
    6.5016  -12.4853   26.0759 C   0  0  2  0  0  0  0  0  0  0  0  0
    7.1141  -12.3870   27.4528 C   0  0  0  0  0  0  0  0  0  0  0  0
    7.1630  -13.5876   25.2781 C   0  0  2  0  0  0  0  0  0  0  0  0
    6.5978  -13.7067   23.9514 N   0  0  0  0  0  0  0  0  0  0  0  0
    6.9971  -14.8816   26.0029 C   0  0  0  0  0  0  0  0  0  0  0  0
    5.8285  -15.2663   26.2313 O   0  0  0  0  0  0  0  0  0  0  0  0
    6.0653  -19.7661   24.3241 N   0  0  0  0  0  0  0  0  0  0  0  0
    7.3695  -19.2999   24.0080 C   0  0  0  0  0  0  0  0  0  0  0  0
    7.9267  -19.7283   22.9744 O   0  0  0  0  0  0  0  0  0  0  0  0
    8.0188  -18.3320   24.9066 C   0  0  0  0  0  0  0  0  0  0  0  0
    7.2080  -17.8731   26.0622 C   0  0  0  0  0  0  0  0  0  0  0  0
    7.9469  -16.9941   27.0032 C   0  0  2  0  0  0  0  0  0  0  0  0
    8.1120  -15.6535   26.4212 N   0  0  0  0  0  0  0  0  0  0  0  0
    9.2712  -17.5108   27.3527 C   0  0  0  0  0  0  0  0  0  0  0  0
    9.3747  -18.5945   27.9784 O   0  0  0  0  0  0  0  0  0  0  0  0
   10.4572  -16.8729   27.0326 O   0  0  0  0  0  0  0  0  0  0  0  0
  1  2  1  0
  3  2  1  0
  3  4  2  0
  6  5  1  6
  6  8  1  0
  7  6  1  0
  8  9  1  6
  8 10  1  0
  9  3  1  0
 10 11  2  0
 13 14  2  0
 13 12  1  0
 15 13  1  0
 16 15  1  0
 17 16  1  6
 18 10  1  0
 18 17  1  0
 19 21  1  0
 19 17  1  0
 20 19  2  0
M  END
$$$$
