GVQ.pdb
     RDKit          3D

 21 20  0  0  1  0  0  0  0  0999 V2000
    7.0986  -15.4244   20.5801 N   0  0  0  0  0  0  0  0  0  0  0  0
    6.3597  -14.8020   21.6564 C   0  0  0  0  0  0  0  0  0  0  0  0
    7.2247  -14.5311   22.8338 C   0  0  0  0  0  0  0  0  0  0  0  0
    8.3704  -15.0480   22.8447 O   0  0  0  0  0  0  0  0  0  0  0  0
    8.0727  -11.7740   26.8857 C   0  0  0  0  0  0  0  0  0  0  0  0
    7.1084  -12.2336   25.8398 C   0  0  2  0  0  0  0  0  0  0  0  0
    5.7307  -12.5089   26.3936 C   0  0  0  0  0  0  0  0  0  0  0  0
    7.6169  -13.4282   25.0630 C   0  0  2  0  0  0  0  0  0  0  0  0
    6.7852  -13.7189   23.9152 N   0  0  0  0  0  0  0  0  0  0  0  0
    7.6487  -14.6181   25.9632 C   0  0  0  0  0  0  0  0  0  0  0  0
    6.5723  -14.9594   26.5023 O   0  0  0  0  0  0  0  0  0  0  0  0
    7.3877  -21.3140   25.3346 N   0  0  0  0  0  0  0  0  0  0  0  0
    7.3313  -19.9085   25.1350 C   0  0  0  0  0  0  0  0  0  0  0  0
    6.6585  -19.4637   24.1802 O   0  0  0  0  0  0  0  0  0  0  0  0
    8.0661  -19.0268   26.0561 C   0  0  0  0  0  0  0  0  0  0  0  0
    8.0765  -17.5845   25.7052 C   0  0  0  0  0  0  0  0  0  0  0  0
    8.8221  -16.7370   26.6695 C   0  0  2  0  0  0  0  0  0  0  0  0
    8.8453  -15.3415   26.2057 N   0  0  0  0  0  0  0  0  0  0  0  0
   10.2031  -17.1775   26.8737 C   0  0  0  0  0  0  0  0  0  0  0  0
   11.1441  -16.5680   26.3085 O   0  0  0  0  0  0  0  0  0  0  0  0
   10.5604  -18.2509   27.6713 O   0  0  0  0  0  0  0  0  0  0  0  0
  1  2  1  0
  3  2  1  0
  3  4  2  0
  6  5  1  1
  6  8  1  0
  7  6  1  0
  8  9  1  6
  8 10  1  0
  9  3  1  0
 10 11  2  0
 13 14  2  0
 13 12  1  0
 15 13  1  0
 16 15  1  0
 17 16  1  6
 18 10  1  0
 18 17  1  0
 19 21  1  0
 19 17  1  0
 20 19  2  0
M  END
$$$$
