GVQ.pdb
     RDKit          3D

 21 20  0  0  1  0  0  0  0  0999 V2000
    8.8122  -16.5124   14.7762 N   0  0  0  0  0  0  0  0  0  0  0  0
    8.0672  -16.5124   16.0158 C   0  0  0  0  0  0  0  0  0  0  0  0
    8.7281  -15.6822   17.0558 C   0  0  0  0  0  0  0  0  0  0  0  0
    9.9127  -15.3192   16.8439 O   0  0  0  0  0  0  0  0  0  0  0  0
    6.5137  -13.1275   19.4518 C   0  0  0  0  0  0  0  0  0  0  0  0
    7.6073  -13.8482   20.1725 C   0  0  2  0  0  0  0  0  0  0  0  0
    8.2640  -13.0023   21.2373 C   0  0  0  0  0  0  0  0  0  0  0  0
    8.6462  -14.4200   19.2330 C   0  0  2  0  0  0  0  0  0  0  0  0
    8.0570  -15.3050   18.2515 N   0  0  0  0  0  0  0  0  0  0  0  0
    9.6621  -15.1711   20.0275 C   0  0  0  0  0  0  0  0  0  0  0  0
    9.3896  -16.3520   20.3386 O   0  0  0  0  0  0  0  0  0  0  0  0
   17.0176  -15.1768   19.8199 N   0  0  0  0  0  0  0  0  0  0  0  0
   15.7111  -14.7972   19.4110 C   0  0  0  0  0  0  0  0  0  0  0  0
   15.5889  -13.9429   18.5068 O   0  0  0  0  0  0  0  0  0  0  0  0
   14.5493  -15.4202   20.0651 C   0  0  0  0  0  0  0  0  0  0  0  0
   13.2542  -14.7142   19.8989 C   0  0  0  0  0  0  0  0  0  0  0  0
   12.1151  -15.3805   20.5791 C   0  0  2  0  0  0  0  0  0  0  0  0
   10.8913  -14.5805   20.4201 N   0  0  0  0  0  0  0  0  0  0  0  0
   12.3443  -15.5926   22.0093 C   0  0  0  0  0  0  0  0  0  0  0  0
   13.2024  -16.4273   22.3883 O   0  0  0  0  0  0  0  0  0  0  0  0
   11.6636  -14.9179   23.0079 O   0  0  0  0  0  0  0  0  0  0  0  0
  1  2  1  0
  3  2  1  0
  3  4  2  0
  6  5  1  6
  6  8  1  0
  7  6  1  0
  8  9  1  6
  8 10  1  0
  9  3  1  0
 10 11  2  0
 13 14  2  0
 13 12  1  0
 15 13  1  0
 16 15  1  0
 17 16  1  1
 18 10  1  0
 18 17  1  0
 19 21  1  0
 19 17  1  0
 20 19  2  0
M  END
$$$$
