GVQ.pdb
     RDKit          3D

 21 20  0  0  1  0  0  0  0  0999 V2000
    7.3253  -14.2110   20.3498 N   0  0  0  0  0  0  0  0  0  0  0  0
    6.5546  -14.3665   21.5637 C   0  0  0  0  0  0  0  0  0  0  0  0
    7.3802  -14.1249   22.7752 C   0  0  0  0  0  0  0  0  0  0  0  0
    8.6299  -14.1503   22.6417 O   0  0  0  0  0  0  0  0  0  0  0  0
    6.1634  -11.7244   25.8996 C   0  0  0  0  0  0  0  0  0  0  0  0
    6.7763  -13.0141   26.3421 C   0  0  2  0  0  0  0  0  0  0  0  0
    7.6101  -12.8679   27.5927 C   0  0  0  0  0  0  0  0  0  0  0  0
    7.5753  -13.6856   25.2468 C   0  0  2  0  0  0  0  0  0  0  0  0
    6.7916  -13.8730   24.0449 N   0  0  0  0  0  0  0  0  0  0  0  0
    8.0540  -15.0122   25.7352 C   0  0  0  0  0  0  0  0  0  0  0  0
    7.1863  -15.8732   26.0023 O   0  0  0  0  0  0  0  0  0  0  0  0
   11.7020  -17.4208   21.7913 N   0  0  0  0  0  0  0  0  0  0  0  0
   11.9191  -17.2049   23.1786 C   0  0  0  0  0  0  0  0  0  0  0  0
   13.0802  -16.9666   23.5752 O   0  0  0  0  0  0  0  0  0  0  0  0
   10.7727  -17.2703   24.0991 C   0  0  0  0  0  0  0  0  0  0  0  0
   11.0776  -17.0423   25.5338 C   0  0  0  0  0  0  0  0  0  0  0  0
    9.9033  -16.6191   26.3376 C   0  0  2  0  0  0  0  0  0  0  0  0
    9.4350  -15.2973   25.8942 N   0  0  0  0  0  0  0  0  0  0  0  0
   10.1838  -16.5508   27.7728 C   0  0  0  0  0  0  0  0  0  0  0  0
   10.3020  -15.4340   28.3345 O   0  0  0  0  0  0  0  0  0  0  0  0
   10.3319  -17.6627   28.5836 O   0  0  0  0  0  0  0  0  0  0  0  0
  1  2  1  0
  3  2  1  0
  3  4  2  0
  6  5  1  6
  6  8  1  0
  7  6  1  0
  8  9  1  6
  8 10  1  0
  9  3  1  0
 10 11  2  0
 13 14  2  0
 13 12  1  0
 15 13  1  0
 16 15  1  0
 17 16  1  6
 18 10  1  0
 18 17  1  0
 19 21  1  0
 19 17  1  0
 20 19  2  0
M  END
$$$$
