GVQ.pdb
     RDKit          3D

 21 20  0  0  1  0  0  0  0  0999 V2000
    7.1956  -14.0410   20.3897 N   0  0  0  0  0  0  0  0  0  0  0  0
    6.4902  -13.9555   21.6494 C   0  0  0  0  0  0  0  0  0  0  0  0
    7.4248  -13.9439   22.8045 C   0  0  0  0  0  0  0  0  0  0  0  0
    8.5897  -14.3761   22.6142 O   0  0  0  0  0  0  0  0  0  0  0  0
    6.0132  -13.0847   26.8384 C   0  0  0  0  0  0  0  0  0  0  0  0
    7.3749  -12.6728   26.3788 C   0  0  2  0  0  0  0  0  0  0  0  0
    7.4527  -11.2092   26.0151 C   0  0  0  0  0  0  0  0  0  0  0  0
    7.8909  -13.5301   25.2440 C   0  0  2  0  0  0  0  0  0  0  0  0
    7.0292  -13.4643   24.0835 N   0  0  0  0  0  0  0  0  0  0  0  0
    7.9879  -14.9457   25.7068 C   0  0  0  0  0  0  0  0  0  0  0  0
    6.9283  -15.6097   25.7497 O   0  0  0  0  0  0  0  0  0  0  0  0
   11.5272  -19.1361   23.4833 N   0  0  0  0  0  0  0  0  0  0  0  0
   12.1618  -18.0368   24.1214 C   0  0  0  0  0  0  0  0  0  0  0  0
   13.3333  -17.7473   23.7956 O   0  0  0  0  0  0  0  0  0  0  0  0
   11.4207  -17.2792   25.1425 C   0  0  0  0  0  0  0  0  0  0  0  0
   10.0176  -17.7039   25.3757 C   0  0  0  0  0  0  0  0  0  0  0  0
    9.3317  -16.9464   26.4526 C   0  0  2  0  0  0  0  0  0  0  0  0
    9.2262  -15.5262   26.0854 N   0  0  0  0  0  0  0  0  0  0  0  0
   10.0141  -17.0387   27.7444 C   0  0  0  0  0  0  0  0  0  0  0  0
   10.4616  -16.0006   28.2910 O   0  0  0  0  0  0  0  0  0  0  0  0
   10.2078  -18.2246   28.4315 O   0  0  0  0  0  0  0  0  0  0  0  0
  1  2  1  0
  3  2  1  0
  3  4  2  0
  6  5  1  6
  6  8  1  0
  7  6  1  0
  8  9  1  6
  8 10  1  0
  9  3  1  0
 10 11  2  0
 13 14  2  0
 13 12  1  0
 15 13  1  0
 16 15  1  0
 17 16  1  6
 18 10  1  0
 18 17  1  0
 19 21  1  0
 19 17  1  0
 20 19  2  0
M  END
$$$$
