GVQ.pdb
     RDKit          3D

 21 20  0  0  1  0  0  0  0  0999 V2000
    7.7497  -15.1288   20.5054 N   0  0  0  0  0  0  0  0  0  0  0  0
    6.8281  -14.7864   21.5661 C   0  0  0  0  0  0  0  0  0  0  0  0
    7.5342  -14.5312   22.8483 C   0  0  0  0  0  0  0  0  0  0  0  0
    8.7453  -14.8597   22.9205 O   0  0  0  0  0  0  0  0  0  0  0  0
    6.5046  -11.4600   25.3403 C   0  0  0  0  0  0  0  0  0  0  0  0
    6.8024  -12.7198   26.0881 C   0  0  2  0  0  0  0  0  0  0  0  0
    7.5530  -12.4737   27.3751 C   0  0  0  0  0  0  0  0  0  0  0  0
    7.5239  -13.7441   25.2401 C   0  0  2  0  0  0  0  0  0  0  0  0
    6.8763  -13.9378   23.9607 N   0  0  0  0  0  0  0  0  0  0  0  0
    7.5653  -15.0432   25.9736 C   0  0  0  0  0  0  0  0  0  0  0  0
    6.5718  -15.7960   25.8651 O   0  0  0  0  0  0  0  0  0  0  0  0
   10.2565  -18.4436   23.0404 N   0  0  0  0  0  0  0  0  0  0  0  0
   10.4483  -19.2411   24.2004 C   0  0  0  0  0  0  0  0  0  0  0  0
   10.9129  -20.3938   24.0671 O   0  0  0  0  0  0  0  0  0  0  0  0
   10.0931  -18.6848   25.5157 C   0  0  0  0  0  0  0  0  0  0  0  0
    9.5603  -17.2993   25.5128 C   0  0  0  0  0  0  0  0  0  0  0  0
    9.1292  -16.8187   26.8497 C   0  0  2  0  0  0  0  0  0  0  0  0
    8.6810  -15.4204   26.7654 N   0  0  0  0  0  0  0  0  0  0  0  0
   10.1858  -16.9036   27.8592 C   0  0  0  0  0  0  0  0  0  0  0  0
   10.8557  -15.8824   28.1511 O   0  0  0  0  0  0  0  0  0  0  0  0
   10.5111  -18.0643   28.5396 O   0  0  0  0  0  0  0  0  0  0  0  0
  1  2  1  0
  3  2  1  0
  3  4  2  0
  6  5  1  6
  6  8  1  0
  7  6  1  0
  8  9  1  6
  8 10  1  0
  9  3  1  0
 10 11  2  0
 13 14  2  0
 13 12  1  0
 15 13  1  0
 16 15  1  0
 17 16  1  6
 18 10  1  0
 18 17  1  0
 19 21  1  0
 19 17  1  0
 20 19  2  0
M  END
$$$$
