GVQ.pdb
     RDKit          3D

 21 20  0  0  1  0  0  0  0  0999 V2000
    4.3044  -18.7619   21.1415 N   0  0  0  0  0  0  0  0  0  0  0  0
    4.3564  -17.3382   21.3904 C   0  0  0  0  0  0  0  0  0  0  0  0
    5.7456  -16.8163   21.3155 C   0  0  0  0  0  0  0  0  0  0  0  0
    6.6804  -17.6555   21.2717 O   0  0  0  0  0  0  0  0  0  0  0  0
    6.8595  -13.3120   19.4231 C   0  0  0  0  0  0  0  0  0  0  0  0
    7.4120  -13.4613   20.8041 C   0  0  2  0  0  0  0  0  0  0  0  0
    8.8055  -12.8958   20.9420 C   0  0  0  0  0  0  0  0  0  0  0  0
    7.3678  -14.8906   21.2981 C   0  0  2  0  0  0  0  0  0  0  0  0
    6.0217  -15.4214   21.2937 N   0  0  0  0  0  0  0  0  0  0  0  0
    7.9148  -14.9447   22.6856 C   0  0  0  0  0  0  0  0  0  0  0  0
    7.2234  -14.4354   23.5957 O   0  0  0  0  0  0  0  0  0  0  0  0
    9.0336  -18.8858   28.2075 N   0  0  0  0  0  0  0  0  0  0  0  0
    8.6334  -18.4558   26.9139 C   0  0  0  0  0  0  0  0  0  0  0  0
    7.7426  -19.0973   26.3163 O   0  0  0  0  0  0  0  0  0  0  0  0
    9.2805  -17.2736   26.3229 C   0  0  0  0  0  0  0  0  0  0  0  0
    8.8549  -16.9205   24.9454 C   0  0  0  0  0  0  0  0  0  0  0  0
    9.6084  -15.7850   24.3562 C   0  0  2  0  0  0  0  0  0  0  0  0
    9.1671  -15.5467   22.9736 N   0  0  0  0  0  0  0  0  0  0  0  0
   11.0564  -15.9993   24.3472 C   0  0  0  0  0  0  0  0  0  0  0  0
   11.6282  -16.3637   23.2903 O   0  0  0  0  0  0  0  0  0  0  0  0
   11.8693  -15.8227   25.4535 O   0  0  0  0  0  0  0  0  0  0  0  0
  1  2  1  0
  3  2  1  0
  3  4  2  0
  6  5  1  6
  6  8  1  0
  7  6  1  0
  8  9  1  1
  8 10  1  0
  9  3  1  0
 10 11  2  0
 13 14  2  0
 13 12  1  0
 15 13  1  0
 16 15  1  0
 17 16  1  6
 18 10  1  0
 18 17  1  0
 19 21  1  0
 19 17  1  0
 20 19  2  0
M  END
$$$$
