MGS.pdb
     RDKit          3D

 19 18  0  0  1  0  0  0  0  0999 V2000
    7.3246  -10.9236   25.8285 C   0  0  0  0  0  0  0  0  0  0  0  0
    6.8390  -11.9925   27.1635 S   0  0  0  0  0  0  0  0  0  0  0  0
    6.6175  -13.7004   26.7715 C   0  0  0  0  0  0  0  0  0  0  0  0
    6.9848  -14.1432   25.4086 C   0  0  0  0  0  0  0  0  0  0  0  0
    6.7620  -15.5364   24.9962 C   0  0  2  0  0  0  0  0  0  0  0  0
    6.9895  -16.4595   26.0769 N   0  0  0  0  0  0  0  0  0  0  0  0
    7.5691  -15.9489   23.8187 C   0  0  0  0  0  0  0  0  0  0  0  0
    8.3625  -15.1537   23.2928 O   0  0  0  0  0  0  0  0  0  0  0  0
    7.4620  -17.2690   23.2516 N   0  0  0  0  0  0  0  0  0  0  0  0
    8.1902  -17.6059   22.0543 C   0  0  0  0  0  0  0  0  0  0  0  0
    9.6106  -17.8281   22.1965 C   0  0  0  0  0  0  0  0  0  0  0  0
    9.9992  -19.0509   22.1740 O   0  0  0  0  0  0  0  0  0  0  0  0
   12.2688  -15.1180   21.2893 O   0  0  0  0  0  0  0  0  0  0  0  0
   12.8122  -16.3886   21.5429 C   0  0  0  0  0  0  0  0  0  0  0  0
   11.9514  -17.0922   22.5518 C   0  0  2  0  0  0  0  0  0  0  0  0
   10.5538  -16.7985   22.3533 N   0  0  0  0  0  0  0  0  0  0  0  0
   12.3806  -16.7228   23.9461 C   0  0  0  0  0  0  0  0  0  0  0  0
   11.5120  -16.1918   24.8590 O   0  0  0  0  0  0  0  0  0  0  0  0
   13.5831  -16.9165   24.2658 O   0  0  0  0  0  0  0  0  0  0  0  0
  1  2  1  0
  3  2  1  0
  4  5  1  0
  4  3  1  0
  5  6  1  1
  7  9  1  0
  7  5  1  0
  8  7  2  0
 10 11  1  0
 10  9  1  0
 11 16  1  0
 12 11  2  0
 13 14  1  0
 15 14  1  6
 15 17  1  0
 16 15  1  0
 17 19  2  0
 17 18  1  0
M  END
$$$$
