MGS.pdb
     RDKit          3D

 19 18  0  0  1  0  0  0  0  0999 V2000
    8.0487  -11.3903   27.2768 C   0  0  0  0  0  0  0  0  0  0  0  0
    6.7038  -12.5494   27.3668 S   0  0  0  0  0  0  0  0  0  0  0  0
    6.1092  -13.1949   25.8340 C   0  0  0  0  0  0  0  0  0  0  0  0
    7.0579  -13.2493   24.7001 C   0  0  0  0  0  0  0  0  0  0  0  0
    6.9593  -14.3237   23.7016 C   0  0  2  0  0  0  0  0  0  0  0  0
    6.3175  -15.4961   24.2356 N   0  0  0  0  0  0  0  0  0  0  0  0
    8.2642  -14.7066   23.1030 C   0  0  0  0  0  0  0  0  0  0  0  0
    9.0433  -13.8354   22.6878 O   0  0  0  0  0  0  0  0  0  0  0  0
    8.6681  -16.0844   22.9840 N   0  0  0  0  0  0  0  0  0  0  0  0
    9.9671  -16.4171   22.4557 C   0  0  0  0  0  0  0  0  0  0  0  0
   10.8206  -17.2314   23.2897 C   0  0  0  0  0  0  0  0  0  0  0  0
   10.2508  -17.8320   24.2702 O   0  0  0  0  0  0  0  0  0  0  0  0
   14.9330  -17.0929   23.2682 O   0  0  0  0  0  0  0  0  0  0  0  0
   14.3974  -18.3829   23.4198 C   0  0  0  0  0  0  0  0  0  0  0  0
   12.9848  -18.2670   23.9148 C   0  0  2  0  0  0  0  0  0  0  0  0
   12.2012  -17.3893   23.0815 N   0  0  0  0  0  0  0  0  0  0  0  0
   12.9741  -17.7951   25.3437 C   0  0  0  0  0  0  0  0  0  0  0  0
   13.2827  -18.6237   26.3869 O   0  0  0  0  0  0  0  0  0  0  0  0
   12.6691  -16.5941   25.5679 O   0  0  0  0  0  0  0  0  0  0  0  0
  1  2  1  0
  3  2  1  0
  4  5  1  0
  4  3  1  0
  5  6  1  1
  7  9  1  0
  7  5  1  0
  8  7  2  0
 10 11  1  0
 10  9  1  0
 11 16  1  0
 12 11  2  0
 13 14  1  0
 15 14  1  6
 15 17  1  0
 16 15  1  0
 17 19  2  0
 17 18  1  0
M  END
$$$$
