MGS.pdb
     RDKit          3D

 19 18  0  0  1  0  0  0  0  0999 V2000
    6.9357  -11.0086   25.7387 C   0  0  0  0  0  0  0  0  0  0  0  0
    6.7322  -12.5961   26.5126 S   0  0  0  0  0  0  0  0  0  0  0  0
    6.5393  -13.9838   25.4371 C   0  0  0  0  0  0  0  0  0  0  0  0
    7.0755  -13.8650   24.0634 C   0  0  0  0  0  0  0  0  0  0  0  0
    7.5942  -15.0497   23.3646 C   0  0  2  0  0  0  0  0  0  0  0  0
    6.9870  -16.2640   23.8426 N   0  0  0  0  0  0  0  0  0  0  0  0
    9.0729  -15.1817   23.4262 C   0  0  0  0  0  0  0  0  0  0  0  0
    9.8018  -14.2680   23.0111 O   0  0  0  0  0  0  0  0  0  0  0  0
    9.7069  -16.3591   23.9625 N   0  0  0  0  0  0  0  0  0  0  0  0
   11.1281  -16.3732   24.2015 C   0  0  0  0  0  0  0  0  0  0  0  0
   11.5570  -16.3516   25.5809 C   0  0  0  0  0  0  0  0  0  0  0  0
   12.7182  -16.8416   25.8224 O   0  0  0  0  0  0  0  0  0  0  0  0
    9.2569  -14.8066   28.6625 O   0  0  0  0  0  0  0  0  0  0  0  0
   10.6527  -14.7635   28.8163 C   0  0  0  0  0  0  0  0  0  0  0  0
   11.2660  -15.8593   27.9934 C   0  0  2  0  0  0  0  0  0  0  0  0
   10.7842  -15.8349   26.6346 N   0  0  0  0  0  0  0  0  0  0  0  0
   10.9980  -17.1964   28.6297 C   0  0  0  0  0  0  0  0  0  0  0  0
   11.4681  -17.5189   29.8727 O   0  0  0  0  0  0  0  0  0  0  0  0
   10.3160  -18.0338   27.9821 O   0  0  0  0  0  0  0  0  0  0  0  0
  1  2  1  0
  3  2  1  0
  4  5  1  0
  4  3  1  0
  5  6  1  1
  7  9  1  0
  7  5  1  0
  8  7  2  0
 10 11  1  0
 10  9  1  0
 11 16  1  0
 12 11  2  0
 13 14  1  0
 15 14  1  1
 15 17  1  0
 16 15  1  0
 17 19  2  0
 17 18  1  0
M  END
$$$$
