MGS.pdb
     RDKit          3D

 19 18  0  0  1  0  0  0  0  0999 V2000
    5.9453  -10.8480   27.1581 C   0  0  0  0  0  0  0  0  0  0  0  0
    6.7481  -12.4338   27.1954 S   0  0  0  0  0  0  0  0  0  0  0  0
    6.1171  -13.6681   26.1009 C   0  0  0  0  0  0  0  0  0  0  0  0
    6.9240  -14.0011   24.9065 C   0  0  0  0  0  0  0  0  0  0  0  0
    7.6608  -15.2714   24.8398 C   0  0  2  0  0  0  0  0  0  0  0  0
    8.4486  -15.4982   26.0228 N   0  0  0  0  0  0  0  0  0  0  0  0
    8.5275  -15.3988   23.6396 C   0  0  0  0  0  0  0  0  0  0  0  0
    9.6544  -14.8809   23.6222 O   0  0  0  0  0  0  0  0  0  0  0  0
    8.0978  -16.1182   22.4677 N   0  0  0  0  0  0  0  0  0  0  0  0
    8.8880  -16.0813   21.2630 C   0  0  0  0  0  0  0  0  0  0  0  0
   10.2494  -16.5547   21.3620 C   0  0  0  0  0  0  0  0  0  0  0  0
   10.8314  -16.8457   20.2560 O   0  0  0  0  0  0  0  0  0  0  0  0
   14.5287  -16.5356   23.2157 O   0  0  0  0  0  0  0  0  0  0  0  0
   13.2013  -16.0756   23.2234 C   0  0  0  0  0  0  0  0  0  0  0  0
   12.3217  -17.1204   22.6001 C   0  0  2  0  0  0  0  0  0  0  0  0
   10.9410  -16.7055   22.5759 N   0  0  0  0  0  0  0  0  0  0  0  0
   12.4725  -18.4272   23.3309 C   0  0  0  0  0  0  0  0  0  0  0  0
   11.6001  -18.8205   24.3078 O   0  0  0  0  0  0  0  0  0  0  0  0
   13.4395  -19.1713   23.0193 O   0  0  0  0  0  0  0  0  0  0  0  0
  1  2  1  0
  3  2  1  0
  4  5  1  0
  4  3  1  0
  5  6  1  1
  7  9  1  0
  7  5  1  0
  8  7  2  0
 10 11  1  0
 10  9  1  0
 11 16  1  0
 12 11  2  0
 13 14  1  0
 15 14  1  1
 15 17  1  0
 16 15  1  0
 17 19  2  0
 17 18  1  0
M  END
$$$$
