MGS.pdb
     RDKit          3D

 19 18  0  0  1  0  0  0  0  0999 V2000
    5.2903  -11.5727   26.0167 C   0  0  0  0  0  0  0  0  0  0  0  0
    6.7641  -12.2181   25.2604 S   0  0  0  0  0  0  0  0  0  0  0  0
    6.6359  -12.7151   23.5704 C   0  0  0  0  0  0  0  0  0  0  0  0
    7.8610  -13.2156   22.9092 C   0  0  0  0  0  0  0  0  0  0  0  0
    8.1059  -14.6608   22.7976 C   0  0  2  0  0  0  0  0  0  0  0  0
    7.0090  -15.3442   22.1642 N   0  0  0  0  0  0  0  0  0  0  0  0
    8.4123  -15.3182   24.0945 C   0  0  0  0  0  0  0  0  0  0  0  0
    9.3562  -14.9181   24.7926 O   0  0  0  0  0  0  0  0  0  0  0  0
    7.6359  -16.4292   24.5829 N   0  0  0  0  0  0  0  0  0  0  0  0
    7.8998  -16.9813   25.8877 C   0  0  0  0  0  0  0  0  0  0  0  0
    9.2529  -16.8687   26.3813 C   0  0  0  0  0  0  0  0  0  0  0  0
   10.1878  -17.1076   25.5353 O   0  0  0  0  0  0  0  0  0  0  0  0
   10.1878  -15.5671   30.1837 O   0  0  0  0  0  0  0  0  0  0  0  0
   11.1825  -15.4614   29.1971 C   0  0  0  0  0  0  0  0  0  0  0  0
   10.9481  -16.5176   28.1562 C   0  0  2  0  0  0  0  0  0  0  0  0
    9.5793  -16.5208   27.7030 N   0  0  0  0  0  0  0  0  0  0  0  0
   11.3345  -17.8690   28.6937 C   0  0  0  0  0  0  0  0  0  0  0  0
   12.6027  -18.1467   29.1234 O   0  0  0  0  0  0  0  0  0  0  0  0
   10.4478  -18.7619   28.7428 O   0  0  0  0  0  0  0  0  0  0  0  0
  1  2  1  0
  3  2  1  0
  4  5  1  0
  4  3  1  0
  5  6  1  1
  7  9  1  0
  7  5  1  0
  8  7  2  0
 10 11  1  0
 10  9  1  0
 11 16  1  0
 12 11  2  0
 13 14  1  0
 15 14  1  1
 15 17  1  0
 16 15  1  0
 17 19  2  0
 17 18  1  0
M  END
$$$$
