MGS.pdb
     RDKit          3D

 19 18  0  0  1  0  0  0  0  0999 V2000
    6.0670  -11.9220   19.6391 C   0  0  0  0  0  0  0  0  0  0  0  0
    7.8364  -11.9179   19.4667 S   0  0  0  0  0  0  0  0  0  0  0  0
    8.6196  -13.4911   19.2898 C   0  0  0  0  0  0  0  0  0  0  0  0
   10.0986  -13.5227   19.2839 C   0  0  0  0  0  0  0  0  0  0  0  0
   10.8125  -14.7911   19.0783 C   0  0  2  0  0  0  0  0  0  0  0  0
   10.0082  -15.7515   18.3696 N   0  0  0  0  0  0  0  0  0  0  0  0
   11.3184  -15.4040   20.3338 C   0  0  0  0  0  0  0  0  0  0  0  0
   12.1013  -14.7792   21.0653 O   0  0  0  0  0  0  0  0  0  0  0  0
   10.9245  -16.7280   20.7430 N   0  0  0  0  0  0  0  0  0  0  0  0
   11.2904  -17.2242   22.0457 C   0  0  0  0  0  0  0  0  0  0  0  0
   12.7030  -17.3402   22.3255 C   0  0  0  0  0  0  0  0  0  0  0  0
   13.4204  -17.8840   21.4109 O   0  0  0  0  0  0  0  0  0  0  0  0
   16.5434  -16.5992   25.1704 O   0  0  0  0  0  0  0  0  0  0  0  0
   15.1644  -16.3894   25.0026 C   0  0  0  0  0  0  0  0  0  0  0  0
   14.7162  -17.0850   23.7499 C   0  0  2  0  0  0  0  0  0  0  0  0
   13.3059  -16.8986   23.5155 N   0  0  0  0  0  0  0  0  0  0  0  0
   15.0555  -18.5494   23.8213 C   0  0  0  0  0  0  0  0  0  0  0  0
   16.3094  -19.0209   23.5466 O   0  0  0  0  0  0  0  0  0  0  0  0
   14.1425  -19.3531   24.1471 O   0  0  0  0  0  0  0  0  0  0  0  0
  1  2  1  0
  3  2  1  0
  4  5  1  0
  4  3  1  0
  5  6  1  1
  7  9  1  0
  7  5  1  0
  8  7  2  0
 10 11  1  0
 10  9  1  0
 11 16  1  0
 12 11  2  0
 13 14  1  0
 15 14  1  1
 15 17  1  0
 16 15  1  0
 17 19  2  0
 17 18  1  0
M  END
$$$$
