MGS.pdb
     RDKit          3D

 19 18  0  0  1  0  0  0  0  0999 V2000
    8.0181  -11.5802   20.6347 C   0  0  0  0  0  0  0  0  0  0  0  0
    7.3632  -12.7412   19.4585 S   0  0  0  0  0  0  0  0  0  0  0  0
    7.8988  -14.4169   19.6156 C   0  0  0  0  0  0  0  0  0  0  0  0
    9.0348  -14.6902   20.5231 C   0  0  0  0  0  0  0  0  0  0  0  0
    9.4706  -16.0722   20.7705 C   0  0  2  0  0  0  0  0  0  0  0  0
    8.8105  -17.0078   19.8984 N   0  0  0  0  0  0  0  0  0  0  0  0
    9.3016  -16.5101   22.1803 C   0  0  0  0  0  0  0  0  0  0  0  0
    9.8291  -15.8707   23.1029 O   0  0  0  0  0  0  0  0  0  0  0  0
    8.5300  -17.6773   22.5239 N   0  0  0  0  0  0  0  0  0  0  0  0
    8.3660  -18.0586   23.9040 C   0  0  0  0  0  0  0  0  0  0  0  0
    9.5555  -18.4737   24.6110 C   0  0  0  0  0  0  0  0  0  0  0  0
   10.5094  -18.9420   23.8917 O   0  0  0  0  0  0  0  0  0  0  0  0
    9.9292  -18.0586   28.6506 O   0  0  0  0  0  0  0  0  0  0  0  0
   11.1464  -18.1508   27.9549 C   0  0  0  0  0  0  0  0  0  0  0  0
   10.9088  -18.8588   26.6525 C   0  0  2  0  0  0  0  0  0  0  0  0
    9.7087  -18.3900   26.0054 N   0  0  0  0  0  0  0  0  0  0  0  0
   10.8479  -20.3458   26.8753 C   0  0  0  0  0  0  0  0  0  0  0  0
   11.8994  -21.0481   27.3961 O   0  0  0  0  0  0  0  0  0  0  0  0
    9.7854  -20.9473   26.5668 O   0  0  0  0  0  0  0  0  0  0  0  0
  1  2  1  0
  3  2  1  0
  4  5  1  0
  4  3  1  0
  5  6  1  6
  7  9  1  0
  7  5  1  0
  8  7  2  0
 10 11  1  0
 10  9  1  0
 11 16  1  0
 12 11  2  0
 13 14  1  0
 15 14  1  1
 15 17  1  0
 16 15  1  0
 17 19  2  0
 17 18  1  0
M  END
$$$$
