HMP.pdb
     RDKit          3D

 26 27  0  0  1  0  0  0  0  0999 V2000
   22.9262  -17.0385  -17.2052 N   0  0  0  0  0  0  0  0  0  0  0  0
   22.4061  -15.7689  -17.6887 C   0  0  1  0  0  0  0  0  0  0  0  0
   20.9271  -15.6649  -17.5708 C   0  0  0  0  0  0  0  0  0  0  0  0
   20.3124  -16.6342  -18.5280 C   0  0  0  0  0  0  0  0  0  0  0  0
   20.2650  -18.0089  -18.4361 C   0  0  0  0  0  0  0  0  0  0  0  0
   19.6106  -18.4880  -19.5252 N   0  0  0  0  0  0  0  0  0  0  0  0
   19.2779  -17.4182  -20.2460 C   0  0  0  0  0  0  0  0  0  0  0  0
   19.6946  -16.2877  -19.6578 N   0  0  0  0  0  0  0  0  0  0  0  0
   23.0643  -14.7013  -16.9307 C   0  0  0  0  0  0  0  0  0  0  0  0
   23.2761  -14.8004  -15.6848 O   0  0  0  0  0  0  0  0  0  0  0  0
   28.4548   -9.1307  -17.5503 C   0  0  0  0  0  0  0  0  0  0  0  0
   27.4617  -10.4958  -18.2366 S   0  0  0  0  0  0  0  0  0  0  0  0
   26.1196  -10.9277  -17.0493 C   0  0  0  0  0  0  0  0  0  0  0  0
   25.3726  -12.0911  -17.5935 C   0  0  0  0  0  0  0  0  0  0  0  0
   24.1248  -12.4828  -16.8455 C   0  0  2  0  0  0  0  0  0  0  0  0
   23.4879  -13.5225  -17.5710 N   0  0  0  0  0  0  0  0  0  0  0  0
   23.2456  -11.4151  -16.4413 C   0  0  0  0  0  0  0  0  0  0  0  0
   22.2399  -11.2444  -17.2573 O   0  0  0  0  0  0  0  0  0  0  0  0
   23.2616  -10.5249  -15.3455 N   0  0  0  0  0  0  0  0  0  0  0  0
   24.1560  -10.2767  -14.2765 C   0  0  0  0  0  0  0  0  0  0  0  0
   23.2899   -9.8413  -13.1255 C   0  0  0  0  0  0  0  0  0  0  0  0
   21.8832   -9.7512  -13.6743 C   0  0  0  0  0  0  0  0  0  0  0  0
   22.1529   -9.5690  -15.1475 C   0  0  1  0  0  0  0  0  0  0  0  0
   22.5889   -8.1846  -15.3888 C   0  0  0  0  0  0  0  0  0  0  0  0
   21.7873   -7.0584  -15.3230 O   0  0  0  0  0  0  0  0  0  0  0  0
   23.8096   -7.9492  -15.6887 O   0  0  0  0  0  0  0  0  0  0  0  0
  2  1  1  1
  2  9  1  0
  3  2  1  0
  4  3  1  0
  5  4  2  0
  6  5  1  0
  7  6  1  0
  7  8  2  0
  8  4  1  0
  9 10  2  0
 12 11  1  0
 13 12  1  0
 14 13  1  0
 15 14  1  6
 16  9  1  0
 16 15  1  0
 17 15  1  0
 18 17  2  0
 19 17  1  0
 19 23  1  0
 20 21  1  0
 20 19  1  0
 21 22  1  0
 23 22  1  0
 24 25  1  0
 23 24  1  1
 26 24  2  0
M  END
$$$$
