HMP.pdb
     RDKit          3D

 26 27  0  0  1  0  0  0  0  0999 V2000
   23.7127  -19.3923  -13.2038 N   0  0  0  0  0  0  0  0  0  0  0  0
   23.7634  -20.1839  -11.9844 C   0  0  1  0  0  0  0  0  0  0  0  0
   23.3921  -21.6078  -12.2010 C   0  0  0  0  0  0  0  0  0  0  0  0
   21.9518  -21.6603  -12.5969 C   0  0  0  0  0  0  0  0  0  0  0  0
   21.4195  -21.9025  -13.8452 C   0  0  0  0  0  0  0  0  0  0  0  0
   20.0657  -21.8575  -13.7489 N   0  0  0  0  0  0  0  0  0  0  0  0
   19.8034  -21.5940  -12.4697 C   0  0  0  0  0  0  0  0  0  0  0  0
   20.9329  -21.4714  -11.7576 N   0  0  0  0  0  0  0  0  0  0  0  0
   25.1206  -20.0776  -11.4415 C   0  0  0  0  0  0  0  0  0  0  0  0
   26.1285  -19.9122  -12.1923 O   0  0  0  0  0  0  0  0  0  0  0  0
   27.2854  -20.4511   -4.5049 C   0  0  0  0  0  0  0  0  0  0  0  0
   27.3600  -18.9791   -5.5766 S   0  0  0  0  0  0  0  0  0  0  0  0
   27.7738  -19.4993   -7.2958 C   0  0  0  0  0  0  0  0  0  0  0  0
   26.5092  -19.5986   -8.0696 C   0  0  0  0  0  0  0  0  0  0  0  0
   26.6500  -19.9962   -9.5160 C   0  0  2  0  0  0  0  0  0  0  0  0
   25.3472  -20.1539  -10.0553 N   0  0  0  0  0  0  0  0  0  0  0  0
   27.5498  -21.0832   -9.8081 C   0  0  0  0  0  0  0  0  0  0  0  0
   26.9314  -22.2091  -10.0451 O   0  0  0  0  0  0  0  0  0  0  0  0
   28.9571  -21.1666   -9.8848 N   0  0  0  0  0  0  0  0  0  0  0  0
   30.0224  -20.2611   -9.6620 C   0  0  0  0  0  0  0  0  0  0  0  0
   31.1073  -20.6799  -10.6172 C   0  0  0  0  0  0  0  0  0  0  0  0
   30.6097  -21.9433  -11.2838 C   0  0  0  0  0  0  0  0  0  0  0  0
   29.6071  -22.4360  -10.2698 C   0  0  1  0  0  0  0  0  0  0  0  0
   30.3263  -23.0360   -9.1350 C   0  0  0  0  0  0  0  0  0  0  0  0
   31.0806  -24.1956   -9.1742 O   0  0  0  0  0  0  0  0  0  0  0  0
   30.2815  -22.4717   -7.9883 O   0  0  0  0  0  0  0  0  0  0  0  0
  2  1  1  6
  2  9  1  0
  3  2  1  0
  4  3  1  0
  5  4  2  0
  6  5  1  0
  7  6  1  0
  7  8  2  0
  8  4  1  0
  9 10  2  0
 12 11  1  0
 13 12  1  0
 14 13  1  0
 15 14  1  1
 16  9  1  0
 16 15  1  0
 17 15  1  0
 18 17  2  0
 19 17  1  0
 19 23  1  0
 20 21  1  0
 20 19  1  0
 21 22  1  0
 23 22  1  0
 24 25  1  0
 23 24  1  1
 26 24  2  0
M  END
$$$$
