HMP.pdb
     RDKit          3D

 26 27  0  0  1  0  0  0  0  0999 V2000
   20.1673  -19.8735  -14.3557 N   0  0  0  0  0  0  0  0  0  0  0  0
   21.1322  -20.9613  -14.3121 C   0  0  1  0  0  0  0  0  0  0  0  0
   21.2665  -21.6702  -15.6128 C   0  0  0  0  0  0  0  0  0  0  0  0
   20.1655  -22.6760  -15.7129 C   0  0  0  0  0  0  0  0  0  0  0  0
   18.9709  -22.5670  -16.3921 C   0  0  0  0  0  0  0  0  0  0  0  0
   18.2709  -23.7168  -16.2135 N   0  0  0  0  0  0  0  0  0  0  0  0
   19.0364  -24.4896  -15.4443 C   0  0  0  0  0  0  0  0  0  0  0  0
   20.1868  -23.8760  -15.1317 N   0  0  0  0  0  0  0  0  0  0  0  0
   22.4183  -20.3982  -13.8919 C   0  0  0  0  0  0  0  0  0  0  0  0
   22.8881  -19.3437  -14.4157 O   0  0  0  0  0  0  0  0  0  0  0  0
   25.9886  -19.8302   -8.0615 C   0  0  0  0  0  0  0  0  0  0  0  0
   26.4458  -21.2928   -9.0478 S   0  0  0  0  0  0  0  0  0  0  0  0
   26.3003  -20.8870  -10.8399 C   0  0  0  0  0  0  0  0  0  0  0  0
   24.8997  -21.1444  -11.2637 C   0  0  0  0  0  0  0  0  0  0  0  0
   24.5142  -20.6197  -12.6224 C   0  0  2  0  0  0  0  0  0  0  0  0
   23.1769  -21.0166  -12.8815 N   0  0  0  0  0  0  0  0  0  0  0  0
   25.4308  -20.8771  -13.7041 C   0  0  0  0  0  0  0  0  0  0  0  0
   25.0357  -21.8427  -14.4902 O   0  0  0  0  0  0  0  0  0  0  0  0
   26.6625  -20.2947  -14.0741 N   0  0  0  0  0  0  0  0  0  0  0  0
   27.6177  -19.4822  -13.4169 C   0  0  0  0  0  0  0  0  0  0  0  0
   28.2115  -18.6151  -14.4940 C   0  0  0  0  0  0  0  0  0  0  0  0
   27.6060  -19.0944  -15.7948 C   0  0  0  0  0  0  0  0  0  0  0  0
   27.2058  -20.5030  -15.4319 C   0  0  1  0  0  0  0  0  0  0  0  0
   28.4071  -21.3521  -15.4044 C   0  0  0  0  0  0  0  0  0  0  0  0
   29.1525  -21.7390  -16.5044 O   0  0  0  0  0  0  0  0  0  0  0  0
   28.8417  -21.7970  -14.2870 O   0  0  0  0  0  0  0  0  0  0  0  0
  2  1  1  6
  2  9  1  0
  3  2  1  0
  4  3  1  0
  5  4  2  0
  6  5  1  0
  7  6  1  0
  7  8  2  0
  8  4  1  0
  9 10  2  0
 12 11  1  0
 13 12  1  0
 14 13  1  0
 15 14  1  1
 16  9  1  0
 16 15  1  0
 17 15  1  0
 18 17  2  0
 19 17  1  0
 19 23  1  0
 20 21  1  0
 20 19  1  0
 21 22  1  0
 23 22  1  0
 24 25  1  0
 23 24  1  1
 26 24  2  0
M  END
$$$$
