HMP.pdb
     RDKit          3D

 26 27  0  0  1  0  0  0  0  0999 V2000
   21.5834  -15.7533  -17.9214 N   0  0  0  0  0  0  0  0  0  0  0  0
   22.4204  -14.6782  -18.4308 C   0  0  1  0  0  0  0  0  0  0  0  0
   21.8233  -13.9832  -19.6024 C   0  0  0  0  0  0  0  0  0  0  0  0
   21.8121  -14.9349  -20.7548 C   0  0  0  0  0  0  0  0  0  0  0  0
   22.8258  -15.2005  -21.6505 C   0  0  0  0  0  0  0  0  0  0  0  0
   22.3828  -16.1319  -22.5338 N   0  0  0  0  0  0  0  0  0  0  0  0
   21.1327  -16.4109  -22.1676 C   0  0  0  0  0  0  0  0  0  0  0  0
   20.7705  -15.6958  -21.0929 N   0  0  0  0  0  0  0  0  0  0  0  0
   22.6534  -13.7373  -17.3317 C   0  0  0  0  0  0  0  0  0  0  0  0
   21.7447  -13.4491  -16.4961 O   0  0  0  0  0  0  0  0  0  0  0  0
   28.5036  -11.6600  -15.3119 C   0  0  0  0  0  0  0  0  0  0  0  0
   27.9110  -13.3745  -15.1388 S   0  0  0  0  0  0  0  0  0  0  0  0
   26.0682  -13.3792  -15.0951 C   0  0  0  0  0  0  0  0  0  0  0  0
   25.5825  -12.1633  -15.7974 C   0  0  0  0  0  0  0  0  0  0  0  0
   24.1194  -12.1487  -16.1566 C   0  0  2  0  0  0  0  0  0  0  0  0
   23.9073  -13.1211  -17.1677 N   0  0  0  0  0  0  0  0  0  0  0  0
   23.5298  -10.8636  -16.4348 C   0  0  0  0  0  0  0  0  0  0  0  0
   23.4217  -10.6166  -17.7129 O   0  0  0  0  0  0  0  0  0  0  0  0
   23.0527   -9.8287  -15.6012 N   0  0  0  0  0  0  0  0  0  0  0  0
   23.0314   -9.6052  -14.2034 C   0  0  0  0  0  0  0  0  0  0  0  0
   21.7806   -8.8090  -13.9464 C   0  0  0  0  0  0  0  0  0  0  0  0
   21.1908   -8.5104  -15.3070 C   0  0  0  0  0  0  0  0  0  0  0  0
   22.4075   -8.6373  -16.1898 C   0  0  1  0  0  0  0  0  0  0  0  0
   23.2457   -7.4388  -16.0283 C   0  0  0  0  0  0  0  0  0  0  0  0
   22.9224   -6.1602  -16.4477 O   0  0  0  0  0  0  0  0  0  0  0  0
   24.3842   -7.5359  -15.4542 O   0  0  0  0  0  0  0  0  0  0  0  0
  2  1  1  1
  2  9  1  0
  3  2  1  0
  4  3  1  0
  5  4  2  0
  6  5  1  0
  7  6  1  0
  7  8  2  0
  8  4  1  0
  9 10  2  0
 12 11  1  0
 13 12  1  0
 14 13  1  0
 15 14  1  6
 16  9  1  0
 16 15  1  0
 17 15  1  0
 18 17  2  0
 19 17  1  0
 19 23  1  0
 20 21  1  0
 20 19  1  0
 21 22  1  0
 23 22  1  0
 24 25  1  0
 23 24  1  1
 26 24  2  0
M  END
$$$$
