HMP.pdb
     RDKit          3D

 26 27  0  0  1  0  0  0  0  0999 V2000
   28.1904  -17.3715  -16.5846 N   0  0  0  0  0  0  0  0  0  0  0  0
   27.2332  -17.2793  -15.4931 C   0  0  1  0  0  0  0  0  0  0  0  0
   25.9764  -16.5845  -15.8804 C   0  0  0  0  0  0  0  0  0  0  0  0
   26.3202  -15.1872  -16.2845 C   0  0  0  0  0  0  0  0  0  0  0  0
   26.1859  -14.6015  -17.5252 C   0  0  0  0  0  0  0  0  0  0  0  0
   26.6198  -13.3175  -17.4411 N   0  0  0  0  0  0  0  0  0  0  0  0
   27.0027  -13.1479  -16.1765 C   0  0  0  0  0  0  0  0  0  0  0  0
   26.8285  -14.2690  -15.4619 N   0  0  0  0  0  0  0  0  0  0  0  0
   26.9528  -18.6417  -15.0315 C   0  0  0  0  0  0  0  0  0  0  0  0
   26.8928  -19.6197  -15.8358 O   0  0  0  0  0  0  0  0  0  0  0  0
   25.8726  -22.1992   -9.6839 C   0  0  0  0  0  0  0  0  0  0  0  0
   25.3661  -20.4678   -9.4268 S   0  0  0  0  0  0  0  0  0  0  0  0
   25.9826  -19.4398  -10.8270 C   0  0  0  0  0  0  0  0  0  0  0  0
   26.7077  -20.3272  -11.7726 C   0  0  0  0  0  0  0  0  0  0  0  0
   26.3311  -20.1923  -13.2252 C   0  0  2  0  0  0  0  0  0  0  0  0
   26.7422  -18.9080  -13.6663 N   0  0  0  0  0  0  0  0  0  0  0  0
   24.9787  -20.5386  -13.5823 C   0  0  0  0  0  0  0  0  0  0  0  0
   24.2876  -19.5190  -14.0169 O   0  0  0  0  0  0  0  0  0  0  0  0
   24.2622  -21.7548  -13.5515 N   0  0  0  0  0  0  0  0  0  0  0  0
   24.5405  -23.0637  -13.0894 C   0  0  0  0  0  0  0  0  0  0  0  0
   23.7755  -23.9805  -14.0053 C   0  0  0  0  0  0  0  0  0  0  0  0
   22.9685  -23.0809  -14.9151 C   0  0  0  0  0  0  0  0  0  0  0  0
   22.8874  -21.8219  -14.0879 C   0  0  1  0  0  0  0  0  0  0  0  0
   21.9013  -22.0155  -13.0131 C   0  0  0  0  0  0  0  0  0  0  0  0
   20.5287  -22.0872  -13.1747 O   0  0  0  0  0  0  0  0  0  0  0  0
   22.2992  -22.1344  -11.8036 O   0  0  0  0  0  0  0  0  0  0  0  0
  2  1  1  6
  2  9  1  0
  3  2  1  0
  4  3  1  0
  5  4  2  0
  6  5  1  0
  7  6  1  0
  7  8  2  0
  8  4  1  0
  9 10  2  0
 12 11  1  0
 13 12  1  0
 14 13  1  0
 15 14  1  1
 16  9  1  0
 16 15  1  0
 17 15  1  0
 18 17  2  0
 19 17  1  0
 19 23  1  0
 20 21  1  0
 20 19  1  0
 21 22  1  0
 23 22  1  0
 24 25  1  0
 23 24  1  1
 26 24  2  0
M  END
$$$$
