HMP.pdb
     RDKit          3D

 26 27  0  0  1  0  0  0  0  0999 V2000
   14.8181  -11.5297  -12.8696 N   0  0  0  0  0  0  0  0  0  0  0  0
   15.2698  -11.0157  -11.5859 C   0  0  1  0  0  0  0  0  0  0  0  0
   16.1718  -11.9563  -10.8690 C   0  0  0  0  0  0  0  0  0  0  0  0
   15.4034  -13.2022  -10.5668 C   0  0  0  0  0  0  0  0  0  0  0  0
   14.4093  -13.3839   -9.6292 C   0  0  0  0  0  0  0  0  0  0  0  0
   13.9886  -14.6733   -9.6964 N   0  0  0  0  0  0  0  0  0  0  0  0
   14.7193  -15.2419  -10.6543 C   0  0  0  0  0  0  0  0  0  0  0  0
   15.5807  -14.3665  -11.1922 N   0  0  0  0  0  0  0  0  0  0  0  0
   15.9415   -9.7364  -11.8307 C   0  0  0  0  0  0  0  0  0  0  0  0
   15.8758   -9.1524  -12.9539 O   0  0  0  0  0  0  0  0  0  0  0  0
   15.4083   -4.7424   -7.3926 C   0  0  0  0  0  0  0  0  0  0  0  0
   15.9292   -4.5303   -9.1260 S   0  0  0  0  0  0  0  0  0  0  0  0
   17.3196   -5.6850   -9.4884 C   0  0  0  0  0  0  0  0  0  0  0  0
   16.7603   -7.0523   -9.6472 C   0  0  0  0  0  0  0  0  0  0  0  0
   17.0977   -7.7579  -10.9350 C   0  0  2  0  0  0  0  0  0  0  0  0
   16.6852   -9.1100  -10.8141 N   0  0  0  0  0  0  0  0  0  0  0  0
   18.4368   -7.5879  -11.4393 C   0  0  0  0  0  0  0  0  0  0  0  0
   19.3149   -8.3294  -10.8186 O   0  0  0  0  0  0  0  0  0  0  0  0
   18.9786   -6.7810  -12.4634 N   0  0  0  0  0  0  0  0  0  0  0  0
   18.4698   -5.7593  -13.3011 C   0  0  0  0  0  0  0  0  0  0  0  0
   19.2352   -5.8838  -14.5909 C   0  0  0  0  0  0  0  0  0  0  0  0
   20.2748   -6.9572  -14.3556 C   0  0  0  0  0  0  0  0  0  0  0  0
   20.3964   -6.9249  -12.8523 C   0  0  1  0  0  0  0  0  0  0  0  0
   21.1828   -5.7451  -12.4588 C   0  0  0  0  0  0  0  0  0  0  0  0
   22.5546   -5.6077  -12.5787 O   0  0  0  0  0  0  0  0  0  0  0  0
   20.5905   -4.7291  -11.9565 O   0  0  0  0  0  0  0  0  0  0  0  0
  2  1  1  6
  2  9  1  0
  3  2  1  0
  4  3  1  0
  5  4  2  0
  6  5  1  0
  7  6  1  0
  7  8  2  0
  8  4  1  0
  9 10  2  0
 12 11  1  0
 13 12  1  0
 14 13  1  0
 15 14  1  1
 16  9  1  0
 16 15  1  0
 17 15  1  0
 18 17  2  0
 19 17  1  0
 19 23  1  0
 20 21  1  0
 20 19  1  0
 21 22  1  0
 23 22  1  0
 24 25  1  0
 23 24  1  6
 26 24  2  0
M  END
$$$$
