HMP.pdb
     RDKit          3D

 26 27  0  0  1  0  0  0  0  0999 V2000
   18.9218  -11.9593  -15.3354 N   0  0  0  0  0  0  0  0  0  0  0  0
   19.6396  -11.2343  -16.3724 C   0  0  1  0  0  0  0  0  0  0  0  0
   18.7378  -10.6377  -17.3937 C   0  0  0  0  0  0  0  0  0  0  0  0
   18.4244  -11.6871  -18.4108 C   0  0  0  0  0  0  0  0  0  0  0  0
   19.2649  -12.2363  -19.3554 C   0  0  0  0  0  0  0  0  0  0  0  0
   18.5640  -13.1543  -20.0696 N   0  0  0  0  0  0  0  0  0  0  0  0
   17.3342  -13.1476  -19.5573 C   0  0  0  0  0  0  0  0  0  0  0  0
   17.2314  -12.2658  -18.5526 N   0  0  0  0  0  0  0  0  0  0  0  0
   20.4402  -10.1968  -15.7165 C   0  0  0  0  0  0  0  0  0  0  0  0
   20.0358   -9.6021  -14.6725 O   0  0  0  0  0  0  0  0  0  0  0  0
   26.9176  -11.6381  -14.3863 C   0  0  0  0  0  0  0  0  0  0  0  0
   26.1973  -10.3569  -15.4636 S   0  0  0  0  0  0  0  0  0  0  0  0
   24.4398  -10.0770  -14.9838 C   0  0  0  0  0  0  0  0  0  0  0  0
   23.8844   -9.0072  -15.8525 C   0  0  0  0  0  0  0  0  0  0  0  0
   22.4126   -8.7262  -15.6943 C   0  0  2  0  0  0  0  0  0  0  0  0
   21.6967   -9.8277  -16.2301 N   0  0  0  0  0  0  0  0  0  0  0  0
   21.9437   -7.4387  -16.1406 C   0  0  0  0  0  0  0  0  0  0  0  0
   21.2675   -7.4996  -17.2565 O   0  0  0  0  0  0  0  0  0  0  0  0
   22.0743   -6.1364  -15.6113 N   0  0  0  0  0  0  0  0  0  0  0  0
   22.7255   -5.5796  -14.4842 C   0  0  0  0  0  0  0  0  0  0  0  0
   21.8776   -4.4060  -14.0738 C   0  0  0  0  0  0  0  0  0  0  0  0
   20.7941   -4.2886  -15.1229 C   0  0  0  0  0  0  0  0  0  0  0  0
   21.4396   -4.9895  -16.2926 C   0  0  1  0  0  0  0  0  0  0  0  0
   22.4452   -4.0982  -16.8918 C   0  0  0  0  0  0  0  0  0  0  0  0
   22.1834   -3.0177  -17.7160 O   0  0  0  0  0  0  0  0  0  0  0  0
   23.6867   -4.2984  -16.6591 O   0  0  0  0  0  0  0  0  0  0  0  0
  2  1  1  1
  2  9  1  0
  3  2  1  0
  4  3  1  0
  5  4  2  0
  6  5  1  0
  7  6  1  0
  7  8  2  0
  8  4  1  0
  9 10  2  0
 12 11  1  0
 13 12  1  0
 14 13  1  0
 15 14  1  6
 16  9  1  0
 16 15  1  0
 17 15  1  0
 18 17  2  0
 19 17  1  0
 19 23  1  0
 20 21  1  0
 20 19  1  0
 21 22  1  0
 23 22  1  0
 24 25  1  0
 23 24  1  1
 26 24  2  0
M  END
$$$$
