HMP.pdb
     RDKit          3D

 26 27  0  0  1  0  0  0  0  0999 V2000
   20.2571  -18.8574  -16.1127 N   0  0  0  0  0  0  0  0  0  0  0  0
   21.1620  -19.9963  -16.1038 C   0  0  1  0  0  0  0  0  0  0  0  0
   21.5015  -20.4785  -17.4693 C   0  0  0  0  0  0  0  0  0  0  0  0
   20.2889  -21.1320  -18.0493 C   0  0  0  0  0  0  0  0  0  0  0  0
   19.6097  -20.7980  -19.2015 C   0  0  0  0  0  0  0  0  0  0  0  0
   18.5682  -21.6569  -19.3483 N   0  0  0  0  0  0  0  0  0  0  0  0
   18.6307  -22.4817  -18.3040 C   0  0  0  0  0  0  0  0  0  0  0  0
   19.6657  -22.1789  -17.5072 N   0  0  0  0  0  0  0  0  0  0  0  0
   22.3711  -19.5978  -15.3778 C   0  0  0  0  0  0  0  0  0  0  0  0
   22.9629  -18.5027  -15.6177 O   0  0  0  0  0  0  0  0  0  0  0  0
   25.0342  -20.1434   -9.0285 C   0  0  0  0  0  0  0  0  0  0  0  0
   25.4681  -21.5062  -10.1577 S   0  0  0  0  0  0  0  0  0  0  0  0
   25.6440  -20.8448  -11.8692 C   0  0  0  0  0  0  0  0  0  0  0  0
   24.3052  -20.8574  -12.5135 C   0  0  0  0  0  0  0  0  0  0  0  0
   24.2161  -20.1943  -13.8634 C   0  0  2  0  0  0  0  0  0  0  0  0
   22.9153  -20.4267  -14.3801 N   0  0  0  0  0  0  0  0  0  0  0  0
   25.2825  -20.4656  -14.7939 C   0  0  0  0  0  0  0  0  0  0  0  0
   24.9331  -21.2890  -15.7460 O   0  0  0  0  0  0  0  0  0  0  0  0
   26.6196  -20.0196  -14.8738 N   0  0  0  0  0  0  0  0  0  0  0  0
   27.4680  -19.2588  -14.0337 C   0  0  0  0  0  0  0  0  0  0  0  0
   28.3868  -18.5144  -14.9646 C   0  0  0  0  0  0  0  0  0  0  0  0
   28.0636  -19.0138  -16.3554 C   0  0  0  0  0  0  0  0  0  0  0  0
   27.4471  -20.3565  -16.0503 C   0  0  1  0  0  0  0  0  0  0  0  0
   28.5142  -21.3072  -15.7008 C   0  0  0  0  0  0  0  0  0  0  0  0
   29.4066  -21.8866  -16.5859 O   0  0  0  0  0  0  0  0  0  0  0  0
   28.6723  -21.6606  -14.4819 O   0  0  0  0  0  0  0  0  0  0  0  0
  2  1  1  6
  2  9  1  0
  3  2  1  0
  4  3  1  0
  5  4  2  0
  6  5  1  0
  7  6  1  0
  7  8  2  0
  8  4  1  0
  9 10  2  0
 12 11  1  0
 13 12  1  0
 14 13  1  0
 15 14  1  1
 16  9  1  0
 16 15  1  0
 17 15  1  0
 18 17  2  0
 19 17  1  0
 19 23  1  0
 20 21  1  0
 20 19  1  0
 21 22  1  0
 23 22  1  0
 24 25  1  0
 23 24  1  1
 26 24  2  0
M  END
$$$$
