HMP.pdb
     RDKit          3D

 26 27  0  0  1  0  0  0  0  0999 V2000
   21.0166  -27.7278  -17.4559 N   0  0  0  0  0  0  0  0  0  0  0  0
   22.1710  -27.7439  -16.5710 C   0  0  1  0  0  0  0  0  0  0  0  0
   21.9066  -28.4424  -15.2847 C   0  0  0  0  0  0  0  0  0  0  0  0
   20.9091  -27.6400  -14.5134 C   0  0  0  0  0  0  0  0  0  0  0  0
   21.1474  -26.6604  -13.5732 C   0  0  0  0  0  0  0  0  0  0  0  0
   19.9519  -26.1962  -13.1268 N   0  0  0  0  0  0  0  0  0  0  0  0
   19.0260  -26.8875  -13.7898 C   0  0  0  0  0  0  0  0  0  0  0  0
   19.5870  -27.7658  -14.6333 N   0  0  0  0  0  0  0  0  0  0  0  0
   23.2751  -28.3832  -17.2922 C   0  0  0  0  0  0  0  0  0  0  0  0
   23.0690  -29.2149  -18.2264 O   0  0  0  0  0  0  0  0  0  0  0  0
   28.7782  -26.3410  -20.2939 C   0  0  0  0  0  0  0  0  0  0  0  0
   27.3012  -25.4430  -19.7170 S   0  0  0  0  0  0  0  0  0  0  0  0
   26.0071  -26.6576  -19.2197 C   0  0  0  0  0  0  0  0  0  0  0  0
   26.5759  -27.5404  -18.1686 C   0  0  0  0  0  0  0  0  0  0  0  0
   25.6864  -28.6603  -17.6948 C   0  0  2  0  0  0  0  0  0  0  0  0
   24.6114  -28.0875  -16.9673 N   0  0  0  0  0  0  0  0  0  0  0  0
   26.3293  -29.7669  -17.0325 C   0  0  0  0  0  0  0  0  0  0  0  0
   26.3037  -29.6682  -15.7302 O   0  0  0  0  0  0  0  0  0  0  0  0
   26.9771  -30.9252  -17.5142 N   0  0  0  0  0  0  0  0  0  0  0  0
   27.2133  -31.4738  -18.7978 C   0  0  0  0  0  0  0  0  0  0  0  0
   27.2181  -32.9654  -18.5987 C   0  0  0  0  0  0  0  0  0  0  0  0
   27.0923  -33.1864  -17.1076 C   0  0  0  0  0  0  0  0  0  0  0  0
   27.6051  -31.8730  -16.5709 C   0  0  1  0  0  0  0  0  0  0  0  0
   29.0720  -31.8479  -16.6824 C   0  0  0  0  0  0  0  0  0  0  0  0
   29.8041  -31.0990  -17.5870 O   0  0  0  0  0  0  0  0  0  0  0  0
   29.7786  -32.5651  -15.8939 O   0  0  0  0  0  0  0  0  0  0  0  0
  2  1  1  6
  2  9  1  0
  3  2  1  0
  4  3  1  0
  5  4  2  0
  6  5  1  0
  7  6  1  0
  7  8  2  0
  8  4  1  0
  9 10  2  0
 12 11  1  0
 13 12  1  0
 14 13  1  0
 15 14  1  1
 16  9  1  0
 16 15  1  0
 17 15  1  0
 18 17  2  0
 19 17  1  0
 19 23  1  0
 20 21  1  0
 20 19  1  0
 21 22  1  0
 23 22  1  0
 24 25  1  0
 23 24  1  6
 26 24  2  0
M  END
$$$$
