AEQ.pdb
     RDKit          3D

 24 23  0  0  1  0  0  0  0  0999 V2000
    7.4071  -16.2974   18.2623 C   0  0  0  0  0  0  0  0  0  0  0  0
    7.8726  -17.1247   19.4224 C   0  0  2  0  0  0  0  0  0  0  0  0
    6.7935  -17.9148   19.9725 N   0  0  0  0  0  0  0  0  0  0  0  0
    8.4384  -16.2146   20.4714 C   0  0  0  0  0  0  0  0  0  0  0  0
    9.4816  -15.5541   20.2379 O   0  0  0  0  0  0  0  0  0  0  0  0
    7.8174  -16.0793   21.7365 N   0  0  0  0  0  0  0  0  0  0  0  0
    8.3682  -15.1770   22.7411 C   0  0  1  0  0  0  0  0  0  0  0  0
    7.2234  -14.6845   23.5981 C   0  0  0  0  0  0  0  0  0  0  0  0
    7.7090  -13.8108   24.7266 C   0  0  0  0  0  0  0  0  0  0  0  0
    6.5604  -13.3382   25.5308 C   0  0  0  0  0  0  0  0  0  0  0  0
    5.7181  -14.1591   25.9500 O   0  0  0  0  0  0  0  0  0  0  0  0
    9.2961  -15.9455   23.6327 C   0  0  0  0  0  0  0  0  0  0  0  0
    8.8802  -16.8791   24.3655 O   0  0  0  0  0  0  0  0  0  0  0  0
    6.4172  -12.0053   25.8173 O   0  0  0  0  0  0  0  0  0  0  0  0
   12.9583  -19.5016   26.4220 N   0  0  0  0  0  0  0  0  0  0  0  0
   12.0833  -19.6649   25.3270 C   0  0  0  0  0  0  0  0  0  0  0  0
   11.0205  -20.3590   25.4768 O   0  0  0  0  0  0  0  0  0  0  0  0
   12.3080  -19.0741   23.9924 C   0  0  0  0  0  0  0  0  0  0  0  0
   11.3851  -17.9738   23.6070 C   0  0  0  0  0  0  0  0  0  0  0  0
   11.6953  -16.6105   24.1419 C   0  0  2  0  0  0  0  0  0  0  0  0
   10.6818  -15.6556   23.6907 N   0  0  0  0  0  0  0  0  0  0  0  0
   13.0449  -16.1018   24.0746 C   0  0  0  0  0  0  0  0  0  0  0  0
   14.0669  -16.5072   24.9700 O   0  0  0  0  0  0  0  0  0  0  0  0
   13.4575  -15.2611   23.2340 O   0  0  0  0  0  0  0  0  0  0  0  0
  2  1  1  6
  2  3  1  0
  4  5  2  0
  4  2  1  0
  6  4  1  0
  7  6  1  0
  7  8  1  1
  9  8  1  0
  9 10  1  0
 10 11  2  0
 10 14  1  0
 12  7  1  0
 12 21  1  0
 13 12  2  0
 16 17  2  0
 16 15  1  0
 18 16  1  0
 20 19  1  6
 19 18  1  0
 20 21  1  0
 20 22  1  0
 22 23  1  0
 24 22  2  0
M  END
$$$$
