AEQ.pdb
     RDKit          3D

 24 23  0  0  1  0  0  0  0  0999 V2000
    6.6172  -20.2230   21.2502 C   0  0  0  0  0  0  0  0  0  0  0  0
    6.8832  -19.3326   22.4263 C   0  0  2  0  0  0  0  0  0  0  0  0
    5.7212  -18.5386   22.7592 N   0  0  0  0  0  0  0  0  0  0  0  0
    8.0476  -18.4428   22.1079 C   0  0  0  0  0  0  0  0  0  0  0  0
    9.1736  -18.9420   21.8588 O   0  0  0  0  0  0  0  0  0  0  0  0
    7.9075  -17.0343   22.0806 N   0  0  0  0  0  0  0  0  0  0  0  0
    9.0413  -16.1820   21.7416 C   0  0  1  0  0  0  0  0  0  0  0  0
    8.6097  -15.2617   20.6217 C   0  0  0  0  0  0  0  0  0  0  0  0
    8.4479  -16.0062   19.3208 C   0  0  0  0  0  0  0  0  0  0  0  0
    8.1053  -15.0604   18.2357 C   0  0  0  0  0  0  0  0  0  0  0  0
    8.1061  -13.8322   18.4612 O   0  0  0  0  0  0  0  0  0  0  0  0
    9.3777  -15.3225   22.9225 C   0  0  0  0  0  0  0  0  0  0  0  0
    9.4278  -14.0693   22.8301 O   0  0  0  0  0  0  0  0  0  0  0  0
    7.7875  -15.5256   16.9860 O   0  0  0  0  0  0  0  0  0  0  0  0
    5.8079  -12.3851   25.6655 N   0  0  0  0  0  0  0  0  0  0  0  0
    6.6991  -13.0947   26.4983 C   0  0  0  0  0  0  0  0  0  0  0  0
    7.3860  -12.4539   27.3651 O   0  0  0  0  0  0  0  0  0  0  0  0
    6.8959  -14.5572   26.4443 C   0  0  0  0  0  0  0  0  0  0  0  0
    7.6337  -15.0685   25.2588 C   0  0  0  0  0  0  0  0  0  0  0  0
    9.0863  -15.3781   25.4463 C   0  0  2  0  0  0  0  0  0  0  0  0
    9.6541  -15.8816   24.1947 N   0  0  0  0  0  0  0  0  0  0  0  0
    9.5214  -16.1037   26.6162 C   0  0  0  0  0  0  0  0  0  0  0  0
    9.9269  -15.4626   27.8142 O   0  0  0  0  0  0  0  0  0  0  0  0
    9.5890  -17.3572   26.7034 O   0  0  0  0  0  0  0  0  0  0  0  0
  2  1  1  6
  2  3  1  0
  4  5  2  0
  4  2  1  0
  6  4  1  0
  7  6  1  0
  7  8  1  6
  9  8  1  0
  9 10  1  0
 10 11  2  0
 10 14  1  0
 12  7  1  0
 12 21  1  0
 13 12  2  0
 16 17  2  0
 16 15  1  0
 18 16  1  0
 20 19  1  6
 19 18  1  0
 20 21  1  0
 20 22  1  0
 22 23  1  0
 24 22  2  0
M  END
$$$$
