AEQ.pdb
     RDKit          3D

 24 23  0  0  1  0  0  0  0  0999 V2000
    6.7641  -13.4587   18.9966 C   0  0  0  0  0  0  0  0  0  0  0  0
    7.9795  -13.1988   19.8345 C   0  0  2  0  0  0  0  0  0  0  0  0
    9.1685  -13.0905   19.0184 N   0  0  0  0  0  0  0  0  0  0  0  0
    8.1304  -14.3111   20.8289 C   0  0  0  0  0  0  0  0  0  0  0  0
    7.1850  -14.5949   21.6066 O   0  0  0  0  0  0  0  0  0  0  0  0
    9.3288  -15.0601   20.9143 N   0  0  0  0  0  0  0  0  0  0  0  0
    9.4988  -16.0731   21.9495 C   0  0  1  0  0  0  0  0  0  0  0  0
   10.6880  -16.9272   21.5702 C   0  0  0  0  0  0  0  0  0  0  0  0
   10.8666  -18.0851   22.5189 C   0  0  0  0  0  0  0  0  0  0  0  0
   12.0461  -18.8862   22.1232 C   0  0  0  0  0  0  0  0  0  0  0  0
   13.0514  -18.9159   22.8632 O   0  0  0  0  0  0  0  0  0  0  0  0
    9.8288  -15.3972   23.2460 C   0  0  0  0  0  0  0  0  0  0  0  0
   10.3184  -14.2393   23.2773 O   0  0  0  0  0  0  0  0  0  0  0  0
   12.0401  -19.5947   20.9496 O   0  0  0  0  0  0  0  0  0  0  0  0
    5.7557  -12.0308   27.3289 N   0  0  0  0  0  0  0  0  0  0  0  0
    6.5969  -12.5893   26.3430 C   0  0  0  0  0  0  0  0  0  0  0  0
    6.4313  -12.2549   25.1205 O   0  0  0  0  0  0  0  0  0  0  0  0
    7.6827  -13.5486   26.6279 C   0  0  0  0  0  0  0  0  0  0  0  0
    8.2032  -14.3045   25.4579 C   0  0  0  0  0  0  0  0  0  0  0  0
    9.2783  -15.3113   25.7253 C   0  0  2  0  0  0  0  0  0  0  0  0
    9.6047  -16.0309   24.4933 N   0  0  0  0  0  0  0  0  0  0  0  0
    9.1946  -16.1601   26.8903 C   0  0  0  0  0  0  0  0  0  0  0  0
    8.8321  -17.5292   26.8219 O   0  0  0  0  0  0  0  0  0  0  0  0
    9.4280  -15.7901   28.0702 O   0  0  0  0  0  0  0  0  0  0  0  0
  2  1  1  6
  2  3  1  0
  4  5  2  0
  4  2  1  0
  6  4  1  0
  7  6  1  0
  7  8  1  6
  9  8  1  0
  9 10  1  0
 10 11  2  0
 10 14  1  0
 12  7  1  0
 12 21  1  0
 13 12  2  0
 16 17  2  0
 16 15  1  0
 18 16  1  0
 20 19  1  6
 19 18  1  0
 20 21  1  0
 20 22  1  0
 22 23  1  0
 24 22  2  0
M  END
$$$$
