ATR.pdb
     RDKit          3D

 24 23  0  0  1  0  0  0  0  0999 V2000
    8.4341  -17.0523   14.8261 C   0  0  0  0  0  0  0  0  0  0  0  0
    7.8949  -15.6450   14.9880 C   0  0  2  0  0  0  0  0  0  0  0  0
    7.8324  -14.9978   13.7063 N   0  0  0  0  0  0  0  0  0  0  0  0
    8.7334  -14.8356   15.9002 C   0  0  0  0  0  0  0  0  0  0  0  0
    9.7027  -14.1495   15.4411 O   0  0  0  0  0  0  0  0  0  0  0  0
    7.2005  -12.8196   18.9127 C   0  0  0  0  0  0  0  0  0  0  0  0
    8.3545  -13.7126   19.3852 C   0  0  1  0  0  0  0  0  0  0  0  0
    7.7831  -14.8358   19.9311 O   0  0  0  0  0  0  0  0  0  0  0  0
    9.2159  -13.9934   18.1914 C   0  0  2  0  0  0  0  0  0  0  0  0
    8.4489  -14.8308   17.2869 N   0  0  0  0  0  0  0  0  0  0  0  0
   10.4391  -14.7414   18.5637 C   0  0  0  0  0  0  0  0  0  0  0  0
   10.4957  -16.0139   18.4886 O   0  0  0  0  0  0  0  0  0  0  0  0
   18.1659  -15.3628   17.3041 N   0  0  0  0  0  0  0  0  0  0  0  0
   18.3937  -15.4840   18.6961 C   0  0  0  0  0  0  0  0  0  0  0  0
   19.3141  -16.2829   19.1803 N   0  0  0  0  0  0  0  0  0  0  0  0
   17.6588  -14.7645   19.6760 N   0  0  0  0  0  0  0  0  0  0  0  0
   16.5483  -13.8983   19.3438 C   0  0  0  0  0  0  0  0  0  0  0  0
   15.2885  -14.7454   19.5401 C   0  0  0  0  0  0  0  0  0  0  0  0
   14.0518  -13.9707   19.2096 C   0  0  0  0  0  0  0  0  0  0  0  0
   12.8502  -14.8675   19.3292 C   0  0  2  0  0  0  0  0  0  0  0  0
   11.6280  -14.1187   19.0261 N   0  0  0  0  0  0  0  0  0  0  0  0
   12.7082  -15.3214   20.7159 C   0  0  0  0  0  0  0  0  0  0  0  0
   13.4411  -16.3925   21.1816 O   0  0  0  0  0  0  0  0  0  0  0  0
   11.9321  -14.7682   21.5163 O   0  0  0  0  0  0  0  0  0  0  0  0
  2  1  1  6
  2  3  1  0
  4  5  2  0
  4  2  1  0
  7  6  1  6
  7  8  1  0
  7  9  1  0
  9 10  1  6
 10  4  1  0
 11 21  1  0
 11  9  1  0
 12 11  2  0
 14 13  1  0
 15 14  2  0
 16 14  1  0
 17 16  1  0
 18 17  1  0
 19 18  1  0
 20 19  1  1
 20 21  1  0
 22 20  1  0
 23 22  1  0
 24 22  2  0
M  END
$$$$
