ATR.pdb
     RDKit          3D

 24 23  0  0  1  0  0  0  0  0999 V2000
    1.7022  -19.2126   23.0521 C   0  0  0  0  0  0  0  0  0  0  0  0
    2.2726  -19.6498   21.7176 C   0  0  2  0  0  0  0  0  0  0  0  0
    1.7188  -20.9228   21.3457 N   0  0  0  0  0  0  0  0  0  0  0  0
    3.7482  -19.7554   21.7574 C   0  0  0  0  0  0  0  0  0  0  0  0
    4.3040  -20.8361   22.1369 O   0  0  0  0  0  0  0  0  0  0  0  0
    5.9560  -18.2894   19.0395 C   0  0  0  0  0  0  0  0  0  0  0  0
    6.5314  -17.8102   20.3779 C   0  0  1  0  0  0  0  0  0  0  0  0
    6.1566  -16.4964   20.5181 O   0  0  0  0  0  0  0  0  0  0  0  0
    5.9847  -18.7105   21.4440 C   0  0  2  0  0  0  0  0  0  0  0  0
    4.5363  -18.6449   21.3703 N   0  0  0  0  0  0  0  0  0  0  0  0
    6.3839  -18.2602   22.7976 C   0  0  0  0  0  0  0  0  0  0  0  0
    5.5784  -17.6276   23.5584 O   0  0  0  0  0  0  0  0  0  0  0  0
    8.8034  -21.6650   30.2437 N   0  0  0  0  0  0  0  0  0  0  0  0
    9.4661  -20.4280   30.0569 C   0  0  0  0  0  0  0  0  0  0  0  0
   10.3174  -19.9585   30.9371 N   0  0  0  0  0  0  0  0  0  0  0  0
    9.2719  -19.5988   28.9201 N   0  0  0  0  0  0  0  0  0  0  0  0
    8.0515  -19.6075   28.1424 C   0  0  0  0  0  0  0  0  0  0  0  0
    8.2445  -18.5466   27.0559 C   0  0  0  0  0  0  0  0  0  0  0  0
    7.7807  -19.0398   25.7216 C   0  0  0  0  0  0  0  0  0  0  0  0
    8.0643  -17.9979   24.6746 C   0  0  2  0  0  0  0  0  0  0  0  0
    7.6704  -18.4897   23.3519 N   0  0  0  0  0  0  0  0  0  0  0  0
    9.5079  -17.7544   24.5977 C   0  0  0  0  0  0  0  0  0  0  0  0
   10.1064  -16.8221   25.4185 O   0  0  0  0  0  0  0  0  0  0  0  0
   10.2403  -18.3685   23.8006 O   0  0  0  0  0  0  0  0  0  0  0  0
  2  1  1  1
  2  3  1  0
  4  5  2  0
  4  2  1  0
  7  6  1  6
  7  8  1  0
  7  9  1  0
  9 10  1  1
 10  4  1  0
 11 21  1  0
 11  9  1  0
 12 11  2  0
 14 13  1  0
 15 14  2  0
 16 14  1  0
 17 16  1  0
 18 17  1  0
 19 18  1  0
 20 19  1  1
 20 21  1  0
 22 20  1  0
 23 22  1  0
 24 22  2  0
M  END
$$$$
