ATR.pdb
     RDKit          3D

 24 23  0  0  1  0  0  0  0  0999 V2000
    8.1992  -12.2061   19.9059 C   0  0  0  0  0  0  0  0  0  0  0  0
    8.5909  -13.0218   18.6898 C   0  0  2  0  0  0  0  0  0  0  0  0
    7.4129  -13.4021   17.9595 N   0  0  0  0  0  0  0  0  0  0  0  0
    9.3450  -14.2392   19.0628 C   0  0  0  0  0  0  0  0  0  0  0  0
    8.7412  -15.3521   19.1964 O   0  0  0  0  0  0  0  0  0  0  0  0
   11.9948  -15.4827   17.1108 C   0  0  0  0  0  0  0  0  0  0  0  0
   12.6368  -15.3732   18.4993 C   0  0  1  0  0  0  0  0  0  0  0  0
   13.3917  -14.2260   18.4930 O   0  0  0  0  0  0  0  0  0  0  0  0
   11.5239  -15.3574   19.5030 C   0  0  2  0  0  0  0  0  0  0  0  0
   10.7429  -14.1560   19.2700 N   0  0  0  0  0  0  0  0  0  0  0  0
   12.0395  -15.2931   20.8901 C   0  0  0  0  0  0  0  0  0  0  0  0
   12.4842  -14.2068   21.3903 O   0  0  0  0  0  0  0  0  0  0  0  0
    9.5207  -20.7960   22.0065 N   0  0  0  0  0  0  0  0  0  0  0  0
   10.7587  -21.4524   22.2080 C   0  0  0  0  0  0  0  0  0  0  0  0
   11.1302  -22.4718   21.4713 N   0  0  0  0  0  0  0  0  0  0  0  0
   11.6930  -21.0731   23.2085 N   0  0  0  0  0  0  0  0  0  0  0  0
   11.5344  -19.8852   24.0196 C   0  0  0  0  0  0  0  0  0  0  0  0
   12.1607  -18.7452   23.2125 C   0  0  0  0  0  0  0  0  0  0  0  0
   12.1133  -17.4526   23.9643 C   0  0  0  0  0  0  0  0  0  0  0  0
   12.6680  -16.3504   23.1043 C   0  0  2  0  0  0  0  0  0  0  0  0
   12.0819  -16.4117   21.7630 N   0  0  0  0  0  0  0  0  0  0  0  0
   14.1095  -16.5448   22.9206 C   0  0  0  0  0  0  0  0  0  0  0  0
   14.9888  -16.2842   23.9501 O   0  0  0  0  0  0  0  0  0  0  0  0
   14.5906  -16.9453   21.8450 O   0  0  0  0  0  0  0  0  0  0  0  0
  2  1  1  1
  2  3  1  0
  4  5  2  0
  4  2  1  0
  7  6  1  6
  7  8  1  0
  7  9  1  0
  9 10  1  6
 10  4  1  0
 11 21  1  0
 11  9  1  0
 12 11  2  0
 14 13  1  0
 15 14  2  0
 16 14  1  0
 17 16  1  0
 18 17  1  0
 19 18  1  0
 20 19  1  1
 20 21  1  0
 22 20  1  0
 23 22  1  0
 24 22  2  0
M  END
$$$$
