ATR.pdb
     RDKit          3D

 24 23  0  0  1  0  0  0  0  0999 V2000
    9.2825  -19.0979   18.1918 C   0  0  0  0  0  0  0  0  0  0  0  0
    9.5697  -17.7656   17.5285 C   0  0  2  0  0  0  0  0  0  0  0  0
   10.8307  -17.8262   16.8417 N   0  0  0  0  0  0  0  0  0  0  0  0
    9.6039  -16.6581   18.5094 C   0  0  0  0  0  0  0  0  0  0  0  0
   10.6861  -16.3714   19.1157 O   0  0  0  0  0  0  0  0  0  0  0  0
    7.2324  -12.8548   20.5030 C   0  0  0  0  0  0  0  0  0  0  0  0
    7.2422  -13.9713   19.4515 C   0  0  1  0  0  0  0  0  0  0  0  0
    7.2891  -13.3548   18.2252 O   0  0  0  0  0  0  0  0  0  0  0  0
    8.4306  -14.8389   19.7364 C   0  0  2  0  0  0  0  0  0  0  0  0
    8.4237  -15.9204   18.7680 N   0  0  0  0  0  0  0  0  0  0  0  0
    8.3531  -15.4464   21.0852 C   0  0  0  0  0  0  0  0  0  0  0  0
    7.6650  -16.4974   21.3085 O   0  0  0  0  0  0  0  0  0  0  0  0
   10.1143  -13.8604   29.4450 N   0  0  0  0  0  0  0  0  0  0  0  0
   10.3637  -15.2389   29.2403 C   0  0  0  0  0  0  0  0  0  0  0  0
   10.2376  -16.1165   30.2066 N   0  0  0  0  0  0  0  0  0  0  0  0
   10.7660  -15.7855   27.9925 N   0  0  0  0  0  0  0  0  0  0  0  0
   10.8752  -14.9919   26.7873 C   0  0  0  0  0  0  0  0  0  0  0  0
    9.8254  -15.5529   25.8249 C   0  0  0  0  0  0  0  0  0  0  0  0
    9.8562  -14.8433   24.5080 C   0  0  0  0  0  0  0  0  0  0  0  0
    8.8936  -15.5029   23.5591 C   0  0  2  0  0  0  0  0  0  0  0  0
    9.0243  -14.9216   22.2206 N   0  0  0  0  0  0  0  0  0  0  0  0
    7.5168  -15.2289   23.9819 C   0  0  0  0  0  0  0  0  0  0  0  0
    6.7782  -16.1941   24.6330 O   0  0  0  0  0  0  0  0  0  0  0  0
    6.9670  -14.1322   23.7728 O   0  0  0  0  0  0  0  0  0  0  0  0
  2  1  1  1
  2  3  1  0
  4  5  2  0
  4  2  1  0
  7  6  1  1
  7  8  1  0
  7  9  1  0
  9 10  1  6
 10  4  1  0
 11 21  1  0
 11  9  1  0
 12 11  2  0
 14 13  1  0
 15 14  2  0
 16 14  1  0
 17 16  1  0
 18 17  1  0
 19 18  1  0
 20 19  1  1
 20 21  1  0
 22 20  1  0
 23 22  1  0
 24 22  2  0
M  END
$$$$
