ATR.pdb
     RDKit          3D

 24 23  0  0  1  0  0  0  0  0999 V2000
    8.6718  -12.2174   18.6900 C   0  0  0  0  0  0  0  0  0  0  0  0
    8.4148  -13.5893   18.0988 C   0  0  2  0  0  0  0  0  0  0  0  0
    7.2970  -13.5286   17.1974 N   0  0  0  0  0  0  0  0  0  0  0  0
    8.1394  -14.5976   19.1463 C   0  0  0  0  0  0  0  0  0  0  0  0
    6.9604  -14.7405   19.6051 O   0  0  0  0  0  0  0  0  0  0  0  0
    8.6260  -18.0178   18.8682 C   0  0  0  0  0  0  0  0  0  0  0  0
    9.4296  -17.7154   20.1390 C   0  0  1  0  0  0  0  0  0  0  0  0
   10.7540  -17.7185   19.7756 O   0  0  0  0  0  0  0  0  0  0  0  0
    8.9511  -16.3954   20.6632 C   0  0  2  0  0  0  0  0  0  0  0  0
    9.1976  -15.4016   19.6340 N   0  0  0  0  0  0  0  0  0  0  0  0
    9.7015  -15.9826   21.8718 C   0  0  0  0  0  0  0  0  0  0  0  0
   10.7671  -15.2851   21.7935 O   0  0  0  0  0  0  0  0  0  0  0  0
   10.2326  -16.5310   29.6498 N   0  0  0  0  0  0  0  0  0  0  0  0
   10.1714  -15.1301   29.8448 C   0  0  0  0  0  0  0  0  0  0  0  0
   10.6724  -14.5569   30.9126 N   0  0  0  0  0  0  0  0  0  0  0  0
    9.5724  -14.2355   28.9182 N   0  0  0  0  0  0  0  0  0  0  0  0
    8.7511  -14.6837   27.8143 C   0  0  0  0  0  0  0  0  0  0  0  0
    9.7266  -15.0438   26.6910 C   0  0  0  0  0  0  0  0  0  0  0  0
    9.0019  -15.4566   25.4488 C   0  0  0  0  0  0  0  0  0  0  0  0
    9.9987  -15.8168   24.3817 C   0  0  2  0  0  0  0  0  0  0  0  0
    9.3070  -16.3210   23.1927 N   0  0  0  0  0  0  0  0  0  0  0  0
   10.8466  -16.9178   24.8487 C   0  0  0  0  0  0  0  0  0  0  0  0
   12.0228  -16.6605   25.5206 O   0  0  0  0  0  0  0  0  0  0  0  0
   10.5449  -18.1103   24.6598 O   0  0  0  0  0  0  0  0  0  0  0  0
  2  1  1  1
  2  3  1  0
  4  5  2  0
  4  2  1  0
  7  6  1  6
  7  8  1  0
  7  9  1  0
  9 10  1  6
 10  4  1  0
 11 21  1  0
 11  9  1  0
 12 11  2  0
 14 13  1  0
 15 14  2  0
 16 14  1  0
 17 16  1  0
 18 17  1  0
 19 18  1  0
 20 19  1  1
 20 21  1  0
 22 20  1  0
 23 22  1  0
 24 22  2  0
M  END
$$$$
