ATR.pdb
     RDKit          3D

 24 23  0  0  1  0  0  0  0  0999 V2000
    8.4887  -12.1112   19.2180 C   0  0  0  0  0  0  0  0  0  0  0  0
    8.4540  -13.4672   18.5414 C   0  0  2  0  0  0  0  0  0  0  0  0
    7.4207  -13.4860   17.5427 N   0  0  0  0  0  0  0  0  0  0  0  0
    8.2131  -14.5599   19.5099 C   0  0  0  0  0  0  0  0  0  0  0  0
    7.0627  -15.0987   19.5961 O   0  0  0  0  0  0  0  0  0  0  0  0
    8.1101  -17.3051   19.1746 C   0  0  0  0  0  0  0  0  0  0  0  0
    9.2905  -17.3729   20.1515 C   0  0  1  0  0  0  0  0  0  0  0  0
   10.4327  -17.3154   19.3912 O   0  0  0  0  0  0  0  0  0  0  0  0
    9.1430  -16.2270   21.1061 C   0  0  2  0  0  0  0  0  0  0  0  0
    9.2719  -15.0009   20.3396 N   0  0  0  0  0  0  0  0  0  0  0  0
   10.2127  -16.2279   22.1308 C   0  0  0  0  0  0  0  0  0  0  0  0
   11.3285  -15.6407   21.9356 O   0  0  0  0  0  0  0  0  0  0  0  0
    9.1012  -14.5320   28.1195 N   0  0  0  0  0  0  0  0  0  0  0  0
   10.1372  -14.8882   29.0162 C   0  0  0  0  0  0  0  0  0  0  0  0
   10.1772  -14.4314   30.2449 N   0  0  0  0  0  0  0  0  0  0  0  0
   11.2075  -15.7564   28.6720 N   0  0  0  0  0  0  0  0  0  0  0  0
   11.8439  -15.7396   27.3725 C   0  0  0  0  0  0  0  0  0  0  0  0
   11.6409  -17.1418   26.7931 C   0  0  0  0  0  0  0  0  0  0  0  0
   10.5545  -17.1564   25.7644 C   0  0  0  0  0  0  0  0  0  0  0  0
   11.1301  -16.8027   24.4206 C   0  0  2  0  0  0  0  0  0  0  0  0
   10.0897  -16.8690   23.3913 N   0  0  0  0  0  0  0  0  0  0  0  0
   12.1369  -17.7970   24.0370 C   0  0  0  0  0  0  0  0  0  0  0  0
   11.7561  -19.0140   23.5127 O   0  0  0  0  0  0  0  0  0  0  0  0
   13.3566  -17.5870   24.1677 O   0  0  0  0  0  0  0  0  0  0  0  0
  2  1  1  1
  2  3  1  0
  4  5  2  0
  4  2  1  0
  7  6  1  6
  7  8  1  0
  7  9  1  0
  9 10  1  6
 10  4  1  0
 11 21  1  0
 11  9  1  0
 12 11  2  0
 14 13  1  0
 15 14  2  0
 16 14  1  0
 17 16  1  0
 18 17  1  0
 19 18  1  0
 20 19  1  1
 20 21  1  0
 22 20  1  0
 23 22  1  0
 24 22  2  0
M  END
$$$$
