ATR.pdb
     RDKit          3D

 24 23  0  0  1  0  0  0  0  0999 V2000
   14.5019  -16.8226   16.0371 C   0  0  0  0  0  0  0  0  0  0  0  0
   14.0183  -18.2591   16.0434 C   0  0  2  0  0  0  0  0  0  0  0  0
   13.4704  -18.5934   14.7575 N   0  0  0  0  0  0  0  0  0  0  0  0
   12.9913  -18.4899   17.0836 C   0  0  0  0  0  0  0  0  0  0  0  0
   11.7605  -18.2916   16.8250 O   0  0  0  0  0  0  0  0  0  0  0  0
   13.4402  -21.5190   19.4514 C   0  0  0  0  0  0  0  0  0  0  0  0
   13.0371  -20.2969   20.2858 C   0  0  1  0  0  0  0  0  0  0  0  0
   14.1856  -19.8282   20.8751 O   0  0  0  0  0  0  0  0  0  0  0  0
   12.3936  -19.3155   19.3536 C   0  0  2  0  0  0  0  0  0  0  0  0
   13.3886  -18.9325   18.3682 N   0  0  0  0  0  0  0  0  0  0  0  0
   11.9699  -18.0855   20.0620 C   0  0  0  0  0  0  0  0  0  0  0  0
   12.7130  -17.0494   20.1092 O   0  0  0  0  0  0  0  0  0  0  0  0
    8.6286  -11.7086   19.6973 N   0  0  0  0  0  0  0  0  0  0  0  0
    7.8638  -12.8830   19.4974 C   0  0  0  0  0  0  0  0  0  0  0  0
    7.0337  -13.0059   18.4896 N   0  0  0  0  0  0  0  0  0  0  0  0
    7.9253  -14.0136   20.3553 N   0  0  0  0  0  0  0  0  0  0  0  0
    8.7613  -14.0577   21.5356 C   0  0  0  0  0  0  0  0  0  0  0  0
    8.4408  -15.3882   22.2213 C   0  0  0  0  0  0  0  0  0  0  0  0
    8.8425  -16.5521   21.3713 C   0  0  0  0  0  0  0  0  0  0  0  0
   10.3325  -16.7417   21.4507 C   0  0  2  0  0  0  0  0  0  0  0  0
   10.7265  -17.9577   20.7348 N   0  0  0  0  0  0  0  0  0  0  0  0
   10.7304  -16.9519   22.8460 C   0  0  0  0  0  0  0  0  0  0  0  0
   10.0684  -17.8702   23.6331 O   0  0  0  0  0  0  0  0  0  0  0  0
   11.6659  -16.3193   23.3689 O   0  0  0  0  0  0  0  0  0  0  0  0
  2  1  1  6
  2  3  1  0
  4  5  2  0
  4  2  1  0
  7  6  1  6
  7  8  1  0
  7  9  1  0
  9 10  1  6
 10  4  1  0
 11 21  1  0
 11  9  1  0
 12 11  2  0
 14 13  1  0
 15 14  2  0
 16 14  1  0
 17 16  1  0
 18 17  1  0
 19 18  1  0
 20 19  1  1
 20 21  1  0
 22 20  1  0
 23 22  1  0
 24 22  2  0
M  END
$$$$
