ATR.pdb
     RDKit          3D

 24 23  0  0  1  0  0  0  0  0999 V2000
   13.3969  -17.0936   13.2013 C   0  0  0  0  0  0  0  0  0  0  0  0
   12.2711  -18.0586   13.5158 C   0  0  2  0  0  0  0  0  0  0  0  0
   11.0670  -17.6322   12.8571 N   0  0  0  0  0  0  0  0  0  0  0  0
   12.0199  -18.1564   14.9709 C   0  0  0  0  0  0  0  0  0  0  0  0
   11.0247  -17.5571   15.4918 O   0  0  0  0  0  0  0  0  0  0  0  0
   13.0962  -20.6391   19.0641 C   0  0  0  0  0  0  0  0  0  0  0  0
   13.2817  -20.4601   17.5522 C   0  0  1  0  0  0  0  0  0  0  0  0
   12.7840  -21.5943   16.9590 O   0  0  0  0  0  0  0  0  0  0  0  0
   12.5576  -19.2075   17.1613 C   0  0  2  0  0  0  0  0  0  0  0  0
   12.8952  -18.9216   15.7786 N   0  0  0  0  0  0  0  0  0  0  0  0
   12.9910  -18.0487   17.9758 C   0  0  0  0  0  0  0  0  0  0  0  0
   14.1316  -17.5015   17.8096 O   0  0  0  0  0  0  0  0  0  0  0  0
    7.1218  -12.9952   20.6716 N   0  0  0  0  0  0  0  0  0  0  0  0
    8.3304  -13.0020   19.9345 C   0  0  0  0  0  0  0  0  0  0  0  0
    8.6706  -12.0055   19.1529 N   0  0  0  0  0  0  0  0  0  0  0  0
    9.2664  -14.0698   19.9744 N   0  0  0  0  0  0  0  0  0  0  0  0
    8.9976  -15.3237   20.6448 C   0  0  0  0  0  0  0  0  0  0  0  0
   10.2493  -16.1805   20.4394 C   0  0  0  0  0  0  0  0  0  0  0  0
   11.3957  -15.3619   19.9355 C   0  0  0  0  0  0  0  0  0  0  0  0
   12.5887  -16.2506   19.7138 C   0  0  2  0  0  0  0  0  0  0  0  0
   12.1905  -17.4605   18.9899 N   0  0  0  0  0  0  0  0  0  0  0  0
   13.1097  -16.7098   21.0049 C   0  0  0  0  0  0  0  0  0  0  0  0
   13.8608  -15.8677   21.7974 O   0  0  0  0  0  0  0  0  0  0  0  0
   12.8998  -17.8601   21.4311 O   0  0  0  0  0  0  0  0  0  0  0  0
  2  1  1  1
  2  3  1  0
  4  5  2  0
  4  2  1  0
  7  6  1  1
  7  8  1  0
  7  9  1  0
  9 10  1  6
 10  4  1  0
 11 21  1  0
 11  9  1  0
 12 11  2  0
 14 13  1  0
 15 14  2  0
 16 14  1  0
 17 16  1  0
 18 17  1  0
 19 18  1  0
 20 19  1  1
 20 21  1  0
 22 20  1  0
 23 22  1  0
 24 22  2  0
M  END
$$$$
