ATR.pdb
     RDKit          3D

 24 23  0  0  1  0  0  0  0  0999 V2000
   13.6261  -14.8699   18.9876 C   0  0  0  0  0  0  0  0  0  0  0  0
   12.2976  -14.4978   18.3599 C   0  0  2  0  0  0  0  0  0  0  0  0
   12.5086  -13.5468   17.3031 N   0  0  0  0  0  0  0  0  0  0  0  0
   11.3620  -13.9220   19.3514 C   0  0  0  0  0  0  0  0  0  0  0  0
   11.4492  -12.6946   19.6784 O   0  0  0  0  0  0  0  0  0  0  0  0
    7.9082  -13.6163   19.0311 C   0  0  0  0  0  0  0  0  0  0  0  0
    8.0401  -14.4468   20.3137 C   0  0  1  0  0  0  0  0  0  0  0  0
    7.8229  -15.7553   19.9577 O   0  0  0  0  0  0  0  0  0  0  0  0
    9.4086  -14.1919   20.8690 C   0  0  2  0  0  0  0  0  0  0  0  0
   10.3697  -14.7471   19.9333 N   0  0  0  0  0  0  0  0  0  0  0  0
    9.6064  -14.8729   22.1695 C   0  0  0  0  0  0  0  0  0  0  0  0
   10.3064  -15.9349   22.2704 O   0  0  0  0  0  0  0  0  0  0  0  0
   11.1471  -16.0012   28.8625 N   0  0  0  0  0  0  0  0  0  0  0  0
   10.2903  -15.3855   29.8065 C   0  0  0  0  0  0  0  0  0  0  0  0
   10.3763  -15.6410   31.0899 N   0  0  0  0  0  0  0  0  0  0  0  0
    9.2786  -14.4524   29.4548 N   0  0  0  0  0  0  0  0  0  0  0  0
    9.3393  -13.6448   28.2556 C   0  0  0  0  0  0  0  0  0  0  0  0
    9.5262  -14.6313   27.1002 C   0  0  0  0  0  0  0  0  0  0  0  0
    9.1402  -14.0192   25.7906 C   0  0  0  0  0  0  0  0  0  0  0  0
    9.3584  -15.0165   24.6861 C   0  0  2  0  0  0  0  0  0  0  0  0
    9.0456  -14.4112   23.3890 N   0  0  0  0  0  0  0  0  0  0  0  0
    8.4256  -16.1369   24.8404 C   0  0  0  0  0  0  0  0  0  0  0  0
    8.7591  -17.2246   25.6193 O   0  0  0  0  0  0  0  0  0  0  0  0
    7.3131  -16.1524   24.2827 O   0  0  0  0  0  0  0  0  0  0  0  0
  2  1  1  1
  2  3  1  0
  4  5  2  0
  4  2  1  0
  7  6  1  6
  7  8  1  0
  7  9  1  0
  9 10  1  6
 10  4  1  0
 11 21  1  0
 11  9  1  0
 12 11  2  0
 14 13  1  0
 15 14  2  0
 16 14  1  0
 17 16  1  0
 18 17  1  0
 19 18  1  0
 20 19  1  1
 20 21  1  0
 22 20  1  0
 23 22  1  0
 24 22  2  0
M  END
$$$$
