RRP.pdb
     RDKit          3D

 30 30  0  0  1  0  0  0  0  0999 V2000
    8.3744  -14.0873   15.0606 N   0  0  0  0  0  0  0  0  0  0  0  0
    9.1329  -14.5107   16.1725 C   0  0  0  0  0  0  0  0  0  0  0  0
    9.5843  -15.7058   16.3156 N   0  0  0  0  0  0  0  0  0  0  0  0
    9.4085  -13.5589   17.1817 N   0  0  0  0  0  0  0  0  0  0  0  0
    9.0598  -13.9193   18.5584 C   0  0  0  0  0  0  0  0  0  0  0  0
    7.5888  -13.7400   18.7890 C   0  0  0  0  0  0  0  0  0  0  0  0
    7.1925  -14.1281   20.1553 C   0  0  0  0  0  0  0  0  0  0  0  0
    7.1394  -15.5824   20.4977 C   0  0  2  0  0  0  0  0  0  0  0  0
    6.2018  -16.3662   19.7626 N   0  0  0  0  0  0  0  0  0  0  0  0
    6.9235  -15.6624   21.9700 C   0  0  0  0  0  0  0  0  0  0  0  0
    5.8294  -15.2253   22.4264 O   0  0  0  0  0  0  0  0  0  0  0  0
   10.0938  -16.0001   17.1876 N   0  0  0  0  0  0  0  0  0  0  0  0
   10.3439  -20.1216   29.7340 C   0  0  0  0  0  0  0  0  0  0  0  0
    9.5348  -20.1962   28.5559 N   0  0  0  0  0  0  0  0  0  0  0  0
    9.2264  -21.3553   28.1196 N   0  0  0  0  0  0  0  0  0  0  0  0
    9.1163  -19.0178   27.9322 C   0  0  0  0  0  0  0  0  0  0  0  0
    8.1622  -19.0825   26.8217 C   0  0  0  0  0  0  0  0  0  0  0  0
    7.7487  -17.7094   26.3962 C   0  0  0  0  0  0  0  0  0  0  0  0
    7.8443  -17.4851   24.9442 C   0  0  1  0  0  0  0  0  0  0  0  0
    7.5774  -16.1765   24.3553 N   0  0  0  0  0  0  0  0  0  0  0  0
    7.8377  -16.1846   22.9048 C   0  0  0  0  0  0  0  0  0  0  0  0
    8.2437  -15.0039   24.8979 O   0  0  0  0  0  0  0  0  0  0  0  0
    9.4065  -14.6802   24.3933 N   0  0  0  0  0  0  0  0  0  0  0  0
    8.6603  -21.5884   27.2953 C   0  0  0  0  0  0  0  0  0  0  0  0
    7.7557  -14.1695   25.9265 C   0  0  0  0  0  0  0  0  0  0  0  0
    6.5636  -14.1250   26.7158 C   0  0  0  0  0  0  0  0  0  0  0  0
    6.1289  -12.6674   26.5386 C   0  0  1  0  0  0  0  0  0  0  0  0
    7.4518  -11.9525   26.6357 C   0  0  0  0  0  0  0  0  0  0  0  0
    8.5144  -12.9835   26.4071 O   0  0  0  0  0  0  0  0  0  0  0  0
    9.1771  -13.4085   27.6600 O   0  0  0  0  0  0  0  0  0  0  0  0
  2  1  1  0
  3  2  2  0
  4  2  1  0
  5  4  1  0
  6  5  1  0
  7  6  1  0
  8  9  1  6
  8  7  1  0
 10 11  2  0
 10  8  1  0
 12 13  1  0
 13 15  1  0
 13 14  2  0
 15 16  1  0
 17 16  1  0
 17 18  1  0
 19 18  1  6
 19 21  1  0
 19 20  1  0
 20 10  1  0
 21 23  1  0
 22 21  2  0
 23 27  1  0
 24 23  1  0
 25 24  1  0
 25 26  1  0
 26 27  1  0
 27 28  1  1
 28 30  2  0
 28 29  1  0
M  END
$$$$
