RRP.pdb
     RDKit          3D

 30 30  0  0  1  0  0  0  0  0999 V2000
   12.6491  -19.9362   18.2138 N   0  0  0  0  0  0  0  0  0  0  0  0
   14.0464  -19.7573   18.1329 C   0  0  0  0  0  0  0  0  0  0  0  0
   14.8110  -20.4459   17.3624 N   0  0  0  0  0  0  0  0  0  0  0  0
   14.6304  -18.7605   18.9488 N   0  0  0  0  0  0  0  0  0  0  0  0
   13.7245  -17.9254   19.7415 C   0  0  0  0  0  0  0  0  0  0  0  0
   13.6877  -18.3986   21.1642 C   0  0  0  0  0  0  0  0  0  0  0  0
   12.8376  -17.5405   22.0100 C   0  0  0  0  0  0  0  0  0  0  0  0
   11.3627  -17.5335   21.7657 C   0  0  2  0  0  0  0  0  0  0  0  0
   10.9387  -17.0306   20.5004 N   0  0  0  0  0  0  0  0  0  0  0  0
   10.7484  -16.8005   22.9086 C   0  0  0  0  0  0  0  0  0  0  0  0
   11.3027  -15.7286   23.2831 O   0  0  0  0  0  0  0  0  0  0  0  0
   15.8446  -20.2591   17.3042 N   0  0  0  0  0  0  0  0  0  0  0  0
    6.9091  -11.3950   24.7904 C   0  0  0  0  0  0  0  0  0  0  0  0
    6.0493  -11.9533   25.7891 N   0  0  0  0  0  0  0  0  0  0  0  0
    5.3380  -11.1481   26.4780 N   0  0  0  0  0  0  0  0  0  0  0  0
    6.0174  -13.3380   25.9743 C   0  0  0  0  0  0  0  0  0  0  0  0
    6.8428  -14.2038   25.1276 C   0  0  0  0  0  0  0  0  0  0  0  0
    6.7542  -15.6274   25.5779 C   0  0  0  0  0  0  0  0  0  0  0  0
    7.5841  -16.5517   24.7873 C   0  0  2  0  0  0  0  0  0  0  0  0
    9.0352  -16.4090   24.7233 N   0  0  0  0  0  0  0  0  0  0  0  0
    9.5975  -17.2001   23.6143 C   0  0  0  0  0  0  0  0  0  0  0  0
    9.8314  -16.7085   25.9022 O   0  0  0  0  0  0  0  0  0  0  0  0
   10.6958  -17.6867   25.8170 N   0  0  0  0  0  0  0  0  0  0  0  0
    4.7236  -11.3697   27.2702 C   0  0  0  0  0  0  0  0  0  0  0  0
    9.7645  -16.0413   27.1444 C   0  0  0  0  0  0  0  0  0  0  0  0
    8.9298  -15.0239   27.7048 C   0  0  0  0  0  0  0  0  0  0  0  0
    9.9667  -14.0256   28.2276 C   0  0  1  0  0  0  0  0  0  0  0  0
   10.9942  -14.9535   28.8222 C   0  0  0  0  0  0  0  0  0  0  0  0
   10.7381  -16.3087   28.2370 O   0  0  0  0  0  0  0  0  0  0  0  0
   10.0481  -17.2170   29.1795 O   0  0  0  0  0  0  0  0  0  0  0  0
  2  1  1  0
  3  2  2  0
  4  2  1  0
  5  4  1  0
  6  5  1  0
  7  6  1  0
  8  9  1  6
  8  7  1  0
 10 11  2  0
 10  8  1  0
 12 13  1  0
 13 15  1  0
 13 14  2  0
 15 16  1  0
 17 16  1  0
 17 18  1  0
 19 18  1  6
 19 21  1  0
 19 20  1  0
 20 10  1  0
 21 23  1  0
 22 21  2  0
 23 27  1  0
 24 23  1  0
 25 24  1  0
 25 26  1  0
 26 27  1  0
 27 28  1  1
 28 30  2  0
 28 29  1  0
M  END
$$$$
