RRP.pdb
     RDKit          3D

 30 30  0  0  1  0  0  0  0  0999 V2000
   13.8712  -17.8823   16.0328 N   0  0  0  0  0  0  0  0  0  0  0  0
   12.5446  -17.7470   16.4942 C   0  0  0  0  0  0  0  0  0  0  0  0
   11.5184  -18.1848   15.8557 N   0  0  0  0  0  0  0  0  0  0  0  0
   12.3419  -17.0921   17.7313 N   0  0  0  0  0  0  0  0  0  0  0  0
   12.0145  -17.9287   18.8887 C   0  0  0  0  0  0  0  0  0  0  0  0
   13.2431  -18.1918   19.7077 C   0  0  0  0  0  0  0  0  0  0  0  0
   13.3048  -17.3306   20.9031 C   0  0  0  0  0  0  0  0  0  0  0  0
   12.9309  -17.9176   22.2263 C   0  0  2  0  0  0  0  0  0  0  0  0
   12.3652  -19.2263   22.1947 N   0  0  0  0  0  0  0  0  0  0  0  0
   12.0417  -16.9249   22.8929 C   0  0  0  0  0  0  0  0  0  0  0  0
   12.5197  -15.7811   23.1373 O   0  0  0  0  0  0  0  0  0  0  0  0
   10.5625  -18.1979   16.2946 N   0  0  0  0  0  0  0  0  0  0  0  0
    7.2092  -12.2462   18.8733 C   0  0  0  0  0  0  0  0  0  0  0  0
    7.7223  -13.4665   19.4172 N   0  0  0  0  0  0  0  0  0  0  0  0
    8.3435  -14.2538   18.6276 N   0  0  0  0  0  0  0  0  0  0  0  0
    7.5295  -13.7516   20.7715 C   0  0  0  0  0  0  0  0  0  0  0  0
    8.1035  -14.9713   21.3465 C   0  0  0  0  0  0  0  0  0  0  0  0
    7.8596  -15.0289   22.8211 C   0  0  0  0  0  0  0  0  0  0  0  0
    8.5022  -16.1762   23.4836 C   0  0  2  0  0  0  0  0  0  0  0  0
    9.8881  -16.1169   23.9374 N   0  0  0  0  0  0  0  0  0  0  0  0
   10.7065  -17.1504   23.2788 C   0  0  0  0  0  0  0  0  0  0  0  0
   10.1737  -16.1950   25.3606 O   0  0  0  0  0  0  0  0  0  0  0  0
   11.0352  -17.0963   25.7571 N   0  0  0  0  0  0  0  0  0  0  0  0
    8.7677  -15.1623   18.8486 C   0  0  0  0  0  0  0  0  0  0  0  0
    9.6082  -15.3859   26.3696 C   0  0  0  0  0  0  0  0  0  0  0  0
    8.5437  -14.4322   26.4262 C   0  0  0  0  0  0  0  0  0  0  0  0
    9.2337  -13.2367   27.0894 C   0  0  1  0  0  0  0  0  0  0  0  0
   10.0549  -13.9228   28.1502 C   0  0  0  0  0  0  0  0  0  0  0  0
   10.1437  -15.3659   27.7575 O   0  0  0  0  0  0  0  0  0  0  0  0
    9.2422  -16.2304   28.5508 O   0  0  0  0  0  0  0  0  0  0  0  0
  2  1  1  0
  3  2  2  0
  4  2  1  0
  5  4  1  0
  6  5  1  0
  7  6  1  0
  8  9  1  6
  8  7  1  0
 10 11  2  0
 10  8  1  0
 12 13  1  0
 13 15  1  0
 13 14  2  0
 15 16  1  0
 17 16  1  0
 17 18  1  0
 19 18  1  6
 19 21  1  0
 19 20  1  0
 20 10  1  0
 21 23  1  0
 22 21  2  0
 23 27  1  0
 24 23  1  0
 25 24  1  0
 25 26  1  0
 26 27  1  0
 27 28  1  1
 28 30  2  0
 28 29  1  0
M  END
$$$$
