RRP.pdb
     RDKit          3D

 30 30  0  0  1  0  0  0  0  0999 V2000
    7.6769  -13.8100   15.2114 N   0  0  0  0  0  0  0  0  0  0  0  0
    8.2374  -13.6321   16.4940 C   0  0  0  0  0  0  0  0  0  0  0  0
    8.0915  -12.5647   17.1953 N   0  0  0  0  0  0  0  0  0  0  0  0
    9.0009  -14.6946   17.0314 N   0  0  0  0  0  0  0  0  0  0  0  0
    9.3961  -14.5932   18.4386 C   0  0  0  0  0  0  0  0  0  0  0  0
    9.1796  -15.9022   19.1379 C   0  0  0  0  0  0  0  0  0  0  0  0
    8.2305  -15.7787   20.2597 C   0  0  0  0  0  0  0  0  0  0  0  0
    7.9369  -16.9911   21.0837 C   0  0  2  0  0  0  0  0  0  0  0  0
    7.1719  -18.0123   20.4467 N   0  0  0  0  0  0  0  0  0  0  0  0
    7.3063  -16.5039   22.3429 C   0  0  0  0  0  0  0  0  0  0  0  0
    6.3871  -15.6428   22.2428 O   0  0  0  0  0  0  0  0  0  0  0  0
    8.5249  -12.4703   18.1491 N   0  0  0  0  0  0  0  0  0  0  0  0
    6.6380  -22.1582   28.5795 C   0  0  0  0  0  0  0  0  0  0  0  0
    6.8001  -22.0508   27.1616 N   0  0  0  0  0  0  0  0  0  0  0  0
    6.3143  -22.9817   26.4361 N   0  0  0  0  0  0  0  0  0  0  0  0
    7.4736  -20.9493   26.6270 C   0  0  0  0  0  0  0  0  0  0  0  0
    6.9576  -19.5978   26.8619 C   0  0  0  0  0  0  0  0  0  0  0  0
    7.0790  -18.7613   25.6278 C   0  0  0  0  0  0  0  0  0  0  0  0
    6.7007  -17.3524   25.8274 C   0  0  1  0  0  0  0  0  0  0  0  0
    7.0424  -16.3248   24.8489 N   0  0  0  0  0  0  0  0  0  0  0  0
    7.6473  -16.9201   23.6440 C   0  0  0  0  0  0  0  0  0  0  0  0
    7.8972  -15.2190   25.2487 O   0  0  0  0  0  0  0  0  0  0  0  0
    9.0992  -15.1659   24.7349 N   0  0  0  0  0  0  0  0  0  0  0  0
    6.3948  -23.0949   25.4188 C   0  0  0  0  0  0  0  0  0  0  0  0
    7.5559  -14.1843   26.1461 C   0  0  0  0  0  0  0  0  0  0  0  0
    6.3723  -13.8066   26.8548 C   0  0  0  0  0  0  0  0  0  0  0  0
    6.2516  -12.3245   26.4887 C   0  0  1  0  0  0  0  0  0  0  0  0
    7.6888  -11.8813   26.5807 C   0  0  0  0  0  0  0  0  0  0  0  0
    8.5248  -13.1235   26.5325 O   0  0  0  0  0  0  0  0  0  0  0  0
    9.0436  -13.5151   27.8618 O   0  0  0  0  0  0  0  0  0  0  0  0
  2  1  1  0
  3  2  2  0
  4  2  1  0
  5  4  1  0
  6  5  1  0
  7  6  1  0
  8  9  1  6
  8  7  1  0
 10 11  2  0
 10  8  1  0
 12 13  1  0
 13 15  1  0
 13 14  2  0
 15 16  1  0
 17 16  1  0
 17 18  1  0
 19 18  1  6
 19 21  1  0
 19 20  1  0
 20 10  1  0
 21 23  1  0
 22 21  2  0
 23 27  1  0
 24 23  1  0
 25 24  1  0
 25 26  1  0
 26 27  1  0
 27 28  1  1
 28 30  2  0
 28 29  1  0
M  END
$$$$
