RRP.pdb
     RDKit          3D

 30 30  0  0  1  0  0  0  0  0999 V2000
   12.7765  -22.7744   20.4608 N   0  0  0  0  0  0  0  0  0  0  0  0
   13.3307  -22.1582   21.6028 C   0  0  0  0  0  0  0  0  0  0  0  0
   14.5941  -22.0524   21.8147 N   0  0  0  0  0  0  0  0  0  0  0  0
   12.4377  -21.6286   22.5632 N   0  0  0  0  0  0  0  0  0  0  0  0
   11.2787  -20.8840   22.0644 C   0  0  0  0  0  0  0  0  0  0  0  0
   11.6341  -19.4419   21.8559 C   0  0  0  0  0  0  0  0  0  0  0  0
   10.4614  -18.6335   21.4746 C   0  0  0  0  0  0  0  0  0  0  0  0
   10.6710  -17.1994   21.1079 C   0  0  2  0  0  0  0  0  0  0  0  0
   11.8517  -16.9086   20.3628 N   0  0  0  0  0  0  0  0  0  0  0  0
   10.5882  -16.4222   22.3766 C   0  0  0  0  0  0  0  0  0  0  0  0
   11.6722  -16.1259   22.9541 O   0  0  0  0  0  0  0  0  0  0  0  0
   14.9690  -21.6304   22.7024 N   0  0  0  0  0  0  0  0  0  0  0  0
    5.2406  -10.1796   27.7999 C   0  0  0  0  0  0  0  0  0  0  0  0
    5.3331  -11.1077   26.7144 N   0  0  0  0  0  0  0  0  0  0  0  0
    4.3853  -11.1185   25.8597 N   0  0  0  0  0  0  0  0  0  0  0  0
    6.4390  -11.9575   26.6273 C   0  0  0  0  0  0  0  0  0  0  0  0
    6.6178  -12.7985   25.4405 C   0  0  0  0  0  0  0  0  0  0  0  0
    7.8715  -13.6074   25.5469 C   0  0  0  0  0  0  0  0  0  0  0  0
    8.1714  -14.3970   24.3408 C   0  0  1  0  0  0  0  0  0  0  0  0
    9.3999  -15.1763   24.2253 N   0  0  0  0  0  0  0  0  0  0  0  0
    9.4003  -15.9865   22.9943 C   0  0  0  0  0  0  0  0  0  0  0  0
    9.7857  -16.0602   25.3131 O   0  0  0  0  0  0  0  0  0  0  0  0
    9.9348  -17.3304   25.0378 N   0  0  0  0  0  0  0  0  0  0  0  0
    4.3622  -11.5943   24.9501 C   0  0  0  0  0  0  0  0  0  0  0  0
   10.0186  -15.6805   26.6526 C   0  0  0  0  0  0  0  0  0  0  0  0
    9.7082  -14.5342   27.4497 C   0  0  0  0  0  0  0  0  0  0  0  0
   11.0768  -14.1908   28.0448 C   0  0  1  0  0  0  0  0  0  0  0  0
   11.6039  -15.5621   28.3798 C   0  0  0  0  0  0  0  0  0  0  0  0
   10.7847  -16.5402   27.5945 O   0  0  0  0  0  0  0  0  0  0  0  0
    9.7730  -17.2331   28.4228 O   0  0  0  0  0  0  0  0  0  0  0  0
  2  1  1  0
  3  2  2  0
  4  2  1  0
  5  4  1  0
  6  5  1  0
  7  6  1  0
  8  9  1  1
  8  7  1  0
 10 11  2  0
 10  8  1  0
 12 13  1  0
 13 15  1  0
 13 14  2  0
 15 16  1  0
 17 16  1  0
 17 18  1  0
 19 18  1  6
 19 21  1  0
 19 20  1  0
 20 10  1  0
 21 23  1  0
 22 21  2  0
 23 27  1  0
 24 23  1  0
 25 24  1  0
 25 26  1  0
 26 27  1  0
 27 28  1  1
 28 30  2  0
 28 29  1  0
M  END
$$$$
