RRP.pdb
     RDKit          3D

 30 30  0  0  1  0  0  0  0  0999 V2000
   11.6981  -14.7404   18.3277 N   0  0  0  0  0  0  0  0  0  0  0  0
   10.6683  -14.8131   17.3659 C   0  0  0  0  0  0  0  0  0  0  0  0
   10.8362  -15.2599   16.1723 N   0  0  0  0  0  0  0  0  0  0  0  0
    9.3807  -14.3679   17.7458 N   0  0  0  0  0  0  0  0  0  0  0  0
    9.2797  -13.0324   18.3398 C   0  0  0  0  0  0  0  0  0  0  0  0
    7.8592  -12.7344   18.7175 C   0  0  0  0  0  0  0  0  0  0  0  0
    7.5143  -13.2794   20.0436 C   0  0  0  0  0  0  0  0  0  0  0  0
    7.3259  -14.7560   20.1819 C   0  0  2  0  0  0  0  0  0  0  0  0
    6.2987  -15.3353   19.3800 N   0  0  0  0  0  0  0  0  0  0  0  0
    7.1373  -15.0238   21.6357 C   0  0  0  0  0  0  0  0  0  0  0  0
    6.1151  -14.5340   22.1940 O   0  0  0  0  0  0  0  0  0  0  0  0
   10.0440  -15.2918   15.4809 N   0  0  0  0  0  0  0  0  0  0  0  0
    6.1968  -21.1705   26.8579 C   0  0  0  0  0  0  0  0  0  0  0  0
    7.0508  -20.3903   27.7007 N   0  0  0  0  0  0  0  0  0  0  0  0
    6.7411  -20.2953   28.9352 N   0  0  0  0  0  0  0  0  0  0  0  0
    8.1764  -19.7684   27.1538 C   0  0  0  0  0  0  0  0  0  0  0  0
    8.1761  -19.3767   25.7416 C   0  0  0  0  0  0  0  0  0  0  0  0
    7.8659  -17.9208   25.5944 C   0  0  0  0  0  0  0  0  0  0  0  0
    7.9194  -17.4412   24.2033 C   0  0  1  0  0  0  0  0  0  0  0  0
    7.7312  -16.0317   23.8747 N   0  0  0  0  0  0  0  0  0  0  0  0
    8.0043  -15.7786   22.4488 C   0  0  0  0  0  0  0  0  0  0  0  0
    8.4566  -15.0231   24.6295 O   0  0  0  0  0  0  0  0  0  0  0  0
    9.6657  -14.7215   24.2314 N   0  0  0  0  0  0  0  0  0  0  0  0
    7.2419  -19.7867   29.6733 C   0  0  0  0  0  0  0  0  0  0  0  0
    7.9811  -14.3279   25.7623 C   0  0  0  0  0  0  0  0  0  0  0  0
    6.7406  -14.2755   26.4724 C   0  0  0  0  0  0  0  0  0  0  0  0
    6.4857  -12.7670   26.5399 C   0  0  1  0  0  0  0  0  0  0  0  0
    7.8670  -12.2491   26.8467 C   0  0  0  0  0  0  0  0  0  0  0  0
    8.8243  -13.3474   26.4977 O   0  0  0  0  0  0  0  0  0  0  0  0
    9.3310  -14.0638   27.6892 O   0  0  0  0  0  0  0  0  0  0  0  0
  2  1  1  0
  3  2  2  0
  4  2  1  0
  5  4  1  0
  6  5  1  0
  7  6  1  0
  8  9  1  6
  8  7  1  0
 10 11  2  0
 10  8  1  0
 12 13  1  0
 13 15  1  0
 13 14  2  0
 15 16  1  0
 17 16  1  0
 17 18  1  0
 19 18  1  6
 19 21  1  0
 19 20  1  0
 20 10  1  0
 21 23  1  0
 22 21  2  0
 23 27  1  0
 24 23  1  0
 25 24  1  0
 25 26  1  0
 26 27  1  0
 27 28  1  1
 28 30  2  0
 28 29  1  0
M  END
$$$$
