RRP.pdb
     RDKit          3D

 30 30  0  0  1  0  0  0  0  0999 V2000
    8.1814  -16.0459   15.7946 N   0  0  0  0  0  0  0  0  0  0  0  0
    8.0969  -14.7103   15.3473 C   0  0  0  0  0  0  0  0  0  0  0  0
    8.0394  -14.3747   14.1078 N   0  0  0  0  0  0  0  0  0  0  0  0
    8.0735  -13.6892   16.3257 N   0  0  0  0  0  0  0  0  0  0  0  0
    8.2760  -14.0901   17.7202 C   0  0  0  0  0  0  0  0  0  0  0  0
    7.1444  -13.6010   18.5743 C   0  0  0  0  0  0  0  0  0  0  0  0
    7.4554  -13.6989   20.0124 C   0  0  0  0  0  0  0  0  0  0  0  0
    7.8745  -15.0238   20.5639 C   0  0  2  0  0  0  0  0  0  0  0  0
    7.4450  -16.1713   19.8341 N   0  0  0  0  0  0  0  0  0  0  0  0
    7.4296  -15.0496   21.9859 C   0  0  0  0  0  0  0  0  0  0  0  0
    6.2976  -14.5569   22.2548 O   0  0  0  0  0  0  0  0  0  0  0  0
    8.0970  -13.3681   13.8077 N   0  0  0  0  0  0  0  0  0  0  0  0
    8.1138  -20.7471   20.5446 C   0  0  0  0  0  0  0  0  0  0  0  0
    8.2383  -20.3786   21.9219 N   0  0  0  0  0  0  0  0  0  0  0  0
    9.3561  -20.5995   22.4971 N   0  0  0  0  0  0  0  0  0  0  0  0
    7.1507  -19.7992   22.5807 C   0  0  0  0  0  0  0  0  0  0  0  0
    7.3048  -19.3235   23.9583 C   0  0  0  0  0  0  0  0  0  0  0  0
    6.6554  -17.9876   24.1345 C   0  0  0  0  0  0  0  0  0  0  0  0
    7.4798  -17.0217   24.8797 C   0  0  2  0  0  0  0  0  0  0  0  0
    7.6248  -15.6393   24.4346 N   0  0  0  0  0  0  0  0  0  0  0  0
    8.1647  -15.5771   23.0648 C   0  0  0  0  0  0  0  0  0  0  0  0
    8.4038  -14.7119   25.2385 O   0  0  0  0  0  0  0  0  0  0  0  0
    9.6269  -14.4546   24.8520 N   0  0  0  0  0  0  0  0  0  0  0  0
    9.6224  -20.3769   23.4634 C   0  0  0  0  0  0  0  0  0  0  0  0
    7.9673  -14.0530   26.4081 C   0  0  0  0  0  0  0  0  0  0  0  0
    6.7339  -13.9770   27.1283 C   0  0  0  0  0  0  0  0  0  0  0  0
    6.5526  -12.4634   27.2735 C   0  0  1  0  0  0  0  0  0  0  0  0
    7.9586  -12.0288   27.5967 C   0  0  0  0  0  0  0  0  0  0  0  0
    8.8602  -13.1527   27.1863 O   0  0  0  0  0  0  0  0  0  0  0  0
    9.3367  -13.9522   28.3367 O   0  0  0  0  0  0  0  0  0  0  0  0
  2  1  1  0
  3  2  2  0
  4  2  1  0
  5  4  1  0
  6  5  1  0
  7  6  1  0
  8  9  1  6
  8  7  1  0
 10 11  2  0
 10  8  1  0
 12 13  1  0
 13 15  1  0
 13 14  2  0
 15 16  1  0
 17 16  1  0
 17 18  1  0
 19 18  1  6
 19 21  1  0
 19 20  1  0
 20 10  1  0
 21 23  1  0
 22 21  2  0
 23 27  1  0
 24 23  1  0
 25 24  1  0
 25 26  1  0
 26 27  1  0
 27 28  1  1
 28 30  2  0
 28 29  1  0
M  END
$$$$
