RRP.pdb
     RDKit          3D

 30 30  0  0  1  0  0  0  0  0999 V2000
    8.1805  -20.1329   27.3577 N   0  0  0  0  0  0  0  0  0  0  0  0
    7.7817  -20.1017   26.0046 C   0  0  0  0  0  0  0  0  0  0  0  0
    7.0304  -19.1874   25.5025 N   0  0  0  0  0  0  0  0  0  0  0  0
    8.2404  -21.1389   25.1594 N   0  0  0  0  0  0  0  0  0  0  0  0
    9.3264  -20.8175   24.2300 C   0  0  0  0  0  0  0  0  0  0  0  0
   10.6440  -20.8151   24.9465 C   0  0  0  0  0  0  0  0  0  0  0  0
   11.4559  -19.6322   24.6058 C   0  0  0  0  0  0  0  0  0  0  0  0
   11.3248  -19.0463   23.2367 C   0  0  2  0  0  0  0  0  0  0  0  0
   12.5093  -19.0365   22.4425 N   0  0  0  0  0  0  0  0  0  0  0  0
   10.7420  -17.6862   23.4130 C   0  0  0  0  0  0  0  0  0  0  0  0
   11.4060  -16.8466   24.0844 O   0  0  0  0  0  0  0  0  0  0  0  0
    6.7872  -19.1765   24.4791 N   0  0  0  0  0  0  0  0  0  0  0  0
    8.1138  -13.8652   17.6177 C   0  0  0  0  0  0  0  0  0  0  0  0
    7.9898  -13.2074   18.8827 N   0  0  0  0  0  0  0  0  0  0  0  0
    8.1009  -11.9361   18.9045 N   0  0  0  0  0  0  0  0  0  0  0  0
    7.7554  -13.9655   20.0330 C   0  0  0  0  0  0  0  0  0  0  0  0
    7.3461  -13.2985   21.2721 C   0  0  0  0  0  0  0  0  0  0  0  0
    7.1633  -14.2926   22.3748 C   0  0  0  0  0  0  0  0  0  0  0  0
    7.9690  -15.5140   22.2109 C   0  0  1  0  0  0  0  0  0  0  0  0
    8.9313  -15.9348   23.2244 N   0  0  0  0  0  0  0  0  0  0  0  0
    9.5073  -17.2506   22.8950 C   0  0  0  0  0  0  0  0  0  0  0  0
    8.5177  -15.9910   24.6170 O   0  0  0  0  0  0  0  0  0  0  0  0
    8.3609  -17.1731   25.1551 N   0  0  0  0  0  0  0  0  0  0  0  0
    8.0139  -11.3097   19.7134 C   0  0  0  0  0  0  0  0  0  0  0  0
    8.2658  -14.8847   25.4567 C   0  0  0  0  0  0  0  0  0  0  0  0
    8.1390  -13.4732   25.2629 C   0  0  0  0  0  0  0  0  0  0  0  0
    9.1056  -12.9275   26.3180 C   0  0  1  0  0  0  0  0  0  0  0  0
    8.8098  -13.8343   27.4844 C   0  0  0  0  0  0  0  0  0  0  0  0
    8.1023  -15.0320   26.9280 O   0  0  0  0  0  0  0  0  0  0  0  0
    6.6441  -15.0013   27.1775 O   0  0  0  0  0  0  0  0  0  0  0  0
  2  1  1  0
  3  2  2  0
  4  2  1  0
  5  4  1  0
  6  5  1  0
  7  6  1  0
  8  9  1  1
  8  7  1  0
 10 11  2  0
 10  8  1  0
 12 13  1  0
 13 15  1  0
 13 14  2  0
 15 16  1  0
 17 16  1  0
 17 18  1  0
 19 18  1  6
 19 21  1  0
 19 20  1  0
 20 10  1  0
 21 23  1  0
 22 21  2  0
 23 27  1  0
 24 23  1  0
 25 24  1  0
 25 26  1  0
 26 27  1  0
 27 28  1  1
 28 30  2  0
 28 29  1  0
M  END
$$$$
