RRP.pdb
     RDKit          3D

 30 30  0  0  1  0  0  0  0  0999 V2000
    8.5533  -11.5468   19.4656 N   0  0  0  0  0  0  0  0  0  0  0  0
    8.2971  -12.7631   18.7978 C   0  0  0  0  0  0  0  0  0  0  0  0
    8.5115  -12.9482   17.5439 N   0  0  0  0  0  0  0  0  0  0  0  0
    7.7758  -13.8347   19.5596 N   0  0  0  0  0  0  0  0  0  0  0  0
    7.3392  -15.0278   18.8298 C   0  0  0  0  0  0  0  0  0  0  0  0
    8.2975  -16.1590   19.0565 C   0  0  0  0  0  0  0  0  0  0  0  0
    8.5166  -16.4181   20.4915 C   0  0  0  0  0  0  0  0  0  0  0  0
    7.7732  -17.5439   21.1357 C   0  0  2  0  0  0  0  0  0  0  0  0
    6.7298  -18.1313   20.3610 N   0  0  0  0  0  0  0  0  0  0  0  0
    7.2930  -17.0354   22.4515 C   0  0  0  0  0  0  0  0  0  0  0  0
    6.2060  -16.3916   22.4696 O   0  0  0  0  0  0  0  0  0  0  0  0
    8.8850  -12.1792   16.9309 N   0  0  0  0  0  0  0  0  0  0  0  0
    6.6867  -22.2674   28.4783 C   0  0  0  0  0  0  0  0  0  0  0  0
    6.2069  -22.4406   27.1411 N   0  0  0  0  0  0  0  0  0  0  0  0
    5.8140  -23.6053   26.7973 N   0  0  0  0  0  0  0  0  0  0  0  0
    6.1849  -21.3478   26.2704 C   0  0  0  0  0  0  0  0  0  0  0  0
    6.7075  -20.0531   26.7157 C   0  0  0  0  0  0  0  0  0  0  0  0
    6.6279  -19.0419   25.6164 C   0  0  0  0  0  0  0  0  0  0  0  0
    7.2754  -17.7603   25.9421 C   0  0  2  0  0  0  0  0  0  0  0  0
    7.3988  -16.6947   24.9524 N   0  0  0  0  0  0  0  0  0  0  0  0
    7.9487  -17.2087   23.6855 C   0  0  0  0  0  0  0  0  0  0  0  0
    8.1541  -15.4984   25.2866 O   0  0  0  0  0  0  0  0  0  0  0  0
    9.3609  -15.3866   24.7940 N   0  0  0  0  0  0  0  0  0  0  0  0
    5.4692  -23.9085   25.8789 C   0  0  0  0  0  0  0  0  0  0  0  0
    7.7104  -14.4326   26.0988 C   0  0  0  0  0  0  0  0  0  0  0  0
    6.4638  -14.0634   26.6949 C   0  0  0  0  0  0  0  0  0  0  0  0
    6.3226  -12.6075   26.2415 C   0  0  1  0  0  0  0  0  0  0  0  0
    7.7329  -12.1070   26.4176 C   0  0  0  0  0  0  0  0  0  0  0  0
    8.6109  -13.3182   26.4994 O   0  0  0  0  0  0  0  0  0  0  0  0
    9.0382  -13.6217   27.8832 O   0  0  0  0  0  0  0  0  0  0  0  0
  2  1  1  0
  3  2  2  0
  4  2  1  0
  5  4  1  0
  6  5  1  0
  7  6  1  0
  8  9  1  6
  8  7  1  0
 10 11  2  0
 10  8  1  0
 12 13  1  0
 13 15  1  0
 13 14  2  0
 15 16  1  0
 17 16  1  0
 17 18  1  0
 19 18  1  6
 19 21  1  0
 19 20  1  0
 20 10  1  0
 21 23  1  0
 22 21  2  0
 23 27  1  0
 24 23  1  0
 25 24  1  0
 25 26  1  0
 26 27  1  0
 27 28  1  1
 28 30  2  0
 28 29  1  0
M  END
$$$$
