DEF.pdb
     RDKit          3D

 29 29  0  0  1  0  0  0  0  0999 V2000
    6.6510  -15.8542   20.5226 N   0  0  0  0  0  0  0  0  0  0  0  0
    7.9549  -15.3803   20.9460 C   0  0  1  0  0  0  0  0  0  0  0  0
    7.9495  -13.8808   20.8499 C   0  0  0  0  0  0  0  0  0  0  0  0
    8.0502  -13.5334   19.3913 C   0  0  0  0  0  0  0  0  0  0  0  0
    8.1398  -14.4352   18.4998 O   0  0  0  0  0  0  0  0  0  0  0  0
    8.3037  -15.8782   22.2881 C   0  0  0  0  0  0  0  0  0  0  0  0
    7.4269  -15.8249   23.2026 O   0  0  0  0  0  0  0  0  0  0  0  0
    8.0508  -12.2214   18.9420 O   0  0  0  0  0  0  0  0  0  0  0  0
    9.5586  -16.4181   22.6375 N   0  0  0  0  0  0  0  0  0  0  0  0
    9.8618  -17.0511   23.9101 C   0  0  1  0  0  0  0  0  0  0  0  0
   11.0105  -17.9975   23.8232 C   0  0  0  0  0  0  0  0  0  0  0  0
   11.3628  -18.7335   25.0595 C   0  0  0  0  0  0  0  0  0  0  0  0
   12.5453  -19.5941   24.8865 C   0  0  0  0  0  0  0  0  0  0  0  0
   13.0225  -20.3029   25.7766 O   0  0  0  0  0  0  0  0  0  0  0  0
   10.1107  -16.0309   24.9674 C   0  0  0  0  0  0  0  0  0  0  0  0
   10.9036  -15.0977   24.7152 O   0  0  0  0  0  0  0  0  0  0  0  0
   13.1884  -19.6247   23.6319 O   0  0  0  0  0  0  0  0  0  0  0  0
    9.4970  -16.0640   26.2396 N   0  0  0  0  0  0  0  0  0  0  0  0
    9.8806  -15.1914   27.3183 C   0  0  1  0  0  0  0  0  0  0  0  0
    8.7008  -14.6077   28.0552 C   0  0  0  0  0  0  0  0  0  0  0  0
    7.9472  -13.6387   27.2237 C   0  0  0  0  0  0  0  0  0  0  0  0
    8.4536  -12.4242   26.8145 C   0  0  0  0  0  0  0  0  0  0  0  0
    7.7377  -11.5367   26.0425 C   0  0  0  0  0  0  0  0  0  0  0  0
    6.4546  -11.8549   25.6488 C   0  0  0  0  0  0  0  0  0  0  0  0
    5.9334  -13.0667   26.0501 C   0  0  0  0  0  0  0  0  0  0  0  0
    6.6603  -13.9442   26.8216 C   0  0  0  0  0  0  0  0  0  0  0  0
   10.7528  -15.9051   28.3081 C   0  0  0  0  0  0  0  0  0  0  0  0
   11.2223  -15.3168   29.3098 O   0  0  0  0  0  0  0  0  0  0  0  0
   11.0779  -17.2444   28.1599 O   0  0  0  0  0  0  0  0  0  0  0  0
  2  3  1  0
  2  1  1  1
  3  4  1  0
  4  5  2  0
  4  8  1  0
  6  2  1  0
  7  6  2  0
  9  6  1  0
 10  9  1  0
 10 11  1  6
 12 11  1  0
 13 12  1  0
 13 14  2  0
 15 18  1  0
 15 10  1  0
 16 15  2  0
 17 13  1  0
 19 18  1  0
 19 20  1  1
 21 26  2  0
 21 20  1  0
 22 21  1  0
 23 24  1  0
 23 22  2  0
 24 25  2  0
 25 26  1  0
 27 19  1  0
 28 27  2  0
 29 27  1  0
M  END
$$$$
