DEF.pdb
     RDKit          3D

 29 29  0  0  1  0  0  0  0  0999 V2000
    8.8022  -18.2581   18.9189 N   0  0  0  0  0  0  0  0  0  0  0  0
    8.8118  -17.0097   19.6574 C   0  0  1  0  0  0  0  0  0  0  0  0
    7.4022  -16.4910   19.6965 C   0  0  0  0  0  0  0  0  0  0  0  0
    6.9735  -16.2750   18.2725 C   0  0  0  0  0  0  0  0  0  0  0  0
    7.5174  -15.3864   17.5440 O   0  0  0  0  0  0  0  0  0  0  0  0
    9.4110  -17.1742   20.9933 C   0  0  0  0  0  0  0  0  0  0  0  0
    8.9776  -18.1000   21.7436 O   0  0  0  0  0  0  0  0  0  0  0  0
    5.9698  -17.0267   17.6802 O   0  0  0  0  0  0  0  0  0  0  0  0
   10.4461  -16.3671   21.5083 N   0  0  0  0  0  0  0  0  0  0  0  0
   11.1943  -16.6544   22.7206 C   0  0  1  0  0  0  0  0  0  0  0  0
   12.6140  -16.2062   22.6409 C   0  0  0  0  0  0  0  0  0  0  0  0
   13.4464  -16.4105   23.8491 C   0  0  0  0  0  0  0  0  0  0  0  0
   14.7996  -15.8479   23.7041 C   0  0  0  0  0  0  0  0  0  0  0  0
   15.4314  -15.3176   24.6217 O   0  0  0  0  0  0  0  0  0  0  0  0
   10.5290  -16.0564   23.9124 C   0  0  0  0  0  0  0  0  0  0  0  0
   10.6977  -14.8378   24.1359 O   0  0  0  0  0  0  0  0  0  0  0  0
   15.4317  -15.9087   22.4449 O   0  0  0  0  0  0  0  0  0  0  0  0
    9.7177  -16.7952   24.8024 N   0  0  0  0  0  0  0  0  0  0  0  0
    9.2943  -16.2890   26.0817 C   0  0  1  0  0  0  0  0  0  0  0  0
    7.8269  -15.9417   26.1243 C   0  0  0  0  0  0  0  0  0  0  0  0
    7.5956  -14.4814   26.0139 C   0  0  0  0  0  0  0  0  0  0  0  0
    7.2540  -13.8467   24.8394 C   0  0  0  0  0  0  0  0  0  0  0  0
    7.0437  -12.4884   24.7565 C   0  0  0  0  0  0  0  0  0  0  0  0
    7.1748  -11.7071   25.8856 C   0  0  0  0  0  0  0  0  0  0  0  0
    7.5161  -12.3273   27.0690 C   0  0  0  0  0  0  0  0  0  0  0  0
    7.7234  -13.6859   27.1373 C   0  0  0  0  0  0  0  0  0  0  0  0
    9.5810  -17.2742   27.1757 C   0  0  0  0  0  0  0  0  0  0  0  0
    9.3669  -16.9966   28.3786 O   0  0  0  0  0  0  0  0  0  0  0  0
   10.0943  -18.5333   26.9061 O   0  0  0  0  0  0  0  0  0  0  0  0
  2  3  1  0
  2  1  1  1
  3  4  1  0
  4  5  2  0
  4  8  1  0
  6  2  1  0
  7  6  2  0
  9  6  1  0
 10  9  1  0
 10 11  1  6
 12 11  1  0
 13 12  1  0
 13 14  2  0
 15 18  1  0
 15 10  1  0
 16 15  2  0
 17 13  1  0
 19 18  1  0
 19 20  1  6
 21 26  2  0
 21 20  1  0
 22 21  1  0
 23 24  1  0
 23 22  2  0
 24 25  2  0
 25 26  1  0
 27 19  1  0
 28 27  2  0
 29 27  1  0
M  END
$$$$
