DEF.pdb
     RDKit          3D

 29 29  0  0  1  0  0  0  0  0999 V2000
    9.8909  -13.1474   19.6052 N   0  0  0  0  0  0  0  0  0  0  0  0
    8.5998  -13.0657   20.2611 C   0  0  1  0  0  0  0  0  0  0  0  0
    7.5410  -13.1593   19.1991 C   0  0  0  0  0  0  0  0  0  0  0  0
    7.8920  -14.3345   18.3307 C   0  0  0  0  0  0  0  0  0  0  0  0
    8.8644  -15.1023   18.6156 O   0  0  0  0  0  0  0  0  0  0  0  0
    8.4613  -14.0855   21.3153 C   0  0  0  0  0  0  0  0  0  0  0  0
    7.4320  -14.0582   22.0555 O   0  0  0  0  0  0  0  0  0  0  0  0
    7.1806  -14.6430   17.1809 O   0  0  0  0  0  0  0  0  0  0  0  0
    9.4018  -15.1056   21.5671 N   0  0  0  0  0  0  0  0  0  0  0  0
    9.2978  -16.0807   22.6397 C   0  0  1  0  0  0  0  0  0  0  0  0
    9.8123  -17.4242   22.2482 C   0  0  0  0  0  0  0  0  0  0  0  0
    9.7557  -18.4860   23.2796 C   0  0  0  0  0  0  0  0  0  0  0  0
   10.3946  -19.7371   22.8373 C   0  0  0  0  0  0  0  0  0  0  0  0
   10.9837  -20.5177   23.5896 O   0  0  0  0  0  0  0  0  0  0  0  0
    9.9908  -15.5988   23.8678 C   0  0  0  0  0  0  0  0  0  0  0  0
   11.1526  -15.1506   23.7551 O   0  0  0  0  0  0  0  0  0  0  0  0
   10.3415  -20.0837   21.4713 O   0  0  0  0  0  0  0  0  0  0  0  0
    9.4029  -15.6224   25.1523 N   0  0  0  0  0  0  0  0  0  0  0  0
   10.1587  -15.4430   26.3641 C   0  0  1  0  0  0  0  0  0  0  0  0
    9.8478  -14.1459   27.0687 C   0  0  0  0  0  0  0  0  0  0  0  0
    8.5029  -13.6291   26.7190 C   0  0  0  0  0  0  0  0  0  0  0  0
    7.4054  -13.7279   27.5464 C   0  0  0  0  0  0  0  0  0  0  0  0
    6.1634  -13.2421   27.2035 C   0  0  0  0  0  0  0  0  0  0  0  0
    5.9849  -12.6250   25.9829 C   0  0  0  0  0  0  0  0  0  0  0  0
    7.0736  -12.5182   25.1434 C   0  0  0  0  0  0  0  0  0  0  0  0
    8.3092  -13.0083   25.4990 C   0  0  0  0  0  0  0  0  0  0  0  0
    9.9218  -16.5724   27.3223 C   0  0  0  0  0  0  0  0  0  0  0  0
    9.0740  -17.4641   27.0857 O   0  0  0  0  0  0  0  0  0  0  0  0
   10.6286  -16.6806   28.5098 O   0  0  0  0  0  0  0  0  0  0  0  0
  2  3  1  0
  2  1  1  6
  3  4  1  0
  4  5  2  0
  4  8  1  0
  6  2  1  0
  7  6  2  0
  9  6  1  0
 10  9  1  0
 10 11  1  6
 12 11  1  0
 13 12  1  0
 13 14  2  0
 15 18  1  0
 15 10  1  0
 16 15  2  0
 17 13  1  0
 19 18  1  0
 19 20  1  1
 21 26  2  0
 21 20  1  0
 22 21  1  0
 23 24  1  0
 23 22  2  0
 24 25  2  0
 25 26  1  0
 27 19  1  0
 28 27  2  0
 29 27  1  0
M  END
$$$$
