DEF.pdb
     RDKit          3D

 29 29  0  0  1  0  0  0  0  0999 V2000
    7.7968  -15.9971   19.4026 N   0  0  0  0  0  0  0  0  0  0  0  0
    8.4862  -15.0554   20.2641 C   0  0  1  0  0  0  0  0  0  0  0  0
    7.7731  -13.7368   20.1627 C   0  0  0  0  0  0  0  0  0  0  0  0
    7.9573  -13.2444   18.7549 C   0  0  0  0  0  0  0  0  0  0  0  0
    8.6982  -13.8634   17.9278 O   0  0  0  0  0  0  0  0  0  0  0  0
    8.5898  -15.5588   21.6448 C   0  0  0  0  0  0  0  0  0  0  0  0
    7.5628  -15.5117   22.3872 O   0  0  0  0  0  0  0  0  0  0  0  0
    7.3345  -12.0979   18.2850 O   0  0  0  0  0  0  0  0  0  0  0  0
    9.7632  -16.0974   22.2118 N   0  0  0  0  0  0  0  0  0  0  0  0
    9.7990  -16.9410   23.3947 C   0  0  1  0  0  0  0  0  0  0  0  0
   10.8001  -18.0406   23.2875 C   0  0  0  0  0  0  0  0  0  0  0  0
   10.8357  -19.0201   24.3982 C   0  0  0  0  0  0  0  0  0  0  0  0
   11.8811  -20.0414   24.2169 C   0  0  0  0  0  0  0  0  0  0  0  0
   12.6455  -20.4166   25.1098 O   0  0  0  0  0  0  0  0  0  0  0  0
   10.0492  -16.1309   24.6202 C   0  0  0  0  0  0  0  0  0  0  0  0
   10.9252  -15.2401   24.5727 O   0  0  0  0  0  0  0  0  0  0  0  0
   12.0353  -20.6414   22.9500 O   0  0  0  0  0  0  0  0  0  0  0  0
    9.3477  -16.3177   25.8323 N   0  0  0  0  0  0  0  0  0  0  0  0
    9.6825  -15.6222   27.0472 C   0  0  1  0  0  0  0  0  0  0  0  0
    8.4772  -15.0578   27.7573 C   0  0  0  0  0  0  0  0  0  0  0  0
    7.9062  -13.8895   27.0452 C   0  0  0  0  0  0  0  0  0  0  0  0
    8.4910  -12.6418   27.0287 C   0  0  0  0  0  0  0  0  0  0  0  0
    7.9449  -11.5680   26.3617 C   0  0  0  0  0  0  0  0  0  0  0  0
    6.7605  -11.7233   25.6722 C   0  0  0  0  0  0  0  0  0  0  0  0
    6.1627  -12.9658   25.6789 C   0  0  0  0  0  0  0  0  0  0  0  0
    6.7196  -14.0303   26.3499 C   0  0  0  0  0  0  0  0  0  0  0  0
   10.4178  -16.5184   27.9992 C   0  0  0  0  0  0  0  0  0  0  0  0
   10.8205  -16.1025   29.1104 O   0  0  0  0  0  0  0  0  0  0  0  0
   10.6842  -17.8439   27.6934 O   0  0  0  0  0  0  0  0  0  0  0  0
  2  3  1  0
  2  1  1  6
  3  4  1  0
  4  5  2  0
  4  8  1  0
  6  2  1  0
  7  6  2  0
  9  6  1  0
 10  9  1  0
 10 11  1  6
 12 11  1  0
 13 12  1  0
 13 14  2  0
 15 18  1  0
 15 10  1  0
 16 15  2  0
 17 13  1  0
 19 18  1  0
 19 20  1  1
 21 26  2  0
 21 20  1  0
 22 21  1  0
 23 24  1  0
 23 22  2  0
 24 25  2  0
 25 26  1  0
 27 19  1  0
 28 27  2  0
 29 27  1  0
M  END
$$$$
