DEF.pdb
     RDKit          3D

 29 29  0  0  1  0  0  0  0  0999 V2000
    9.4702  -16.7627   17.9995 N   0  0  0  0  0  0  0  0  0  0  0  0
    8.7371  -15.6423   18.5576 C   0  0  1  0  0  0  0  0  0  0  0  0
    7.5724  -15.3612   17.6509 C   0  0  0  0  0  0  0  0  0  0  0  0
    8.0461  -15.5889   16.2431 C   0  0  0  0  0  0  0  0  0  0  0  0
    8.5818  -16.6875   15.8935 O   0  0  0  0  0  0  0  0  0  0  0  0
    8.3424  -15.8941   19.9545 C   0  0  0  0  0  0  0  0  0  0  0  0
    7.6188  -15.0366   20.5453 O   0  0  0  0  0  0  0  0  0  0  0  0
    7.9260  -14.6214   15.2568 O   0  0  0  0  0  0  0  0  0  0  0  0
    8.7144  -17.0346   20.6956 N   0  0  0  0  0  0  0  0  0  0  0  0
    8.3133  -17.2973   22.0675 C   0  0  1  0  0  0  0  0  0  0  0  0
    8.0633  -18.7439   22.3274 C   0  0  0  0  0  0  0  0  0  0  0  0
    9.1480  -19.6840   21.9612 C   0  0  0  0  0  0  0  0  0  0  0  0
    8.7844  -21.0895   22.2090 C   0  0  0  0  0  0  0  0  0  0  0  0
    8.6889  -21.9464   21.3264 O   0  0  0  0  0  0  0  0  0  0  0  0
    9.3201  -16.7652   23.0288 C   0  0  0  0  0  0  0  0  0  0  0  0
   10.5319  -16.8924   22.7483 O   0  0  0  0  0  0  0  0  0  0  0  0
    8.5247  -21.5032   23.5319 O   0  0  0  0  0  0  0  0  0  0  0  0
    8.9759  -16.1248   24.2401 N   0  0  0  0  0  0  0  0  0  0  0  0
    9.9555  -15.6352   25.1743 C   0  0  1  0  0  0  0  0  0  0  0  0
   10.0483  -14.1297   25.1997 C   0  0  0  0  0  0  0  0  0  0  0  0
    8.7582  -13.4971   25.5652 C   0  0  0  0  0  0  0  0  0  0  0  0
    8.4631  -13.0344   26.8292 C   0  0  0  0  0  0  0  0  0  0  0  0
    7.2582  -12.4498   27.1498 C   0  0  0  0  0  0  0  0  0  0  0  0
    6.2877  -12.3100   26.1798 C   0  0  0  0  0  0  0  0  0  0  0  0
    6.5677  -12.7680   24.9097 C   0  0  0  0  0  0  0  0  0  0  0  0
    7.7763  -13.3503   24.6032 C   0  0  0  0  0  0  0  0  0  0  0  0
    9.6655  -16.1164   26.5651 C   0  0  0  0  0  0  0  0  0  0  0  0
   10.4498  -15.8848   27.5143 O   0  0  0  0  0  0  0  0  0  0  0  0
    8.5194  -16.8372   26.8623 O   0  0  0  0  0  0  0  0  0  0  0  0
  2  3  1  0
  2  1  1  6
  3  4  1  0
  4  5  2  0
  4  8  1  0
  6  2  1  0
  7  6  2  0
  9  6  1  0
 10  9  1  0
 10 11  1  6
 12 11  1  0
 13 12  1  0
 13 14  2  0
 15 18  1  0
 15 10  1  0
 16 15  2  0
 17 13  1  0
 19 18  1  0
 19 20  1  1
 21 26  2  0
 21 20  1  0
 22 21  1  0
 23 24  1  0
 23 22  2  0
 24 25  2  0
 25 26  1  0
 27 19  1  0
 28 27  2  0
 29 27  1  0
M  END
$$$$
