DEF.pdb
     RDKit          3D

 29 29  0  0  1  0  0  0  0  0999 V2000
    6.2668  -15.4493   19.0417 N   0  0  0  0  0  0  0  0  0  0  0  0
    7.3864  -14.9052   19.7863 C   0  0  1  0  0  0  0  0  0  0  0  0
    7.2748  -13.4072   19.7498 C   0  0  0  0  0  0  0  0  0  0  0  0
    8.6443  -12.8573   20.0328 C   0  0  0  0  0  0  0  0  0  0  0  0
    9.6291  -13.6236   20.2761 O   0  0  0  0  0  0  0  0  0  0  0  0
    7.4469  -15.4532   21.1525 C   0  0  0  0  0  0  0  0  0  0  0  0
    6.4512  -15.2846   21.9193 O   0  0  0  0  0  0  0  0  0  0  0  0
    8.9067  -11.4955   20.0440 O   0  0  0  0  0  0  0  0  0  0  0  0
    8.5459  -16.1620   21.6799 N   0  0  0  0  0  0  0  0  0  0  0  0
    8.4921  -17.0199   22.8518 C   0  0  1  0  0  0  0  0  0  0  0  0
    9.0801  -18.3678   22.6061 C   0  0  0  0  0  0  0  0  0  0  0  0
    8.5962  -19.0985   21.4118 C   0  0  0  0  0  0  0  0  0  0  0  0
    9.2707  -20.3952   21.2317 C   0  0  0  0  0  0  0  0  0  0  0  0
   10.3245  -20.5473   20.6082 O   0  0  0  0  0  0  0  0  0  0  0  0
    9.1544  -16.3713   24.0185 C   0  0  0  0  0  0  0  0  0  0  0  0
   10.3183  -15.9381   23.8737 O   0  0  0  0  0  0  0  0  0  0  0  0
    8.6923  -21.5491   21.7998 O   0  0  0  0  0  0  0  0  0  0  0  0
    8.5349  -16.2206   25.2794 N   0  0  0  0  0  0  0  0  0  0  0  0
    9.2190  -15.6943   26.4313 C   0  0  1  0  0  0  0  0  0  0  0  0
    8.2881  -15.0544   27.4311 C   0  0  0  0  0  0  0  0  0  0  0  0
    7.5941  -13.8708   26.8695 C   0  0  0  0  0  0  0  0  0  0  0  0
    6.2412  -13.8272   26.6112 C   0  0  0  0  0  0  0  0  0  0  0  0
    5.6144  -12.7182   26.0884 C   0  0  0  0  0  0  0  0  0  0  0  0
    6.3521  -11.5884   25.8023 C   0  0  0  0  0  0  0  0  0  0  0  0
    7.7074  -11.6160   26.0552 C   0  0  0  0  0  0  0  0  0  0  0  0
    8.3208  -12.7314   26.5779 C   0  0  0  0  0  0  0  0  0  0  0  0
   10.0039  -16.7643   27.1307 C   0  0  0  0  0  0  0  0  0  0  0  0
    9.9010  -17.9697   26.8049 O   0  0  0  0  0  0  0  0  0  0  0  0
   10.8764  -16.4684   28.1664 O   0  0  0  0  0  0  0  0  0  0  0  0
  2  3  1  0
  2  1  1  1
  3  4  1  0
  4  5  2  0
  4  8  1  0
  6  2  1  0
  7  6  2  0
  9  6  1  0
 10  9  1  0
 10 11  1  6
 12 11  1  0
 13 12  1  0
 13 14  2  0
 15 18  1  0
 15 10  1  0
 16 15  2  0
 17 13  1  0
 19 18  1  0
 19 20  1  1
 21 26  2  0
 21 20  1  0
 22 21  1  0
 23 24  1  0
 23 22  2  0
 24 25  2  0
 25 26  1  0
 27 19  1  0
 28 27  2  0
 29 27  1  0
M  END
$$$$
