DEF.pdb
     RDKit          3D

 29 29  0  0  1  0  0  0  0  0999 V2000
    7.2160  -15.6661   19.0196 N   0  0  0  0  0  0  0  0  0  0  0  0
    8.2041  -15.0732   19.9006 C   0  0  1  0  0  0  0  0  0  0  0  0
    7.9584  -13.5912   19.9312 C   0  0  0  0  0  0  0  0  0  0  0  0
    8.3424  -13.0540   18.5812 C   0  0  0  0  0  0  0  0  0  0  0  0
    7.4755  -12.8707   17.6697 O   0  0  0  0  0  0  0  0  0  0  0  0
    8.1840  -15.6962   21.2355 C   0  0  0  0  0  0  0  0  0  0  0  0
    7.0972  -15.6979   21.8888 O   0  0  0  0  0  0  0  0  0  0  0  0
    9.6522  -12.7317   18.2588 O   0  0  0  0  0  0  0  0  0  0  0  0
    9.2997  -16.3002   21.8510 N   0  0  0  0  0  0  0  0  0  0  0  0
    9.2409  -17.1188   23.0504 C   0  0  1  0  0  0  0  0  0  0  0  0
   10.0471  -18.3676   22.9352 C   0  0  0  0  0  0  0  0  0  0  0  0
    9.9882  -19.3069   24.0791 C   0  0  0  0  0  0  0  0  0  0  0  0
   10.8921  -20.4575   23.9118 C   0  0  0  0  0  0  0  0  0  0  0  0
   10.6260  -21.6062   24.2755 O   0  0  0  0  0  0  0  0  0  0  0  0
    9.6618  -16.3398   24.2491 C   0  0  0  0  0  0  0  0  0  0  0  0
   10.7647  -15.7517   24.2160 O   0  0  0  0  0  0  0  0  0  0  0  0
   12.1464  -20.2556   23.2996 O   0  0  0  0  0  0  0  0  0  0  0  0
    8.8792  -16.2318   25.4203 N   0  0  0  0  0  0  0  0  0  0  0  0
    9.3582  -15.6152   26.6295 C   0  0  1  0  0  0  0  0  0  0  0  0
    8.2714  -14.9164   27.4081 C   0  0  0  0  0  0  0  0  0  0  0  0
    7.7802  -13.7020   26.7138 C   0  0  0  0  0  0  0  0  0  0  0  0
    8.5817  -12.6299   26.3866 C   0  0  0  0  0  0  0  0  0  0  0  0
    8.1067  -11.5096   25.7419 C   0  0  0  0  0  0  0  0  0  0  0  0
    6.7732  -11.4338   25.3980 C   0  0  0  0  0  0  0  0  0  0  0  0
    5.9579  -12.4986   25.7184 C   0  0  0  0  0  0  0  0  0  0  0  0
    6.4460  -13.6121   26.3630 C   0  0  0  0  0  0  0  0  0  0  0  0
   10.0134  -16.6219   27.5280 C   0  0  0  0  0  0  0  0  0  0  0  0
   10.5333  -16.2860   28.6173 O   0  0  0  0  0  0  0  0  0  0  0  0
   10.0731  -17.9660   27.1945 O   0  0  0  0  0  0  0  0  0  0  0  0
  2  3  1  0
  2  1  1  6
  3  4  1  0
  4  5  2  0
  4  8  1  0
  6  2  1  0
  7  6  2  0
  9  6  1  0
 10  9  1  0
 10 11  1  6
 12 11  1  0
 13 12  1  0
 13 14  2  0
 15 18  1  0
 15 10  1  0
 16 15  2  0
 17 13  1  0
 19 18  1  0
 19 20  1  1
 21 26  2  0
 21 20  1  0
 22 21  1  0
 23 24  1  0
 23 22  2  0
 24 25  2  0
 25 26  1  0
 27 19  1  0
 28 27  2  0
 29 27  1  0
M  END
$$$$
