DEF.pdb
     RDKit          3D

 29 29  0  0  1  0  0  0  0  0999 V2000
    8.5233  -15.4742   20.1842 N   0  0  0  0  0  0  0  0  0  0  0  0
    7.8355  -16.5182   20.9198 C   0  0  1  0  0  0  0  0  0  0  0  0
    7.5774  -17.6528   19.9691 C   0  0  0  0  0  0  0  0  0  0  0  0
    7.5327  -17.0662   18.5863 C   0  0  0  0  0  0  0  0  0  0  0  0
    8.5938  -16.7152   17.9805 O   0  0  0  0  0  0  0  0  0  0  0  0
    8.5880  -16.9218   22.1204 C   0  0  0  0  0  0  0  0  0  0  0  0
    8.0673  -17.7689   22.9074 O   0  0  0  0  0  0  0  0  0  0  0  0
    6.3418  -16.8774   17.9012 O   0  0  0  0  0  0  0  0  0  0  0  0
    9.8634  -16.4295   22.4656 N   0  0  0  0  0  0  0  0  0  0  0  0
   10.6958  -16.9625   23.5310 C   0  0  1  0  0  0  0  0  0  0  0  0
   12.1397  -17.0124   23.1633 C   0  0  0  0  0  0  0  0  0  0  0  0
   12.4780  -17.6663   21.8779 C   0  0  0  0  0  0  0  0  0  0  0  0
   13.9202  -17.6194   21.5831 C   0  0  0  0  0  0  0  0  0  0  0  0
   14.7182  -16.8652   22.1459 O   0  0  0  0  0  0  0  0  0  0  0  0
   10.5090  -16.1894   24.7912 C   0  0  0  0  0  0  0  0  0  0  0  0
   11.0246  -15.0531   24.8711 O   0  0  0  0  0  0  0  0  0  0  0  0
   14.4430  -18.4830   20.5984 O   0  0  0  0  0  0  0  0  0  0  0  0
    9.7797  -16.6741   25.8999 N   0  0  0  0  0  0  0  0  0  0  0  0
    9.7333  -15.9924   27.1668 C   0  0  1  0  0  0  0  0  0  0  0  0
    8.3417  -15.5575   27.5542 C   0  0  0  0  0  0  0  0  0  0  0  0
    7.9025  -14.3574   26.8026 C   0  0  0  0  0  0  0  0  0  0  0  0
    6.8972  -14.3693   25.8602 C   0  0  0  0  0  0  0  0  0  0  0  0
    6.5035  -13.2438   25.1715 C   0  0  0  0  0  0  0  0  0  0  0  0
    7.1281  -12.0390   25.4184 C   0  0  0  0  0  0  0  0  0  0  0  0
    8.1362  -12.0105   26.3588 C   0  0  0  0  0  0  0  0  0  0  0  0
    8.5195  -13.1432   27.0396 C   0  0  0  0  0  0  0  0  0  0  0  0
   10.2848  -16.8524   28.2651 C   0  0  0  0  0  0  0  0  0  0  0  0
   10.5757  -18.0555   28.0703 O   0  0  0  0  0  0  0  0  0  0  0  0
   10.4972  -16.3563   29.5418 O   0  0  0  0  0  0  0  0  0  0  0  0
  2  3  1  0
  2  1  1  6
  3  4  1  0
  4  5  2  0
  4  8  1  0
  6  2  1  0
  7  6  2  0
  9  6  1  0
 10  9  1  0
 10 11  1  6
 12 11  1  0
 13 12  1  0
 13 14  2  0
 15 18  1  0
 15 10  1  0
 16 15  2  0
 17 13  1  0
 19 18  1  0
 19 20  1  1
 21 26  2  0
 21 20  1  0
 22 21  1  0
 23 24  1  0
 23 22  2  0
 24 25  2  0
 25 26  1  0
 27 19  1  0
 28 27  2  0
 29 27  1  0
M  END
$$$$
