DEF.pdb
     RDKit          3D

 29 29  0  0  1  0  0  0  0  0999 V2000
   10.1742  -13.5346   18.9999 N   0  0  0  0  0  0  0  0  0  0  0  0
    8.8899  -13.3273   19.6416 C   0  0  1  0  0  0  0  0  0  0  0  0
    7.8436  -13.2768   18.5643 C   0  0  0  0  0  0  0  0  0  0  0  0
    8.1564  -14.3822   17.5956 C   0  0  0  0  0  0  0  0  0  0  0  0
    8.4258  -15.5583   17.9962 O   0  0  0  0  0  0  0  0  0  0  0  0
    8.6239  -14.3516   20.6666 C   0  0  0  0  0  0  0  0  0  0  0  0
    7.5819  -14.2403   21.3806 O   0  0  0  0  0  0  0  0  0  0  0  0
    8.1681  -14.1817   16.2234 O   0  0  0  0  0  0  0  0  0  0  0  0
    9.4537  -15.4638   20.9172 N   0  0  0  0  0  0  0  0  0  0  0  0
    9.2323  -16.4410   21.9700 C   0  0  1  0  0  0  0  0  0  0  0  0
    9.6392  -17.8188   21.5714 C   0  0  0  0  0  0  0  0  0  0  0  0
    9.5790  -18.8616   22.6218 C   0  0  0  0  0  0  0  0  0  0  0  0
    9.9061  -20.2018   22.1061 C   0  0  0  0  0  0  0  0  0  0  0  0
   10.5965  -20.4092   21.1047 O   0  0  0  0  0  0  0  0  0  0  0  0
    9.9269  -16.0390   23.2256 C   0  0  0  0  0  0  0  0  0  0  0  0
   11.1618  -15.8474   23.1841 O   0  0  0  0  0  0  0  0  0  0  0  0
    9.4088  -21.3334   22.7849 O   0  0  0  0  0  0  0  0  0  0  0  0
    9.2622  -15.8633   24.4599 N   0  0  0  0  0  0  0  0  0  0  0  0
    9.9571  -15.6273   25.6981 C   0  0  1  0  0  0  0  0  0  0  0  0
   10.0190  -14.1673   26.0728 C   0  0  0  0  0  0  0  0  0  0  0  0
    8.6808  -13.5295   26.0557 C   0  0  0  0  0  0  0  0  0  0  0  0
    8.1090  -12.9194   27.1511 C   0  0  0  0  0  0  0  0  0  0  0  0
    6.8638  -12.3326   27.1159 C   0  0  0  0  0  0  0  0  0  0  0  0
    6.1371  -12.3430   25.9437 C   0  0  0  0  0  0  0  0  0  0  0  0
    6.6954  -12.9495   24.8384 C   0  0  0  0  0  0  0  0  0  0  0  0
    7.9411  -13.5322   24.8878 C   0  0  0  0  0  0  0  0  0  0  0  0
    9.3209  -16.3808   26.8283 C   0  0  0  0  0  0  0  0  0  0  0  0
    9.8141  -16.3718   27.9801 O   0  0  0  0  0  0  0  0  0  0  0  0
    8.1614  -17.1192   26.6501 O   0  0  0  0  0  0  0  0  0  0  0  0
  2  3  1  0
  2  1  1  6
  3  4  1  0
  4  5  2  0
  4  8  1  0
  6  2  1  0
  7  6  2  0
  9  6  1  0
 10  9  1  0
 10 11  1  6
 12 11  1  0
 13 12  1  0
 13 14  2  0
 15 18  1  0
 15 10  1  0
 16 15  2  0
 17 13  1  0
 19 18  1  0
 19 20  1  1
 21 26  2  0
 21 20  1  0
 22 21  1  0
 23 24  1  0
 23 22  2  0
 24 25  2  0
 25 26  1  0
 27 19  1  0
 28 27  2  0
 29 27  1  0
M  END
$$$$
