LIW.pdb
     RDKit          3D

 31 32  0  0  1  0  0  0  0  0999 V2000
    6.9979  -12.2842   19.6191 C   0  0  0  0  0  0  0  0  0  0  0  0
    7.8061  -13.4952   19.2228 C   0  0  1  0  0  0  0  0  0  0  0  0
    9.1685  -12.9635   18.7704 C   0  0  0  0  0  0  0  0  0  0  0  0
    8.1117  -14.3768   20.3992 C   0  0  0  0  0  0  0  0  0  0  0  0
    8.8926  -15.5912   20.1286 C   0  0  2  0  0  0  0  0  0  0  0  0
    8.2202  -16.3571   19.0938 N   0  0  0  0  0  0  0  0  0  0  0  0
    9.1442  -16.4592   21.3296 C   0  0  0  0  0  0  0  0  0  0  0  0
    8.2581  -17.2423   21.7001 O   0  0  0  0  0  0  0  0  0  0  0  0
   13.5130  -18.6051   20.8135 C   0  0  0  0  0  0  0  0  0  0  0  0
   12.2935  -18.7995   21.6492 C   0  0  0  0  0  0  0  0  0  0  0  0
   12.0934  -17.9392   22.8117 C   0  0  2  0  0  0  0  0  0  0  0  0
   12.6067  -18.6831   24.0708 C   0  0  0  0  0  0  0  0  0  0  0  0
   10.8089  -17.2751   23.0762 C   0  0  2  0  0  0  0  0  0  0  0  0
   10.3678  -16.3886   22.0246 N   0  0  0  0  0  0  0  0  0  0  0  0
   10.6513  -16.6775   24.4089 C   0  0  0  0  0  0  0  0  0  0  0  0
   11.1860  -15.5581   24.6181 O   0  0  0  0  0  0  0  0  0  0  0  0
    9.9530  -17.2615   25.4753 N   0  0  0  0  0  0  0  0  0  0  0  0
   10.0014  -16.6125   26.7958 C   0  0  1  0  0  0  0  0  0  0  0  0
    8.6527  -16.4369   27.3819 C   0  0  0  0  0  0  0  0  0  0  0  0
    7.7145  -15.5873   26.6466 C   0  0  0  0  0  0  0  0  0  0  0  0
    6.6588  -16.0293   25.8918 C   0  0  0  0  0  0  0  0  0  0  0  0
    5.9869  -14.9894   25.4394 N   0  0  0  0  0  0  0  0  0  0  0  0
    6.5690  -13.8494   25.8720 C   0  0  0  0  0  0  0  0  0  0  0  0
    6.2812  -12.5152   25.6837 C   0  0  0  0  0  0  0  0  0  0  0  0
    7.0647  -11.5266   26.2372 C   0  0  0  0  0  0  0  0  0  0  0  0
    8.1580  -11.9047   26.9958 C   0  0  0  0  0  0  0  0  0  0  0  0
    8.4582  -13.2218   27.1928 C   0  0  0  0  0  0  0  0  0  0  0  0
    7.6596  -14.1933   26.6339 C   0  0  0  0  0  0  0  0  0  0  0  0
   10.9225  -17.4747   27.6331 C   0  0  0  0  0  0  0  0  0  0  0  0
   11.4234  -17.0417   28.8536 O   0  0  0  0  0  0  0  0  0  0  0  0
   11.2636  -18.6075   27.2397 O   0  0  0  0  0  0  0  0  0  0  0  0
  2  1  1  1
  3  2  1  0
  4  5  1  0
  4  2  1  0
  5  7  1  0
  5  6  1  6
  7  8  2  0
  9 10  1  0
 10 11  1  0
 11 13  1  0
 11 12  1  1
 13 15  1  0
 13 14  1  6
 14  7  1  0
 15 17  1  0
 16 15  2  0
 17 18  1  0
 18 19  1  1
 19 20  1  0
 20 21  2  0
 22 21  1  0
 23 22  1  0
 24 23  2  0
 25 24  1  0
 26 27  1  0
 26 25  2  0
 27 28  2  0
 28 23  1  0
 28 20  1  0
 29 30  1  0
 29 18  1  0
 31 29  2  0
M  END
$$$$
