LIW.pdb
     RDKit          3D

 31 32  0  0  1  0  0  0  0  0999 V2000
    8.5389  -20.4803   16.4063 C   0  0  0  0  0  0  0  0  0  0  0  0
    8.1980  -20.1403   17.8362 C   0  0  1  0  0  0  0  0  0  0  0  0
    8.1272  -21.4754   18.5820 C   0  0  0  0  0  0  0  0  0  0  0  0
    9.3039  -19.3830   18.5131 C   0  0  0  0  0  0  0  0  0  0  0  0
    9.0640  -18.9639   19.9004 C   0  0  2  0  0  0  0  0  0  0  0  0
    7.6413  -19.0592   20.1769 N   0  0  0  0  0  0  0  0  0  0  0  0
    9.5625  -17.5867   20.2378 C   0  0  0  0  0  0  0  0  0  0  0  0
   10.7347  -17.2898   19.9666 O   0  0  0  0  0  0  0  0  0  0  0  0
    7.3411  -11.8822   20.4677 C   0  0  0  0  0  0  0  0  0  0  0  0
    8.3956  -12.8553   20.8733 C   0  0  0  0  0  0  0  0  0  0  0  0
    8.0740  -14.2794   20.8773 C   0  0  2  0  0  0  0  0  0  0  0  0
    6.7491  -14.4844   21.6549 C   0  0  0  0  0  0  0  0  0  0  0  0
    9.0664  -15.3001   21.2441 C   0  0  2  0  0  0  0  0  0  0  0  0
    8.7132  -16.6443   20.8507 N   0  0  0  0  0  0  0  0  0  0  0  0
    9.5783  -15.2404   22.6197 C   0  0  0  0  0  0  0  0  0  0  0  0
   10.1531  -14.1836   22.9877 O   0  0  0  0  0  0  0  0  0  0  0  0
    9.4820  -16.2762   23.5598 N   0  0  0  0  0  0  0  0  0  0  0  0
   10.0670  -16.0786   24.8963 C   0  0  1  0  0  0  0  0  0  0  0  0
    9.0941  -16.3538   25.9784 C   0  0  0  0  0  0  0  0  0  0  0  0
    7.8291  -15.6183   25.9370 C   0  0  0  0  0  0  0  0  0  0  0  0
    6.6059  -16.1494   25.6190 C   0  0  0  0  0  0  0  0  0  0  0  0
    5.6826  -15.2188   25.7576 N   0  0  0  0  0  0  0  0  0  0  0  0
    6.2577  -14.0650   26.1619 C   0  0  0  0  0  0  0  0  0  0  0  0
    5.7587  -12.8110   26.4389 C   0  0  0  0  0  0  0  0  0  0  0  0
    6.5847  -11.7792   26.8274 C   0  0  0  0  0  0  0  0  0  0  0  0
    7.9407  -12.0309   26.9363 C   0  0  0  0  0  0  0  0  0  0  0  0
    8.4525  -13.2672   26.6657 C   0  0  0  0  0  0  0  0  0  0  0  0
    7.6087  -14.2848   26.2831 C   0  0  0  0  0  0  0  0  0  0  0  0
   11.2901  -16.9705   24.9348 C   0  0  0  0  0  0  0  0  0  0  0  0
   12.2270  -16.8862   25.9560 O   0  0  0  0  0  0  0  0  0  0  0  0
   11.4925  -17.8099   24.0353 O   0  0  0  0  0  0  0  0  0  0  0  0
  2  1  1  6
  3  2  1  0
  4  5  1  0
  4  2  1  0
  5  7  1  0
  5  6  1  6
  7  8  2  0
  9 10  1  0
 10 11  1  0
 11 13  1  0
 11 12  1  1
 13 15  1  0
 13 14  1  1
 14  7  1  0
 15 17  1  0
 16 15  2  0
 17 18  1  0
 18 19  1  1
 19 20  1  0
 20 21  2  0
 22 21  1  0
 23 22  1  0
 24 23  2  0
 25 24  1  0
 26 27  1  0
 26 25  2  0
 27 28  2  0
 28 23  1  0
 28 20  1  0
 29 30  1  0
 29 18  1  0
 31 29  2  0
M  END
$$$$
