LIW.pdb
     RDKit          3D

 31 32  0  0  1  0  0  0  0  0999 V2000
    6.9094  -12.5633   18.2890 C   0  0  0  0  0  0  0  0  0  0  0  0
    7.7225  -13.7824   18.6486 C   0  0  1  0  0  0  0  0  0  0  0  0
    9.1893  -13.3686   18.5049 C   0  0  0  0  0  0  0  0  0  0  0  0
    7.5702  -14.1529   20.0957 C   0  0  0  0  0  0  0  0  0  0  0  0
    8.3710  -15.2876   20.5743 C   0  0  2  0  0  0  0  0  0  0  0  0
    8.0778  -16.4463   19.7489 N   0  0  0  0  0  0  0  0  0  0  0  0
    8.1778  -15.6277   22.0255 C   0  0  0  0  0  0  0  0  0  0  0  0
    8.1571  -14.7108   22.8589 O   0  0  0  0  0  0  0  0  0  0  0  0
    5.1086  -20.1886   23.3144 C   0  0  0  0  0  0  0  0  0  0  0  0
    5.7466  -18.8411   23.3029 C   0  0  0  0  0  0  0  0  0  0  0  0
    7.0693  -18.6843   23.9009 C   0  0  2  0  0  0  0  0  0  0  0  0
    7.0075  -19.1716   25.3709 C   0  0  0  0  0  0  0  0  0  0  0  0
    7.8295  -17.4310   23.7902 C   0  0  2  0  0  0  0  0  0  0  0  0
    8.0201  -16.9662   22.4359 N   0  0  0  0  0  0  0  0  0  0  0  0
    9.0630  -17.3497   24.5839 C   0  0  0  0  0  0  0  0  0  0  0  0
   10.0306  -18.0779   24.2428 O   0  0  0  0  0  0  0  0  0  0  0  0
    9.2474  -16.5244   25.7023 N   0  0  0  0  0  0  0  0  0  0  0  0
   10.6017  -16.3773   26.2605 C   0  0  1  0  0  0  0  0  0  0  0  0
   10.8542  -15.0064   26.7607 C   0  0  0  0  0  0  0  0  0  0  0  0
    9.8104  -14.3985   27.5877 C   0  0  0  0  0  0  0  0  0  0  0  0
    9.8353  -14.2902   28.9541 C   0  0  0  0  0  0  0  0  0  0  0  0
    8.7713  -13.6222   29.3532 N   0  0  0  0  0  0  0  0  0  0  0  0
    8.0236  -13.2770   28.2820 C   0  0  0  0  0  0  0  0  0  0  0  0
    6.8341  -12.5955   28.1445 C   0  0  0  0  0  0  0  0  0  0  0  0
    6.2643  -12.3881   26.9076 C   0  0  0  0  0  0  0  0  0  0  0  0
    6.9187  -12.8824   25.7934 C   0  0  0  0  0  0  0  0  0  0  0  0
    8.0980  -13.5600   25.9109 C   0  0  0  0  0  0  0  0  0  0  0  0
    8.6517  -13.7523   27.1561 C   0  0  0  0  0  0  0  0  0  0  0  0
   10.7140  -17.4459   27.3275 C   0  0  0  0  0  0  0  0  0  0  0  0
   11.9390  -17.8221   27.8621 O   0  0  0  0  0  0  0  0  0  0  0  0
    9.6966  -18.0267   27.7541 O   0  0  0  0  0  0  0  0  0  0  0  0
  2  1  1  1
  3  2  1  0
  4  5  1  0
  4  2  1  0
  5  7  1  0
  5  6  1  6
  7  8  2  0
  9 10  1  0
 10 11  1  0
 11 13  1  0
 11 12  1  1
 13 15  1  0
 13 14  1  6
 14  7  1  0
 15 17  1  0
 16 15  2  0
 17 18  1  0
 18 19  1  1
 19 20  1  0
 20 21  2  0
 22 21  1  0
 23 22  1  0
 24 23  2  0
 25 24  1  0
 26 27  1  0
 26 25  2  0
 27 28  2  0
 28 23  1  0
 28 20  1  0
 29 30  1  0
 29 18  1  0
 31 29  2  0
M  END
$$$$
