LIW.pdb
     RDKit          3D

 31 32  0  0  1  0  0  0  0  0999 V2000
    3.4230  -20.4184   23.3225 C   0  0  0  0  0  0  0  0  0  0  0  0
    3.9032  -19.8365   22.0158 C   0  0  1  0  0  0  0  0  0  0  0  0
    2.7104  -19.0780   21.4281 C   0  0  0  0  0  0  0  0  0  0  0  0
    4.9587  -18.7884   22.2212 C   0  0  0  0  0  0  0  0  0  0  0  0
    5.3507  -18.0063   21.0411 C   0  0  2  0  0  0  0  0  0  0  0  0
    5.3430  -18.8788   19.8799 N   0  0  0  0  0  0  0  0  0  0  0  0
    6.6803  -17.3151   21.1565 C   0  0  0  0  0  0  0  0  0  0  0  0
    7.7018  -18.0005   21.3060 O   0  0  0  0  0  0  0  0  0  0  0  0
    7.2406  -12.1720   18.8786 C   0  0  0  0  0  0  0  0  0  0  0  0
    7.4502  -13.5681   19.3585 C   0  0  0  0  0  0  0  0  0  0  0  0
    7.9187  -13.7787   20.7252 C   0  0  2  0  0  0  0  0  0  0  0  0
    9.2779  -13.0545   20.8985 C   0  0  0  0  0  0  0  0  0  0  0  0
    7.9478  -15.1135   21.3406 C   0  0  2  0  0  0  0  0  0  0  0  0
    6.7686  -15.9103   21.0938 N   0  0  0  0  0  0  0  0  0  0  0  0
    8.3716  -15.1694   22.7460 C   0  0  0  0  0  0  0  0  0  0  0  0
    7.7474  -14.4601   23.5768 O   0  0  0  0  0  0  0  0  0  0  0  0
    9.4268  -15.9506   23.2380 N   0  0  0  0  0  0  0  0  0  0  0  0
   10.0301  -15.5945   24.5328 C   0  0  1  0  0  0  0  0  0  0  0  0
    9.2332  -16.0940   25.6768 C   0  0  0  0  0  0  0  0  0  0  0  0
    7.9148  -15.4916   25.8811 C   0  0  0  0  0  0  0  0  0  0  0  0
    6.7117  -16.1309   25.7279 C   0  0  0  0  0  0  0  0  0  0  0  0
    5.7398  -15.3078   26.0678 N   0  0  0  0  0  0  0  0  0  0  0  0
    6.2617  -14.1205   26.4468 C   0  0  0  0  0  0  0  0  0  0  0  0
    5.6985  -12.9386   26.8760 C   0  0  0  0  0  0  0  0  0  0  0  0
    6.4758  -11.8461   27.1922 C   0  0  0  0  0  0  0  0  0  0  0  0
    7.8490  -11.9614   27.0700 C   0  0  0  0  0  0  0  0  0  0  0  0
    8.4241  -13.1247   26.6462 C   0  0  0  0  0  0  0  0  0  0  0  0
    7.6289  -14.2053   26.3394 C   0  0  0  0  0  0  0  0  0  0  0  0
   11.4393  -16.1465   24.4842 C   0  0  0  0  0  0  0  0  0  0  0  0
   12.3556  -15.9076   25.4997 O   0  0  0  0  0  0  0  0  0  0  0  0
   11.8192  -16.8333   23.5155 O   0  0  0  0  0  0  0  0  0  0  0  0
  2  1  1  1
  3  2  1  0
  4  5  1  0
  4  2  1  0
  5  7  1  0
  5  6  1  6
  7  8  2  0
  9 10  1  0
 10 11  1  0
 11 13  1  0
 11 12  1  6
 13 15  1  0
 13 14  1  1
 14  7  1  0
 15 17  1  0
 16 15  2  0
 17 18  1  0
 18 19  1  1
 19 20  1  0
 20 21  2  0
 22 21  1  0
 23 22  1  0
 24 23  2  0
 25 24  1  0
 26 27  1  0
 26 25  2  0
 27 28  2  0
 28 23  1  0
 28 20  1  0
 29 30  1  0
 29 18  1  0
 31 29  2  0
M  END
$$$$
