LIW.pdb
     RDKit          3D

 31 32  0  0  1  0  0  0  0  0999 V2000
    6.9504  -12.6744   19.5291 C   0  0  0  0  0  0  0  0  0  0  0  0
    7.2255  -13.8752   18.6578 C   0  0  1  0  0  0  0  0  0  0  0  0
    7.8197  -13.3263   17.3582 C   0  0  0  0  0  0  0  0  0  0  0  0
    8.3028  -14.7505   19.2305 C   0  0  0  0  0  0  0  0  0  0  0  0
    7.9650  -15.5032   20.4459 C   0  0  2  0  0  0  0  0  0  0  0  0
    6.5201  -15.5290   20.5920 N   0  0  0  0  0  0  0  0  0  0  0  0
    8.6003  -14.9844   21.7054 C   0  0  0  0  0  0  0  0  0  0  0  0
    9.7017  -14.4210   21.6337 O   0  0  0  0  0  0  0  0  0  0  0  0
    5.4388  -12.6232   25.5702 C   0  0  0  0  0  0  0  0  0  0  0  0
    6.5288  -13.0739   24.6581 C   0  0  0  0  0  0  0  0  0  0  0  0
    7.4460  -14.1126   25.1182 C   0  0  2  0  0  0  0  0  0  0  0  0
    8.0727  -13.6587   26.4610 C   0  0  0  0  0  0  0  0  0  0  0  0
    8.4608  -14.7021   24.2329 C   0  0  2  0  0  0  0  0  0  0  0  0
    7.9561  -15.1322   22.9497 N   0  0  0  0  0  0  0  0  0  0  0  0
    9.3507  -15.6995   24.8422 C   0  0  0  0  0  0  0  0  0  0  0  0
    8.8694  -16.8303   25.1114 O   0  0  0  0  0  0  0  0  0  0  0  0
   10.7011  -15.4887   25.1553 N   0  0  0  0  0  0  0  0  0  0  0  0
   11.5043  -16.6251   25.6357 C   0  0  1  0  0  0  0  0  0  0  0  0
   10.6925  -17.5996   26.4004 C   0  0  0  0  0  0  0  0  0  0  0  0
   10.3983  -17.2688   27.7957 C   0  0  0  0  0  0  0  0  0  0  0  0
    9.7158  -18.0648   28.6789 C   0  0  0  0  0  0  0  0  0  0  0  0
    9.7046  -17.4845   29.8625 N   0  0  0  0  0  0  0  0  0  0  0  0
   10.3655  -16.3078   29.7977 C   0  0  0  0  0  0  0  0  0  0  0  0
   10.6326  -15.3258   30.7264 C   0  0  0  0  0  0  0  0  0  0  0  0
   11.3312  -14.1879   30.3875 C   0  0  0  0  0  0  0  0  0  0  0  0
   11.7653  -14.0502   29.0811 C   0  0  0  0  0  0  0  0  0  0  0  0
   11.5095  -15.0130   28.1477 C   0  0  0  0  0  0  0  0  0  0  0  0
   10.8133  -16.1439   28.5090 C   0  0  0  0  0  0  0  0  0  0  0  0
   12.1526  -17.2096   24.3984 C   0  0  0  0  0  0  0  0  0  0  0  0
   13.0442  -18.2716   24.4701 O   0  0  0  0  0  0  0  0  0  0  0  0
   11.9035  -16.7420   23.2698 O   0  0  0  0  0  0  0  0  0  0  0  0
  2  1  1  1
  3  2  1  0
  4  5  1  0
  4  2  1  0
  5  7  1  0
  5  6  1  1
  7  8  2  0
  9 10  1  0
 10 11  1  0
 11 13  1  0
 11 12  1  1
 13 15  1  0
 13 14  1  6
 14  7  1  0
 15 17  1  0
 16 15  2  0
 17 18  1  0
 18 19  1  6
 19 20  1  0
 20 21  2  0
 22 21  1  0
 23 22  1  0
 24 23  2  0
 25 24  1  0
 26 27  1  0
 26 25  2  0
 27 28  2  0
 28 23  1  0
 28 20  1  0
 29 30  1  0
 29 18  1  0
 31 29  2  0
M  END
$$$$
