LIW.pdb
     RDKit          3D

 31 32  0  0  1  0  0  0  0  0999 V2000
    7.3195  -12.7581   16.5229 C   0  0  0  0  0  0  0  0  0  0  0  0
    8.0689  -13.9941   16.9555 C   0  0  1  0  0  0  0  0  0  0  0  0
    9.5388  -13.7378   16.6130 C   0  0  0  0  0  0  0  0  0  0  0  0
    8.0493  -14.1704   18.4465 C   0  0  0  0  0  0  0  0  0  0  0  0
    8.7596  -15.3394   18.9823 C   0  0  2  0  0  0  0  0  0  0  0  0
    8.2823  -16.5287   18.2987 N   0  0  0  0  0  0  0  0  0  0  0  0
    8.6438  -15.5198   20.4700 C   0  0  0  0  0  0  0  0  0  0  0  0
    8.9954  -14.5946   21.2156 O   0  0  0  0  0  0  0  0  0  0  0  0
    4.3474  -18.8137   21.7249 C   0  0  0  0  0  0  0  0  0  0  0  0
    5.3274  -17.6905   21.7571 C   0  0  0  0  0  0  0  0  0  0  0  0
    6.5703  -17.8631   22.5036 C   0  0  2  0  0  0  0  0  0  0  0  0
    6.2215  -18.1076   23.9938 C   0  0  0  0  0  0  0  0  0  0  0  0
    7.6946  -16.9253   22.3701 C   0  0  2  0  0  0  0  0  0  0  0  0
    8.1418  -16.7194   21.0122 N   0  0  0  0  0  0  0  0  0  0  0  0
    8.8147  -17.1211   23.3001 C   0  0  0  0  0  0  0  0  0  0  0  0
    9.6444  -18.0298   23.0381 O   0  0  0  0  0  0  0  0  0  0  0  0
    9.0313  -16.3750   24.4673 N   0  0  0  0  0  0  0  0  0  0  0  0
   10.2093  -16.6796   25.2962 C   0  0  1  0  0  0  0  0  0  0  0  0
   10.7028  -15.4887   26.0252 C   0  0  0  0  0  0  0  0  0  0  0  0
    9.7603  -14.8245   26.9271 C   0  0  0  0  0  0  0  0  0  0  0  0
    9.7439  -14.9412   28.2930 C   0  0  0  0  0  0  0  0  0  0  0  0
    8.8126  -14.1470   28.7824 N   0  0  0  0  0  0  0  0  0  0  0  0
    8.1952  -13.4949   27.7729 C   0  0  0  0  0  0  0  0  0  0  0  0
    7.1678  -12.5777   27.7336 C   0  0  0  0  0  0  0  0  0  0  0  0
    6.7056  -12.0680   26.5403 C   0  0  0  0  0  0  0  0  0  0  0  0
    7.3015  -12.4994   25.3687 C   0  0  0  0  0  0  0  0  0  0  0  0
    8.3205  -13.4077   25.3887 C   0  0  0  0  0  0  0  0  0  0  0  0
    8.7695  -13.9010   26.5925 C   0  0  0  0  0  0  0  0  0  0  0  0
    9.7798  -17.8143   26.2022 C   0  0  0  0  0  0  0  0  0  0  0  0
   10.7025  -18.6346   26.8375 O   0  0  0  0  0  0  0  0  0  0  0  0
    8.5708  -18.0476   26.3982 O   0  0  0  0  0  0  0  0  0  0  0  0
  2  1  1  1
  3  2  1  0
  4  5  1  0
  4  2  1  0
  5  7  1  0
  5  6  1  6
  7  8  2  0
  9 10  1  0
 10 11  1  0
 11 13  1  0
 11 12  1  1
 13 15  1  0
 13 14  1  6
 14  7  1  0
 15 17  1  0
 16 15  2  0
 17 18  1  0
 18 19  1  1
 19 20  1  0
 20 21  2  0
 22 21  1  0
 23 22  1  0
 24 23  2  0
 25 24  1  0
 26 27  1  0
 26 25  2  0
 27 28  2  0
 28 23  1  0
 28 20  1  0
 29 30  1  0
 29 18  1  0
 31 29  2  0
M  END
$$$$
