LIW.pdb
     RDKit          3D

 31 32  0  0  1  0  0  0  0  0999 V2000
    9.8287  -22.4360   18.8711 C   0  0  0  0  0  0  0  0  0  0  0  0
    8.8966  -21.2495   18.8680 C   0  0  1  0  0  0  0  0  0  0  0  0
    7.6937  -21.6557   19.7234 C   0  0  0  0  0  0  0  0  0  0  0  0
    9.4891  -20.0673   19.5792 C   0  0  0  0  0  0  0  0  0  0  0  0
    8.6220  -18.8929   19.7431 C   0  0  2  0  0  0  0  0  0  0  0  0
    7.9992  -18.5913   18.4661 N   0  0  0  0  0  0  0  0  0  0  0  0
    9.3115  -17.6705   20.2807 C   0  0  0  0  0  0  0  0  0  0  0  0
   10.5136  -17.5013   20.0316 O   0  0  0  0  0  0  0  0  0  0  0  0
    6.7652  -12.8886   19.7178 C   0  0  0  0  0  0  0  0  0  0  0  0
    7.7927  -13.9544   19.8956 C   0  0  0  0  0  0  0  0  0  0  0  0
    8.1996  -14.3198   21.2493 C   0  0  2  0  0  0  0  0  0  0  0  0
    8.6794  -13.0415   21.9827 C   0  0  0  0  0  0  0  0  0  0  0  0
    9.1012  -15.4508   21.5121 C   0  0  2  0  0  0  0  0  0  0  0  0
    8.6056  -16.7279   21.0542 N   0  0  0  0  0  0  0  0  0  0  0  0
    9.6662  -15.5273   22.8659 C   0  0  0  0  0  0  0  0  0  0  0  0
   10.4342  -14.6020   23.2356 O   0  0  0  0  0  0  0  0  0  0  0  0
    9.4210  -16.5591   23.7831 N   0  0  0  0  0  0  0  0  0  0  0  0
   10.0591  -16.4974   25.1084 C   0  0  1  0  0  0  0  0  0  0  0  0
    9.6717  -15.2810   25.8590 C   0  0  0  0  0  0  0  0  0  0  0  0
    8.2469  -14.9472   25.8930 C   0  0  0  0  0  0  0  0  0  0  0  0
    7.2156  -15.8213   25.6653 C   0  0  0  0  0  0  0  0  0  0  0  0
    6.0707  -15.1957   25.8532 N   0  0  0  0  0  0  0  0  0  0  0  0
    6.3065  -13.9119   26.2024 C   0  0  0  0  0  0  0  0  0  0  0  0
    5.4802  -12.8491   26.4955 C   0  0  0  0  0  0  0  0  0  0  0  0
    5.9902  -11.6096   26.8135 C   0  0  0  0  0  0  0  0  0  0  0  0
    7.3645  -11.4521   26.8342 C   0  0  0  0  0  0  0  0  0  0  0  0
    8.1982  -12.4940   26.5464 C   0  0  0  0  0  0  0  0  0  0  0  0
    7.6674  -13.7251   26.2353 C   0  0  0  0  0  0  0  0  0  0  0  0
    9.6742  -17.7886   25.7994 C   0  0  0  0  0  0  0  0  0  0  0  0
   10.2365  -18.1675   27.0111 O   0  0  0  0  0  0  0  0  0  0  0  0
    8.8361  -18.5572   25.2881 O   0  0  0  0  0  0  0  0  0  0  0  0
  2  1  1  1
  3  2  1  0
  4  5  1  0
  4  2  1  0
  5  7  1  0
  5  6  1  6
  7  8  2  0
  9 10  1  0
 10 11  1  0
 11 13  1  0
 11 12  1  6
 13 15  1  0
 13 14  1  1
 14  7  1  0
 15 17  1  0
 16 15  2  0
 17 18  1  0
 18 19  1  1
 19 20  1  0
 20 21  2  0
 22 21  1  0
 23 22  1  0
 24 23  2  0
 25 24  1  0
 26 27  1  0
 26 25  2  0
 27 28  2  0
 28 23  1  0
 28 20  1  0
 29 30  1  0
 29 18  1  0
 31 29  2  0
M  END
$$$$
