LIW.pdb
     RDKit          3D

 31 32  0  0  1  0  0  0  0  0999 V2000
    9.1707  -22.7727   21.6187 C   0  0  0  0  0  0  0  0  0  0  0  0
    8.6876  -21.7640   20.6060 C   0  0  1  0  0  0  0  0  0  0  0  0
    7.2232  -22.1130   20.3283 C   0  0  0  0  0  0  0  0  0  0  0  0
    8.6482  -20.3737   21.1719 C   0  0  0  0  0  0  0  0  0  0  0  0
    8.1605  -19.3122   20.2814 C   0  0  2  0  0  0  0  0  0  0  0  0
    8.3503  -19.7346   18.9047 N   0  0  0  0  0  0  0  0  0  0  0  0
    8.7941  -17.9667   20.4987 C   0  0  0  0  0  0  0  0  0  0  0  0
    9.9692  -17.7930   20.1458 O   0  0  0  0  0  0  0  0  0  0  0  0
    7.3505  -12.0891   20.0855 C   0  0  0  0  0  0  0  0  0  0  0  0
    8.1779  -13.1123   20.7866 C   0  0  0  0  0  0  0  0  0  0  0  0
    7.7730  -14.5133   20.7148 C   0  0  2  0  0  0  0  0  0  0  0  0
    6.2719  -14.6133   21.0873 C   0  0  0  0  0  0  0  0  0  0  0  0
    8.5506  -15.5818   21.3590 C   0  0  2  0  0  0  0  0  0  0  0  0
    8.0664  -16.9161   21.0918 N   0  0  0  0  0  0  0  0  0  0  0  0
    8.8736  -15.3819   22.7780 C   0  0  0  0  0  0  0  0  0  0  0  0
    8.1420  -14.6044   23.4436 O   0  0  0  0  0  0  0  0  0  0  0  0
    9.9427  -15.9879   23.4530 N   0  0  0  0  0  0  0  0  0  0  0  0
   10.1555  -15.6712   24.8750 C   0  0  1  0  0  0  0  0  0  0  0  0
    9.0495  -16.1626   25.7286 C   0  0  0  0  0  0  0  0  0  0  0  0
    7.8253  -15.3604   25.7564 C   0  0  0  0  0  0  0  0  0  0  0  0
    6.5555  -15.8326   25.5469 C   0  0  0  0  0  0  0  0  0  0  0  0
    5.6953  -14.8493   25.7226 N   0  0  0  0  0  0  0  0  0  0  0  0
    6.3590  -13.7175   26.0454 C   0  0  0  0  0  0  0  0  0  0  0  0
    5.9488  -12.4306   26.3172 C   0  0  0  0  0  0  0  0  0  0  0  0
    6.8547  -11.4349   26.6097 C   0  0  0  0  0  0  0  0  0  0  0  0
    8.2000  -11.7573   26.6267 C   0  0  0  0  0  0  0  0  0  0  0  0
    8.6244  -13.0270   26.3598 C   0  0  0  0  0  0  0  0  0  0  0  0
    7.7019  -14.0075   26.0739 C   0  0  0  0  0  0  0  0  0  0  0  0
   11.5038  -16.2670   25.2212 C   0  0  0  0  0  0  0  0  0  0  0  0
   12.2457  -16.9889   24.2959 O   0  0  0  0  0  0  0  0  0  0  0  0
   11.9853  -16.1277   26.3628 O   0  0  0  0  0  0  0  0  0  0  0  0
  2  1  1  1
  3  2  1  0
  4  5  1  0
  4  2  1  0
  5  7  1  0
  5  6  1  6
  7  8  2  0
  9 10  1  0
 10 11  1  0
 11 13  1  0
 11 12  1  1
 13 15  1  0
 13 14  1  1
 14  7  1  0
 15 17  1  0
 16 15  2  0
 17 18  1  0
 18 19  1  1
 19 20  1  0
 20 21  2  0
 22 21  1  0
 23 22  1  0
 24 23  2  0
 25 24  1  0
 26 27  1  0
 26 25  2  0
 27 28  2  0
 28 23  1  0
 28 20  1  0
 29 30  1  0
 29 18  1  0
 31 29  2  0
M  END
$$$$
