LIW.pdb
     RDKit          3D

 31 32  0  0  1  0  0  0  0  0999 V2000
    7.1103  -12.3391   19.8134 C   0  0  0  0  0  0  0  0  0  0  0  0
    7.7061  -13.6796   19.4602 C   0  0  1  0  0  0  0  0  0  0  0  0
    9.0305  -13.3795   18.7534 C   0  0  0  0  0  0  0  0  0  0  0  0
    8.0940  -14.4618   20.6818 C   0  0  0  0  0  0  0  0  0  0  0  0
    8.6909  -15.7850   20.4563 C   0  0  2  0  0  0  0  0  0  0  0  0
    7.7525  -16.5974   19.7020 N   0  0  0  0  0  0  0  0  0  0  0  0
    9.1096  -16.5086   21.7054 C   0  0  0  0  0  0  0  0  0  0  0  0
    8.2611  -17.1525   22.3387 O   0  0  0  0  0  0  0  0  0  0  0  0
   14.0893  -18.5051   21.1929 C   0  0  0  0  0  0  0  0  0  0  0  0
   12.6848  -18.4950   21.6934 C   0  0  0  0  0  0  0  0  0  0  0  0
   12.3791  -17.7559   22.9149 C   0  0  2  0  0  0  0  0  0  0  0  0
   12.9579  -18.5365   24.1223 C   0  0  0  0  0  0  0  0  0  0  0  0
   11.0266  -17.2586   23.2054 C   0  0  2  0  0  0  0  0  0  0  0  0
   10.4452  -16.4602   22.1514 N   0  0  0  0  0  0  0  0  0  0  0  0
   10.8287  -16.6572   24.5310 C   0  0  0  0  0  0  0  0  0  0  0  0
   11.3851  -15.5533   24.7647 O   0  0  0  0  0  0  0  0  0  0  0  0
   10.0692  -17.2218   25.5655 N   0  0  0  0  0  0  0  0  0  0  0  0
   10.1205  -16.6056   26.9016 C   0  0  1  0  0  0  0  0  0  0  0  0
    8.7736  -16.4504   27.4975 C   0  0  0  0  0  0  0  0  0  0  0  0
    7.7992  -15.6627   26.7406 C   0  0  0  0  0  0  0  0  0  0  0  0
    6.7740  -16.1710   25.9857 C   0  0  0  0  0  0  0  0  0  0  0  0
    6.0534  -15.1748   25.5105 N   0  0  0  0  0  0  0  0  0  0  0  0
    6.5726  -13.9992   25.9277 C   0  0  0  0  0  0  0  0  0  0  0  0
    6.2183  -12.6850   25.7142 C   0  0  0  0  0  0  0  0  0  0  0  0
    6.9454  -11.6482   26.2565 C   0  0  0  0  0  0  0  0  0  0  0  0
    8.0504  -11.9568   27.0297 C   0  0  0  0  0  0  0  0  0  0  0  0
    8.4161  -13.2532   27.2516 C   0  0  0  0  0  0  0  0  0  0  0  0
    7.6730  -14.2737   26.7035 C   0  0  0  0  0  0  0  0  0  0  0  0
   11.0487  -17.4844   27.7133 C   0  0  0  0  0  0  0  0  0  0  0  0
   11.5783  -17.0670   28.9270 O   0  0  0  0  0  0  0  0  0  0  0  0
   11.3699  -18.6174   27.3039 O   0  0  0  0  0  0  0  0  0  0  0  0
  2  1  1  1
  3  2  1  0
  4  5  1  0
  4  2  1  0
  5  7  1  0
  5  6  1  1
  7  8  2  0
  9 10  1  0
 10 11  1  0
 11 13  1  0
 11 12  1  1
 13 15  1  0
 13 14  1  6
 14  7  1  0
 15 17  1  0
 16 15  2  0
 17 18  1  0
 18 19  1  1
 19 20  1  0
 20 21  2  0
 22 21  1  0
 23 22  1  0
 24 23  2  0
 25 24  1  0
 26 27  1  0
 26 25  2  0
 27 28  2  0
 28 23  1  0
 28 20  1  0
 29 30  1  0
 29 18  1  0
 31 29  2  0
M  END
$$$$
