AYI.pdb
     RDKit          3D

 26 26  0  0  1  0  0  0  0  0999 V2000
   11.7772  -18.9053   20.6517 C   0  0  0  0  0  0  0  0  0  0  0  0
   11.0262  -17.6895   20.1371 C   0  0  2  0  0  0  0  0  0  0  0  0
   11.7720  -17.0184   19.1084 N   0  0  0  0  0  0  0  0  0  0  0  0
   10.7084  -16.7784   21.2956 C   0  0  0  0  0  0  0  0  0  0  0  0
   11.5807  -15.9199   21.5831 O   0  0  0  0  0  0  0  0  0  0  0  0
    5.6645  -11.6499   26.4345 O   0  0  0  0  0  0  0  0  0  0  0  0
    6.1586  -12.6274   25.5592 C   0  0  0  0  0  0  0  0  0  0  0  0
    6.6926  -12.2869   24.3348 C   0  0  0  0  0  0  0  0  0  0  0  0
    7.1715  -13.2962   23.4995 C   0  0  0  0  0  0  0  0  0  0  0  0
    7.1254  -14.6202   23.8627 C   0  0  0  0  0  0  0  0  0  0  0  0
    7.6304  -15.6521   22.9720 C   0  0  0  0  0  0  0  0  0  0  0  0
    9.0948  -15.9131   22.9913 C   0  0  2  0  0  0  0  0  0  0  0  0
    9.4982  -16.8887   22.0103 N   0  0  0  0  0  0  0  0  0  0  0  0
    9.6950  -16.2020   24.2907 C   0  0  0  0  0  0  0  0  0  0  0  0
   10.0488  -17.3937   24.5750 O   0  0  0  0  0  0  0  0  0  0  0  0
    6.5934  -14.9724   25.0857 C   0  0  0  0  0  0  0  0  0  0  0  0
    6.1170  -13.9584   25.9150 C   0  0  0  0  0  0  0  0  0  0  0  0
   10.6993  -13.9597   30.0439 C   0  0  0  0  0  0  0  0  0  0  0  0
   10.9792  -14.9398   28.9428 C   0  0  0  0  0  0  0  0  0  0  0  0
   10.3278  -14.5259   27.6350 C   0  0  2  0  0  0  0  0  0  0  0  0
    8.8446  -14.3768   27.9074 C   0  0  0  0  0  0  0  0  0  0  0  0
   10.4981  -15.6271   26.6075 C   0  0  2  0  0  0  0  0  0  0  0  0
    9.9430  -15.2542   25.3271 N   0  0  0  0  0  0  0  0  0  0  0  0
    9.9679  -16.8853   27.1541 C   0  0  0  0  0  0  0  0  0  0  0  0
    8.6657  -17.3137   26.9534 O   0  0  0  0  0  0  0  0  0  0  0  0
   10.7146  -17.6232   27.8402 O   0  0  0  0  0  0  0  0  0  0  0  0
  2  3  1  0
  2  1  1  1
  4  2  1  0
  5  4  2  0
  7  6  1  0
  7  8  2  0
  9  8  1  0
 10  9  2  0
 11 10  1  0
 12 11  1  1
 12 13  1  0
 13  4  1  0
 14 23  1  0
 14 12  1  0
 15 14  2  0
 16 17  2  0
 16 10  1  0
 17  7  1  0
 18 19  1  0
 19 20  1  0
 20 22  1  0
 20 21  1  1
 22 23  1  6
 24 25  1  0
 24 22  1  0
 26 24  2  0
M  END
$$$$
