AYI.pdb
     RDKit          3D

 26 26  0  0  1  0  0  0  0  0999 V2000
    5.5946  -18.3649   23.4699 C   0  0  0  0  0  0  0  0  0  0  0  0
    6.0404  -18.0034   22.0636 C   0  0  2  0  0  0  0  0  0  0  0  0
    6.2128  -19.1804   21.2575 N   0  0  0  0  0  0  0  0  0  0  0  0
    7.2996  -17.1779   22.1414 C   0  0  0  0  0  0  0  0  0  0  0  0
    8.3837  -17.8139   22.1147 O   0  0  0  0  0  0  0  0  0  0  0  0
    8.0818  -14.3501   15.8704 O   0  0  0  0  0  0  0  0  0  0  0  0
    8.1313  -14.1800   17.2613 C   0  0  0  0  0  0  0  0  0  0  0  0
    7.3224  -13.2638   17.8990 C   0  0  0  0  0  0  0  0  0  0  0  0
    7.4087  -13.1320   19.2850 C   0  0  0  0  0  0  0  0  0  0  0  0
    8.2777  -13.8893   20.0322 C   0  0  0  0  0  0  0  0  0  0  0  0
    8.3481  -13.7306   21.4755 C   0  0  0  0  0  0  0  0  0  0  0  0
    8.4501  -14.9686   22.2939 C   0  0  2  0  0  0  0  0  0  0  0  0
    7.2551  -15.7720   22.2373 N   0  0  0  0  0  0  0  0  0  0  0  0
    8.9074  -14.8112   23.6717 C   0  0  0  0  0  0  0  0  0  0  0  0
   10.0928  -14.4023   23.9037 O   0  0  0  0  0  0  0  0  0  0  0  0
    9.0916  -14.8094   19.4046 C   0  0  0  0  0  0  0  0  0  0  0  0
    8.9996  -14.9355   18.0195 C   0  0  0  0  0  0  0  0  0  0  0  0
    6.5081  -11.6002   26.5109 C   0  0  0  0  0  0  0  0  0  0  0  0
    7.4943  -12.5737   25.9354 C   0  0  0  0  0  0  0  0  0  0  0  0
    7.7410  -13.7487   26.8653 C   0  0  2  0  0  0  0  0  0  0  0  0
    8.5112  -13.2156   28.0566 C   0  0  0  0  0  0  0  0  0  0  0  0
    8.6168  -14.7740   26.1731 C   0  0  2  0  0  0  0  0  0  0  0  0
    8.1387  -15.0751   24.8437 N   0  0  0  0  0  0  0  0  0  0  0  0
    8.7661  -15.9498   27.0437 C   0  0  0  0  0  0  0  0  0  0  0  0
    9.6023  -15.9784   28.1480 O   0  0  0  0  0  0  0  0  0  0  0  0
    8.1134  -16.9908   26.7920 O   0  0  0  0  0  0  0  0  0  0  0  0
  2  3  1  0
  2  1  1  1
  4  2  1  0
  5  4  2  0
  7  6  1  0
  7  8  2  0
  9  8  1  0
 10  9  2  0
 11 10  1  0
 12 11  1  1
 12 13  1  0
 13  4  1  0
 14 23  1  0
 14 12  1  0
 15 14  2  0
 16 17  2  0
 16 10  1  0
 17  7  1  0
 18 19  1  0
 19 20  1  0
 20 22  1  0
 20 21  1  1
 22 23  1  6
 24 25  1  0
 24 22  1  0
 26 24  2  0
M  END
$$$$
