AYI.pdb
     RDKit          3D

 26 26  0  0  1  0  0  0  0  0999 V2000
    7.6275  -14.7393   19.1425 C   0  0  0  0  0  0  0  0  0  0  0  0
    7.5884  -16.2262   19.4494 C   0  0  2  0  0  0  0  0  0  0  0  0
    6.6618  -16.9076   18.5880 N   0  0  0  0  0  0  0  0  0  0  0  0
    7.2583  -16.4212   20.9075 C   0  0  0  0  0  0  0  0  0  0  0  0
    6.0390  -16.3822   21.2114 O   0  0  0  0  0  0  0  0  0  0  0  0
    8.1060  -19.3876   29.2100 O   0  0  0  0  0  0  0  0  0  0  0  0
    8.1046  -19.1067   27.8364 C   0  0  0  0  0  0  0  0  0  0  0  0
    6.9370  -18.8020   27.1699 C   0  0  0  0  0  0  0  0  0  0  0  0
    6.9878  -18.5295   25.8028 C   0  0  0  0  0  0  0  0  0  0  0  0
    8.1688  -18.5570   25.1018 C   0  0  0  0  0  0  0  0  0  0  0  0
    8.1929  -18.2702   23.6769 C   0  0  0  0  0  0  0  0  0  0  0  0
    7.9638  -16.8606   23.2606 C   0  0  2  0  0  0  0  0  0  0  0  0
    8.2662  -16.6359   21.8696 N   0  0  0  0  0  0  0  0  0  0  0  0
    8.5583  -15.8221   24.0974 C   0  0  0  0  0  0  0  0  0  0  0  0
    9.8080  -15.5810   24.0169 O   0  0  0  0  0  0  0  0  0  0  0  0
    9.3433  -18.8603   25.7586 C   0  0  0  0  0  0  0  0  0  0  0  0
    9.2847  -19.1313   27.1246 C   0  0  0  0  0  0  0  0  0  0  0  0
    5.6765  -11.6386   26.6952 C   0  0  0  0  0  0  0  0  0  0  0  0
    6.4177  -12.9335   26.5356 C   0  0  0  0  0  0  0  0  0  0  0  0
    7.7979  -12.7277   25.9368 C   0  0  2  0  0  0  0  0  0  0  0  0
    7.5956  -12.2604   24.5095 C   0  0  0  0  0  0  0  0  0  0  0  0
    8.5365  -14.0503   25.8871 C   0  0  2  0  0  0  0  0  0  0  0  0
    7.8638  -15.0068   25.0393 N   0  0  0  0  0  0  0  0  0  0  0  0
    8.7778  -14.5217   27.2592 C   0  0  0  0  0  0  0  0  0  0  0  0
    9.6493  -13.8973   28.1367 O   0  0  0  0  0  0  0  0  0  0  0  0
    8.1753  -15.5393   27.6769 O   0  0  0  0  0  0  0  0  0  0  0  0
  2  3  1  0
  2  1  1  6
  4  2  1  0
  5  4  2  0
  7  6  1  0
  7  8  2  0
  9  8  1  0
 10  9  2  0
 11 10  1  0
 12 11  1  1
 12 13  1  0
 13  4  1  0
 14 23  1  0
 14 12  1  0
 15 14  2  0
 16 17  2  0
 16 10  1  0
 17  7  1  0
 18 19  1  0
 19 20  1  0
 20 22  1  0
 20 21  1  6
 22 23  1  6
 24 25  1  0
 24 22  1  0
 26 24  2  0
M  END
$$$$
