AYI.pdb
     RDKit          3D

 26 26  0  0  1  0  0  0  0  0999 V2000
    5.7249  -20.5678   21.9170 C   0  0  0  0  0  0  0  0  0  0  0  0
    6.7949  -19.4910   21.9688 C   0  0  2  0  0  0  0  0  0  0  0  0
    8.1053  -20.0561   21.8011 N   0  0  0  0  0  0  0  0  0  0  0  0
    6.6657  -18.7281   23.2628 C   0  0  0  0  0  0  0  0  0  0  0  0
    5.5308  -18.2497   23.5150 O   0  0  0  0  0  0  0  0  0  0  0  0
    5.3121  -23.3551   27.8231 O   0  0  0  0  0  0  0  0  0  0  0  0
    5.9977  -22.1707   27.5179 C   0  0  0  0  0  0  0  0  0  0  0  0
    5.5622  -20.9506   27.9889 C   0  0  0  0  0  0  0  0  0  0  0  0
    6.2791  -19.8007   27.6578 C   0  0  0  0  0  0  0  0  0  0  0  0
    7.4067  -19.8501   26.8749 C   0  0  0  0  0  0  0  0  0  0  0  0
    8.1342  -18.6358   26.5439 C   0  0  0  0  0  0  0  0  0  0  0  0
    7.6502  -17.8464   25.3796 C   0  0  2  0  0  0  0  0  0  0  0  0
    7.7606  -18.5661   24.1359 N   0  0  0  0  0  0  0  0  0  0  0  0
    8.1692  -16.4883   25.2436 C   0  0  0  0  0  0  0  0  0  0  0  0
    9.2593  -16.2861   24.6135 O   0  0  0  0  0  0  0  0  0  0  0  0
    7.8518  -21.0657   26.3983 C   0  0  0  0  0  0  0  0  0  0  0  0
    7.1303  -22.2103   26.7334 C   0  0  0  0  0  0  0  0  0  0  0  0
    5.5090  -11.7676   27.2069 C   0  0  0  0  0  0  0  0  0  0  0  0
    6.3683  -12.9887   27.0574 C   0  0  0  0  0  0  0  0  0  0  0  0
    7.3249  -12.8696   25.8841 C   0  0  2  0  0  0  0  0  0  0  0  0
    6.4885  -12.9409   24.6224 C   0  0  0  0  0  0  0  0  0  0  0  0
    8.2728  -14.0524   25.8747 C   0  0  2  0  0  0  0  0  0  0  0  0
    7.5631  -15.3053   25.7604 N   0  0  0  0  0  0  0  0  0  0  0  0
    9.1657  -13.9663   27.0401 C   0  0  0  0  0  0  0  0  0  0  0  0
   10.1125  -12.9679   27.2019 O   0  0  0  0  0  0  0  0  0  0  0  0
    9.0838  -14.8306   27.9453 O   0  0  0  0  0  0  0  0  0  0  0  0
  2  3  1  0
  2  1  1  1
  4  2  1  0
  5  4  2  0
  7  6  1  0
  7  8  2  0
  9  8  1  0
 10  9  2  0
 11 10  1  0
 12 11  1  1
 12 13  1  0
 13  4  1  0
 14 23  1  0
 14 12  1  0
 15 14  2  0
 16 17  2  0
 16 10  1  0
 17  7  1  0
 18 19  1  0
 19 20  1  0
 20 22  1  0
 20 21  1  6
 22 23  1  1
 24 25  1  0
 24 22  1  0
 26 24  2  0
M  END
$$$$
