AYI.pdb
     RDKit          3D

 26 26  0  0  1  0  0  0  0  0999 V2000
    5.9760  -17.4830   19.1299 C   0  0  0  0  0  0  0  0  0  0  0  0
    7.2154  -16.9966   19.8607 C   0  0  2  0  0  0  0  0  0  0  0  0
    8.3736  -17.7549   19.4755 N   0  0  0  0  0  0  0  0  0  0  0  0
    6.9668  -17.0532   21.3467 C   0  0  0  0  0  0  0  0  0  0  0  0
    5.9827  -16.3960   21.7711 O   0  0  0  0  0  0  0  0  0  0  0  0
    7.9629  -19.4548   29.8783 O   0  0  0  0  0  0  0  0  0  0  0  0
    7.9290  -19.3761   28.4788 C   0  0  0  0  0  0  0  0  0  0  0  0
    6.7336  -19.3455   27.7930 C   0  0  0  0  0  0  0  0  0  0  0  0
    6.7525  -19.2664   26.4005 C   0  0  0  0  0  0  0  0  0  0  0  0
    7.9292  -19.2189   25.6933 C   0  0  0  0  0  0  0  0  0  0  0  0
    7.9201  -19.1380   24.2418 C   0  0  0  0  0  0  0  0  0  0  0  0
    7.6098  -17.8162   23.6341 C   0  0  2  0  0  0  0  0  0  0  0  0
    7.7953  -17.8045   22.2050 N   0  0  0  0  0  0  0  0  0  0  0  0
    8.2306  -16.6466   24.2497 C   0  0  0  0  0  0  0  0  0  0  0  0
    9.3973  -16.2825   23.8857 O   0  0  0  0  0  0  0  0  0  0  0  0
    9.1313  -19.2486   26.3692 C   0  0  0  0  0  0  0  0  0  0  0  0
    9.1044  -19.3275   27.7606 C   0  0  0  0  0  0  0  0  0  0  0  0
    5.3782  -12.2647   25.8187 C   0  0  0  0  0  0  0  0  0  0  0  0
    6.4506  -13.1720   25.2912 C   0  0  0  0  0  0  0  0  0  0  0  0
    7.3649  -13.6724   26.3956 C   0  0  2  0  0  0  0  0  0  0  0  0
    8.1725  -12.4828   26.8742 C   0  0  0  0  0  0  0  0  0  0  0  0
    8.3362  -14.6913   25.8334 C   0  0  2  0  0  0  0  0  0  0  0  0
    7.6491  -15.8253   25.2603 N   0  0  0  0  0  0  0  0  0  0  0  0
    9.3235  -15.0400   26.8661 C   0  0  0  0  0  0  0  0  0  0  0  0
   10.5676  -14.4381   26.9643 O   0  0  0  0  0  0  0  0  0  0  0  0
    9.0467  -15.9249   27.7107 O   0  0  0  0  0  0  0  0  0  0  0  0
  2  3  1  0
  2  1  1  6
  4  2  1  0
  5  4  2  0
  7  6  1  0
  7  8  2  0
  9  8  1  0
 10  9  2  0
 11 10  1  0
 12 11  1  1
 12 13  1  0
 13  4  1  0
 14 23  1  0
 14 12  1  0
 15 14  2  0
 16 17  2  0
 16 10  1  0
 17  7  1  0
 18 19  1  0
 19 20  1  0
 20 22  1  0
 20 21  1  6
 22 23  1  1
 24 25  1  0
 24 22  1  0
 26 24  2  0
M  END
$$$$
