AYI.pdb
     RDKit          3D

 26 26  0  0  1  0  0  0  0  0999 V2000
   11.9947  -19.1017   21.2740 C   0  0  0  0  0  0  0  0  0  0  0  0
   11.2610  -17.8901   20.7255 C   0  0  2  0  0  0  0  0  0  0  0  0
   12.0125  -17.2635   19.6732 N   0  0  0  0  0  0  0  0  0  0  0  0
   10.9641  -16.9386   21.8567 C   0  0  0  0  0  0  0  0  0  0  0  0
   11.8608  -16.1002   22.1277 O   0  0  0  0  0  0  0  0  0  0  0  0
    6.9627  -12.6717   18.5802 O   0  0  0  0  0  0  0  0  0  0  0  0
    7.2119  -13.3854   19.7610 C   0  0  0  0  0  0  0  0  0  0  0  0
    6.6977  -14.6498   19.9545 C   0  0  0  0  0  0  0  0  0  0  0  0
    6.9745  -15.3193   21.1466 C   0  0  0  0  0  0  0  0  0  0  0  0
    7.7445  -14.7536   22.1334 C   0  0  0  0  0  0  0  0  0  0  0  0
    8.0162  -15.4733   23.3670 C   0  0  0  0  0  0  0  0  0  0  0  0
    9.3914  -16.0080   23.5562 C   0  0  2  0  0  0  0  0  0  0  0  0
    9.7462  -16.9919   22.5648 N   0  0  0  0  0  0  0  0  0  0  0  0
    9.7393  -16.4702   24.8969 C   0  0  0  0  0  0  0  0  0  0  0  0
   10.0537  -17.6917   25.0849 O   0  0  0  0  0  0  0  0  0  0  0  0
    8.2644  -13.4891   21.9505 C   0  0  0  0  0  0  0  0  0  0  0  0
    7.9837  -12.8264   20.7568 C   0  0  0  0  0  0  0  0  0  0  0  0
    9.4654  -12.8014   28.8996 C   0  0  0  0  0  0  0  0  0  0  0  0
   10.2408  -13.8057   28.0984 C   0  0  0  0  0  0  0  0  0  0  0  0
    9.8912  -15.2321   28.4846 C   0  0  2  0  0  0  0  0  0  0  0  0
   10.7661  -15.5973   29.6667 C   0  0  0  0  0  0  0  0  0  0  0  0
   10.2406  -16.1705   27.3467 C   0  0  2  0  0  0  0  0  0  0  0  0
    9.7697  -15.6692   26.0765 N   0  0  0  0  0  0  0  0  0  0  0  0
    9.7711  -17.5250   27.6748 C   0  0  0  0  0  0  0  0  0  0  0  0
    8.5927  -18.0625   27.1829 O   0  0  0  0  0  0  0  0  0  0  0  0
   10.4561  -18.2477   28.4375 O   0  0  0  0  0  0  0  0  0  0  0  0
  2  3  1  0
  2  1  1  1
  4  2  1  0
  5  4  2  0
  7  6  1  0
  7  8  2  0
  9  8  1  0
 10  9  2  0
 11 10  1  0
 12 11  1  1
 12 13  1  0
 13  4  1  0
 14 23  1  0
 14 12  1  0
 15 14  2  0
 16 17  2  0
 16 10  1  0
 17  7  1  0
 18 19  1  0
 19 20  1  0
 20 22  1  0
 20 21  1  1
 22 23  1  6
 24 25  1  0
 24 22  1  0
 26 24  2  0
M  END
$$$$
