AYI.pdb
     RDKit          3D

 26 26  0  0  1  0  0  0  0  0999 V2000
    6.5510  -19.0176   20.5610 C   0  0  0  0  0  0  0  0  0  0  0  0
    6.8658  -18.6107   21.9900 C   0  0  2  0  0  0  0  0  0  0  0  0
    5.6724  -18.2293   22.6937 N   0  0  0  0  0  0  0  0  0  0  0  0
    7.8939  -17.5080   21.9746 C   0  0  0  0  0  0  0  0  0  0  0  0
    9.0123  -17.7978   21.4788 O   0  0  0  0  0  0  0  0  0  0  0  0
    8.1446  -14.0293   16.1915 O   0  0  0  0  0  0  0  0  0  0  0  0
    8.1698  -14.0189   17.5933 C   0  0  0  0  0  0  0  0  0  0  0  0
    9.2212  -14.5706   18.2938 C   0  0  0  0  0  0  0  0  0  0  0  0
    9.2001  -14.5350   19.6881 C   0  0  0  0  0  0  0  0  0  0  0  0
    8.1605  -13.9661   20.3828 C   0  0  0  0  0  0  0  0  0  0  0  0
    8.1633  -13.9438   21.8363 C   0  0  0  0  0  0  0  0  0  0  0  0
    8.5999  -15.1814   22.5368 C   0  0  2  0  0  0  0  0  0  0  0  0
    7.6087  -16.2264   22.4880 N   0  0  0  0  0  0  0  0  0  0  0  0
    9.1226  -15.0219   23.8909 C   0  0  0  0  0  0  0  0  0  0  0  0
   10.2425  -14.4400   24.0739 O   0  0  0  0  0  0  0  0  0  0  0  0
    7.1034  -13.4107   19.6921 C   0  0  0  0  0  0  0  0  0  0  0  0
    7.1316  -13.4500   18.2991 C   0  0  0  0  0  0  0  0  0  0  0  0
    6.2904  -12.3919   26.8724 C   0  0  0  0  0  0  0  0  0  0  0  0
    7.4392  -13.1340   26.2550 C   0  0  0  0  0  0  0  0  0  0  0  0
    7.9362  -14.2565   27.1490 C   0  0  2  0  0  0  0  0  0  0  0  0
    8.6398  -13.6076   28.3239 C   0  0  0  0  0  0  0  0  0  0  0  0
    8.9596  -15.0895   26.4032 C   0  0  2  0  0  0  0  0  0  0  0  0
    8.4894  -15.4641   25.0898 N   0  0  0  0  0  0  0  0  0  0  0  0
    9.3682  -16.2231   27.2463 C   0  0  0  0  0  0  0  0  0  0  0  0
   10.3830  -16.1461   28.1864 O   0  0  0  0  0  0  0  0  0  0  0  0
    8.7823  -17.3254   27.1245 O   0  0  0  0  0  0  0  0  0  0  0  0
  2  3  1  0
  2  1  1  6
  4  2  1  0
  5  4  2  0
  7  6  1  0
  7  8  2  0
  9  8  1  0
 10  9  2  0
 11 10  1  0
 12 11  1  1
 12 13  1  0
 13  4  1  0
 14 23  1  0
 14 12  1  0
 15 14  2  0
 16 17  2  0
 16 10  1  0
 17  7  1  0
 18 19  1  0
 19 20  1  0
 20 22  1  0
 20 21  1  1
 22 23  1  6
 24 25  1  0
 24 22  1  0
 26 24  2  0
M  END
$$$$
