AYI.pdb
     RDKit          3D

 26 26  0  0  1  0  0  0  0  0999 V2000
    5.5448  -19.7028   22.5251 C   0  0  0  0  0  0  0  0  0  0  0  0
    6.1258  -18.8018   21.4492 C   0  0  2  0  0  0  0  0  0  0  0  0
    6.6362  -19.5730   20.3494 N   0  0  0  0  0  0  0  0  0  0  0  0
    7.1819  -17.9177   22.0625 C   0  0  0  0  0  0  0  0  0  0  0  0
    8.3439  -18.3947   22.1156 O   0  0  0  0  0  0  0  0  0  0  0  0
    8.1766  -12.4255   17.8657 O   0  0  0  0  0  0  0  0  0  0  0  0
    8.0243  -12.9157   19.1704 C   0  0  0  0  0  0  0  0  0  0  0  0
    6.7781  -13.1997   19.6868 C   0  0  0  0  0  0  0  0  0  0  0  0
    6.6790  -13.6859   20.9905 C   0  0  0  0  0  0  0  0  0  0  0  0
    7.7886  -13.8888   21.7745 C   0  0  0  0  0  0  0  0  0  0  0  0
    7.6565  -14.3953   23.1308 C   0  0  0  0  0  0  0  0  0  0  0  0
    7.8100  -15.8615   23.3295 C   0  0  2  0  0  0  0  0  0  0  0  0
    6.8756  -16.6293   22.5458 N   0  0  0  0  0  0  0  0  0  0  0  0
    7.8484  -16.3384   24.7091 C   0  0  0  0  0  0  0  0  0  0  0  0
    6.8614  -16.1148   25.4851 O   0  0  0  0  0  0  0  0  0  0  0  0
    9.0406  -13.6083   21.2680 C   0  0  0  0  0  0  0  0  0  0  0  0
    9.1317  -13.1230   19.9645 C   0  0  0  0  0  0  0  0  0  0  0  0
    6.6480  -20.6101   26.1417 C   0  0  0  0  0  0  0  0  0  0  0  0
    7.0828  -19.1740   26.1331 C   0  0  0  0  0  0  0  0  0  0  0  0
    8.4577  -18.9933   26.7519 C   0  0  2  0  0  0  0  0  0  0  0  0
    8.3357  -19.3635   28.2163 C   0  0  0  0  0  0  0  0  0  0  0  0
    8.8642  -17.5349   26.6787 C   0  0  2  0  0  0  0  0  0  0  0  0
    8.9174  -17.0626   25.3147 N   0  0  0  0  0  0  0  0  0  0  0  0
   10.1100  -17.3411   27.4358 C   0  0  0  0  0  0  0  0  0  0  0  0
   10.1621  -17.3036   28.8197 O   0  0  0  0  0  0  0  0  0  0  0  0
   11.1921  -17.1995   26.8176 O   0  0  0  0  0  0  0  0  0  0  0  0
  2  3  1  0
  2  1  1  1
  4  2  1  0
  5  4  2  0
  7  6  1  0
  7  8  2  0
  9  8  1  0
 10  9  2  0
 11 10  1  0
 12 11  1  1
 12 13  1  0
 13  4  1  0
 14 23  1  0
 14 12  1  0
 15 14  2  0
 16 17  2  0
 16 10  1  0
 17  7  1  0
 18 19  1  0
 19 20  1  0
 20 22  1  0
 20 21  1  1
 22 23  1  6
 24 25  1  0
 24 22  1  0
 26 24  2  0
M  END
$$$$
