AYI.pdb
     RDKit          3D

 26 26  0  0  1  0  0  0  0  0999 V2000
    8.3357  -12.9550   19.1820 C   0  0  0  0  0  0  0  0  0  0  0  0
    8.2483  -14.4713   19.1953 C   0  0  2  0  0  0  0  0  0  0  0  0
    7.3639  -14.9471   18.1676 N   0  0  0  0  0  0  0  0  0  0  0  0
    7.8243  -14.9296   20.5676 C   0  0  0  0  0  0  0  0  0  0  0  0
    6.6296  -14.7008   20.8855 O   0  0  0  0  0  0  0  0  0  0  0  0
    7.5710  -20.1722   27.7034 O   0  0  0  0  0  0  0  0  0  0  0  0
    7.8018  -19.5369   26.4750 C   0  0  0  0  0  0  0  0  0  0  0  0
    6.7650  -19.2460   25.6143 C   0  0  0  0  0  0  0  0  0  0  0  0
    7.0461  -18.6126   24.4037 C   0  0  0  0  0  0  0  0  0  0  0  0
    8.3273  -18.2710   24.0448 C   0  0  0  0  0  0  0  0  0  0  0  0
    8.5921  -17.6126   22.7762 C   0  0  0  0  0  0  0  0  0  0  0  0
    8.2973  -16.1571   22.6882 C   0  0  2  0  0  0  0  0  0  0  0  0
    8.7228  -15.5786   21.4388 N   0  0  0  0  0  0  0  0  0  0  0  0
    8.7194  -15.3307   23.8156 C   0  0  0  0  0  0  0  0  0  0  0  0
    9.9244  -14.9187   23.8839 O   0  0  0  0  0  0  0  0  0  0  0  0
    9.3724  -18.5570   24.8985 C   0  0  0  0  0  0  0  0  0  0  0  0
    9.0838  -19.1900   26.1064 C   0  0  0  0  0  0  0  0  0  0  0  0
    5.6556  -11.4914   26.0380 C   0  0  0  0  0  0  0  0  0  0  0  0
    6.7999  -12.3228   25.5369 C   0  0  0  0  0  0  0  0  0  0  0  0
    7.3447  -13.2461   26.6124 C   0  0  2  0  0  0  0  0  0  0  0  0
    8.0177  -12.3691   27.6489 C   0  0  0  0  0  0  0  0  0  0  0  0
    8.4045  -14.1530   26.0194 C   0  0  2  0  0  0  0  0  0  0  0  0
    7.8944  -14.9111   24.9007 N   0  0  0  0  0  0  0  0  0  0  0  0
    8.9932  -14.9733   27.0888 C   0  0  0  0  0  0  0  0  0  0  0  0
   10.1725  -14.6458   27.7380 O   0  0  0  0  0  0  0  0  0  0  0  0
    8.4156  -16.0275   27.4467 O   0  0  0  0  0  0  0  0  0  0  0  0
  2  3  1  0
  2  1  1  1
  4  2  1  0
  5  4  2  0
  7  6  1  0
  7  8  2  0
  9  8  1  0
 10  9  2  0
 11 10  1  0
 12 11  1  1
 12 13  1  0
 13  4  1  0
 14 23  1  0
 14 12  1  0
 15 14  2  0
 16 17  2  0
 16 10  1  0
 17  7  1  0
 18 19  1  0
 19 20  1  0
 20 22  1  0
 20 21  1  1
 22 23  1  6
 24 25  1  0
 24 22  1  0
 26 24  2  0
M  END
$$$$
