FRV.pdb
     RDKit          3D

 30 30  0  0  1  0  0  0  0  0999 V2000
   29.0351  -21.7082  -12.4925 N   0  0  0  0  0  0  0  0  0  0  0  0
   27.9889  -21.3125  -11.5984 C   0  0  1  0  0  0  0  0  0  0  0  0
   28.4506  -20.2611  -10.6103 C   0  0  0  0  0  0  0  0  0  0  0  0
   29.5020  -20.8577   -9.7552 C   0  0  0  0  0  0  0  0  0  0  0  0
   30.7060  -21.2907  -10.2705 C   0  0  0  0  0  0  0  0  0  0  0  0
   31.6953  -21.8477   -9.4889 C   0  0  0  0  0  0  0  0  0  0  0  0
   31.4617  -21.9732   -8.1341 C   0  0  0  0  0  0  0  0  0  0  0  0
   30.2623  -21.5423   -7.6180 C   0  0  0  0  0  0  0  0  0  0  0  0
   29.2723  -20.9839   -8.4065 C   0  0  0  0  0  0  0  0  0  0  0  0
   26.8169  -20.8588  -12.3647 C   0  0  0  0  0  0  0  0  0  0  0  0
   26.9013  -19.9057  -13.1779 O   0  0  0  0  0  0  0  0  0  0  0  0
   25.4865  -25.4947  -15.1807 N   0  0  0  0  0  0  0  0  0  0  0  0
   24.2913  -25.6799  -15.9069 C   0  0  0  0  0  0  0  0  0  0  0  0
   23.9184  -26.8286  -16.4140 N   0  0  0  0  0  0  0  0  0  0  0  0
   23.3849  -24.5953  -16.1398 N   0  0  0  0  0  0  0  0  0  0  0  0
   22.8646  -23.7433  -15.1238 C   0  0  0  0  0  0  0  0  0  0  0  0
   23.8394  -23.4163  -14.0341 C   0  0  0  0  0  0  0  0  0  0  0  0
   24.5981  -22.1561  -14.2837 C   0  0  0  0  0  0  0  0  0  0  0  0
   24.4768  -21.2228  -13.0871 C   0  0  2  0  0  0  0  0  0  0  0  0
   25.5687  -21.5002  -12.1905 N   0  0  0  0  0  0  0  0  0  0  0  0
   23.1794  -21.3345  -12.4157 C   0  0  0  0  0  0  0  0  0  0  0  0
   22.9594  -22.2714  -11.5994 O   0  0  0  0  0  0  0  0  0  0  0  0
   23.0478  -26.9502  -16.9408 C   0  0  0  0  0  0  0  0  0  0  0  0
   20.8842  -18.0881  -11.3458 C   0  0  2  0  0  0  0  0  0  0  0  0
   20.0715  -19.2190  -11.9274 C   0  0  0  0  0  0  0  0  0  0  0  0
   19.6393  -18.8150  -13.3195 C   0  0  2  0  0  0  0  0  0  0  0  0
   20.8393  -20.5232  -11.9611 N   0  0  0  0  0  0  0  0  0  0  0  0
   22.0974  -20.4221  -12.6254 C   0  0  0  0  0  0  0  0  0  0  0  0
   19.9935  -21.6342  -12.4562 O   0  0  0  0  0  0  0  0  0  0  0  0
   20.2166  -22.2603  -13.5171 O   0  0  0  0  0  0  0  0  0  0  0  0
  2  1  1  6
  2 10  1  0
  3  2  1  0
  4  3  1  0
  4  9  2  0
  5  4  1  0
  6  5  2  0
  6  7  1  0
  7  8  2  0
  8  9  1  0
 10 11  2  0
 13 12  1  0
 13 15  1  0
 14 13  2  0
 15 16  1  0
 16 17  1  0
 17 18  1  0
 19 18  1  6
 19 21  1  0
 20 19  1  0
 20 10  1  0
 21 22  2  0
 24 23  1  1
 24 26  1  0
 25 24  1  0
 26 28  1  0
 27 21  1  0
 26 27  1  1
 28 29  2  0
 28 30  1  0
M  END
$$$$
