FRV.pdb
     RDKit          3D

 30 30  0  0  1  0  0  0  0  0999 V2000
   27.2771  -22.2199  -12.4830 N   0  0  0  0  0  0  0  0  0  0  0  0
   26.2424  -21.3731  -11.9706 C   0  0  1  0  0  0  0  0  0  0  0  0
   26.7677  -20.0103  -11.5685 C   0  0  0  0  0  0  0  0  0  0  0  0
   27.5976  -20.1729  -10.3530 C   0  0  0  0  0  0  0  0  0  0  0  0
   27.0403  -20.2894   -9.0966 C   0  0  0  0  0  0  0  0  0  0  0  0
   27.7979  -20.4418   -7.9552 C   0  0  0  0  0  0  0  0  0  0  0  0
   29.1717  -20.4782   -8.0854 C   0  0  0  0  0  0  0  0  0  0  0  0
   29.7297  -20.3622   -9.3368 C   0  0  0  0  0  0  0  0  0  0  0  0
   28.9652  -20.2095  -10.4795 C   0  0  0  0  0  0  0  0  0  0  0  0
   25.1492  -21.2652  -12.9504 C   0  0  0  0  0  0  0  0  0  0  0  0
   25.3851  -21.0752  -14.1690 O   0  0  0  0  0  0  0  0  0  0  0  0
   19.7908  -25.2495  -15.9237 N   0  0  0  0  0  0  0  0  0  0  0  0
   19.8877  -25.6648  -14.5789 C   0  0  0  0  0  0  0  0  0  0  0  0
   19.9722  -26.9184  -14.2087 N   0  0  0  0  0  0  0  0  0  0  0  0
   19.9025  -24.7166  -13.5052 N   0  0  0  0  0  0  0  0  0  0  0  0
   19.4695  -23.3640  -13.6143 C   0  0  0  0  0  0  0  0  0  0  0  0
   20.5489  -22.4003  -14.0022 C   0  0  0  0  0  0  0  0  0  0  0  0
   21.7057  -22.4037  -13.0600 C   0  0  0  0  0  0  0  0  0  0  0  0
   22.7335  -21.3638  -13.4844 C   0  0  2  0  0  0  0  0  0  0  0  0
   23.8057  -21.3761  -12.5234 N   0  0  0  0  0  0  0  0  0  0  0  0
   22.1526  -20.0273  -13.6349 C   0  0  0  0  0  0  0  0  0  0  0  0
   21.8027  -19.3633  -12.6203 O   0  0  0  0  0  0  0  0  0  0  0  0
   20.0945  -27.2053  -13.2325 C   0  0  0  0  0  0  0  0  0  0  0  0
   23.4792  -17.1308  -16.0576 C   0  0  2  0  0  0  0  0  0  0  0  0
   21.9862  -17.3039  -16.1948 C   0  0  0  0  0  0  0  0  0  0  0  0
   21.7161  -17.9963  -17.5123 C   0  0  2  0  0  0  0  0  0  0  0  0
   21.3883  -18.0861  -15.0449 N   0  0  0  0  0  0  0  0  0  0  0  0
   21.9434  -19.3920  -14.8996 C   0  0  0  0  0  0  0  0  0  0  0  0
   19.9077  -18.0722  -15.0957 O   0  0  0  0  0  0  0  0  0  0  0  0
   19.2091  -19.0840  -15.3311 O   0  0  0  0  0  0  0  0  0  0  0  0
  2  1  1  6
  2 10  1  0
  3  2  1  0
  4  3  1  0
  4  9  2  0
  5  4  1  0
  6  5  2  0
  6  7  1  0
  7  8  2  0
  8  9  1  0
 10 11  2  0
 13 12  1  0
 13 15  1  0
 14 13  2  0
 15 16  1  0
 16 17  1  0
 17 18  1  0
 19 18  1  1
 19 21  1  0
 20 19  1  0
 20 10  1  0
 21 22  2  0
 24 23  1  6
 24 26  1  0
 25 24  1  0
 26 28  1  0
 27 21  1  0
 26 27  1  1
 28 29  2  0
 28 30  1  0
M  END
$$$$
