FRV.pdb
     RDKit          3D

 30 30  0  0  1  0  0  0  0  0999 V2000
   28.4569  -20.7528   -9.3770 N   0  0  0  0  0  0  0  0  0  0  0  0
   27.0548  -20.5829   -9.1414 C   0  0  1  0  0  0  0  0  0  0  0  0
   26.7628  -19.3599   -8.2963 C   0  0  0  0  0  0  0  0  0  0  0  0
   27.3248  -19.5846   -6.9449 C   0  0  0  0  0  0  0  0  0  0  0  0
   28.4753  -18.9556   -6.5169 C   0  0  0  0  0  0  0  0  0  0  0  0
   29.0116  -19.1531   -5.2626 C   0  0  0  0  0  0  0  0  0  0  0  0
   28.3624  -20.0190   -4.4057 C   0  0  0  0  0  0  0  0  0  0  0  0
   27.2152  -20.6473   -4.8300 C   0  0  0  0  0  0  0  0  0  0  0  0
   26.6808  -20.4459   -6.0898 C   0  0  0  0  0  0  0  0  0  0  0  0
   26.3306  -20.5421  -10.4222 C   0  0  0  0  0  0  0  0  0  0  0  0
   26.7032  -19.7898  -11.3559 O   0  0  0  0  0  0  0  0  0  0  0  0
   26.7794  -24.3464  -15.4640 N   0  0  0  0  0  0  0  0  0  0  0  0
   25.6280  -24.3125  -16.2785 C   0  0  0  0  0  0  0  0  0  0  0  0
   25.6625  -24.2016  -17.5832 N   0  0  0  0  0  0  0  0  0  0  0  0
   24.3138  -24.4018  -15.7154 N   0  0  0  0  0  0  0  0  0  0  0  0
   24.0240  -24.3332  -14.3225 C   0  0  0  0  0  0  0  0  0  0  0  0
   24.0006  -22.9427  -13.7652 C   0  0  0  0  0  0  0  0  0  0  0  0
   24.6828  -22.8284  -12.4433 C   0  0  0  0  0  0  0  0  0  0  0  0
   24.5453  -21.4126  -11.9006 C   0  0  2  0  0  0  0  0  0  0  0  0
   25.1938  -21.3606  -10.6161 N   0  0  0  0  0  0  0  0  0  0  0  0
   23.1500  -20.9723  -11.8242 C   0  0  0  0  0  0  0  0  0  0  0  0
   22.4471  -21.2453  -10.8123 O   0  0  0  0  0  0  0  0  0  0  0  0
   24.8188  -24.1867  -18.1649 C   0  0  0  0  0  0  0  0  0  0  0  0
   21.7548  -17.5366  -13.6844 C   0  0  2  0  0  0  0  0  0  0  0  0
   20.7986  -18.7014  -13.7674 C   0  0  0  0  0  0  0  0  0  0  0  0
   20.8268  -19.2280  -15.1851 C   0  0  2  0  0  0  0  0  0  0  0  0
   21.1384  -19.7979  -12.7807 N   0  0  0  0  0  0  0  0  0  0  0  0
   22.4974  -20.2246  -12.8547 C   0  0  0  0  0  0  0  0  0  0  0  0
   20.1618  -20.9097  -12.8528 O   0  0  0  0  0  0  0  0  0  0  0  0
   18.9800  -20.8263  -12.4482 O   0  0  0  0  0  0  0  0  0  0  0  0
  2  1  1  6
  2 10  1  0
  3  2  1  0
  4  3  1  0
  4  9  2  0
  5  4  1  0
  6  5  2  0
  6  7  1  0
  7  8  2  0
  8  9  1  0
 10 11  2  0
 13 12  1  0
 13 15  1  0
 14 13  2  0
 15 16  1  0
 16 17  1  0
 17 18  1  0
 19 18  1  1
 19 21  1  0
 20 19  1  0
 20 10  1  0
 21 22  2  0
 24 23  1  6
 24 26  1  0
 25 24  1  0
 26 28  1  0
 27 21  1  0
 26 27  1  1
 28 29  2  0
 28 30  1  0
M  END
$$$$
