FRV.pdb
     RDKit          3D

 30 30  0  0  1  0  0  0  0  0999 V2000
   17.3556  -13.2306    7.4017 N   0  0  0  0  0  0  0  0  0  0  0  0
   17.8263  -14.4545    6.8266 C   0  0  1  0  0  0  0  0  0  0  0  0
   19.2106  -14.3083    6.2287 C   0  0  0  0  0  0  0  0  0  0  0  0
   19.1105  -13.4404    5.0332 C   0  0  0  0  0  0  0  0  0  0  0  0
   19.5889  -12.1467    5.0259 C   0  0  0  0  0  0  0  0  0  0  0  0
   19.5042  -11.3257    3.9220 C   0  0  0  0  0  0  0  0  0  0  0  0
   18.9138  -11.8287    2.7800 C   0  0  0  0  0  0  0  0  0  0  0  0
   18.4361  -13.1181    2.7847 C   0  0  0  0  0  0  0  0  0  0  0  0
   18.5234  -13.9383    3.8952 C   0  0  0  0  0  0  0  0  0  0  0  0
   17.7796  -15.5319    7.8284 C   0  0  0  0  0  0  0  0  0  0  0  0
   18.0747  -15.3157    9.0296 O   0  0  0  0  0  0  0  0  0  0  0  0
   17.7124  -23.0444    9.5003 N   0  0  0  0  0  0  0  0  0  0  0  0
   16.4334  -23.0779   10.0945 C   0  0  0  0  0  0  0  0  0  0  0  0
   16.0969  -23.9066   11.0515 N   0  0  0  0  0  0  0  0  0  0  0  0
   15.3949  -22.1827    9.6793 N   0  0  0  0  0  0  0  0  0  0  0  0
   15.5359  -21.1968    8.6610 C   0  0  0  0  0  0  0  0  0  0  0  0
   16.4746  -20.0819    9.0077 C   0  0  0  0  0  0  0  0  0  0  0  0
   16.4821  -18.9847    7.9968 C   0  0  0  0  0  0  0  0  0  0  0  0
   17.5204  -17.9347    8.3671 C   0  0  2  0  0  0  0  0  0  0  0  0
   17.3968  -16.8375    7.4429 N   0  0  0  0  0  0  0  0  0  0  0  0
   18.8822  -18.4744    8.3923 C   0  0  0  0  0  0  0  0  0  0  0  0
   19.4117  -18.9256    7.3394 O   0  0  0  0  0  0  0  0  0  0  0  0
   15.1561  -23.9397   11.4565 C   0  0  0  0  0  0  0  0  0  0  0  0
   22.2237  -16.9148    9.4118 C   0  0  2  0  0  0  0  0  0  0  0  0
   22.0370  -18.1802   10.2129 C   0  0  0  0  0  0  0  0  0  0  0  0
   21.6483  -17.7877   11.6210 C   0  0  2  0  0  0  0  0  0  0  0  0
   20.9984  -19.0990    9.6057 N   0  0  0  0  0  0  0  0  0  0  0  0
   19.6907  -18.5305    9.5714 C   0  0  0  0  0  0  0  0  0  0  0  0
   21.0447  -20.4460   10.2210 O   0  0  0  0  0  0  0  0  0  0  0  0
   20.1324  -20.9162   10.9378 O   0  0  0  0  0  0  0  0  0  0  0  0
  2  1  1  1
  2 10  1  0
  3  2  1  0
  4  3  1  0
  4  9  2  0
  5  4  1  0
  6  5  2  0
  6  7  1  0
  7  8  2  0
  8  9  1  0
 10 11  2  0
 13 12  1  0
 13 15  1  0
 14 13  2  0
 15 16  1  0
 16 17  1  0
 17 18  1  0
 19 18  1  6
 19 21  1  0
 20 19  1  0
 20 10  1  0
 21 22  2  0
 24 23  1  1
 24 26  1  0
 25 24  1  0
 26 28  1  0
 27 21  1  0
 26 27  1  6
 28 29  2  0
 28 30  1  0
M  END
$$$$
