FRV.pdb
     RDKit          3D

 30 30  0  0  1  0  0  0  0  0999 V2000
   39.3148   -8.8713  -10.2763 N   0  0  0  0  0  0  0  0  0  0  0  0
   40.1519   -8.4025   -9.2134 C   0  0  1  0  0  0  0  0  0  0  0  0
   39.6121   -8.7861   -7.8509 C   0  0  0  0  0  0  0  0  0  0  0  0
   38.3607   -8.0297   -7.6177 C   0  0  0  0  0  0  0  0  0  0  0  0
   38.3382   -6.6517   -7.5613 C   0  0  0  0  0  0  0  0  0  0  0  0
   37.1825   -5.9322   -7.3456 C   0  0  0  0  0  0  0  0  0  0  0  0
   36.0025   -6.6295   -7.1803 C   0  0  0  0  0  0  0  0  0  0  0  0
   36.0223   -8.0033   -7.2361 C   0  0  0  0  0  0  0  0  0  0  0  0
   37.1848   -8.7210   -7.4529 C   0  0  0  0  0  0  0  0  0  0  0  0
   41.5287   -8.8859   -9.4067 C   0  0  0  0  0  0  0  0  0  0  0  0
   41.7576  -10.0587   -9.7927 O   0  0  0  0  0  0  0  0  0  0  0  0
   46.4067   -5.3858  -14.8386 N   0  0  0  0  0  0  0  0  0  0  0  0
   45.1518   -6.0303  -14.8456 C   0  0  0  0  0  0  0  0  0  0  0  0
   44.2926   -5.9397  -15.8302 N   0  0  0  0  0  0  0  0  0  0  0  0
   44.7277   -6.8479  -13.7485 N   0  0  0  0  0  0  0  0  0  0  0  0
   45.5320   -7.1629  -12.6159 C   0  0  0  0  0  0  0  0  0  0  0  0
   44.8843   -8.0972  -11.6402 C   0  0  0  0  0  0  0  0  0  0  0  0
   44.6597   -7.4828  -10.2993 C   0  0  0  0  0  0  0  0  0  0  0  0
   43.9704   -8.4760   -9.3739 C   0  0  2  0  0  0  0  0  0  0  0  0
   42.6209   -8.0232   -9.1566 N   0  0  0  0  0  0  0  0  0  0  0  0
   44.6914   -8.6635   -8.1124 C   0  0  0  0  0  0  0  0  0  0  0  0
   44.8641   -7.6939   -7.3234 O   0  0  0  0  0  0  0  0  0  0  0  0
   43.4021   -6.4467  -15.8426 C   0  0  0  0  0  0  0  0  0  0  0  0
   46.2303  -11.4772   -4.3827 C   0  0  2  0  0  0  0  0  0  0  0  0
   45.4576  -11.2923   -5.6659 C   0  0  0  0  0  0  0  0  0  0  0  0
   43.9943  -11.1452   -5.3122 C   0  0  1  0  0  0  0  0  0  0  0  0
   45.9399  -10.0987   -6.4625 N   0  0  0  0  0  0  0  0  0  0  0  0
   45.2375   -9.9168   -7.6905 C   0  0  0  0  0  0  0  0  0  0  0  0
   47.4133  -10.1136   -6.6173 O   0  0  0  0  0  0  0  0  0  0  0  0
   48.2113   -9.7476   -5.7248 O   0  0  0  0  0  0  0  0  0  0  0  0
  2  1  1  6
  2 10  1  0
  3  2  1  0
  4  3  1  0
  4  9  2  0
  5  4  1  0
  6  5  2  0
  6  7  1  0
  7  8  2  0
  8  9  1  0
 10 11  2  0
 13 12  1  0
 13 15  1  0
 14 13  2  0
 15 16  1  0
 16 17  1  0
 17 18  1  0
 19 18  1  6
 19 21  1  0
 20 19  1  0
 20 10  1  0
 21 22  2  0
 24 23  1  6
 24 26  1  0
 25 24  1  0
 26 28  1  0
 27 21  1  0
 26 27  1  6
 28 29  2  0
 28 30  1  0
M  END
$$$$
