DYV.pdb
     RDKit          3D

 28 28  0  0  1  0  0  0  0  0999 V2000
   19.5981  -23.7178  -13.2797 N   0  0  0  0  0  0  0  0  0  0  0  0
   18.2981  -23.9701  -12.6949 C   0  0  1  0  0  0  0  0  0  0  0  0
   17.2218  -23.6016  -13.6631 C   0  0  0  0  0  0  0  0  0  0  0  0
   17.1881  -22.1226  -13.9148 C   0  0  0  0  0  0  0  0  0  0  0  0
   17.2283  -21.3365  -12.9572 O   0  0  0  0  0  0  0  0  0  0  0  0
   18.1756  -25.3724  -12.2904 C   0  0  0  0  0  0  0  0  0  0  0  0
   17.4696  -26.1655  -13.0006 O   0  0  0  0  0  0  0  0  0  0  0  0
   17.1129  -21.6204  -15.1949 O   0  0  0  0  0  0  0  0  0  0  0  0
   22.9212  -28.8933  -15.1838 O   0  0  0  0  0  0  0  0  0  0  0  0
   22.2332  -28.6290  -14.0098 C   0  0  0  0  0  0  0  0  0  0  0  0
   21.5459  -29.6248  -13.3451 C   0  0  0  0  0  0  0  0  0  0  0  0
   20.8725  -29.3619  -12.1942 C   0  0  0  0  0  0  0  0  0  0  0  0
   20.8901  -28.0642  -11.6978 C   0  0  0  0  0  0  0  0  0  0  0  0
   20.1462  -27.7810  -10.4655 C   0  0  0  0  0  0  0  0  0  0  0  0
   18.7739  -27.2678  -10.8042 C   0  0  2  0  0  0  0  0  0  0  0  0
   18.8242  -25.8514  -11.1349 N   0  0  0  0  0  0  0  0  0  0  0  0
   17.7695  -27.4665   -9.7578 C   0  0  0  0  0  0  0  0  0  0  0  0
   17.6400  -26.6859   -8.8035 O   0  0  0  0  0  0  0  0  0  0  0  0
   21.5685  -27.0522  -12.3424 C   0  0  0  0  0  0  0  0  0  0  0  0
   22.2394  -27.3399  -13.4993 C   0  0  0  0  0  0  0  0  0  0  0  0
   14.0184  -28.3266  -10.4132 C   0  0  0  0  0  0  0  0  0  0  0  0
   14.6076  -29.3275   -9.4421 C   0  0  1  0  0  0  0  0  0  0  0  0
   14.8861  -30.6445  -10.0863 C   0  0  0  0  0  0  0  0  0  0  0  0
   15.8517  -28.7229   -8.8304 C   0  0  2  0  0  0  0  0  0  0  0  0
   16.8921  -28.5921   -9.8115 N   0  0  0  0  0  0  0  0  0  0  0  0
   16.3362  -29.6374   -7.7463 C   0  0  0  0  0  0  0  0  0  0  0  0
   15.7474  -29.7537   -6.6439 O   0  0  0  0  0  0  0  0  0  0  0  0
   17.4772  -30.3856   -7.9634 O   0  0  0  0  0  0  0  0  0  0  0  0
  2  1  1  6
  2  3  1  0
  3  4  1  0
  4  5  2  0
  6  7  2  0
  6  2  1  0
  8  4  1  0
  9 10  1  0
 10 11  2  0
 10 20  1  0
 11 12  1  0
 12 13  2  0
 13 14  1  0
 15 14  1  1
 15 17  1  0
 15 16  1  0
 16  6  1  0
 17 18  2  0
 19 13  1  0
 20 19  2  0
 22 21  1  6
 23 22  1  0
 24 22  1  0
 24 25  1  6
 25 17  1  0
 26 28  1  0
 26 24  1  0
 27 26  2  0
M  END
$$$$
