DYV.pdb
     RDKit          3D

 28 28  0  0  1  0  0  0  0  0999 V2000
   21.2292  -19.7774  -11.1421 N   0  0  0  0  0  0  0  0  0  0  0  0
   21.9137  -20.9484  -11.6478 C   0  0  1  0  0  0  0  0  0  0  0  0
   21.2104  -21.4684  -12.8589 C   0  0  0  0  0  0  0  0  0  0  0  0
   19.8188  -21.9271  -12.5350 C   0  0  0  0  0  0  0  0  0  0  0  0
   18.8476  -21.3354  -13.0284 O   0  0  0  0  0  0  0  0  0  0  0  0
   23.3127  -20.6394  -11.9518 C   0  0  0  0  0  0  0  0  0  0  0  0
   23.5985  -19.5203  -12.4973 O   0  0  0  0  0  0  0  0  0  0  0  0
   19.5996  -22.9974  -11.6964 O   0  0  0  0  0  0  0  0  0  0  0  0
   27.2587  -19.0048   -6.3670 O   0  0  0  0  0  0  0  0  0  0  0  0
   27.1235  -19.7411   -7.5337 C   0  0  0  0  0  0  0  0  0  0  0  0
   28.2165  -20.0321   -8.3252 C   0  0  0  0  0  0  0  0  0  0  0  0
   28.0802  -20.7544   -9.4684 C   0  0  0  0  0  0  0  0  0  0  0  0
   26.8120  -21.1961   -9.8260 C   0  0  0  0  0  0  0  0  0  0  0  0
   26.6668  -21.9590  -11.0705 C   0  0  0  0  0  0  0  0  0  0  0  0
   25.7179  -21.2495  -11.9964 C   0  0  2  0  0  0  0  0  0  0  0  0
   24.3383  -21.5573  -11.6500 N   0  0  0  0  0  0  0  0  0  0  0  0
   25.9170  -21.5386  -13.4177 C   0  0  0  0  0  0  0  0  0  0  0  0
   25.8613  -22.6889  -13.8764 O   0  0  0  0  0  0  0  0  0  0  0  0
   25.7049  -20.9188   -9.0532 C   0  0  0  0  0  0  0  0  0  0  0  0
   25.8659  -20.1902   -7.9067 C   0  0  0  0  0  0  0  0  0  0  0  0
   25.5184  -20.1026  -17.9891 C   0  0  0  0  0  0  0  0  0  0  0  0
   25.2853  -19.8844  -16.5092 C   0  0  1  0  0  0  0  0  0  0  0  0
   23.8685  -20.1388  -16.1159 C   0  0  0  0  0  0  0  0  0  0  0  0
   26.2513  -20.7582  -15.7405 C   0  0  2  0  0  0  0  0  0  0  0  0
   26.1869  -20.4768  -14.3338 N   0  0  0  0  0  0  0  0  0  0  0  0
   27.6400  -20.4601  -16.2194 C   0  0  0  0  0  0  0  0  0  0  0  0
   28.3633  -21.3196  -16.7793 O   0  0  0  0  0  0  0  0  0  0  0  0
   28.1503  -19.1887  -16.0399 O   0  0  0  0  0  0  0  0  0  0  0  0
  2  1  1  6
  2  3  1  0
  3  4  1  0
  4  5  2  0
  6  7  2  0
  6  2  1  0
  8  4  1  0
  9 10  1  0
 10 11  2  0
 10 20  1  0
 11 12  1  0
 12 13  2  0
 13 14  1  0
 15 14  1  1
 15 17  1  0
 15 16  1  0
 16  6  1  0
 17 18  2  0
 19 13  1  0
 20 19  2  0
 22 21  1  6
 23 22  1  0
 24 22  1  0
 24 25  1  1
 25 17  1  0
 26 28  1  0
 26 24  1  0
 27 26  2  0
M  END
$$$$
