DYV.pdb
     RDKit          3D

 28 28  0  0  1  0  0  0  0  0999 V2000
   19.3049  -13.0106  -20.8034 N   0  0  0  0  0  0  0  0  0  0  0  0
   20.1284  -11.9410  -20.2807 C   0  0  1  0  0  0  0  0  0  0  0  0
   20.2820  -10.8661  -21.3067 C   0  0  0  0  0  0  0  0  0  0  0  0
   21.2405  -11.2686  -22.3890 C   0  0  0  0  0  0  0  0  0  0  0  0
   21.8050  -12.3707  -22.3295 O   0  0  0  0  0  0  0  0  0  0  0  0
   19.5549  -11.4023  -19.0454 C   0  0  0  0  0  0  0  0  0  0  0  0
   18.2852  -11.3779  -18.9077 O   0  0  0  0  0  0  0  0  0  0  0  0
   21.5059  -10.4331  -23.4511 O   0  0  0  0  0  0  0  0  0  0  0  0
   18.3141  -16.4777  -15.8200 O   0  0  0  0  0  0  0  0  0  0  0  0
   18.8193  -15.1876  -15.7772 C   0  0  0  0  0  0  0  0  0  0  0  0
   20.0517  -14.8847  -16.3207 C   0  0  0  0  0  0  0  0  0  0  0  0
   20.5437  -13.6186  -16.2769 C   0  0  0  0  0  0  0  0  0  0  0  0
   19.7773  -12.6303  -15.6709 C   0  0  0  0  0  0  0  0  0  0  0  0
   20.3208  -11.2692  -15.6091 C   0  0  0  0  0  0  0  0  0  0  0  0
   19.7993  -10.4584  -16.7632 C   0  0  2  0  0  0  0  0  0  0  0  0
   20.3838  -10.9152  -18.0153 N   0  0  0  0  0  0  0  0  0  0  0  0
   20.0169   -9.0154  -16.6466 C   0  0  0  0  0  0  0  0  0  0  0  0
   21.1025   -8.4825  -16.9189 O   0  0  0  0  0  0  0  0  0  0  0  0
   18.5441  -12.9068  -15.1208 C   0  0  0  0  0  0  0  0  0  0  0  0
   18.0688  -14.1883  -15.1765 C   0  0  0  0  0  0  0  0  0  0  0  0
   18.3467   -4.5140  -16.7234 C   0  0  0  0  0  0  0  0  0  0  0  0
   18.1149   -5.9985  -16.9084 C   0  0  1  0  0  0  0  0  0  0  0  0
   18.0931   -6.3929  -18.3475 C   0  0  0  0  0  0  0  0  0  0  0  0
   19.1759   -6.7470  -16.1329 C   0  0  2  0  0  0  0  0  0  0  0  0
   18.9580   -8.1646  -16.2057 N   0  0  0  0  0  0  0  0  0  0  0  0
   19.0925   -6.3289  -14.6959 C   0  0  0  0  0  0  0  0  0  0  0  0
   18.5483   -7.0371  -13.8141 O   0  0  0  0  0  0  0  0  0  0  0  0
   19.6353   -5.1150  -14.3206 O   0  0  0  0  0  0  0  0  0  0  0  0
  2  1  1  6
  2  3  1  0
  3  4  1  0
  4  5  2  0
  6  7  2  0
  6  2  1  0
  8  4  1  0
  9 10  1  0
 10 11  2  0
 10 20  1  0
 11 12  1  0
 12 13  2  0
 13 14  1  0
 15 14  1  1
 15 17  1  0
 15 16  1  0
 16  6  1  0
 17 18  2  0
 19 13  1  0
 20 19  2  0
 22 21  1  6
 23 22  1  0
 24 22  1  0
 24 25  1  1
 25 17  1  0
 26 28  1  0
 26 24  1  0
 27 26  2  0
M  END
$$$$
