DYV.pdb
     RDKit          3D

 28 28  0  0  1  0  0  0  0  0999 V2000
   28.1889  -22.2196  -16.4994 N   0  0  0  0  0  0  0  0  0  0  0  0
   27.0723  -21.3430  -16.7826 C   0  0  1  0  0  0  0  0  0  0  0  0
   26.5767  -21.5790  -18.1720 C   0  0  0  0  0  0  0  0  0  0  0  0
   27.6149  -21.2250  -19.1961 C   0  0  0  0  0  0  0  0  0  0  0  0
   28.5624  -20.4907  -18.8804 O   0  0  0  0  0  0  0  0  0  0  0  0
   25.9980  -21.5411  -15.8069 C   0  0  0  0  0  0  0  0  0  0  0  0
   25.8817  -22.6754  -15.2311 O   0  0  0  0  0  0  0  0  0  0  0  0
   27.5341  -21.7025  -20.4854 O   0  0  0  0  0  0  0  0  0  0  0  0
   20.5453  -20.3753   -9.3020 O   0  0  0  0  0  0  0  0  0  0  0  0
   21.4208  -20.1613  -10.3553 C   0  0  0  0  0  0  0  0  0  0  0  0
   22.7232  -20.6165  -10.3052 C   0  0  0  0  0  0  0  0  0  0  0  0
   23.5787  -20.4050  -11.3398 C   0  0  0  0  0  0  0  0  0  0  0  0
   23.1135  -19.7179  -12.4545 C   0  0  0  0  0  0  0  0  0  0  0  0
   24.0458  -19.4753  -13.5608 C   0  0  0  0  0  0  0  0  0  0  0  0
   24.1019  -20.6828  -14.4552 C   0  0  2  0  0  0  0  0  0  0  0  0
   25.0991  -20.5006  -15.4995 N   0  0  0  0  0  0  0  0  0  0  0  0
   22.8288  -21.0398  -15.0839 C   0  0  0  0  0  0  0  0  0  0  0  0
   22.3818  -20.4360  -16.0700 O   0  0  0  0  0  0  0  0  0  0  0  0
   21.8180  -19.2530  -12.5292 C   0  0  0  0  0  0  0  0  0  0  0  0
   20.9745  -19.4775  -11.4759 C   0  0  0  0  0  0  0  0  0  0  0  0
   21.5144  -24.6640  -15.8899 C   0  0  0  0  0  0  0  0  0  0  0  0
   20.4925  -23.9129  -15.0632 C   0  0  1  0  0  0  0  0  0  0  0  0
   20.4620  -24.3750  -13.6446 C   0  0  0  0  0  0  0  0  0  0  0  0
   20.7875  -22.4333  -15.1699 C   0  0  2  0  0  0  0  0  0  0  0  0
   22.0510  -22.1189  -14.5642 N   0  0  0  0  0  0  0  0  0  0  0  0
   19.7137  -21.6847  -14.4397 C   0  0  0  0  0  0  0  0  0  0  0  0
   19.8591  -21.2627  -13.2666 O   0  0  0  0  0  0  0  0  0  0  0  0
   18.5123  -21.4464  -15.0790 O   0  0  0  0  0  0  0  0  0  0  0  0
  2  1  1  1
  2  3  1  0
  3  4  1  0
  4  5  2  0
  6  7  2  0
  6  2  1  0
  8  4  1  0
  9 10  1  0
 10 11  2  0
 10 20  1  0
 11 12  1  0
 12 13  2  0
 13 14  1  0
 15 14  1  6
 15 17  1  0
 15 16  1  0
 16  6  1  0
 17 18  2  0
 19 13  1  0
 20 19  2  0
 22 21  1  6
 23 22  1  0
 24 22  1  0
 24 25  1  1
 25 17  1  0
 26 28  1  0
 26 24  1  0
 27 26  2  0
M  END
$$$$
