DYV.pdb
     RDKit          3D

 28 28  0  0  1  0  0  0  0  0999 V2000
   18.7890   -6.9319  -17.7135 N   0  0  0  0  0  0  0  0  0  0  0  0
   18.8236   -5.8039  -16.8069 C   0  0  1  0  0  0  0  0  0  0  0  0
   17.7366   -4.8385  -17.1505 C   0  0  0  0  0  0  0  0  0  0  0  0
   18.2497   -3.7050  -17.9895 C   0  0  0  0  0  0  0  0  0  0  0  0
   17.4501   -2.8954  -18.4815 O   0  0  0  0  0  0  0  0  0  0  0  0
   18.7009   -6.2520  -15.4179 C   0  0  0  0  0  0  0  0  0  0  0  0
   17.8405   -7.1504  -15.1275 O   0  0  0  0  0  0  0  0  0  0  0  0
   19.5974   -3.5469  -18.2243 O   0  0  0  0  0  0  0  0  0  0  0  0
   22.9438  -10.8642  -15.4597 O   0  0  0  0  0  0  0  0  0  0  0  0
   22.4270   -9.8029  -14.7330 C   0  0  0  0  0  0  0  0  0  0  0  0
   21.6322  -10.0160  -13.6245 C   0  0  0  0  0  0  0  0  0  0  0  0
   21.1274   -8.9729  -12.9145 C   0  0  0  0  0  0  0  0  0  0  0  0
   21.4289   -7.6813  -13.3290 C   0  0  0  0  0  0  0  0  0  0  0  0
   20.8662   -6.5586  -12.5708 C   0  0  0  0  0  0  0  0  0  0  0  0
   19.4768   -6.2572  -13.0606 C   0  0  2  0  0  0  0  0  0  0  0  0
   19.5167   -5.7062  -14.4070 N   0  0  0  0  0  0  0  0  0  0  0  0
   18.7099   -5.3476  -12.2075 C   0  0  0  0  0  0  0  0  0  0  0  0
   18.9225   -4.1267  -12.1770 O   0  0  0  0  0  0  0  0  0  0  0  0
   22.2198   -7.4417  -14.4322 C   0  0  0  0  0  0  0  0  0  0  0  0
   22.7171   -8.5069  -15.1317 C   0  0  0  0  0  0  0  0  0  0  0  0
   15.2869   -4.5639  -12.4667 C   0  0  0  0  0  0  0  0  0  0  0  0
   15.4079   -5.0445  -11.0362 C   0  0  1  0  0  0  0  0  0  0  0  0
   14.8729   -6.4260  -10.8562 C   0  0  0  0  0  0  0  0  0  0  0  0
   16.8580   -4.9408  -10.6195 C   0  0  2  0  0  0  0  0  0  0  0  0
   17.6721   -5.8564  -11.3686 N   0  0  0  0  0  0  0  0  0  0  0  0
   16.9579   -5.2983   -9.1673 C   0  0  0  0  0  0  0  0  0  0  0  0
   16.4603   -4.5897   -8.2587 O   0  0  0  0  0  0  0  0  0  0  0  0
   17.6240   -6.4543   -8.8080 O   0  0  0  0  0  0  0  0  0  0  0  0
  2  1  1  6
  2  3  1  0
  3  4  1  0
  4  5  2  0
  6  7  2  0
  6  2  1  0
  8  4  1  0
  9 10  1  0
 10 11  2  0
 10 20  1  0
 11 12  1  0
 12 13  2  0
 13 14  1  0
 15 14  1  1
 15 17  1  0
 15 16  1  0
 16  6  1  0
 17 18  2  0
 19 13  1  0
 20 19  2  0
 22 21  1  6
 23 22  1  0
 24 22  1  0
 24 25  1  6
 25 17  1  0
 26 28  1  0
 26 24  1  0
 27 26  2  0
M  END
$$$$
