DYV.pdb
     RDKit          3D

 28 28  0  0  1  0  0  0  0  0999 V2000
   19.1117  -11.5077  -17.4330 N   0  0  0  0  0  0  0  0  0  0  0  0
   18.8831  -10.2865  -18.1759 C   0  0  1  0  0  0  0  0  0  0  0  0
   17.5058  -10.2904  -18.7546 C   0  0  0  0  0  0  0  0  0  0  0  0
   17.3693  -11.3087  -19.8484 C   0  0  0  0  0  0  0  0  0  0  0  0
   18.1271  -11.2614  -20.8283 O   0  0  0  0  0  0  0  0  0  0  0  0
   19.0841   -9.1147  -17.3205 C   0  0  0  0  0  0  0  0  0  0  0  0
   18.4010   -9.0034  -16.2468 O   0  0  0  0  0  0  0  0  0  0  0  0
   16.4140  -12.2985  -19.7837 O   0  0  0  0  0  0  0  0  0  0  0  0
   23.6709  -11.4813  -13.9022 O   0  0  0  0  0  0  0  0  0  0  0  0
   23.1992  -10.3532  -14.5553 C   0  0  0  0  0  0  0  0  0  0  0  0
   23.3438  -10.2054  -15.9203 C   0  0  0  0  0  0  0  0  0  0  0  0
   22.8801   -9.0980  -16.5573 C   0  0  0  0  0  0  0  0  0  0  0  0
   22.2543   -8.1129  -15.8030 C   0  0  0  0  0  0  0  0  0  0  0  0
   21.7723   -6.9108  -16.4919 C   0  0  0  0  0  0  0  0  0  0  0  0
   20.2946   -7.0258  -16.7456 C   0  0  2  0  0  0  0  0  0  0  0  0
   20.0168   -8.1172  -17.6675 N   0  0  0  0  0  0  0  0  0  0  0  0
   19.6644   -5.8089  -17.2608 C   0  0  0  0  0  0  0  0  0  0  0  0
   19.9085   -5.3609  -18.3905 O   0  0  0  0  0  0  0  0  0  0  0  0
   22.0975   -8.2363  -14.4391 C   0  0  0  0  0  0  0  0  0  0  0  0
   22.5721   -9.3596  -13.8192 C   0  0  0  0  0  0  0  0  0  0  0  0
   16.3187   -5.1810  -18.2096 C   0  0  0  0  0  0  0  0  0  0  0  0
   16.5711   -4.1835  -17.0990 C   0  0  1  0  0  0  0  0  0  0  0  0
   15.9927   -4.6277  -15.7971 C   0  0  0  0  0  0  0  0  0  0  0  0
   18.0613   -3.9434  -17.0034 C   0  0  2  0  0  0  0  0  0  0  0  0
   18.7297   -5.0900  -16.4551 N   0  0  0  0  0  0  0  0  0  0  0  0
   18.2933   -2.7786  -16.0891 C   0  0  0  0  0  0  0  0  0  0  0  0
   18.6576   -2.9153  -14.8958 O   0  0  0  0  0  0  0  0  0  0  0  0
   18.1000   -1.4994  -16.5742 O   0  0  0  0  0  0  0  0  0  0  0  0
  2  1  1  1
  2  3  1  0
  3  4  1  0
  4  5  2  0
  6  7  2  0
  6  2  1  0
  8  4  1  0
  9 10  1  0
 10 11  2  0
 10 20  1  0
 11 12  1  0
 12 13  2  0
 13 14  1  0
 15 14  1  6
 15 17  1  0
 15 16  1  0
 16  6  1  0
 17 18  2  0
 19 13  1  0
 20 19  2  0
 22 21  1  6
 23 22  1  0
 24 22  1  0
 24 25  1  1
 25 17  1  0
 26 28  1  0
 26 24  1  0
 27 26  2  0
M  END
$$$$
