DYV.pdb
     RDKit          3D

 28 28  0  0  1  0  0  0  0  0999 V2000
   21.0813   -9.4095  -18.5058 N   0  0  0  0  0  0  0  0  0  0  0  0
   21.2102   -8.0093  -18.8500 C   0  0  1  0  0  0  0  0  0  0  0  0
   20.4589   -7.7211  -20.1086 C   0  0  0  0  0  0  0  0  0  0  0  0
   21.1157   -8.3530  -21.3008 C   0  0  0  0  0  0  0  0  0  0  0  0
   22.0998   -9.0896  -21.1401 O   0  0  0  0  0  0  0  0  0  0  0  0
   20.7344   -7.1610  -17.7548 C   0  0  0  0  0  0  0  0  0  0  0  0
   19.6224   -7.4383  -17.1909 O   0  0  0  0  0  0  0  0  0  0  0  0
   20.6439   -8.1289  -22.5750 O   0  0  0  0  0  0  0  0  0  0  0  0
   21.2110   -9.7173  -11.8865 O   0  0  0  0  0  0  0  0  0  0  0  0
   21.4007   -8.6037  -12.6900 C   0  0  0  0  0  0  0  0  0  0  0  0
   22.3629   -8.5927  -13.6799 C   0  0  0  0  0  0  0  0  0  0  0  0
   22.5459   -7.4991  -14.4657 C   0  0  0  0  0  0  0  0  0  0  0  0
   21.7409   -6.3868  -14.2514 C   0  0  0  0  0  0  0  0  0  0  0  0
   21.9548   -5.2019  -15.0894 C   0  0  0  0  0  0  0  0  0  0  0  0
   20.9887   -5.2104  -16.2417 C   0  0  2  0  0  0  0  0  0  0  0  0
   21.4860   -6.0511  -17.3206 N   0  0  0  0  0  0  0  0  0  0  0  0
   20.6742   -3.8890  -16.7879 C   0  0  0  0  0  0  0  0  0  0  0  0
   21.5273   -3.1759  -17.3360 O   0  0  0  0  0  0  0  0  0  0  0  0
   20.7734   -6.3723  -13.2697 C   0  0  0  0  0  0  0  0  0  0  0  0
   20.6069   -7.4844  -12.4908 C   0  0  0  0  0  0  0  0  0  0  0  0
   17.6446   -0.8341  -18.8503 C   0  0  0  0  0  0  0  0  0  0  0  0
   17.9736   -2.2204  -18.3387 C   0  0  1  0  0  0  0  0  0  0  0  0
   18.3816   -3.1465  -19.4354 C   0  0  0  0  0  0  0  0  0  0  0  0
   19.0433   -2.0953  -17.2768 C   0  0  2  0  0  0  0  0  0  0  0  0
   19.3443   -3.3759  -16.7009 N   0  0  0  0  0  0  0  0  0  0  0  0
   18.5281   -1.1983  -16.1921 C   0  0  0  0  0  0  0  0  0  0  0  0
   17.7283   -1.5926  -15.3088 O   0  0  0  0  0  0  0  0  0  0  0  0
   18.9472    0.1178  -16.1580 O   0  0  0  0  0  0  0  0  0  0  0  0
  2  1  1  1
  2  3  1  0
  3  4  1  0
  4  5  2  0
  6  7  2  0
  6  2  1  0
  8  4  1  0
  9 10  1  0
 10 11  2  0
 10 20  1  0
 11 12  1  0
 12 13  2  0
 13 14  1  0
 15 14  1  1
 15 17  1  0
 15 16  1  0
 16  6  1  0
 17 18  2  0
 19 13  1  0
 20 19  2  0
 22 21  1  6
 23 22  1  0
 24 22  1  0
 24 25  1  1
 25 17  1  0
 26 28  1  0
 26 24  1  0
 27 26  2  0
M  END
$$$$
