DYV.pdb
     RDKit          3D

 28 28  0  0  1  0  0  0  0  0999 V2000
   18.8112  -12.2535  -16.6365 N   0  0  0  0  0  0  0  0  0  0  0  0
   18.3549  -10.8814  -16.5708 C   0  0  1  0  0  0  0  0  0  0  0  0
   17.3297  -10.7345  -15.4942 C   0  0  0  0  0  0  0  0  0  0  0  0
   16.0797  -11.5010  -15.8137 C   0  0  0  0  0  0  0  0  0  0  0  0
   15.5067  -11.3155  -16.8972 O   0  0  0  0  0  0  0  0  0  0  0  0
   19.4802   -9.9717  -16.3444 C   0  0  0  0  0  0  0  0  0  0  0  0
   20.3800  -10.2939  -15.4969 O   0  0  0  0  0  0  0  0  0  0  0  0
   15.5551  -12.4100  -14.9220 O   0  0  0  0  0  0  0  0  0  0  0  0
   23.4042  -11.8341  -20.9571 O   0  0  0  0  0  0  0  0  0  0  0  0
   22.8691  -10.7534  -20.2734 C   0  0  0  0  0  0  0  0  0  0  0  0
   21.5766  -10.3288  -20.5080 C   0  0  0  0  0  0  0  0  0  0  0  0
   21.0554   -9.2689  -19.8357 C   0  0  0  0  0  0  0  0  0  0  0  0
   21.8538   -8.6183  -18.9027 C   0  0  0  0  0  0  0  0  0  0  0  0
   21.2934   -7.4630  -18.1932 C   0  0  0  0  0  0  0  0  0  0  0  0
   20.7421   -7.8987  -16.8638 C   0  0  2  0  0  0  0  0  0  0  0  0
   19.5793   -8.7546  -17.0474 N   0  0  0  0  0  0  0  0  0  0  0  0
   20.3772   -6.8040  -15.9628 C   0  0  0  0  0  0  0  0  0  0  0  0
   19.2933   -6.2081  -16.0454 O   0  0  0  0  0  0  0  0  0  0  0  0
   23.1471   -9.0224  -18.6502 C   0  0  0  0  0  0  0  0  0  0  0  0
   23.6508  -10.0917  -19.3387 C   0  0  0  0  0  0  0  0  0  0  0  0
   19.6848   -6.8307  -12.5270 C   0  0  0  0  0  0  0  0  0  0  0  0
   20.8217   -5.8355  -12.6213 C   0  0  1  0  0  0  0  0  0  0  0  0
   22.1195   -6.4138  -12.1649 C   0  0  0  0  0  0  0  0  0  0  0  0
   20.8969   -5.3312  -14.0452 C   0  0  2  0  0  0  0  0  0  0  0  0
   21.2829   -6.3850  -14.9412 N   0  0  0  0  0  0  0  0  0  0  0  0
   21.9353   -4.2522  -14.1090 C   0  0  0  0  0  0  0  0  0  0  0  0
   23.0531   -4.4183  -14.6551 O   0  0  0  0  0  0  0  0  0  0  0  0
   21.6563   -3.0221  -13.5451 O   0  0  0  0  0  0  0  0  0  0  0  0
  2  1  1  1
  2  3  1  0
  3  4  1  0
  4  5  2  0
  6  7  2  0
  6  2  1  0
  8  4  1  0
  9 10  1  0
 10 11  2  0
 10 20  1  0
 11 12  1  0
 12 13  2  0
 13 14  1  0
 15 14  1  6
 15 17  1  0
 15 16  1  0
 16  6  1  0
 17 18  2  0
 19 13  1  0
 20 19  2  0
 22 21  1  6
 23 22  1  0
 24 22  1  0
 24 25  1  6
 25 17  1  0
 26 28  1  0
 26 24  1  0
 27 26  2  0
M  END
$$$$
