DYV.pdb
     RDKit          3D

 28 28  0  0  1  0  0  0  0  0999 V2000
   16.0418  -18.2973    2.9608 N   0  0  0  0  0  0  0  0  0  0  0  0
   16.5700  -18.1129    4.2959 C   0  0  1  0  0  0  0  0  0  0  0  0
   17.7850  -18.9609    4.4867 C   0  0  0  0  0  0  0  0  0  0  0  0
   17.4354  -20.3086    5.0467 C   0  0  0  0  0  0  0  0  0  0  0  0
   16.2499  -20.5880    5.2774 O   0  0  0  0  0  0  0  0  0  0  0  0
   16.8773  -16.7019    4.5408 C   0  0  0  0  0  0  0  0  0  0  0  0
   17.3807  -16.0020    3.5982 O   0  0  0  0  0  0  0  0  0  0  0  0
   18.4109  -21.2442    5.3103 O   0  0  0  0  0  0  0  0  0  0  0  0
   11.5841  -12.9943    2.9503 O   0  0  0  0  0  0  0  0  0  0  0  0
   12.5813  -13.2753    3.8712 C   0  0  0  0  0  0  0  0  0  0  0  0
   12.5606  -14.4391    4.6136 C   0  0  0  0  0  0  0  0  0  0  0  0
   13.5401  -14.7112    5.5156 C   0  0  0  0  0  0  0  0  0  0  0  0
   14.5679  -13.7898    5.6761 C   0  0  0  0  0  0  0  0  0  0  0  0
   15.6127  -14.0788    6.6643 C   0  0  0  0  0  0  0  0  0  0  0  0
   16.8088  -14.6821    5.9812 C   0  0  2  0  0  0  0  0  0  0  0  0
   16.6246  -16.1138    5.7960 N   0  0  0  0  0  0  0  0  0  0  0  0
   18.0830  -14.4612    6.6673 C   0  0  0  0  0  0  0  0  0  0  0  0
   18.6679  -15.3600    7.2892 O   0  0  0  0  0  0  0  0  0  0  0  0
   14.6115  -12.6206    4.9473 C   0  0  0  0  0  0  0  0  0  0  0  0
   13.6150  -12.3676    4.0451 C   0  0  0  0  0  0  0  0  0  0  0  0
   21.0465  -11.9070    5.4371 C   0  0  0  0  0  0  0  0  0  0  0  0
   20.6166  -11.7022    6.8741 C   0  0  1  0  0  0  0  0  0  0  0  0
   19.7524  -10.4969    7.0400 C   0  0  0  0  0  0  0  0  0  0  0  0
   19.9277  -12.9619    7.3497 C   0  0  2  0  0  0  0  0  0  0  0  0
   18.6992  -13.1732    6.6366 N   0  0  0  0  0  0  0  0  0  0  0  0
   19.6082  -12.8034    8.8055 C   0  0  0  0  0  0  0  0  0  0  0  0
   20.4859  -12.8515    9.7015 O   0  0  0  0  0  0  0  0  0  0  0  0
   18.2954  -12.5958    9.1829 O   0  0  0  0  0  0  0  0  0  0  0  0
  2  1  1  6
  2  3  1  0
  3  4  1  0
  4  5  2  0
  6  7  2  0
  6  2  1  0
  8  4  1  0
  9 10  1  0
 10 11  2  0
 10 20  1  0
 11 12  1  0
 12 13  2  0
 13 14  1  0
 15 14  1  1
 15 17  1  0
 15 16  1  0
 16  6  1  0
 17 18  2  0
 19 13  1  0
 20 19  2  0
 22 21  1  6
 23 22  1  0
 24 22  1  0
 24 25  1  6
 25 17  1  0
 26 28  1  0
 26 24  1  0
 27 26  2  0
M  END
$$$$
