LQG.pdb
     RDKit          3D

 22 21  0  0  1  0  0  0  0  0999 V2000
   29.0763  -17.8573  -16.2649 C   0  0  0  0  0  0  0  0  0  0  0  0
   28.1377  -18.4782  -17.2715 C   0  0  2  0  0  0  0  0  0  0  0  0
   27.4901  -17.3934  -18.0597 C   0  0  0  0  0  0  0  0  0  0  0  0
   27.1764  -19.3789  -16.5655 C   0  0  0  0  0  0  0  0  0  0  0  0
   27.7910  -20.3855  -15.6581 C   0  0  2  0  0  0  0  0  0  0  0  0
   28.4036  -21.5040  -16.3031 N   0  0  0  0  0  0  0  0  0  0  0  0
   26.7011  -20.9007  -14.7671 C   0  0  0  0  0  0  0  0  0  0  0  0
   26.0792  -21.9763  -15.0682 O   0  0  0  0  0  0  0  0  0  0  0  0
   26.3227  -20.0836   -8.6658 N   0  0  0  0  0  0  0  0  0  0  0  0
   25.1218  -20.8183   -8.8799 C   0  0  0  0  0  0  0  0  0  0  0  0
   24.4302  -21.1698   -7.8921 O   0  0  0  0  0  0  0  0  0  0  0  0
   24.6916  -21.1652  -10.2561 C   0  0  0  0  0  0  0  0  0  0  0  0
   25.6697  -20.6080  -11.2244 C   0  0  0  0  0  0  0  0  0  0  0  0
   25.3197  -20.8553  -12.6659 C   0  0  2  0  0  0  0  0  0  0  0  0
   26.2882  -20.2681  -13.5725 N   0  0  0  0  0  0  0  0  0  0  0  0
   23.9499  -20.4358  -13.0080 C   0  0  0  0  0  0  0  0  0  0  0  0
   22.9649  -20.8524  -12.3734 O   0  0  0  0  0  0  0  0  0  0  0  0
   23.7574  -19.5412  -14.0808 N   0  0  0  0  0  0  0  0  0  0  0  0
   22.4578  -18.9602  -14.3439 C   0  0  0  0  0  0  0  0  0  0  0  0
   21.6342  -19.8240  -15.2194 C   0  0  0  0  0  0  0  0  0  0  0  0
   21.9821  -21.0126  -15.4050 O   0  0  0  0  0  0  0  0  0  0  0  0
   20.4900  -19.3667  -15.8431 O   0  0  0  0  0  0  0  0  0  0  0  0
  2  1  1  1
  2  3  1  0
  4  2  1  0
  5  4  1  0
  5  7  1  0
  5  6  1  6
  7  8  2  0
  9 10  1  0
 10 11  2  0
 12 10  1  0
 12 13  1  0
 14 13  1  1
 15  7  1  0
 15 14  1  0
 16 14  1  0
 16 17  2  0
 18 16  1  0
 19 18  1  0
 19 20  1  0
 20 22  1  0
 21 20  2  0
M  END
$$$$
