LQG.pdb
     RDKit          3D

 22 21  0  0  1  0  0  0  0  0999 V2000
   28.8342  -21.0414  -11.1599 C   0  0  0  0  0  0  0  0  0  0  0  0
   27.6662  -20.4579  -10.4017 C   0  0  2  0  0  0  0  0  0  0  0  0
   27.8572  -20.7176   -8.9479 C   0  0  0  0  0  0  0  0  0  0  0  0
   26.3903  -21.0023  -10.9579 C   0  0  0  0  0  0  0  0  0  0  0  0
   26.1218  -20.6729  -12.3840 C   0  0  2  0  0  0  0  0  0  0  0  0
   26.4182  -19.3300  -12.7726 N   0  0  0  0  0  0  0  0  0  0  0  0
   24.6628  -20.9171  -12.6266 C   0  0  0  0  0  0  0  0  0  0  0  0
   24.1887  -22.1023  -12.5547 O   0  0  0  0  0  0  0  0  0  0  0  0
   19.4132  -21.0895  -11.6536 N   0  0  0  0  0  0  0  0  0  0  0  0
   20.3143  -20.7799  -10.5953 C   0  0  0  0  0  0  0  0  0  0  0  0
   20.1167  -21.2685   -9.4551 O   0  0  0  0  0  0  0  0  0  0  0  0
   21.4751  -19.8891  -10.8367 C   0  0  0  0  0  0  0  0  0  0  0  0
   21.4333  -19.4088  -12.2411 C   0  0  0  0  0  0  0  0  0  0  0  0
   22.3254  -20.1722  -13.1808 C   0  0  2  0  0  0  0  0  0  0  0  0
   23.7306  -19.9025  -12.9414 N   0  0  0  0  0  0  0  0  0  0  0  0
   21.9798  -19.9696  -14.5982 C   0  0  0  0  0  0  0  0  0  0  0  0
   20.8197  -20.1350  -15.0144 O   0  0  0  0  0  0  0  0  0  0  0  0
   22.9920  -19.5792  -15.4989 N   0  0  0  0  0  0  0  0  0  0  0  0
   22.7296  -19.4801  -16.9191 C   0  0  0  0  0  0  0  0  0  0  0  0
   22.6160  -18.0724  -17.3624 C   0  0  0  0  0  0  0  0  0  0  0  0
   22.4591  -17.1736  -16.5045 O   0  0  0  0  0  0  0  0  0  0  0  0
   22.6768  -17.7099  -18.6936 O   0  0  0  0  0  0  0  0  0  0  0  0
  2  1  1  6
  2  3  1  0
  4  2  1  0
  5  4  1  0
  5  7  1  0
  5  6  1  1
  7  8  2  0
  9 10  1  0
 10 11  2  0
 12 10  1  0
 12 13  1  0
 14 13  1  1
 15  7  1  0
 15 14  1  0
 16 14  1  0
 16 17  2  0
 18 16  1  0
 19 18  1  0
 19 20  1  0
 20 22  1  0
 21 20  2  0
M  END
$$$$
