LQG.pdb
     RDKit          3D

 22 21  0  0  1  0  0  0  0  0999 V2000
   19.5456  -13.4654  -19.5557 C   0  0  0  0  0  0  0  0  0  0  0  0
   20.8634  -14.0455  -19.1014 C   0  0  2  0  0  0  0  0  0  0  0  0
   20.6463  -15.4536  -18.6682 C   0  0  0  0  0  0  0  0  0  0  0  0
   21.4574  -13.1662  -18.0490 C   0  0  0  0  0  0  0  0  0  0  0  0
   21.6030  -11.7325  -18.4201 C   0  0  2  0  0  0  0  0  0  0  0  0
   22.4018  -11.4734  -19.5765 N   0  0  0  0  0  0  0  0  0  0  0  0
   22.2337  -11.0358  -17.2523 C   0  0  0  0  0  0  0  0  0  0  0  0
   21.7163  -11.1367  -16.0875 O   0  0  0  0  0  0  0  0  0  0  0  0
   28.0898  -10.5421  -15.9282 N   0  0  0  0  0  0  0  0  0  0  0  0
   27.1867  -11.6252  -15.7300 C   0  0  0  0  0  0  0  0  0  0  0  0
   27.6420  -12.7703  -15.4867 O   0  0  0  0  0  0  0  0  0  0  0  0
   25.7226  -11.4034  -15.8098 C   0  0  0  0  0  0  0  0  0  0  0  0
   25.4632   -9.9598  -16.0413 C   0  0  0  0  0  0  0  0  0  0  0  0
   24.0075   -9.6096  -16.1822 C   0  0  2  0  0  0  0  0  0  0  0  0
   23.4015  -10.2441  -17.3375 N   0  0  0  0  0  0  0  0  0  0  0  0
   23.7600   -8.1577  -16.1830 C   0  0  0  0  0  0  0  0  0  0  0  0
   24.1883   -7.4248  -15.2742 O   0  0  0  0  0  0  0  0  0  0  0  0
   23.0199   -7.5916  -17.2413 N   0  0  0  0  0  0  0  0  0  0  0  0
   22.8613   -6.1574  -17.3576 C   0  0  0  0  0  0  0  0  0  0  0  0
   21.5712   -5.6975  -16.7964 C   0  0  0  0  0  0  0  0  0  0  0  0
   20.8109   -6.5309  -16.2526 O   0  0  0  0  0  0  0  0  0  0  0  0
   21.1712   -4.3767  -16.8499 O   0  0  0  0  0  0  0  0  0  0  0  0
  2  1  1  1
  2  3  1  0
  4  2  1  0
  5  4  1  0
  5  7  1  0
  5  6  1  6
  7  8  2  0
  9 10  1  0
 10 11  2  0
 12 10  1  0
 12 13  1  0
 14 13  1  6
 15  7  1  0
 15 14  1  0
 16 14  1  0
 16 17  2  0
 18 16  1  0
 19 18  1  0
 19 20  1  0
 20 22  1  0
 21 20  2  0
M  END
$$$$
