LQG.pdb
     RDKit          3D

 22 21  0  0  1  0  0  0  0  0999 V2000
   33.4292  -31.5636  -16.8261 C   0  0  0  0  0  0  0  0  0  0  0  0
   32.6420  -32.4198  -17.7888 C   0  0  2  0  0  0  0  0  0  0  0  0
   33.4224  -32.5712  -19.0480 C   0  0  0  0  0  0  0  0  0  0  0  0
   31.2813  -31.8317  -17.9793 C   0  0  0  0  0  0  0  0  0  0  0  0
   30.4495  -31.7315  -16.7494 C   0  0  2  0  0  0  0  0  0  0  0  0
   30.0362  -32.9762  -16.1820 N   0  0  0  0  0  0  0  0  0  0  0  0
   29.2205  -30.9524  -17.1097 C   0  0  0  0  0  0  0  0  0  0  0  0
   28.4093  -31.4022  -17.9896 O   0  0  0  0  0  0  0  0  0  0  0  0
   26.7991  -32.2055  -15.2089 N   0  0  0  0  0  0  0  0  0  0  0  0
   26.1637  -32.1010  -16.4790 C   0  0  0  0  0  0  0  0  0  0  0  0
   25.8907  -33.1466  -17.1193 O   0  0  0  0  0  0  0  0  0  0  0  0
   25.8275  -30.7703  -17.0407 C   0  0  0  0  0  0  0  0  0  0  0  0
   26.4431  -29.7174  -16.1937 C   0  0  0  0  0  0  0  0  0  0  0  0
   27.6234  -29.0308  -16.8239 C   0  0  2  0  0  0  0  0  0  0  0  0
   28.8714  -29.7105  -16.5324 N   0  0  0  0  0  0  0  0  0  0  0  0
   27.7069  -27.5994  -16.4867 C   0  0  0  0  0  0  0  0  0  0  0  0
   28.0949  -27.2166  -15.3689 O   0  0  0  0  0  0  0  0  0  0  0  0
   27.3371  -26.6463  -17.4577 N   0  0  0  0  0  0  0  0  0  0  0  0
   27.3910  -25.2285  -17.1702 C   0  0  0  0  0  0  0  0  0  0  0  0
   26.1051  -24.7240  -16.6383 C   0  0  0  0  0  0  0  0  0  0  0  0
   25.1415  -25.5152  -16.5204 O   0  0  0  0  0  0  0  0  0  0  0  0
   25.9261  -23.4065  -16.2649 O   0  0  0  0  0  0  0  0  0  0  0  0
  2  1  1  1
  2  3  1  0
  4  2  1  0
  5  4  1  0
  5  7  1  0
  5  6  1  6
  7  8  2  0
  9 10  1  0
 10 11  2  0
 12 10  1  0
 12 13  1  0
 14 13  1  1
 15  7  1  0
 15 14  1  0
 16 14  1  0
 16 17  2  0
 18 16  1  0
 19 18  1  0
 19 20  1  0
 20 22  1  0
 21 20  2  0
M  END
$$$$
