LQG.pdb
     RDKit          3D

 22 21  0  0  1  0  0  0  0  0999 V2000
   26.8558  -32.2066   -9.0320 C   0  0  0  0  0  0  0  0  0  0  0  0
   25.9481  -33.0736   -8.1930 C   0  0  2  0  0  0  0  0  0  0  0  0
   24.8156  -32.2450   -7.6947 C   0  0  0  0  0  0  0  0  0  0  0  0
   26.7463  -33.7311   -7.1139 C   0  0  0  0  0  0  0  0  0  0  0  0
   27.8888  -34.5632   -7.5796 C   0  0  2  0  0  0  0  0  0  0  0  0
   27.5368  -35.7368   -8.3152 N   0  0  0  0  0  0  0  0  0  0  0  0
   28.6513  -34.9882   -6.3609 C   0  0  0  0  0  0  0  0  0  0  0  0
   28.2504  -35.9840   -5.6666 O   0  0  0  0  0  0  0  0  0  0  0  0
   33.8144  -36.1944   -3.9334 N   0  0  0  0  0  0  0  0  0  0  0  0
   33.7248  -36.0110   -5.3427 C   0  0  0  0  0  0  0  0  0  0  0  0
   34.4220  -36.7279   -6.1028 O   0  0  0  0  0  0  0  0  0  0  0  0
   32.8169  -34.9836   -5.9078 C   0  0  0  0  0  0  0  0  0  0  0  0
   32.0211  -34.3825   -4.8078 C   0  0  0  0  0  0  0  0  0  0  0  0
   30.5881  -34.8370   -4.7638 C   0  0  2  0  0  0  0  0  0  0  0  0
   29.8252  -34.3514   -5.8980 N   0  0  0  0  0  0  0  0  0  0  0  0
   29.9173  -34.5106   -3.4937 C   0  0  0  0  0  0  0  0  0  0  0  0
   29.4556  -33.3768   -3.2752 O   0  0  0  0  0  0  0  0  0  0  0  0
   29.7990  -35.5109   -2.5070 N   0  0  0  0  0  0  0  0  0  0  0  0
   29.2122  -35.2200   -1.2161 C   0  0  0  0  0  0  0  0  0  0  0  0
   30.1788  -35.4192   -0.1129 C   0  0  0  0  0  0  0  0  0  0  0  0
   31.3158  -35.8751   -0.3732 O   0  0  0  0  0  0  0  0  0  0  0  0
   29.8732  -35.1197    1.2002 O   0  0  0  0  0  0  0  0  0  0  0  0
  2  1  1  1
  2  3  1  0
  4  2  1  0
  5  4  1  0
  5  7  1  0
  5  6  1  1
  7  8  2  0
  9 10  1  0
 10 11  2  0
 12 10  1  0
 12 13  1  0
 14 13  1  1
 15  7  1  0
 15 14  1  0
 16 14  1  0
 16 17  2  0
 18 16  1  0
 19 18  1  0
 19 20  1  0
 20 22  1  0
 21 20  2  0
M  END
$$$$
