LQG.pdb
     RDKit          3D

 22 21  0  0  1  0  0  0  0  0999 V2000
   26.5450  -14.5410  -15.1864 C   0  0  0  0  0  0  0  0  0  0  0  0
   25.7399  -14.4535  -16.4606 C   0  0  2  0  0  0  0  0  0  0  0  0
   26.5801  -14.9277  -17.5950 C   0  0  0  0  0  0  0  0  0  0  0  0
   25.2187  -13.0625  -16.6251 C   0  0  0  0  0  0  0  0  0  0  0  0
   24.4107  -12.5433  -15.4883 C   0  0  2  0  0  0  0  0  0  0  0  0
   23.2968  -13.3518  -15.1040 N   0  0  0  0  0  0  0  0  0  0  0  0
   23.8914  -11.1969  -15.8942 C   0  0  0  0  0  0  0  0  0  0  0  0
   24.6902  -10.3129  -16.3580 O   0  0  0  0  0  0  0  0  0  0  0  0
   19.9318  -12.1485  -16.5558 N   0  0  0  0  0  0  0  0  0  0  0  0
   20.2785  -11.7834  -17.8878 C   0  0  0  0  0  0  0  0  0  0  0  0
   20.1792  -12.6351  -18.8057 O   0  0  0  0  0  0  0  0  0  0  0  0
   20.7523  -10.4108  -18.1887 C   0  0  0  0  0  0  0  0  0  0  0  0
   20.7284   -9.6057  -16.9413 C   0  0  0  0  0  0  0  0  0  0  0  0
   22.0564   -9.5125  -16.2418 C   0  0  2  0  0  0  0  0  0  0  0  0
   22.5353  -10.8094  -15.8021 N   0  0  0  0  0  0  0  0  0  0  0  0
   22.0590   -8.5420  -15.1338 C   0  0  0  0  0  0  0  0  0  0  0  0
   21.4669   -8.7741  -14.0651 O   0  0  0  0  0  0  0  0  0  0  0  0
   22.7504   -7.3237  -15.2947 N   0  0  0  0  0  0  0  0  0  0  0  0
   22.9015   -6.4000  -14.1903 C   0  0  0  0  0  0  0  0  0  0  0  0
   22.0513   -5.1995  -14.3546 C   0  0  0  0  0  0  0  0  0  0  0  0
   21.2793   -5.1290  -15.3381 O   0  0  0  0  0  0  0  0  0  0  0  0
   22.0770   -4.1481  -13.4595 O   0  0  0  0  0  0  0  0  0  0  0  0
  2  1  1  1
  2  3  1  0
  4  2  1  0
  5  4  1  0
  5  7  1  0
  5  6  1  6
  7  8  2  0
  9 10  1  0
 10 11  2  0
 12 10  1  0
 12 13  1  0
 14 13  1  1
 15  7  1  0
 15 14  1  0
 16 14  1  0
 16 17  2  0
 18 16  1  0
 19 18  1  0
 19 20  1  0
 20 22  1  0
 21 20  2  0
M  END
$$$$
