LQG.pdb
     RDKit          3D

 22 21  0  0  1  0  0  0  0  0999 V2000
   24.6717  -20.5244   -8.0729 C   0  0  0  0  0  0  0  0  0  0  0  0
   26.0493  -20.0349   -8.4497 C   0  0  2  0  0  0  0  0  0  0  0  0
   26.3131  -18.7492   -7.7463 C   0  0  0  0  0  0  0  0  0  0  0  0
   26.1576  -19.9514   -9.9380 C   0  0  0  0  0  0  0  0  0  0  0  0
   25.8388  -21.2048  -10.6742 C   0  0  2  0  0  0  0  0  0  0  0  0
   26.8655  -22.1989  -10.6718 N   0  0  0  0  0  0  0  0  0  0  0  0
   25.5629  -20.8231  -12.0973 C   0  0  0  0  0  0  0  0  0  0  0  0
   26.5104  -20.4018  -12.8452 O   0  0  0  0  0  0  0  0  0  0  0  0
   25.5837  -21.8991  -16.6245 N   0  0  0  0  0  0  0  0  0  0  0  0
   25.5276  -22.9726  -15.6905 C   0  0  0  0  0  0  0  0  0  0  0  0
   26.4218  -23.8544  -15.7109 O   0  0  0  0  0  0  0  0  0  0  0  0
   24.4238  -23.0488  -14.7030 C   0  0  0  0  0  0  0  0  0  0  0  0
   23.5636  -21.8468  -14.8441 C   0  0  0  0  0  0  0  0  0  0  0  0
   24.0740  -20.6342  -14.1155 C   0  0  2  0  0  0  0  0  0  0  0  0
   24.2884  -20.8938  -12.7044 N   0  0  0  0  0  0  0  0  0  0  0  0
   23.2303  -19.4433  -14.3140 C   0  0  0  0  0  0  0  0  0  0  0  0
   22.3269  -19.1459  -13.5129 O   0  0  0  0  0  0  0  0  0  0  0  0
   23.4571  -18.6256  -15.4402 N   0  0  0  0  0  0  0  0  0  0  0  0
   22.7198  -17.3942  -15.6289 C   0  0  0  0  0  0  0  0  0  0  0  0
   21.3556  -17.6417  -16.1471 C   0  0  0  0  0  0  0  0  0  0  0  0
   20.3956  -16.9931  -15.6716 O   0  0  0  0  0  0  0  0  0  0  0  0
   21.0992  -18.5659  -17.1408 O   0  0  0  0  0  0  0  0  0  0  0  0
  2  1  1  6
  2  3  1  0
  4  2  1  0
  5  4  1  0
  5  7  1  0
  5  6  1  6
  7  8  2  0
  9 10  1  0
 10 11  2  0
 12 10  1  0
 12 13  1  0
 14 13  1  1
 15  7  1  0
 15 14  1  0
 16 14  1  0
 16 17  2  0
 18 16  1  0
 19 18  1  0
 19 20  1  0
 20 22  1  0
 21 20  2  0
M  END
$$$$
