ETD.pdb
     RDKit          3D

 25 24  0  0  1  0  0  0  0  0999 V2000
   19.5088  -12.0363  -18.7428 N   0  0  0  0  0  0  0  0  0  0  0  0
   20.7609  -12.2342  -18.0714 C   0  0  1  0  0  0  0  0  0  0  0  0
   21.4696  -13.4220  -18.6193 C   0  0  0  0  0  0  0  0  0  0  0  0
   21.3080  -13.6738  -20.0764 C   0  0  0  0  0  0  0  0  0  0  0  0
   22.1555  -14.7428  -20.6336 C   0  0  0  0  0  0  0  0  0  0  0  0
   23.1419  -14.4294  -21.3393 O   0  0  0  0  0  0  0  0  0  0  0  0
   21.5713  -10.9923  -18.1323 C   0  0  0  0  0  0  0  0  0  0  0  0
   22.7591  -10.9549  -17.6965 O   0  0  0  0  0  0  0  0  0  0  0  0
   21.9129  -16.0875  -20.4138 O   0  0  0  0  0  0  0  0  0  0  0  0
   22.5992   -6.6401  -20.0238 C   0  0  0  0  0  0  0  0  0  0  0  0
   21.9387   -7.9914  -20.1078 C   0  0  1  0  0  0  0  0  0  0  0  0
   22.5690   -8.8588  -20.9793 O   0  0  0  0  0  0  0  0  0  0  0  0
   21.7981   -8.5472  -18.7121 C   0  0  2  0  0  0  0  0  0  0  0  0
   21.0598   -9.7879  -18.6793 N   0  0  0  0  0  0  0  0  0  0  0  0
   21.3088   -7.5594  -17.7394 C   0  0  0  0  0  0  0  0  0  0  0  0
   20.1254   -7.1846  -17.7648 O   0  0  0  0  0  0  0  0  0  0  0  0
   22.1912   -7.0382  -16.7752 N   0  0  0  0  0  0  0  0  0  0  0  0
   21.7997   -6.0278  -15.8047 C   0  0  1  0  0  0  0  0  0  0  0  0
   22.5837   -6.1145  -14.5372 C   0  0  0  0  0  0  0  0  0  0  0  0
   22.1845   -5.1544  -13.5063 C   0  0  0  0  0  0  0  0  0  0  0  0
   21.0020   -4.6937  -13.5840 O   0  0  0  0  0  0  0  0  0  0  0  0
   21.8546   -4.6865  -16.4011 C   0  0  0  0  0  0  0  0  0  0  0  0
   20.8564   -3.7532  -16.3323 O   0  0  0  0  0  0  0  0  0  0  0  0
   22.9576   -4.7038  -12.4679 O   0  0  0  0  0  0  0  0  0  0  0  0
   22.9072   -4.3445  -17.0381 O   0  0  0  0  0  0  0  0  0  0  0  0
  2  7  1  0
  2  1  1  6
  3  2  1  0
  4  5  1  0
  4  3  1  0
  5  9  1  0
  6  5  2  0
  7  8  2  0
 11 10  1  1
 12 11  1  0
 13 11  1  0
 14  7  1  0
 13 14  1  6
 15 13  1  0
 15 17  1  0
 16 15  2  0
 18 17  1  0
 18 19  1  1
 20 19  1  0
 20 21  2  0
 22 23  1  0
 22 18  1  0
 24 20  1  0
 25 22  2  0
M  END
$$$$
