ETD.pdb
     RDKit          3D

 25 24  0  0  1  0  0  0  0  0999 V2000
   20.2183  -14.6427  -15.8128 N   0  0  0  0  0  0  0  0  0  0  0  0
   20.0504  -13.3450  -16.4005 C   0  0  1  0  0  0  0  0  0  0  0  0
   18.6103  -12.9762  -16.4589 C   0  0  0  0  0  0  0  0  0  0  0  0
   17.6477  -14.0972  -16.6295 C   0  0  0  0  0  0  0  0  0  0  0  0
   16.3356  -13.9108  -15.9851 C   0  0  0  0  0  0  0  0  0  0  0  0
   15.4599  -13.2370  -16.5754 O   0  0  0  0  0  0  0  0  0  0  0  0
   20.8785  -12.3488  -15.6762 C   0  0  0  0  0  0  0  0  0  0  0  0
   20.7986  -12.2090  -14.4208 O   0  0  0  0  0  0  0  0  0  0  0  0
   16.0206  -14.4481  -14.7493 O   0  0  0  0  0  0  0  0  0  0  0  0
   24.5655  -12.0512  -15.5892 C   0  0  0  0  0  0  0  0  0  0  0  0
   24.0967  -10.6917  -16.0381 C   0  0  1  0  0  0  0  0  0  0  0  0
   24.3599  -10.4307  -17.3692 O   0  0  0  0  0  0  0  0  0  0  0  0
   22.6390  -10.5413  -15.6786 C   0  0  2  0  0  0  0  0  0  0  0  0
   21.7984  -11.5050  -16.3495 N   0  0  0  0  0  0  0  0  0  0  0  0
   22.1482   -9.1612  -15.8052 C   0  0  0  0  0  0  0  0  0  0  0  0
   21.3764   -8.8504  -16.7266 O   0  0  0  0  0  0  0  0  0  0  0  0
   22.5588   -8.1900  -14.8736 N   0  0  0  0  0  0  0  0  0  0  0  0
   22.1046   -6.8086  -14.9147 C   0  0  1  0  0  0  0  0  0  0  0  0
   21.9541   -6.2127  -13.5542 C   0  0  0  0  0  0  0  0  0  0  0  0
   21.4993   -4.8209  -13.5449 C   0  0  0  0  0  0  0  0  0  0  0  0
   20.2906   -4.6143  -13.8806 O   0  0  0  0  0  0  0  0  0  0  0  0
   22.9742   -6.0020  -15.7813 C   0  0  0  0  0  0  0  0  0  0  0  0
   22.6078   -4.8371  -16.3987 O   0  0  0  0  0  0  0  0  0  0  0  0
   22.2459   -3.7209  -13.2109 O   0  0  0  0  0  0  0  0  0  0  0  0
   24.1695   -6.4011  -15.9879 O   0  0  0  0  0  0  0  0  0  0  0  0
  2  7  1  0
  2  1  1  1
  3  2  1  0
  4  5  1  0
  4  3  1  0
  5  9  1  0
  6  5  2  0
  7  8  2  0
 11 10  1  6
 12 11  1  0
 13 11  1  0
 14  7  1  0
 13 14  1  6
 15 13  1  0
 15 17  1  0
 16 15  2  0
 18 17  1  0
 18 19  1  1
 20 19  1  0
 20 21  2  0
 22 23  1  0
 22 18  1  0
 24 20  1  0
 25 22  2  0
M  END
$$$$
