ETD.pdb
     RDKit          3D

 25 24  0  0  1  0  0  0  0  0999 V2000
   18.9288  -12.4185  -17.8932 N   0  0  0  0  0  0  0  0  0  0  0  0
   20.0447  -11.5767  -17.5707 C   0  0  1  0  0  0  0  0  0  0  0  0
   20.9417  -11.4187  -18.7470 C   0  0  0  0  0  0  0  0  0  0  0  0
   20.6696  -12.3062  -19.9093 C   0  0  0  0  0  0  0  0  0  0  0  0
   21.5853  -12.1522  -21.0535 C   0  0  0  0  0  0  0  0  0  0  0  0
   21.1117  -12.1467  -22.2132 O   0  0  0  0  0  0  0  0  0  0  0  0
   19.5635  -10.2825  -17.0265 C   0  0  0  0  0  0  0  0  0  0  0  0
   18.6605   -9.6139  -17.6093 O   0  0  0  0  0  0  0  0  0  0  0  0
   22.9545  -12.0121  -20.9086 O   0  0  0  0  0  0  0  0  0  0  0  0
   17.6120   -9.5328  -14.2885 C   0  0  0  0  0  0  0  0  0  0  0  0
   18.8395   -8.7198  -13.9695 C   0  0  1  0  0  0  0  0  0  0  0  0
   19.6051   -9.2556  -12.9517 O   0  0  0  0  0  0  0  0  0  0  0  0
   19.6151   -8.4970  -15.2444 C   0  0  2  0  0  0  0  0  0  0  0  0
   20.0878   -9.7293  -15.8303 N   0  0  0  0  0  0  0  0  0  0  0  0
   20.6683   -7.4795  -15.1140 C   0  0  0  0  0  0  0  0  0  0  0  0
   21.8650   -7.8103  -15.1086 O   0  0  0  0  0  0  0  0  0  0  0  0
   20.3127   -6.1234  -14.9950 N   0  0  0  0  0  0  0  0  0  0  0  0
   21.2915   -5.0530  -14.8831 C   0  0  1  0  0  0  0  0  0  0  0  0
   20.7410   -3.7264  -15.2902 C   0  0  0  0  0  0  0  0  0  0  0  0
   21.6621   -2.6025  -15.1098 C   0  0  0  0  0  0  0  0  0  0  0  0
   22.8233   -2.7315  -15.6114 O   0  0  0  0  0  0  0  0  0  0  0  0
   21.8751   -5.0222  -13.5353 C   0  0  0  0  0  0  0  0  0  0  0  0
   23.1595   -4.6527  -13.2422 O   0  0  0  0  0  0  0  0  0  0  0  0
   21.3973   -1.4277  -14.4553 O   0  0  0  0  0  0  0  0  0  0  0  0
   21.1437   -5.3633  -12.5456 O   0  0  0  0  0  0  0  0  0  0  0  0
  2  7  1  0
  2  1  1  6
  3  2  1  0
  4  5  1  0
  4  3  1  0
  5  9  1  0
  6  5  2  0
  7  8  2  0
 11 10  1  6
 12 11  1  0
 13 11  1  0
 14  7  1  0
 13 14  1  1
 15 13  1  0
 15 17  1  0
 16 15  2  0
 18 17  1  0
 18 19  1  1
 20 19  1  0
 20 21  2  0
 22 23  1  0
 22 18  1  0
 24 20  1  0
 25 22  2  0
M  END
$$$$
