ETD.pdb
     RDKit          3D

 25 24  0  0  1  0  0  0  0  0999 V2000
   18.6355  -11.8929  -17.7694 N   0  0  0  0  0  0  0  0  0  0  0  0
   19.3275  -10.6870  -18.1224 C   0  0  1  0  0  0  0  0  0  0  0  0
   18.7142  -10.0613  -19.3247 C   0  0  0  0  0  0  0  0  0  0  0  0
   19.4731  -10.1919  -20.5974 C   0  0  0  0  0  0  0  0  0  0  0  0
   20.0648   -8.9453  -21.1144 C   0  0  0  0  0  0  0  0  0  0  0  0
   19.4106   -8.2561  -21.9307 O   0  0  0  0  0  0  0  0  0  0  0  0
   19.3834   -9.7734  -16.9541 C   0  0  0  0  0  0  0  0  0  0  0  0
   18.4248   -9.6908  -16.1318 O   0  0  0  0  0  0  0  0  0  0  0  0
   21.3184   -8.4947  -20.7394 O   0  0  0  0  0  0  0  0  0  0  0  0
   21.8131   -7.2770  -13.6004 C   0  0  0  0  0  0  0  0  0  0  0  0
   21.7643   -8.3266  -14.6798 C   0  0  1  0  0  0  0  0  0  0  0  0
   21.7652   -9.6190  -14.1910 O   0  0  0  0  0  0  0  0  0  0  0  0
   20.5936   -8.0331  -15.5854 C   0  0  2  0  0  0  0  0  0  0  0  0
   20.5088   -8.9486  -16.6990 N   0  0  0  0  0  0  0  0  0  0  0  0
   20.5118   -6.6225  -15.9913 C   0  0  0  0  0  0  0  0  0  0  0  0
   21.3043   -6.1622  -16.8288 O   0  0  0  0  0  0  0  0  0  0  0  0
   19.5271   -5.7927  -15.4242 N   0  0  0  0  0  0  0  0  0  0  0  0
   19.3606   -4.3945  -15.7895 C   0  0  1  0  0  0  0  0  0  0  0  0
   18.0272   -3.8522  -15.3939 C   0  0  0  0  0  0  0  0  0  0  0  0
   17.7833   -2.4696  -15.8097 C   0  0  0  0  0  0  0  0  0  0  0  0
   18.6686   -1.9318  -16.5470 O   0  0  0  0  0  0  0  0  0  0  0  0
   20.4678   -3.5852  -15.2630 C   0  0  0  0  0  0  0  0  0  0  0  0
   21.3809   -4.0090  -14.3362 O   0  0  0  0  0  0  0  0  0  0  0  0
   16.6976   -1.6990  -15.4835 O   0  0  0  0  0  0  0  0  0  0  0  0
   20.6070   -2.3899  -15.6903 O   0  0  0  0  0  0  0  0  0  0  0  0
  2  7  1  0
  2  1  1  1
  3  2  1  0
  4  5  1  0
  4  3  1  0
  5  9  1  0
  6  5  2  0
  7  8  2  0
 11 10  1  1
 12 11  1  0
 13 11  1  0
 14  7  1  0
 13 14  1  6
 15 13  1  0
 15 17  1  0
 16 15  2  0
 18 17  1  0
 18 19  1  1
 20 19  1  0
 20 21  2  0
 22 23  1  0
 22 18  1  0
 24 20  1  0
 25 22  2  0
M  END
$$$$
