ETD.pdb
     RDKit          3D

 25 24  0  0  1  0  0  0  0  0999 V2000
   20.5360  -16.7167  -17.1331 N   0  0  0  0  0  0  0  0  0  0  0  0
   19.5739  -15.9244  -17.8433 C   0  0  1  0  0  0  0  0  0  0  0  0
   18.2466  -15.9836  -17.1739 C   0  0  0  0  0  0  0  0  0  0  0  0
   18.1289  -16.9168  -16.0216 C   0  0  0  0  0  0  0  0  0  0  0  0
   16.8072  -16.9587  -15.3712 C   0  0  0  0  0  0  0  0  0  0  0  0
   15.8924  -16.2227  -15.8080 O   0  0  0  0  0  0  0  0  0  0  0  0
   20.0811  -14.5397  -18.0106 C   0  0  0  0  0  0  0  0  0  0  0  0
   21.1284  -14.1424  -17.4211 O   0  0  0  0  0  0  0  0  0  0  0  0
   16.5244  -17.7783  -14.2926 O   0  0  0  0  0  0  0  0  0  0  0  0
   19.8791  -10.1863  -20.3483 C   0  0  0  0  0  0  0  0  0  0  0  0
   19.4143  -11.6185  -20.2994 C   0  0  1  0  0  0  0  0  0  0  0  0
   19.7955  -12.3586  -21.4022 O   0  0  0  0  0  0  0  0  0  0  0  0
   19.8595  -12.2257  -18.9918 C   0  0  2  0  0  0  0  0  0  0  0  0
   19.4221  -13.5931  -18.8361 N   0  0  0  0  0  0  0  0  0  0  0  0
   19.5507  -11.3854  -17.8255 C   0  0  0  0  0  0  0  0  0  0  0  0
   18.5411  -11.6096  -17.1386 O   0  0  0  0  0  0  0  0  0  0  0  0
   20.4082  -10.3216  -17.4897 N   0  0  0  0  0  0  0  0  0  0  0  0
   20.1908   -9.4603  -16.3376 C   0  0  1  0  0  0  0  0  0  0  0  0
   21.4037   -9.3366  -15.4760 C   0  0  0  0  0  0  0  0  0  0  0  0
   21.2569   -8.4189  -14.3444 C   0  0  0  0  0  0  0  0  0  0  0  0
   20.4651   -8.7797  -13.4174 O   0  0  0  0  0  0  0  0  0  0  0  0
   19.6726   -8.1517  -16.7584 C   0  0  0  0  0  0  0  0  0  0  0  0
   18.7883   -7.3892  -16.0450 O   0  0  0  0  0  0  0  0  0  0  0  0
   21.8871   -7.2120  -14.1857 O   0  0  0  0  0  0  0  0  0  0  0  0
   20.0651   -7.6698  -17.8738 O   0  0  0  0  0  0  0  0  0  0  0  0
  2  7  1  0
  2  1  1  1
  3  2  1  0
  4  5  1  0
  4  3  1  0
  5  9  1  0
  6  5  2  0
  7  8  2  0
 11 10  1  6
 12 11  1  0
 13 11  1  0
 14  7  1  0
 13 14  1  1
 15 13  1  0
 15 17  1  0
 16 15  2  0
 18 17  1  0
 18 19  1  6
 20 19  1  0
 20 21  2  0
 22 23  1  0
 22 18  1  0
 24 20  1  0
 25 22  2  0
M  END
$$$$
