PWY.pdb
     RDKit          3D

 34 37  0  0  1  0  0  0  0  0999 V2000
    7.5595  -15.3469   19.7953 N   0  0  0  0  0  0  0  0  0  0  0  0
    7.2337  -14.7505   18.4968 C   0  0  0  0  0  0  0  0  0  0  0  0
    7.4616  -13.2722   18.6304 C   0  0  0  0  0  0  0  0  0  0  0  0
    7.9853  -13.1108   20.0513 C   0  0  0  0  0  0  0  0  0  0  0  0
    8.6373  -14.4883   20.2410 C   0  0  1  0  0  0  0  0  0  0  0  0
    9.0172  -14.7150   21.6363 C   0  0  0  0  0  0  0  0  0  0  0  0
    9.9112  -14.0216   22.2314 O   0  0  0  0  0  0  0  0  0  0  0  0
    8.3642  -15.7457   22.3498 N   0  0  0  0  0  0  0  0  0  0  0  0
    8.5543  -15.9691   23.7967 C   0  0  1  0  0  0  0  0  0  0  0  0
    7.2366  -16.1946   24.4263 C   0  0  0  0  0  0  0  0  0  0  0  0
    6.6549  -15.1215   25.2298 C   0  0  0  0  0  0  0  0  0  0  0  0
    5.4002  -15.0650   25.8296 C   0  0  0  0  0  0  0  0  0  0  0  0
    5.2392  -13.9063   26.4773 N   0  0  0  0  0  0  0  0  0  0  0  0
    6.3656  -13.1717   26.3285 C   0  0  0  0  0  0  0  0  0  0  0  0
    6.7188  -11.9177   26.8063 C   0  0  0  0  0  0  0  0  0  0  0  0
    7.9574  -11.3860   26.5228 C   0  0  0  0  0  0  0  0  0  0  0  0
    8.8373  -12.1202   25.7575 C   0  0  0  0  0  0  0  0  0  0  0  0
    8.4732  -13.3805   25.2808 C   0  0  0  0  0  0  0  0  0  0  0  0
    7.2452  -13.8956   25.5684 C   0  0  0  0  0  0  0  0  0  0  0  0
    9.6220  -16.9100   23.9757 C   0  0  0  0  0  0  0  0  0  0  0  0
    9.7147  -17.9007   23.1725 O   0  0  0  0  0  0  0  0  0  0  0  0
   13.9675  -16.3175   19.7006 O   0  0  0  0  0  0  0  0  0  0  0  0
   13.7026  -16.5069   21.0330 C   0  0  0  0  0  0  0  0  0  0  0  0
   14.0461  -17.7017   21.6417 C   0  0  0  0  0  0  0  0  0  0  0  0
   13.8012  -17.9408   22.9773 C   0  0  0  0  0  0  0  0  0  0  0  0
   13.1867  -16.9225   23.7039 C   0  0  0  0  0  0  0  0  0  0  0  0
   12.9100  -17.1577   25.1220 C   0  0  0  0  0  0  0  0  0  0  0  0
   11.5533  -17.8560   25.2776 C   0  0  2  0  0  0  0  0  0  0  0  0
   10.5851  -16.7801   25.0049 N   0  0  0  0  0  0  0  0  0  0  0  0
   11.3572  -18.3741   26.6203 C   0  0  0  0  0  0  0  0  0  0  0  0
   12.1217  -19.4215   27.1131 O   0  0  0  0  0  0  0  0  0  0  0  0
   12.8393  -15.7300   23.1135 C   0  0  0  0  0  0  0  0  0  0  0  0
   13.0890  -15.5026   21.7783 C   0  0  0  0  0  0  0  0  0  0  0  0
   10.4898  -17.9039   27.4002 O   0  0  0  0  0  0  0  0  0  0  0  0
  1  2  1  0
  3  2  1  0
  4  5  1  0
  4  3  1  0
  5  1  1  0
  5  6  1  1
  6  7  2  0
  8  6  1  0
  8  9  1  0
  9 20  1  0
  9 10  1  6
 11 10  1  0
 11 12  2  0
 13 12  1  0
 14 13  1  0
 15 14  2  0
 16 15  1  0
 17 16  2  0
 17 18  1  0
 18 19  2  0
 19 14  1  0
 19 11  1  0
 20 21  2  0
 22 23  1  0
 23 33  2  0
 23 24  1  0
 24 25  2  0
 25 26  1  0
 26 27  1  0
 28 27  1  1
 28 30  1  0
 29 28  1  0
 29 20  1  0
 30 31  1  0
 32 26  2  0
 33 32  1  0
 34 30  2  0
M  END
$$$$
