PWY.pdb
     RDKit          3D

 34 37  0  0  1  0  0  0  0  0999 V2000
    9.9980  -16.4523   17.6549 N   0  0  0  0  0  0  0  0  0  0  0  0
   10.2820  -17.5167   16.6882 C   0  0  0  0  0  0  0  0  0  0  0  0
   11.1734  -18.5055   17.3832 C   0  0  0  0  0  0  0  0  0  0  0  0
   11.3056  -17.9484   18.7945 C   0  0  0  0  0  0  0  0  0  0  0  0
    9.9711  -17.1954   18.8976 C   0  0  1  0  0  0  0  0  0  0  0  0
    9.9288  -16.3375   20.0829 C   0  0  0  0  0  0  0  0  0  0  0  0
   10.6675  -15.3025   20.2147 O   0  0  0  0  0  0  0  0  0  0  0  0
    9.0313  -16.6735   21.1218 N   0  0  0  0  0  0  0  0  0  0  0  0
    8.8477  -15.8423   22.3280 C   0  0  1  0  0  0  0  0  0  0  0  0
    7.4018  -15.6881   22.5911 C   0  0  0  0  0  0  0  0  0  0  0  0
    6.9766  -15.2696   23.9252 C   0  0  0  0  0  0  0  0  0  0  0  0
    6.4075  -16.0361   24.9380 C   0  0  0  0  0  0  0  0  0  0  0  0
    6.1530  -15.2825   26.0129 N   0  0  0  0  0  0  0  0  0  0  0  0
    6.5404  -14.0134   25.7484 C   0  0  0  0  0  0  0  0  0  0  0  0
    6.5101  -12.8602   26.5195 C   0  0  0  0  0  0  0  0  0  0  0  0
    6.9891  -11.6709   26.0159 C   0  0  0  0  0  0  0  0  0  0  0  0
    7.4974  -11.6473   24.7353 C   0  0  0  0  0  0  0  0  0  0  0  0
    7.5234  -12.8121   23.9668 C   0  0  0  0  0  0  0  0  0  0  0  0
    7.0469  -13.9823   24.4764 C   0  0  0  0  0  0  0  0  0  0  0  0
    9.7310  -16.3228   23.3508 C   0  0  0  0  0  0  0  0  0  0  0  0
    9.8072  -17.5819   23.5609 O   0  0  0  0  0  0  0  0  0  0  0  0
   10.5337  -16.4957   31.5908 O   0  0  0  0  0  0  0  0  0  0  0  0
   10.6729  -16.0770   30.2920 C   0  0  0  0  0  0  0  0  0  0  0  0
   10.1668  -14.8481   29.9053 C   0  0  0  0  0  0  0  0  0  0  0  0
   10.2810  -14.3823   28.6127 C   0  0  0  0  0  0  0  0  0  0  0  0
   10.9337  -15.2041   27.6954 C   0  0  0  0  0  0  0  0  0  0  0  0
   11.0595  -14.7328   26.3152 C   0  0  0  0  0  0  0  0  0  0  0  0
   11.1818  -15.9315   25.3662 C   0  0  2  0  0  0  0  0  0  0  0  0
   10.5303  -15.4560   24.1338 N   0  0  0  0  0  0  0  0  0  0  0  0
   10.4902  -17.1031   25.8752 C   0  0  0  0  0  0  0  0  0  0  0  0
   11.1841  -18.2043   26.3551 O   0  0  0  0  0  0  0  0  0  0  0  0
   11.4418  -16.4275   28.0642 C   0  0  0  0  0  0  0  0  0  0  0  0
   11.3217  -16.8824   29.3586 C   0  0  0  0  0  0  0  0  0  0  0  0
    9.2353  -17.1797   25.9064 O   0  0  0  0  0  0  0  0  0  0  0  0
  1  2  1  0
  3  2  1  0
  4  5  1  0
  4  3  1  0
  5  1  1  0
  5  6  1  1
  6  7  2  0
  8  6  1  0
  8  9  1  0
  9 20  1  0
  9 10  1  1
 11 10  1  0
 11 12  2  0
 13 12  1  0
 14 13  1  0
 15 14  2  0
 16 15  1  0
 17 16  2  0
 17 18  1  0
 18 19  2  0
 19 14  1  0
 19 11  1  0
 20 21  2  0
 22 23  1  0
 23 33  2  0
 23 24  1  0
 24 25  2  0
 25 26  1  0
 26 27  1  0
 28 27  1  1
 28 30  1  0
 29 28  1  0
 29 20  1  0
 30 31  1  0
 32 26  2  0
 33 32  1  0
 34 30  2  0
M  END
$$$$
