PWY.pdb
     RDKit          3D

 34 37  0  0  1  0  0  0  0  0999 V2000
    7.5152  -15.4879   20.4875 N   0  0  0  0  0  0  0  0  0  0  0  0
    7.0742  -14.9459   19.1991 C   0  0  0  0  0  0  0  0  0  0  0  0
    7.4180  -13.4841   19.2045 C   0  0  0  0  0  0  0  0  0  0  0  0
    8.1221  -13.2798   20.5395 C   0  0  0  0  0  0  0  0  0  0  0  0
    8.6960  -14.6896   20.7436 C   0  0  1  0  0  0  0  0  0  0  0  0
    9.2278  -14.8623   22.0964 C   0  0  0  0  0  0  0  0  0  0  0  0
   10.1895  -14.1571   22.5569 O   0  0  0  0  0  0  0  0  0  0  0  0
    8.6491  -15.8521   22.9228 N   0  0  0  0  0  0  0  0  0  0  0  0
    8.9776  -15.9989   24.3547 C   0  0  1  0  0  0  0  0  0  0  0  0
    7.7279  -16.1991   25.1174 C   0  0  0  0  0  0  0  0  0  0  0  0
    6.9466  -15.0238   25.4969 C   0  0  0  0  0  0  0  0  0  0  0  0
    5.5997  -14.7616   25.2644 C   0  0  0  0  0  0  0  0  0  0  0  0
    5.2585  -13.5693   25.7647 N   0  0  0  0  0  0  0  0  0  0  0  0
    6.3528  -13.0146   26.3353 C   0  0  0  0  0  0  0  0  0  0  0  0
    6.5363  -11.8102   26.9993 C   0  0  0  0  0  0  0  0  0  0  0  0
    7.7701  -11.4774   27.5135 C   0  0  0  0  0  0  0  0  0  0  0  0
    8.8164  -12.3602   27.3564 C   0  0  0  0  0  0  0  0  0  0  0  0
    8.6226  -13.5693   26.6866 C   0  0  0  0  0  0  0  0  0  0  0  0
    7.3973  -13.8870   26.1828 C   0  0  0  0  0  0  0  0  0  0  0  0
   10.0676  -16.9228   24.4794 C   0  0  0  0  0  0  0  0  0  0  0  0
   10.0804  -17.9674   23.7420 O   0  0  0  0  0  0  0  0  0  0  0  0
   15.1812  -16.4763   20.2018 O   0  0  0  0  0  0  0  0  0  0  0  0
   14.7558  -16.5713   21.5023 C   0  0  0  0  0  0  0  0  0  0  0  0
   15.2233  -17.5950   22.3081 C   0  0  0  0  0  0  0  0  0  0  0  0
   14.8263  -17.7339   23.6211 C   0  0  0  0  0  0  0  0  0  0  0  0
   13.9245  -16.7934   24.1161 C   0  0  0  0  0  0  0  0  0  0  0  0
   13.4832  -16.9261   25.5056 C   0  0  0  0  0  0  0  0  0  0  0  0
   12.1841  -17.7394   25.5625 C   0  0  2  0  0  0  0  0  0  0  0  0
   11.1372  -16.7189   25.3837 N   0  0  0  0  0  0  0  0  0  0  0  0
   12.0147  -18.4083   26.8407 C   0  0  0  0  0  0  0  0  0  0  0  0
   12.7951  -19.4978   27.1990 O   0  0  0  0  0  0  0  0  0  0  0  0
   13.4509  -15.7708   23.3281 C   0  0  0  0  0  0  0  0  0  0  0  0
   13.8547  -15.6423   22.0177 C   0  0  0  0  0  0  0  0  0  0  0  0
   11.1573  -18.0375   27.6828 O   0  0  0  0  0  0  0  0  0  0  0  0
  1  2  1  0
  3  2  1  0
  4  5  1  0
  4  3  1  0
  5  1  1  0
  5  6  1  1
  6  7  2  0
  8  6  1  0
  8  9  1  0
  9 20  1  0
  9 10  1  1
 11 10  1  0
 11 12  2  0
 13 12  1  0
 14 13  1  0
 15 14  2  0
 16 15  1  0
 17 16  2  0
 17 18  1  0
 18 19  2  0
 19 14  1  0
 19 11  1  0
 20 21  2  0
 22 23  1  0
 23 33  2  0
 23 24  1  0
 24 25  2  0
 25 26  1  0
 26 27  1  0
 28 27  1  1
 28 30  1  0
 29 28  1  0
 29 20  1  0
 30 31  1  0
 32 26  2  0
 33 32  1  0
 34 30  2  0
M  END
$$$$
