PWY.pdb
     RDKit          3D

 34 37  0  0  1  0  0  0  0  0999 V2000
    8.6592  -18.0547   19.7331 N   0  0  0  0  0  0  0  0  0  0  0  0
    8.4371  -18.6480   18.4114 C   0  0  0  0  0  0  0  0  0  0  0  0
    8.1421  -17.5139   17.4723 C   0  0  0  0  0  0  0  0  0  0  0  0
    8.2765  -16.2731   18.3452 C   0  0  0  0  0  0  0  0  0  0  0  0
    9.2835  -16.7968   19.3797 C   0  0  1  0  0  0  0  0  0  0  0  0
    9.4160  -15.8791   20.5124 C   0  0  0  0  0  0  0  0  0  0  0  0
   10.0618  -14.7784   20.4393 O   0  0  0  0  0  0  0  0  0  0  0  0
    8.8014  -16.2312   21.7356 N   0  0  0  0  0  0  0  0  0  0  0  0
    8.6657  -15.2938   22.8680 C   0  0  1  0  0  0  0  0  0  0  0  0
    7.2934  -15.3866   23.4082 C   0  0  0  0  0  0  0  0  0  0  0  0
    6.9959  -14.7206   24.6745 C   0  0  0  0  0  0  0  0  0  0  0  0
    6.6060  -15.2861   25.8850 C   0  0  0  0  0  0  0  0  0  0  0  0
    6.4230  -14.3384   26.8105 N   0  0  0  0  0  0  0  0  0  0  0  0
    6.6826  -13.1350   26.2494 C   0  0  0  0  0  0  0  0  0  0  0  0
    6.6571  -11.8494   26.7709 C   0  0  0  0  0  0  0  0  0  0  0  0
    6.9857  -10.7693   25.9818 C   0  0  0  0  0  0  0  0  0  0  0  0
    7.3391  -10.9882   24.6680 C   0  0  0  0  0  0  0  0  0  0  0  0
    7.3615  -12.2848   24.1519 C   0  0  0  0  0  0  0  0  0  0  0  0
    7.0347  -13.3449   24.9427 C   0  0  0  0  0  0  0  0  0  0  0  0
    9.8031  -15.4505   23.7277 C   0  0  0  0  0  0  0  0  0  0  0  0
    9.9370  -14.6628   24.7261 O   0  0  0  0  0  0  0  0  0  0  0  0
    9.7106  -14.9681   30.0701 O   0  0  0  0  0  0  0  0  0  0  0  0
   10.1563  -15.6019   28.9382 C   0  0  0  0  0  0  0  0  0  0  0  0
    9.3796  -16.5821   28.3451 C   0  0  0  0  0  0  0  0  0  0  0  0
    9.7827  -17.2481   27.2072 C   0  0  0  0  0  0  0  0  0  0  0  0
   11.0179  -16.8947   26.6669 C   0  0  0  0  0  0  0  0  0  0  0  0
   11.4695  -17.5945   25.4631 C   0  0  0  0  0  0  0  0  0  0  0  0
   11.9421  -16.5770   24.4172 C   0  0  2  0  0  0  0  0  0  0  0  0
   10.7821  -16.4512   23.5185 N   0  0  0  0  0  0  0  0  0  0  0  0
   13.0972  -17.0527   23.6762 C   0  0  0  0  0  0  0  0  0  0  0  0
   12.9785  -17.5472   22.3855 O   0  0  0  0  0  0  0  0  0  0  0  0
   11.8011  -15.9230   27.2445 C   0  0  0  0  0  0  0  0  0  0  0  0
   11.3878  -15.2644   28.3812 C   0  0  0  0  0  0  0  0  0  0  0  0
   14.2568  -17.0418   24.1630 O   0  0  0  0  0  0  0  0  0  0  0  0
  1  2  1  0
  3  2  1  0
  4  5  1  0
  4  3  1  0
  5  1  1  0
  5  6  1  1
  6  7  2  0
  8  6  1  0
  8  9  1  0
  9 20  1  0
  9 10  1  1
 11 10  1  0
 11 12  2  0
 13 12  1  0
 14 13  1  0
 15 14  2  0
 16 15  1  0
 17 16  2  0
 17 18  1  0
 18 19  2  0
 19 14  1  0
 19 11  1  0
 20 21  2  0
 22 23  1  0
 23 33  2  0
 23 24  1  0
 24 25  2  0
 25 26  1  0
 26 27  1  0
 28 27  1  1
 28 30  1  0
 29 28  1  0
 29 20  1  0
 30 31  1  0
 32 26  2  0
 33 32  1  0
 34 30  2  0
M  END
$$$$
