PWY.pdb
     RDKit          3D

 34 37  0  0  1  0  0  0  0  0999 V2000
    8.2522  -15.7962   18.6959 N   0  0  0  0  0  0  0  0  0  0  0  0
    8.0208  -15.6124   17.2604 C   0  0  0  0  0  0  0  0  0  0  0  0
    8.1394  -14.1404   16.9882 C   0  0  0  0  0  0  0  0  0  0  0  0
    8.5066  -13.5474   18.3421 C   0  0  0  0  0  0  0  0  0  0  0  0
    9.2228  -14.7554   18.9638 C   0  0  1  0  0  0  0  0  0  0  0  0
    9.4745  -14.5538   20.3917 C   0  0  0  0  0  0  0  0  0  0  0  0
   10.3053  -13.6879   20.8323 O   0  0  0  0  0  0  0  0  0  0  0  0
    8.7659  -15.3538   21.3167 N   0  0  0  0  0  0  0  0  0  0  0  0
    8.5614  -14.9659   22.7264 C   0  0  1  0  0  0  0  0  0  0  0  0
    7.1130  -14.9620   23.0196 C   0  0  0  0  0  0  0  0  0  0  0  0
    6.6724  -14.5542   24.3519 C   0  0  0  0  0  0  0  0  0  0  0  0
    6.3304  -15.3539   25.4385 C   0  0  0  0  0  0  0  0  0  0  0  0
    5.9719  -14.6006   26.4836 N   0  0  0  0  0  0  0  0  0  0  0  0
    6.0646  -13.2990   26.1260 C   0  0  0  0  0  0  0  0  0  0  0  0
    5.8245  -12.1292   26.8326 C   0  0  0  0  0  0  0  0  0  0  0  0
    6.0123  -10.9021   26.2356 C   0  0  0  0  0  0  0  0  0  0  0  0
    6.4417  -10.8576   24.9270 C   0  0  0  0  0  0  0  0  0  0  0  0
    6.6803  -12.0395   24.2240 C   0  0  0  0  0  0  0  0  0  0  0  0
    6.4911  -13.2471   24.8257 C   0  0  0  0  0  0  0  0  0  0  0  0
    9.4716  -15.7167   23.5419 C   0  0  0  0  0  0  0  0  0  0  0  0
    9.7448  -16.9224   23.2148 O   0  0  0  0  0  0  0  0  0  0  0  0
   13.1706  -18.0468   31.0977 O   0  0  0  0  0  0  0  0  0  0  0  0
   12.6351  -17.3241   30.0621 C   0  0  0  0  0  0  0  0  0  0  0  0
   13.3637  -17.1405   28.8997 C   0  0  0  0  0  0  0  0  0  0  0  0
   12.8702  -16.4225   27.8310 C   0  0  0  0  0  0  0  0  0  0  0  0
   11.5932  -15.8802   27.9640 C   0  0  0  0  0  0  0  0  0  0  0  0
   11.0524  -15.1074   26.8446 C   0  0  0  0  0  0  0  0  0  0  0  0
   10.8171  -16.0300   25.6421 C   0  0  2  0  0  0  0  0  0  0  0  0
   10.0876  -15.1713   24.6937 N   0  0  0  0  0  0  0  0  0  0  0  0
   10.0093  -17.1856   25.9910 C   0  0  0  0  0  0  0  0  0  0  0  0
   10.5860  -18.4125   26.2851 O   0  0  0  0  0  0  0  0  0  0  0  0
   10.8570  -16.0538   29.1125 C   0  0  0  0  0  0  0  0  0  0  0  0
   11.3605  -16.7730   30.1736 C   0  0  0  0  0  0  0  0  0  0  0  0
    8.7538  -17.1345   26.0435 O   0  0  0  0  0  0  0  0  0  0  0  0
  1  2  1  0
  3  2  1  0
  4  5  1  0
  4  3  1  0
  5  1  1  0
  5  6  1  1
  6  7  2  0
  8  6  1  0
  8  9  1  0
  9 20  1  0
  9 10  1  1
 11 10  1  0
 11 12  2  0
 13 12  1  0
 14 13  1  0
 15 14  2  0
 16 15  1  0
 17 16  2  0
 17 18  1  0
 18 19  2  0
 19 14  1  0
 19 11  1  0
 20 21  2  0
 22 23  1  0
 23 33  2  0
 23 24  1  0
 24 25  2  0
 25 26  1  0
 26 27  1  0
 28 27  1  1
 28 30  1  0
 29 28  1  0
 29 20  1  0
 30 31  1  0
 32 26  2  0
 33 32  1  0
 34 30  2  0
M  END
$$$$
