PWY.pdb
     RDKit          3D

 34 37  0  0  1  0  0  0  0  0999 V2000
    7.6608  -17.4392   22.0378 N   0  0  0  0  0  0  0  0  0  0  0  0
    6.6833  -17.8910   21.0437 C   0  0  0  0  0  0  0  0  0  0  0  0
    5.9854  -16.6627   20.5341 C   0  0  0  0  0  0  0  0  0  0  0  0
    6.6806  -15.5197   21.2621 C   0  0  0  0  0  0  0  0  0  0  0  0
    8.0582  -16.1604   21.4864 C   0  0  1  0  0  0  0  0  0  0  0  0
    8.8773  -15.3655   22.4028 C   0  0  0  0  0  0  0  0  0  0  0  0
    9.2534  -14.1729   22.1373 O   0  0  0  0  0  0  0  0  0  0  0  0
    9.2653  -15.9471   23.6311 N   0  0  0  0  0  0  0  0  0  0  0  0
   10.1499  -15.2694   24.5995 C   0  0  1  0  0  0  0  0  0  0  0  0
    9.4087  -15.0532   25.8595 C   0  0  0  0  0  0  0  0  0  0  0  0
    8.0770  -14.4553   25.7913 C   0  0  0  0  0  0  0  0  0  0  0  0
    6.8469  -15.0857   25.6285 C   0  0  0  0  0  0  0  0  0  0  0  0
    5.8560  -14.1880   25.6101 N   0  0  0  0  0  0  0  0  0  0  0  0
    6.3921  -12.9545   25.7582 C   0  0  0  0  0  0  0  0  0  0  0  0
    5.8089  -11.6969   25.8202 C   0  0  0  0  0  0  0  0  0  0  0  0
    6.5876  -10.5743   25.9957 C   0  0  0  0  0  0  0  0  0  0  0  0
    7.9530  -10.7226   26.1080 C   0  0  0  0  0  0  0  0  0  0  0  0
    8.5308  -11.9915   26.0441 C   0  0  0  0  0  0  0  0  0  0  0  0
    7.7497  -13.0942   25.8705 C   0  0  0  0  0  0  0  0  0  0  0  0
   11.4191  -15.9376   24.6020 C   0  0  0  0  0  0  0  0  0  0  0  0
   12.4795  -15.2504   24.7984 O   0  0  0  0  0  0  0  0  0  0  0  0
   10.4922  -16.5040   30.4280 O   0  0  0  0  0  0  0  0  0  0  0  0
   10.9096  -17.1453   29.2896 C   0  0  0  0  0  0  0  0  0  0  0  0
   12.2557  -17.1753   28.9687 C   0  0  0  0  0  0  0  0  0  0  0  0
   12.7255  -17.8064   27.8365 C   0  0  0  0  0  0  0  0  0  0  0  0
   11.7836  -18.4223   27.0141 C   0  0  0  0  0  0  0  0  0  0  0  0
   12.2593  -19.0918   25.8023 C   0  0  0  0  0  0  0  0  0  0  0  0
   12.7685  -18.0494   24.7989 C   0  0  2  0  0  0  0  0  0  0  0  0
   11.5438  -17.3334   24.4031 N   0  0  0  0  0  0  0  0  0  0  0  0
   13.3829  -18.6661   23.6362 C   0  0  0  0  0  0  0  0  0  0  0  0
   14.5368  -19.4287   23.7435 O   0  0  0  0  0  0  0  0  0  0  0  0
   10.4429  -18.4011   27.3192 C   0  0  0  0  0  0  0  0  0  0  0  0
    9.9854  -17.7674   28.4532 C   0  0  0  0  0  0  0  0  0  0  0  0
   12.9046  -18.5410   22.4798 O   0  0  0  0  0  0  0  0  0  0  0  0
  1  2  1  0
  3  2  1  0
  4  5  1  0
  4  3  1  0
  5  1  1  0
  5  6  1  1
  6  7  2  0
  8  6  1  0
  8  9  1  0
  9 20  1  0
  9 10  1  1
 11 10  1  0
 11 12  2  0
 13 12  1  0
 14 13  1  0
 15 14  2  0
 16 15  1  0
 17 16  2  0
 17 18  1  0
 18 19  2  0
 19 14  1  0
 19 11  1  0
 20 21  2  0
 22 23  1  0
 23 33  2  0
 23 24  1  0
 24 25  2  0
 25 26  1  0
 26 27  1  0
 28 27  1  1
 28 30  1  0
 29 28  1  0
 29 20  1  0
 30 31  1  0
 32 26  2  0
 33 32  1  0
 34 30  2  0
M  END
$$$$
