PWY.pdb
     RDKit          3D

 34 37  0  0  1  0  0  0  0  0999 V2000
    7.9902  -15.3299   18.3673 N   0  0  0  0  0  0  0  0  0  0  0  0
    7.7522  -14.9270   16.9784 C   0  0  0  0  0  0  0  0  0  0  0  0
    7.8866  -13.4320   16.9326 C   0  0  0  0  0  0  0  0  0  0  0  0
    8.2692  -13.0564   18.3581 C   0  0  0  0  0  0  0  0  0  0  0  0
    8.9748  -14.3526   18.7829 C   0  0  1  0  0  0  0  0  0  0  0  0
    9.2378  -14.3738   20.2228 C   0  0  0  0  0  0  0  0  0  0  0  0
   10.1376  -13.6511   20.7725 O   0  0  0  0  0  0  0  0  0  0  0  0
    8.4605  -15.2319   21.0335 N   0  0  0  0  0  0  0  0  0  0  0  0
    8.4232  -15.1335   22.5061 C   0  0  1  0  0  0  0  0  0  0  0  0
    7.0145  -15.1157   22.9520 C   0  0  0  0  0  0  0  0  0  0  0  0
    6.7361  -14.9461   24.3766 C   0  0  0  0  0  0  0  0  0  0  0  0
    6.3167  -15.8982   25.3011 C   0  0  0  0  0  0  0  0  0  0  0  0
    6.1660  -15.3468   26.5099 N   0  0  0  0  0  0  0  0  0  0  0  0
    6.4766  -14.0328   26.4237 C   0  0  0  0  0  0  0  0  0  0  0  0
    6.4991  -13.0259   27.3782 C   0  0  0  0  0  0  0  0  0  0  0  0
    6.8752  -11.7462   27.0342 C   0  0  0  0  0  0  0  0  0  0  0  0
    7.2275  -11.4847   25.7280 C   0  0  0  0  0  0  0  0  0  0  0  0
    7.2015  -12.5038   24.7745 C   0  0  0  0  0  0  0  0  0  0  0  0
    6.8280  -13.7655   25.1274 C   0  0  0  0  0  0  0  0  0  0  0  0
    9.3513  -16.0825   23.0495 C   0  0  0  0  0  0  0  0  0  0  0  0
    9.4397  -17.2391   22.5112 O   0  0  0  0  0  0  0  0  0  0  0  0
    9.8886  -14.8819   30.3939 O   0  0  0  0  0  0  0  0  0  0  0  0
   10.4609  -15.1212   29.1705 C   0  0  0  0  0  0  0  0  0  0  0  0
   10.4283  -14.1442   28.1906 C   0  0  0  0  0  0  0  0  0  0  0  0
   10.9889  -14.3357   26.9456 C   0  0  0  0  0  0  0  0  0  0  0  0
   11.5987  -15.5657   26.7047 C   0  0  0  0  0  0  0  0  0  0  0  0
   12.1937  -15.7938   25.3868 C   0  0  0  0  0  0  0  0  0  0  0  0
   11.2739  -16.6918   24.5501 C   0  0  2  0  0  0  0  0  0  0  0  0
   10.1818  -15.7855   24.1565 N   0  0  0  0  0  0  0  0  0  0  0  0
   10.7456  -17.8025   25.3228 C   0  0  0  0  0  0  0  0  0  0  0  0
   11.5245  -18.9086   25.6301 O   0  0  0  0  0  0  0  0  0  0  0  0
   11.6392  -16.5463   27.6679 C   0  0  0  0  0  0  0  0  0  0  0  0
   11.0757  -16.3434   28.9081 C   0  0  0  0  0  0  0  0  0  0  0  0
    9.5628  -17.8193   25.7499 O   0  0  0  0  0  0  0  0  0  0  0  0
  1  2  1  0
  3  2  1  0
  4  5  1  0
  4  3  1  0
  5  1  1  0
  5  6  1  1
  6  7  2  0
  8  6  1  0
  8  9  1  0
  9 20  1  0
  9 10  1  1
 11 10  1  0
 11 12  2  0
 13 12  1  0
 14 13  1  0
 15 14  2  0
 16 15  1  0
 17 16  2  0
 17 18  1  0
 18 19  2  0
 19 14  1  0
 19 11  1  0
 20 21  2  0
 22 23  1  0
 23 33  2  0
 23 24  1  0
 24 25  2  0
 25 26  1  0
 26 27  1  0
 28 27  1  1
 28 30  1  0
 29 28  1  0
 29 20  1  0
 30 31  1  0
 32 26  2  0
 33 32  1  0
 34 30  2  0
M  END
$$$$
