PWY.pdb
     RDKit          3D

 34 37  0  0  1  0  0  0  0  0999 V2000
    7.4497  -15.3797   20.4220 N   0  0  0  0  0  0  0  0  0  0  0  0
    6.7754  -14.8776   19.2215 C   0  0  0  0  0  0  0  0  0  0  0  0
    7.0592  -13.4047   19.1501 C   0  0  0  0  0  0  0  0  0  0  0  0
    7.9722  -13.1509   20.3424 C   0  0  0  0  0  0  0  0  0  0  0  0
    8.6257  -14.5355   20.4626 C   0  0  1  0  0  0  0  0  0  0  0  0
    9.3865  -14.6640   21.7066 C   0  0  0  0  0  0  0  0  0  0  0  0
   10.4439  -13.9860   21.9440 O   0  0  0  0  0  0  0  0  0  0  0  0
    8.9271  -15.5780   22.6819 N   0  0  0  0  0  0  0  0  0  0  0  0
    9.6120  -15.7910   23.9722 C   0  0  1  0  0  0  0  0  0  0  0  0
    8.6090  -16.1506   24.9962 C   0  0  0  0  0  0  0  0  0  0  0  0
    7.5645  -15.1812   25.3200 C   0  0  0  0  0  0  0  0  0  0  0  0
    6.1869  -15.3003   25.1619 C   0  0  0  0  0  0  0  0  0  0  0  0
    5.5676  -14.1885   25.5724 N   0  0  0  0  0  0  0  0  0  0  0  0
    6.5024  -13.3129   26.0083 C   0  0  0  0  0  0  0  0  0  0  0  0
    6.3930  -12.0369   26.5423 C   0  0  0  0  0  0  0  0  0  0  0  0
    7.5181  -11.3447   26.9328 C   0  0  0  0  0  0  0  0  0  0  0  0
    8.7513  -11.9411   26.7835 C   0  0  0  0  0  0  0  0  0  0  0  0
    8.8518  -13.2248   26.2449 C   0  0  0  0  0  0  0  0  0  0  0  0
    7.7314  -13.8992   25.8628 C   0  0  0  0  0  0  0  0  0  0  0  0
   10.7591  -16.6221   23.7472 C   0  0  0  0  0  0  0  0  0  0  0  0
   10.6420  -17.6463   22.9906 O   0  0  0  0  0  0  0  0  0  0  0  0
   13.6562  -14.4514   18.5255 O   0  0  0  0  0  0  0  0  0  0  0  0
   13.8117  -14.8876   19.8166 C   0  0  0  0  0  0  0  0  0  0  0  0
   14.3652  -16.1323   20.0624 C   0  0  0  0  0  0  0  0  0  0  0  0
   14.5425  -16.6161   21.3412 C   0  0  0  0  0  0  0  0  0  0  0  0
   14.1390  -15.7960   22.3935 C   0  0  0  0  0  0  0  0  0  0  0  0
   14.3107  -16.2928   23.7597 C   0  0  0  0  0  0  0  0  0  0  0  0
   13.1657  -17.2506   24.1118 C   0  0  2  0  0  0  0  0  0  0  0  0
   12.0218  -16.3476   24.3249 N   0  0  0  0  0  0  0  0  0  0  0  0
   13.4378  -18.0044   25.3232 C   0  0  0  0  0  0  0  0  0  0  0  0
   14.4472  -18.9546   25.3757 O   0  0  0  0  0  0  0  0  0  0  0  0
   13.5874  -14.5571   22.1656 C   0  0  0  0  0  0  0  0  0  0  0  0
   13.4152  -14.0844   20.8835 C   0  0  0  0  0  0  0  0  0  0  0  0
   12.7769  -17.8363   26.3799 O   0  0  0  0  0  0  0  0  0  0  0  0
  1  2  1  0
  3  2  1  0
  4  5  1  0
  4  3  1  0
  5  1  1  0
  5  6  1  1
  6  7  2  0
  8  6  1  0
  8  9  1  0
  9 20  1  0
  9 10  1  1
 11 10  1  0
 11 12  2  0
 13 12  1  0
 14 13  1  0
 15 14  2  0
 16 15  1  0
 17 16  2  0
 17 18  1  0
 18 19  2  0
 19 14  1  0
 19 11  1  0
 20 21  2  0
 22 23  1  0
 23 33  2  0
 23 24  1  0
 24 25  2  0
 25 26  1  0
 26 27  1  0
 28 27  1  1
 28 30  1  0
 29 28  1  0
 29 20  1  0
 30 31  1  0
 32 26  2  0
 33 32  1  0
 34 30  2  0
M  END
$$$$
