PWY.pdb
     RDKit          3D

 34 37  0  0  1  0  0  0  0  0999 V2000
    8.0195  -17.2128   19.8592 N   0  0  0  0  0  0  0  0  0  0  0  0
    7.4591  -17.2475   18.5054 C   0  0  0  0  0  0  0  0  0  0  0  0
    7.3804  -15.8241   18.0333 C   0  0  0  0  0  0  0  0  0  0  0  0
    7.9842  -15.0253   19.1808 C   0  0  0  0  0  0  0  0  0  0  0  0
    8.9270  -16.0884   19.7634 C   0  0  1  0  0  0  0  0  0  0  0  0
    9.4706  -15.6728   21.0575 C   0  0  0  0  0  0  0  0  0  0  0  0
   10.1704  -14.6134   21.2059 O   0  0  0  0  0  0  0  0  0  0  0  0
    9.2070  -16.4817   22.1862 N   0  0  0  0  0  0  0  0  0  0  0  0
    9.6423  -16.1261   23.5513 C   0  0  1  0  0  0  0  0  0  0  0  0
    9.1993  -14.7494   23.8548 C   0  0  0  0  0  0  0  0  0  0  0  0
    8.0323  -14.5661   24.7152 C   0  0  0  0  0  0  0  0  0  0  0  0
    7.0935  -15.5098   25.1215 C   0  0  0  0  0  0  0  0  0  0  0  0
    6.1683  -14.9466   25.9057 N   0  0  0  0  0  0  0  0  0  0  0  0
    6.4623  -13.6328   26.0405 C   0  0  0  0  0  0  0  0  0  0  0  0
    5.8391  -12.6163   26.7502 C   0  0  0  0  0  0  0  0  0  0  0  0
    6.3554  -11.3393   26.7395 C   0  0  0  0  0  0  0  0  0  0  0  0
    7.4993  -11.0903   26.0125 C   0  0  0  0  0  0  0  0  0  0  0  0
    8.1191  -12.1189   25.3013 C   0  0  0  0  0  0  0  0  0  0  0  0
    7.5988  -13.3779   25.3201 C   0  0  0  0  0  0  0  0  0  0  0  0
    9.3153  -17.2112   24.4306 C   0  0  0  0  0  0  0  0  0  0  0  0
    8.0863  -17.5212   24.6000 O   0  0  0  0  0  0  0  0  0  0  0  0
   15.4510  -15.9444   29.4067 O   0  0  0  0  0  0  0  0  0  0  0  0
   14.2132  -16.1326   28.8464 C   0  0  0  0  0  0  0  0  0  0  0  0
   13.8650  -15.4459   27.6961 C   0  0  0  0  0  0  0  0  0  0  0  0
   12.6340  -15.6002   27.0946 C   0  0  0  0  0  0  0  0  0  0  0  0
   11.7392  -16.4849   27.6941 C   0  0  0  0  0  0  0  0  0  0  0  0
   10.4232  -16.6584   27.0768 C   0  0  0  0  0  0  0  0  0  0  0  0
   10.2689  -18.1011   26.5796 C   0  0  2  0  0  0  0  0  0  0  0  0
   10.3031  -17.9600   25.1140 N   0  0  0  0  0  0  0  0  0  0  0  0
    9.0071  -18.6890   26.9943 C   0  0  0  0  0  0  0  0  0  0  0  0
    7.9058  -18.7138   26.1509 O   0  0  0  0  0  0  0  0  0  0  0  0
   12.0703  -17.1743   28.8369 C   0  0  0  0  0  0  0  0  0  0  0  0
   13.3032  -17.0120   29.4289 C   0  0  0  0  0  0  0  0  0  0  0  0
    8.8482  -19.2019   28.1315 O   0  0  0  0  0  0  0  0  0  0  0  0
  1  2  1  0
  3  2  1  0
  4  5  1  0
  4  3  1  0
  5  1  1  0
  5  6  1  1
  6  7  2  0
  8  6  1  0
  8  9  1  0
  9 20  1  0
  9 10  1  1
 11 10  1  0
 11 12  2  0
 13 12  1  0
 14 13  1  0
 15 14  2  0
 16 15  1  0
 17 16  2  0
 17 18  1  0
 18 19  2  0
 19 14  1  0
 19 11  1  0
 20 21  2  0
 22 23  1  0
 23 33  2  0
 23 24  1  0
 24 25  2  0
 25 26  1  0
 26 27  1  0
 28 27  1  1
 28 30  1  0
 29 28  1  0
 29 20  1  0
 30 31  1  0
 32 26  2  0
 33 32  1  0
 34 30  2  0
M  END
$$$$
