PWY.pdb
     RDKit          3D

 34 37  0  0  1  0  0  0  0  0999 V2000
    7.3635  -15.6927   20.7282 N   0  0  0  0  0  0  0  0  0  0  0  0
    6.6276  -15.3383   19.5113 C   0  0  0  0  0  0  0  0  0  0  0  0
    6.8157  -13.8626   19.3063 C   0  0  0  0  0  0  0  0  0  0  0  0
    7.7417  -13.4515   20.4435 C   0  0  0  0  0  0  0  0  0  0  0  0
    8.4844  -14.7782   20.6600 C   0  0  1  0  0  0  0  0  0  0  0  0
    9.2841  -14.7521   21.8857 C   0  0  0  0  0  0  0  0  0  0  0  0
   10.2518  -13.9358   22.0632 O   0  0  0  0  0  0  0  0  0  0  0  0
    8.9677  -15.6708   22.9122 N   0  0  0  0  0  0  0  0  0  0  0  0
    9.6756  -15.7069   24.2072 C   0  0  1  0  0  0  0  0  0  0  0  0
    8.6923  -15.9304   25.2875 C   0  0  0  0  0  0  0  0  0  0  0  0
    7.4931  -15.0960   25.3224 C   0  0  0  0  0  0  0  0  0  0  0  0
    6.1736  -15.4569   25.0658 C   0  0  0  0  0  0  0  0  0  0  0  0
    5.3626  -14.4018   25.1966 N   0  0  0  0  0  0  0  0  0  0  0  0
    6.1092  -13.3267   25.5388 C   0  0  0  0  0  0  0  0  0  0  0  0
    5.7622  -12.0098   25.8050 C   0  0  0  0  0  0  0  0  0  0  0  0
    6.7267  -11.0909   26.1554 C   0  0  0  0  0  0  0  0  0  0  0  0
    8.0394  -11.5023   26.2362 C   0  0  0  0  0  0  0  0  0  0  0  0
    8.3792  -12.8288   25.9663 C   0  0  0  0  0  0  0  0  0  0  0  0
    7.4159  -13.7282   25.6210 C   0  0  0  0  0  0  0  0  0  0  0  0
   10.8238  -16.5563   24.0749 C   0  0  0  0  0  0  0  0  0  0  0  0
   10.6622  -17.8244   24.1082 O   0  0  0  0  0  0  0  0  0  0  0  0
   10.2380  -17.8084   30.3140 O   0  0  0  0  0  0  0  0  0  0  0  0
   10.7954  -17.1286   29.2611 C   0  0  0  0  0  0  0  0  0  0  0  0
    9.9902  -16.3831   28.4174 C   0  0  0  0  0  0  0  0  0  0  0  0
   10.5018  -15.6824   27.3459 C   0  0  0  0  0  0  0  0  0  0  0  0
   11.8784  -15.7518   27.1389 C   0  0  0  0  0  0  0  0  0  0  0  0
   12.4423  -15.0217   26.0023 C   0  0  0  0  0  0  0  0  0  0  0  0
   13.0875  -16.0075   25.0203 C   0  0  2  0  0  0  0  0  0  0  0  0
   12.1319  -16.0446   23.9003 N   0  0  0  0  0  0  0  0  0  0  0  0
   13.2333  -17.3335   25.5951 C   0  0  0  0  0  0  0  0  0  0  0  0
   14.3872  -17.7110   26.2662 O   0  0  0  0  0  0  0  0  0  0  0  0
   12.6915  -16.4881   27.9682 C   0  0  0  0  0  0  0  0  0  0  0  0
   12.1690  -17.1841   29.0356 C   0  0  0  0  0  0  0  0  0  0  0  0
   12.3276  -18.2023   25.5142 O   0  0  0  0  0  0  0  0  0  0  0  0
  1  2  1  0
  3  2  1  0
  4  5  1  0
  4  3  1  0
  5  1  1  0
  5  6  1  1
  6  7  2  0
  8  6  1  0
  8  9  1  0
  9 20  1  0
  9 10  1  1
 11 10  1  0
 11 12  2  0
 13 12  1  0
 14 13  1  0
 15 14  2  0
 16 15  1  0
 17 16  2  0
 17 18  1  0
 18 19  2  0
 19 14  1  0
 19 11  1  0
 20 21  2  0
 22 23  1  0
 23 33  2  0
 23 24  1  0
 24 25  2  0
 25 26  1  0
 26 27  1  0
 28 27  1  1
 28 30  1  0
 29 28  1  0
 29 20  1  0
 30 31  1  0
 32 26  2  0
 33 32  1  0
 34 30  2  0
M  END
$$$$
