PWY.pdb
     RDKit          3D

 34 37  0  0  1  0  0  0  0  0999 V2000
    8.0705  -18.8380   20.5248 N   0  0  0  0  0  0  0  0  0  0  0  0
    7.6185  -19.8471   19.5628 C   0  0  0  0  0  0  0  0  0  0  0  0
    7.6275  -19.1914   18.2118 C   0  0  0  0  0  0  0  0  0  0  0  0
    8.1660  -17.7939   18.4882 C   0  0  0  0  0  0  0  0  0  0  0  0
    9.0217  -18.0908   19.7284 C   0  0  1  0  0  0  0  0  0  0  0  0
    9.4752  -16.8586   20.3755 C   0  0  0  0  0  0  0  0  0  0  0  0
   10.5179  -16.2224   19.9985 O   0  0  0  0  0  0  0  0  0  0  0  0
    8.7238  -16.3566   21.4624 N   0  0  0  0  0  0  0  0  0  0  0  0
    8.9549  -15.0240   22.0542 C   0  0  1  0  0  0  0  0  0  0  0  0
    7.6505  -14.3945   22.3474 C   0  0  0  0  0  0  0  0  0  0  0  0
    7.1780  -14.3809   23.7302 C   0  0  0  0  0  0  0  0  0  0  0  0
    6.8780  -15.4585   24.5583 C   0  0  0  0  0  0  0  0  0  0  0  0
    6.4685  -15.0315   25.7575 N   0  0  0  0  0  0  0  0  0  0  0  0
    6.4849  -13.6787   25.7597 C   0  0  0  0  0  0  0  0  0  0  0  0
    6.1705  -12.7541   26.7454 C   0  0  0  0  0  0  0  0  0  0  0  0
    6.2878  -11.4039   26.4991 C   0  0  0  0  0  0  0  0  0  0  0  0
    6.7217  -10.9892   25.2587 C   0  0  0  0  0  0  0  0  0  0  0  0
    7.0353  -11.9264   24.2732 C   0  0  0  0  0  0  0  0  0  0  0  0
    6.9154  -13.2591   24.5292 C   0  0  0  0  0  0  0  0  0  0  0  0
    9.9549  -15.1464   23.0751 C   0  0  0  0  0  0  0  0  0  0  0  0
   10.7443  -14.1633   23.2887 O   0  0  0  0  0  0  0  0  0  0  0  0
   11.7049  -16.0404   31.3681 O   0  0  0  0  0  0  0  0  0  0  0  0
   11.1995  -16.0973   30.0942 C   0  0  0  0  0  0  0  0  0  0  0  0
   11.0935  -14.9403   29.3417 C   0  0  0  0  0  0  0  0  0  0  0  0
   10.5925  -14.9447   28.0573 C   0  0  0  0  0  0  0  0  0  0  0  0
   10.1904  -16.1729   27.5352 C   0  0  0  0  0  0  0  0  0  0  0  0
    9.6479  -16.1999   26.1758 C   0  0  0  0  0  0  0  0  0  0  0  0
   10.7950  -16.2717   25.1602 C   0  0  2  0  0  0  0  0  0  0  0  0
   10.0975  -16.3131   23.8636 N   0  0  0  0  0  0  0  0  0  0  0  0
   11.6009  -17.4680   25.3309 C   0  0  0  0  0  0  0  0  0  0  0  0
   11.2928  -18.6506   24.6745 O   0  0  0  0  0  0  0  0  0  0  0  0
   10.2893  -17.3309   28.2702 C   0  0  0  0  0  0  0  0  0  0  0  0
   10.7916  -17.3142   29.5525 C   0  0  0  0  0  0  0  0  0  0  0  0
   12.6123  -17.4938   26.0780 O   0  0  0  0  0  0  0  0  0  0  0  0
  1  2  1  0
  3  2  1  0
  4  5  1  0
  4  3  1  0
  5  1  1  0
  5  6  1  1
  6  7  2  0
  8  6  1  0
  8  9  1  0
  9 20  1  0
  9 10  1  1
 11 10  1  0
 11 12  2  0
 13 12  1  0
 14 13  1  0
 15 14  2  0
 16 15  1  0
 17 16  2  0
 17 18  1  0
 18 19  2  0
 19 14  1  0
 19 11  1  0
 20 21  2  0
 22 23  1  0
 23 33  2  0
 23 24  1  0
 24 25  2  0
 25 26  1  0
 26 27  1  0
 28 27  1  1
 28 30  1  0
 29 28  1  0
 29 20  1  0
 30 31  1  0
 32 26  2  0
 33 32  1  0
 34 30  2  0
M  END
$$$$
