PWY.pdb
     RDKit          3D

 34 37  0  0  1  0  0  0  0  0999 V2000
    8.3124  -15.7018   18.3384 N   0  0  0  0  0  0  0  0  0  0  0  0
    8.0996  -15.4864   16.9044 C   0  0  0  0  0  0  0  0  0  0  0  0
    8.1114  -14.0010   16.6837 C   0  0  0  0  0  0  0  0  0  0  0  0
    8.4021  -13.4294   18.0651 C   0  0  0  0  0  0  0  0  0  0  0  0
    9.1945  -14.6005   18.6643 C   0  0  1  0  0  0  0  0  0  0  0  0
    9.3983  -14.4302   20.1039 C   0  0  0  0  0  0  0  0  0  0  0  0
   10.2075  -13.5687   20.5909 O   0  0  0  0  0  0  0  0  0  0  0  0
    8.6666  -15.2565   20.9868 N   0  0  0  0  0  0  0  0  0  0  0  0
    8.5342  -14.9749   22.4300 C   0  0  1  0  0  0  0  0  0  0  0  0
    7.1022  -14.9905   22.7943 C   0  0  0  0  0  0  0  0  0  0  0  0
    6.7403  -14.8735   24.2054 C   0  0  0  0  0  0  0  0  0  0  0  0
    6.2244  -15.8473   25.0555 C   0  0  0  0  0  0  0  0  0  0  0  0
    6.0191  -15.3450   26.2776 N   0  0  0  0  0  0  0  0  0  0  0  0
    6.3875  -14.0432   26.2738 C   0  0  0  0  0  0  0  0  0  0  0  0
    6.3896  -13.0823   27.2749 C   0  0  0  0  0  0  0  0  0  0  0  0
    6.8383  -11.8059   27.0164 C   0  0  0  0  0  0  0  0  0  0  0  0
    7.2838  -11.5013   25.7485 C   0  0  0  0  0  0  0  0  0  0  0  0
    7.2777  -12.4741   24.7477 C   0  0  0  0  0  0  0  0  0  0  0  0
    6.8316  -13.7331   25.0160 C   0  0  0  0  0  0  0  0  0  0  0  0
    9.4795  -15.7864   23.1408 C   0  0  0  0  0  0  0  0  0  0  0  0
    9.6130  -17.0143   22.8097 O   0  0  0  0  0  0  0  0  0  0  0  0
   10.4741  -17.0696   31.1419 O   0  0  0  0  0  0  0  0  0  0  0  0
   10.7824  -16.6012   29.8901 C   0  0  0  0  0  0  0  0  0  0  0  0
   11.3188  -17.4589   28.9453 C   0  0  0  0  0  0  0  0  0  0  0  0
   11.6455  -17.0371   27.6739 C   0  0  0  0  0  0  0  0  0  0  0  0
   11.4131  -15.6971   27.3687 C   0  0  0  0  0  0  0  0  0  0  0  0
   11.7598  -15.2255   26.0269 C   0  0  0  0  0  0  0  0  0  0  0  0
   11.1570  -16.1645   24.9745 C   0  0  2  0  0  0  0  0  0  0  0  0
   10.2790  -15.2778   24.1923 N   0  0  0  0  0  0  0  0  0  0  0  0
   10.3778  -17.2316   25.5778 C   0  0  0  0  0  0  0  0  0  0  0  0
   10.9381  -18.4684   25.8618 O   0  0  0  0  0  0  0  0  0  0  0  0
   10.8809  -14.8327   28.2964 C   0  0  0  0  0  0  0  0  0  0  0  0
   10.5585  -15.2656   29.5634 C   0  0  0  0  0  0  0  0  0  0  0  0
    9.1630  -17.0908   25.8714 O   0  0  0  0  0  0  0  0  0  0  0  0
  1  2  1  0
  3  2  1  0
  4  5  1  0
  4  3  1  0
  5  1  1  0
  5  6  1  1
  6  7  2  0
  8  6  1  0
  8  9  1  0
  9 20  1  0
  9 10  1  1
 11 10  1  0
 11 12  2  0
 13 12  1  0
 14 13  1  0
 15 14  2  0
 16 15  1  0
 17 16  2  0
 17 18  1  0
 18 19  2  0
 19 14  1  0
 19 11  1  0
 20 21  2  0
 22 23  1  0
 23 33  2  0
 23 24  1  0
 24 25  2  0
 25 26  1  0
 26 27  1  0
 28 27  1  1
 28 30  1  0
 29 28  1  0
 29 20  1  0
 30 31  1  0
 32 26  2  0
 33 32  1  0
 34 30  2  0
M  END
$$$$
