DEV.pdb
     RDKit          3D

 25 24  0  0  1  0  0  0  0  0999 V2000
    9.1512  -18.1376   19.4562 N   0  0  0  0  0  0  0  0  0  0  0  0
    8.4257  -16.9135   19.5444 C   0  0  1  0  0  0  0  0  0  0  0  0
    7.5215  -16.7635   18.3668 C   0  0  0  0  0  0  0  0  0  0  0  0
    8.3127  -16.6691   17.1158 C   0  0  0  0  0  0  0  0  0  0  0  0
    9.5822  -16.7817   17.1734 O   0  0  0  0  0  0  0  0  0  0  0  0
    7.7232  -16.7319   20.8392 C   0  0  0  0  0  0  0  0  0  0  0  0
    6.4888  -16.9347   20.8607 O   0  0  0  0  0  0  0  0  0  0  0  0
    7.7878  -16.4660   15.8586 O   0  0  0  0  0  0  0  0  0  0  0  0
    8.3855  -16.3487   22.0157 N   0  0  0  0  0  0  0  0  0  0  0  0
    7.7758  -16.4695   23.3570 C   0  0  1  0  0  0  0  0  0  0  0  0
    8.2795  -17.7930   23.8827 C   0  0  0  0  0  0  0  0  0  0  0  0
    9.7560  -17.8376   24.1574 C   0  0  0  0  0  0  0  0  0  0  0  0
   10.0347  -19.2227   24.6630 C   0  0  0  0  0  0  0  0  0  0  0  0
    9.8728  -19.5205   25.8858 O   0  0  0  0  0  0  0  0  0  0  0  0
    8.2580  -15.2982   24.1406 C   0  0  0  0  0  0  0  0  0  0  0  0
    9.4950  -14.9958   24.1358 O   0  0  0  0  0  0  0  0  0  0  0  0
   10.4729  -20.1719   23.7640 O   0  0  0  0  0  0  0  0  0  0  0  0
    5.9983  -11.9541   25.2204 C   0  0  0  0  0  0  0  0  0  0  0  0
    6.8089  -12.5500   26.3506 C   0  0  2  0  0  0  0  0  0  0  0  0
    7.3323  -11.3990   27.1709 C   0  0  0  0  0  0  0  0  0  0  0  0
    7.8439  -13.5094   25.9081 C   0  0  2  0  0  0  0  0  0  0  0  0
    7.4143  -14.4584   24.9177 N   0  0  0  0  0  0  0  0  0  0  0  0
    8.7055  -14.0653   26.9849 C   0  0  0  0  0  0  0  0  0  0  0  0
    9.8356  -13.4548   27.5041 O   0  0  0  0  0  0  0  0  0  0  0  0
    8.4426  -15.1766   27.5152 O   0  0  0  0  0  0  0  0  0  0  0  0
  2  1  1  1
  2  3  1  0
  3  4  1  0
  4  5  2  0
  6  2  1  0
  6  7  2  0
  8  4  1  0
  9  6  1  0
 10  9  1  0
 10 11  1  1
 11 12  1  0
 12 13  1  0
 13 14  2  0
 13 17  1  0
 15 10  1  0
 16 15  2  0
 19 18  1  6
 19 21  1  0
 20 19  1  0
 21 23  1  0
 21 22  1  1
 22 15  1  0
 23 24  1  0
 25 23  2  0
M  END
$$$$
