DEV.pdb
     RDKit          3D

 25 24  0  0  1  0  0  0  0  0999 V2000
    7.9298  -16.3371   18.8705 N   0  0  0  0  0  0  0  0  0  0  0  0
    8.2186  -15.1944   19.6725 C   0  0  1  0  0  0  0  0  0  0  0  0
    7.5079  -13.9959   19.1382 C   0  0  0  0  0  0  0  0  0  0  0  0
    8.0673  -13.6074   17.8205 C   0  0  0  0  0  0  0  0  0  0  0  0
    8.0327  -14.4454   16.8592 O   0  0  0  0  0  0  0  0  0  0  0  0
    7.9790  -15.4101   21.1212 C   0  0  0  0  0  0  0  0  0  0  0  0
    6.8202  -15.2154   21.5509 O   0  0  0  0  0  0  0  0  0  0  0  0
    8.6375  -12.3878   17.5293 O   0  0  0  0  0  0  0  0  0  0  0  0
    8.9892  -15.8177   22.0060 N   0  0  0  0  0  0  0  0  0  0  0  0
    8.7136  -16.2790   23.3832 C   0  0  1  0  0  0  0  0  0  0  0  0
    9.6996  -17.4007   23.6098 C   0  0  0  0  0  0  0  0  0  0  0  0
    9.7156  -17.9485   25.0087 C   0  0  0  0  0  0  0  0  0  0  0  0
   10.7738  -19.0125   25.0175 C   0  0  0  0  0  0  0  0  0  0  0  0
   11.9726  -18.7493   24.6953 O   0  0  0  0  0  0  0  0  0  0  0  0
    8.9395  -15.1032   24.2692 C   0  0  0  0  0  0  0  0  0  0  0  0
    9.9904  -14.3971   24.1330 O   0  0  0  0  0  0  0  0  0  0  0  0
   10.4133  -20.2912   25.3865 O   0  0  0  0  0  0  0  0  0  0  0  0
    5.9104  -12.9893   26.7552 C   0  0  0  0  0  0  0  0  0  0  0  0
    7.2834  -12.5668   26.2801 C   0  0  2  0  0  0  0  0  0  0  0  0
    7.0960  -11.8721   24.9557 C   0  0  0  0  0  0  0  0  0  0  0  0
    8.2779  -13.6615   26.2640 C   0  0  2  0  0  0  0  0  0  0  0  0
    8.0390  -14.6900   25.2887 N   0  0  0  0  0  0  0  0  0  0  0  0
    8.7204  -14.1458   27.5984 C   0  0  0  0  0  0  0  0  0  0  0  0
    9.3382  -13.3731   28.5683 O   0  0  0  0  0  0  0  0  0  0  0  0
    8.5475  -15.3448   27.9417 O   0  0  0  0  0  0  0  0  0  0  0  0
  2  1  1  6
  2  3  1  0
  3  4  1  0
  4  5  2  0
  6  2  1  0
  6  7  2  0
  8  4  1  0
  9  6  1  0
 10  9  1  0
 10 11  1  1
 11 12  1  0
 12 13  1  0
 13 14  2  0
 13 17  1  0
 15 10  1  0
 16 15  2  0
 19 18  1  6
 19 21  1  0
 20 19  1  0
 21 23  1  0
 21 22  1  1
 22 15  1  0
 23 24  1  0
 25 23  2  0
M  END
$$$$
