DEV.pdb
     RDKit          3D

 25 24  0  0  1  0  0  0  0  0999 V2000
    9.7230  -12.7053   19.3122 N   0  0  0  0  0  0  0  0  0  0  0  0
    8.3462  -13.0407   19.4687 C   0  0  1  0  0  0  0  0  0  0  0  0
    7.7534  -13.4156   18.1515 C   0  0  0  0  0  0  0  0  0  0  0  0
    8.5226  -14.5238   17.5347 C   0  0  0  0  0  0  0  0  0  0  0  0
    9.4268  -15.1087   18.2187 O   0  0  0  0  0  0  0  0  0  0  0  0
    8.0986  -14.0552   20.5235 C   0  0  0  0  0  0  0  0  0  0  0  0
    6.9122  -14.3910   20.7356 O   0  0  0  0  0  0  0  0  0  0  0  0
    8.3451  -14.9952   16.2527 O   0  0  0  0  0  0  0  0  0  0  0  0
    9.1311  -14.6382   21.2741 N   0  0  0  0  0  0  0  0  0  0  0  0
    8.8852  -15.6141   22.3571 C   0  0  1  0  0  0  0  0  0  0  0  0
    9.9729  -16.6484   22.1869 C   0  0  0  0  0  0  0  0  0  0  0  0
   10.0156  -17.6963   23.2628 C   0  0  0  0  0  0  0  0  0  0  0  0
   11.1229  -18.6324   22.8761 C   0  0  0  0  0  0  0  0  0  0  0  0
   10.9071  -19.6281   22.1197 O   0  0  0  0  0  0  0  0  0  0  0  0
    8.9851  -14.8533   23.6336 C   0  0  0  0  0  0  0  0  0  0  0  0
    9.9935  -14.1069   23.8518 O   0  0  0  0  0  0  0  0  0  0  0  0
   12.3889  -18.3854   23.3632 O   0  0  0  0  0  0  0  0  0  0  0  0
    6.6534  -12.2965   24.8924 C   0  0  0  0  0  0  0  0  0  0  0  0
    6.9036  -13.2049   26.0763 C   0  0  2  0  0  0  0  0  0  0  0  0
    7.0199  -12.3213   27.2918 C   0  0  0  0  0  0  0  0  0  0  0  0
    8.0324  -14.1418   25.8879 C   0  0  2  0  0  0  0  0  0  0  0  0
    8.0052  -14.8932   24.6628 N   0  0  0  0  0  0  0  0  0  0  0  0
    8.4339  -14.9131   27.0940 C   0  0  0  0  0  0  0  0  0  0  0  0
    9.3100  -14.4733   28.0731 O   0  0  0  0  0  0  0  0  0  0  0  0
    7.9755  -16.0663   27.3070 O   0  0  0  0  0  0  0  0  0  0  0  0
  2  1  1  6
  2  3  1  0
  3  4  1  0
  4  5  2  0
  6  2  1  0
  6  7  2  0
  8  4  1  0
  9  6  1  0
 10  9  1  0
 10 11  1  1
 11 12  1  0
 12 13  1  0
 13 14  2  0
 13 17  1  0
 15 10  1  0
 16 15  2  0
 19 18  1  6
 19 21  1  0
 20 19  1  0
 21 23  1  0
 21 22  1  6
 22 15  1  0
 23 24  1  0
 25 23  2  0
M  END
$$$$
