DEV.pdb
     RDKit          3D

 25 24  0  0  1  0  0  0  0  0999 V2000
    7.0780  -16.3344   18.9539 N   0  0  0  0  0  0  0  0  0  0  0  0
    7.8320  -15.4181   19.7441 C   0  0  1  0  0  0  0  0  0  0  0  0
    7.4961  -14.0138   19.3671 C   0  0  0  0  0  0  0  0  0  0  0  0
    8.0215  -13.7012   18.0157 C   0  0  0  0  0  0  0  0  0  0  0  0
    8.7724  -14.5497   17.4293 O   0  0  0  0  0  0  0  0  0  0  0  0
    7.7256  -15.6658   21.2036 C   0  0  0  0  0  0  0  0  0  0  0  0
    6.6613  -15.3326   21.7706 O   0  0  0  0  0  0  0  0  0  0  0  0
    7.7654  -12.5445   17.3130 O   0  0  0  0  0  0  0  0  0  0  0  0
    8.7589  -16.2502   21.9523 N   0  0  0  0  0  0  0  0  0  0  0  0
    8.5921  -16.6732   23.3590 C   0  0  1  0  0  0  0  0  0  0  0  0
    9.6766  -17.7024   23.5745 C   0  0  0  0  0  0  0  0  0  0  0  0
    9.7848  -18.2138   24.9831 C   0  0  0  0  0  0  0  0  0  0  0  0
   10.9816  -19.1189   24.9971 C   0  0  0  0  0  0  0  0  0  0  0  0
   12.1084  -18.7114   25.4147 O   0  0  0  0  0  0  0  0  0  0  0  0
    8.7660  -15.4467   24.1860 C   0  0  0  0  0  0  0  0  0  0  0  0
    9.6758  -14.6056   23.8924 O   0  0  0  0  0  0  0  0  0  0  0  0
   10.8296  -20.4122   24.5439 O   0  0  0  0  0  0  0  0  0  0  0  0
    6.4415  -12.5731   24.8910 C   0  0  0  0  0  0  0  0  0  0  0  0
    6.9068  -13.1012   26.2304 C   0  0  2  0  0  0  0  0  0  0  0  0
    7.0538  -11.9123   27.1450 C   0  0  0  0  0  0  0  0  0  0  0  0
    8.1027  -13.9680   26.1529 C   0  0  2  0  0  0  0  0  0  0  0  0
    7.9638  -15.1279   25.3155 N   0  0  0  0  0  0  0  0  0  0  0  0
    8.8127  -14.1978   27.4390 C   0  0  0  0  0  0  0  0  0  0  0  0
    9.0881  -15.4373   27.9934 O   0  0  0  0  0  0  0  0  0  0  0  0
    9.2275  -13.2311   28.1310 O   0  0  0  0  0  0  0  0  0  0  0  0
  2  1  1  6
  2  3  1  0
  3  4  1  0
  4  5  2  0
  6  2  1  0
  6  7  2  0
  8  4  1  0
  9  6  1  0
 10  9  1  0
 10 11  1  1
 11 12  1  0
 12 13  1  0
 13 14  2  0
 13 17  1  0
 15 10  1  0
 16 15  2  0
 19 18  1  6
 19 21  1  0
 20 19  1  0
 21 23  1  0
 21 22  1  1
 22 15  1  0
 23 24  1  0
 25 23  2  0
M  END
$$$$
