DEV.pdb
     RDKit          3D

 25 24  0  0  1  0  0  0  0  0999 V2000
    9.7616  -12.7849   19.2715 N   0  0  0  0  0  0  0  0  0  0  0  0
    8.3541  -12.9600   19.4155 C   0  0  1  0  0  0  0  0  0  0  0  0
    7.7419  -13.3203   18.1031 C   0  0  0  0  0  0  0  0  0  0  0  0
    8.4384  -14.4882   17.5106 C   0  0  0  0  0  0  0  0  0  0  0  0
    9.0525  -15.3009   18.2788 O   0  0  0  0  0  0  0  0  0  0  0  0
    7.9809  -13.8975   20.5040 C   0  0  0  0  0  0  0  0  0  0  0  0
    6.7618  -14.0969   20.7026 O   0  0  0  0  0  0  0  0  0  0  0  0
    8.4843  -14.7866   16.1667 O   0  0  0  0  0  0  0  0  0  0  0  0
    8.9317  -14.5543   21.3002 N   0  0  0  0  0  0  0  0  0  0  0  0
    8.5641  -15.4919   22.3824 C   0  0  1  0  0  0  0  0  0  0  0  0
    9.5371  -16.6379   22.2354 C   0  0  0  0  0  0  0  0  0  0  0  0
    9.4623  -17.6681   23.3265 C   0  0  0  0  0  0  0  0  0  0  0  0
   10.4687  -18.7203   22.9632 C   0  0  0  0  0  0  0  0  0  0  0  0
   11.1175  -18.6605   21.8743 O   0  0  0  0  0  0  0  0  0  0  0  0
    8.7233  -14.7390   23.6576 C   0  0  0  0  0  0  0  0  0  0  0  0
    9.7189  -13.9611   23.8167 O   0  0  0  0  0  0  0  0  0  0  0  0
   10.6753  -19.7604   23.8444 O   0  0  0  0  0  0  0  0  0  0  0  0
    6.5437  -12.1747   25.1991 C   0  0  0  0  0  0  0  0  0  0  0  0
    6.8105  -13.1864   26.2921 C   0  0  2  0  0  0  0  0  0  0  0  0
    6.9640  -12.4148   27.5777 C   0  0  0  0  0  0  0  0  0  0  0  0
    7.9243  -14.1132   25.9955 C   0  0  2  0  0  0  0  0  0  0  0  0
    7.8156  -14.8202   24.7487 N   0  0  0  0  0  0  0  0  0  0  0  0
    8.4053  -14.9262   27.1437 C   0  0  0  0  0  0  0  0  0  0  0  0
    9.2108  -14.4649   28.1723 O   0  0  0  0  0  0  0  0  0  0  0  0
    8.0899  -16.1402   27.2543 O   0  0  0  0  0  0  0  0  0  0  0  0
  2  1  1  6
  2  3  1  0
  3  4  1  0
  4  5  2  0
  6  2  1  0
  6  7  2  0
  8  4  1  0
  9  6  1  0
 10  9  1  0
 10 11  1  1
 11 12  1  0
 12 13  1  0
 13 14  2  0
 13 17  1  0
 15 10  1  0
 16 15  2  0
 19 18  1  6
 19 21  1  0
 20 19  1  0
 21 23  1  0
 21 22  1  6
 22 15  1  0
 23 24  1  0
 25 23  2  0
M  END
$$$$
