DEV.pdb
     RDKit          3D

 25 24  0  0  1  0  0  0  0  0999 V2000
    8.3915  -16.2219   18.4976 N   0  0  0  0  0  0  0  0  0  0  0  0
    8.4879  -15.0932   19.3633 C   0  0  1  0  0  0  0  0  0  0  0  0
    7.7457  -13.9347   18.7854 C   0  0  0  0  0  0  0  0  0  0  0  0
    8.2204  -13.6507   17.4091 C   0  0  0  0  0  0  0  0  0  0  0  0
    8.9902  -14.4886   16.8320 O   0  0  0  0  0  0  0  0  0  0  0  0
    8.1005  -15.3861   20.7658 C   0  0  0  0  0  0  0  0  0  0  0  0
    6.9146  -15.1637   21.0966 O   0  0  0  0  0  0  0  0  0  0  0  0
    7.8965  -12.5324   16.6732 O   0  0  0  0  0  0  0  0  0  0  0  0
    9.0028  -15.8946   21.7128 N   0  0  0  0  0  0  0  0  0  0  0  0
    8.5757  -16.4335   23.0215 C   0  0  1  0  0  0  0  0  0  0  0  0
    9.4711  -17.6288   23.2477 C   0  0  0  0  0  0  0  0  0  0  0  0
    9.1316  -18.8330   22.4159 C   0  0  0  0  0  0  0  0  0  0  0  0
   10.1418  -19.8801   22.7834 C   0  0  0  0  0  0  0  0  0  0  0  0
   10.1946  -20.3583   23.9575 O   0  0  0  0  0  0  0  0  0  0  0  0
    8.7856  -15.3399   24.0107 C   0  0  0  0  0  0  0  0  0  0  0  0
    9.8672  -14.6680   23.9957 O   0  0  0  0  0  0  0  0  0  0  0  0
   11.0172  -20.3149   21.8109 O   0  0  0  0  0  0  0  0  0  0  0  0
    6.5439  -12.3072   24.7807 C   0  0  0  0  0  0  0  0  0  0  0  0
    6.8932  -12.9751   26.0926 C   0  0  2  0  0  0  0  0  0  0  0  0
    7.1074  -11.8767   27.1022 C   0  0  0  0  0  0  0  0  0  0  0  0
    8.0050  -13.9459   25.9963 C   0  0  2  0  0  0  0  0  0  0  0  0
    7.8368  -14.9712   25.0031 N   0  0  0  0  0  0  0  0  0  0  0  0
    8.5674  -14.4077   27.2930 C   0  0  0  0  0  0  0  0  0  0  0  0
    8.6063  -15.7224   27.7283 O   0  0  0  0  0  0  0  0  0  0  0  0
    9.0682  -13.5899   28.1091 O   0  0  0  0  0  0  0  0  0  0  0  0
  2  1  1  6
  2  3  1  0
  3  4  1  0
  4  5  2  0
  6  2  1  0
  6  7  2  0
  8  4  1  0
  9  6  1  0
 10  9  1  0
 10 11  1  1
 11 12  1  0
 12 13  1  0
 13 14  2  0
 13 17  1  0
 15 10  1  0
 16 15  2  0
 19 18  1  6
 19 21  1  0
 20 19  1  0
 21 23  1  0
 21 22  1  1
 22 15  1  0
 23 24  1  0
 25 23  2  0
M  END
$$$$
