DEV.pdb
     RDKit          3D

 25 24  0  0  1  0  0  0  0  0999 V2000
    9.5441  -12.9884   19.0879 N   0  0  0  0  0  0  0  0  0  0  0  0
    8.1823  -13.2489   19.4197 C   0  0  1  0  0  0  0  0  0  0  0  0
    7.4491  -13.7616   18.2254 C   0  0  0  0  0  0  0  0  0  0  0  0
    8.4055  -14.1861   17.1741 C   0  0  0  0  0  0  0  0  0  0  0  0
    9.4630  -14.8142   17.5129 O   0  0  0  0  0  0  0  0  0  0  0  0
    8.0175  -14.1142   20.6143 C   0  0  0  0  0  0  0  0  0  0  0  0
    6.8525  -14.3279   21.0171 O   0  0  0  0  0  0  0  0  0  0  0  0
    8.2528  -13.9589   15.8241 O   0  0  0  0  0  0  0  0  0  0  0  0
    9.1039  -14.6889   21.2918 N   0  0  0  0  0  0  0  0  0  0  0  0
    8.9432  -15.5624   22.4736 C   0  0  1  0  0  0  0  0  0  0  0  0
   10.1595  -16.4579   22.4490 C   0  0  0  0  0  0  0  0  0  0  0  0
   10.2130  -17.4112   21.2890 C   0  0  0  0  0  0  0  0  0  0  0  0
   11.4874  -18.1856   21.4565 C   0  0  0  0  0  0  0  0  0  0  0  0
   12.5178  -17.9116   20.7685 O   0  0  0  0  0  0  0  0  0  0  0  0
    8.8964  -14.6584   23.6563 C   0  0  0  0  0  0  0  0  0  0  0  0
    9.0745  -13.4064   23.5070 O   0  0  0  0  0  0  0  0  0  0  0  0
   11.5152  -19.2082   22.3810 O   0  0  0  0  0  0  0  0  0  0  0  0
    7.4595  -12.1002   26.9802 C   0  0  0  0  0  0  0  0  0  0  0  0
    7.4352  -13.1713   25.9118 C   0  0  2  0  0  0  0  0  0  0  0  0
    6.0062  -13.6332   25.7844 C   0  0  0  0  0  0  0  0  0  0  0  0
    8.4150  -14.2582   26.1269 C   0  0  2  0  0  0  0  0  0  0  0  0
    8.6552  -15.0992   24.9862 N   0  0  0  0  0  0  0  0  0  0  0  0
    8.3063  -14.9717   27.4269 C   0  0  0  0  0  0  0  0  0  0  0  0
    8.7776  -14.5019   28.6421 O   0  0  0  0  0  0  0  0  0  0  0  0
    7.7492  -16.0984   27.5022 O   0  0  0  0  0  0  0  0  0  0  0  0
  2  1  1  6
  2  3  1  0
  3  4  1  0
  4  5  2  0
  6  2  1  0
  6  7  2  0
  8  4  1  0
  9  6  1  0
 10  9  1  0
 10 11  1  1
 11 12  1  0
 12 13  1  0
 13 14  2  0
 13 17  1  0
 15 10  1  0
 16 15  2  0
 19 18  1  1
 19 21  1  0
 20 19  1  0
 21 23  1  0
 21 22  1  6
 22 15  1  0
 23 24  1  0
 25 23  2  0
M  END
$$$$
