IGD.pdb
     RDKit          3D

 21 20  0  0  1  0  0  0  0  0999 V2000
   31.3056  -10.5194  -21.6167 C   0  0  0  0  0  0  0  0  0  0  0  0
   30.9155  -10.7853  -20.1558 C   0  0  0  0  0  0  0  0  0  0  0  0
   31.3826   -9.6036  -19.3737 C   0  0  2  0  0  0  0  0  0  0  0  0
   32.9008   -9.5539  -19.4703 C   0  0  0  0  0  0  0  0  0  0  0  0
   30.9233   -9.5748  -17.9433 C   0  0  2  0  0  0  0  0  0  0  0  0
   29.4691   -9.6745  -17.9754 N   0  0  0  0  0  0  0  0  0  0  0  0
   31.3751   -8.3947  -17.1850 C   0  0  0  0  0  0  0  0  0  0  0  0
   30.7043   -7.3336  -17.1923 O   0  0  0  0  0  0  0  0  0  0  0  0
   32.5750   -8.4110  -16.4238 N   0  0  0  0  0  0  0  0  0  0  0  0
   33.0642   -7.2701  -15.6737 C   0  0  0  0  0  0  0  0  0  0  0  0
   33.3576   -6.1808  -16.6529 C   0  0  0  0  0  0  0  0  0  0  0  0
   34.1087   -6.3814  -17.6654 O   0  0  0  0  0  0  0  0  0  0  0  0
   32.8317   -4.8707  -16.5287 N   0  0  0  0  0  0  0  0  0  0  0  0
   33.1742   -3.8323  -17.4946 C   0  0  1  0  0  0  0  0  0  0  0  0
   32.7282   -4.2245  -18.8810 C   0  0  0  0  0  0  0  0  0  0  0  0
   33.6997   -3.8090  -19.9017 C   0  0  0  0  0  0  0  0  0  0  0  0
   34.3874   -2.7605  -19.7072 O   0  0  0  0  0  0  0  0  0  0  0  0
   32.4964   -2.5728  -17.0204 C   0  0  0  0  0  0  0  0  0  0  0  0
   32.9019   -1.3340  -17.5576 O   0  0  0  0  0  0  0  0  0  0  0  0
   33.9295   -4.4809  -21.0852 O   0  0  0  0  0  0  0  0  0  0  0  0
   31.5906   -2.5543  -16.1750 O   0  0  0  0  0  0  0  0  0  0  0  0
  1  2  1  0
  3  5  1  0
  3  2  1  0
  3  4  1  1
  5  6  1  6
  7  5  1  0
  7  8  2  0
  9  7  1  0
 10  9  1  0
 11 10  1  0
 12 11  2  0
 13 11  1  0
 14 13  1  0
 14 15  1  6
 15 16  1  0
 16 17  2  0
 18 14  1  0
 19 18  1  0
 20 16  1  0
 21 18  2  0
M  END
$$$$
