IGD.pdb
     RDKit          3D

 21 20  0  0  1  0  0  0  0  0999 V2000
   10.6568  -15.2969  -10.1546 C   0  0  0  0  0  0  0  0  0  0  0  0
   10.9428  -14.6406  -11.5128 C   0  0  0  0  0  0  0  0  0  0  0  0
   12.2485  -13.9323  -11.3715 C   0  0  2  0  0  0  0  0  0  0  0  0
   12.0858  -12.8699  -10.2938 C   0  0  0  0  0  0  0  0  0  0  0  0
   12.7854  -13.3432  -12.6453 C   0  0  2  0  0  0  0  0  0  0  0  0
   12.7614  -14.4125  -13.6361 N   0  0  0  0  0  0  0  0  0  0  0  0
   14.1255  -12.7436  -12.5182 C   0  0  0  0  0  0  0  0  0  0  0  0
   15.1439  -13.3623  -12.9132 O   0  0  0  0  0  0  0  0  0  0  0  0
   14.3161  -11.4551  -11.9498 N   0  0  0  0  0  0  0  0  0  0  0  0
   15.6026  -10.7881  -11.8884 C   0  0  0  0  0  0  0  0  0  0  0  0
   15.3937   -9.4700  -11.2173 C   0  0  0  0  0  0  0  0  0  0  0  0
   14.3934   -9.2650  -10.4512 O   0  0  0  0  0  0  0  0  0  0  0  0
   16.2762   -8.3733  -11.3812 N   0  0  0  0  0  0  0  0  0  0  0  0
   16.1277   -7.1664  -10.5751 C   0  0  1  0  0  0  0  0  0  0  0  0
   16.6077   -7.4036   -9.1651 C   0  0  0  0  0  0  0  0  0  0  0  0
   16.5330   -6.1815   -8.3533 C   0  0  0  0  0  0  0  0  0  0  0  0
   17.5181   -5.8701   -7.6165 O   0  0  0  0  0  0  0  0  0  0  0  0
   16.9262   -6.0931  -11.2686 C   0  0  0  0  0  0  0  0  0  0  0  0
   16.6397   -4.7408  -10.9916 O   0  0  0  0  0  0  0  0  0  0  0  0
   15.4515   -5.3245   -8.3238 O   0  0  0  0  0  0  0  0  0  0  0  0
   17.8334   -6.3252  -12.0801 O   0  0  0  0  0  0  0  0  0  0  0  0
  1  2  1  0
  3  5  1  0
  3  2  1  0
  3  4  1  1
  5  6  1  6
  7  5  1  0
  7  8  2  0
  9  7  1  0
 10  9  1  0
 11 10  1  0
 12 11  2  0
 13 11  1  0
 14 13  1  0
 14 15  1  1
 15 16  1  0
 16 17  2  0
 18 14  1  0
 19 18  1  0
 20 16  1  0
 21 18  2  0
M  END
$$$$
