IGD.pdb
     RDKit          3D

 21 20  0  0  1  0  0  0  0  0999 V2000
   17.2195  -14.1951  -17.2630 C   0  0  0  0  0  0  0  0  0  0  0  0
   17.6713  -13.3392  -16.0713 C   0  0  0  0  0  0  0  0  0  0  0  0
   18.1323  -12.0382  -16.6381 C   0  0  2  0  0  0  0  0  0  0  0  0
   19.2543  -12.3329  -17.6235 C   0  0  0  0  0  0  0  0  0  0  0  0
   18.5541  -11.0210  -15.6157 C   0  0  2  0  0  0  0  0  0  0  0  0
   17.3591  -10.6861  -14.8504 N   0  0  0  0  0  0  0  0  0  0  0  0
   19.1958   -9.8216  -16.1826 C   0  0  0  0  0  0  0  0  0  0  0  0
   20.3133   -9.9005  -16.7491 O   0  0  0  0  0  0  0  0  0  0  0  0
   18.5816   -8.5420  -16.1114 N   0  0  0  0  0  0  0  0  0  0  0  0
   19.1592   -7.3422  -16.6862 C   0  0  0  0  0  0  0  0  0  0  0  0
   19.3048   -6.3421  -15.5863 C   0  0  0  0  0  0  0  0  0  0  0  0
   18.6241   -6.4334  -14.5101 O   0  0  0  0  0  0  0  0  0  0  0  0
   20.1936   -5.2407  -15.6588 N   0  0  0  0  0  0  0  0  0  0  0  0
   20.3152   -4.3029  -14.5478 C   0  0  1  0  0  0  0  0  0  0  0  0
   21.7505   -4.1909  -14.0982 C   0  0  0  0  0  0  0  0  0  0  0  0
   22.2785   -5.4831  -13.6401 C   0  0  0  0  0  0  0  0  0  0  0  0
   22.0065   -5.8783  -12.4654 O   0  0  0  0  0  0  0  0  0  0  0  0
   19.7763   -2.9862  -15.0442 C   0  0  0  0  0  0  0  0  0  0  0  0
   19.4267   -1.9931  -14.1065 O   0  0  0  0  0  0  0  0  0  0  0  0
   23.0676   -6.3219  -14.4008 O   0  0  0  0  0  0  0  0  0  0  0  0
   19.6176   -2.7146  -16.2427 O   0  0  0  0  0  0  0  0  0  0  0  0
  1  2  1  0
  3  5  1  0
  3  2  1  0
  3  4  1  6
  5  6  1  6
  7  5  1  0
  7  8  2  0
  9  7  1  0
 10  9  1  0
 11 10  1  0
 12 11  2  0
 13 11  1  0
 14 13  1  0
 14 15  1  6
 15 16  1  0
 16 17  2  0
 18 14  1  0
 19 18  1  0
 20 16  1  0
 21 18  2  0
M  END
$$$$
