IGD.pdb
     RDKit          3D

 21 20  0  0  1  0  0  0  0  0999 V2000
   28.0867  -16.7843  -18.3028 C   0  0  0  0  0  0  0  0  0  0  0  0
   27.5734  -18.2254  -18.1731 C   0  0  0  0  0  0  0  0  0  0  0  0
   26.8464  -18.2978  -16.8721 C   0  0  2  0  0  0  0  0  0  0  0  0
   27.8125  -17.8707  -15.7762 C   0  0  0  0  0  0  0  0  0  0  0  0
   26.2306  -19.6346  -16.5694 C   0  0  2  0  0  0  0  0  0  0  0  0
   25.3368  -19.9377  -17.6807 N   0  0  0  0  0  0  0  0  0  0  0  0
   25.5345  -19.7016  -15.2722 C   0  0  0  0  0  0  0  0  0  0  0  0
   26.1592  -19.5134  -14.1997 O   0  0  0  0  0  0  0  0  0  0  0  0
   24.1434  -19.9791  -15.1850 N   0  0  0  0  0  0  0  0  0  0  0  0
   23.3886  -19.9126  -13.9483 C   0  0  0  0  0  0  0  0  0  0  0  0
   21.9602  -20.2002  -14.2776 C   0  0  0  0  0  0  0  0  0  0  0  0
   21.5215  -20.1061  -15.4728 O   0  0  0  0  0  0  0  0  0  0  0  0
   21.0082  -20.5910  -13.3033 N   0  0  0  0  0  0  0  0  0  0  0  0
   19.6536  -20.9698  -13.6905 C   0  0  1  0  0  0  0  0  0  0  0  0
   18.9563  -21.6870  -12.5617 C   0  0  0  0  0  0  0  0  0  0  0  0
   19.4215  -23.0743  -12.4303 C   0  0  0  0  0  0  0  0  0  0  0  0
   20.2811  -23.5164  -13.2523 O   0  0  0  0  0  0  0  0  0  0  0  0
   18.9481  -19.6926  -14.0671 C   0  0  0  0  0  0  0  0  0  0  0  0
   17.9798  -19.7225  -15.0914 O   0  0  0  0  0  0  0  0  0  0  0  0
   18.9876  -23.9587  -11.4635 O   0  0  0  0  0  0  0  0  0  0  0  0
   19.1669  -18.5995  -13.5262 O   0  0  0  0  0  0  0  0  0  0  0  0
  1  2  1  0
  3  5  1  0
  3  2  1  0
  3  4  1  1
  5  6  1  6
  7  5  1  0
  7  8  2  0
  9  7  1  0
 10  9  1  0
 11 10  1  0
 12 11  2  0
 13 11  1  0
 14 13  1  0
 14 15  1  1
 15 16  1  0
 16 17  2  0
 18 14  1  0
 19 18  1  0
 20 16  1  0
 21 18  2  0
M  END
$$$$
