IGD.pdb
     RDKit          3D

 21 20  0  0  1  0  0  0  0  0999 V2000
   17.6940  -15.7482  -18.1504 C   0  0  0  0  0  0  0  0  0  0  0  0
   18.4934  -14.9947  -17.0779 C   0  0  0  0  0  0  0  0  0  0  0  0
   17.9534  -13.6040  -17.0498 C   0  0  2  0  0  0  0  0  0  0  0  0
   18.1419  -13.0050  -18.4363 C   0  0  0  0  0  0  0  0  0  0  0  0
   18.5438  -12.7214  -15.9866 C   0  0  2  0  0  0  0  0  0  0  0  0
   18.1623  -13.3063  -14.7068 N   0  0  0  0  0  0  0  0  0  0  0  0
   18.1449  -11.3061  -16.0831 C   0  0  0  0  0  0  0  0  0  0  0  0
   18.5955  -10.5747  -16.9985 O   0  0  0  0  0  0  0  0  0  0  0  0
   17.2441  -10.7194  -15.1537 N   0  0  0  0  0  0  0  0  0  0  0  0
   16.7981   -9.3414  -15.2298 C   0  0  0  0  0  0  0  0  0  0  0  0
   17.8529   -8.4922  -14.5993 C   0  0  0  0  0  0  0  0  0  0  0  0
   18.3811   -8.8089  -13.4811 O   0  0  0  0  0  0  0  0  0  0  0  0
   18.3331   -7.2959  -15.1880 N   0  0  0  0  0  0  0  0  0  0  0  0
   19.3294   -6.4750  -14.5083 C   0  0  1  0  0  0  0  0  0  0  0  0
   20.6780   -7.1503  -14.5232 C   0  0  0  0  0  0  0  0  0  0  0  0
   21.7169   -6.3015  -13.9247 C   0  0  0  0  0  0  0  0  0  0  0  0
   21.5109   -5.7882  -12.7827 O   0  0  0  0  0  0  0  0  0  0  0  0
   19.3537   -5.1532  -15.2315 C   0  0  0  0  0  0  0  0  0  0  0  0
   20.0250   -4.0629  -14.6415 O   0  0  0  0  0  0  0  0  0  0  0  0
   22.9276   -6.0074  -14.5185 O   0  0  0  0  0  0  0  0  0  0  0  0
   18.8131   -4.9586  -16.3294 O   0  0  0  0  0  0  0  0  0  0  0  0
  1  2  1  0
  3  5  1  0
  3  2  1  0
  3  4  1  6
  5  6  1  1
  7  5  1  0
  7  8  2  0
  9  7  1  0
 10  9  1  0
 11 10  1  0
 12 11  2  0
 13 11  1  0
 14 13  1  0
 14 15  1  6
 15 16  1  0
 16 17  2  0
 18 14  1  0
 19 18  1  0
 20 16  1  0
 21 18  2  0
M  END
$$$$
