IGD.pdb
     RDKit          3D

 21 20  0  0  1  0  0  0  0  0999 V2000
   10.7977  -11.8940   -9.6920 C   0  0  0  0  0  0  0  0  0  0  0  0
   12.1993  -11.8277  -10.3152 C   0  0  0  0  0  0  0  0  0  0  0  0
   12.8004  -10.5389   -9.8633 C   0  0  2  0  0  0  0  0  0  0  0  0
   11.8473   -9.4193  -10.2568 C   0  0  0  0  0  0  0  0  0  0  0  0
   14.1900  -10.2802  -10.3732 C   0  0  2  0  0  0  0  0  0  0  0  0
   15.0534  -11.2663   -9.7346 N   0  0  0  0  0  0  0  0  0  0  0  0
   14.6710   -8.9051  -10.1514 C   0  0  0  0  0  0  0  0  0  0  0  0
   14.2588   -7.9593  -10.8666 O   0  0  0  0  0  0  0  0  0  0  0  0
   15.6102   -8.5984   -9.1299 N   0  0  0  0  0  0  0  0  0  0  0  0
   16.0619   -7.2523   -8.8338 C   0  0  0  0  0  0  0  0  0  0  0  0
   17.2625   -6.9846   -9.6811 C   0  0  0  0  0  0  0  0  0  0  0  0
   18.4070   -7.4656   -9.3836 O   0  0  0  0  0  0  0  0  0  0  0  0
   17.2163   -6.1914  -10.8547 N   0  0  0  0  0  0  0  0  0  0  0  0
   18.3541   -6.1369  -11.7662 C   0  0  1  0  0  0  0  0  0  0  0  0
   18.7878   -7.5260  -12.1627 C   0  0  0  0  0  0  0  0  0  0  0  0
   19.8252   -7.4949  -13.2024 C   0  0  0  0  0  0  0  0  0  0  0  0
   19.7135   -8.2615  -14.2073 O   0  0  0  0  0  0  0  0  0  0  0  0
   17.9060   -5.3262  -12.9547 C   0  0  0  0  0  0  0  0  0  0  0  0
   18.8722   -4.6391  -13.7176 O   0  0  0  0  0  0  0  0  0  0  0  0
   20.9401   -6.6818  -13.1737 O   0  0  0  0  0  0  0  0  0  0  0  0
   16.7239   -5.2223  -13.3116 O   0  0  0  0  0  0  0  0  0  0  0  0
  1  2  1  0
  3  5  1  0
  3  2  1  0
  3  4  1  6
  5  6  1  1
  7  5  1  0
  7  8  2  0
  9  7  1  0
 10  9  1  0
 11 10  1  0
 12 11  2  0
 13 11  1  0
 14 13  1  0
 14 15  1  6
 15 16  1  0
 16 17  2  0
 18 14  1  0
 19 18  1  0
 20 16  1  0
 21 18  2  0
M  END
$$$$
