IGD.pdb
     RDKit          3D

 21 20  0  0  1  0  0  0  0  0999 V2000
   24.6754  -20.5985   -7.8269 C   0  0  0  0  0  0  0  0  0  0  0  0
   25.7456  -20.9717   -8.8625 C   0  0  0  0  0  0  0  0  0  0  0  0
   25.1746  -20.6328  -10.1988 C   0  0  2  0  0  0  0  0  0  0  0  0
   23.8167  -21.3114  -10.3088 C   0  0  0  0  0  0  0  0  0  0  0  0
   26.0562  -20.9787  -11.3654 C   0  0  2  0  0  0  0  0  0  0  0  0
   27.3762  -20.4411  -11.0581 N   0  0  0  0  0  0  0  0  0  0  0  0
   25.5576  -20.4972  -12.6659 C   0  0  0  0  0  0  0  0  0  0  0  0
   25.4581  -19.2676  -12.8982 O   0  0  0  0  0  0  0  0  0  0  0  0
   25.1737  -21.3962  -13.6974 N   0  0  0  0  0  0  0  0  0  0  0  0
   24.7422  -20.9684  -15.0144 C   0  0  0  0  0  0  0  0  0  0  0  0
   23.2523  -21.0677  -15.0534 C   0  0  0  0  0  0  0  0  0  0  0  0
   22.5990  -21.6365  -14.1156 O   0  0  0  0  0  0  0  0  0  0  0  0
   22.4726  -20.5463  -16.1158 N   0  0  0  0  0  0  0  0  0  0  0  0
   21.0370  -20.7972  -16.1835 C   0  0  1  0  0  0  0  0  0  0  0  0
   20.2614  -19.5218  -15.9677 C   0  0  0  0  0  0  0  0  0  0  0  0
   20.1361  -19.1974  -14.5403 C   0  0  0  0  0  0  0  0  0  0  0  0
   20.8825  -18.2987  -14.0449 O   0  0  0  0  0  0  0  0  0  0  0  0
   20.7749  -21.3924  -17.5427 C   0  0  0  0  0  0  0  0  0  0  0  0
   21.8228  -21.4340  -18.4849 O   0  0  0  0  0  0  0  0  0  0  0  0
   19.2529  -19.8067  -13.6722 O   0  0  0  0  0  0  0  0  0  0  0  0
   19.6801  -21.8556  -17.8925 O   0  0  0  0  0  0  0  0  0  0  0  0
  1  2  1  0
  3  5  1  0
  3  2  1  0
  3  4  1  6
  5  6  1  1
  7  5  1  0
  7  8  2  0
  9  7  1  0
 10  9  1  0
 11 10  1  0
 12 11  2  0
 13 11  1  0
 14 13  1  0
 14 15  1  6
 15 16  1  0
 16 17  2  0
 18 14  1  0
 19 18  1  0
 20 16  1  0
 21 18  2  0
M  END
$$$$
