IGD.pdb
     RDKit          3D

 21 20  0  0  1  0  0  0  0  0999 V2000
   30.1965  -19.0408   -4.7884 C   0  0  0  0  0  0  0  0  0  0  0  0
   28.7287  -19.0317   -4.3384 C   0  0  0  0  0  0  0  0  0  0  0  0
   27.9915  -19.9147   -5.2888 C   0  0  2  0  0  0  0  0  0  0  0  0
   28.6412  -21.2904   -5.2432 C   0  0  0  0  0  0  0  0  0  0  0  0
   27.9091  -19.3939   -6.6959 C   0  0  2  0  0  0  0  0  0  0  0  0
   27.2998  -18.0721   -6.6111 N   0  0  0  0  0  0  0  0  0  0  0  0
   27.1809  -20.2744   -7.6266 C   0  0  0  0  0  0  0  0  0  0  0  0
   27.7574  -21.2477   -8.1709 O   0  0  0  0  0  0  0  0  0  0  0  0
   25.8119  -20.0589   -7.9414 N   0  0  0  0  0  0  0  0  0  0  0  0
   25.0659  -20.8778   -8.8776 C   0  0  0  0  0  0  0  0  0  0  0  0
   25.2922  -20.3180  -10.2438 C   0  0  0  0  0  0  0  0  0  0  0  0
   25.4224  -19.0625  -10.4348 O   0  0  0  0  0  0  0  0  0  0  0  0
   25.3770  -21.1274  -11.4040 N   0  0  0  0  0  0  0  0  0  0  0  0
   25.3245  -20.5341  -12.7358 C   0  0  1  0  0  0  0  0  0  0  0  0
   25.7343  -21.5379  -13.7843 C   0  0  0  0  0  0  0  0  0  0  0  0
   27.1829  -21.7815  -13.7660 C   0  0  0  0  0  0  0  0  0  0  0  0
   27.9496  -20.9839  -14.3874 O   0  0  0  0  0  0  0  0  0  0  0  0
   23.9076  -20.0607  -12.9329 C   0  0  0  0  0  0  0  0  0  0  0  0
   22.8874  -20.6000  -12.1229 O   0  0  0  0  0  0  0  0  0  0  0  0
   27.7930  -22.8341  -13.1143 O   0  0  0  0  0  0  0  0  0  0  0  0
   23.5747  -19.2142  -13.7743 O   0  0  0  0  0  0  0  0  0  0  0  0
  1  2  1  0
  3  5  1  0
  3  2  1  0
  3  4  1  6
  5  6  1  1
  7  5  1  0
  7  8  2  0
  9  7  1  0
 10  9  1  0
 11 10  1  0
 12 11  2  0
 13 11  1  0
 14 13  1  0
 14 15  1  6
 15 16  1  0
 16 17  2  0
 18 14  1  0
 19 18  1  0
 20 16  1  0
 21 18  2  0
M  END
$$$$
