FNY.pdb
     RDKit          3D

 32 33  0  0  1  0  0  0  0  0999 V2000
    6.0625  -16.6393   24.4700 N   0  0  0  0  0  0  0  0  0  0  0  0
    7.4478  -16.4550   24.1350 C   0  0  1  0  0  0  0  0  0  0  0  0
    8.1916  -15.6366   25.1864 C   0  0  0  0  0  0  0  0  0  0  0  0
    7.6385  -14.2891   25.3638 C   0  0  0  0  0  0  0  0  0  0  0  0
    8.0083  -13.2425   24.5422 C   0  0  0  0  0  0  0  0  0  0  0  0
    7.4656  -11.9839   24.7430 C   0  0  0  0  0  0  0  0  0  0  0  0
    6.5562  -11.7414   25.7514 C   0  0  0  0  0  0  0  0  0  0  0  0
    6.1705  -12.7870   26.5923 C   0  0  0  0  0  0  0  0  0  0  0  0
    6.7172  -14.0350   26.3823 C   0  0  0  0  0  0  0  0  0  0  0  0
    8.0949  -17.7740   24.0330 C   0  0  0  0  0  0  0  0  0  0  0  0
    7.3883  -18.8022   24.0718 O   0  0  0  0  0  0  0  0  0  0  0  0
   10.5687  -16.7146   19.6898 N   0  0  0  0  0  0  0  0  0  0  0  0
    9.3777  -16.8884   20.4382 C   0  0  0  0  0  0  0  0  0  0  0  0
    8.3563  -17.3188   19.7897 O   0  0  0  0  0  0  0  0  0  0  0  0
    9.2902  -16.5989   21.8816 C   0  0  0  0  0  0  0  0  0  0  0  0
   10.2169  -17.3399   22.7552 C   0  0  2  0  0  0  0  0  0  0  0  0
    9.4915  -17.8790   23.8935 N   0  0  0  0  0  0  0  0  0  0  0  0
   11.3995  -16.6204   23.2424 C   0  0  0  0  0  0  0  0  0  0  0  0
   12.2170  -16.1791   22.3964 O   0  0  0  0  0  0  0  0  0  0  0  0
    9.6414  -16.7537   30.1962 O   0  0  0  0  0  0  0  0  0  0  0  0
   10.3541  -16.2221   29.1227 C   0  0  0  0  0  0  0  0  0  0  0  0
   11.1026  -16.9942   28.2627 C   0  0  0  0  0  0  0  0  0  0  0  0
   11.7858  -16.4067   27.2189 C   0  0  0  0  0  0  0  0  0  0  0  0
   11.7232  -15.0420   27.0301 C   0  0  0  0  0  0  0  0  0  0  0  0
   12.4842  -14.4538   25.8811 C   0  0  0  0  0  0  0  0  0  0  0  0
   12.8396  -15.5889   24.9435 C   0  0  2  0  0  0  0  0  0  0  0  0
   11.6850  -16.3877   24.6084 N   0  0  0  0  0  0  0  0  0  0  0  0
   13.9152  -16.4432   25.5207 C   0  0  0  0  0  0  0  0  0  0  0  0
   14.9924  -15.9575   25.9396 O   0  0  0  0  0  0  0  0  0  0  0  0
   10.9831  -14.2421   27.8730 C   0  0  0  0  0  0  0  0  0  0  0  0
   10.3002  -14.8592   28.9225 C   0  0  0  0  0  0  0  0  0  0  0  0
   13.6957  -17.8080   25.5862 O   0  0  0  0  0  0  0  0  0  0  0  0
  2  1  1  1
  3  4  1  0
  3  2  1  0
  4  5  2  0
  5  6  1  0
  7  6  2  0
  8  7  1  0
  9  4  1  0
  9  8  2  0
 10  2  1  0
 10 17  1  0
 11 10  2  0
 12 13  1  0
 13 14  2  0
 15 13  1  0
 16 15  1  1
 16 17  1  0
 18 16  1  0
 18 27  1  0
 19 18  2  0
 20 21  1  0
 21 22  2  0
 21 31  1  0
 22 23  1  0
 23 24  2  0
 24 25  1  0
 26 25  1  1
 26 27  1  0
 26 28  1  0
 28 29  2  0
 28 32  1  0
 30 24  1  0
 31 30  2  0
M  END
$$$$
