FNY.pdb
     RDKit          3D

 32 33  0  0  1  0  0  0  0  0999 V2000
    7.6062  -16.3185   20.1408 N   0  0  0  0  0  0  0  0  0  0  0  0
    7.8847  -15.6873   21.4015 C   0  0  1  0  0  0  0  0  0  0  0  0
    6.6501  -15.6144   22.2954 C   0  0  0  0  0  0  0  0  0  0  0  0
    6.8740  -14.8436   23.5238 C   0  0  0  0  0  0  0  0  0  0  0  0
    7.0976  -13.4812   23.4911 C   0  0  0  0  0  0  0  0  0  0  0  0
    7.3073  -12.7888   24.6725 C   0  0  0  0  0  0  0  0  0  0  0  0
    7.2997  -13.4269   25.8954 C   0  0  0  0  0  0  0  0  0  0  0  0
    7.0755  -14.8039   25.9483 C   0  0  0  0  0  0  0  0  0  0  0  0
    6.8679  -15.4818   24.7661 C   0  0  0  0  0  0  0  0  0  0  0  0
    8.9204  -16.4619   22.1059 C   0  0  0  0  0  0  0  0  0  0  0  0
    8.8319  -17.7066   22.1378 O   0  0  0  0  0  0  0  0  0  0  0  0
   13.9664  -17.4997   23.1080 N   0  0  0  0  0  0  0  0  0  0  0  0
   13.7274  -16.1163   22.9135 C   0  0  0  0  0  0  0  0  0  0  0  0
   14.7659  -15.3731   22.7793 O   0  0  0  0  0  0  0  0  0  0  0  0
   12.3717  -15.5378   22.8636 C   0  0  0  0  0  0  0  0  0  0  0  0
   11.2519  -16.4774   23.0481 C   0  0  2  0  0  0  0  0  0  0  0  0
    9.9978  -15.8120   22.7366 N   0  0  0  0  0  0  0  0  0  0  0  0
   11.1319  -17.1293   24.3575 C   0  0  0  0  0  0  0  0  0  0  0  0
   12.1093  -17.7953   24.7814 O   0  0  0  0  0  0  0  0  0  0  0  0
   11.7304  -12.6292   29.2173 O   0  0  0  0  0  0  0  0  0  0  0  0
   11.0974  -13.8003   28.8037 C   0  0  0  0  0  0  0  0  0  0  0  0
   11.4292  -15.0449   29.2902 C   0  0  0  0  0  0  0  0  0  0  0  0
   10.7647  -16.1659   28.8395 C   0  0  0  0  0  0  0  0  0  0  0  0
    9.7634  -16.0469   27.8986 C   0  0  0  0  0  0  0  0  0  0  0  0
    9.0731  -17.2960   27.4422 C   0  0  0  0  0  0  0  0  0  0  0  0
    9.9204  -17.9085   26.3466 C   0  0  2  0  0  0  0  0  0  0  0  0
    9.9838  -17.0593   25.1811 N   0  0  0  0  0  0  0  0  0  0  0  0
    9.4217  -19.2633   25.9783 C   0  0  0  0  0  0  0  0  0  0  0  0
    9.0260  -19.5299   24.8189 O   0  0  0  0  0  0  0  0  0  0  0  0
    9.4080  -14.8158   27.3923 C   0  0  0  0  0  0  0  0  0  0  0  0
   10.0947  -13.6956   27.8635 C   0  0  0  0  0  0  0  0  0  0  0  0
    9.4050  -20.2384   26.9602 O   0  0  0  0  0  0  0  0  0  0  0  0
  2  1  1  6
  3  4  1  0
  3  2  1  0
  4  5  2  0
  5  6  1  0
  7  6  2  0
  8  7  1  0
  9  4  1  0
  9  8  2  0
 10  2  1  0
 10 17  1  0
 11 10  2  0
 12 13  1  0
 13 14  2  0
 15 13  1  0
 16 15  1  1
 16 17  1  0
 18 16  1  0
 18 27  1  0
 19 18  2  0
 20 21  1  0
 21 22  2  0
 21 31  1  0
 22 23  1  0
 23 24  2  0
 24 25  1  0
 26 25  1  1
 26 27  1  0
 26 28  1  0
 28 29  2  0
 28 32  1  0
 30 24  1  0
 31 30  2  0
M  END
$$$$
