FNY.pdb
     RDKit          3D

 32 33  0  0  1  0  0  0  0  0999 V2000
   10.6224  -15.1433   17.6710 N   0  0  0  0  0  0  0  0  0  0  0  0
   10.4225  -15.6565   18.9983 C   0  0  1  0  0  0  0  0  0  0  0  0
    8.9493  -15.9140   19.3015 C   0  0  0  0  0  0  0  0  0  0  0  0
    8.1558  -14.6826   19.3875 C   0  0  0  0  0  0  0  0  0  0  0  0
    7.2289  -14.3514   18.4190 C   0  0  0  0  0  0  0  0  0  0  0  0
    6.5007  -13.1786   18.5345 C   0  0  0  0  0  0  0  0  0  0  0  0
    6.6761  -12.3210   19.6005 C   0  0  0  0  0  0  0  0  0  0  0  0
    7.6089  -12.6389   20.5894 C   0  0  0  0  0  0  0  0  0  0  0  0
    8.3271  -13.8088   20.4635 C   0  0  0  0  0  0  0  0  0  0  0  0
   11.1517  -16.9287   19.1343 C   0  0  0  0  0  0  0  0  0  0  0  0
   10.5067  -17.9959   19.1892 O   0  0  0  0  0  0  0  0  0  0  0  0
   13.8445  -18.1795   16.1116 N   0  0  0  0  0  0  0  0  0  0  0  0
   13.4764  -18.8554   17.3017 C   0  0  0  0  0  0  0  0  0  0  0  0
   12.5098  -19.6949   17.2031 O   0  0  0  0  0  0  0  0  0  0  0  0
   14.1500  -18.6257   18.5934 C   0  0  0  0  0  0  0  0  0  0  0  0
   13.3133  -18.0911   19.6820 C   0  0  2  0  0  0  0  0  0  0  0  0
   12.5574  -16.9463   19.2019 N   0  0  0  0  0  0  0  0  0  0  0  0
   13.9914  -17.7235   20.9306 C   0  0  0  0  0  0  0  0  0  0  0  0
   15.0115  -18.3753   21.2670 O   0  0  0  0  0  0  0  0  0  0  0  0
   17.3631  -13.7853   18.0143 O   0  0  0  0  0  0  0  0  0  0  0  0
   16.7614  -14.0645   19.2403 C   0  0  0  0  0  0  0  0  0  0  0  0
   17.4649  -14.5070   20.3382 C   0  0  0  0  0  0  0  0  0  0  0  0
   16.8099  -14.7663   21.5236 C   0  0  0  0  0  0  0  0  0  0  0  0
   15.4461  -14.5836   21.6166 C   0  0  0  0  0  0  0  0  0  0  0  0
   14.7831  -14.8800   22.9272 C   0  0  0  0  0  0  0  0  0  0  0  0
   14.4016  -16.3456   22.9218 C   0  0  2  0  0  0  0  0  0  0  0  0
   13.5729  -16.6787   21.7878 N   0  0  0  0  0  0  0  0  0  0  0  0
   13.7243  -16.7272   24.1928 C   0  0  0  0  0  0  0  0  0  0  0  0
   14.2768  -16.5760   25.3080 O   0  0  0  0  0  0  0  0  0  0  0  0
   14.7139  -14.1420   20.5362 C   0  0  0  0  0  0  0  0  0  0  0  0
   15.3986  -13.8863   19.3470 C   0  0  0  0  0  0  0  0  0  0  0  0
   12.4498  -17.2609   24.1147 O   0  0  0  0  0  0  0  0  0  0  0  0
  2  1  1  6
  3  4  1  0
  3  2  1  0
  4  5  2  0
  5  6  1  0
  7  6  2  0
  8  7  1  0
  9  4  1  0
  9  8  2  0
 10  2  1  0
 10 17  1  0
 11 10  2  0
 12 13  1  0
 13 14  2  0
 15 13  1  0
 16 15  1  6
 16 17  1  0
 18 16  1  0
 18 27  1  0
 19 18  2  0
 20 21  1  0
 21 22  2  0
 21 31  1  0
 22 23  1  0
 23 24  2  0
 24 25  1  0
 26 25  1  1
 26 27  1  0
 26 28  1  0
 28 29  2  0
 28 32  1  0
 30 24  1  0
 31 30  2  0
M  END
$$$$
