FNY.pdb
     RDKit          3D

 32 33  0  0  1  0  0  0  0  0999 V2000
    7.2733  -16.5284   25.2617 N   0  0  0  0  0  0  0  0  0  0  0  0
    7.0873  -16.7218   23.8499 C   0  0  1  0  0  0  0  0  0  0  0  0
    6.9848  -15.3995   23.0951 C   0  0  0  0  0  0  0  0  0  0  0  0
    7.4981  -14.2583   23.8614 C   0  0  0  0  0  0  0  0  0  0  0  0
    8.2850  -13.2881   23.2727 C   0  0  0  0  0  0  0  0  0  0  0  0
    8.7527  -12.2269   24.0304 C   0  0  0  0  0  0  0  0  0  0  0  0
    8.4527  -12.1087   25.3716 C   0  0  0  0  0  0  0  0  0  0  0  0
    7.6587  -13.0799   25.9842 C   0  0  0  0  0  0  0  0  0  0  0  0
    7.1991  -14.1310   25.2197 C   0  0  0  0  0  0  0  0  0  0  0  0
    8.2359  -17.4719   23.3143 C   0  0  0  0  0  0  0  0  0  0  0  0
    8.2984  -17.6933   22.0874 O   0  0  0  0  0  0  0  0  0  0  0  0
   10.8762  -16.5353   20.7240 N   0  0  0  0  0  0  0  0  0  0  0  0
   11.4984  -16.3700   21.9866 C   0  0  0  0  0  0  0  0  0  0  0  0
   12.7792  -16.2793   21.9819 O   0  0  0  0  0  0  0  0  0  0  0  0
   10.7399  -16.3024   23.2497 C   0  0  0  0  0  0  0  0  0  0  0  0
   10.6468  -17.5519   24.0249 C   0  0  2  0  0  0  0  0  0  0  0  0
    9.2524  -17.9353   24.1704 N   0  0  0  0  0  0  0  0  0  0  0  0
   11.2856  -17.5708   25.3461 C   0  0  0  0  0  0  0  0  0  0  0  0
   12.5301  -17.4092   25.4068 O   0  0  0  0  0  0  0  0  0  0  0  0
    7.8412  -12.5682   27.3007 O   0  0  0  0  0  0  0  0  0  0  0  0
    8.4845  -13.7236   27.7416 C   0  0  0  0  0  0  0  0  0  0  0  0
    8.1841  -14.3408   28.9352 C   0  0  0  0  0  0  0  0  0  0  0  0
    8.8580  -15.4823   29.3150 C   0  0  0  0  0  0  0  0  0  0  0  0
    9.8370  -16.0127   28.5011 C   0  0  0  0  0  0  0  0  0  0  0  0
   10.5392  -17.2541   28.9604 C   0  0  0  0  0  0  0  0  0  0  0  0
   11.3507  -17.7751   27.7926 C   0  0  2  0  0  0  0  0  0  0  0  0
   10.5921  -17.7598   26.5646 N   0  0  0  0  0  0  0  0  0  0  0  0
   11.8682  -19.1446   28.0690 C   0  0  0  0  0  0  0  0  0  0  0  0
   11.6173  -20.1118   27.3118 O   0  0  0  0  0  0  0  0  0  0  0  0
   10.1608  -15.4187   27.3009 C   0  0  0  0  0  0  0  0  0  0  0  0
    9.4652  -14.2642   26.9378 C   0  0  0  0  0  0  0  0  0  0  0  0
   12.6459  -19.3294   29.1987 O   0  0  0  0  0  0  0  0  0  0  0  0
  2  1  1  1
  3  4  1  0
  3  2  1  0
  4  5  2  0
  5  6  1  0
  7  6  2  0
  8  7  1  0
  9  4  1  0
  9  8  2  0
 10  2  1  0
 10 17  1  0
 11 10  2  0
 12 13  1  0
 13 14  2  0
 15 13  1  0
 16 15  1  1
 16 17  1  0
 18 16  1  0
 18 27  1  0
 19 18  2  0
 20 21  1  0
 21 22  2  0
 21 31  1  0
 22 23  1  0
 23 24  2  0
 24 25  1  0
 26 25  1  1
 26 27  1  0
 26 28  1  0
 28 29  2  0
 28 32  1  0
 30 24  1  0
 31 30  2  0
M  END
$$$$
