FNY.pdb
     RDKit          3D

 32 33  0  0  1  0  0  0  0  0999 V2000
    7.4036  -18.1330   20.4042 N   0  0  0  0  0  0  0  0  0  0  0  0
    8.2765  -17.1144   20.9195 C   0  0  1  0  0  0  0  0  0  0  0  0
    7.5181  -16.0468   21.7029 C   0  0  0  0  0  0  0  0  0  0  0  0
    7.5888  -14.7189   21.0825 C   0  0  0  0  0  0  0  0  0  0  0  0
    8.7615  -13.9897   21.0683 C   0  0  0  0  0  0  0  0  0  0  0  0
    8.7876  -12.7383   20.4748 C   0  0  0  0  0  0  0  0  0  0  0  0
    7.6639  -12.1918   19.8906 C   0  0  0  0  0  0  0  0  0  0  0  0
    6.4691  -12.9140   19.8954 C   0  0  0  0  0  0  0  0  0  0  0  0
    6.4557  -14.1583   20.4888 C   0  0  0  0  0  0  0  0  0  0  0  0
    9.2598  -17.7381   21.8210 C   0  0  0  0  0  0  0  0  0  0  0  0
    9.0582  -18.9001   22.2297 O   0  0  0  0  0  0  0  0  0  0  0  0
   12.9391  -17.3383   19.8046 N   0  0  0  0  0  0  0  0  0  0  0  0
   12.5564  -18.1688   20.8875 C   0  0  0  0  0  0  0  0  0  0  0  0
   12.0749  -19.3187   20.5798 O   0  0  0  0  0  0  0  0  0  0  0  0
   12.6938  -17.7590   22.2975 C   0  0  0  0  0  0  0  0  0  0  0  0
   11.4429  -17.6205   23.0637 C   0  0  2  0  0  0  0  0  0  0  0  0
   10.4135  -17.0371   22.2197 N   0  0  0  0  0  0  0  0  0  0  0  0
   11.5073  -16.8696   24.3231 C   0  0  0  0  0  0  0  0  0  0  0  0
   12.4187  -17.1553   25.1394 O   0  0  0  0  0  0  0  0  0  0  0  0
    6.3802  -10.7963   26.4408 O   0  0  0  0  0  0  0  0  0  0  0  0
    6.8646  -12.0651   26.1269 C   0  0  0  0  0  0  0  0  0  0  0  0
    7.9510  -12.2720   25.3066 C   0  0  0  0  0  0  0  0  0  0  0  0
    8.3807  -13.5537   25.0342 C   0  0  0  0  0  0  0  0  0  0  0  0
    7.7248  -14.6360   25.5823 C   0  0  0  0  0  0  0  0  0  0  0  0
    8.2319  -16.0073   25.2544 C   0  0  0  0  0  0  0  0  0  0  0  0
    9.6622  -16.0917   25.7451 C   0  0  2  0  0  0  0  0  0  0  0  0
   10.6077  -15.8391   24.6841 N   0  0  0  0  0  0  0  0  0  0  0  0
    9.9328  -17.4113   26.3817 C   0  0  0  0  0  0  0  0  0  0  0  0
   10.0941  -18.4527   25.7026 O   0  0  0  0  0  0  0  0  0  0  0  0
    6.6348  -14.4622   26.4068 C   0  0  0  0  0  0  0  0  0  0  0  0
    6.2182  -13.1559   26.6679 C   0  0  0  0  0  0  0  0  0  0  0  0
   10.0044  -17.4637   27.7628 O   0  0  0  0  0  0  0  0  0  0  0  0
  2  1  1  1
  3  4  1  0
  3  2  1  0
  4  5  2  0
  5  6  1  0
  7  6  2  0
  8  7  1  0
  9  4  1  0
  9  8  2  0
 10  2  1  0
 10 17  1  0
 11 10  2  0
 12 13  1  0
 13 14  2  0
 15 13  1  0
 16 15  1  6
 16 17  1  0
 18 16  1  0
 18 27  1  0
 19 18  2  0
 20 21  1  0
 21 22  2  0
 21 31  1  0
 22 23  1  0
 23 24  2  0
 24 25  1  0
 26 25  1  6
 26 27  1  0
 26 28  1  0
 28 29  2  0
 28 32  1  0
 30 24  1  0
 31 30  2  0
M  END
$$$$
