FNY.pdb
     RDKit          3D

 32 33  0  0  1  0  0  0  0  0999 V2000
    6.5305  -16.6522   24.9852 N   0  0  0  0  0  0  0  0  0  0  0  0
    7.6035  -15.9359   24.3521 C   0  0  1  0  0  0  0  0  0  0  0  0
    8.3376  -15.0180   25.3253 C   0  0  0  0  0  0  0  0  0  0  0  0
    7.5204  -13.8856   25.7759 C   0  0  0  0  0  0  0  0  0  0  0  0
    6.5275  -14.0429   26.7227 C   0  0  0  0  0  0  0  0  0  0  0  0
    5.7754  -12.9497   27.1206 C   0  0  0  0  0  0  0  0  0  0  0  0
    5.9908  -11.6935   26.5929 C   0  0  0  0  0  0  0  0  0  0  0  0
    6.9901  -11.5152   25.6344 C   0  0  0  0  0  0  0  0  0  0  0  0
    7.7319  -12.6105   25.2467 C   0  0  0  0  0  0  0  0  0  0  0  0
    8.5716  -16.9046   23.8107 C   0  0  0  0  0  0  0  0  0  0  0  0
    8.1831  -18.0550   23.5214 O   0  0  0  0  0  0  0  0  0  0  0  0
   10.8729  -18.5787   19.6297 N   0  0  0  0  0  0  0  0  0  0  0  0
   10.6901  -17.2260   20.0110 C   0  0  0  0  0  0  0  0  0  0  0  0
   11.1745  -16.3408   19.2168 O   0  0  0  0  0  0  0  0  0  0  0  0
    9.9865  -16.8306   21.2453 C   0  0  0  0  0  0  0  0  0  0  0  0
   10.7193  -17.0276   22.5083 C   0  0  2  0  0  0  0  0  0  0  0  0
    9.9184  -16.5429   23.6201 N   0  0  0  0  0  0  0  0  0  0  0  0
   12.0636  -16.4463   22.6015 C   0  0  0  0  0  0  0  0  0  0  0  0
   12.8831  -16.6935   21.6817 O   0  0  0  0  0  0  0  0  0  0  0  0
    9.8771  -14.4407   29.6506 O   0  0  0  0  0  0  0  0  0  0  0  0
   10.5351  -15.1573   28.6523 C   0  0  0  0  0  0  0  0  0  0  0  0
   10.7330  -16.5186   28.7118 C   0  0  0  0  0  0  0  0  0  0  0  0
   11.3929  -17.1692   27.6907 C   0  0  0  0  0  0  0  0  0  0  0  0
   11.8585  -16.4599   26.6034 C   0  0  0  0  0  0  0  0  0  0  0  0
   12.5691  -17.2146   25.5215 C   0  0  0  0  0  0  0  0  0  0  0  0
   13.3329  -16.2050   24.6902 C   0  0  2  0  0  0  0  0  0  0  0  0
   12.5039  -15.6210   23.6629 N   0  0  0  0  0  0  0  0  0  0  0  0
   14.5519  -16.8174   24.0912 C   0  0  0  0  0  0  0  0  0  0  0  0
   15.6857  -16.2988   24.2233 O   0  0  0  0  0  0  0  0  0  0  0  0
   11.6765  -15.0972   26.5142 C   0  0  0  0  0  0  0  0  0  0  0  0
   11.0058  -14.4605   27.5599 C   0  0  0  0  0  0  0  0  0  0  0  0
   14.4035  -17.9916   23.3739 O   0  0  0  0  0  0  0  0  0  0  0  0
  2  1  1  1
  3  4  1  0
  3  2  1  0
  4  5  2  0
  5  6  1  0
  7  6  2  0
  8  7  1  0
  9  4  1  0
  9  8  2  0
 10  2  1  0
 10 17  1  0
 11 10  2  0
 12 13  1  0
 13 14  2  0
 15 13  1  0
 16 15  1  6
 16 17  1  0
 18 16  1  0
 18 27  1  0
 19 18  2  0
 20 21  1  0
 21 22  2  0
 21 31  1  0
 22 23  1  0
 23 24  2  0
 24 25  1  0
 26 25  1  6
 26 27  1  0
 26 28  1  0
 28 29  2  0
 28 32  1  0
 30 24  1  0
 31 30  2  0
M  END
$$$$
