TYT.pdb
     RDKit          3D

 27 27  0  0  1  0  0  0  0  0999 V2000
   26.7320  -17.7260  -17.6966 C   0  0  0  0  0  0  0  0  0  0  0  0
   26.8853  -18.9099  -18.6085 C   0  0  1  0  0  0  0  0  0  0  0  0
   27.4677  -18.5407  -19.8106 O   0  0  0  0  0  0  0  0  0  0  0  0
   27.6142  -20.0533  -17.9350 C   0  0  2  0  0  0  0  0  0  0  0  0
   27.7520  -21.1313  -18.8730 N   0  0  0  0  0  0  0  0  0  0  0  0
   26.9340  -20.4778  -16.6820 C   0  0  0  0  0  0  0  0  0  0  0  0
   25.8990  -21.1571  -16.7901 O   0  0  0  0  0  0  0  0  0  0  0  0
   24.9240  -20.9752   -7.9760 O   0  0  0  0  0  0  0  0  0  0  0  0
   25.5686  -20.7650   -9.2118 C   0  0  0  0  0  0  0  0  0  0  0  0
   25.9820  -19.5070   -9.5888 C   0  0  0  0  0  0  0  0  0  0  0  0
   26.6123  -19.3318  -10.8085 C   0  0  0  0  0  0  0  0  0  0  0  0
   26.8466  -20.3768  -11.6728 C   0  0  0  0  0  0  0  0  0  0  0  0
   27.5152  -20.1302  -12.9404 C   0  0  0  0  0  0  0  0  0  0  0  0
   26.6794  -20.3971  -14.1644 C   0  0  2  0  0  0  0  0  0  0  0  0
   27.4008  -20.1508  -15.3886 N   0  0  0  0  0  0  0  0  0  0  0  0
   25.3353  -19.8105  -14.1386 C   0  0  0  0  0  0  0  0  0  0  0  0
   25.1780  -18.6141  -14.5054 O   0  0  0  0  0  0  0  0  0  0  0  0
   26.4410  -21.6360  -11.3121 C   0  0  0  0  0  0  0  0  0  0  0  0
   25.8034  -21.8110  -10.0775 C   0  0  0  0  0  0  0  0  0  0  0  0
   22.5164  -20.9146  -16.0077 C   0  0  0  0  0  0  0  0  0  0  0  0
   22.5238  -19.6099  -15.2427 C   0  0  1  0  0  0  0  0  0  0  0  0
   21.2703  -19.0471  -15.3637 O   0  0  0  0  0  0  0  0  0  0  0  0
   22.8442  -19.8323  -13.7730 C   0  0  2  0  0  0  0  0  0  0  0  0
   24.1517  -20.4845  -13.7282 N   0  0  0  0  0  0  0  0  0  0  0  0
   21.8147  -20.7231  -13.1964 C   0  0  0  0  0  0  0  0  0  0  0  0
   20.6072  -20.3815  -13.1611 O   0  0  0  0  0  0  0  0  0  0  0  0
   22.1382  -21.9557  -12.6791 O   0  0  0  0  0  0  0  0  0  0  0  0
  2  1  1  1
  2  3  1  0
  4  2  1  0
  4  5  1  6
  6  7  2  0
  6  4  1  0
  8  9  1  0
  9 10  2  0
 10 11  1  0
 12 11  2  0
 12 13  1  0
 14 13  1  1
 14 15  1  0
 15  6  1  0
 16 14  1  0
 17 16  2  0
 18 12  1  0
 19  9  1  0
 19 18  2  0
 21 22  1  0
 21 20  1  6
 23 21  1  0
 23 24  1  6
 24 16  1  0
 25 23  1  0
 26 25  2  0
 27 25  1  0
M  END
$$$$
