TYT.pdb
     RDKit          3D

 27 27  0  0  1  0  0  0  0  0999 V2000
   26.0434  -25.7698  -16.0458 C   0  0  0  0  0  0  0  0  0  0  0  0
   25.1402  -24.8605  -15.2622 C   0  0  1  0  0  0  0  0  0  0  0  0
   25.7515  -24.4384  -14.0923 O   0  0  0  0  0  0  0  0  0  0  0  0
   24.6299  -23.7081  -16.1012 C   0  0  2  0  0  0  0  0  0  0  0  0
   25.7523  -22.9566  -16.5876 N   0  0  0  0  0  0  0  0  0  0  0  0
   23.6673  -22.8616  -15.3464 C   0  0  0  0  0  0  0  0  0  0  0  0
   22.6166  -23.3954  -14.9522 O   0  0  0  0  0  0  0  0  0  0  0  0
   25.9407  -21.4244   -8.6897 O   0  0  0  0  0  0  0  0  0  0  0  0
   25.3726  -20.9676   -9.8961 C   0  0  0  0  0  0  0  0  0  0  0  0
   24.0711  -20.5208   -9.9403 C   0  0  0  0  0  0  0  0  0  0  0  0
   23.5408  -20.0783  -11.1397 C   0  0  0  0  0  0  0  0  0  0  0  0
   24.2700  -20.0659  -12.3068 C   0  0  0  0  0  0  0  0  0  0  0  0
   23.6580  -19.5876  -13.5362 C   0  0  0  0  0  0  0  0  0  0  0  0
   22.9602  -20.6427  -14.3534 C   0  0  2  0  0  0  0  0  0  0  0  0
   23.8855  -21.4951  -15.0581 N   0  0  0  0  0  0  0  0  0  0  0  0
   21.8527  -20.1548  -15.1820 C   0  0  0  0  0  0  0  0  0  0  0  0
   22.0823  -19.2892  -16.0700 O   0  0  0  0  0  0  0  0  0  0  0  0
   25.5678  -20.5077  -12.2796 C   0  0  0  0  0  0  0  0  0  0  0  0
   26.1023  -20.9550  -11.0649 C   0  0  0  0  0  0  0  0  0  0  0  0
   19.8595  -21.6248  -17.7748 C   0  0  0  0  0  0  0  0  0  0  0  0
   18.8721  -21.1422  -16.7358 C   0  0  1  0  0  0  0  0  0  0  0  0
   18.5805  -22.2073  -15.9093 O   0  0  0  0  0  0  0  0  0  0  0  0
   19.4482  -20.0003  -15.9134 C   0  0  2  0  0  0  0  0  0  0  0  0
   20.4990  -20.5800  -15.0787 N   0  0  0  0  0  0  0  0  0  0  0  0
   18.3747  -19.4452  -15.0618 C   0  0  0  0  0  0  0  0  0  0  0  0
   18.4139  -19.5586  -13.8121 O   0  0  0  0  0  0  0  0  0  0  0  0
   17.2962  -18.7852  -15.6030 O   0  0  0  0  0  0  0  0  0  0  0  0
  2  1  1  6
  2  3  1  0
  4  2  1  0
  4  5  1  1
  6  7  2  0
  6  4  1  0
  8  9  1  0
  9 10  2  0
 10 11  1  0
 12 11  2  0
 12 13  1  0
 14 13  1  6
 14 15  1  0
 15  6  1  0
 16 14  1  0
 17 16  2  0
 18 12  1  0
 19  9  1  0
 19 18  2  0
 21 22  1  0
 21 20  1  6
 23 21  1  0
 23 24  1  1
 24 16  1  0
 25 23  1  0
 26 25  2  0
 27 25  1  0
M  END
$$$$
