TYT.pdb
     RDKit          3D

 27 27  0  0  1  0  0  0  0  0999 V2000
   36.3441  -35.1558    1.9675 C   0  0  0  0  0  0  0  0  0  0  0  0
   35.8798  -34.0323    2.8502 C   0  0  1  0  0  0  0  0  0  0  0  0
   36.8498  -33.6970    3.7815 O   0  0  0  0  0  0  0  0  0  0  0  0
   35.4064  -32.8394    2.0471 C   0  0  2  0  0  0  0  0  0  0  0  0
   34.9792  -31.8110    2.9532 N   0  0  0  0  0  0  0  0  0  0  0  0
   34.3428  -33.2157    1.0774 C   0  0  0  0  0  0  0  0  0  0  0  0
   33.1835  -33.3310    1.5098 O   0  0  0  0  0  0  0  0  0  0  0  0
   29.7583  -34.5638   -6.3762 O   0  0  0  0  0  0  0  0  0  0  0  0
   30.7089  -34.1788   -5.4093 C   0  0  0  0  0  0  0  0  0  0  0  0
   30.3138  -33.6715   -4.1919 C   0  0  0  0  0  0  0  0  0  0  0  0
   31.2706  -33.3020   -3.2625 C   0  0  0  0  0  0  0  0  0  0  0  0
   32.6195  -33.4219   -3.5074 C   0  0  0  0  0  0  0  0  0  0  0  0
   33.5772  -33.0180   -2.4904 C   0  0  0  0  0  0  0  0  0  0  0  0
   33.5848  -33.8692   -1.2481 C   0  0  2  0  0  0  0  0  0  0  0  0
   34.5823  -33.4461   -0.2964 N   0  0  0  0  0  0  0  0  0  0  0  0
   33.5674  -35.3163   -1.4868 C   0  0  0  0  0  0  0  0  0  0  0  0
   34.5810  -35.8694   -1.9940 O   0  0  0  0  0  0  0  0  0  0  0  0
   33.0294  -33.9254   -4.7152 C   0  0  0  0  0  0  0  0  0  0  0  0
   32.0596  -34.2986   -5.6540 C   0  0  0  0  0  0  0  0  0  0  0  0
   33.2767  -38.3092    0.7613 C   0  0  0  0  0  0  0  0  0  0  0  0
   32.1568  -38.3605   -0.2539 C   0  0  1  0  0  0  0  0  0  0  0  0
   31.0443  -37.7822    0.3209 O   0  0  0  0  0  0  0  0  0  0  0  0
   32.5256  -37.6083   -1.5229 C   0  0  2  0  0  0  0  0  0  0  0  0
   32.4816  -36.1859   -1.1888 N   0  0  0  0  0  0  0  0  0  0  0  0
   31.5189  -37.9151   -2.5613 C   0  0  0  0  0  0  0  0  0  0  0  0
   31.4414  -39.0595   -3.0717 O   0  0  0  0  0  0  0  0  0  0  0  0
   30.6315  -36.9633   -3.0062 O   0  0  0  0  0  0  0  0  0  0  0  0
  2  1  1  6
  2  3  1  0
  4  2  1  0
  4  5  1  1
  6  7  2  0
  6  4  1  0
  8  9  1  0
  9 10  2  0
 10 11  1  0
 12 11  2  0
 12 13  1  0
 14 13  1  6
 14 15  1  0
 15  6  1  0
 16 14  1  0
 17 16  2  0
 18 12  1  0
 19  9  1  0
 19 18  2  0
 21 22  1  0
 21 20  1  1
 23 21  1  0
 23 24  1  1
 24 16  1  0
 25 23  1  0
 26 25  2  0
 27 25  1  0
M  END
$$$$
