TYT.pdb
     RDKit          3D

 27 27  0  0  1  0  0  0  0  0999 V2000
   26.8788  -20.5353  -17.4632 C   0  0  0  0  0  0  0  0  0  0  0  0
   27.3201  -21.9492  -17.7139 C   0  0  1  0  0  0  0  0  0  0  0  0
   28.2563  -22.0054  -18.7341 O   0  0  0  0  0  0  0  0  0  0  0  0
   27.7979  -22.6267  -16.4470 C   0  0  2  0  0  0  0  0  0  0  0  0
   28.1024  -23.9984  -16.7417 N   0  0  0  0  0  0  0  0  0  0  0  0
   26.8088  -22.4917  -15.3440 C   0  0  0  0  0  0  0  0  0  0  0  0
   25.8660  -23.3008  -15.3134 O   0  0  0  0  0  0  0  0  0  0  0  0
   23.2310  -20.5026   -7.4626 O   0  0  0  0  0  0  0  0  0  0  0  0
   24.0543  -20.5467   -8.6058 C   0  0  0  0  0  0  0  0  0  0  0  0
   25.3028  -21.1251   -8.5563 C   0  0  0  0  0  0  0  0  0  0  0  0
   26.0884  -21.1534   -9.6954 C   0  0  0  0  0  0  0  0  0  0  0  0
   25.6685  -20.6203  -10.8926 C   0  0  0  0  0  0  0  0  0  0  0  0
   26.5389  -20.6817  -12.0559 C   0  0  0  0  0  0  0  0  0  0  0  0
   25.9323  -21.3301  -13.2723 C   0  0  2  0  0  0  0  0  0  0  0  0
   26.8868  -21.5000  -14.3398 N   0  0  0  0  0  0  0  0  0  0  0  0
   24.6515  -20.7616  -13.7054 C   0  0  0  0  0  0  0  0  0  0  0  0
   24.6093  -19.5622  -14.0929 O   0  0  0  0  0  0  0  0  0  0  0  0
   24.4276  -20.0406  -10.9585 C   0  0  0  0  0  0  0  0  0  0  0  0
   23.6343  -20.0130   -9.8048 C   0  0  0  0  0  0  0  0  0  0  0  0
   22.6472  -21.2304  -16.5183 C   0  0  0  0  0  0  0  0  0  0  0  0
   21.6778  -21.4515  -15.3786 C   0  0  1  0  0  0  0  0  0  0  0  0
   21.5690  -22.8121  -15.1800 O   0  0  0  0  0  0  0  0  0  0  0  0
   22.1650  -20.7861  -14.1011 C   0  0  2  0  0  0  0  0  0  0  0  0
   23.4108  -21.4570  -13.7338 N   0  0  0  0  0  0  0  0  0  0  0  0
   21.1497  -20.9923  -13.0463 C   0  0  0  0  0  0  0  0  0  0  0  0
   21.3892  -21.7142  -12.0476 O   0  0  0  0  0  0  0  0  0  0  0  0
   19.9089  -20.4032  -13.1174 O   0  0  0  0  0  0  0  0  0  0  0  0
  2  1  1  1
  2  3  1  0
  4  2  1  0
  4  5  1  6
  6  7  2  0
  6  4  1  0
  8  9  1  0
  9 10  2  0
 10 11  1  0
 12 11  2  0
 12 13  1  0
 14 13  1  1
 14 15  1  0
 15  6  1  0
 16 14  1  0
 17 16  2  0
 18 12  1  0
 19  9  1  0
 19 18  2  0
 21 22  1  0
 21 20  1  6
 23 21  1  0
 23 24  1  1
 24 16  1  0
 25 23  1  0
 26 25  2  0
 27 25  1  0
M  END
$$$$
