TYT.pdb
     RDKit          3D

 27 27  0  0  1  0  0  0  0  0999 V2000
   14.2585   -2.5688   -8.2407 C   0  0  0  0  0  0  0  0  0  0  0  0
   13.7775   -3.8422   -8.8760 C   0  0  1  0  0  0  0  0  0  0  0  0
   12.4774   -4.1303   -8.4923 O   0  0  0  0  0  0  0  0  0  0  0  0
   13.9507   -3.8258  -10.3800 C   0  0  2  0  0  0  0  0  0  0  0  0
   13.1746   -4.8920  -10.9474 N   0  0  0  0  0  0  0  0  0  0  0  0
   15.3844   -3.9010  -10.7698 C   0  0  0  0  0  0  0  0  0  0  0  0
   16.1433   -3.0114  -10.3491 O   0  0  0  0  0  0  0  0  0  0  0  0
   22.7949   -7.0120  -14.7140 O   0  0  0  0  0  0  0  0  0  0  0  0
   21.5575   -6.8565  -14.0570 C   0  0  0  0  0  0  0  0  0  0  0  0
   20.3710   -7.0176  -14.7366 C   0  0  0  0  0  0  0  0  0  0  0  0
   19.1716   -6.8585  -14.0644 C   0  0  0  0  0  0  0  0  0  0  0  0
   19.1140   -6.5417  -12.7264 C   0  0  0  0  0  0  0  0  0  0  0  0
   17.8230   -6.3892  -12.0748 C   0  0  0  0  0  0  0  0  0  0  0  0
   17.2878   -4.9819  -12.0420 C   0  0  2  0  0  0  0  0  0  0  0  0
   15.9210   -4.9228  -11.5859 N   0  0  0  0  0  0  0  0  0  0  0  0
   17.5457   -4.1912  -13.2502 C   0  0  0  0  0  0  0  0  0  0  0  0
   16.8268   -4.3726  -14.2704 O   0  0  0  0  0  0  0  0  0  0  0  0
   20.2870   -6.3780  -12.0353 C   0  0  0  0  0  0  0  0  0  0  0  0
   21.4994   -6.5393  -12.7174 C   0  0  0  0  0  0  0  0  0  0  0  0
   18.6903   -0.3987  -13.3695 C   0  0  0  0  0  0  0  0  0  0  0  0
   18.1772   -1.1643  -14.5688 C   0  0  1  0  0  0  0  0  0  0  0  0
   18.4859   -0.4317  -15.6960 O   0  0  0  0  0  0  0  0  0  0  0  0
   18.8181   -2.5401  -14.6624 C   0  0  2  0  0  0  0  0  0  0  0  0
   18.5613   -3.2043  -13.3858 N   0  0  0  0  0  0  0  0  0  0  0  0
   20.2734   -2.3689  -14.8595 C   0  0  0  0  0  0  0  0  0  0  0  0
   21.0933   -2.7183  -13.9753 O   0  0  0  0  0  0  0  0  0  0  0  0
   20.7835   -1.8234  -16.0144 O   0  0  0  0  0  0  0  0  0  0  0  0
  2  1  1  6
  2  3  1  0
  4  2  1  0
  4  5  1  6
  6  7  2  0
  6  4  1  0
  8  9  1  0
  9 10  2  0
 10 11  1  0
 12 11  2  0
 12 13  1  0
 14 13  1  6
 14 15  1  0
 15  6  1  0
 16 14  1  0
 17 16  2  0
 18 12  1  0
 19  9  1  0
 19 18  2  0
 21 22  1  0
 21 20  1  1
 23 21  1  0
 23 24  1  1
 24 16  1  0
 25 23  1  0
 26 25  2  0
 27 25  1  0
M  END
$$$$
