TYT.pdb
     RDKit          3D

 27 27  0  0  1  0  0  0  0  0999 V2000
   28.4794  -23.6069  -19.2869 C   0  0  0  0  0  0  0  0  0  0  0  0
   27.8589  -23.5778  -17.9191 C   0  0  1  0  0  0  0  0  0  0  0  0
   28.7487  -24.0319  -16.9586 O   0  0  0  0  0  0  0  0  0  0  0  0
   27.2865  -22.2164  -17.5855 C   0  0  2  0  0  0  0  0  0  0  0  0
   28.3367  -21.2406  -17.6629 N   0  0  0  0  0  0  0  0  0  0  0  0
   26.6090  -22.2136  -16.2611 C   0  0  0  0  0  0  0  0  0  0  0  0
   25.6147  -22.9457  -16.1210 O   0  0  0  0  0  0  0  0  0  0  0  0
   24.5970  -20.1982   -7.8107 O   0  0  0  0  0  0  0  0  0  0  0  0
   25.2443  -20.3414   -9.0546 C   0  0  0  0  0  0  0  0  0  0  0  0
   25.6933  -21.5713   -9.4807 C   0  0  0  0  0  0  0  0  0  0  0  0
   26.3253  -21.6806  -10.7071 C   0  0  0  0  0  0  0  0  0  0  0  0
   26.5269  -20.5965  -11.5305 C   0  0  0  0  0  0  0  0  0  0  0  0
   27.1964  -20.7747  -12.8091 C   0  0  0  0  0  0  0  0  0  0  0  0
   26.3221  -21.2952  -13.9193 C   0  0  2  0  0  0  0  0  0  0  0  0
   27.0350  -21.4284  -15.1657 N   0  0  0  0  0  0  0  0  0  0  0  0
   25.0202  -20.6318  -14.0475 C   0  0  0  0  0  0  0  0  0  0  0  0
   24.9699  -19.4558  -14.5002 O   0  0  0  0  0  0  0  0  0  0  0  0
   26.0856  -19.3646  -11.1207 C   0  0  0  0  0  0  0  0  0  0  0  0
   25.4464  -19.2562   -9.8794 C   0  0  0  0  0  0  0  0  0  0  0  0
   22.3995  -20.5167  -16.2048 C   0  0  0  0  0  0  0  0  0  0  0  0
   21.7260  -20.8924  -14.9038 C   0  0  1  0  0  0  0  0  0  0  0  0
   21.6121  -22.2666  -14.8733 O   0  0  0  0  0  0  0  0  0  0  0  0
   22.5346  -20.4201  -13.7057 C   0  0  2  0  0  0  0  0  0  0  0  0
   23.7663  -21.2074  -13.7010 N   0  0  0  0  0  0  0  0  0  0  0  0
   21.7573  -20.6899  -12.4774 C   0  0  0  0  0  0  0  0  0  0  0  0
   22.1326  -21.5555  -11.6493 O   0  0  0  0  0  0  0  0  0  0  0  0
   20.5983  -20.0055  -12.1949 O   0  0  0  0  0  0  0  0  0  0  0  0
  2  1  1  6
  2  3  1  0
  4  2  1  0
  4  5  1  1
  6  7  2  0
  6  4  1  0
  8  9  1  0
  9 10  2  0
 10 11  1  0
 12 11  2  0
 12 13  1  0
 14 13  1  1
 14 15  1  0
 15  6  1  0
 16 14  1  0
 17 16  2  0
 18 12  1  0
 19  9  1  0
 19 18  2  0
 21 22  1  0
 21 20  1  6
 23 21  1  0
 23 24  1  1
 24 16  1  0
 25 23  1  0
 26 25  2  0
 27 25  1  0
M  END
$$$$
