TYT.pdb
     RDKit          3D

 27 27  0  0  1  0  0  0  0  0999 V2000
   22.9705   -8.5983  -19.0269 C   0  0  0  0  0  0  0  0  0  0  0  0
   22.2501   -9.9148  -19.0948 C   0  0  1  0  0  0  0  0  0  0  0  0
   22.8131  -10.7419  -20.0537 O   0  0  0  0  0  0  0  0  0  0  0  0
   22.1535  -10.5784  -17.7374 C   0  0  2  0  0  0  0  0  0  0  0  0
   21.5591  -11.8754  -17.8971 N   0  0  0  0  0  0  0  0  0  0  0  0
   21.4124   -9.7332  -16.7630 C   0  0  0  0  0  0  0  0  0  0  0  0
   20.1989   -9.5539  -16.9619 O   0  0  0  0  0  0  0  0  0  0  0  0
   18.3357   -5.4885   -9.7398 O   0  0  0  0  0  0  0  0  0  0  0  0
   19.0934   -6.2762  -10.6299 C   0  0  0  0  0  0  0  0  0  0  0  0
   20.4204   -5.9965  -10.8677 C   0  0  0  0  0  0  0  0  0  0  0  0
   21.1386   -6.7879  -11.7471 C   0  0  0  0  0  0  0  0  0  0  0  0
   20.5744   -7.8579  -12.4033 C   0  0  0  0  0  0  0  0  0  0  0  0
   21.3811   -8.6537  -13.3148 C   0  0  0  0  0  0  0  0  0  0  0  0
   21.3574   -8.1987  -14.7501 C   0  0  2  0  0  0  0  0  0  0  0  0
   22.0129   -9.1303  -15.6344 N   0  0  0  0  0  0  0  0  0  0  0  0
   21.7470   -6.8010  -14.9650 C   0  0  0  0  0  0  0  0  0  0  0  0
   22.9633   -6.4797  -14.8757 O   0  0  0  0  0  0  0  0  0  0  0  0
   19.2538   -8.1497  -12.1774 C   0  0  0  0  0  0  0  0  0  0  0  0
   18.5289   -7.3476  -11.2872 C   0  0  0  0  0  0  0  0  0  0  0  0
   20.9768   -2.4143  -17.0141 C   0  0  0  0  0  0  0  0  0  0  0  0
   20.5801   -3.8404  -16.7035 C   0  0  1  0  0  0  0  0  0  0  0  0
   20.8745   -4.6072  -17.8116 O   0  0  0  0  0  0  0  0  0  0  0  0
   21.3360   -4.3746  -15.4971 C   0  0  2  0  0  0  0  0  0  0  0  0
   20.8553   -5.7375  -15.2773 N   0  0  0  0  0  0  0  0  0  0  0  0
   21.0130   -3.5298  -14.3275 C   0  0  0  0  0  0  0  0  0  0  0  0
   19.8902   -3.5960  -13.7698 O   0  0  0  0  0  0  0  0  0  0  0  0
   21.9261   -2.6430  -13.8067 O   0  0  0  0  0  0  0  0  0  0  0  0
  2  1  1  1
  2  3  1  0
  4  2  1  0
  4  5  1  6
  6  7  2  0
  6  4  1  0
  8  9  1  0
  9 10  2  0
 10 11  1  0
 12 11  2  0
 12 13  1  0
 14 13  1  1
 14 15  1  0
 15  6  1  0
 16 14  1  0
 17 16  2  0
 18 12  1  0
 19  9  1  0
 19 18  2  0
 21 22  1  0
 21 20  1  6
 23 21  1  0
 23 24  1  1
 24 16  1  0
 25 23  1  0
 26 25  2  0
 27 25  1  0
M  END
$$$$
