TYT.pdb
     RDKit          3D

 27 27  0  0  1  0  0  0  0  0999 V2000
   18.5305  -10.2828  -19.1429 C   0  0  0  0  0  0  0  0  0  0  0  0
   19.8735  -10.8000  -18.7121 C   0  0  1  0  0  0  0  0  0  0  0  0
   20.3527  -11.7459  -19.6044 O   0  0  0  0  0  0  0  0  0  0  0  0
   20.8604   -9.6784  -18.4664 C   0  0  2  0  0  0  0  0  0  0  0  0
   22.1659  -10.2439  -18.2745 N   0  0  0  0  0  0  0  0  0  0  0  0
   20.4438   -8.8185  -17.3263 C   0  0  0  0  0  0  0  0  0  0  0  0
   19.2708   -8.4082  -17.3126 O   0  0  0  0  0  0  0  0  0  0  0  0
   19.4226   -5.6313   -9.2093 O   0  0  0  0  0  0  0  0  0  0  0  0
   19.9512   -6.2383  -10.3664 C   0  0  0  0  0  0  0  0  0  0  0  0
   19.4546   -7.4375  -10.8257 C   0  0  0  0  0  0  0  0  0  0  0  0
   19.9941   -8.0091  -11.9649 C   0  0  0  0  0  0  0  0  0  0  0  0
   21.0206   -7.4211  -12.6681 C   0  0  0  0  0  0  0  0  0  0  0  0
   21.5448   -8.0697  -13.8594 C   0  0  0  0  0  0  0  0  0  0  0  0
   20.9344   -7.6092  -15.1568 C   0  0  2  0  0  0  0  0  0  0  0  0
   21.3059   -8.4486  -16.2690 N   0  0  0  0  0  0  0  0  0  0  0  0
   21.0615   -6.1733  -15.4277 C   0  0  0  0  0  0  0  0  0  0  0  0
   22.2068   -5.6815  -15.6198 O   0  0  0  0  0  0  0  0  0  0  0  0
   21.5263   -6.2265  -12.2237 C   0  0  0  0  0  0  0  0  0  0  0  0
   20.9790   -5.6499  -11.0708 C   0  0  0  0  0  0  0  0  0  0  0  0
   19.3957   -4.0544  -18.1503 C   0  0  0  0  0  0  0  0  0  0  0  0
   19.1357   -3.4313  -16.7969 C   0  0  1  0  0  0  0  0  0  0  0  0
   17.9000   -3.8671  -16.3662 O   0  0  0  0  0  0  0  0  0  0  0  0
   20.1998   -3.8351  -15.7885 C   0  0  2  0  0  0  0  0  0  0  0  0
   19.9806   -5.2512  -15.4996 N   0  0  0  0  0  0  0  0  0  0  0  0
   20.0125   -3.0336  -14.5603 C   0  0  0  0  0  0  0  0  0  0  0  0
   19.5145   -3.5398  -13.5250 O   0  0  0  0  0  0  0  0  0  0  0  0
   20.3756   -1.7083  -14.5040 O   0  0  0  0  0  0  0  0  0  0  0  0
  2  1  1  6
  2  3  1  0
  4  2  1  0
  4  5  1  1
  6  7  2  0
  6  4  1  0
  8  9  1  0
  9 10  2  0
 10 11  1  0
 12 11  2  0
 12 13  1  0
 14 13  1  1
 14 15  1  0
 15  6  1  0
 16 14  1  0
 17 16  2  0
 18 12  1  0
 19  9  1  0
 19 18  2  0
 21 22  1  0
 21 20  1  6
 23 21  1  0
 23 24  1  1
 24 16  1  0
 25 23  1  0
 26 25  2  0
 27 25  1  0
M  END
$$$$
