IMQ.pdb
     RDKit          3D

 26 25  0  0  1  0  0  0  0  0999 V2000
   25.9243  -20.5433   -7.8873 C   0  0  0  0  0  0  0  0  0  0  0  0
   25.8646  -21.1093   -9.2878 C   0  0  0  0  0  0  0  0  0  0  0  0
   24.9232  -20.2428  -10.0974 C   0  0  2  0  0  0  0  0  0  0  0  0
   23.4739  -20.5110   -9.7077 C   0  0  0  0  0  0  0  0  0  0  0  0
   25.0561  -20.5700  -11.5737 C   0  0  2  0  0  0  0  0  0  0  0  0
   24.9215  -21.9993  -11.7281 N   0  0  0  0  0  0  0  0  0  0  0  0
   26.4197  -20.1080  -11.9928 C   0  0  0  0  0  0  0  0  0  0  0  0
   26.7073  -18.8872  -11.9923 O   0  0  0  0  0  0  0  0  0  0  0  0
   32.9265  -21.4636  -10.9445 C   0  0  0  0  0  0  0  0  0  0  0  0
   31.3671  -22.0368  -10.2519 S   0  0  0  0  0  0  0  0  0  0  0  0
   30.0062  -20.9621  -10.8570 C   0  0  0  0  0  0  0  0  0  0  0  0
   29.7653  -21.3493  -12.2768 C   0  0  0  0  0  0  0  0  0  0  0  0
   28.6965  -20.5944  -12.9865 C   0  0  2  0  0  0  0  0  0  0  0  0
   27.4238  -21.0194  -12.4005 N   0  0  0  0  0  0  0  0  0  0  0  0
   28.6080  -20.8723  -14.4445 C   0  0  0  0  0  0  0  0  0  0  0  0
   28.0441  -21.9522  -14.7682 O   0  0  0  0  0  0  0  0  0  0  0  0
   25.2101  -19.8293  -18.9497 N   0  0  0  0  0  0  0  0  0  0  0  0
   25.3850  -18.7029  -18.0561 C   0  0  0  0  0  0  0  0  0  0  0  0
   24.6565  -17.7262  -18.3207 O   0  0  0  0  0  0  0  0  0  0  0  0
   26.3662  -18.8253  -16.9735 C   0  0  0  0  0  0  0  0  0  0  0  0
   27.0990  -20.0928  -16.8257 C   0  0  0  0  0  0  0  0  0  0  0  0
   28.5882  -20.0525  -16.7830 C   0  0  2  0  0  0  0  0  0  0  0  0
   29.1018  -20.0249  -15.4364 N   0  0  0  0  0  0  0  0  0  0  0  0
   29.2529  -19.1121  -17.6803 C   0  0  0  0  0  0  0  0  0  0  0  0
   29.8253  -18.0723  -17.1930 O   0  0  0  0  0  0  0  0  0  0  0  0
   29.3084  -19.2689  -19.0477 O   0  0  0  0  0  0  0  0  0  0  0  0
  1  2  1  0
  3  4  1  1
  3  2  1  0
  5  3  1  0
  5  6  1  1
  7  5  1  0
  8  7  2  0
  9 10  1  0
 10 11  1  0
 11 12  1  0
 13 12  1  1
 13 14  1  0
 14  7  1  0
 15 13  1  0
 15 16  2  0
 17 18  1  0
 18 19  2  0
 18 20  1  0
 20 21  1  0
 22 21  1  1
 22 23  1  0
 23 15  1  0
 24 22  1  0
 24 26  1  0
 25 24  2  0
M  END
$$$$
