IMQ.pdb
     RDKit          3D

 26 25  0  0  1  0  0  0  0  0999 V2000
   29.0747  -11.7832  -16.4032 C   0  0  0  0  0  0  0  0  0  0  0  0
   27.8558  -12.6756  -16.3473 C   0  0  0  0  0  0  0  0  0  0  0  0
   26.6344  -11.8041  -16.5496 C   0  0  2  0  0  0  0  0  0  0  0  0
   26.4342  -10.8718  -15.3601 C   0  0  0  0  0  0  0  0  0  0  0  0
   25.3908  -12.6683  -16.6532 C   0  0  2  0  0  0  0  0  0  0  0  0
   25.6400  -13.6927  -17.6399 N   0  0  0  0  0  0  0  0  0  0  0  0
   24.2761  -11.7632  -17.0850 C   0  0  0  0  0  0  0  0  0  0  0  0
   24.2860  -11.2381  -18.2240 O   0  0  0  0  0  0  0  0  0  0  0  0
   16.7418  -11.4529  -17.6753 C   0  0  0  0  0  0  0  0  0  0  0  0
   18.3328  -12.1780  -17.2474 S   0  0  0  0  0  0  0  0  0  0  0  0
   19.5979  -10.8494  -17.1591 C   0  0  0  0  0  0  0  0  0  0  0  0
   20.8771  -11.5129  -16.7756 C   0  0  0  0  0  0  0  0  0  0  0  0
   22.0610  -10.6201  -16.6436 C   0  0  2  0  0  0  0  0  0  0  0  0
   23.1821  -11.4689  -16.2355 N   0  0  0  0  0  0  0  0  0  0  0  0
   21.9259   -9.5645  -15.6053 C   0  0  0  0  0  0  0  0  0  0  0  0
   22.8679   -9.4854  -14.7715 O   0  0  0  0  0  0  0  0  0  0  0  0
   24.6110   -5.3938  -16.3892 N   0  0  0  0  0  0  0  0  0  0  0  0
   23.7206   -4.6428  -15.5283 C   0  0  0  0  0  0  0  0  0  0  0  0
   24.1146   -3.4877  -15.2731 O   0  0  0  0  0  0  0  0  0  0  0  0
   22.4937   -5.2973  -15.0636 C   0  0  0  0  0  0  0  0  0  0  0  0
   22.2427   -6.6911  -15.4636 C   0  0  0  0  0  0  0  0  0  0  0  0
   20.9927   -7.3520  -14.9929 C   0  0  2  0  0  0  0  0  0  0  0  0
   20.8445   -8.6882  -15.5130 N   0  0  0  0  0  0  0  0  0  0  0  0
   19.7643   -6.5649  -15.0480 C   0  0  0  0  0  0  0  0  0  0  0  0
   18.9087   -6.7950  -15.9761 O   0  0  0  0  0  0  0  0  0  0  0  0
   19.4540   -5.5677  -14.1498 O   0  0  0  0  0  0  0  0  0  0  0  0
  1  2  1  0
  3  4  1  1
  3  2  1  0
  5  3  1  0
  5  6  1  6
  7  5  1  0
  8  7  2  0
  9 10  1  0
 10 11  1  0
 11 12  1  0
 13 12  1  1
 13 14  1  0
 14  7  1  0
 15 13  1  0
 15 16  2  0
 17 18  1  0
 18 19  2  0
 18 20  1  0
 20 21  1  0
 22 21  1  6
 22 23  1  0
 23 15  1  0
 24 22  1  0
 24 26  1  0
 25 24  2  0
M  END
$$$$
