IMQ.pdb
     RDKit          3D

 26 25  0  0  1  0  0  0  0  0999 V2000
   22.6043  -14.7500  -20.9264 C   0  0  0  0  0  0  0  0  0  0  0  0
   23.7960  -15.4321  -20.2943 C   0  0  0  0  0  0  0  0  0  0  0  0
   24.4925  -14.4205  -19.4090 C   0  0  2  0  0  0  0  0  0  0  0  0
   24.9446  -13.2129  -20.2224 C   0  0  0  0  0  0  0  0  0  0  0  0
   25.7370  -15.0364  -18.7956 C   0  0  2  0  0  0  0  0  0  0  0  0
   25.3290  -16.1736  -18.0048 N   0  0  0  0  0  0  0  0  0  0  0  0
   26.3591  -13.9768  -17.9361 C   0  0  0  0  0  0  0  0  0  0  0  0
   25.8636  -13.6887  -16.8205 O   0  0  0  0  0  0  0  0  0  0  0  0
   32.4124  -11.8100  -19.2279 C   0  0  0  0  0  0  0  0  0  0  0  0
   32.1965  -11.7843  -17.4411 S   0  0  0  0  0  0  0  0  0  0  0  0
   30.4572  -11.3431  -17.0492 C   0  0  0  0  0  0  0  0  0  0  0  0
   29.6089  -12.4225  -17.6315 C   0  0  0  0  0  0  0  0  0  0  0  0
   28.1374  -12.2213  -17.5316 C   0  0  2  0  0  0  0  0  0  0  0  0
   27.5154  -13.2686  -18.3440 N   0  0  0  0  0  0  0  0  0  0  0  0
   27.6537  -10.9219  -18.0685 C   0  0  0  0  0  0  0  0  0  0  0  0
   27.7032  -10.7884  -19.3210 O   0  0  0  0  0  0  0  0  0  0  0  0
   23.4143   -6.6816  -15.8698 N   0  0  0  0  0  0  0  0  0  0  0  0
   23.2719   -8.0792  -16.2223 C   0  0  0  0  0  0  0  0  0  0  0  0
   22.1619   -8.5666  -15.9308 O   0  0  0  0  0  0  0  0  0  0  0  0
   24.4083   -8.7500  -16.8613 C   0  0  0  0  0  0  0  0  0  0  0  0
   25.6444   -7.9837  -17.0861 C   0  0  0  0  0  0  0  0  0  0  0  0
   26.7490   -8.6249  -17.8541 C   0  0  2  0  0  0  0  0  0  0  0  0
   27.1650   -9.8800  -17.2802 N   0  0  0  0  0  0  0  0  0  0  0  0
   27.8619   -7.7695  -18.2557 C   0  0  0  0  0  0  0  0  0  0  0  0
   28.9268   -7.7424  -17.5404 O   0  0  0  0  0  0  0  0  0  0  0  0
   27.8460   -6.9701  -19.3774 O   0  0  0  0  0  0  0  0  0  0  0  0
  1  2  1  0
  3  4  1  6
  3  2  1  0
  5  3  1  0
  5  6  1  1
  7  5  1  0
  8  7  2  0
  9 10  1  0
 10 11  1  0
 11 12  1  0
 13 12  1  6
 13 14  1  0
 14  7  1  0
 15 13  1  0
 15 16  2  0
 17 18  1  0
 18 19  2  0
 18 20  1  0
 20 21  1  0
 22 21  1  1
 22 23  1  0
 23 15  1  0
 24 22  1  0
 24 26  1  0
 25 24  2  0
M  END
$$$$
