IMQ.pdb
     RDKit          3D

 26 25  0  0  1  0  0  0  0  0999 V2000
   20.3164  -19.4081  -15.7189 C   0  0  0  0  0  0  0  0  0  0  0  0
   21.7435  -19.2873  -15.2350 C   0  0  0  0  0  0  0  0  0  0  0  0
   21.8553  -20.0460  -13.9296 C   0  0  2  0  0  0  0  0  0  0  0  0
   20.8688  -19.5010  -12.9029 C   0  0  0  0  0  0  0  0  0  0  0  0
   23.2462  -19.8745  -13.3464 C   0  0  2  0  0  0  0  0  0  0  0  0
   24.2028  -20.3015  -14.3403 N   0  0  0  0  0  0  0  0  0  0  0  0
   23.3092  -20.7457  -12.1277 C   0  0  0  0  0  0  0  0  0  0  0  0
   23.1909  -21.9904  -12.2270 O   0  0  0  0  0  0  0  0  0  0  0  0
   26.6916  -18.8048   -7.2102 C   0  0  0  0  0  0  0  0  0  0  0  0
   26.6002  -20.5788   -6.9197 S   0  0  0  0  0  0  0  0  0  0  0  0
   24.9906  -21.2101   -7.5394 C   0  0  0  0  0  0  0  0  0  0  0  0
   24.7714  -20.5686   -8.8676 C   0  0  0  0  0  0  0  0  0  0  0  0
   23.5778  -21.0319   -9.6269 C   0  0  2  0  0  0  0  0  0  0  0  0
   23.5021  -20.2055  -10.8331 N   0  0  0  0  0  0  0  0  0  0  0  0
   22.2858  -20.8609   -8.9114 C   0  0  0  0  0  0  0  0  0  0  0  0
   21.6003  -19.8556   -9.2409 O   0  0  0  0  0  0  0  0  0  0  0  0
   18.2349  -25.4445   -9.3328 N   0  0  0  0  0  0  0  0  0  0  0  0
   18.2322  -24.1854  -10.0488 C   0  0  0  0  0  0  0  0  0  0  0  0
   18.0057  -24.2954  -11.2700 O   0  0  0  0  0  0  0  0  0  0  0  0
   18.4881  -22.9578   -9.2891 C   0  0  0  0  0  0  0  0  0  0  0  0
   19.8679  -22.4529   -9.2083 C   0  0  0  0  0  0  0  0  0  0  0  0
   20.4277  -22.1247   -7.8667 C   0  0  2  0  0  0  0  0  0  0  0  0
   21.8125  -21.7290   -7.9275 N   0  0  0  0  0  0  0  0  0  0  0  0
   20.1335  -23.0533   -6.7793 C   0  0  0  0  0  0  0  0  0  0  0  0
   21.0675  -23.8042   -6.3208 O   0  0  0  0  0  0  0  0  0  0  0  0
   18.8912  -23.1814   -6.1981 O   0  0  0  0  0  0  0  0  0  0  0  0
  1  2  1  0
  3  4  1  1
  3  2  1  0
  5  3  1  0
  5  6  1  6
  7  5  1  0
  8  7  2  0
  9 10  1  0
 10 11  1  0
 11 12  1  0
 13 12  1  1
 13 14  1  0
 14  7  1  0
 15 13  1  0
 15 16  2  0
 17 18  1  0
 18 19  2  0
 18 20  1  0
 20 21  1  0
 22 21  1  6
 22 23  1  0
 23 15  1  0
 24 22  1  0
 24 26  1  0
 25 24  2  0
M  END
$$$$
