IMQ.pdb
     RDKit          3D

 26 25  0  0  1  0  0  0  0  0999 V2000
   30.9717  -20.7197  -12.9995 C   0  0  0  0  0  0  0  0  0  0  0  0
   29.7501  -19.8527  -12.7968 C   0  0  0  0  0  0  0  0  0  0  0  0
   28.5273  -20.7115  -13.0410 C   0  0  2  0  0  0  0  0  0  0  0  0
   28.4864  -21.1928  -14.4871 C   0  0  0  0  0  0  0  0  0  0  0  0
   27.2666  -19.8995  -12.8054 C   0  0  2  0  0  0  0  0  0  0  0  0
   27.6602  -18.5795  -12.3723 N   0  0  0  0  0  0  0  0  0  0  0  0
   26.4942  -20.6106  -11.7347 C   0  0  0  0  0  0  0  0  0  0  0  0
   26.0036  -21.7448  -11.9491 O   0  0  0  0  0  0  0  0  0  0  0  0
   28.8162  -20.4618   -5.2656 C   0  0  0  0  0  0  0  0  0  0  0  0
   27.2548  -19.8873   -5.9527 S   0  0  0  0  0  0  0  0  0  0  0  0
   26.9902  -20.6738   -7.5912 C   0  0  0  0  0  0  0  0  0  0  0  0
   25.7477  -20.0689   -8.1514 C   0  0  0  0  0  0  0  0  0  0  0  0
   25.3259  -20.5662   -9.4895 C   0  0  2  0  0  0  0  0  0  0  0  0
   26.2906  -20.0378  -10.4559 N   0  0  0  0  0  0  0  0  0  0  0  0
   23.9843  -20.0985   -9.9277 C   0  0  0  0  0  0  0  0  0  0  0  0
   23.9205  -18.9083  -10.3379 O   0  0  0  0  0  0  0  0  0  0  0  0
   21.9241  -19.1155  -14.6153 N   0  0  0  0  0  0  0  0  0  0  0  0
   22.1297  -20.5214  -14.3337 C   0  0  0  0  0  0  0  0  0  0  0  0
   22.3787  -21.2109  -15.3422 O   0  0  0  0  0  0  0  0  0  0  0  0
   22.0261  -20.9696  -12.9416 C   0  0  0  0  0  0  0  0  0  0  0  0
   21.7615  -19.9685  -11.8959 C   0  0  0  0  0  0  0  0  0  0  0  0
   21.5945  -20.4351  -10.4904 C   0  0  2  0  0  0  0  0  0  0  0  0
   22.8331  -20.8860   -9.9071 N   0  0  0  0  0  0  0  0  0  0  0  0
   20.4641  -21.3166  -10.2135 C   0  0  0  0  0  0  0  0  0  0  0  0
   19.2881  -20.9734  -10.5950 O   0  0  0  0  0  0  0  0  0  0  0  0
   20.5771  -22.5208   -9.5542 O   0  0  0  0  0  0  0  0  0  0  0  0
  1  2  1  0
  3  4  1  6
  3  2  1  0
  5  3  1  0
  5  6  1  1
  7  5  1  0
  8  7  2  0
  9 10  1  0
 10 11  1  0
 11 12  1  0
 13 12  1  1
 13 14  1  0
 14  7  1  0
 15 13  1  0
 15 16  2  0
 17 18  1  0
 18 19  2  0
 18 20  1  0
 20 21  1  0
 22 21  1  6
 22 23  1  0
 23 15  1  0
 24 22  1  0
 24 26  1  0
 25 24  2  0
M  END
$$$$
