IMQ.pdb
     RDKit          3D

 26 25  0  0  1  0  0  0  0  0999 V2000
   25.6733  -21.7827   -8.7989 C   0  0  0  0  0  0  0  0  0  0  0  0
   26.3377  -20.5413   -9.3490 C   0  0  0  0  0  0  0  0  0  0  0  0
   25.8512  -20.3468  -10.7695 C   0  0  2  0  0  0  0  0  0  0  0  0
   26.2801  -21.5144  -11.6511 C   0  0  0  0  0  0  0  0  0  0  0  0
   26.4655  -19.0915  -11.3619 C   0  0  2  0  0  0  0  0  0  0  0  0
   26.1577  -17.9869  -10.4842 N   0  0  0  0  0  0  0  0  0  0  0  0
   25.8351  -18.9019  -12.7091 C   0  0  0  0  0  0  0  0  0  0  0  0
   24.6134  -18.6363  -12.8096 O   0  0  0  0  0  0  0  0  0  0  0  0
   28.8168  -15.9946  -17.3263 C   0  0  0  0  0  0  0  0  0  0  0  0
   28.2612  -17.3813  -18.3305 S   0  0  0  0  0  0  0  0  0  0  0  0
   26.7824  -18.1393  -17.5482 C   0  0  0  0  0  0  0  0  0  0  0  0
   27.1186  -18.3250  -16.1073 C   0  0  0  0  0  0  0  0  0  0  0  0
   26.0064  -18.7866  -15.2321 C   0  0  2  0  0  0  0  0  0  0  0  0
   26.5837  -19.0136  -13.9058 N   0  0  0  0  0  0  0  0  0  0  0  0
   25.3828  -20.0697  -15.6506 C   0  0  0  0  0  0  0  0  0  0  0  0
   26.0214  -21.1162  -15.3575 O   0  0  0  0  0  0  0  0  0  0  0  0
   20.2875  -22.0268  -11.9293 N   0  0  0  0  0  0  0  0  0  0  0  0
   20.9215  -21.0696  -12.8124 C   0  0  0  0  0  0  0  0  0  0  0  0
   20.2628  -20.0255  -12.9875 O   0  0  0  0  0  0  0  0  0  0  0  0
   22.2244  -21.4175  -13.3877 C   0  0  0  0  0  0  0  0  0  0  0  0
   22.8874  -20.4456  -14.2717 C   0  0  0  0  0  0  0  0  0  0  0  0
   23.0064  -20.7687  -15.7217 C   0  0  2  0  0  0  0  0  0  0  0  0
   24.1675  -20.1675  -16.3284 N   0  0  0  0  0  0  0  0  0  0  0  0
   21.7968  -20.6475  -16.5303 C   0  0  0  0  0  0  0  0  0  0  0  0
   21.5888  -19.5709  -17.1967 O   0  0  0  0  0  0  0  0  0  0  0  0
   20.8405  -21.6341  -16.6285 O   0  0  0  0  0  0  0  0  0  0  0  0
  1  2  1  0
  3  4  1  6
  3  2  1  0
  5  3  1  0
  5  6  1  1
  7  5  1  0
  8  7  2  0
  9 10  1  0
 10 11  1  0
 11 12  1  0
 13 12  1  6
 13 14  1  0
 14  7  1  0
 15 13  1  0
 15 16  2  0
 17 18  1  0
 18 19  2  0
 18 20  1  0
 20 21  1  0
 22 21  1  1
 22 23  1  0
 23 15  1  0
 24 22  1  0
 24 26  1  0
 25 24  2  0
M  END
$$$$
