IMQ.pdb
     RDKit          3D

 26 25  0  0  1  0  0  0  0  0999 V2000
   17.0982  -15.4532  -16.2605 C   0  0  0  0  0  0  0  0  0  0  0  0
   17.9363  -15.3171  -17.5113 C   0  0  0  0  0  0  0  0  0  0  0  0
   18.9051  -14.1735  -17.2970 C   0  0  2  0  0  0  0  0  0  0  0  0
   18.1544  -12.8667  -17.0669 C   0  0  0  0  0  0  0  0  0  0  0  0
   19.7648  -13.9823  -18.5334 C   0  0  2  0  0  0  0  0  0  0  0  0
   20.4824  -15.2122  -18.7727 N   0  0  0  0  0  0  0  0  0  0  0  0
   20.7085  -12.8577  -18.2280 C   0  0  0  0  0  0  0  0  0  0  0  0
   21.6175  -13.0019  -17.3758 O   0  0  0  0  0  0  0  0  0  0  0  0
   24.3194   -6.8589  -21.5721 C   0  0  0  0  0  0  0  0  0  0  0  0
   23.1079   -8.1901  -21.5559 S   0  0  0  0  0  0  0  0  0  0  0  0
   22.7872   -8.6937  -19.8189 C   0  0  0  0  0  0  0  0  0  0  0  0
   21.8903   -9.8831  -19.8856 C   0  0  0  0  0  0  0  0  0  0  0  0
   21.4978  -10.4783  -18.5788 C   0  0  2  0  0  0  0  0  0  0  0  0
   20.6127  -11.6049  -18.8807 N   0  0  0  0  0  0  0  0  0  0  0  0
   20.7354   -9.5643  -17.6878 C   0  0  0  0  0  0  0  0  0  0  0  0
   19.5551   -9.9140  -17.4165 O   0  0  0  0  0  0  0  0  0  0  0  0
   18.2376   -9.7533  -13.6654 N   0  0  0  0  0  0  0  0  0  0  0  0
   19.0884   -8.8803  -12.8830 C   0  0  0  0  0  0  0  0  0  0  0  0
   18.6202   -8.5807  -11.7669 O   0  0  0  0  0  0  0  0  0  0  0  0
   20.3648   -8.4554  -13.4658 C   0  0  0  0  0  0  0  0  0  0  0  0
   20.6919   -8.8824  -14.8356 C   0  0  0  0  0  0  0  0  0  0  0  0
   20.7754   -7.8457  -15.9029 C   0  0  2  0  0  0  0  0  0  0  0  0
   21.2457   -8.3798  -17.1565 N   0  0  0  0  0  0  0  0  0  0  0  0
   21.3909   -6.5714  -15.5440 C   0  0  0  0  0  0  0  0  0  0  0  0
   22.6537   -6.4127  -15.7069 O   0  0  0  0  0  0  0  0  0  0  0  0
   20.6912   -5.5021  -15.0297 O   0  0  0  0  0  0  0  0  0  0  0  0
  1  2  1  0
  3  4  1  6
  3  2  1  0
  5  3  1  0
  5  6  1  1
  7  5  1  0
  8  7  2  0
  9 10  1  0
 10 11  1  0
 11 12  1  0
 13 12  1  6
 13 14  1  0
 14  7  1  0
 15 13  1  0
 15 16  2  0
 17 18  1  0
 18 19  2  0
 18 20  1  0
 20 21  1  0
 22 21  1  1
 22 23  1  0
 23 15  1  0
 24 22  1  0
 24 26  1  0
 25 24  2  0
M  END
$$$$
