IMQ.pdb
     RDKit          3D

 26 25  0  0  1  0  0  0  0  0999 V2000
   31.7213  -10.7585  -21.3688 C   0  0  0  0  0  0  0  0  0  0  0  0
   30.5618  -10.3451  -20.4914 C   0  0  0  0  0  0  0  0  0  0  0  0
   31.1310   -9.6971  -19.2471 C   0  0  2  0  0  0  0  0  0  0  0  0
   32.2362   -8.7116  -19.6098 C   0  0  0  0  0  0  0  0  0  0  0  0
   31.7512  -10.7522  -18.3491 C   0  0  2  0  0  0  0  0  0  0  0  0
   30.7145  -11.6846  -17.9740 N   0  0  0  0  0  0  0  0  0  0  0  0
   32.2878  -10.0305  -17.1492 C   0  0  0  0  0  0  0  0  0  0  0  0
   31.5080   -9.4874  -16.3306 O   0  0  0  0  0  0  0  0  0  0  0  0
   37.2507  -12.0466  -13.2291 C   0  0  0  0  0  0  0  0  0  0  0  0
   37.7117  -10.4795  -13.9852 S   0  0  0  0  0  0  0  0  0  0  0  0
   36.2123   -9.4357  -14.1738 C   0  0  0  0  0  0  0  0  0  0  0  0
   35.4922   -9.9486  -15.3747 C   0  0  0  0  0  0  0  0  0  0  0  0
   34.2297   -9.2438  -15.7288 C   0  0  2  0  0  0  0  0  0  0  0  0
   33.6775   -9.9346  -16.8957 N   0  0  0  0  0  0  0  0  0  0  0  0
   34.4058   -7.8203  -16.1202 C   0  0  0  0  0  0  0  0  0  0  0  0
   34.3465   -7.5752  -17.3553 O   0  0  0  0  0  0  0  0  0  0  0  0
   31.5608   -4.8909  -18.5587 N   0  0  0  0  0  0  0  0  0  0  0  0
   31.6676   -3.7719  -17.6453 C   0  0  0  0  0  0  0  0  0  0  0  0
   31.2046   -2.7042  -18.0928 O   0  0  0  0  0  0  0  0  0  0  0  0
   32.2878   -4.0044  -16.3372 C   0  0  0  0  0  0  0  0  0  0  0  0
   32.8447   -5.3353  -16.0471 C   0  0  0  0  0  0  0  0  0  0  0  0
   34.2327   -5.4242  -15.5120 C   0  0  2  0  0  0  0  0  0  0  0  0
   34.6258   -6.7795  -15.2179 N   0  0  0  0  0  0  0  0  0  0  0  0
   34.6058   -4.4698  -14.4720 C   0  0  0  0  0  0  0  0  0  0  0  0
   34.4612   -3.2133  -14.6877 O   0  0  0  0  0  0  0  0  0  0  0  0
   35.1149   -4.8355  -13.2455 O   0  0  0  0  0  0  0  0  0  0  0  0
  1  2  1  0
  3  4  1  6
  3  2  1  0
  5  3  1  0
  5  6  1  1
  7  5  1  0
  8  7  2  0
  9 10  1  0
 10 11  1  0
 11 12  1  0
 13 12  1  6
 13 14  1  0
 14  7  1  0
 15 13  1  0
 15 16  2  0
 17 18  1  0
 18 19  2  0
 18 20  1  0
 20 21  1  0
 22 21  1  1
 22 23  1  0
 23 15  1  0
 24 22  1  0
 24 26  1  0
 25 24  2  0
M  END
$$$$
