IMQ.pdb
     RDKit          3D

 26 25  0  0  1  0  0  0  0  0999 V2000
   13.6853  -13.7126  -13.9702 C   0  0  0  0  0  0  0  0  0  0  0  0
   14.9833  -12.9569  -13.7989 C   0  0  0  0  0  0  0  0  0  0  0  0
   14.6486  -11.5728  -13.2845 C   0  0  2  0  0  0  0  0  0  0  0  0
   13.7566  -10.8310  -14.2736 C   0  0  0  0  0  0  0  0  0  0  0  0
   15.9181  -10.7553  -13.1287 C   0  0  2  0  0  0  0  0  0  0  0  0
   16.7765  -11.4383  -12.1898 N   0  0  0  0  0  0  0  0  0  0  0  0
   15.5012   -9.4147  -12.6021 C   0  0  0  0  0  0  0  0  0  0  0  0
   14.7492   -8.6708  -13.2761 O   0  0  0  0  0  0  0  0  0  0  0  0
   13.2333   -8.1197   -6.8932 C   0  0  0  0  0  0  0  0  0  0  0  0
   14.7074   -7.0873   -6.8575 S   0  0  0  0  0  0  0  0  0  0  0  0
   15.1108   -6.5511   -8.5672 C   0  0  0  0  0  0  0  0  0  0  0  0
   15.4170   -7.7921   -9.3351 C   0  0  0  0  0  0  0  0  0  0  0  0
   15.5583   -7.6298  -10.8080 C   0  0  2  0  0  0  0  0  0  0  0  0
   15.9340   -8.9412  -11.3398 N   0  0  0  0  0  0  0  0  0  0  0  0
   16.6230   -6.6798  -11.2255 C   0  0  0  0  0  0  0  0  0  0  0  0
   17.7797   -7.1654  -11.3493 O   0  0  0  0  0  0  0  0  0  0  0  0
   18.0160   -7.0794  -15.9680 N   0  0  0  0  0  0  0  0  0  0  0  0
   18.3459   -5.6707  -16.0359 C   0  0  0  0  0  0  0  0  0  0  0  0
   18.8708   -5.3227  -17.1120 O   0  0  0  0  0  0  0  0  0  0  0  0
   18.0394   -4.8322  -14.8728 C   0  0  0  0  0  0  0  0  0  0  0  0
   17.3545   -5.4441  -13.7230 C   0  0  0  0  0  0  0  0  0  0  0  0
   17.1423   -4.6190  -12.5001 C   0  0  2  0  0  0  0  0  0  0  0  0
   16.4109   -5.3244  -11.4778 N   0  0  0  0  0  0  0  0  0  0  0  0
   16.6918   -3.2443  -12.6967 C   0  0  0  0  0  0  0  0  0  0  0  0
   15.4346   -2.9950  -12.7574 O   0  0  0  0  0  0  0  0  0  0  0  0
   17.5454   -2.1708  -12.8248 O   0  0  0  0  0  0  0  0  0  0  0  0
  1  2  1  0
  3  4  1  6
  3  2  1  0
  5  3  1  0
  5  6  1  1
  7  5  1  0
  8  7  2  0
  9 10  1  0
 10 11  1  0
 11 12  1  0
 13 12  1  1
 13 14  1  0
 14  7  1  0
 15 13  1  0
 15 16  2  0
 17 18  1  0
 18 19  2  0
 18 20  1  0
 20 21  1  0
 22 21  1  6
 22 23  1  0
 23 15  1  0
 24 22  1  0
 24 26  1  0
 25 24  2  0
M  END
$$$$
