IMQ.pdb
     RDKit          3D

 26 25  0  0  1  0  0  0  0  0999 V2000
   29.8685  -16.7497  -16.6462 C   0  0  0  0  0  0  0  0  0  0  0  0
   28.4192  -16.5883  -16.2477 C   0  0  0  0  0  0  0  0  0  0  0  0
   27.9720  -17.8794  -15.5956 C   0  0  2  0  0  0  0  0  0  0  0  0
   28.1494  -19.0552  -16.5497 C   0  0  0  0  0  0  0  0  0  0  0  0
   26.4955  -17.8033  -15.2513 C   0  0  2  0  0  0  0  0  0  0  0  0
   26.2996  -16.6742  -14.3729 N   0  0  0  0  0  0  0  0  0  0  0  0
   26.1506  -19.0894  -14.5618 C   0  0  0  0  0  0  0  0  0  0  0  0
   26.1920  -20.1775  -15.1843 O   0  0  0  0  0  0  0  0  0  0  0  0
   26.3743  -19.2966   -8.3210 C   0  0  0  0  0  0  0  0  0  0  0  0
   26.2534  -21.0690   -8.6111 S   0  0  0  0  0  0  0  0  0  0  0  0
   25.3993  -21.3623  -10.2105 C   0  0  0  0  0  0  0  0  0  0  0  0
   25.8439  -20.2752  -11.1292 C   0  0  0  0  0  0  0  0  0  0  0  0
   25.3329  -20.3513  -12.5253 C   0  0  2  0  0  0  0  0  0  0  0  0
   25.7697  -19.1266  -13.1985 N   0  0  0  0  0  0  0  0  0  0  0  0
   23.8511  -20.3948  -12.6394 C   0  0  0  0  0  0  0  0  0  0  0  0
   23.2560  -19.2885  -12.5359 O   0  0  0  0  0  0  0  0  0  0  0  0
   20.2042  -24.9667  -15.2434 N   0  0  0  0  0  0  0  0  0  0  0  0
   19.2358  -24.0207  -14.7285 C   0  0  0  0  0  0  0  0  0  0  0  0
   18.0507  -24.3244  -14.9689 O   0  0  0  0  0  0  0  0  0  0  0  0
   19.7338  -22.8465  -14.0052 C   0  0  0  0  0  0  0  0  0  0  0  0
   21.1847  -22.7049  -13.8042 C   0  0  0  0  0  0  0  0  0  0  0  0
   21.6847  -21.5316  -13.0332 C   0  0  2  0  0  0  0  0  0  0  0  0
   23.1138  -21.5605  -12.8479 N   0  0  0  0  0  0  0  0  0  0  0  0
   20.9472  -21.1667  -11.8271 C   0  0  0  0  0  0  0  0  0  0  0  0
   19.9158  -20.4096  -11.9232 O   0  0  0  0  0  0  0  0  0  0  0  0
   21.2921  -21.5899  -10.5624 O   0  0  0  0  0  0  0  0  0  0  0  0
  1  2  1  0
  3  4  1  6
  3  2  1  0
  5  3  1  0
  5  6  1  1
  7  5  1  0
  8  7  2  0
  9 10  1  0
 10 11  1  0
 11 12  1  0
 13 12  1  1
 13 14  1  0
 14  7  1  0
 15 13  1  0
 15 16  2  0
 17 18  1  0
 18 19  2  0
 18 20  1  0
 20 21  1  0
 22 21  1  1
 22 23  1  0
 23 15  1  0
 24 22  1  0
 24 26  1  0
 25 24  2  0
M  END
$$$$
