IMQ.pdb
     RDKit          3D

 26 25  0  0  1  0  0  0  0  0999 V2000
   17.2283  -16.2733  -18.6233 C   0  0  0  0  0  0  0  0  0  0  0  0
   17.6695  -14.8988  -19.0720 C   0  0  0  0  0  0  0  0  0  0  0  0
   18.3883  -14.2420  -17.9125 C   0  0  2  0  0  0  0  0  0  0  0  0
   17.4580  -14.0975  -16.7134 C   0  0  0  0  0  0  0  0  0  0  0  0
   18.8342  -12.8443  -18.3022 C   0  0  2  0  0  0  0  0  0  0  0  0
   19.5943  -12.9430  -19.5259 N   0  0  0  0  0  0  0  0  0  0  0  0
   19.6865  -12.3384  -17.1770 C   0  0  0  0  0  0  0  0  0  0  0  0
   19.2207  -12.2463  -16.0161 O   0  0  0  0  0  0  0  0  0  0  0  0
   27.2096  -11.2686  -15.1649 C   0  0  0  0  0  0  0  0  0  0  0  0
   25.8842  -11.9874  -16.1480 S   0  0  0  0  0  0  0  0  0  0  0  0
   24.2839  -11.2418  -15.6416 C   0  0  0  0  0  0  0  0  0  0  0  0
   23.2526  -11.7927  -16.5672 C   0  0  0  0  0  0  0  0  0  0  0  0
   21.8537  -11.3447  -16.3262 C   0  0  2  0  0  0  0  0  0  0  0  0
   21.0332  -11.9496  -17.3773 N   0  0  0  0  0  0  0  0  0  0  0  0
   21.6508   -9.8748  -16.4204 C   0  0  0  0  0  0  0  0  0  0  0  0
   21.4152   -9.4220  -17.5730 O   0  0  0  0  0  0  0  0  0  0  0  0
   17.1583   -7.5937  -17.0943 N   0  0  0  0  0  0  0  0  0  0  0  0
   17.7183   -6.3463  -16.6165 C   0  0  0  0  0  0  0  0  0  0  0  0
   16.9570   -5.3666  -16.7405 O   0  0  0  0  0  0  0  0  0  0  0  0
   19.0737   -6.3663  -16.0579 C   0  0  0  0  0  0  0  0  0  0  0  0
   19.8008   -7.6451  -16.0163 C   0  0  0  0  0  0  0  0  0  0  0  0
   21.1559   -7.6729  -15.3968 C   0  0  2  0  0  0  0  0  0  0  0  0
   21.7069   -9.0033  -15.3327 N   0  0  0  0  0  0  0  0  0  0  0  0
   21.3404   -6.9052  -14.1688 C   0  0  0  0  0  0  0  0  0  0  0  0
   21.4856   -7.5236  -13.0539 O   0  0  0  0  0  0  0  0  0  0  0  0
   21.3697   -5.5287  -14.1246 O   0  0  0  0  0  0  0  0  0  0  0  0
  1  2  1  0
  3  4  1  1
  3  2  1  0
  5  3  1  0
  5  6  1  6
  7  5  1  0
  8  7  2  0
  9 10  1  0
 10 11  1  0
 11 12  1  0
 13 12  1  6
 13 14  1  0
 14  7  1  0
 15 13  1  0
 15 16  2  0
 17 18  1  0
 18 19  2  0
 18 20  1  0
 20 21  1  0
 22 21  1  1
 22 23  1  0
 23 15  1  0
 24 22  1  0
 24 26  1  0
 25 24  2  0
M  END
$$$$
