IMQ.pdb
     RDKit          3D

 26 25  0  0  1  0  0  0  0  0999 V2000
   16.3756  -13.8765  -18.1002 C   0  0  0  0  0  0  0  0  0  0  0  0
   17.8748  -13.7989  -17.9219 C   0  0  0  0  0  0  0  0  0  0  0  0
   18.1874  -12.5130  -17.1863 C   0  0  2  0  0  0  0  0  0  0  0  0
   17.7931  -11.3025  -18.0250 C   0  0  0  0  0  0  0  0  0  0  0  0
   19.6800  -12.4108  -16.9298 C   0  0  2  0  0  0  0  0  0  0  0  0
   20.0775  -13.5557  -16.1447 N   0  0  0  0  0  0  0  0  0  0  0  0
   19.8971  -11.1353  -16.1720 C   0  0  0  0  0  0  0  0  0  0  0  0
   19.4149  -10.9860  -15.0239 O   0  0  0  0  0  0  0  0  0  0  0  0
   24.9154   -5.0698  -16.2800 C   0  0  0  0  0  0  0  0  0  0  0  0
   24.3410   -6.7065  -16.7609 S   0  0  0  0  0  0  0  0  0  0  0  0
   22.7058   -7.0242  -15.9872 C   0  0  0  0  0  0  0  0  0  0  0  0
   22.2969   -8.3923  -16.4170 C   0  0  0  0  0  0  0  0  0  0  0  0
   20.9527   -8.8439  -15.9640 C   0  0  2  0  0  0  0  0  0  0  0  0
   20.6453  -10.0627  -16.7149 N   0  0  0  0  0  0  0  0  0  0  0  0
   19.8523   -7.8835  -16.2416 C   0  0  0  0  0  0  0  0  0  0  0  0
   19.4892   -7.7918  -17.4453 O   0  0  0  0  0  0  0  0  0  0  0  0
   13.2652   -5.2129  -15.5315 N   0  0  0  0  0  0  0  0  0  0  0  0
   14.3678   -6.0913  -15.1991 C   0  0  0  0  0  0  0  0  0  0  0  0
   14.0235   -7.1476  -14.6330 O   0  0  0  0  0  0  0  0  0  0  0  0
   15.7246   -5.6606  -15.5501 C   0  0  0  0  0  0  0  0  0  0  0  0
   16.8422   -6.5889  -15.3158 C   0  0  0  0  0  0  0  0  0  0  0  0
   18.2271   -6.1230  -15.6089 C   0  0  2  0  0  0  0  0  0  0  0  0
   19.2245   -7.1062  -15.2682 N   0  0  0  0  0  0  0  0  0  0  0  0
   18.5749   -4.7689  -15.1882 C   0  0  0  0  0  0  0  0  0  0  0  0
   17.9618   -3.7694  -15.7091 O   0  0  0  0  0  0  0  0  0  0  0  0
   19.5402   -4.4846  -14.2475 O   0  0  0  0  0  0  0  0  0  0  0  0
  1  2  1  0
  3  4  1  6
  3  2  1  0
  5  3  1  0
  5  6  1  1
  7  5  1  0
  8  7  2  0
  9 10  1  0
 10 11  1  0
 11 12  1  0
 13 12  1  6
 13 14  1  0
 14  7  1  0
 15 13  1  0
 15 16  2  0
 17 18  1  0
 18 19  2  0
 18 20  1  0
 20 21  1  0
 22 21  1  1
 22 23  1  0
 23 15  1  0
 24 22  1  0
 24 26  1  0
 25 24  2  0
M  END
$$$$
