IMQ.pdb
     RDKit          3D

 26 25  0  0  1  0  0  0  0  0999 V2000
   18.6670  -25.9327   -8.8792 C   0  0  0  0  0  0  0  0  0  0  0  0
   17.8660  -24.7455   -8.3952 C   0  0  0  0  0  0  0  0  0  0  0  0
   18.6677  -23.4953   -8.6894 C   0  0  2  0  0  0  0  0  0  0  0  0
   19.1893  -23.5138  -10.1218 C   0  0  0  0  0  0  0  0  0  0  0  0
   19.8774  -23.4267   -7.7750 C   0  0  2  0  0  0  0  0  0  0  0  0
   19.4038  -23.3415   -6.4136 N   0  0  0  0  0  0  0  0  0  0  0  0
   20.6353  -22.1917   -8.1609 C   0  0  0  0  0  0  0  0  0  0  0  0
   20.1072  -21.0593   -8.0512 O   0  0  0  0  0  0  0  0  0  0  0  0
   26.3251  -19.6003   -6.4087 C   0  0  0  0  0  0  0  0  0  0  0  0
   26.5296  -20.3059   -8.0520 S   0  0  0  0  0  0  0  0  0  0  0  0
   24.9832  -20.0592   -9.0119 C   0  0  0  0  0  0  0  0  0  0  0  0
   24.0494  -21.1421   -8.5889 C   0  0  0  0  0  0  0  0  0  0  0  0
   22.6776  -21.0820   -9.1637 C   0  0  2  0  0  0  0  0  0  0  0  0
   21.9598  -22.2535   -8.6578 N   0  0  0  0  0  0  0  0  0  0  0  0
   22.6256  -21.1585  -10.6476 C   0  0  0  0  0  0  0  0  0  0  0  0
   22.9179  -22.2751  -11.1541 O   0  0  0  0  0  0  0  0  0  0  0  0
   19.6174  -22.7770  -15.1567 N   0  0  0  0  0  0  0  0  0  0  0  0
   18.9080  -22.1288  -14.0729 C   0  0  0  0  0  0  0  0  0  0  0  0
   17.6688  -22.2548  -14.1292 O   0  0  0  0  0  0  0  0  0  0  0  0
   19.6941  -21.4174  -13.0602 C   0  0  0  0  0  0  0  0  0  0  0  0
   21.1616  -21.5159  -13.1089 C   0  0  0  0  0  0  0  0  0  0  0  0
   21.9654  -20.2838  -12.8703 C   0  0  2  0  0  0  0  0  0  0  0  0
   22.2810  -20.0912  -11.4771 N   0  0  0  0  0  0  0  0  0  0  0  0
   21.5272  -19.0646  -13.5432 C   0  0  0  0  0  0  0  0  0  0  0  0
   20.9826  -18.1265  -12.8578 O   0  0  0  0  0  0  0  0  0  0  0  0
   21.6617  -18.8477  -14.8969 O   0  0  0  0  0  0  0  0  0  0  0  0
  1  2  1  0
  3  4  1  6
  3  2  1  0
  5  3  1  0
  5  6  1  1
  7  5  1  0
  8  7  2  0
  9 10  1  0
 10 11  1  0
 11 12  1  0
 13 12  1  6
 13 14  1  0
 14  7  1  0
 15 13  1  0
 15 16  2  0
 17 18  1  0
 18 19  2  0
 18 20  1  0
 20 21  1  0
 22 21  1  1
 22 23  1  0
 23 15  1  0
 24 22  1  0
 24 26  1  0
 25 24  2  0
M  END
$$$$
