GAS.pdb
     RDKit          3D

 16 15  0  0  1  0  0  0  0  0999 V2000
    7.4198  -12.8871   17.5570 N   0  0  0  0  0  0  0  0  0  0  0  0
    8.5320  -13.6423   18.0579 C   0  0  0  0  0  0  0  0  0  0  0  0
    8.1921  -14.4375   19.2641 C   0  0  0  0  0  0  0  0  0  0  0  0
    7.1813  -14.0593   19.9209 O   0  0  0  0  0  0  0  0  0  0  0  0
    9.0896  -17.6816   20.9207 C   0  0  0  0  0  0  0  0  0  0  0  0
    8.5247  -16.2769   20.8734 C   0  0  2  0  0  0  0  0  0  0  0  0
    8.9276  -15.5648   19.6965 N   0  0  0  0  0  0  0  0  0  0  0  0
    9.0103  -15.5788   22.0906 C   0  0  0  0  0  0  0  0  0  0  0  0
   10.1578  -15.0892   22.1398 O   0  0  0  0  0  0  0  0  0  0  0  0
    6.4376  -15.0748   25.4004 O   0  0  0  0  0  0  0  0  0  0  0  0
    7.3789  -14.0810   25.1189 C   0  0  0  0  0  0  0  0  0  0  0  0
    8.5369  -14.7333   24.4204 C   0  0  2  0  0  0  0  0  0  0  0  0
    8.1808  -15.4480   23.2363 N   0  0  0  0  0  0  0  0  0  0  0  0
    9.2872  -15.5926   25.3845 C   0  0  0  0  0  0  0  0  0  0  0  0
    9.3912  -16.9639   25.2117 O   0  0  0  0  0  0  0  0  0  0  0  0
    9.8460  -15.0839   26.3836 O   0  0  0  0  0  0  0  0  0  0  0  0
  1  2  1  0
  2  3  1  0
  3  4  2  0
  6  5  1  6
  7  6  1  0
  7  3  1  0
  8  9  2  0
  8  6  1  0
 10 11  1  0
 12 11  1  1
 12 14  1  0
 12 13  1  0
 13  8  1  0
 14 15  1  0
 16 14  2  0
M  END
$$$$
