GAS.pdb
     RDKit          3D

 16 15  0  0  1  0  0  0  0  0999 V2000
   -4.8524  -28.7667   27.2486 N   0  0  0  0  0  0  0  0  0  0  0  0
   -4.0982  -27.5606   27.4343 C   0  0  0  0  0  0  0  0  0  0  0  0
   -4.9377  -26.3388   27.3602 C   0  0  0  0  0  0  0  0  0  0  0  0
   -4.4191  -25.2726   27.7964 O   0  0  0  0  0  0  0  0  0  0  0  0
   -8.1727  -25.1671   25.8427 C   0  0  0  0  0  0  0  0  0  0  0  0
   -6.9754  -25.0822   26.7668 C   0  0  2  0  0  0  0  0  0  0  0  0
   -6.2516  -26.3173   26.8388 N   0  0  0  0  0  0  0  0  0  0  0  0
   -7.4945  -24.7092   28.1070 C   0  0  0  0  0  0  0  0  0  0  0  0
   -8.2471  -25.4750   28.7441 O   0  0  0  0  0  0  0  0  0  0  0  0
   -5.5729  -21.8353   30.4198 O   0  0  0  0  0  0  0  0  0  0  0  0
   -6.3695  -22.8511   30.9550 C   0  0  0  0  0  0  0  0  0  0  0  0
   -7.5254  -23.0652   30.0210 C   0  0  2  0  0  0  0  0  0  0  0  0
   -7.1483  -23.4673   28.7035 N   0  0  0  0  0  0  0  0  0  0  0  0
   -8.3918  -21.8487   30.0049 C   0  0  0  0  0  0  0  0  0  0  0  0
   -9.0822  -21.4298   31.1314 O   0  0  0  0  0  0  0  0  0  0  0  0
   -8.5139  -21.1723   28.9578 O   0  0  0  0  0  0  0  0  0  0  0  0
  1  2  1  0
  2  3  1  0
  3  4  2  0
  6  5  1  6
  7  6  1  0
  7  3  1  0
  8  9  2  0
  8  6  1  0
 10 11  1  0
 12 11  1  1
 12 14  1  0
 12 13  1  0
 13  8  1  0
 14 15  1  0
 16 14  2  0
M  END
$$$$
