GAS.pdb
     RDKit          3D

 16 15  0  0  1  0  0  0  0  0999 V2000
   -1.4012  -25.9465   26.4682 N   0  0  0  0  0  0  0  0  0  0  0  0
   -2.6808  -25.3940   26.1287 C   0  0  0  0  0  0  0  0  0  0  0  0
   -3.2141  -24.4886   27.1770 C   0  0  0  0  0  0  0  0  0  0  0  0
   -3.3589  -24.9859   28.3293 O   0  0  0  0  0  0  0  0  0  0  0  0
   -4.0262  -20.8562   27.7153 C   0  0  0  0  0  0  0  0  0  0  0  0
   -4.0859  -22.3395   28.0165 C   0  0  2  0  0  0  0  0  0  0  0  0
   -3.5563  -23.1361   26.9490 N   0  0  0  0  0  0  0  0  0  0  0  0
   -5.5142  -22.6721   28.2491 C   0  0  0  0  0  0  0  0  0  0  0  0
   -6.2959  -22.8657   27.2949 O   0  0  0  0  0  0  0  0  0  0  0  0
   -6.8585  -25.2292   30.8612 O   0  0  0  0  0  0  0  0  0  0  0  0
   -7.4933  -24.0111   31.1183 C   0  0  0  0  0  0  0  0  0  0  0  0
   -7.3712  -23.1631   29.8854 C   0  0  2  0  0  0  0  0  0  0  0  0
   -6.0328  -22.7796   29.5672 N   0  0  0  0  0  0  0  0  0  0  0  0
   -8.2775  -21.9810   29.9956 C   0  0  0  0  0  0  0  0  0  0  0  0
   -9.6362  -22.0768   29.7390 O   0  0  0  0  0  0  0  0  0  0  0  0
   -7.8213  -20.8624   30.3270 O   0  0  0  0  0  0  0  0  0  0  0  0
  1  2  1  0
  2  3  1  0
  3  4  2  0
  6  5  1  6
  7  6  1  0
  7  3  1  0
  8  9  2  0
  8  6  1  0
 10 11  1  0
 12 11  1  1
 12 14  1  0
 12 13  1  0
 13  8  1  0
 14 15  1  0
 16 14  2  0
M  END
$$$$
