GAS.pdb
     RDKit          3D

 16 15  0  0  1  0  0  0  0  0999 V2000
    8.6196  -16.2308   19.2136 N   0  0  0  0  0  0  0  0  0  0  0  0
    9.4787  -16.0347   20.3457 C   0  0  0  0  0  0  0  0  0  0  0  0
    8.7399  -16.0123   21.6328 C   0  0  0  0  0  0  0  0  0  0  0  0
    7.5952  -15.4782   21.6151 O   0  0  0  0  0  0  0  0  0  0  0  0
    8.6663  -17.6200   24.9653 C   0  0  0  0  0  0  0  0  0  0  0  0
    8.4898  -16.4247   24.0517 C   0  0  2  0  0  0  0  0  0  0  0  0
    9.2459  -16.5462   22.8400 N   0  0  0  0  0  0  0  0  0  0  0  0
    8.9306  -15.2314   24.8176 C   0  0  0  0  0  0  0  0  0  0  0  0
   10.1065  -14.8176   24.7481 O   0  0  0  0  0  0  0  0  0  0  0  0
    6.0941  -12.9288   26.8661 O   0  0  0  0  0  0  0  0  0  0  0  0
    7.2613  -12.3112   26.4087 C   0  0  0  0  0  0  0  0  0  0  0  0
    8.3488  -13.3462   26.3906 C   0  0  2  0  0  0  0  0  0  0  0  0
    8.0243  -14.5253   25.6531 N   0  0  0  0  0  0  0  0  0  0  0  0
    8.7666  -13.6622   27.7893 C   0  0  0  0  0  0  0  0  0  0  0  0
    9.2876  -12.6926   28.6318 O   0  0  0  0  0  0  0  0  0  0  0  0
    8.6529  -14.8268   28.2361 O   0  0  0  0  0  0  0  0  0  0  0  0
  1  2  1  0
  2  3  1  0
  3  4  2  0
  6  5  1  1
  7  6  1  0
  7  3  1  0
  8  9  2  0
  8  6  1  0
 10 11  1  0
 12 11  1  1
 12 14  1  0
 12 13  1  0
 13  8  1  0
 14 15  1  0
 16 14  2  0
M  END
$$$$
