GAS.pdb
     RDKit          3D

 16 15  0  0  1  0  0  0  0  0999 V2000
    8.3495  -15.3693   13.9790 N   0  0  0  0  0  0  0  0  0  0  0  0
    7.6813  -15.3579   15.2484 C   0  0  0  0  0  0  0  0  0  0  0  0
    8.4645  -14.6712   16.3058 C   0  0  0  0  0  0  0  0  0  0  0  0
    9.6918  -14.4889   16.0680 O   0  0  0  0  0  0  0  0  0  0  0  0
    7.9600  -13.0325   19.6692 C   0  0  0  0  0  0  0  0  0  0  0  0
    8.7514  -13.5957   18.5068 C   0  0  2  0  0  0  0  0  0  0  0  0
    7.9137  -14.2262   17.5293 N   0  0  0  0  0  0  0  0  0  0  0  0
    9.7089  -14.5774   19.0762 C   0  0  0  0  0  0  0  0  0  0  0  0
    9.3993  -15.7797   19.2080 O   0  0  0  0  0  0  0  0  0  0  0  0
   14.2966  -15.5299   20.2438 O   0  0  0  0  0  0  0  0  0  0  0  0
   13.4117  -14.5060   19.8953 C   0  0  0  0  0  0  0  0  0  0  0  0
   12.0187  -15.0613   19.9693 C   0  0  2  0  0  0  0  0  0  0  0  0
   11.0075  -14.1750   19.4882 N   0  0  0  0  0  0  0  0  0  0  0  0
   11.7352  -15.5263   21.3601 C   0  0  0  0  0  0  0  0  0  0  0  0
   12.3034  -16.6817   21.8731 O   0  0  0  0  0  0  0  0  0  0  0  0
   10.9669  -14.8719   22.1021 O   0  0  0  0  0  0  0  0  0  0  0  0
  1  2  1  0
  2  3  1  0
  3  4  2  0
  6  5  1  1
  7  6  1  0
  7  3  1  0
  8  9  2  0
  8  6  1  0
 10 11  1  0
 12 11  1  1
 12 14  1  0
 12 13  1  0
 13  8  1  0
 14 15  1  0
 16 14  2  0
M  END
$$$$
