GAS.pdb
     RDKit          3D

 16 15  0  0  1  0  0  0  0  0999 V2000
    7.1737  -12.9535   17.2838 N   0  0  0  0  0  0  0  0  0  0  0  0
    8.2315  -13.8282   17.7010 C   0  0  0  0  0  0  0  0  0  0  0  0
    7.8986  -14.5893   18.9310 C   0  0  0  0  0  0  0  0  0  0  0  0
    7.0195  -14.0839   19.6846 O   0  0  0  0  0  0  0  0  0  0  0  0
    8.5322  -17.9180   20.5460 C   0  0  0  0  0  0  0  0  0  0  0  0
    8.1780  -16.4453   20.5312 C   0  0  2  0  0  0  0  0  0  0  0  0
    8.5037  -15.8169   19.2848 N   0  0  0  0  0  0  0  0  0  0  0  0
    8.9336  -15.8119   21.6415 C   0  0  0  0  0  0  0  0  0  0  0  0
   10.0873  -15.3679   21.4667 O   0  0  0  0  0  0  0  0  0  0  0  0
    6.9484  -14.9246   25.2158 O   0  0  0  0  0  0  0  0  0  0  0  0
    8.0206  -14.1280   24.8050 C   0  0  0  0  0  0  0  0  0  0  0  0
    8.9665  -14.9993   24.0301 C   0  0  2  0  0  0  0  0  0  0  0  0
    8.3634  -15.6930   22.9372 N   0  0  0  0  0  0  0  0  0  0  0  0
    9.6695  -15.9319   24.9613 C   0  0  0  0  0  0  0  0  0  0  0  0
   10.6110  -15.4805   25.8728 O   0  0  0  0  0  0  0  0  0  0  0  0
    9.4187  -17.1589   24.9370 O   0  0  0  0  0  0  0  0  0  0  0  0
  1  2  1  0
  2  3  1  0
  3  4  2  0
  6  5  1  6
  7  6  1  0
  7  3  1  0
  8  9  2  0
  8  6  1  0
 10 11  1  0
 12 11  1  1
 12 14  1  0
 12 13  1  0
 13  8  1  0
 14 15  1  0
 16 14  2  0
M  END
$$$$
