MLK.pdb
     RDKit          3D

 26 25  0  0  1  0  0  0  0  0999 V2000
   23.1650  -32.8544   -7.1704 C   0  0  0  0  0  0  0  0  0  0  0  0
   24.2982  -31.5293   -7.6682 S   0  0  0  0  0  0  0  0  0  0  0  0
   25.7651  -32.2006   -8.5002 C   0  0  0  0  0  0  0  0  0  0  0  0
   26.4871  -33.1095   -7.5038 C   0  0  0  0  0  0  0  0  0  0  0  0
   27.5271  -33.8583   -8.3108 C   0  0  2  0  0  0  0  0  0  0  0  0
   26.8838  -34.7985   -9.2093 N   0  0  0  0  0  0  0  0  0  0  0  0
   28.5079  -34.5662   -7.4303 C   0  0  0  0  0  0  0  0  0  0  0  0
   28.3492  -35.7786   -7.1143 O   0  0  0  0  0  0  0  0  0  0  0  0
   33.5393  -35.6921   -5.6416 C   0  0  0  0  0  0  0  0  0  0  0  0
   32.9761  -34.3737   -5.1534 C   0  0  1  0  0  0  0  0  0  0  0  0
   34.1590  -33.3835   -5.2921 C   0  0  0  0  0  0  0  0  0  0  0  0
   31.8934  -33.8422   -6.0009 C   0  0  0  0  0  0  0  0  0  0  0  0
   30.6174  -34.6322   -6.0327 C   0  0  2  0  0  0  0  0  0  0  0  0
   29.6520  -33.9157   -6.9137 N   0  0  0  0  0  0  0  0  0  0  0  0
   30.0136  -34.6256   -4.6877 C   0  0  0  0  0  0  0  0  0  0  0  0
   29.1902  -33.6676   -4.4491 O   0  0  0  0  0  0  0  0  0  0  0  0
   30.2444  -35.5560   -3.6602 N   0  0  0  0  0  0  0  0  0  0  0  0
   29.4577  -35.4221   -2.3802 C   0  0  1  0  0  0  0  0  0  0  0  0
   28.2624  -36.2712   -2.6430 C   0  0  0  0  0  0  0  0  0  0  0  0
   27.3134  -36.6596   -1.6185 C   0  0  0  0  0  0  0  0  0  0  0  0
   26.1547  -37.5263   -1.8949 C   0  0  0  0  0  0  0  0  0  0  0  0
   25.3540  -37.6848   -0.5690 C   0  0  0  0  0  0  0  0  0  0  0  0
   24.0913  -38.3488   -0.8435 N   0  0  0  0  0  0  0  0  0  0  0  0
   30.3890  -35.9190   -1.3537 C   0  0  0  0  0  0  0  0  0  0  0  0
   30.1599  -35.5492   -0.0091 O   0  0  0  0  0  0  0  0  0  0  0  0
   31.4021  -36.6658   -1.5883 O   0  0  0  0  0  0  0  0  0  0  0  0
  2  1  1  0
  3  2  1  0
  4  3  1  0
  4  5  1  0
  5  6  1  6
  7  5  1  0
  7  8  2  0
 10 11  1  6
 10  9  1  0
 12 10  1  0
 13 12  1  1
 13 14  1  0
 14  7  1  0
 15 13  1  0
 16 15  2  0
 17 15  1  0
 18 24  1  0
 18 17  1  0
 18 19  1  6
 20 19  1  0
 21 20  1  0
 22 21  1  0
 23 22  1  0
 24 25  1  0
 26 24  2  0
M  END
$$$$
