MLK.pdb
     RDKit          3D

 26 25  0  0  1  0  0  0  0  0999 V2000
   16.8946  -13.8612  -14.3956 C   0  0  0  0  0  0  0  0  0  0  0  0
   15.3970  -13.1754  -15.1536 S   0  0  0  0  0  0  0  0  0  0  0  0
   15.4607  -11.3621  -15.2047 C   0  0  0  0  0  0  0  0  0  0  0  0
   16.2847  -10.8938  -14.0040 C   0  0  0  0  0  0  0  0  0  0  0  0
   16.2259   -9.3808  -14.0313 C   0  0  2  0  0  0  0  0  0  0  0  0
   16.9923   -8.8688  -15.1518 N   0  0  0  0  0  0  0  0  0  0  0  0
   16.7145   -8.7839  -12.7493 C   0  0  0  0  0  0  0  0  0  0  0  0
   16.3301   -9.2272  -11.6311 O   0  0  0  0  0  0  0  0  0  0  0  0
   21.7357   -6.2697  -12.3215 C   0  0  0  0  0  0  0  0  0  0  0  0
   20.5053   -7.1048  -12.0344 C   0  0  1  0  0  0  0  0  0  0  0  0
   20.8741   -7.8917  -10.7524 C   0  0  0  0  0  0  0  0  0  0  0  0
   19.3129   -6.3061  -11.6979 C   0  0  0  0  0  0  0  0  0  0  0  0
   18.0442   -7.0682  -11.4470 C   0  0  2  0  0  0  0  0  0  0  0  0
   17.6245   -7.7019  -12.7291 N   0  0  0  0  0  0  0  0  0  0  0  0
   16.9722   -6.1173  -11.1002 C   0  0  0  0  0  0  0  0  0  0  0  0
   16.4857   -5.4415  -12.0795 O   0  0  0  0  0  0  0  0  0  0  0  0
   16.4360   -5.8878   -9.8217 N   0  0  0  0  0  0  0  0  0  0  0  0
   15.3455   -4.8559   -9.6750 C   0  0  1  0  0  0  0  0  0  0  0  0
   14.4506   -5.4715   -8.6558 C   0  0  0  0  0  0  0  0  0  0  0  0
   13.5657   -6.5855   -8.9333 C   0  0  0  0  0  0  0  0  0  0  0  0
   12.6057   -7.1045   -7.9437 C   0  0  0  0  0  0  0  0  0  0  0  0
   11.7883   -8.2403   -8.6263 C   0  0  0  0  0  0  0  0  0  0  0  0
   10.7944   -8.7469   -7.6956 N   0  0  0  0  0  0  0  0  0  0  0  0
   16.0732   -3.6486   -9.2498 C   0  0  0  0  0  0  0  0  0  0  0  0
   15.4071   -2.4047   -9.3297 O   0  0  0  0  0  0  0  0  0  0  0  0
   17.2759   -3.6385   -8.8112 O   0  0  0  0  0  0  0  0  0  0  0  0
  2  1  1  0
  3  2  1  0
  4  3  1  0
  4  5  1  0
  5  6  1  6
  7  5  1  0
  7  8  2  0
 10 11  1  1
 10  9  1  0
 12 10  1  0
 13 12  1  6
 13 14  1  0
 14  7  1  0
 15 13  1  0
 16 15  2  0
 17 15  1  0
 18 24  1  0
 18 17  1  0
 18 19  1  1
 20 19  1  0
 21 20  1  0
 22 21  1  0
 23 22  1  0
 24 25  1  0
 26 24  2  0
M  END
$$$$
