MLK.pdb
     RDKit          3D

 26 25  0  0  1  0  0  0  0  0999 V2000
   29.6722  -20.7949  -17.8556 C   0  0  0  0  0  0  0  0  0  0  0  0
   28.9096  -19.2001  -18.2593 S   0  0  0  0  0  0  0  0  0  0  0  0
   28.1818  -18.4308  -16.7851 C   0  0  0  0  0  0  0  0  0  0  0  0
   27.5690  -19.5458  -15.9358 C   0  0  0  0  0  0  0  0  0  0  0  0
   26.4991  -18.8804  -15.0956 C   0  0  2  0  0  0  0  0  0  0  0  0
   27.1065  -18.0044  -14.1112 N   0  0  0  0  0  0  0  0  0  0  0  0
   25.6161  -19.8850  -14.4251 C   0  0  0  0  0  0  0  0  0  0  0  0
   25.0617  -20.8114  -15.0802 O   0  0  0  0  0  0  0  0  0  0  0  0
   26.2189  -20.7714   -8.9101 C   0  0  0  0  0  0  0  0  0  0  0  0
   26.0772  -20.9305  -10.4096 C   0  0  1  0  0  0  0  0  0  0  0  0
   26.4481  -22.4118  -10.6686 C   0  0  0  0  0  0  0  0  0  0  0  0
   24.6956  -20.7616  -10.8950 C   0  0  0  0  0  0  0  0  0  0  0  0
   24.4893  -20.8598  -12.3787 C   0  0  2  0  0  0  0  0  0  0  0  0
   25.3623  -19.8453  -13.0347 N   0  0  0  0  0  0  0  0  0  0  0  0
   23.1055  -20.4651  -12.6993 C   0  0  0  0  0  0  0  0  0  0  0  0
   22.7972  -19.2448  -12.4380 O   0  0  0  0  0  0  0  0  0  0  0  0
   22.1091  -21.2818  -13.2604 N   0  0  0  0  0  0  0  0  0  0  0  0
   20.7593  -20.6729  -13.5482 C   0  0  1  0  0  0  0  0  0  0  0  0
   20.6937  -20.7162  -15.0356 C   0  0  0  0  0  0  0  0  0  0  0  0
   19.5689  -20.2204  -15.8037 C   0  0  0  0  0  0  0  0  0  0  0  0
   19.4498  -20.4190  -17.2586 C   0  0  0  0  0  0  0  0  0  0  0  0
   18.1018  -19.7871  -17.7146 C   0  0  0  0  0  0  0  0  0  0  0  0
   17.9465  -19.9625  -19.1485 N   0  0  0  0  0  0  0  0  0  0  0  0
   19.8257  -21.5604  -12.8351 C   0  0  0  0  0  0  0  0  0  0  0  0
   18.5551  -21.0502  -12.4850 O   0  0  0  0  0  0  0  0  0  0  0  0
   20.0798  -22.7702  -12.5022 O   0  0  0  0  0  0  0  0  0  0  0  0
  2  1  1  0
  3  2  1  0
  4  3  1  0
  4  5  1  0
  5  6  1  1
  7  5  1  0
  7  8  2  0
 10 11  1  1
 10  9  1  0
 12 10  1  0
 13 12  1  1
 13 14  1  0
 14  7  1  0
 15 13  1  0
 16 15  2  0
 17 15  1  0
 18 24  1  0
 18 17  1  0
 18 19  1  6
 20 19  1  0
 21 20  1  0
 22 21  1  0
 23 22  1  0
 24 25  1  0
 26 24  2  0
M  END
$$$$
