MLK.pdb
     RDKit          3D

 26 25  0  0  1  0  0  0  0  0999 V2000
   27.2872  -22.1710  -15.8970 C   0  0  0  0  0  0  0  0  0  0  0  0
   28.6909  -21.0235  -15.9238 S   0  0  0  0  0  0  0  0  0  0  0  0
   29.3131  -20.7113  -14.2475 C   0  0  0  0  0  0  0  0  0  0  0  0
   28.2539  -21.2060  -13.2609 C   0  0  0  0  0  0  0  0  0  0  0  0
   28.7109  -20.7325  -11.8970 C   0  0  2  0  0  0  0  0  0  0  0  0
   30.0149  -21.2865  -11.5843 N   0  0  0  0  0  0  0  0  0  0  0  0
   27.7248  -21.0854  -10.8285 C   0  0  0  0  0  0  0  0  0  0  0  0
   26.8600  -21.9883  -11.0067 O   0  0  0  0  0  0  0  0  0  0  0  0
   28.4152  -18.8062   -5.7075 C   0  0  0  0  0  0  0  0  0  0  0  0
   28.2117  -19.7770   -6.8520 C   0  0  1  0  0  0  0  0  0  0  0  0
   28.3759  -21.1713   -6.1979 C   0  0  0  0  0  0  0  0  0  0  0  0
   26.8515  -19.7466   -7.4195 C   0  0  0  0  0  0  0  0  0  0  0  0
   26.6003  -20.6300   -8.6069 C   0  0  2  0  0  0  0  0  0  0  0  0
   27.7145  -20.4290   -9.5763 N   0  0  0  0  0  0  0  0  0  0  0  0
   25.3808  -20.1725   -9.2976 C   0  0  0  0  0  0  0  0  0  0  0  0
   25.3887  -18.9503   -9.6959 O   0  0  0  0  0  0  0  0  0  0  0  0
   24.2311  -20.9356   -9.5631 N   0  0  0  0  0  0  0  0  0  0  0  0
   23.1232  -20.3075  -10.3715 C   0  0  1  0  0  0  0  0  0  0  0  0
   23.1258  -21.1249  -11.6167 C   0  0  0  0  0  0  0  0  0  0  0  0
   22.0864  -21.0548  -12.6244 C   0  0  0  0  0  0  0  0  0  0  0  0
   22.1061  -21.8778  -13.8461 C   0  0  0  0  0  0  0  0  0  0  0  0
   20.7900  -21.5961  -14.6290 C   0  0  0  0  0  0  0  0  0  0  0  0
   20.7419  -22.4380  -15.8122 N   0  0  0  0  0  0  0  0  0  0  0  0
   21.9422  -20.4558   -9.5048 C   0  0  0  0  0  0  0  0  0  0  0  0
   22.0121  -21.3735   -8.4323 O   0  0  0  0  0  0  0  0  0  0  0  0
   20.8448  -19.8129   -9.6511 O   0  0  0  0  0  0  0  0  0  0  0  0
  2  1  1  0
  3  2  1  0
  4  3  1  0
  4  5  1  0
  5  6  1  1
  7  5  1  0
  7  8  2  0
 10 11  1  1
 10  9  1  0
 12 10  1  0
 13 12  1  1
 13 14  1  0
 14  7  1  0
 15 13  1  0
 16 15  2  0
 17 15  1  0
 18 24  1  0
 18 17  1  0
 18 19  1  6
 20 19  1  0
 21 20  1  0
 22 21  1  0
 23 22  1  0
 24 25  1  0
 26 24  2  0
M  END
$$$$
