MLK.pdb
     RDKit          3D

 26 25  0  0  1  0  0  0  0  0999 V2000
   15.6101  -11.4394  -19.9626 C   0  0  0  0  0  0  0  0  0  0  0  0
   15.8416  -13.2082  -20.2875 S   0  0  0  0  0  0  0  0  0  0  0  0
   17.3163  -13.8418  -19.4397 C   0  0  0  0  0  0  0  0  0  0  0  0
   17.5907  -12.9288  -18.2435 C   0  0  0  0  0  0  0  0  0  0  0  0
   18.8066  -13.5110  -17.5537 C   0  0  2  0  0  0  0  0  0  0  0  0
   18.4854  -14.8023  -16.9753 N   0  0  0  0  0  0  0  0  0  0  0  0
   19.3435  -12.5890  -16.5047 C   0  0  0  0  0  0  0  0  0  0  0  0
   18.7013  -12.3606  -15.4416 O   0  0  0  0  0  0  0  0  0  0  0  0
   22.9436  -10.1308  -13.2570 C   0  0  0  0  0  0  0  0  0  0  0  0
   23.2415  -10.0320  -14.7387 C   0  0  1  0  0  0  0  0  0  0  0  0
   24.7551  -10.3444  -14.8408 C   0  0  0  0  0  0  0  0  0  0  0  0
   22.5552  -11.0535  -15.5501 C   0  0  0  0  0  0  0  0  0  0  0  0
   21.0618  -10.9385  -15.6500 C   0  0  2  0  0  0  0  0  0  0  0  0
   20.5877  -11.9340  -16.6529 N   0  0  0  0  0  0  0  0  0  0  0  0
   20.7170   -9.6164  -16.2040 C   0  0  0  0  0  0  0  0  0  0  0  0
   21.0743   -9.4095  -17.4214 O   0  0  0  0  0  0  0  0  0  0  0  0
   20.0399   -8.5795  -15.5397 N   0  0  0  0  0  0  0  0  0  0  0  0
   19.7432   -7.3120  -16.3018 C   0  0  1  0  0  0  0  0  0  0  0  0
   18.2851   -7.1230  -16.0630 C   0  0  0  0  0  0  0  0  0  0  0  0
   17.5774   -5.8921  -16.3546 C   0  0  0  0  0  0  0  0  0  0  0  0
   16.1427   -5.7133  -16.0719 C   0  0  0  0  0  0  0  0  0  0  0  0
   15.7538   -4.2649  -16.4905 C   0  0  0  0  0  0  0  0  0  0  0  0
   14.3069   -4.1335  -16.4891 N   0  0  0  0  0  0  0  0  0  0  0  0
   20.6334   -6.3208  -15.6750 C   0  0  0  0  0  0  0  0  0  0  0  0
   20.9800   -5.1700  -16.4186 O   0  0  0  0  0  0  0  0  0  0  0  0
   21.1246   -6.4234  -14.4972 O   0  0  0  0  0  0  0  0  0  0  0  0
  2  1  1  0
  3  2  1  0
  4  3  1  0
  4  5  1  0
  5  6  1  1
  7  5  1  0
  7  8  2  0
 10 11  1  1
 10  9  1  0
 12 10  1  0
 13 12  1  6
 13 14  1  0
 14  7  1  0
 15 13  1  0
 16 15  2  0
 17 15  1  0
 18 24  1  0
 18 17  1  0
 18 19  1  1
 20 19  1  0
 21 20  1  0
 22 21  1  0
 23 22  1  0
 24 25  1  0
 26 24  2  0
M  END
$$$$
