MLK.pdb
     RDKit          3D

 26 25  0  0  1  0  0  0  0  0999 V2000
   25.2718  -17.3961  -18.6220 C   0  0  0  0  0  0  0  0  0  0  0  0
   27.0547  -17.3677  -18.9512 S   0  0  0  0  0  0  0  0  0  0  0  0
   27.9188  -18.6397  -17.9868 C   0  0  0  0  0  0  0  0  0  0  0  0
   26.8797  -19.3423  -17.1113 C   0  0  0  0  0  0  0  0  0  0  0  0
   27.6649  -20.2671  -16.2049 C   0  0  2  0  0  0  0  0  0  0  0  0
   28.3291  -21.2923  -16.9878 N   0  0  0  0  0  0  0  0  0  0  0  0
   26.7940  -20.8910  -15.1606 C   0  0  0  0  0  0  0  0  0  0  0  0
   26.2140  -21.9942  -15.3641 O   0  0  0  0  0  0  0  0  0  0  0  0
   25.4419  -22.2392   -9.9885 C   0  0  0  0  0  0  0  0  0  0  0  0
   25.2853  -20.7852  -10.3823 C   0  0  1  0  0  0  0  0  0  0  0  0
   25.8277  -20.0029   -9.1605 C   0  0  0  0  0  0  0  0  0  0  0  0
   26.1223  -20.3888  -11.5291 C   0  0  0  0  0  0  0  0  0  0  0  0
   25.7085  -20.9118  -12.8739 C   0  0  2  0  0  0  0  0  0  0  0  0
   26.5804  -20.2791  -13.9040 N   0  0  0  0  0  0  0  0  0  0  0  0
   24.3398  -20.4504  -13.1693 C   0  0  0  0  0  0  0  0  0  0  0  0
   24.1989  -19.1825  -13.3279 O   0  0  0  0  0  0  0  0  0  0  0  0
   23.1937  -21.2533  -13.2980 N   0  0  0  0  0  0  0  0  0  0  0  0
   21.8834  -20.5857  -13.6343 C   0  0  1  0  0  0  0  0  0  0  0  0
   21.1889  -21.6236  -14.4463 C   0  0  0  0  0  0  0  0  0  0  0  0
   19.8271  -21.4896  -14.9243 C   0  0  0  0  0  0  0  0  0  0  0  0
   19.1648  -22.5230  -15.7390 C   0  0  0  0  0  0  0  0  0  0  0  0
   17.7286  -22.0194  -16.0677 C   0  0  0  0  0  0  0  0  0  0  0  0
   17.0128  -23.0471  -16.8041 N   0  0  0  0  0  0  0  0  0  0  0  0
   21.2972  -20.3003  -12.3142 C   0  0  0  0  0  0  0  0  0  0  0  0
   20.3613  -19.2461  -12.2130 O   0  0  0  0  0  0  0  0  0  0  0  0
   21.5747  -20.9384  -11.2396 O   0  0  0  0  0  0  0  0  0  0  0  0
  2  1  1  0
  3  2  1  0
  4  3  1  0
  4  5  1  0
  5  6  1  6
  7  5  1  0
  7  8  2  0
 10 11  1  1
 10  9  1  0
 12 10  1  0
 13 12  1  1
 13 14  1  0
 14  7  1  0
 15 13  1  0
 16 15  2  0
 17 15  1  0
 18 24  1  0
 18 17  1  0
 18 19  1  6
 20 19  1  0
 21 20  1  0
 22 21  1  0
 23 22  1  0
 24 25  1  0
 26 24  2  0
M  END
$$$$
