MLK.pdb
     RDKit          3D

 26 25  0  0  1  0  0  0  0  0999 V2000
   20.9111  -11.0193  -23.0691 C   0  0  0  0  0  0  0  0  0  0  0  0
   20.3370  -12.7390  -23.0343 S   0  0  0  0  0  0  0  0  0  0  0  0
   21.1561  -13.6757  -21.7128 C   0  0  0  0  0  0  0  0  0  0  0  0
   21.2395  -12.7674  -20.4848 C   0  0  0  0  0  0  0  0  0  0  0  0
   21.9495  -13.5792  -19.4217 C   0  0  2  0  0  0  0  0  0  0  0  0
   21.1024  -14.6681  -18.9724 N   0  0  0  0  0  0  0  0  0  0  0  0
   22.3664  -12.7305  -18.2623 C   0  0  0  0  0  0  0  0  0  0  0  0
   21.6755  -12.6774  -17.2066 O   0  0  0  0  0  0  0  0  0  0  0  0
   25.6637  -10.4255  -14.6320 C   0  0  0  0  0  0  0  0  0  0  0  0
   25.9814  -10.0870  -16.0736 C   0  0  1  0  0  0  0  0  0  0  0  0
   27.5190  -10.2477  -16.1688 C   0  0  0  0  0  0  0  0  0  0  0  0
   25.4079  -11.0360  -17.0449 C   0  0  0  0  0  0  0  0  0  0  0  0
   23.9114  -11.0552  -17.1604 C   0  0  2  0  0  0  0  0  0  0  0  0
   23.5467  -11.9526  -18.2932 N   0  0  0  0  0  0  0  0  0  0  0  0
   23.4413   -9.7121  -17.5458 C   0  0  0  0  0  0  0  0  0  0  0  0
   23.7473   -9.3323  -18.7352 O   0  0  0  0  0  0  0  0  0  0  0  0
   22.6966   -8.8241  -16.7510 N   0  0  0  0  0  0  0  0  0  0  0  0
   22.2266   -7.5301  -17.3674 C   0  0  1  0  0  0  0  0  0  0  0  0
   20.8918   -7.8979  -17.9169 C   0  0  0  0  0  0  0  0  0  0  0  0
   19.9003   -6.9261  -18.3334 C   0  0  0  0  0  0  0  0  0  0  0  0
   18.6036   -7.3124  -18.9162 C   0  0  0  0  0  0  0  0  0  0  0  0
   17.8747   -6.0090  -19.3569 C   0  0  0  0  0  0  0  0  0  0  0  0
   18.4414   -5.5381  -20.6091 N   0  0  0  0  0  0  0  0  0  0  0  0
   22.2208   -6.5933  -16.2316 C   0  0  0  0  0  0  0  0  0  0  0  0
   22.3539   -7.1234  -14.9283 O   0  0  0  0  0  0  0  0  0  0  0  0
   22.1008   -5.3229  -16.3345 O   0  0  0  0  0  0  0  0  0  0  0  0
  2  1  1  0
  3  2  1  0
  4  3  1  0
  4  5  1  0
  5  6  1  1
  7  5  1  0
  7  8  2  0
 10 11  1  1
 10  9  1  0
 12 10  1  0
 13 12  1  6
 13 14  1  0
 14  7  1  0
 15 13  1  0
 16 15  2  0
 17 15  1  0
 18 24  1  0
 18 17  1  0
 18 19  1  1
 20 19  1  0
 21 20  1  0
 22 21  1  0
 23 22  1  0
 24 25  1  0
 26 24  2  0
M  END
$$$$
