MLK.pdb
     RDKit          3D

 26 25  0  0  1  0  0  0  0  0999 V2000
   24.9499  -20.3346   -8.9985 C   0  0  0  0  0  0  0  0  0  0  0  0
   25.1433  -21.5685  -10.3130 S   0  0  0  0  0  0  0  0  0  0  0  0
   26.6354  -21.2491  -11.2961 C   0  0  0  0  0  0  0  0  0  0  0  0
   26.4589  -19.8909  -11.9774 C   0  0  0  0  0  0  0  0  0  0  0  0
   25.7700  -20.1794  -13.2948 C   0  0  2  0  0  0  0  0  0  0  0  0
   26.6379  -20.9626  -14.1541 N   0  0  0  0  0  0  0  0  0  0  0  0
   25.3481  -18.9218  -13.9868 C   0  0  0  0  0  0  0  0  0  0  0  0
   24.5063  -18.1376  -13.4661 O   0  0  0  0  0  0  0  0  0  0  0  0
   28.7911  -15.5363  -16.7914 C   0  0  0  0  0  0  0  0  0  0  0  0
   27.6691  -16.0836  -15.9339 C   0  0  1  0  0  0  0  0  0  0  0  0
   27.0087  -14.8214  -15.3260 C   0  0  0  0  0  0  0  0  0  0  0  0
   26.6153  -16.7685  -16.7042 C   0  0  0  0  0  0  0  0  0  0  0  0
   25.4463  -17.2929  -15.9220 C   0  0  2  0  0  0  0  0  0  0  0  0
   25.8690  -18.5538  -15.2487 N   0  0  0  0  0  0  0  0  0  0  0  0
   24.3748  -17.6785  -16.8584 C   0  0  0  0  0  0  0  0  0  0  0  0
   24.5606  -18.7772  -17.4993 O   0  0  0  0  0  0  0  0  0  0  0  0
   23.1854  -16.9729  -17.1081 N   0  0  0  0  0  0  0  0  0  0  0  0
   22.1934  -17.5596  -18.0814 C   0  0  1  0  0  0  0  0  0  0  0  0
   20.8850  -17.2260  -17.4525 C   0  0  0  0  0  0  0  0  0  0  0  0
   19.6034  -17.5526  -18.0457 C   0  0  0  0  0  0  0  0  0  0  0  0
   18.3221  -17.2756  -17.3736 C   0  0  0  0  0  0  0  0  0  0  0  0
   17.1779  -17.7028  -18.3394 C   0  0  0  0  0  0  0  0  0  0  0  0
   15.9083  -17.6576  -17.6344 N   0  0  0  0  0  0  0  0  0  0  0  0
   22.4995  -16.8633  -19.3420 C   0  0  0  0  0  0  0  0  0  0  0  0
   22.1504  -17.4964  -20.5564 O   0  0  0  0  0  0  0  0  0  0  0  0
   23.0657  -15.7179  -19.4236 O   0  0  0  0  0  0  0  0  0  0  0  0
  2  1  1  0
  3  2  1  0
  4  3  1  0
  4  5  1  0
  5  6  1  6
  7  5  1  0
  7  8  2  0
 10 11  1  6
 10  9  1  0
 12 10  1  0
 13 12  1  6
 13 14  1  0
 14  7  1  0
 15 13  1  0
 16 15  2  0
 17 15  1  0
 18 24  1  0
 18 17  1  0
 18 19  1  1
 20 19  1  0
 21 20  1  0
 22 21  1  0
 23 22  1  0
 24 25  1  0
 26 24  2  0
M  END
$$$$
