MLK.pdb
     RDKit          3D

 26 25  0  0  1  0  0  0  0  0999 V2000
   20.4113  -24.9806  -15.2928 C   0  0  0  0  0  0  0  0  0  0  0  0
   20.8691  -23.7811  -14.0123 S   0  0  0  0  0  0  0  0  0  0  0  0
   22.5396  -23.1292  -14.2934 C   0  0  0  0  0  0  0  0  0  0  0  0
   23.0967  -23.8079  -15.5460 C   0  0  0  0  0  0  0  0  0  0  0  0
   24.4301  -24.3966  -15.1349 C   0  0  2  0  0  0  0  0  0  0  0  0
   25.3184  -23.3491  -14.6673 N   0  0  0  0  0  0  0  0  0  0  0  0
   25.0673  -25.1600  -16.2527 C   0  0  0  0  0  0  0  0  0  0  0  0
   24.3966  -25.9531  -16.9710 O   0  0  0  0  0  0  0  0  0  0  0  0
   27.7589  -25.6392  -20.7402 C   0  0  0  0  0  0  0  0  0  0  0  0
   28.6980  -25.3858  -19.5793 C   0  0  1  0  0  0  0  0  0  0  0  0
   29.6295  -24.2573  -20.0869 C   0  0  0  0  0  0  0  0  0  0  0  0
   28.0262  -24.8558  -18.3790 C   0  0  0  0  0  0  0  0  0  0  0  0
   27.0566  -25.7735  -17.6928 C   0  0  2  0  0  0  0  0  0  0  0  0
   26.4421  -25.0304  -16.5562 N   0  0  0  0  0  0  0  0  0  0  0  0
   27.8004  -26.8919  -17.0849 C   0  0  0  0  0  0  0  0  0  0  0  0
   28.5381  -26.5904  -16.0762 O   0  0  0  0  0  0  0  0  0  0  0  0
   27.7750  -28.2363  -17.4933 N   0  0  0  0  0  0  0  0  0  0  0  0
   28.5708  -29.2429  -16.7002 C   0  0  1  0  0  0  0  0  0  0  0  0
   27.6117  -30.3732  -16.5542 C   0  0  0  0  0  0  0  0  0  0  0  0
   27.9914  -31.6922  -16.0885 C   0  0  0  0  0  0  0  0  0  0  0  0
   27.0469  -32.8219  -16.0423 C   0  0  0  0  0  0  0  0  0  0  0  0
   27.8274  -34.0724  -15.5412 C   0  0  0  0  0  0  0  0  0  0  0  0
   26.9556  -35.2340  -15.5806 N   0  0  0  0  0  0  0  0  0  0  0  0
   29.7440  -29.4981  -17.5525 C   0  0  0  0  0  0  0  0  0  0  0  0
   29.6528  -29.1805  -18.9266 O   0  0  0  0  0  0  0  0  0  0  0  0
   30.8506  -29.9930  -17.1410 O   0  0  0  0  0  0  0  0  0  0  0  0
  2  1  1  0
  3  2  1  0
  4  3  1  0
  4  5  1  0
  5  6  1  6
  7  5  1  0
  7  8  2  0
 10 11  1  6
 10  9  1  0
 12 10  1  0
 13 12  1  1
 13 14  1  0
 14  7  1  0
 15 13  1  0
 16 15  2  0
 17 15  1  0
 18 24  1  0
 18 17  1  0
 18 19  1  6
 20 19  1  0
 21 20  1  0
 22 21  1  0
 23 22  1  0
 24 25  1  0
 26 24  2  0
M  END
$$$$
