REV.pdb
     RDKit          3D

 28 27  0  0  1  0  0  0  0  0999 V2000
    9.4032  -12.1549   19.1635 N   0  0  0  0  0  0  0  0  0  0  0  0
    8.2363  -12.9002   18.8507 C   0  0  0  0  0  0  0  0  0  0  0  0
    7.8990  -13.0219   17.6184 N   0  0  0  0  0  0  0  0  0  0  0  0
    7.4593  -13.4974   19.8784 N   0  0  0  0  0  0  0  0  0  0  0  0
    6.9823  -14.8500   19.7984 C   0  0  0  0  0  0  0  0  0  0  0  0
    7.8137  -15.7227   18.9229 C   0  0  0  0  0  0  0  0  0  0  0  0
    8.7935  -16.6077   19.5991 C   0  0  0  0  0  0  0  0  0  0  0  0
    8.2405  -17.7878   20.3155 C   0  0  2  0  0  0  0  0  0  0  0  0
    6.8382  -17.9546   20.1104 N   0  0  0  0  0  0  0  0  0  0  0  0
    8.6258  -17.8281   21.7484 C   0  0  0  0  0  0  0  0  0  0  0  0
    8.9386  -18.9357   22.2487 O   0  0  0  0  0  0  0  0  0  0  0  0
    7.1289  -13.6697   17.3679 N   0  0  0  0  0  0  0  0  0  0  0  0
    8.6617  -16.6825   22.5904 C   0  0  2  0  0  0  0  0  0  0  0  0
    9.5366  -16.5806   23.7405 C   0  0  0  0  0  0  0  0  0  0  0  0
   10.9889  -16.5096   23.3643 C   0  0  0  0  0  0  0  0  0  0  0  0
   11.9105  -16.4280   24.5509 C   0  0  0  0  0  0  0  0  0  0  0  0
   13.1850  -17.0957   24.1871 O   0  0  0  0  0  0  0  0  0  0  0  0
   14.1403  -16.4555   23.6716 C   0  0  0  0  0  0  0  0  0  0  0  0
    9.2074  -15.2947   24.4533 O   0  0  0  0  0  0  0  0  0  0  0  0
    8.9777  -14.2420   23.8002 O   0  0  0  0  0  0  0  0  0  0  0  0
   13.3881  -18.4518   24.3952 C   0  0  0  0  0  0  0  0  0  0  0  0
    6.7611  -12.5349   26.9209 C   0  0  2  0  0  0  0  0  0  0  0  0
    7.2326  -13.6975   26.0816 C   0  0  0  0  0  0  0  0  0  0  0  0
    7.1056  -13.3981   24.6251 C   0  0  1  0  0  0  0  0  0  0  0  0
    8.6453  -14.0342   26.4947 N   0  0  0  0  0  0  0  0  0  0  0  0
    9.1438  -15.2184   25.8619 C   0  0  0  0  0  0  0  0  0  0  0  0
    8.6665  -14.1537   27.9865 O   0  0  0  0  0  0  0  0  0  0  0  0
    9.1168  -15.3521   28.5160 O   0  0  0  0  0  0  0  0  0  0  0  0
  2  1  1  0
  2  4  1  0
  3  2  2  0
  5  4  1  0
  6  5  1  0
  7  6  1  0
  8  7  1  0
  8  9  1  1
 10 11  2  0
 10  8  1  0
 12 10  1  0
 13 12  1  0
 14 15  1  0
 13 14  1  6
 15 16  1  0
 16 17  2  0
 16 20  1  0
 18 13  1  0
 18 19  2  0
 22 21  1  1
 23 22  1  0
 24 22  1  0
 24 25  1  1
 25 18  1  0
 26 24  1  0
 27 26  1  0
 28 26  2  0
M  END
$$$$
