REV.pdb
     RDKit          3D

 28 27  0  0  1  0  0  0  0  0999 V2000
    9.7664  -13.3335   18.2027 N   0  0  0  0  0  0  0  0  0  0  0  0
    8.6077  -12.6976   18.7204 C   0  0  0  0  0  0  0  0  0  0  0  0
    8.3991  -11.4670   18.4216 N   0  0  0  0  0  0  0  0  0  0  0  0
    7.6999  -13.4069   19.5505 N   0  0  0  0  0  0  0  0  0  0  0  0
    6.8438  -14.4451   19.0476 C   0  0  0  0  0  0  0  0  0  0  0  0
    7.5452  -15.7417   18.8324 C   0  0  0  0  0  0  0  0  0  0  0  0
    8.4736  -16.1842   19.9014 C   0  0  0  0  0  0  0  0  0  0  0  0
    8.1610  -17.4807   20.5595 C   0  0  2  0  0  0  0  0  0  0  0  0
    7.2493  -18.2796   19.8066 N   0  0  0  0  0  0  0  0  0  0  0  0
    7.7607  -17.3271   21.9805 C   0  0  0  0  0  0  0  0  0  0  0  0
    6.5593  -17.5252   22.2841 O   0  0  0  0  0  0  0  0  0  0  0  0
    7.5843  -10.9781   18.8371 N   0  0  0  0  0  0  0  0  0  0  0  0
    8.6606  -16.9675   23.0214 C   0  0  2  0  0  0  0  0  0  0  0  0
    8.2647  -16.9006   24.4133 C   0  0  0  0  0  0  0  0  0  0  0  0
    8.9584  -17.9233   25.2670 C   0  0  0  0  0  0  0  0  0  0  0  0
   10.4592  -17.8408   25.1978 C   0  0  0  0  0  0  0  0  0  0  0  0
   11.0165  -18.9037   26.0709 O   0  0  0  0  0  0  0  0  0  0  0  0
   10.6705  -19.0134   27.2778 C   0  0  0  0  0  0  0  0  0  0  0  0
    8.6679  -15.5475   24.9392 O   0  0  0  0  0  0  0  0  0  0  0  0
    9.6797  -14.9568   24.4759 O   0  0  0  0  0  0  0  0  0  0  0  0
   11.9419  -19.8256   25.6049 C   0  0  0  0  0  0  0  0  0  0  0  0
    7.0311  -12.2310   25.0053 C   0  0  2  0  0  0  0  0  0  0  0  0
    7.3198  -12.5740   26.4465 C   0  0  0  0  0  0  0  0  0  0  0  0
    6.0758  -12.9799   27.1641 C   0  0  2  0  0  0  0  0  0  0  0  0
    8.3906  -13.6381   26.4720 N   0  0  0  0  0  0  0  0  0  0  0  0
    7.9385  -14.8962   25.9580 C   0  0  0  0  0  0  0  0  0  0  0  0
    8.8774  -13.7597   27.8820 O   0  0  0  0  0  0  0  0  0  0  0  0
    9.5421  -12.6673   28.4153 O   0  0  0  0  0  0  0  0  0  0  0  0
  2  1  1  0
  2  4  1  0
  3  2  2  0
  5  4  1  0
  6  5  1  0
  7  6  1  0
  8  7  1  0
  8  9  1  6
 10 11  2  0
 10  8  1  0
 12 10  1  0
 13 12  1  0
 14 15  1  0
 13 14  1  6
 15 16  1  0
 16 17  2  0
 16 20  1  0
 18 13  1  0
 18 19  2  0
 22 21  1  1
 23 22  1  0
 24 22  1  0
 24 25  1  1
 25 18  1  0
 26 24  1  0
 27 26  1  0
 28 26  2  0
M  END
$$$$
