REV.pdb
     RDKit          3D

 28 27  0  0  1  0  0  0  0  0999 V2000
    7.4123  -12.9415   17.0043 N   0  0  0  0  0  0  0  0  0  0  0  0
    8.5909  -13.7194   16.8612 C   0  0  0  0  0  0  0  0  0  0  0  0
    8.9873  -14.0191   15.6779 N   0  0  0  0  0  0  0  0  0  0  0  0
    9.3151  -14.1566   18.0018 N   0  0  0  0  0  0  0  0  0  0  0  0
    8.6748  -14.7547   19.1401 C   0  0  0  0  0  0  0  0  0  0  0  0
    7.2808  -14.2764   19.3574 C   0  0  0  0  0  0  0  0  0  0  0  0
    6.5631  -14.8230   20.5350 C   0  0  0  0  0  0  0  0  0  0  0  0
    6.9011  -16.2156   20.9328 C   0  0  2  0  0  0  0  0  0  0  0  0
    6.0739  -17.1902   20.2985 N   0  0  0  0  0  0  0  0  0  0  0  0
    6.9832  -16.3937   22.4041 C   0  0  0  0  0  0  0  0  0  0  0  0
    5.9555  -16.1686   23.0882 O   0  0  0  0  0  0  0  0  0  0  0  0
    9.8821  -14.5298   15.5599 N   0  0  0  0  0  0  0  0  0  0  0  0
    8.1611  -16.8055   23.0865 C   0  0  2  0  0  0  0  0  0  0  0  0
    8.2411  -16.8959   24.5301 C   0  0  0  0  0  0  0  0  0  0  0  0
    9.2314  -17.9244   24.9962 C   0  0  0  0  0  0  0  0  0  0  0  0
    9.3062  -18.0464   26.4941 C   0  0  0  0  0  0  0  0  0  0  0  0
   10.3153  -19.0851   26.8187 O   0  0  0  0  0  0  0  0  0  0  0  0
   10.3828  -20.1635   26.1699 C   0  0  0  0  0  0  0  0  0  0  0  0
    8.7202  -15.5639   25.0461 O   0  0  0  0  0  0  0  0  0  0  0  0
    9.7910  -15.0586   24.6153 O   0  0  0  0  0  0  0  0  0  0  0  0
   11.2308  -18.9224   27.8477 C   0  0  0  0  0  0  0  0  0  0  0  0
    6.9450  -12.2094   25.2034 C   0  0  2  0  0  0  0  0  0  0  0  0
    7.4289  -12.5244   26.5980 C   0  0  0  0  0  0  0  0  0  0  0  0
    6.2964  -12.9210   27.4853 C   0  0  2  0  0  0  0  0  0  0  0  0
    8.4994  -13.5843   26.4968 N   0  0  0  0  0  0  0  0  0  0  0  0
    7.9988  -14.8384   26.0194 C   0  0  0  0  0  0  0  0  0  0  0  0
    9.1341  -13.7196   27.8455 O   0  0  0  0  0  0  0  0  0  0  0  0
    9.0160  -14.9471   28.4769 O   0  0  0  0  0  0  0  0  0  0  0  0
  2  1  1  0
  2  4  1  0
  3  2  2  0
  5  4  1  0
  6  5  1  0
  7  6  1  0
  8  7  1  0
  8  9  1  1
 10 11  2  0
 10  8  1  0
 12 10  1  0
 13 12  1  0
 14 15  1  0
 13 14  1  6
 15 16  1  0
 16 17  2  0
 16 20  1  0
 18 13  1  0
 18 19  2  0
 22 21  1  1
 23 22  1  0
 24 22  1  0
 24 25  1  1
 25 18  1  0
 26 24  1  0
 27 26  1  0
 28 26  2  0
M  END
$$$$
