REV.pdb
     RDKit          3D

 28 27  0  0  1  0  0  0  0  0999 V2000
    9.5261  -13.9471   19.8707 N   0  0  0  0  0  0  0  0  0  0  0  0
    9.3766  -12.8477   18.9853 C   0  0  0  0  0  0  0  0  0  0  0  0
   10.4154  -12.1557   18.6870 N   0  0  0  0  0  0  0  0  0  0  0  0
    8.1060  -12.5208   18.4421 N   0  0  0  0  0  0  0  0  0  0  0  0
    6.9006  -13.1941   18.8383 C   0  0  0  0  0  0  0  0  0  0  0  0
    7.0994  -14.6388   19.1430 C   0  0  0  0  0  0  0  0  0  0  0  0
    6.9659  -15.0463   20.5631 C   0  0  0  0  0  0  0  0  0  0  0  0
    7.1949  -16.4840   20.8672 C   0  0  2  0  0  0  0  0  0  0  0  0
    6.2568  -17.3439   20.2216 N   0  0  0  0  0  0  0  0  0  0  0  0
    7.3250  -16.7547   22.3207 C   0  0  0  0  0  0  0  0  0  0  0  0
    6.2843  -16.7476   23.0220 O   0  0  0  0  0  0  0  0  0  0  0  0
   10.3181  -11.3554   18.0346 N   0  0  0  0  0  0  0  0  0  0  0  0
    8.5628  -17.0226   22.9678 C   0  0  2  0  0  0  0  0  0  0  0  0
    8.6866  -17.1448   24.4059 C   0  0  0  0  0  0  0  0  0  0  0  0
    9.8872  -17.9456   24.8222 C   0  0  0  0  0  0  0  0  0  0  0  0
   10.0349  -18.0696   26.3144 C   0  0  0  0  0  0  0  0  0  0  0  0
   11.2921  -18.8087   26.5898 O   0  0  0  0  0  0  0  0  0  0  0  0
   12.0113  -19.2560   25.6565 C   0  0  0  0  0  0  0  0  0  0  0  0
    8.8700  -15.7594   24.9688 O   0  0  0  0  0  0  0  0  0  0  0  0
    9.6251  -14.9303   24.3943 O   0  0  0  0  0  0  0  0  0  0  0  0
   11.7371  -19.0434   27.8823 C   0  0  0  0  0  0  0  0  0  0  0  0
    7.5092  -11.9618   27.5909 C   0  0  2  0  0  0  0  0  0  0  0  0
    7.1631  -13.2504   26.8851 C   0  0  0  0  0  0  0  0  0  0  0  0
    6.4142  -12.9888   25.6209 C   0  0  1  0  0  0  0  0  0  0  0  0
    8.4404  -14.0250   26.6657 N   0  0  0  0  0  0  0  0  0  0  0  0
    8.2125  -15.3400   26.1461 C   0  0  0  0  0  0  0  0  0  0  0  0
    9.1771  -14.0651   27.9679 O   0  0  0  0  0  0  0  0  0  0  0  0
    9.7167  -12.8730   28.4233 O   0  0  0  0  0  0  0  0  0  0  0  0
  2  1  1  0
  2  4  1  0
  3  2  2  0
  5  4  1  0
  6  5  1  0
  7  6  1  0
  8  7  1  0
  8  9  1  1
 10 11  2  0
 10  8  1  0
 12 10  1  0
 13 12  1  0
 14 15  1  0
 13 14  1  6
 15 16  1  0
 16 17  2  0
 16 20  1  0
 18 13  1  0
 18 19  2  0
 22 21  1  1
 23 22  1  0
 24 22  1  0
 24 25  1  1
 25 18  1  0
 26 24  1  0
 27 26  1  0
 28 26  2  0
M  END
$$$$
