REV.pdb
     RDKit          3D

 28 27  0  0  1  0  0  0  0  0999 V2000
    7.5948  -14.2596   13.3442 N   0  0  0  0  0  0  0  0  0  0  0  0
    8.0660  -14.7483   14.5908 C   0  0  0  0  0  0  0  0  0  0  0  0
    7.9987  -16.0094   14.8195 N   0  0  0  0  0  0  0  0  0  0  0  0
    8.5995  -13.8617   15.5633 N   0  0  0  0  0  0  0  0  0  0  0  0
    8.7293  -14.2219   16.9478 C   0  0  0  0  0  0  0  0  0  0  0  0
    7.4469  -14.1521   17.7029 C   0  0  0  0  0  0  0  0  0  0  0  0
    7.4564  -13.3719   18.9646 C   0  0  0  0  0  0  0  0  0  0  0  0
    8.6047  -13.6027   19.8810 C   0  0  2  0  0  0  0  0  0  0  0  0
    9.6844  -14.2942   19.2545 N   0  0  0  0  0  0  0  0  0  0  0  0
    8.2006  -14.2086   21.1743 C   0  0  0  0  0  0  0  0  0  0  0  0
    7.1769  -13.7611   21.7461 O   0  0  0  0  0  0  0  0  0  0  0  0
    8.2879  -16.3697   15.7480 N   0  0  0  0  0  0  0  0  0  0  0  0
    8.9067  -15.2693   21.8059 C   0  0  1  0  0  0  0  0  0  0  0  0
    8.4534  -15.8937   23.0320 C   0  0  0  0  0  0  0  0  0  0  0  0
    9.0808  -17.2376   23.2688 C   0  0  0  0  0  0  0  0  0  0  0  0
   10.5851  -17.2027   23.2733 C   0  0  0  0  0  0  0  0  0  0  0  0
   11.0744  -18.5928   23.4488 O   0  0  0  0  0  0  0  0  0  0  0  0
   10.9786  -19.1903   24.5542 C   0  0  0  0  0  0  0  0  0  0  0  0
    8.8717  -15.0091   24.1777 O   0  0  0  0  0  0  0  0  0  0  0  0
    9.9241  -14.3203   24.1028 O   0  0  0  0  0  0  0  0  0  0  0  0
   11.6592  -19.3012   22.4098 C   0  0  0  0  0  0  0  0  0  0  0  0
    7.6963  -11.9389   25.6818 C   0  0  2  0  0  0  0  0  0  0  0  0
    7.6046  -12.9763   26.7744 C   0  0  0  0  0  0  0  0  0  0  0  0
    6.2001  -13.4475   26.9544 C   0  0  2  0  0  0  0  0  0  0  0  0
    8.5652  -14.0935   26.4448 N   0  0  0  0  0  0  0  0  0  0  0  0
    8.1121  -14.9176   25.3646 C   0  0  0  0  0  0  0  0  0  0  0  0
    8.7828  -14.8892   27.6936 O   0  0  0  0  0  0  0  0  0  0  0  0
    9.3922  -14.2407   28.7555 O   0  0  0  0  0  0  0  0  0  0  0  0
  2  1  1  0
  2  4  1  0
  3  2  2  0
  5  4  1  0
  6  5  1  0
  7  6  1  0
  8  7  1  0
  8  9  1  6
 10 11  2  0
 10  8  1  0
 12 10  1  0
 13 12  1  0
 14 15  1  0
 13 14  1  1
 15 16  1  0
 16 17  2  0
 16 20  1  0
 18 13  1  0
 18 19  2  0
 22 21  1  1
 23 22  1  0
 24 22  1  0
 24 25  1  1
 25 18  1  0
 26 24  1  0
 27 26  1  0
 28 26  2  0
M  END
$$$$
