REV.pdb
     RDKit          3D

 28 27  0  0  1  0  0  0  0  0999 V2000
    8.3442  -16.9629   17.1449 N   0  0  0  0  0  0  0  0  0  0  0  0
    7.9892  -16.1630   16.0274 C   0  0  0  0  0  0  0  0  0  0  0  0
    7.3376  -16.7086   15.0657 N   0  0  0  0  0  0  0  0  0  0  0  0
    8.3473  -14.7899   15.9744 N   0  0  0  0  0  0  0  0  0  0  0  0
    8.6066  -14.0136   17.1549 C   0  0  0  0  0  0  0  0  0  0  0  0
    7.3834  -13.3987   17.7425 C   0  0  0  0  0  0  0  0  0  0  0  0
    7.0859  -13.7257   19.1585 C   0  0  0  0  0  0  0  0  0  0  0  0
    8.2089  -13.5869   20.1236 C   0  0  2  0  0  0  0  0  0  0  0  0
    9.4892  -13.7229   19.5084 N   0  0  0  0  0  0  0  0  0  0  0  0
    8.0488  -14.4434   21.3252 C   0  0  0  0  0  0  0  0  0  0  0  0
    6.9289  -14.4705   21.8908 O   0  0  0  0  0  0  0  0  0  0  0  0
    7.0205  -16.1195   14.2732 N   0  0  0  0  0  0  0  0  0  0  0  0
    9.0926  -15.2377   21.8752 C   0  0  1  0  0  0  0  0  0  0  0  0
    8.9393  -15.9973   23.0991 C   0  0  0  0  0  0  0  0  0  0  0  0
    9.9660  -17.0839   23.2438 C   0  0  0  0  0  0  0  0  0  0  0  0
    9.7664  -18.2265   22.2852 C   0  0  0  0  0  0  0  0  0  0  0  0
   10.9077  -19.1617   22.4442 O   0  0  0  0  0  0  0  0  0  0  0  0
   12.0139  -18.9533   21.8775 C   0  0  0  0  0  0  0  0  0  0  0  0
    9.1407  -15.0505   24.2537 O   0  0  0  0  0  0  0  0  0  0  0  0
   10.1257  -14.2650   24.2723 O   0  0  0  0  0  0  0  0  0  0  0  0
   10.8149  -20.3071   23.2207 C   0  0  0  0  0  0  0  0  0  0  0  0
    7.4207  -12.1681   27.6438 C   0  0  2  0  0  0  0  0  0  0  0  0
    7.1205  -13.2484   26.6334 C   0  0  0  0  0  0  0  0  0  0  0  0
    6.5012  -12.6779   25.4013 C   0  0  1  0  0  0  0  0  0  0  0  0
    8.3987  -14.0031   26.3571 N   0  0  0  0  0  0  0  0  0  0  0  0
    8.2466  -15.0057   25.3457 C   0  0  0  0  0  0  0  0  0  0  0  0
    8.8689  -14.5901   27.6511 O   0  0  0  0  0  0  0  0  0  0  0  0
    9.3959  -13.7136   28.5857 O   0  0  0  0  0  0  0  0  0  0  0  0
  2  1  1  0
  2  4  1  0
  3  2  2  0
  5  4  1  0
  6  5  1  0
  7  6  1  0
  8  7  1  0
  8  9  1  6
 10 11  2  0
 10  8  1  0
 12 10  1  0
 13 12  1  0
 14 15  1  0
 13 14  1  1
 15 16  1  0
 16 17  2  0
 16 20  1  0
 18 13  1  0
 18 19  2  0
 22 21  1  1
 23 22  1  0
 24 22  1  0
 24 25  1  1
 25 18  1  0
 26 24  1  0
 27 26  1  0
 28 26  2  0
M  END
$$$$
