REV.pdb
     RDKit          3D

 28 27  0  0  1  0  0  0  0  0999 V2000
    9.9008  -13.9142   17.3275 N   0  0  0  0  0  0  0  0  0  0  0  0
   10.0145  -13.1098   18.4915 C   0  0  0  0  0  0  0  0  0  0  0  0
   11.1865  -12.7695   18.8888 N   0  0  0  0  0  0  0  0  0  0  0  0
    8.8577  -12.6913   19.2006 N   0  0  0  0  0  0  0  0  0  0  0  0
    7.5409  -13.1669   18.8790 C   0  0  0  0  0  0  0  0  0  0  0  0
    7.3486  -14.6178   19.1572 C   0  0  0  0  0  0  0  0  0  0  0  0
    7.4390  -15.0435   20.5754 C   0  0  0  0  0  0  0  0  0  0  0  0
    7.2834  -16.4978   20.8448 C   0  0  2  0  0  0  0  0  0  0  0  0
    6.0235  -17.0104   20.4136 N   0  0  0  0  0  0  0  0  0  0  0  0
    7.6106  -16.8654   22.2451 C   0  0  0  0  0  0  0  0  0  0  0  0
    6.6705  -16.9517   23.0720 O   0  0  0  0  0  0  0  0  0  0  0  0
   11.2816  -12.2030   19.7523 N   0  0  0  0  0  0  0  0  0  0  0  0
    8.9302  -17.1265   22.7067 C   0  0  2  0  0  0  0  0  0  0  0  0
    9.2434  -17.3514   24.1031 C   0  0  0  0  0  0  0  0  0  0  0  0
   10.5657  -18.0353   24.3017 C   0  0  0  0  0  0  0  0  0  0  0  0
   10.9304  -18.2227   25.7494 C   0  0  0  0  0  0  0  0  0  0  0  0
   12.2351  -18.9279   25.8050 O   0  0  0  0  0  0  0  0  0  0  0  0
   13.2761  -18.3551   26.2251 C   0  0  0  0  0  0  0  0  0  0  0  0
    9.3439  -16.0052   24.7721 O   0  0  0  0  0  0  0  0  0  0  0  0
   10.0877  -15.1074   24.2943 O   0  0  0  0  0  0  0  0  0  0  0  0
   12.3740  -20.2468   25.3992 C   0  0  0  0  0  0  0  0  0  0  0  0
    7.7825  -12.3696   27.4397 C   0  0  2  0  0  0  0  0  0  0  0  0
    7.4853  -13.6814   26.7547 C   0  0  0  0  0  0  0  0  0  0  0  0
    6.7592  -13.4661   25.4688 C   0  0  1  0  0  0  0  0  0  0  0  0
    8.7864  -14.4273   26.5809 N   0  0  0  0  0  0  0  0  0  0  0  0
    8.6189  -15.6995   25.9447 C   0  0  0  0  0  0  0  0  0  0  0  0
    9.4164  -14.5633   27.9317 O   0  0  0  0  0  0  0  0  0  0  0  0
    9.8929  -13.4050   28.5240 O   0  0  0  0  0  0  0  0  0  0  0  0
  2  1  1  0
  2  4  1  0
  3  2  2  0
  5  4  1  0
  6  5  1  0
  7  6  1  0
  8  7  1  0
  8  9  1  1
 10 11  2  0
 10  8  1  0
 12 10  1  0
 13 12  1  0
 14 15  1  0
 13 14  1  6
 15 16  1  0
 16 17  2  0
 16 20  1  0
 18 13  1  0
 18 19  2  0
 22 21  1  1
 23 22  1  0
 24 22  1  0
 24 25  1  1
 25 18  1  0
 26 24  1  0
 27 26  1  0
 28 26  2  0
M  END
$$$$
