SVW.pdb
     RDKit          3D

 28 29  0  0  1  0  0  0  0  0999 V2000
   22.7968  -23.9377  -16.9092 O   0  0  0  0  0  0  0  0  0  0  0  0
   23.4831  -23.0494  -16.0592 C   0  0  0  0  0  0  0  0  0  0  0  0
   24.9114  -22.9688  -16.5459 C   0  0  2  0  0  0  0  0  0  0  0  0
   25.2598  -24.2447  -17.0839 N   0  0  0  0  0  0  0  0  0  0  0  0
   25.7860  -22.5886  -15.3739 C   0  0  0  0  0  0  0  0  0  0  0  0
   26.2043  -23.5197  -14.6584 O   0  0  0  0  0  0  0  0  0  0  0  0
   28.4705  -18.9412  -13.2631 C   0  0  0  0  0  0  0  0  0  0  0  0
   27.4465  -19.3217  -14.3372 C   0  0  2  0  0  0  0  0  0  0  0  0
   26.4790  -18.1982  -14.4565 C   0  0  0  0  0  0  0  0  0  0  0  0
   26.8691  -20.6682  -14.0343 C   0  0  2  0  0  0  0  0  0  0  0  0
   26.1056  -21.2561  -15.1121 N   0  0  0  0  0  0  0  0  0  0  0  0
   26.2187  -20.8437  -12.7375 C   0  0  0  0  0  0  0  0  0  0  0  0
   24.9336  -20.7275  -12.6425 O   0  0  0  0  0  0  0  0  0  0  0  0
   26.8822  -21.1443  -11.5493 N   0  0  0  0  0  0  0  0  0  0  0  0
   26.2228  -21.1363  -10.2357 C   0  0  1  0  0  0  0  0  0  0  0  0
   27.3697  -20.9915   -9.2646 C   0  0  0  0  0  0  0  0  0  0  0  0
   27.0170  -20.6635   -7.8889 C   0  0  0  0  0  0  0  0  0  0  0  0
   25.7131  -20.6562   -7.3613 C   0  0  0  0  0  0  0  0  0  0  0  0
   25.7611  -20.2737   -6.0770 N   0  0  0  0  0  0  0  0  0  0  0  0
   27.0323  -20.0220   -5.7070 C   0  0  0  0  0  0  0  0  0  0  0  0
   27.5451  -19.6257   -4.4910 C   0  0  0  0  0  0  0  0  0  0  0  0
   28.9090  -19.4634   -4.3894 C   0  0  0  0  0  0  0  0  0  0  0  0
   29.7147  -19.7032   -5.5083 C   0  0  0  0  0  0  0  0  0  0  0  0
   29.1662  -20.0962   -6.7029 C   0  0  0  0  0  0  0  0  0  0  0  0
   27.8099  -20.2654   -6.8343 C   0  0  0  0  0  0  0  0  0  0  0  0
   25.3384  -19.9857  -10.1627 C   0  0  0  0  0  0  0  0  0  0  0  0
   25.7713  -18.7421  -10.5896 O   0  0  0  0  0  0  0  0  0  0  0  0
   24.1524  -20.0233   -9.7217 O   0  0  0  0  0  0  0  0  0  0  0  0
  2  1  1  0
  3  4  1  1
  3  2  1  0
  5  3  1  0
  6  5  2  0
  8  7  1  1
  8  9  1  0
 10  8  1  0
 10 11  1  6
 11  5  1  0
 12 10  1  0
 13 12  2  0
 14 12  1  0
 15 14  1  0
 15 16  1  1
 16 17  1  0
 17 25  1  0
 18 17  2  0
 18 19  1  0
 19 20  1  0
 20 21  1  0
 21 22  2  0
 23 22  1  0
 24 23  2  0
 25 20  2  0
 25 24  1  0
 26 15  1  0
 26 27  1  0
 28 26  2  0
M  END
$$$$
