SVW.pdb
     RDKit          3D

 28 29  0  0  1  0  0  0  0  0999 V2000
   27.0270  -24.2388  -17.3959 O   0  0  0  0  0  0  0  0  0  0  0  0
   27.7931  -23.3758  -16.5891 C   0  0  0  0  0  0  0  0  0  0  0  0
   27.7396  -22.0023  -17.2166 C   0  0  2  0  0  0  0  0  0  0  0  0
   28.6473  -21.9923  -18.3186 N   0  0  0  0  0  0  0  0  0  0  0  0
   28.1167  -20.9890  -16.1610 C   0  0  0  0  0  0  0  0  0  0  0  0
   28.8947  -20.0787  -16.5072 O   0  0  0  0  0  0  0  0  0  0  0  0
   25.4912  -18.8539  -14.6585 C   0  0  0  0  0  0  0  0  0  0  0  0
   26.9797  -18.7435  -14.3134 C   0  0  2  0  0  0  0  0  0  0  0  0
   27.6730  -18.1528  -15.4893 C   0  0  0  0  0  0  0  0  0  0  0  0
   27.4897  -20.0661  -13.8349 C   0  0  2  0  0  0  0  0  0  0  0  0
   27.6132  -21.0753  -14.8628 N   0  0  0  0  0  0  0  0  0  0  0  0
   26.9154  -20.6012  -12.6024 C   0  0  0  0  0  0  0  0  0  0  0  0
   25.9120  -21.4158  -12.6620 O   0  0  0  0  0  0  0  0  0  0  0  0
   27.3734  -20.3084  -11.3191 N   0  0  0  0  0  0  0  0  0  0  0  0
   26.7773  -20.8790  -10.1026 C   0  0  1  0  0  0  0  0  0  0  0  0
   27.7137  -20.4317   -9.0060 C   0  0  0  0  0  0  0  0  0  0  0  0
   27.1882  -20.4747   -7.6471 C   0  0  0  0  0  0  0  0  0  0  0  0
   25.8976  -20.9012   -7.2854 C   0  0  0  0  0  0  0  0  0  0  0  0
   25.7482  -20.7729   -5.9590 N   0  0  0  0  0  0  0  0  0  0  0  0
   26.8733  -20.2814   -5.4031 C   0  0  0  0  0  0  0  0  0  0  0  0
   27.1710  -20.0085   -4.0857 C   0  0  0  0  0  0  0  0  0  0  0  0
   28.4284  -19.5266   -3.7962 C   0  0  0  0  0  0  0  0  0  0  0  0
   29.3463  -19.3340   -4.8349 C   0  0  0  0  0  0  0  0  0  0  0  0
   29.0119  -19.6169   -6.1351 C   0  0  0  0  0  0  0  0  0  0  0  0
   27.7657  -20.0977   -6.4539 C   0  0  0  0  0  0  0  0  0  0  0  0
   25.4552  -20.3059   -9.9159 C   0  0  0  0  0  0  0  0  0  0  0  0
   24.4346  -21.0645   -9.3688 O   0  0  0  0  0  0  0  0  0  0  0  0
   25.1409  -19.1193  -10.2249 O   0  0  0  0  0  0  0  0  0  0  0  0
  2  1  1  0
  3  4  1  6
  3  2  1  0
  5  3  1  0
  6  5  2  0
  8  7  1  6
  8  9  1  0
 10  8  1  0
 10 11  1  6
 11  5  1  0
 12 10  1  0
 13 12  2  0
 14 12  1  0
 15 14  1  0
 15 16  1  1
 16 17  1  0
 17 25  1  0
 18 17  2  0
 18 19  1  0
 19 20  1  0
 20 21  1  0
 21 22  2  0
 23 22  1  0
 24 23  2  0
 25 20  2  0
 25 24  1  0
 26 15  1  0
 26 27  1  0
 28 26  2  0
M  END
$$$$
