SVW.pdb
     RDKit          3D

 28 29  0  0  1  0  0  0  0  0999 V2000
   18.4425  -22.8096   -8.2323 O   0  0  0  0  0  0  0  0  0  0  0  0
   17.5133  -23.2982   -7.2940 C   0  0  0  0  0  0  0  0  0  0  0  0
   17.8304  -24.7569   -7.0597 C   0  0  2  0  0  0  0  0  0  0  0  0
   17.6609  -25.4432   -8.3002 N   0  0  0  0  0  0  0  0  0  0  0  0
   16.8952  -25.2749   -5.9918 C   0  0  0  0  0  0  0  0  0  0  0  0
   15.7181  -25.4991   -6.3351 O   0  0  0  0  0  0  0  0  0  0  0  0
   16.4782  -27.3402   -1.4774 C   0  0  0  0  0  0  0  0  0  0  0  0
   17.3198  -26.9788   -2.7054 C   0  0  2  0  0  0  0  0  0  0  0  0
   18.6881  -26.6398   -2.2309 C   0  0  0  0  0  0  0  0  0  0  0  0
   16.6172  -25.9336   -3.5130 C   0  0  2  0  0  0  0  0  0  0  0  0
   17.3365  -25.4894   -4.6858 N   0  0  0  0  0  0  0  0  0  0  0  0
   16.0056  -24.8226   -2.7870 C   0  0  0  0  0  0  0  0  0  0  0  0
   16.7569  -23.9416   -2.2096 O   0  0  0  0  0  0  0  0  0  0  0  0
   14.6334  -24.6136   -2.6621 N   0  0  0  0  0  0  0  0  0  0  0  0
   14.0551  -23.5261   -1.8599 C   0  0  1  0  0  0  0  0  0  0  0  0
   13.8454  -22.4183   -2.8639 C   0  0  0  0  0  0  0  0  0  0  0  0
   13.1894  -21.2132   -2.3721 C   0  0  0  0  0  0  0  0  0  0  0  0
   13.5156  -20.5346   -1.1840 C   0  0  0  0  0  0  0  0  0  0  0  0
   12.6852  -19.4930   -1.0308 N   0  0  0  0  0  0  0  0  0  0  0  0
   11.8127  -19.4307   -2.0561 C   0  0  0  0  0  0  0  0  0  0  0  0
   10.8063  -18.5262   -2.3167 C   0  0  0  0  0  0  0  0  0  0  0  0
   10.0730  -18.6936   -3.4704 C   0  0  0  0  0  0  0  0  0  0  0  0
   10.3712  -19.7607   -4.3254 C   0  0  0  0  0  0  0  0  0  0  0  0
   11.3812  -20.6413   -4.0307 C   0  0  0  0  0  0  0  0  0  0  0  0
   12.1286  -20.5000   -2.8875 C   0  0  0  0  0  0  0  0  0  0  0  0
   12.7851  -23.9720   -1.3127 C   0  0  0  0  0  0  0  0  0  0  0  0
   12.2908  -23.4136   -0.1464 O   0  0  0  0  0  0  0  0  0  0  0  0
   12.0585  -24.8685   -1.8331 O   0  0  0  0  0  0  0  0  0  0  0  0
  2  1  1  0
  3  4  1  6
  3  2  1  0
  5  3  1  0
  6  5  2  0
  8  7  1  1
  8  9  1  0
 10  8  1  0
 10 11  1  6
 11  5  1  0
 12 10  1  0
 13 12  2  0
 14 12  1  0
 15 14  1  0
 15 16  1  6
 16 17  1  0
 17 25  1  0
 18 17  2  0
 18 19  1  0
 19 20  1  0
 20 21  1  0
 21 22  2  0
 23 22  1  0
 24 23  2  0
 25 20  2  0
 25 24  1  0
 26 15  1  0
 26 27  1  0
 28 26  2  0
M  END
$$$$
