SVW.pdb
     RDKit          3D

 28 29  0  0  1  0  0  0  0  0999 V2000
   28.6123  -22.0431  -14.6159 O   0  0  0  0  0  0  0  0  0  0  0  0
   28.2898  -22.2554  -15.9700 C   0  0  0  0  0  0  0  0  0  0  0  0
   27.0589  -21.4343  -16.2767 C   0  0  2  0  0  0  0  0  0  0  0  0
   27.3636  -20.5936  -17.3898 N   0  0  0  0  0  0  0  0  0  0  0  0
   26.7069  -20.6370  -15.0424 C   0  0  0  0  0  0  0  0  0  0  0  0
   27.3818  -19.6123  -14.8229 O   0  0  0  0  0  0  0  0  0  0  0  0
   22.7195  -21.1640  -13.3752 C   0  0  0  0  0  0  0  0  0  0  0  0
   23.6247  -19.9284  -13.3478 C   0  0  2  0  0  0  0  0  0  0  0  0
   23.3726  -19.1565  -14.5941 C   0  0  0  0  0  0  0  0  0  0  0  0
   25.0404  -20.3413  -13.0954 C   0  0  2  0  0  0  0  0  0  0  0  0
   25.6737  -21.0358  -14.1939 N   0  0  0  0  0  0  0  0  0  0  0  0
   25.3397  -20.9597  -11.8056 C   0  0  0  0  0  0  0  0  0  0  0  0
   25.3317  -22.2487  -11.6941 O   0  0  0  0  0  0  0  0  0  0  0  0
   25.6527  -20.2599  -10.6417 N   0  0  0  0  0  0  0  0  0  0  0  0
   25.8649  -20.9138   -9.3425 C   0  0  1  0  0  0  0  0  0  0  0  0
   26.8878  -20.0334   -8.6657 C   0  0  0  0  0  0  0  0  0  0  0  0
   27.2461  -20.3890   -7.2984 C   0  0  0  0  0  0  0  0  0  0  0  0
   26.8619  -21.5686   -6.6355 C   0  0  0  0  0  0  0  0  0  0  0  0
   27.3396  -21.5441   -5.3829 N   0  0  0  0  0  0  0  0  0  0  0  0
   28.0294  -20.4072   -5.1633 C   0  0  0  0  0  0  0  0  0  0  0  0
   28.6992  -19.9737   -4.0398 C   0  0  0  0  0  0  0  0  0  0  0  0
   29.3479  -18.7605   -4.1051 C   0  0  0  0  0  0  0  0  0  0  0  0
   29.3050  -18.0214   -5.2927 C   0  0  0  0  0  0  0  0  0  0  0  0
   28.6264  -18.4868   -6.3906 C   0  0  0  0  0  0  0  0  0  0  0  0
   27.9698  -19.6922   -6.3548 C   0  0  0  0  0  0  0  0  0  0  0  0
   24.6128  -20.9082   -8.6054 C   0  0  0  0  0  0  0  0  0  0  0  0
   24.3785  -21.8485   -7.6168 O   0  0  0  0  0  0  0  0  0  0  0  0
   23.6742  -20.0809   -8.7980 O   0  0  0  0  0  0  0  0  0  0  0  0
  2  1  1  0
  3  4  1  6
  3  2  1  0
  5  3  1  0
  6  5  2  0
  8  7  1  6
  8  9  1  0
 10  8  1  0
 10 11  1  6
 11  5  1  0
 12 10  1  0
 13 12  2  0
 14 12  1  0
 15 14  1  0
 15 16  1  1
 16 17  1  0
 17 25  1  0
 18 17  2  0
 18 19  1  0
 19 20  1  0
 20 21  1  0
 21 22  2  0
 23 22  1  0
 24 23  2  0
 25 20  2  0
 25 24  1  0
 26 15  1  0
 26 27  1  0
 28 26  2  0
M  END
$$$$
