SVW.pdb
     RDKit          3D

 28 29  0  0  1  0  0  0  0  0999 V2000
   21.7177  -14.9966  -17.7284 O   0  0  0  0  0  0  0  0  0  0  0  0
   21.0847  -13.7648  -17.9824 C   0  0  0  0  0  0  0  0  0  0  0  0
   19.6083  -13.9514  -17.7205 C   0  0  2  0  0  0  0  0  0  0  0  0
   19.0703  -14.7222  -18.7953 N   0  0  0  0  0  0  0  0  0  0  0  0
   18.9715  -12.5843  -17.6278 C   0  0  0  0  0  0  0  0  0  0  0  0
   18.8634  -11.9406  -18.6897 O   0  0  0  0  0  0  0  0  0  0  0  0
   16.5654  -11.5305  -14.1159 C   0  0  0  0  0  0  0  0  0  0  0  0
   16.4980  -10.9536  -15.5334 C   0  0  2  0  0  0  0  0  0  0  0  0
   15.5436  -11.7853  -16.3143 C   0  0  0  0  0  0  0  0  0  0  0  0
   17.8788  -10.8210  -16.0941 C   0  0  2  0  0  0  0  0  0  0  0  0
   18.5280  -12.0742  -16.4073 N   0  0  0  0  0  0  0  0  0  0  0  0
   18.7831   -9.8802  -15.4364 C   0  0  0  0  0  0  0  0  0  0  0  0
   19.3691  -10.2171  -14.3332 O   0  0  0  0  0  0  0  0  0  0  0  0
   19.0894   -8.6067  -15.9125 N   0  0  0  0  0  0  0  0  0  0  0  0
   19.9833   -7.6776  -15.2065 C   0  0  1  0  0  0  0  0  0  0  0  0
   20.2321   -6.5866  -16.2200 C   0  0  0  0  0  0  0  0  0  0  0  0
   21.0323   -5.4543  -15.7704 C   0  0  0  0  0  0  0  0  0  0  0  0
   22.4229   -5.4713  -15.5597 C   0  0  0  0  0  0  0  0  0  0  0  0
   22.8145   -4.2686  -15.1146 N   0  0  0  0  0  0  0  0  0  0  0  0
   21.7591   -3.4365  -15.0138 C   0  0  0  0  0  0  0  0  0  0  0  0
   21.6984   -2.1171  -14.6209 C   0  0  0  0  0  0  0  0  0  0  0  0
   20.4689   -1.4967  -14.6361 C   0  0  0  0  0  0  0  0  0  0  0  0
   19.3407   -2.2172  -15.0442 C   0  0  0  0  0  0  0  0  0  0  0  0
   19.4417   -3.5307  -15.4278 C   0  0  0  0  0  0  0  0  0  0  0  0
   20.6539   -4.1756  -15.4221 C   0  0  0  0  0  0  0  0  0  0  0  0
   19.2882   -7.1513  -14.0441 C   0  0  0  0  0  0  0  0  0  0  0  0
   17.9148   -6.9793  -14.0684 O   0  0  0  0  0  0  0  0  0  0  0  0
   19.8555   -6.8205  -12.9619 O   0  0  0  0  0  0  0  0  0  0  0  0
  2  1  1  0
  3  4  1  6
  3  2  1  0
  5  3  1  0
  6  5  2  0
  8  7  1  1
  8  9  1  0
 10  8  1  0
 10 11  1  1
 11  5  1  0
 12 10  1  0
 13 12  2  0
 14 12  1  0
 15 14  1  0
 15 16  1  6
 16 17  1  0
 17 25  1  0
 18 17  2  0
 18 19  1  0
 19 20  1  0
 20 21  1  0
 21 22  2  0
 23 22  1  0
 24 23  2  0
 25 20  2  0
 25 24  1  0
 26 15  1  0
 26 27  1  0
 28 26  2  0
M  END
$$$$
