SVW.pdb
     RDKit          3D

 28 29  0  0  1  0  0  0  0  0999 V2000
   17.4792   -7.2742  -18.2017 O   0  0  0  0  0  0  0  0  0  0  0  0
   17.6621   -8.2263  -17.1806 C   0  0  0  0  0  0  0  0  0  0  0  0
   19.1446   -8.3114  -16.9007 C   0  0  2  0  0  0  0  0  0  0  0  0
   19.6216   -9.5380  -17.4545 N   0  0  0  0  0  0  0  0  0  0  0  0
   19.3441   -8.2484  -15.4042 C   0  0  0  0  0  0  0  0  0  0  0  0
   19.1084   -9.2896  -14.7607 O   0  0  0  0  0  0  0  0  0  0  0  0
   21.3305   -5.6394  -11.6242 C   0  0  0  0  0  0  0  0  0  0  0  0
   21.2078   -5.9179  -13.1257 C   0  0  2  0  0  0  0  0  0  0  0  0
   21.2302   -4.6085  -13.8309 C   0  0  0  0  0  0  0  0  0  0  0  0
   20.0227   -6.7935  -13.3847 C   0  0  2  0  0  0  0  0  0  0  0  0
   19.7722   -7.0764  -14.7802 N   0  0  0  0  0  0  0  0  0  0  0  0
   18.7937   -6.4939  -12.6532 C   0  0  0  0  0  0  0  0  0  0  0  0
   18.0470   -5.5064  -13.0292 O   0  0  0  0  0  0  0  0  0  0  0  0
   18.3312   -7.2079  -11.5492 N   0  0  0  0  0  0  0  0  0  0  0  0
   17.0297   -6.9540  -10.9149 C   0  0  1  0  0  0  0  0  0  0  0  0
   16.3594   -8.3068  -10.9283 C   0  0  0  0  0  0  0  0  0  0  0  0
   15.0532   -8.3894  -10.2867 C   0  0  0  0  0  0  0  0  0  0  0  0
   14.2286   -7.2941   -9.9724 C   0  0  0  0  0  0  0  0  0  0  0  0
   13.1225   -7.7388   -9.3586 N   0  0  0  0  0  0  0  0  0  0  0  0
   13.1553   -9.0810   -9.2418 C   0  0  0  0  0  0  0  0  0  0  0  0
   12.2344   -9.9516   -8.7007 C   0  0  0  0  0  0  0  0  0  0  0  0
   12.5222  -11.2979   -8.7372 C   0  0  0  0  0  0  0  0  0  0  0  0
   13.7223  -11.7286   -9.3142 C   0  0  0  0  0  0  0  0  0  0  0  0
   14.6149  -10.8303   -9.8422 C   0  0  0  0  0  0  0  0  0  0  0  0
   14.3553   -9.4821   -9.8193 C   0  0  0  0  0  0  0  0  0  0  0  0
   17.2531   -6.5038   -9.5516 C   0  0  0  0  0  0  0  0  0  0  0  0
   18.4196   -6.8397   -8.8860 O   0  0  0  0  0  0  0  0  0  0  0  0
   16.4360   -5.7998   -8.8889 O   0  0  0  0  0  0  0  0  0  0  0  0
  2  1  1  0
  3  4  1  1
  3  2  1  0
  5  3  1  0
  6  5  2  0
  8  7  1  1
  8  9  1  0
 10  8  1  0
 10 11  1  6
 11  5  1  0
 12 10  1  0
 13 12  2  0
 14 12  1  0
 15 14  1  0
 15 16  1  1
 16 17  1  0
 17 25  1  0
 18 17  2  0
 18 19  1  0
 19 20  1  0
 20 21  1  0
 21 22  2  0
 23 22  1  0
 24 23  2  0
 25 20  2  0
 25 24  1  0
 26 15  1  0
 26 27  1  0
 28 26  2  0
M  END
$$$$
