SVW.pdb
     RDKit          3D

 28 29  0  0  1  0  0  0  0  0999 V2000
   22.2324  -23.9571  -14.7144 O   0  0  0  0  0  0  0  0  0  0  0  0
   21.6393  -23.3320  -13.6008 C   0  0  0  0  0  0  0  0  0  0  0  0
   20.2242  -22.9681  -13.9857 C   0  0  2  0  0  0  0  0  0  0  0  0
   20.2924  -21.9099  -14.9419 N   0  0  0  0  0  0  0  0  0  0  0  0
   19.4885  -22.5545  -12.7324 C   0  0  0  0  0  0  0  0  0  0  0  0
   19.8214  -21.4698  -12.2164 O   0  0  0  0  0  0  0  0  0  0  0  0
   15.4625  -23.9023  -12.0093 C   0  0  0  0  0  0  0  0  0  0  0  0
   16.2203  -22.7127  -11.4111 C   0  0  2  0  0  0  0  0  0  0  0  0
   16.0890  -21.5723  -12.3569 C   0  0  0  0  0  0  0  0  0  0  0  0
   17.6135  -23.1253  -11.0548 C   0  0  2  0  0  0  0  0  0  0  0  0
   18.4850  -23.3546  -12.1853 N   0  0  0  0  0  0  0  0  0  0  0  0
   17.7678  -24.1482  -10.0226 C   0  0  0  0  0  0  0  0  0  0  0  0
   17.8893  -25.3906  -10.3627 O   0  0  0  0  0  0  0  0  0  0  0  0
   17.8052  -23.8960   -8.6524 N   0  0  0  0  0  0  0  0  0  0  0  0
   17.7816  -24.9594   -7.6380 C   0  0  1  0  0  0  0  0  0  0  0  0
   18.1433  -24.2392   -6.3614 C   0  0  0  0  0  0  0  0  0  0  0  0
   17.9034  -24.9622   -5.1187 C   0  0  0  0  0  0  0  0  0  0  0  0
   18.6928  -26.0156   -4.6230 C   0  0  0  0  0  0  0  0  0  0  0  0
   18.1573  -26.4651   -3.4789 N   0  0  0  0  0  0  0  0  0  0  0  0
   17.0446  -25.7688   -3.1734 C   0  0  0  0  0  0  0  0  0  0  0  0
   16.1944  -25.8753   -2.0942 C   0  0  0  0  0  0  0  0  0  0  0  0
   15.1302  -25.0038   -2.0244 C   0  0  0  0  0  0  0  0  0  0  0  0
   14.9522  -24.0543   -3.0370 C   0  0  0  0  0  0  0  0  0  0  0  0
   15.8205  -23.9799   -4.0967 C   0  0  0  0  0  0  0  0  0  0  0  0
   16.8898  -24.8360   -4.1934 C   0  0  0  0  0  0  0  0  0  0  0  0
   16.4358  -25.5018   -7.5593 C   0  0  0  0  0  0  0  0  0  0  0  0
   16.2343  -26.8257   -7.2087 O   0  0  0  0  0  0  0  0  0  0  0  0
   15.3836  -24.8387   -7.7952 O   0  0  0  0  0  0  0  0  0  0  0  0
  2  1  1  0
  3  4  1  6
  3  2  1  0
  5  3  1  0
  6  5  2  0
  8  7  1  6
  8  9  1  0
 10  8  1  0
 10 11  1  6
 11  5  1  0
 12 10  1  0
 13 12  2  0
 14 12  1  0
 15 14  1  0
 15 16  1  1
 16 17  1  0
 17 25  1  0
 18 17  2  0
 18 19  1  0
 19 20  1  0
 20 21  1  0
 21 22  2  0
 23 22  1  0
 24 23  2  0
 25 20  2  0
 25 24  1  0
 26 15  1  0
 26 27  1  0
 28 26  2  0
M  END
$$$$
