SVW.pdb
     RDKit          3D

 28 29  0  0  1  0  0  0  0  0999 V2000
   33.8899  -34.7426  -20.6925 O   0  0  0  0  0  0  0  0  0  0  0  0
   33.8354  -33.6554  -21.5856 C   0  0  0  0  0  0  0  0  0  0  0  0
   34.8877  -32.6608  -21.1534 C   0  0  2  0  0  0  0  0  0  0  0  0
   36.1344  -33.3525  -21.0776 N   0  0  0  0  0  0  0  0  0  0  0  0
   34.4730  -32.0894  -19.8175 C   0  0  0  0  0  0  0  0  0  0  0  0
   34.9542  -32.6277  -18.8014 O   0  0  0  0  0  0  0  0  0  0  0  0
   33.2400  -27.9398  -19.3463 C   0  0  0  0  0  0  0  0  0  0  0  0
   33.7498  -28.9712  -18.3347 C   0  0  2  0  0  0  0  0  0  0  0  0
   35.2364  -28.9512  -18.3802 C   0  0  0  0  0  0  0  0  0  0  0  0
   33.0938  -30.2928  -18.5823 C   0  0  2  0  0  0  0  0  0  0  0  0
   33.5928  -31.0102  -19.7340 N   0  0  0  0  0  0  0  0  0  0  0  0
   31.6367  -30.3476  -18.4867 C   0  0  0  0  0  0  0  0  0  0  0  0
   30.9120  -29.9137  -19.4668 O   0  0  0  0  0  0  0  0  0  0  0  0
   30.9297  -30.8517  -17.3966 N   0  0  0  0  0  0  0  0  0  0  0  0
   29.4614  -30.8792  -17.3333 C   0  0  1  0  0  0  0  0  0  0  0  0
   29.1671  -32.0700  -16.4531 C   0  0  0  0  0  0  0  0  0  0  0  0
   27.7611  -32.3485  -16.1880 C   0  0  0  0  0  0  0  0  0  0  0  0
   26.6936  -32.0502  -17.0539 C   0  0  0  0  0  0  0  0  0  0  0  0
   25.5413  -32.4120  -16.4715 N   0  0  0  0  0  0  0  0  0  0  0  0
   25.7740  -32.9415  -15.2543 C   0  0  0  0  0  0  0  0  0  0  0  0
   24.8978  -33.4563  -14.3236 C   0  0  0  0  0  0  0  0  0  0  0  0
   25.4231  -33.9608  -13.1547 C   0  0  0  0  0  0  0  0  0  0  0  0
   26.8082  -33.9337  -12.9559 C   0  0  0  0  0  0  0  0  0  0  0  0
   27.6485  -33.4118  -13.9066 C   0  0  0  0  0  0  0  0  0  0  0  0
   27.1534  -32.9010  -15.0812 C   0  0  0  0  0  0  0  0  0  0  0  0
   28.9964  -29.6515  -16.7106 C   0  0  0  0  0  0  0  0  0  0  0  0
   29.7162  -29.0742  -15.6785 O   0  0  0  0  0  0  0  0  0  0  0  0
   27.9417  -29.0363  -17.0444 O   0  0  0  0  0  0  0  0  0  0  0  0
  2  1  1  0
  3  4  1  1
  3  2  1  0
  5  3  1  0
  6  5  2  0
  8  7  1  6
  8  9  1  0
 10  8  1  0
 10 11  1  6
 11  5  1  0
 12 10  1  0
 13 12  2  0
 14 12  1  0
 15 14  1  0
 15 16  1  1
 16 17  1  0
 17 25  1  0
 18 17  2  0
 18 19  1  0
 19 20  1  0
 20 21  1  0
 21 22  2  0
 23 22  1  0
 24 23  2  0
 25 20  2  0
 25 24  1  0
 26 15  1  0
 26 27  1  0
 28 26  2  0
M  END
$$$$
