SVW.pdb
     RDKit          3D

 28 29  0  0  1  0  0  0  0  0999 V2000
   26.0983  -23.4722  -17.1391 O   0  0  0  0  0  0  0  0  0  0  0  0
   27.4235  -23.6338  -16.6914 C   0  0  0  0  0  0  0  0  0  0  0  0
   28.1291  -22.3105  -16.8769 C   0  0  2  0  0  0  0  0  0  0  0  0
   29.3259  -22.5560  -17.6158 N   0  0  0  0  0  0  0  0  0  0  0  0
   28.4141  -21.7348  -15.5092 C   0  0  0  0  0  0  0  0  0  0  0  0
   29.5259  -21.9954  -15.0094 O   0  0  0  0  0  0  0  0  0  0  0  0
   26.0605  -18.3301  -14.1353 C   0  0  0  0  0  0  0  0  0  0  0  0
   27.4819  -18.7352  -13.7320 C   0  0  2  0  0  0  0  0  0  0  0  0
   28.4220  -18.1022  -14.6953 C   0  0  0  0  0  0  0  0  0  0  0  0
   27.5673  -20.2229  -13.5981 C   0  0  2  0  0  0  0  0  0  0  0  0
   27.4720  -20.9496  -14.8443 N   0  0  0  0  0  0  0  0  0  0  0  0
   26.7845  -20.8473  -12.5338 C   0  0  0  0  0  0  0  0  0  0  0  0
   25.6935  -21.4788  -12.8250 O   0  0  0  0  0  0  0  0  0  0  0  0
   27.1240  -20.8302  -11.1822 N   0  0  0  0  0  0  0  0  0  0  0  0
   26.3436  -21.5245  -10.1480 C   0  0  1  0  0  0  0  0  0  0  0  0
   27.3069  -21.6333   -8.9907 C   0  0  0  0  0  0  0  0  0  0  0  0
   27.2730  -20.5510   -8.0150 C   0  0  0  0  0  0  0  0  0  0  0  0
   26.4976  -19.3822   -8.1206 C   0  0  0  0  0  0  0  0  0  0  0  0
   26.7433  -18.5950   -7.0633 N   0  0  0  0  0  0  0  0  0  0  0  0
   27.6458  -19.1719   -6.2454 C   0  0  0  0  0  0  0  0  0  0  0  0
   28.1725  -18.7350   -5.0494 C   0  0  0  0  0  0  0  0  0  0  0  0
   29.0744  -19.5531   -4.4059 C   0  0  0  0  0  0  0  0  0  0  0  0
   29.4194  -20.7816   -4.9807 C   0  0  0  0  0  0  0  0  0  0  0  0
   28.8737  -21.1814   -6.1743 C   0  0  0  0  0  0  0  0  0  0  0  0
   27.9726  -20.3866   -6.8389 C   0  0  0  0  0  0  0  0  0  0  0  0
   25.2014  -20.7003   -9.7911 C   0  0  0  0  0  0  0  0  0  0  0  0
   24.1658  -21.2276   -9.0389 O   0  0  0  0  0  0  0  0  0  0  0  0
   25.0643  -19.4868  -10.1243 O   0  0  0  0  0  0  0  0  0  0  0  0
  2  1  1  0
  3  4  1  1
  3  2  1  0
  5  3  1  0
  6  5  2  0
  8  7  1  6
  8  9  1  0
 10  8  1  0
 10 11  1  6
 11  5  1  0
 12 10  1  0
 13 12  2  0
 14 12  1  0
 15 14  1  0
 15 16  1  1
 16 17  1  0
 17 25  1  0
 18 17  2  0
 18 19  1  0
 19 20  1  0
 20 21  1  0
 21 22  2  0
 23 22  1  0
 24 23  2  0
 25 20  2  0
 25 24  1  0
 26 15  1  0
 26 27  1  0
 28 26  2  0
M  END
$$$$
