SVW.pdb
     RDKit          3D

 28 29  0  0  1  0  0  0  0  0999 V2000
   30.3246  -23.9909  -15.5106 O   0  0  0  0  0  0  0  0  0  0  0  0
   30.0742  -22.6887  -15.0372 C   0  0  0  0  0  0  0  0  0  0  0  0
   28.9000  -22.1416  -15.8152 C   0  0  2  0  0  0  0  0  0  0  0  0
   29.3755  -21.7549  -17.1047 N   0  0  0  0  0  0  0  0  0  0  0  0
   28.3308  -20.9725  -15.0456 C   0  0  0  0  0  0  0  0  0  0  0  0
   28.5795  -19.8336  -15.4869 O   0  0  0  0  0  0  0  0  0  0  0  0
   24.3098  -19.5085  -13.4792 C   0  0  0  0  0  0  0  0  0  0  0  0
   25.7045  -19.5436  -14.1121 C   0  0  2  0  0  0  0  0  0  0  0  0
   25.5593  -20.0718  -15.4950 C   0  0  0  0  0  0  0  0  0  0  0  0
   26.6510  -20.2771  -13.2152 C   0  0  2  0  0  0  0  0  0  0  0  0
   27.5639  -21.1673  -13.8966 N   0  0  0  0  0  0  0  0  0  0  0  0
   26.0989  -20.8757  -12.0019 C   0  0  0  0  0  0  0  0  0  0  0  0
   25.5604  -22.0510  -12.0532 O   0  0  0  0  0  0  0  0  0  0  0  0
   26.1070  -20.2752  -10.7442 N   0  0  0  0  0  0  0  0  0  0  0  0
   25.5106  -20.8958   -9.5527 C   0  0  1  0  0  0  0  0  0  0  0  0
   26.0787  -20.0882   -8.4107 C   0  0  0  0  0  0  0  0  0  0  0  0
   27.4467  -20.3986   -8.0146 C   0  0  0  0  0  0  0  0  0  0  0  0
   28.3823  -21.1002   -8.7962 C   0  0  0  0  0  0  0  0  0  0  0  0
   29.5224  -21.2327   -8.1029 N   0  0  0  0  0  0  0  0  0  0  0  0
   29.4070  -20.6553   -6.8906 C   0  0  0  0  0  0  0  0  0  0  0  0
   30.3237  -20.5370   -5.8686 C   0  0  0  0  0  0  0  0  0  0  0  0
   29.9362  -19.8648   -4.7307 C   0  0  0  0  0  0  0  0  0  0  0  0
   28.6439  -19.3330   -4.6533 C   0  0  0  0  0  0  0  0  0  0  0  0
   27.7591  -19.4722   -5.6926 C   0  0  0  0  0  0  0  0  0  0  0  0
   28.1170  -20.1380   -6.8390 C   0  0  0  0  0  0  0  0  0  0  0  0
   24.0668  -20.7468   -9.6202 C   0  0  0  0  0  0  0  0  0  0  0  0
   23.2449  -21.5268   -8.8250 O   0  0  0  0  0  0  0  0  0  0  0  0
   23.4678  -19.9289  -10.3782 O   0  0  0  0  0  0  0  0  0  0  0  0
  2  1  1  0
  3  4  1  6
  3  2  1  0
  5  3  1  0
  6  5  2  0
  8  7  1  1
  8  9  1  0
 10  8  1  0
 10 11  1  6
 11  5  1  0
 12 10  1  0
 13 12  2  0
 14 12  1  0
 15 14  1  0
 15 16  1  1
 16 17  1  0
 17 25  1  0
 18 17  2  0
 18 19  1  0
 19 20  1  0
 20 21  1  0
 21 22  2  0
 23 22  1  0
 24 23  2  0
 25 20  2  0
 25 24  1  0
 26 15  1  0
 26 27  1  0
 28 26  2  0
M  END
$$$$
