HKM.pdb
     RDKit          3D

 28 28  0  0  1  0  0  0  0  0999 V2000
   24.8080  -11.2839  -19.5474 N   0  0  0  0  0  0  0  0  0  0  0  0
   24.7726  -10.4778  -18.3412 C   0  0  1  0  0  0  0  0  0  0  0  0
   25.6928   -9.3083  -18.5138 C   0  0  0  0  0  0  0  0  0  0  0  0
   27.0916   -9.7806  -18.4651 C   0  0  0  0  0  0  0  0  0  0  0  0
   27.9485   -9.8258  -17.3621 C   0  0  0  0  0  0  0  0  0  0  0  0
   29.1230  -10.3259  -17.7834 N   0  0  0  0  0  0  0  0  0  0  0  0
   29.0150  -10.5864  -19.0970 C   0  0  0  0  0  0  0  0  0  0  0  0
   27.7995  -10.2624  -19.5154 N   0  0  0  0  0  0  0  0  0  0  0  0
   23.3753  -10.0409  -18.0549 C   0  0  0  0  0  0  0  0  0  0  0  0
   22.7130   -9.5582  -19.0205 O   0  0  0  0  0  0  0  0  0  0  0  0
   22.8360  -10.1689  -16.7576 N   0  0  0  0  0  0  0  0  0  0  0  0
   21.4492   -9.8439  -16.4666 C   0  0  1  0  0  0  0  0  0  0  0  0
   20.8284  -10.8829  -15.5768 C   0  0  0  0  0  0  0  0  0  0  0  0
   20.2962  -11.9949  -16.3848 C   0  0  0  0  0  0  0  0  0  0  0  0
   19.5989  -13.0722  -15.5880 C   0  0  0  0  0  0  0  0  0  0  0  0
   19.1548  -14.2337  -16.4169 C   0  0  0  0  0  0  0  0  0  0  0  0
   18.5220  -15.2560  -15.6037 N   0  0  0  0  0  0  0  0  0  0  0  0
   21.4540   -8.5341  -15.7770 C   0  0  0  0  0  0  0  0  0  0  0  0
   22.2587   -8.1994  -14.8727 O   0  0  0  0  0  0  0  0  0  0  0  0
   21.9677   -1.0249  -16.2925 C   0  0  0  0  0  0  0  0  0  0  0  0
   22.0261   -2.7055  -16.9512 S   0  0  0  0  0  0  0  0  0  0  0  0
   21.2250   -3.8874  -15.8756 C   0  0  0  0  0  0  0  0  0  0  0  0
   21.1680   -5.2844  -16.3372 C   0  0  0  0  0  0  0  0  0  0  0  0
   20.4763   -6.2520  -15.4450 C   0  0  2  0  0  0  0  0  0  0  0  0
   20.4915   -7.5658  -16.1418 N   0  0  0  0  0  0  0  0  0  0  0  0
   19.0933   -5.9427  -15.0780 C   0  0  0  0  0  0  0  0  0  0  0  0
   18.1685   -6.5124  -15.7434 O   0  0  0  0  0  0  0  0  0  0  0  0
   18.6794   -5.1014  -14.0795 O   0  0  0  0  0  0  0  0  0  0  0  0
  2  1  1  6
  3  2  1  0
  4  3  1  0
  4  5  2  0
  6  5  1  0
  7  6  1  0
  8  7  2  0
  8  4  1  0
  9  2  1  0
 10  9  2  0
 11  9  1  0
 12 11  1  0
 12 13  1  1
 13 14  1  0
 14 15  1  0
 16 15  1  0
 17 16  1  0
 18 12  1  0
 19 18  2  0
 21 20  1  0
 22 21  1  0
 23 22  1  0
 24 23  1  6
 24 25  1  0
 25 18  1  0
 26 24  1  0
 26 28  1  0
 27 26  2  0
M  END
$$$$
