HKM.pdb
     RDKit          3D

 28 28  0  0  1  0  0  0  0  0999 V2000
   18.9077  -19.4845  -14.4188 N   0  0  0  0  0  0  0  0  0  0  0  0
   20.2507  -18.9347  -14.4045 C   0  0  1  0  0  0  0  0  0  0  0  0
   20.2408  -17.6543  -13.6270 C   0  0  0  0  0  0  0  0  0  0  0  0
   19.5490  -16.6138  -14.4150 C   0  0  0  0  0  0  0  0  0  0  0  0
   20.0417  -15.8837  -15.5000 C   0  0  0  0  0  0  0  0  0  0  0  0
   19.0670  -15.0493  -15.9012 N   0  0  0  0  0  0  0  0  0  0  0  0
   18.0025  -15.2423  -15.1047 C   0  0  0  0  0  0  0  0  0  0  0  0
   18.2819  -16.1793  -14.2094 N   0  0  0  0  0  0  0  0  0  0  0  0
   21.2054  -19.9232  -13.8245 C   0  0  0  0  0  0  0  0  0  0  0  0
   20.9539  -20.3528  -12.6600 O   0  0  0  0  0  0  0  0  0  0  0  0
   22.3329  -20.3467  -14.5592 N   0  0  0  0  0  0  0  0  0  0  0  0
   23.1951  -21.4202  -14.0925 C   0  0  1  0  0  0  0  0  0  0  0  0
   23.6810  -22.2578  -15.2409 C   0  0  0  0  0  0  0  0  0  0  0  0
   24.5105  -23.3711  -14.7457 C   0  0  0  0  0  0  0  0  0  0  0  0
   25.2098  -24.1618  -15.8262 C   0  0  0  0  0  0  0  0  0  0  0  0
   25.9967  -25.3196  -15.3031 C   0  0  0  0  0  0  0  0  0  0  0  0
   26.6875  -26.0187  -16.3711 N   0  0  0  0  0  0  0  0  0  0  0  0
   24.3471  -20.7794  -13.4190 C   0  0  0  0  0  0  0  0  0  0  0  0
   24.8735  -19.6943  -13.7692 O   0  0  0  0  0  0  0  0  0  0  0  0
   28.1160  -20.0696   -6.5515 C   0  0  0  0  0  0  0  0  0  0  0  0
   26.8557  -20.9082   -7.5365 S   0  0  0  0  0  0  0  0  0  0  0  0
   26.9793  -20.5181   -9.2766 C   0  0  0  0  0  0  0  0  0  0  0  0
   25.9246  -21.0440  -10.1593 C   0  0  0  0  0  0  0  0  0  0  0  0
   26.0842  -20.7841  -11.6144 C   0  0  2  0  0  0  0  0  0  0  0  0
   24.9204  -21.4134  -12.2937 N   0  0  0  0  0  0  0  0  0  0  0  0
   27.3081  -21.2809  -12.2457 C   0  0  0  0  0  0  0  0  0  0  0  0
   27.2628  -22.4331  -12.7869 O   0  0  0  0  0  0  0  0  0  0  0  0
   28.5110  -20.6306  -12.3247 O   0  0  0  0  0  0  0  0  0  0  0  0
  2  1  1  1
  3  2  1  0
  4  3  1  0
  4  5  2  0
  6  5  1  0
  7  6  1  0
  8  7  2  0
  8  4  1  0
  9  2  1  0
 10  9  2  0
 11  9  1  0
 12 11  1  0
 12 13  1  6
 13 14  1  0
 14 15  1  0
 16 15  1  0
 17 16  1  0
 18 12  1  0
 19 18  2  0
 21 20  1  0
 22 21  1  0
 23 22  1  0
 24 23  1  1
 24 25  1  0
 25 18  1  0
 26 24  1  0
 26 28  1  0
 27 26  2  0
M  END
$$$$
