HKM.pdb
     RDKit          3D

 28 28  0  0  1  0  0  0  0  0999 V2000
   28.1190  -21.4325  -17.4662 N   0  0  0  0  0  0  0  0  0  0  0  0
   28.1714  -21.8689  -16.0831 C   0  0  1  0  0  0  0  0  0  0  0  0
   29.5751  -21.7192  -15.5816 C   0  0  0  0  0  0  0  0  0  0  0  0
   30.4162  -22.7814  -16.1703 C   0  0  0  0  0  0  0  0  0  0  0  0
   30.6728  -24.0583  -15.6635 C   0  0  0  0  0  0  0  0  0  0  0  0
   31.4912  -24.6797  -16.5302 N   0  0  0  0  0  0  0  0  0  0  0  0
   31.7424  -23.8330  -17.5426 C   0  0  0  0  0  0  0  0  0  0  0  0
   31.1017  -22.6910  -17.3358 N   0  0  0  0  0  0  0  0  0  0  0  0
   27.2063  -21.0849  -15.2590 C   0  0  0  0  0  0  0  0  0  0  0  0
   27.4959  -19.8737  -15.0286 O   0  0  0  0  0  0  0  0  0  0  0  0
   26.0286  -21.6870  -14.7682 N   0  0  0  0  0  0  0  0  0  0  0  0
   25.0707  -20.9528  -13.9577 C   0  0  1  0  0  0  0  0  0  0  0  0
   23.6649  -21.2120  -14.4195 C   0  0  0  0  0  0  0  0  0  0  0  0
   22.7023  -20.5470  -13.5229 C   0  0  0  0  0  0  0  0  0  0  0  0
   21.2519  -20.8117  -13.8517 C   0  0  0  0  0  0  0  0  0  0  0  0
   20.2966  -20.0739  -12.9706 C   0  0  0  0  0  0  0  0  0  0  0  0
   19.9615  -20.8445  -11.7872 N   0  0  0  0  0  0  0  0  0  0  0  0
   25.2353  -21.4301  -12.5662 C   0  0  0  0  0  0  0  0  0  0  0  0
   25.2349  -22.6354  -12.2136 O   0  0  0  0  0  0  0  0  0  0  0  0
   29.5072  -20.0832   -7.1516 C   0  0  0  0  0  0  0  0  0  0  0  0
   27.8559  -19.3519   -7.1472 S   0  0  0  0  0  0  0  0  0  0  0  0
   26.6561  -20.3726   -7.9922 C   0  0  0  0  0  0  0  0  0  0  0  0
   26.5423  -20.2073   -9.4509 C   0  0  0  0  0  0  0  0  0  0  0  0
   25.4318  -20.9368  -10.1183 C   0  0  2  0  0  0  0  0  0  0  0  0
   25.4075  -20.4807  -11.5337 N   0  0  0  0  0  0  0  0  0  0  0  0
   24.0917  -20.7611   -9.5561 C   0  0  0  0  0  0  0  0  0  0  0  0
   23.3048  -19.9583  -10.1552 O   0  0  0  0  0  0  0  0  0  0  0  0
   23.5822  -21.3790   -8.4448 O   0  0  0  0  0  0  0  0  0  0  0  0
  2  1  1  6
  3  2  1  0
  4  3  1  0
  4  5  2  0
  6  5  1  0
  7  6  1  0
  8  7  2  0
  8  4  1  0
  9  2  1  0
 10  9  2  0
 11  9  1  0
 12 11  1  0
 12 13  1  6
 13 14  1  0
 14 15  1  0
 16 15  1  0
 17 16  1  0
 18 12  1  0
 19 18  2  0
 21 20  1  0
 22 21  1  0
 23 22  1  0
 24 23  1  1
 24 25  1  0
 25 18  1  0
 26 24  1  0
 26 28  1  0
 27 26  2  0
M  END
$$$$
