HKM.pdb
     RDKit          3D

 28 28  0  0  1  0  0  0  0  0999 V2000
   26.0934  -16.4387  -17.5231 N   0  0  0  0  0  0  0  0  0  0  0  0
   25.4665  -16.5309  -16.2175 C   0  0  1  0  0  0  0  0  0  0  0  0
   24.6208  -15.3137  -15.9999 C   0  0  0  0  0  0  0  0  0  0  0  0
   25.4911  -14.1211  -15.9503 C   0  0  0  0  0  0  0  0  0  0  0  0
   25.3743  -12.9374  -16.6839 C   0  0  0  0  0  0  0  0  0  0  0  0
   26.3852  -12.1320  -16.3145 N   0  0  0  0  0  0  0  0  0  0  0  0
   27.1114  -12.7776  -15.3867 C   0  0  0  0  0  0  0  0  0  0  0  0
   26.5828  -13.9722  -15.1612 N   0  0  0  0  0  0  0  0  0  0  0  0
   24.6629  -17.7838  -16.1196 C   0  0  0  0  0  0  0  0  0  0  0  0
   23.8110  -17.9951  -17.0326 O   0  0  0  0  0  0  0  0  0  0  0  0
   24.8601  -18.6798  -15.0479 N   0  0  0  0  0  0  0  0  0  0  0  0
   24.0844  -19.9023  -14.9158 C   0  0  1  0  0  0  0  0  0  0  0  0
   24.6940  -20.8184  -13.8932 C   0  0  0  0  0  0  0  0  0  0  0  0
   23.8642  -22.0257  -13.7302 C   0  0  0  0  0  0  0  0  0  0  0  0
   24.3539  -23.2320  -14.4962 C   0  0  0  0  0  0  0  0  0  0  0  0
   23.4443  -24.4133  -14.3930 C   0  0  0  0  0  0  0  0  0  0  0  0
   23.8918  -25.5042  -15.2393 N   0  0  0  0  0  0  0  0  0  0  0  0
   22.7274  -19.5012  -14.4815 C   0  0  0  0  0  0  0  0  0  0  0  0
   22.4780  -18.6416  -13.6005 O   0  0  0  0  0  0  0  0  0  0  0  0
   18.8412  -15.5106  -16.2089 C   0  0  0  0  0  0  0  0  0  0  0  0
   17.7174  -16.9241  -16.2386 S   0  0  0  0  0  0  0  0  0  0  0  0
   18.3234  -18.2971  -15.2676 C   0  0  0  0  0  0  0  0  0  0  0  0
   19.7265  -18.6953  -15.4700 C   0  0  0  0  0  0  0  0  0  0  0  0
   20.2413  -19.7840  -14.5981 C   0  0  2  0  0  0  0  0  0  0  0  0
   21.6069  -20.1153  -15.0852 N   0  0  0  0  0  0  0  0  0  0  0  0
   19.4585  -21.0201  -14.5499 C   0  0  0  0  0  0  0  0  0  0  0  0
   18.5757  -21.1201  -13.6371 O   0  0  0  0  0  0  0  0  0  0  0  0
   19.5686  -22.0927  -15.3946 O   0  0  0  0  0  0  0  0  0  0  0  0
  2  1  1  6
  3  2  1  0
  4  3  1  0
  4  5  2  0
  6  5  1  0
  7  6  1  0
  8  7  2  0
  8  4  1  0
  9  2  1  0
 10  9  2  0
 11  9  1  0
 12 11  1  0
 12 13  1  1
 13 14  1  0
 14 15  1  0
 16 15  1  0
 17 16  1  0
 18 12  1  0
 19 18  2  0
 21 20  1  0
 22 21  1  0
 23 22  1  0
 24 23  1  6
 24 25  1  0
 25 18  1  0
 26 24  1  0
 26 28  1  0
 27 26  2  0
M  END
$$$$
