HKM.pdb
     RDKit          3D

 28 28  0  0  1  0  0  0  0  0999 V2000
   26.6230  -35.1372   -8.2302 N   0  0  0  0  0  0  0  0  0  0  0  0
   27.4729  -34.2023   -7.5163 C   0  0  1  0  0  0  0  0  0  0  0  0
   26.7388  -32.9063   -7.3564 C   0  0  0  0  0  0  0  0  0  0  0  0
   26.5346  -32.2973   -8.6867 C   0  0  0  0  0  0  0  0  0  0  0  0
   25.3263  -31.9952   -9.3204 C   0  0  0  0  0  0  0  0  0  0  0  0
   25.6211  -31.4549  -10.5154 N   0  0  0  0  0  0  0  0  0  0  0  0
   26.9587  -31.4163  -10.6340 C   0  0  0  0  0  0  0  0  0  0  0  0
   27.5161  -31.9197   -9.5415 N   0  0  0  0  0  0  0  0  0  0  0  0
   27.8732  -34.7741   -6.1979 C   0  0  0  0  0  0  0  0  0  0  0  0
   26.9825  -35.3918   -5.5431 O   0  0  0  0  0  0  0  0  0  0  0  0
   29.1922  -34.6210   -5.7212 N   0  0  0  0  0  0  0  0  0  0  0  0
   29.6140  -35.1642   -4.4403 C   0  0  1  0  0  0  0  0  0  0  0  0
   31.1057  -35.0782   -4.2845 C   0  0  0  0  0  0  0  0  0  0  0  0
   31.7670  -36.0771   -5.1432 C   0  0  0  0  0  0  0  0  0  0  0  0
   33.2732  -35.9703   -5.1849 C   0  0  0  0  0  0  0  0  0  0  0  0
   33.9134  -36.9357   -6.1291 C   0  0  0  0  0  0  0  0  0  0  0  0
   35.3483  -36.7314   -6.2064 N   0  0  0  0  0  0  0  0  0  0  0  0
   28.9548  -34.3504   -3.3943 C   0  0  0  0  0  0  0  0  0  0  0  0
   28.5795  -33.1605   -3.5375 O   0  0  0  0  0  0  0  0  0  0  0  0
   22.3956  -33.0861   -0.8461 C   0  0  0  0  0  0  0  0  0  0  0  0
   23.6895  -33.7773   -1.8997 S   0  0  0  0  0  0  0  0  0  0  0  0
   25.2715  -33.8592   -1.0715 C   0  0  0  0  0  0  0  0  0  0  0  0
   26.4197  -34.3329   -1.8623 C   0  0  0  0  0  0  0  0  0  0  0  0
   27.7496  -34.2833   -1.1994 C   0  0  2  0  0  0  0  0  0  0  0  0
   28.7165  -34.9287   -2.1270 N   0  0  0  0  0  0  0  0  0  0  0  0
   27.8630  -34.9334    0.1073 C   0  0  0  0  0  0  0  0  0  0  0  0
   28.2498  -36.1469    0.1272 O   0  0  0  0  0  0  0  0  0  0  0  0
   27.6014  -34.3698    1.3280 O   0  0  0  0  0  0  0  0  0  0  0  0
  2  1  1  1
  3  2  1  0
  4  3  1  0
  4  5  2  0
  6  5  1  0
  7  6  1  0
  8  7  2  0
  8  4  1  0
  9  2  1  0
 10  9  2  0
 11  9  1  0
 12 11  1  0
 12 13  1  1
 13 14  1  0
 14 15  1  0
 16 15  1  0
 17 16  1  0
 18 12  1  0
 19 18  2  0
 21 20  1  0
 22 21  1  0
 23 22  1  0
 24 23  1  6
 24 25  1  0
 25 18  1  0
 26 24  1  0
 26 28  1  0
 27 26  2  0
M  END
$$$$
