HKM.pdb
     RDKit          3D

 28 28  0  0  1  0  0  0  0  0999 V2000
   13.8005  -11.1682  -13.8727 N   0  0  0  0  0  0  0  0  0  0  0  0
   15.1457  -11.0626  -13.3385 C   0  0  1  0  0  0  0  0  0  0  0  0
   16.1050  -11.6601  -14.3218 C   0  0  0  0  0  0  0  0  0  0  0  0
   15.8939  -13.1210  -14.3788 C   0  0  0  0  0  0  0  0  0  0  0  0
   16.3967  -14.0992  -13.5166 C   0  0  0  0  0  0  0  0  0  0  0  0
   15.9487  -15.2897  -13.9513 N   0  0  0  0  0  0  0  0  0  0  0  0
   15.1943  -15.0752  -15.0421 C   0  0  0  0  0  0  0  0  0  0  0  0
   15.1553  -13.7767  -15.3068 N   0  0  0  0  0  0  0  0  0  0  0  0
   15.4734   -9.6368  -13.0471 C   0  0  0  0  0  0  0  0  0  0  0  0
   15.2383   -8.7928  -13.9616 O   0  0  0  0  0  0  0  0  0  0  0  0
   16.0207   -9.2676  -11.8003 N   0  0  0  0  0  0  0  0  0  0  0  0
   16.2610   -7.8777  -11.4481 C   0  0  1  0  0  0  0  0  0  0  0  0
   15.6281   -7.5401  -10.1282 C   0  0  0  0  0  0  0  0  0  0  0  0
   15.8944   -6.1329   -9.7795 C   0  0  0  0  0  0  0  0  0  0  0  0
   15.2767   -5.6812   -8.4771 C   0  0  0  0  0  0  0  0  0  0  0  0
   15.4681   -4.2252   -8.1999 C   0  0  0  0  0  0  0  0  0  0  0  0
   14.7520   -3.8127   -7.0067 N   0  0  0  0  0  0  0  0  0  0  0  0
   17.7287   -7.7090  -11.3559 C   0  0  0  0  0  0  0  0  0  0  0  0
   18.4556   -8.2040  -10.4593 O   0  0  0  0  0  0  0  0  0  0  0  0
   24.3317   -9.6418  -13.8804 C   0  0  0  0  0  0  0  0  0  0  0  0
   22.5261   -9.6053  -13.8922 S   0  0  0  0  0  0  0  0  0  0  0  0
   21.8689   -8.1358  -13.1150 C   0  0  0  0  0  0  0  0  0  0  0  0
   20.4065   -8.0527  -12.9642 C   0  0  0  0  0  0  0  0  0  0  0  0
   19.8742   -6.8311  -12.3048 C   0  0  2  0  0  0  0  0  0  0  0  0
   18.3911   -6.9369  -12.3368 N   0  0  0  0  0  0  0  0  0  0  0  0
   20.2555   -5.5438  -12.8884 C   0  0  0  0  0  0  0  0  0  0  0  0
   21.4631   -5.1669  -12.7396 O   0  0  0  0  0  0  0  0  0  0  0  0
   19.4462   -4.6918  -13.5922 O   0  0  0  0  0  0  0  0  0  0  0  0
  2  1  1  6
  3  2  1  0
  4  3  1  0
  4  5  2  0
  6  5  1  0
  7  6  1  0
  8  7  2  0
  8  4  1  0
  9  2  1  0
 10  9  2  0
 11  9  1  0
 12 11  1  0
 12 13  1  1
 13 14  1  0
 14 15  1  0
 16 15  1  0
 17 16  1  0
 18 12  1  0
 19 18  2  0
 21 20  1  0
 22 21  1  0
 23 22  1  0
 24 23  1  6
 24 25  1  0
 25 18  1  0
 26 24  1  0
 26 28  1  0
 27 26  2  0
M  END
$$$$
