HKM.pdb
     RDKit          3D

 28 28  0  0  1  0  0  0  0  0999 V2000
   21.2501  -20.6959  -15.5403 N   0  0  0  0  0  0  0  0  0  0  0  0
   21.1758  -19.2492  -15.6270 C   0  0  1  0  0  0  0  0  0  0  0  0
   20.8751  -18.6980  -14.2668 C   0  0  0  0  0  0  0  0  0  0  0  0
   19.4583  -18.9591  -13.9401 C   0  0  0  0  0  0  0  0  0  0  0  0
   18.9173  -20.0564  -13.2645 C   0  0  0  0  0  0  0  0  0  0  0  0
   17.5874  -19.8728  -13.1962 N   0  0  0  0  0  0  0  0  0  0  0  0
   17.2981  -18.7093  -13.8023 C   0  0  0  0  0  0  0  0  0  0  0  0
   18.4144  -18.1534  -14.2522 N   0  0  0  0  0  0  0  0  0  0  0  0
   22.4505  -18.7001  -16.1736 C   0  0  0  0  0  0  0  0  0  0  0  0
   23.5247  -19.2599  -15.8042 O   0  0  0  0  0  0  0  0  0  0  0  0
   22.4360  -17.6041  -17.0619 N   0  0  0  0  0  0  0  0  0  0  0  0
   23.6051  -17.2319  -17.8419 C   0  0  1  0  0  0  0  0  0  0  0  0
   23.3049  -17.2711  -19.3133 C   0  0  0  0  0  0  0  0  0  0  0  0
   23.4776  -18.6395  -19.8332 C   0  0  0  0  0  0  0  0  0  0  0  0
   23.2067  -18.7881  -21.3118 C   0  0  0  0  0  0  0  0  0  0  0  0
   23.2298  -20.2062  -21.7826 C   0  0  0  0  0  0  0  0  0  0  0  0
   23.0758  -20.2905  -23.2234 N   0  0  0  0  0  0  0  0  0  0  0  0
   23.9630  -15.8525  -17.4417 C   0  0  0  0  0  0  0  0  0  0  0  0
   23.1577  -15.0027  -16.9871 O   0  0  0  0  0  0  0  0  0  0  0  0
   30.2159  -11.0820  -16.1823 C   0  0  0  0  0  0  0  0  0  0  0  0
   29.5897  -12.6746  -16.7597 S   0  0  0  0  0  0  0  0  0  0  0  0
   27.8034  -12.7373  -16.7818 C   0  0  0  0  0  0  0  0  0  0  0  0
   27.1806  -14.0414  -17.0638 C   0  0  0  0  0  0  0  0  0  0  0  0
   25.6945  -14.0768  -17.0908 C   0  0  2  0  0  0  0  0  0  0  0  0
   25.3055  -15.4300  -17.5698 N   0  0  0  0  0  0  0  0  0  0  0  0
   25.0233  -13.0822  -17.9294 C   0  0  0  0  0  0  0  0  0  0  0  0
   25.0134  -13.2858  -19.1868 O   0  0  0  0  0  0  0  0  0  0  0  0
   24.3904  -11.9446  -17.5035 O   0  0  0  0  0  0  0  0  0  0  0  0
  2  1  1  1
  3  2  1  0
  4  3  1  0
  4  5  2  0
  6  5  1  0
  7  6  1  0
  8  7  2  0
  8  4  1  0
  9  2  1  0
 10  9  2  0
 11  9  1  0
 12 11  1  0
 12 13  1  6
 13 14  1  0
 14 15  1  0
 16 15  1  0
 17 16  1  0
 18 12  1  0
 19 18  2  0
 21 20  1  0
 22 21  1  0
 23 22  1  0
 24 23  1  6
 24 25  1  0
 25 18  1  0
 26 24  1  0
 26 28  1  0
 27 26  2  0
M  END
$$$$
