RQR.pdb
     RDKit          3D

 32 31  0  0  1  0  0  0  0  0999 V2000
   28.2571  -29.8207  -16.4854 N   0  0  0  0  0  0  0  0  0  0  0  0
   27.2725  -29.4759  -17.4530 C   0  0  0  0  0  0  0  0  0  0  0  0
   27.2856  -30.0666  -18.6196 N   0  0  0  0  0  0  0  0  0  0  0  0
   26.2771  -28.4998  -17.1727 N   0  0  0  0  0  0  0  0  0  0  0  0
   25.3207  -28.1237  -18.1693 C   0  0  0  0  0  0  0  0  0  0  0  0
   25.8532  -27.2065  -19.2382 C   0  0  0  0  0  0  0  0  0  0  0  0
   25.8515  -25.7592  -18.8845 C   0  0  0  0  0  0  0  0  0  0  0  0
   24.4925  -25.1253  -19.1491 C   0  0  2  0  0  0  0  0  0  0  0  0
   24.3175  -24.9173  -20.5586 N   0  0  0  0  0  0  0  0  0  0  0  0
   24.4249  -23.8558  -18.3644 C   0  0  0  0  0  0  0  0  0  0  0  0
   24.9945  -22.8494  -18.8491 O   0  0  0  0  0  0  0  0  0  0  0  0
   26.5830  -29.8454  -19.3465 N   0  0  0  0  0  0  0  0  0  0  0  0
   20.8180  -22.4142  -13.3598 C   0  0  0  0  0  0  0  0  0  0  0  0
   21.4916  -21.1981  -13.6553 O   0  0  0  0  0  0  0  0  0  0  0  0
   21.2463  -20.1277  -13.0445 C   0  0  0  0  0  0  0  0  0  0  0  0
   22.5291  -21.1694  -14.7243 C   0  0  0  0  0  0  0  0  0  0  0  0
   22.6613  -22.5013  -15.4069 C   0  0  2  0  0  0  0  0  0  0  0  0
   23.7890  -22.4674  -16.4329 N   0  0  0  0  0  0  0  0  0  0  0  0
   23.7740  -23.7101  -17.1335 C   0  0  0  0  0  0  0  0  0  0  0  0
   25.0778  -22.1543  -15.8050 O   0  0  0  0  0  0  0  0  0  0  0  0
   25.6215  -22.8460  -14.9143 N   0  0  0  0  0  0  0  0  0  0  0  0
   31.5299  -25.0712  -14.8854 C   0  0  0  0  0  0  0  0  0  0  0  0
   31.4151  -25.0322  -16.3155 N   0  0  0  0  0  0  0  0  0  0  0  0
   31.9489  -25.9519  -16.9972 N   0  0  0  0  0  0  0  0  0  0  0  0
   30.7208  -23.9994  -16.9751 C   0  0  0  0  0  0  0  0  0  0  0  0
   29.9237  -22.9893  -16.4131 C   0  0  0  0  0  0  0  0  0  0  0  0
   29.2689  -22.0206  -17.3561 C   0  0  0  0  0  0  0  0  0  0  0  0
   27.7315  -22.1200  -17.2199 C   0  0  2  0  0  0  0  0  0  0  0  0
   27.2052  -20.9797  -16.4001 N   0  0  0  0  0  0  0  0  0  0  0  0
   25.7889  -20.9846  -16.2148 C   0  0  0  0  0  0  0  0  0  0  0  0
   27.6969  -19.6713  -16.9363 O   0  0  0  0  0  0  0  0  0  0  0  0
   27.0441  -18.9765  -17.7523 O   0  0  0  0  0  0  0  0  0  0  0  0
  2  3  2  0
  2  1  1  0
  4  2  1  0
  5  6  1  0
  5  4  1  0
  6  7  1  0
  7  8  1  0
  8 10  1  0
  8  9  1  6
 10 18  1  0
 11 10  2  0
 13 12  1  0
 13 14  2  0
 15 13  1  0
 16 15  1  0
 17 16  1  6
 18 17  1  0
 19 20  2  0
 19 17  1  0
 22 21  1  0
 23 22  2  0
 24 22  1  0
 25 24  1  0
 26 27  1  0
 26 25  1  0
 28 27  1  1
 28 30  1  0
 28 29  1  0
 29 19  1  0
 30 32  1  0
 31 30  2  0
M  END
$$$$
