RQR.pdb
     RDKit          3D

 32 31  0  0  1  0  0  0  0  0999 V2000
   37.8439  -14.0256  -20.7792 N   0  0  0  0  0  0  0  0  0  0  0  0
   37.8610  -14.7830  -21.9836 C   0  0  0  0  0  0  0  0  0  0  0  0
   38.9882  -14.9363  -22.6286 N   0  0  0  0  0  0  0  0  0  0  0  0
   36.6737  -15.3737  -22.4971 N   0  0  0  0  0  0  0  0  0  0  0  0
   35.4170  -15.1795  -21.8398 C   0  0  0  0  0  0  0  0  0  0  0  0
   35.0474  -13.7393  -21.6015 C   0  0  0  0  0  0  0  0  0  0  0  0
   33.6970  -13.5251  -21.0096 C   0  0  0  0  0  0  0  0  0  0  0  0
   33.6475  -13.9869  -19.5595 C   0  0  2  0  0  0  0  0  0  0  0  0
   32.8828  -15.1976  -19.4590 N   0  0  0  0  0  0  0  0  0  0  0  0
   33.0732  -12.8711  -18.7487 C   0  0  0  0  0  0  0  0  0  0  0  0
   31.8509  -12.9293  -18.4753 O   0  0  0  0  0  0  0  0  0  0  0  0
   39.0366  -15.4669  -23.5159 N   0  0  0  0  0  0  0  0  0  0  0  0
   36.1231   -8.4647  -15.3926 C   0  0  0  0  0  0  0  0  0  0  0  0
   34.7524   -8.1747  -15.1534 O   0  0  0  0  0  0  0  0  0  0  0  0
   34.3823   -7.3355  -14.2946 C   0  0  0  0  0  0  0  0  0  0  0  0
   33.7005   -8.8804  -15.9380 C   0  0  0  0  0  0  0  0  0  0  0  0
   34.2850   -9.9516  -16.8144 C   0  0  2  0  0  0  0  0  0  0  0  0
   33.1778  -10.7679  -17.4728 N   0  0  0  0  0  0  0  0  0  0  0  0
   33.7986  -11.7716  -18.2743 C   0  0  0  0  0  0  0  0  0  0  0  0
   32.2443   -9.9100  -18.2116 O   0  0  0  0  0  0  0  0  0  0  0  0
   32.4981   -9.3622  -19.3084 N   0  0  0  0  0  0  0  0  0  0  0  0
   23.1733   -9.0680  -18.1084 C   0  0  0  0  0  0  0  0  0  0  0  0
   23.7467   -8.1653  -19.0655 N   0  0  0  0  0  0  0  0  0  0  0  0
   22.9790   -7.4415  -19.7600 N   0  0  0  0  0  0  0  0  0  0  0  0
   25.1399   -8.0640  -19.2462 C   0  0  0  0  0  0  0  0  0  0  0  0
   26.1596   -8.7166  -18.5347 C   0  0  0  0  0  0  0  0  0  0  0  0
   27.5783   -8.3800  -18.8955 C   0  0  0  0  0  0  0  0  0  0  0  0
   28.5479   -9.2508  -18.0626 C   0  0  2  0  0  0  0  0  0  0  0  0
   29.9701   -8.8776  -18.3585 N   0  0  0  0  0  0  0  0  0  0  0  0
   30.9459   -9.6608  -17.6695 C   0  0  0  0  0  0  0  0  0  0  0  0
   30.1846   -7.4096  -18.1578 O   0  0  0  0  0  0  0  0  0  0  0  0
   30.6843   -6.9268  -17.1129 O   0  0  0  0  0  0  0  0  0  0  0  0
  2  3  2  0
  2  1  1  0
  4  2  1  0
  5  6  1  0
  5  4  1  0
  6  7  1  0
  7  8  1  0
  8 10  1  0
  8  9  1  6
 10 18  1  0
 11 10  2  0
 13 12  1  0
 13 14  2  0
 15 13  1  0
 16 15  1  0
 17 16  1  1
 18 17  1  0
 19 20  2  0
 19 17  1  0
 22 21  1  0
 23 22  2  0
 24 22  1  0
 25 24  1  0
 26 27  1  0
 26 25  1  0
 28 27  1  6
 28 30  1  0
 28 29  1  0
 29 19  1  0
 30 32  1  0
 31 30  2  0
M  END
$$$$
