RQR.pdb
     RDKit          3D

 32 31  0  0  1  0  0  0  0  0999 V2000
   28.3973  -30.6983  -16.2612 N   0  0  0  0  0  0  0  0  0  0  0  0
   28.8630  -30.5171  -17.5934 C   0  0  0  0  0  0  0  0  0  0  0  0
   29.0266  -31.5616  -18.3631 N   0  0  0  0  0  0  0  0  0  0  0  0
   29.1544  -29.2207  -18.1000 N   0  0  0  0  0  0  0  0  0  0  0  0
   29.0470  -28.0663  -17.2603 C   0  0  0  0  0  0  0  0  0  0  0  0
   27.7606  -27.2977  -17.4088 C   0  0  0  0  0  0  0  0  0  0  0  0
   27.6184  -26.1259  -16.4997 C   0  0  0  0  0  0  0  0  0  0  0  0
   28.7119  -25.0957  -16.7478 C   0  0  2  0  0  0  0  0  0  0  0  0
   29.9255  -25.5072  -16.1008 N   0  0  0  0  0  0  0  0  0  0  0  0
   28.2118  -23.7773  -16.2542 C   0  0  0  0  0  0  0  0  0  0  0  0
   28.2580  -23.5710  -15.0182 O   0  0  0  0  0  0  0  0  0  0  0  0
   29.4339  -31.4775  -19.3108 N   0  0  0  0  0  0  0  0  0  0  0  0
   28.0418  -18.2708  -19.1590 C   0  0  0  0  0  0  0  0  0  0  0  0
   27.4854  -17.9745  -17.8852 O   0  0  0  0  0  0  0  0  0  0  0  0
   27.2553  -16.7979  -17.5089 C   0  0  0  0  0  0  0  0  0  0  0  0
   27.1562  -19.0841  -16.9469 C   0  0  0  0  0  0  0  0  0  0  0  0
   27.5952  -20.4163  -17.4851 C   0  0  2  0  0  0  0  0  0  0  0  0
   27.2326  -21.5328  -16.5117 N   0  0  0  0  0  0  0  0  0  0  0  0
   27.6986  -22.7608  -17.0687 C   0  0  0  0  0  0  0  0  0  0  0  0
   25.7991  -21.5282  -16.1981 O   0  0  0  0  0  0  0  0  0  0  0  0
   24.8960  -21.8710  -16.9945 N   0  0  0  0  0  0  0  0  0  0  0  0
   19.9256  -22.0374  -11.2706 C   0  0  0  0  0  0  0  0  0  0  0  0
   19.6182  -20.6390  -11.1719 N   0  0  0  0  0  0  0  0  0  0  0  0
   18.4082  -20.2816  -11.1120 N   0  0  0  0  0  0  0  0  0  0  0  0
   20.6291  -19.6589  -11.1361 C   0  0  0  0  0  0  0  0  0  0  0  0
   21.9617  -19.7669  -11.5652 C   0  0  0  0  0  0  0  0  0  0  0  0
   22.2085  -20.4169  -12.8966 C   0  0  0  0  0  0  0  0  0  0  0  0
   23.7284  -20.4639  -13.1793 C   0  0  2  0  0  0  0  0  0  0  0  0
   23.9872  -21.0026  -14.5549 N   0  0  0  0  0  0  0  0  0  0  0  0
   25.3687  -21.1078  -14.9020 C   0  0  0  0  0  0  0  0  0  0  0  0
   23.2078  -20.2369  -15.5783 O   0  0  0  0  0  0  0  0  0  0  0  0
   23.5880  -19.1367  -16.0469 O   0  0  0  0  0  0  0  0  0  0  0  0
  2  3  2  0
  2  1  1  0
  4  2  1  0
  5  6  1  0
  5  4  1  0
  6  7  1  0
  7  8  1  0
  8 10  1  0
  8  9  1  1
 10 18  1  0
 11 10  2  0
 13 12  1  0
 13 14  2  0
 15 13  1  0
 16 15  1  0
 17 16  1  1
 18 17  1  0
 19 20  2  0
 19 17  1  0
 22 21  1  0
 23 22  2  0
 24 22  1  0
 25 24  1  0
 26 27  1  0
 26 25  1  0
 28 27  1  1
 28 30  1  0
 28 29  1  0
 29 19  1  0
 30 32  1  0
 31 30  2  0
M  END
$$$$
