RQR.pdb
     RDKit          3D

 32 31  0  0  1  0  0  0  0  0999 V2000
   29.3221  -30.3555  -16.0035 N   0  0  0  0  0  0  0  0  0  0  0  0
   30.4506  -30.4641  -16.8633 C   0  0  0  0  0  0  0  0  0  0  0  0
   31.1484  -31.5700  -16.8687 N   0  0  0  0  0  0  0  0  0  0  0  0
   30.8320  -29.3905  -17.7142 N   0  0  0  0  0  0  0  0  0  0  0  0
   30.0545  -28.1897  -17.7698 C   0  0  0  0  0  0  0  0  0  0  0  0
   30.6826  -27.0014  -17.0910 C   0  0  0  0  0  0  0  0  0  0  0  0
   29.9315  -25.7230  -17.2368 C   0  0  0  0  0  0  0  0  0  0  0  0
   30.6565  -24.5727  -16.5513 C   0  0  2  0  0  0  0  0  0  0  0  0
   31.1765  -25.0087  -15.2864 N   0  0  0  0  0  0  0  0  0  0  0  0
   29.6887  -23.4421  -16.4200 C   0  0  0  0  0  0  0  0  0  0  0  0
   28.9873  -23.4034  -15.3814 O   0  0  0  0  0  0  0  0  0  0  0  0
   31.9559  -31.6977  -17.5035 N   0  0  0  0  0  0  0  0  0  0  0  0
   30.1494  -17.7533  -18.9052 C   0  0  0  0  0  0  0  0  0  0  0  0
   28.9287  -17.6720  -18.1818 O   0  0  0  0  0  0  0  0  0  0  0  0
   28.3041  -16.5915  -18.0357 C   0  0  0  0  0  0  0  0  0  0  0  0
   28.3517  -18.9001  -17.5664 C   0  0  0  0  0  0  0  0  0  0  0  0
   29.2513  -20.0894  -17.7500 C   0  0  1  0  0  0  0  0  0  0  0  0
   28.6304  -21.3324  -17.1214 N   0  0  0  0  0  0  0  0  0  0  0  0
   29.5104  -22.4277  -17.3685 C   0  0  0  0  0  0  0  0  0  0  0  0
   27.2607  -21.5502  -17.6007 O   0  0  0  0  0  0  0  0  0  0  0  0
   26.9662  -21.9984  -18.7320 N   0  0  0  0  0  0  0  0  0  0  0  0
   19.9459  -21.9245  -12.7530 C   0  0  0  0  0  0  0  0  0  0  0  0
   21.0441  -21.0390  -13.0167 N   0  0  0  0  0  0  0  0  0  0  0  0
   21.3766  -20.1977  -12.1352 N   0  0  0  0  0  0  0  0  0  0  0  0
   21.7606  -21.0876  -14.2284 C   0  0  0  0  0  0  0  0  0  0  0  0
   21.4288  -21.7718  -15.4089 C   0  0  0  0  0  0  0  0  0  0  0  0
   22.3859  -21.6652  -16.5616 C   0  0  0  0  0  0  0  0  0  0  0  0
   23.8044  -21.3477  -16.0330 C   0  0  2  0  0  0  0  0  0  0  0  0
   24.8038  -21.4106  -17.1494 N   0  0  0  0  0  0  0  0  0  0  0  0
   26.1620  -21.2387  -16.7419 C   0  0  0  0  0  0  0  0  0  0  0  0
   24.4252  -20.4714  -18.2521 O   0  0  0  0  0  0  0  0  0  0  0  0
   24.4777  -19.2229  -18.1368 O   0  0  0  0  0  0  0  0  0  0  0  0
  2  3  2  0
  2  1  1  0
  4  2  1  0
  5  6  1  0
  5  4  1  0
  6  7  1  0
  7  8  1  0
  8 10  1  0
  8  9  1  1
 10 18  1  0
 11 10  2  0
 13 12  1  0
 13 14  2  0
 15 13  1  0
 16 15  1  0
 17 16  1  1
 18 17  1  0
 19 20  2  0
 19 17  1  0
 22 21  1  0
 23 22  2  0
 24 22  1  0
 25 24  1  0
 26 27  1  0
 26 25  1  0
 28 27  1  1
 28 30  1  0
 28 29  1  0
 29 19  1  0
 30 32  1  0
 31 30  2  0
M  END
$$$$
