RQR.pdb
     RDKit          3D

 32 31  0  0  1  0  0  0  0  0999 V2000
   24.5972  -25.4224  -15.4860 N   0  0  0  0  0  0  0  0  0  0  0  0
   25.5468  -24.4811  -15.9727 C   0  0  0  0  0  0  0  0  0  0  0  0
   26.4086  -24.8523  -16.8835 N   0  0  0  0  0  0  0  0  0  0  0  0
   25.5746  -23.1459  -15.4842 N   0  0  0  0  0  0  0  0  0  0  0  0
   24.7985  -22.7688  -14.3419 C   0  0  0  0  0  0  0  0  0  0  0  0
   23.9014  -21.5785  -14.5558 C   0  0  0  0  0  0  0  0  0  0  0  0
   22.5427  -21.6979  -13.9562 C   0  0  0  0  0  0  0  0  0  0  0  0
   21.6523  -22.6188  -14.7794 C   0  0  2  0  0  0  0  0  0  0  0  0
   21.2510  -21.9566  -15.9882 N   0  0  0  0  0  0  0  0  0  0  0  0
   20.4929  -23.0115  -13.9229 C   0  0  0  0  0  0  0  0  0  0  0  0
   19.9283  -22.1034  -13.2681 O   0  0  0  0  0  0  0  0  0  0  0  0
   27.1103  -24.1942  -17.2653 N   0  0  0  0  0  0  0  0  0  0  0  0
   16.2124  -27.4306  -14.5940 C   0  0  0  0  0  0  0  0  0  0  0  0
   15.8875  -26.8698  -13.3291 O   0  0  0  0  0  0  0  0  0  0  0  0
   14.8279  -27.1574  -12.7179 C   0  0  0  0  0  0  0  0  0  0  0  0
   16.8228  -25.9038  -12.6873 C   0  0  0  0  0  0  0  0  0  0  0  0
   17.9945  -25.5913  -13.5742 C   0  0  2  0  0  0  0  0  0  0  0  0
   18.9450  -24.6194  -12.8831 N   0  0  0  0  0  0  0  0  0  0  0  0
   19.9940  -24.3139  -13.8005 C   0  0  0  0  0  0  0  0  0  0  0  0
   19.4147  -25.1494  -11.5978 O   0  0  0  0  0  0  0  0  0  0  0  0
   20.3083  -26.0170  -11.4703 N   0  0  0  0  0  0  0  0  0  0  0  0
   14.5065  -23.5226   -4.6316 C   0  0  0  0  0  0  0  0  0  0  0  0
   14.9368  -24.8913   -4.5956 N   0  0  0  0  0  0  0  0  0  0  0  0
   14.3166  -25.7082   -3.8584 N   0  0  0  0  0  0  0  0  0  0  0  0
   16.0274  -25.3455   -5.3625 C   0  0  0  0  0  0  0  0  0  0  0  0
   16.8311  -24.6137   -6.2515 C   0  0  0  0  0  0  0  0  0  0  0  0
   17.9259  -25.3555   -6.9638 C   0  0  0  0  0  0  0  0  0  0  0  0
   18.6492  -24.4017   -7.9433 C   0  0  1  0  0  0  0  0  0  0  0  0
   19.2061  -25.1701   -9.1047 N   0  0  0  0  0  0  0  0  0  0  0  0
   18.8322  -24.6635  -10.3868 C   0  0  0  0  0  0  0  0  0  0  0  0
   18.9033  -26.6298   -8.9675 O   0  0  0  0  0  0  0  0  0  0  0  0
   19.6884  -27.4442   -8.4243 O   0  0  0  0  0  0  0  0  0  0  0  0
  2  3  2  0
  2  1  1  0
  4  2  1  0
  5  6  1  0
  5  4  1  0
  6  7  1  0
  7  8  1  0
  8 10  1  0
  8  9  1  6
 10 18  1  0
 11 10  2  0
 13 12  1  0
 13 14  2  0
 15 13  1  0
 16 15  1  0
 17 16  1  6
 18 17  1  0
 19 20  2  0
 19 17  1  0
 22 21  1  0
 23 22  2  0
 24 22  1  0
 25 24  1  0
 26 27  1  0
 26 25  1  0
 28 27  1  6
 28 30  1  0
 28 29  1  0
 29 19  1  0
 30 32  1  0
 31 30  2  0
M  END
$$$$
