RQR.pdb
     RDKit          3D

 32 31  0  0  1  0  0  0  0  0999 V2000
   20.5004  -20.0946  -11.9584 N   0  0  0  0  0  0  0  0  0  0  0  0
   21.1402  -20.0752  -10.6876 C   0  0  0  0  0  0  0  0  0  0  0  0
   20.6694  -19.3013   -9.7445 N   0  0  0  0  0  0  0  0  0  0  0  0
   22.2825  -20.8814  -10.4277 N   0  0  0  0  0  0  0  0  0  0  0  0
   23.2788  -21.0845  -11.4354 C   0  0  0  0  0  0  0  0  0  0  0  0
   24.6518  -20.5835  -11.0727 C   0  0  0  0  0  0  0  0  0  0  0  0
   25.6547  -20.6424  -12.1729 C   0  0  0  0  0  0  0  0  0  0  0  0
   25.3912  -21.8205  -13.1010 C   0  0  2  0  0  0  0  0  0  0  0  0
   26.2166  -22.9327  -12.7237 N   0  0  0  0  0  0  0  0  0  0  0  0
   25.6448  -21.3602  -14.4995 C   0  0  0  0  0  0  0  0  0  0  0  0
   26.7429  -21.6733  -15.0175 O   0  0  0  0  0  0  0  0  0  0  0  0
   21.1038  -19.2659   -8.8058 N   0  0  0  0  0  0  0  0  0  0  0  0
   21.9931  -17.4246  -17.5923 C   0  0  0  0  0  0  0  0  0  0  0  0
   23.1019  -16.9629  -16.8324 O   0  0  0  0  0  0  0  0  0  0  0  0
   23.2096  -15.7685  -16.4571 C   0  0  0  0  0  0  0  0  0  0  0  0
   24.1868  -17.9127  -16.4569 C   0  0  0  0  0  0  0  0  0  0  0  0
   23.9840  -19.2638  -17.0821 C   0  0  1  0  0  0  0  0  0  0  0  0
   25.0586  -20.2382  -16.6114 N   0  0  0  0  0  0  0  0  0  0  0  0
   24.7484  -20.6090  -15.2692 C   0  0  0  0  0  0  0  0  0  0  0  0
   26.4038  -19.6761  -16.7773 O   0  0  0  0  0  0  0  0  0  0  0  0
   27.1060  -19.2251  -15.8441 N   0  0  0  0  0  0  0  0  0  0  0  0
   29.8579  -26.4623  -15.9712 C   0  0  0  0  0  0  0  0  0  0  0  0
   30.8093  -25.4052  -15.7787 N   0  0  0  0  0  0  0  0  0  0  0  0
   31.8277  -25.6217  -15.0635 N   0  0  0  0  0  0  0  0  0  0  0  0
   30.6382  -24.1378  -16.3689 C   0  0  0  0  0  0  0  0  0  0  0  0
   29.4778  -23.5948  -16.9436 C   0  0  0  0  0  0  0  0  0  0  0  0
   29.5229  -22.1525  -17.3603 C   0  0  0  0  0  0  0  0  0  0  0  0
   28.1950  -21.7693  -18.0547 C   0  0  2  0  0  0  0  0  0  0  0  0
   28.1920  -20.3117  -18.4077 N   0  0  0  0  0  0  0  0  0  0  0  0
   26.9832  -19.6237  -18.0825 C   0  0  0  0  0  0  0  0  0  0  0  0
   28.5836  -20.1130  -19.8389 O   0  0  0  0  0  0  0  0  0  0  0  0
   27.7492  -19.9342  -20.7590 O   0  0  0  0  0  0  0  0  0  0  0  0
  2  3  2  0
  2  1  1  0
  4  2  1  0
  5  6  1  0
  5  4  1  0
  6  7  1  0
  7  8  1  0
  8 10  1  0
  8  9  1  1
 10 18  1  0
 11 10  2  0
 13 12  1  0
 13 14  2  0
 15 13  1  0
 16 15  1  0
 17 16  1  6
 18 17  1  0
 19 20  2  0
 19 17  1  0
 22 21  1  0
 23 22  2  0
 24 22  1  0
 25 24  1  0
 26 27  1  0
 26 25  1  0
 28 27  1  1
 28 30  1  0
 28 29  1  0
 29 19  1  0
 30 32  1  0
 31 30  2  0
M  END
$$$$
