RQR.pdb
     RDKit          3D

 32 31  0  0  1  0  0  0  0  0999 V2000
   30.6899  -22.9586   -9.1404 N   0  0  0  0  0  0  0  0  0  0  0  0
   31.0669  -22.0948  -10.2064 C   0  0  0  0  0  0  0  0  0  0  0  0
   32.3338  -21.8429  -10.4100 N   0  0  0  0  0  0  0  0  0  0  0  0
   30.0895  -21.5007  -11.0513 N   0  0  0  0  0  0  0  0  0  0  0  0
   28.7842  -22.0750  -11.1761 C   0  0  0  0  0  0  0  0  0  0  0  0
   27.6510  -21.1397  -10.8466 C   0  0  0  0  0  0  0  0  0  0  0  0
   27.0667  -20.4222  -12.0143 C   0  0  0  0  0  0  0  0  0  0  0  0
   26.2753  -21.3683  -12.9072 C   0  0  2  0  0  0  0  0  0  0  0  0
   26.8628  -21.4092  -14.2163 N   0  0  0  0  0  0  0  0  0  0  0  0
   24.8582  -20.8955  -12.9238 C   0  0  0  0  0  0  0  0  0  0  0  0
   24.6532  -19.7056  -13.2620 O   0  0  0  0  0  0  0  0  0  0  0  0
   32.6444  -21.1985  -11.1580 N   0  0  0  0  0  0  0  0  0  0  0  0
   21.7329  -20.1515  -16.8584 C   0  0  0  0  0  0  0  0  0  0  0  0
   20.6710  -19.9581  -15.9337 O   0  0  0  0  0  0  0  0  0  0  0  0
   19.5457  -19.5219  -16.2833 C   0  0  0  0  0  0  0  0  0  0  0  0
   20.8787  -20.2776  -14.4933 C   0  0  0  0  0  0  0  0  0  0  0  0
   22.2592  -20.8114  -14.2354 C   0  0  2  0  0  0  0  0  0  0  0  0
   22.4193  -21.1957  -12.7684 N   0  0  0  0  0  0  0  0  0  0  0  0
   23.7487  -21.6819  -12.5910 C   0  0  0  0  0  0  0  0  0  0  0  0
   21.3792  -22.1396  -12.3434 O   0  0  0  0  0  0  0  0  0  0  0  0
   21.2990  -23.3289  -12.7263 N   0  0  0  0  0  0  0  0  0  0  0  0
   17.2614  -26.2332   -8.2141 C   0  0  0  0  0  0  0  0  0  0  0  0
   17.8450  -25.9951   -6.9247 N   0  0  0  0  0  0  0  0  0  0  0  0
   17.9218  -26.9507   -6.1022 N   0  0  0  0  0  0  0  0  0  0  0  0
   18.3364  -24.7274   -6.5565 C   0  0  0  0  0  0  0  0  0  0  0  0
   18.4703  -23.5802   -7.3551 C   0  0  0  0  0  0  0  0  0  0  0  0
   18.9137  -23.7758   -8.7768 C   0  0  0  0  0  0  0  0  0  0  0  0
   19.0411  -22.4021   -9.4761 C   0  0  2  0  0  0  0  0  0  0  0  0
   19.3636  -22.5840  -10.9294 N   0  0  0  0  0  0  0  0  0  0  0  0
   20.3710  -21.7035  -11.4296 C   0  0  0  0  0  0  0  0  0  0  0  0
   18.1173  -22.5396  -11.7577 O   0  0  0  0  0  0  0  0  0  0  0  0
   17.7927  -21.5477  -12.4543 O   0  0  0  0  0  0  0  0  0  0  0  0
  2  3  2  0
  2  1  1  0
  4  2  1  0
  5  6  1  0
  5  4  1  0
  6  7  1  0
  7  8  1  0
  8 10  1  0
  8  9  1  6
 10 18  1  0
 11 10  2  0
 13 12  1  0
 13 14  2  0
 15 13  1  0
 16 15  1  0
 17 16  1  1
 18 17  1  0
 19 20  2  0
 19 17  1  0
 22 21  1  0
 23 22  2  0
 24 22  1  0
 25 24  1  0
 26 27  1  0
 26 25  1  0
 28 27  1  1
 28 30  1  0
 28 29  1  0
 29 19  1  0
 30 32  1  0
 31 30  2  0
M  END
$$$$
