RQR.pdb
     RDKit          3D

 32 31  0  0  1  0  0  0  0  0999 V2000
   28.7022  -28.4758  -16.1799 N   0  0  0  0  0  0  0  0  0  0  0  0
   27.7773  -28.5086  -17.2606 C   0  0  0  0  0  0  0  0  0  0  0  0
   26.9483  -29.5146  -17.3648 N   0  0  0  0  0  0  0  0  0  0  0  0
   27.7411  -27.4675  -18.2286 N   0  0  0  0  0  0  0  0  0  0  0  0
   28.3623  -26.2045  -17.9677 C   0  0  0  0  0  0  0  0  0  0  0  0
   27.9256  -25.5408  -16.6885 C   0  0  0  0  0  0  0  0  0  0  0  0
   27.2995  -24.1994  -16.8566 C   0  0  0  0  0  0  0  0  0  0  0  0
   28.2806  -23.0837  -16.5227 C   0  0  2  0  0  0  0  0  0  0  0  0
   29.3694  -23.6076  -15.7477 N   0  0  0  0  0  0  0  0  0  0  0  0
   27.5227  -22.0141  -15.8062 C   0  0  0  0  0  0  0  0  0  0  0  0
   27.3014  -22.1867  -14.5841 O   0  0  0  0  0  0  0  0  0  0  0  0
   26.3170  -29.6141  -18.1789 N   0  0  0  0  0  0  0  0  0  0  0  0
   27.5624  -15.9105  -16.7220 C   0  0  0  0  0  0  0  0  0  0  0  0
   26.5643  -16.0510  -15.7199 O   0  0  0  0  0  0  0  0  0  0  0  0
   26.0914  -15.0663  -15.0988 C   0  0  0  0  0  0  0  0  0  0  0  0
   26.0466  -17.4056  -15.3779 C   0  0  0  0  0  0  0  0  0  0  0  0
   26.7964  -18.4869  -16.1033 C   0  0  1  0  0  0  0  0  0  0  0  0
   26.3358  -19.8636  -15.6361 N   0  0  0  0  0  0  0  0  0  0  0  0
   27.0450  -20.8388  -16.3984 C   0  0  0  0  0  0  0  0  0  0  0  0
   24.8763  -19.9962  -15.7113 O   0  0  0  0  0  0  0  0  0  0  0  0
   24.2233  -20.0733  -16.7767 N   0  0  0  0  0  0  0  0  0  0  0  0
   18.6414  -22.9052   -9.7087 C   0  0  0  0  0  0  0  0  0  0  0  0
   18.1228  -22.8953  -11.0468 N   0  0  0  0  0  0  0  0  0  0  0  0
   16.9830  -23.3942  -11.2648 N   0  0  0  0  0  0  0  0  0  0  0  0
   18.8492  -22.3412  -12.1188 C   0  0  0  0  0  0  0  0  0  0  0  0
   20.1819  -21.8991  -12.1309 C   0  0  0  0  0  0  0  0  0  0  0  0
   20.6827  -21.2482  -13.3885 C   0  0  0  0  0  0  0  0  0  0  0  0
   22.1936  -20.9466  -13.2526 C   0  0  2  0  0  0  0  0  0  0  0  0
   22.7081  -20.2861  -14.4969 N   0  0  0  0  0  0  0  0  0  0  0  0
   24.1157  -20.0432  -14.5025 C   0  0  0  0  0  0  0  0  0  0  0  0
   21.9234  -19.0483  -14.8021 O   0  0  0  0  0  0  0  0  0  0  0  0
   22.2568  -17.9084  -14.3968 O   0  0  0  0  0  0  0  0  0  0  0  0
  2  3  2  0
  2  1  1  0
  4  2  1  0
  5  6  1  0
  5  4  1  0
  6  7  1  0
  7  8  1  0
  8 10  1  0
  8  9  1  1
 10 18  1  0
 11 10  2  0
 13 12  1  0
 13 14  2  0
 15 13  1  0
 16 15  1  0
 17 16  1  1
 18 17  1  0
 19 20  2  0
 19 17  1  0
 22 21  1  0
 23 22  2  0
 24 22  1  0
 25 24  1  0
 26 27  1  0
 26 25  1  0
 28 27  1  6
 28 30  1  0
 28 29  1  0
 29 19  1  0
 30 32  1  0
 31 30  2  0
M  END
$$$$
