RQR.pdb
     RDKit          3D

 32 31  0  0  1  0  0  0  0  0999 V2000
   18.7339  -21.3132  -10.8473 N   0  0  0  0  0  0  0  0  0  0  0  0
   19.2102  -22.5507  -11.3635 C   0  0  0  0  0  0  0  0  0  0  0  0
   19.8736  -22.5625  -12.4903 N   0  0  0  0  0  0  0  0  0  0  0  0
   18.9754  -23.7729  -10.6755 N   0  0  0  0  0  0  0  0  0  0  0  0
   18.2118  -23.7955   -9.4648 C   0  0  0  0  0  0  0  0  0  0  0  0
   18.9724  -24.2567   -8.2497 C   0  0  0  0  0  0  0  0  0  0  0  0
   18.2359  -24.1317   -6.9607 C   0  0  0  0  0  0  0  0  0  0  0  0
   17.3263  -25.3297   -6.7234 C   0  0  2  0  0  0  0  0  0  0  0  0
   16.8503  -25.8369   -7.9791 N   0  0  0  0  0  0  0  0  0  0  0  0
   16.2204  -24.8866   -5.8219 C   0  0  0  0  0  0  0  0  0  0  0  0
   15.0926  -24.7089   -6.3402 O   0  0  0  0  0  0  0  0  0  0  0  0
   20.1619  -23.4491  -12.9397 N   0  0  0  0  0  0  0  0  0  0  0  0
   12.4279  -27.6487   -3.9279 C   0  0  0  0  0  0  0  0  0  0  0  0
   12.1152  -26.5802   -3.0443 O   0  0  0  0  0  0  0  0  0  0  0  0
   11.0582  -26.5564   -2.3653 C   0  0  0  0  0  0  0  0  0  0  0  0
   13.0608  -25.4374   -2.9035 C   0  0  0  0  0  0  0  0  0  0  0  0
   14.2727  -25.6078   -3.7750 C   0  0  1  0  0  0  0  0  0  0  0  0
   15.2113  -24.4151   -3.6260 N   0  0  0  0  0  0  0  0  0  0  0  0
   16.3525  -24.6574   -4.4471 C   0  0  0  0  0  0  0  0  0  0  0  0
   15.5353  -24.1587   -2.2180 O   0  0  0  0  0  0  0  0  0  0  0  0
   16.2325  -24.9113   -1.5004 N   0  0  0  0  0  0  0  0  0  0  0  0
   15.1119  -16.6365    2.9673 C   0  0  0  0  0  0  0  0  0  0  0  0
   15.7990  -17.6943    3.6518 N   0  0  0  0  0  0  0  0  0  0  0  0
   16.3199  -17.4571    4.7778 N   0  0  0  0  0  0  0  0  0  0  0  0
   15.9032  -18.9872    3.1026 C   0  0  0  0  0  0  0  0  0  0  0  0
   15.4669  -19.4369    1.8460 C   0  0  0  0  0  0  0  0  0  0  0  0
   15.6148  -20.9013    1.5465 C   0  0  0  0  0  0  0  0  0  0  0  0
   15.1455  -21.1870    0.1007 C   0  0  2  0  0  0  0  0  0  0  0  0
   15.3683  -22.6293   -0.2451 N   0  0  0  0  0  0  0  0  0  0  0  0
   15.0356  -22.9764   -1.5900 C   0  0  0  0  0  0  0  0  0  0  0  0
   14.6928  -23.5222    0.7488 O   0  0  0  0  0  0  0  0  0  0  0  0
   14.9751  -23.5234    1.9715 O   0  0  0  0  0  0  0  0  0  0  0  0
  2  3  2  0
  2  1  1  0
  4  2  1  0
  5  6  1  0
  5  4  1  0
  6  7  1  0
  7  8  1  0
  8 10  1  0
  8  9  1  6
 10 18  1  0
 11 10  2  0
 13 12  1  0
 13 14  2  0
 15 13  1  0
 16 15  1  0
 17 16  1  6
 18 17  1  0
 19 20  2  0
 19 17  1  0
 22 21  1  0
 23 22  2  0
 24 22  1  0
 25 24  1  0
 26 27  1  0
 26 25  1  0
 28 27  1  6
 28 30  1  0
 28 29  1  0
 29 19  1  0
 30 32  1  0
 31 30  2  0
M  END
$$$$
