LNH.pdb
     RDKit          3D

 27 27  0  0  1  0  0  0  0  0999 V2000
    7.1187  -12.2789   18.6971 C   0  0  0  0  0  0  0  0  0  0  0  0
    8.2166  -13.2864   18.7798 C   0  0  1  0  0  0  0  0  0  0  0  0
    9.5451  -12.5165   18.8418 C   0  0  0  0  0  0  0  0  0  0  0  0
    8.1776  -14.1665   19.9939 C   0  0  0  0  0  0  0  0  0  0  0  0
    9.4954  -14.8959   20.1031 C   0  0  2  0  0  0  0  0  0  0  0  0
    9.5388  -15.8203   18.9602 N   0  0  0  0  0  0  0  0  0  0  0  0
    9.5665  -15.7317   21.3275 C   0  0  0  0  0  0  0  0  0  0  0  0
    8.5354  -15.9106   22.0111 O   0  0  0  0  0  0  0  0  0  0  0  0
   13.0133  -18.8779   20.5191 N   0  0  0  0  0  0  0  0  0  0  0  0
   12.1124  -18.9198   21.6474 C   0  0  0  0  0  0  0  0  0  0  0  0
   11.2671  -19.8461   21.6565 O   0  0  0  0  0  0  0  0  0  0  0  0
   12.2016  -17.9124   22.7296 C   0  0  0  0  0  0  0  0  0  0  0  0
   10.9017  -17.1476   22.9339 C   0  0  2  0  0  0  0  0  0  0  0  0
   10.7822  -16.3175   21.7164 N   0  0  0  0  0  0  0  0  0  0  0  0
   10.9659  -16.3037   24.1196 C   0  0  0  0  0  0  0  0  0  0  0  0
   11.4853  -15.1392   23.9778 O   0  0  0  0  0  0  0  0  0  0  0  0
   10.4914  -16.7013   25.3802 N   0  0  0  0  0  0  0  0  0  0  0  0
    9.9270  -15.6540   26.2659 C   0  0  1  0  0  0  0  0  0  0  0  0
    8.7144  -15.1726   25.5520 C   0  0  0  0  0  0  0  0  0  0  0  0
    7.8927  -14.1846   26.2544 C   0  0  0  0  0  0  0  0  0  0  0  0
    8.1888  -13.4134   27.3483 C   0  0  0  0  0  0  0  0  0  0  0  0
    7.1222  -12.5987   27.5830 N   0  0  0  0  0  0  0  0  0  0  0  0
    6.1825  -12.8556   26.6565 C   0  0  0  0  0  0  0  0  0  0  0  0
    6.6434  -13.8055   25.8603 N   0  0  0  0  0  0  0  0  0  0  0  0
    9.6006  -16.3783   27.5294 C   0  0  0  0  0  0  0  0  0  0  0  0
    9.5380  -17.7365   27.6045 O   0  0  0  0  0  0  0  0  0  0  0  0
    9.3755  -15.7263   28.5682 O   0  0  0  0  0  0  0  0  0  0  0  0
  2  1  1  1
  2  4  1  0
  2  3  1  0
  4  5  1  0
  5  7  1  0
  5  6  1  6
  7  8  2  0
  9 10  1  0
 10 12  1  0
 11 10  2  0
 13 12  1  6
 14 13  1  0
 14  7  1  0
 15 13  1  0
 16 15  2  0
 17 15  1  0
 18 19  1  6
 18 17  1  0
 20 19  1  0
 21 20  2  0
 22 21  1  0
 23 22  1  0
 23 24  2  0
 24 20  1  0
 25 26  1  0
 25 18  1  0
 27 25  2  0
M  END
$$$$
