LNH.pdb
     RDKit          3D

 27 27  0  0  1  0  0  0  0  0999 V2000
    7.1965  -12.4820   18.8093 C   0  0  0  0  0  0  0  0  0  0  0  0
    8.5605  -13.0295   19.0687 C   0  0  1  0  0  0  0  0  0  0  0  0
    9.3734  -11.9293   19.7689 C   0  0  0  0  0  0  0  0  0  0  0  0
    8.6005  -14.2276   19.9703 C   0  0  0  0  0  0  0  0  0  0  0  0
   10.0289  -14.4579   20.4030 C   0  0  2  0  0  0  0  0  0  0  0  0
   10.7755  -14.7688   19.1748 N   0  0  0  0  0  0  0  0  0  0  0  0
   10.1559  -15.6425   21.2880 C   0  0  0  0  0  0  0  0  0  0  0  0
    9.2458  -15.9004   22.1053 O   0  0  0  0  0  0  0  0  0  0  0  0
   11.1913  -19.1729   19.9010 N   0  0  0  0  0  0  0  0  0  0  0  0
   12.5252  -19.0616   20.4438 C   0  0  0  0  0  0  0  0  0  0  0  0
   13.4297  -19.6889   19.8431 O   0  0  0  0  0  0  0  0  0  0  0  0
   12.7903  -18.2400   21.6474 C   0  0  0  0  0  0  0  0  0  0  0  0
   11.5414  -17.5531   22.1811 C   0  0  2  0  0  0  0  0  0  0  0  0
   11.2891  -16.4683   21.2090 N   0  0  0  0  0  0  0  0  0  0  0  0
   11.7689  -17.0014   23.5100 C   0  0  0  0  0  0  0  0  0  0  0  0
   12.6893  -16.1148   23.6224 O   0  0  0  0  0  0  0  0  0  0  0  0
   11.0380  -17.3882   24.6451 N   0  0  0  0  0  0  0  0  0  0  0  0
   11.2762  -16.6430   25.9052 C   0  0  1  0  0  0  0  0  0  0  0  0
   10.0487  -15.8250   26.0950 C   0  0  0  0  0  0  0  0  0  0  0  0
    9.9227  -15.1248   27.3751 C   0  0  0  0  0  0  0  0  0  0  0  0
   10.7814  -15.0839   28.4427 C   0  0  0  0  0  0  0  0  0  0  0  0
   10.2502  -14.2395   29.3708 N   0  0  0  0  0  0  0  0  0  0  0  0
    9.0869  -13.7644   28.8928 C   0  0  0  0  0  0  0  0  0  0  0  0
    8.8901  -14.2942   27.6974 N   0  0  0  0  0  0  0  0  0  0  0  0
   11.4226  -17.7086   26.9400 C   0  0  0  0  0  0  0  0  0  0  0  0
   11.3309  -19.0356   26.6486 O   0  0  0  0  0  0  0  0  0  0  0  0
   11.6405  -17.3858   28.1246 O   0  0  0  0  0  0  0  0  0  0  0  0
  2  1  1  1
  2  4  1  0
  2  3  1  0
  4  5  1  0
  5  7  1  0
  5  6  1  6
  7  8  2  0
  9 10  1  0
 10 12  1  0
 11 10  2  0
 13 12  1  6
 14 13  1  0
 14  7  1  0
 15 13  1  0
 16 15  2  0
 17 15  1  0
 18 19  1  1
 18 17  1  0
 20 19  1  0
 21 20  2  0
 22 21  1  0
 23 22  1  0
 23 24  2  0
 24 20  1  0
 25 26  1  0
 25 18  1  0
 27 25  2  0
M  END
$$$$
