LNH.pdb
     RDKit          3D

 27 27  0  0  1  0  0  0  0  0999 V2000
    8.1103  -12.8120   20.6142 C   0  0  0  0  0  0  0  0  0  0  0  0
    8.0415  -13.2960   19.2041 C   0  0  1  0  0  0  0  0  0  0  0  0
    7.7197  -12.0839   18.3159 C   0  0  0  0  0  0  0  0  0  0  0  0
    9.3151  -13.8856   18.6746 C   0  0  0  0  0  0  0  0  0  0  0  0
    9.6181  -15.1489   19.4445 C   0  0  2  0  0  0  0  0  0  0  0  0
    9.3670  -14.8282   20.8575 N   0  0  0  0  0  0  0  0  0  0  0  0
   11.0490  -15.5297   19.3437 C   0  0  0  0  0  0  0  0  0  0  0  0
   11.4326  -16.2326   18.3838 O   0  0  0  0  0  0  0  0  0  0  0  0
   14.5877  -15.2307   17.6575 N   0  0  0  0  0  0  0  0  0  0  0  0
   14.4148  -14.0527   18.4752 C   0  0  0  0  0  0  0  0  0  0  0  0
   14.5433  -12.9460   17.8997 O   0  0  0  0  0  0  0  0  0  0  0  0
   14.0986  -14.1681   19.9177 C   0  0  0  0  0  0  0  0  0  0  0  0
   13.3970  -15.4729   20.2666 C   0  0  2  0  0  0  0  0  0  0  0  0
   11.9662  -15.1045   20.3186 N   0  0  0  0  0  0  0  0  0  0  0  0
   13.8379  -15.9808   21.5588 C   0  0  0  0  0  0  0  0  0  0  0  0
   13.3990  -15.3769   22.6021 O   0  0  0  0  0  0  0  0  0  0  0  0
   14.7002  -17.0795   21.7062 N   0  0  0  0  0  0  0  0  0  0  0  0
   15.0406  -17.5084   23.0846 C   0  0  1  0  0  0  0  0  0  0  0  0
   15.0349  -18.9945   23.0271 C   0  0  0  0  0  0  0  0  0  0  0  0
   13.7216  -19.6407   22.9796 C   0  0  0  0  0  0  0  0  0  0  0  0
   12.5204  -19.2292   23.4962 C   0  0  0  0  0  0  0  0  0  0  0  0
   11.5765  -20.1406   23.1291 N   0  0  0  0  0  0  0  0  0  0  0  0
   12.1750  -21.0984   22.4000 C   0  0  0  0  0  0  0  0  0  0  0  0
   13.4601  -20.7996   22.3100 N   0  0  0  0  0  0  0  0  0  0  0  0
   16.4039  -16.9473   23.3176 C   0  0  0  0  0  0  0  0  0  0  0  0
   17.0858  -16.2503   22.3671 O   0  0  0  0  0  0  0  0  0  0  0  0
   16.9534  -17.1138   24.4246 O   0  0  0  0  0  0  0  0  0  0  0  0
  2  1  1  1
  2  4  1  0
  2  3  1  0
  4  5  1  0
  5  7  1  0
  5  6  1  1
  7  8  2  0
  9 10  1  0
 10 12  1  0
 11 10  2  0
 13 12  1  1
 14 13  1  0
 14  7  1  0
 15 13  1  0
 16 15  2  0
 17 15  1  0
 18 19  1  6
 18 17  1  0
 20 19  1  0
 21 20  2  0
 22 21  1  0
 23 22  1  0
 23 24  2  0
 24 20  1  0
 25 26  1  0
 25 18  1  0
 27 25  2  0
M  END
$$$$
