LNH.pdb
     RDKit          3D

 27 27  0  0  1  0  0  0  0  0999 V2000
    8.7583  -12.1442   18.8370 C   0  0  0  0  0  0  0  0  0  0  0  0
    8.4372  -13.4247   19.5331 C   0  0  1  0  0  0  0  0  0  0  0  0
    7.2955  -13.1386   20.5211 C   0  0  0  0  0  0  0  0  0  0  0  0
    7.9585  -14.5289   18.6376 C   0  0  0  0  0  0  0  0  0  0  0  0
    7.8517  -15.7969   19.4507 C   0  0  2  0  0  0  0  0  0  0  0  0
    7.2966  -15.3943   20.7516 N   0  0  0  0  0  0  0  0  0  0  0  0
    9.1826  -16.3941   19.7239 C   0  0  0  0  0  0  0  0  0  0  0  0
    9.8935  -16.7756   18.7691 O   0  0  0  0  0  0  0  0  0  0  0  0
   13.7317  -15.9107   20.6123 N   0  0  0  0  0  0  0  0  0  0  0  0
   12.8153  -14.7986   20.5135 C   0  0  0  0  0  0  0  0  0  0  0  0
   13.2886  -13.7171   20.0905 O   0  0  0  0  0  0  0  0  0  0  0  0
   11.3919  -14.9501   20.8942 C   0  0  0  0  0  0  0  0  0  0  0  0
   11.0622  -16.3447   21.4069 C   0  0  2  0  0  0  0  0  0  0  0  0
    9.6411  -16.5302   21.0444 N   0  0  0  0  0  0  0  0  0  0  0  0
   11.2334  -16.4308   22.8510 C   0  0  0  0  0  0  0  0  0  0  0  0
   12.4202  -16.2606   23.3076 O   0  0  0  0  0  0  0  0  0  0  0  0
   10.1782  -16.6833   23.7427 N   0  0  0  0  0  0  0  0  0  0  0  0
   10.4346  -16.4797   25.1892 C   0  0  1  0  0  0  0  0  0  0  0  0
    9.0837  -16.3234   25.7913 C   0  0  0  0  0  0  0  0  0  0  0  0
    8.3233  -15.1381   25.3893 C   0  0  0  0  0  0  0  0  0  0  0  0
    8.6843  -14.0974   24.5735 C   0  0  0  0  0  0  0  0  0  0  0  0
    7.6066  -13.2728   24.4509 N   0  0  0  0  0  0  0  0  0  0  0  0
    6.5965  -13.7876   25.1733 C   0  0  0  0  0  0  0  0  0  0  0  0
    7.0250  -14.9050   25.7357 N   0  0  0  0  0  0  0  0  0  0  0  0
   11.1150  -17.7357   25.6219 C   0  0  0  0  0  0  0  0  0  0  0  0
   11.4920  -17.9626   26.9106 O   0  0  0  0  0  0  0  0  0  0  0  0
   11.3528  -18.6244   24.7801 O   0  0  0  0  0  0  0  0  0  0  0  0
  2  1  1  6
  2  4  1  0
  2  3  1  0
  4  5  1  0
  5  7  1  0
  5  6  1  1
  7  8  2  0
  9 10  1  0
 10 12  1  0
 11 10  2  0
 13 12  1  1
 14 13  1  0
 14  7  1  0
 15 13  1  0
 16 15  2  0
 17 15  1  0
 18 19  1  1
 18 17  1  0
 20 19  1  0
 21 20  2  0
 22 21  1  0
 23 22  1  0
 23 24  2  0
 24 20  1  0
 25 26  1  0
 25 18  1  0
 27 25  2  0
M  END
$$$$
