LNH.pdb
     RDKit          3D

 27 27  0  0  1  0  0  0  0  0999 V2000
    6.7733  -11.9307   19.7097 C   0  0  0  0  0  0  0  0  0  0  0  0
    7.4534  -13.2528   19.5792 C   0  0  1  0  0  0  0  0  0  0  0  0
    8.4358  -13.1516   18.4018 C   0  0  0  0  0  0  0  0  0  0  0  0
    8.2607  -13.6695   20.7727 C   0  0  0  0  0  0  0  0  0  0  0  0
    8.8815  -15.0165   20.4883 C   0  0  2  0  0  0  0  0  0  0  0  0
    7.7571  -15.9458   20.3026 N   0  0  0  0  0  0  0  0  0  0  0  0
    9.6630  -15.5218   21.6444 C   0  0  0  0  0  0  0  0  0  0  0  0
   10.4879  -14.7688   22.2058 O   0  0  0  0  0  0  0  0  0  0  0  0
    7.8277  -17.7193   25.2961 N   0  0  0  0  0  0  0  0  0  0  0  0
    8.1014  -18.3888   24.0458 C   0  0  0  0  0  0  0  0  0  0  0  0
    7.1070  -18.7229   23.3587 O   0  0  0  0  0  0  0  0  0  0  0  0
    9.4931  -18.6543   23.6141 C   0  0  0  0  0  0  0  0  0  0  0  0
   10.2482  -17.3867   23.2406 C   0  0  2  0  0  0  0  0  0  0  0  0
    9.4784  -16.8356   22.1051 N   0  0  0  0  0  0  0  0  0  0  0  0
   11.6136  -17.6864   22.8306 C   0  0  0  0  0  0  0  0  0  0  0  0
   11.7924  -18.7497   22.1353 O   0  0  0  0  0  0  0  0  0  0  0  0
   12.7151  -16.8776   23.1544 N   0  0  0  0  0  0  0  0  0  0  0  0
   14.0542  -17.3214   22.6967 C   0  0  1  0  0  0  0  0  0  0  0  0
   14.6939  -16.0908   22.1595 C   0  0  0  0  0  0  0  0  0  0  0  0
   14.2572  -15.6551   20.8313 C   0  0  0  0  0  0  0  0  0  0  0  0
   13.3740  -16.2393   19.9610 C   0  0  0  0  0  0  0  0  0  0  0  0
   13.2472  -15.4158   18.8829 N   0  0  0  0  0  0  0  0  0  0  0  0
   14.0331  -14.3424   19.0765 C   0  0  0  0  0  0  0  0  0  0  0  0
   14.6384  -14.4850   20.2435 N   0  0  0  0  0  0  0  0  0  0  0  0
   14.7191  -17.8206   23.9362 C   0  0  0  0  0  0  0  0  0  0  0  0
   15.9475  -18.4082   23.9274 O   0  0  0  0  0  0  0  0  0  0  0  0
   14.1390  -17.6996   25.0334 O   0  0  0  0  0  0  0  0  0  0  0  0
  2  1  1  1
  2  4  1  0
  2  3  1  0
  4  5  1  0
  5  7  1  0
  5  6  1  1
  7  8  2  0
  9 10  1  0
 10 12  1  0
 11 10  2  0
 13 12  1  6
 14 13  1  0
 14  7  1  0
 15 13  1  0
 16 15  2  0
 17 15  1  0
 18 19  1  1
 18 17  1  0
 20 19  1  0
 21 20  2  0
 22 21  1  0
 23 22  1  0
 23 24  2  0
 24 20  1  0
 25 26  1  0
 25 18  1  0
 27 25  2  0
M  END
$$$$
