LNH.pdb
     RDKit          3D

 27 27  0  0  1  0  0  0  0  0999 V2000
    7.3654  -12.0768   19.1858 C   0  0  0  0  0  0  0  0  0  0  0  0
    8.1270  -13.3314   18.9147 C   0  0  1  0  0  0  0  0  0  0  0  0
    9.6020  -12.9437   18.7258 C   0  0  0  0  0  0  0  0  0  0  0  0
    8.0914  -14.3446   20.0202 C   0  0  0  0  0  0  0  0  0  0  0  0
    8.8552  -15.5695   19.5763 C   0  0  2  0  0  0  0  0  0  0  0  0
    7.9279  -16.3366   18.7312 N   0  0  0  0  0  0  0  0  0  0  0  0
    9.2104  -16.4459   20.7202 C   0  0  0  0  0  0  0  0  0  0  0  0
    8.3019  -16.9978   21.3778 O   0  0  0  0  0  0  0  0  0  0  0  0
   12.5270  -19.2893   19.3813 N   0  0  0  0  0  0  0  0  0  0  0  0
   11.9432  -19.3045   20.7024 C   0  0  0  0  0  0  0  0  0  0  0  0
   11.2019  -20.2779   20.9773 O   0  0  0  0  0  0  0  0  0  0  0  0
   12.2216  -18.2175   21.6693 C   0  0  0  0  0  0  0  0  0  0  0  0
   10.9571  -17.5394   22.1767 C   0  0  2  0  0  0  0  0  0  0  0  0
   10.5565  -16.6544   21.0623 N   0  0  0  0  0  0  0  0  0  0  0  0
   11.2221  -16.7569   23.3765 C   0  0  0  0  0  0  0  0  0  0  0  0
   12.0351  -15.7712   23.2608 O   0  0  0  0  0  0  0  0  0  0  0  0
   10.6364  -17.0284   24.6237 N   0  0  0  0  0  0  0  0  0  0  0  0
   11.0395  -16.1823   25.7733 C   0  0  1  0  0  0  0  0  0  0  0  0
    9.7710  -15.9064   26.4989 C   0  0  0  0  0  0  0  0  0  0  0  0
    9.8937  -15.2421   27.7983 C   0  0  0  0  0  0  0  0  0  0  0  0
   10.3744  -13.9958   28.1063 C   0  0  0  0  0  0  0  0  0  0  0  0
   10.2166  -13.8095   29.4468 N   0  0  0  0  0  0  0  0  0  0  0  0
    9.6502  -14.9141   29.9630 C   0  0  0  0  0  0  0  0  0  0  0  0
    9.4565  -15.7727   28.9761 N   0  0  0  0  0  0  0  0  0  0  0  0
   11.9729  -17.0455   26.5551 C   0  0  0  0  0  0  0  0  0  0  0  0
   12.8711  -16.5410   27.4456 O   0  0  0  0  0  0  0  0  0  0  0  0
   11.9391  -18.2822   26.3988 O   0  0  0  0  0  0  0  0  0  0  0  0
  2  1  1  1
  2  4  1  0
  2  3  1  0
  4  5  1  0
  5  7  1  0
  5  6  1  6
  7  8  2  0
  9 10  1  0
 10 12  1  0
 11 10  2  0
 13 12  1  6
 14 13  1  0
 14  7  1  0
 15 13  1  0
 16 15  2  0
 17 15  1  0
 18 19  1  1
 18 17  1  0
 20 19  1  0
 21 20  2  0
 22 21  1  0
 23 22  1  0
 23 24  2  0
 24 20  1  0
 25 26  1  0
 25 18  1  0
 27 25  2  0
M  END
$$$$
