LEK.pdb
     RDKit          3D

 27 26  0  0  1  0  0  0  0  0999 V2000
    6.8146  -13.7828   18.9126 C   0  0  0  0  0  0  0  0  0  0  0  0
    8.1547  -13.7843   19.6043 C   0  0  1  0  0  0  0  0  0  0  0  0
    8.6652  -12.3783   19.8292 C   0  0  0  0  0  0  0  0  0  0  0  0
    8.0446  -14.5656   20.8718 C   0  0  0  0  0  0  0  0  0  0  0  0
    9.3522  -14.5574   21.6324 C   0  0  2  0  0  0  0  0  0  0  0  0
   10.3712  -13.7968   20.9411 N   0  0  0  0  0  0  0  0  0  0  0  0
    9.8329  -15.9409   21.8502 C   0  0  0  0  0  0  0  0  0  0  0  0
    9.1051  -16.7548   22.4676 O   0  0  0  0  0  0  0  0  0  0  0  0
   11.0913  -16.3949   21.3888 N   0  0  0  0  0  0  0  0  0  0  0  0
   11.5405  -17.7675   21.7107 C   0  0  1  0  0  0  0  0  0  0  0  0
   12.3954  -18.2609   20.5934 C   0  0  0  0  0  0  0  0  0  0  0  0
   12.9176  -19.6476   20.7658 C   0  0  0  0  0  0  0  0  0  0  0  0
   13.8381  -20.0073   19.6129 C   0  0  0  0  0  0  0  0  0  0  0  0
   15.0165  -19.5898   19.5798 O   0  0  0  0  0  0  0  0  0  0  0  0
   12.2411  -17.7732   22.9964 C   0  0  0  0  0  0  0  0  0  0  0  0
   12.9933  -16.7820   23.3430 O   0  0  0  0  0  0  0  0  0  0  0  0
   13.3359  -20.8011   18.6149 O   0  0  0  0  0  0  0  0  0  0  0  0
   12.1409  -18.8295   23.9299 N   0  0  0  0  0  0  0  0  0  0  0  0
   12.9487  -18.7833   25.1495 C   0  0  1  0  0  0  0  0  0  0  0  0
   12.2786  -19.7939   26.0922 C   0  0  0  0  0  0  0  0  0  0  0  0
   12.3432  -19.2898   27.4910 C   0  0  0  0  0  0  0  0  0  0  0  0
   11.8228  -20.4340   28.3855 C   0  0  0  0  0  0  0  0  0  0  0  0
   11.9336  -19.9026   29.8187 C   0  0  0  0  0  0  0  0  0  0  0  0
   11.3653  -20.8624   30.7205 N   0  0  0  0  0  0  0  0  0  0  0  0
   14.3272  -19.1540   24.8071 C   0  0  0  0  0  0  0  0  0  0  0  0
   14.5691  -19.9929   23.9053 O   0  0  0  0  0  0  0  0  0  0  0  0
   15.4607  -18.6198   25.4356 O   0  0  0  0  0  0  0  0  0  0  0  0
  2  1  1  1
  2  3  1  0
  4  5  1  0
  4  2  1  0
  5  6  1  6
  7  5  1  0
  7  8  2  0
  9  7  1  0
 10  9  1  0
 10 11  1  6
 12 11  1  0
 12 13  1  0
 13 14  2  0
 15 10  1  0
 16 15  2  0
 17 13  1  0
 18 15  1  0
 19 18  1  0
 19 25  1  0
 19 20  1  1
 21 20  1  0
 22 23  1  0
 22 21  1  0
 23 24  1  0
 25 27  1  0
 26 25  2  0
M  END
$$$$
