LEK.pdb
     RDKit          3D

 27 26  0  0  1  0  0  0  0  0999 V2000
    7.1811  -12.2617   27.6689 C   0  0  0  0  0  0  0  0  0  0  0  0
    6.6511  -12.9403   26.4307 C   0  0  1  0  0  0  0  0  0  0  0  0
    6.6669  -12.0104   25.2379 C   0  0  0  0  0  0  0  0  0  0  0  0
    7.4293  -14.1924   26.1940 C   0  0  0  0  0  0  0  0  0  0  0  0
    6.7903  -15.0347   25.1121 C   0  0  2  0  0  0  0  0  0  0  0  0
    5.5530  -15.6373   25.5605 N   0  0  0  0  0  0  0  0  0  0  0  0
    7.7212  -16.0957   24.6647 C   0  0  0  0  0  0  0  0  0  0  0  0
    7.7325  -17.1971   25.2647 O   0  0  0  0  0  0  0  0  0  0  0  0
    8.6108  -15.9241   23.5776 N   0  0  0  0  0  0  0  0  0  0  0  0
    9.5470  -17.0112   23.2155 C   0  0  1  0  0  0  0  0  0  0  0  0
    9.9879  -16.8075   21.8059 C   0  0  0  0  0  0  0  0  0  0  0  0
   10.9623  -17.8171   21.2994 C   0  0  0  0  0  0  0  0  0  0  0  0
   11.3119  -17.5260   19.8506 C   0  0  0  0  0  0  0  0  0  0  0  0
   12.1749  -18.2044   19.2512 O   0  0  0  0  0  0  0  0  0  0  0  0
   10.6695  -17.0349   24.1554 C   0  0  0  0  0  0  0  0  0  0  0  0
   11.1440  -15.9379   24.6451 O   0  0  0  0  0  0  0  0  0  0  0  0
   10.6529  -16.4998   19.2255 O   0  0  0  0  0  0  0  0  0  0  0  0
   11.2920  -18.2267   24.5905 N   0  0  0  0  0  0  0  0  0  0  0  0
   12.3241  -18.1559   25.6259 C   0  0  1  0  0  0  0  0  0  0  0  0
   11.7887  -19.0395   26.7624 C   0  0  0  0  0  0  0  0  0  0  0  0
   12.8053  -19.1290   27.8457 C   0  0  0  0  0  0  0  0  0  0  0  0
   12.1821  -20.0087   28.9494 C   0  0  0  0  0  0  0  0  0  0  0  0
   13.2562  -20.1038   30.0384 C   0  0  0  0  0  0  0  0  0  0  0  0
   12.6874  -20.7106   31.2070 N   0  0  0  0  0  0  0  0  0  0  0  0
   13.5827  -18.6580   25.0614 C   0  0  0  0  0  0  0  0  0  0  0  0
   13.5870  -19.4603   24.0962 O   0  0  0  0  0  0  0  0  0  0  0  0
   14.8520  -18.2961   25.5337 O   0  0  0  0  0  0  0  0  0  0  0  0
  2  1  1  1
  2  3  1  0
  4  5  1  0
  4  2  1  0
  5  6  1  1
  7  5  1  0
  7  8  2  0
  9  7  1  0
 10  9  1  0
 10 11  1  6
 12 11  1  0
 12 13  1  0
 13 14  2  0
 15 10  1  0
 16 15  2  0
 17 13  1  0
 18 15  1  0
 19 18  1  0
 19 25  1  0
 19 20  1  1
 21 20  1  0
 22 23  1  0
 22 21  1  0
 23 24  1  0
 25 27  1  0
 26 25  2  0
M  END
$$$$
