LEK.pdb
     RDKit          3D

 27 26  0  0  1  0  0  0  0  0999 V2000
    7.3073  -12.2050   27.6690 C   0  0  0  0  0  0  0  0  0  0  0  0
    6.8671  -12.9429   26.4296 C   0  0  1  0  0  0  0  0  0  0  0  0
    7.0103  -12.0851   25.1921 C   0  0  0  0  0  0  0  0  0  0  0  0
    7.6283  -14.2238   26.3326 C   0  0  0  0  0  0  0  0  0  0  0  0
    7.1077  -15.0827   25.2014 C   0  0  2  0  0  0  0  0  0  0  0  0
    5.7299  -15.4724   25.4127 N   0  0  0  0  0  0  0  0  0  0  0  0
    7.9440  -16.2946   25.0446 C   0  0  0  0  0  0  0  0  0  0  0  0
    7.6641  -17.3244   25.7037 O   0  0  0  0  0  0  0  0  0  0  0  0
    9.0590  -16.3471   24.1747 N   0  0  0  0  0  0  0  0  0  0  0  0
    9.8602  -17.5875   24.0812 C   0  0  1  0  0  0  0  0  0  0  0  0
   10.4935  -17.6425   22.7327 C   0  0  0  0  0  0  0  0  0  0  0  0
   11.1764  -16.3865   22.3067 C   0  0  0  0  0  0  0  0  0  0  0  0
   11.8158  -16.5753   20.9424 C   0  0  0  0  0  0  0  0  0  0  0  0
   11.1315  -16.4996   19.8983 O   0  0  0  0  0  0  0  0  0  0  0  0
   10.8448  -17.6268   25.1643 C   0  0  0  0  0  0  0  0  0  0  0  0
   11.2981  -16.5350   25.6845 O   0  0  0  0  0  0  0  0  0  0  0  0
   13.1616  -16.8301   20.8946 O   0  0  0  0  0  0  0  0  0  0  0  0
   11.3496  -18.8284   25.7106 N   0  0  0  0  0  0  0  0  0  0  0  0
   12.2678  -18.7646   26.8487 C   0  0  1  0  0  0  0  0  0  0  0  0
   11.6714  -19.7362   27.8779 C   0  0  0  0  0  0  0  0  0  0  0  0
   12.5551  -19.8004   29.0736 C   0  0  0  0  0  0  0  0  0  0  0  0
   11.9083  -20.8209   30.0329 C   0  0  0  0  0  0  0  0  0  0  0  0
   12.8418  -20.8752   31.2472 C   0  0  0  0  0  0  0  0  0  0  0  0
   12.2291  -21.6658   32.2753 N   0  0  0  0  0  0  0  0  0  0  0  0
   13.6023  -19.1709   26.3913 C   0  0  0  0  0  0  0  0  0  0  0  0
   14.6358  -18.5966   26.8127 O   0  0  0  0  0  0  0  0  0  0  0  0
   13.8342  -20.2049   25.4737 O   0  0  0  0  0  0  0  0  0  0  0  0
  2  1  1  1
  2  3  1  0
  4  5  1  0
  4  2  1  0
  5  6  1  1
  7  5  1  0
  7  8  2  0
  9  7  1  0
 10  9  1  0
 10 11  1  6
 12 11  1  0
 12 13  1  0
 13 14  2  0
 15 10  1  0
 16 15  2  0
 17 13  1  0
 18 15  1  0
 19 18  1  0
 19 25  1  0
 19 20  1  1
 21 20  1  0
 22 23  1  0
 22 21  1  0
 23 24  1  0
 25 27  1  0
 26 25  2  0
M  END
$$$$
