LEK.pdb
     RDKit          3D

 27 26  0  0  1  0  0  0  0  0999 V2000
    7.6166  -12.1012   19.5566 C   0  0  0  0  0  0  0  0  0  0  0  0
    7.8736  -13.5693   19.3268 C   0  0  1  0  0  0  0  0  0  0  0  0
    8.9836  -13.7885   18.3229 C   0  0  0  0  0  0  0  0  0  0  0  0
    8.1486  -14.2243   20.6401 C   0  0  0  0  0  0  0  0  0  0  0  0
    8.3843  -15.7088   20.4699 C   0  0  2  0  0  0  0  0  0  0  0  0
    7.1943  -16.3928   20.0107 N   0  0  0  0  0  0  0  0  0  0  0  0
    8.8373  -16.3104   21.7448 C   0  0  0  0  0  0  0  0  0  0  0  0
    7.9982  -16.5426   22.6477 O   0  0  0  0  0  0  0  0  0  0  0  0
   10.1902  -16.6403   21.9967 N   0  0  0  0  0  0  0  0  0  0  0  0
   10.5742  -17.2211   23.3023 C   0  0  1  0  0  0  0  0  0  0  0  0
   11.9550  -17.7717   23.1888 C   0  0  0  0  0  0  0  0  0  0  0  0
   12.5150  -18.3317   24.4530 C   0  0  0  0  0  0  0  0  0  0  0  0
   13.9199  -18.8567   24.2157 C   0  0  0  0  0  0  0  0  0  0  0  0
   14.6317  -19.2364   25.1714 O   0  0  0  0  0  0  0  0  0  0  0  0
   10.4607  -16.2058   24.3513 C   0  0  0  0  0  0  0  0  0  0  0  0
   11.0484  -15.0621   24.2295 O   0  0  0  0  0  0  0  0  0  0  0  0
   14.3789  -18.9000   22.9251 O   0  0  0  0  0  0  0  0  0  0  0  0
    9.7133  -16.3942   25.5358 N   0  0  0  0  0  0  0  0  0  0  0  0
    9.6858  -15.3292   26.5394 C   0  0  1  0  0  0  0  0  0  0  0  0
    8.2375  -14.8183   26.5172 C   0  0  0  0  0  0  0  0  0  0  0  0
    8.2189  -13.3592   26.8096 C   0  0  0  0  0  0  0  0  0  0  0  0
    6.7360  -12.9341   26.7860 C   0  0  0  0  0  0  0  0  0  0  0  0
    6.7515  -11.4176   27.0065 C   0  0  0  0  0  0  0  0  0  0  0  0
    5.4098  -10.9173   26.9228 N   0  0  0  0  0  0  0  0  0  0  0  0
   10.0654  -15.9036   27.8358 C   0  0  0  0  0  0  0  0  0  0  0  0
   10.4755  -15.1766   28.7732 O   0  0  0  0  0  0  0  0  0  0  0  0
   10.0038  -17.2720   28.1339 O   0  0  0  0  0  0  0  0  0  0  0  0
  2  1  1  1
  2  3  1  0
  4  5  1  0
  4  2  1  0
  5  6  1  1
  7  5  1  0
  7  8  2  0
  9  7  1  0
 10  9  1  0
 10 11  1  6
 12 11  1  0
 12 13  1  0
 13 14  2  0
 15 10  1  0
 16 15  2  0
 17 13  1  0
 18 15  1  0
 19 18  1  0
 19 25  1  0
 19 20  1  1
 21 20  1  0
 22 23  1  0
 22 21  1  0
 23 24  1  0
 25 27  1  0
 26 25  2  0
M  END
$$$$
