LEK.pdb
     RDKit          3D

 27 26  0  0  1  0  0  0  0  0999 V2000
    6.9460  -11.8990   26.9043 C   0  0  0  0  0  0  0  0  0  0  0  0
    6.4848  -13.0180   26.0047 C   0  0  1  0  0  0  0  0  0  0  0  0
    6.0841  -12.5040   24.6397 C   0  0  0  0  0  0  0  0  0  0  0  0
    7.5549  -14.0569   25.9366 C   0  0  0  0  0  0  0  0  0  0  0  0
    7.1227  -15.2293   25.0839 C   0  0  2  0  0  0  0  0  0  0  0  0
    5.9878  -15.9211   25.6568 N   0  0  0  0  0  0  0  0  0  0  0  0
    8.2426  -16.1817   24.9074 C   0  0  0  0  0  0  0  0  0  0  0  0
    8.4223  -17.0843   25.7597 O   0  0  0  0  0  0  0  0  0  0  0  0
    9.1319  -16.1215   23.8083 N   0  0  0  0  0  0  0  0  0  0  0  0
   10.2147  -17.1222   23.6834 C   0  0  1  0  0  0  0  0  0  0  0  0
   10.7734  -17.0467   22.3033 C   0  0  0  0  0  0  0  0  0  0  0  0
    9.8702  -17.5550   21.2302 C   0  0  0  0  0  0  0  0  0  0  0  0
   10.5247  -17.3839   19.8708 C   0  0  0  0  0  0  0  0  0  0  0  0
   10.0364  -16.6106   19.0176 O   0  0  0  0  0  0  0  0  0  0  0  0
   11.2300  -16.8878   24.7121 C   0  0  0  0  0  0  0  0  0  0  0  0
   11.2990  -15.7531   25.3253 O   0  0  0  0  0  0  0  0  0  0  0  0
   11.6628  -18.1021   19.6119 O   0  0  0  0  0  0  0  0  0  0  0  0
   12.1759  -17.8616   25.1047 N   0  0  0  0  0  0  0  0  0  0  0  0
   12.6956  -17.8410   26.4729 C   0  0  1  0  0  0  0  0  0  0  0  0
   11.4734  -18.1443   27.3522 C   0  0  0  0  0  0  0  0  0  0  0  0
   11.8989  -18.2642   28.7733 C   0  0  0  0  0  0  0  0  0  0  0  0
   11.4958  -19.6831   29.2253 C   0  0  0  0  0  0  0  0  0  0  0  0
   11.8085  -19.7286   30.7250 C   0  0  0  0  0  0  0  0  0  0  0  0
   11.4725  -21.0263   31.2354 N   0  0  0  0  0  0  0  0  0  0  0  0
   13.7440  -18.8623   26.5862 C   0  0  0  0  0  0  0  0  0  0  0  0
   14.7711  -18.6642   27.2799 O   0  0  0  0  0  0  0  0  0  0  0  0
   13.6923  -20.1111   25.9515 O   0  0  0  0  0  0  0  0  0  0  0  0
  2  1  1  1
  2  3  1  0
  4  5  1  0
  4  2  1  0
  5  6  1  1
  7  5  1  0
  7  8  2  0
  9  7  1  0
 10  9  1  0
 10 11  1  6
 12 11  1  0
 12 13  1  0
 13 14  2  0
 15 10  1  0
 16 15  2  0
 17 13  1  0
 18 15  1  0
 19 18  1  0
 19 25  1  0
 19 20  1  1
 21 20  1  0
 22 23  1  0
 22 21  1  0
 23 24  1  0
 25 27  1  0
 26 25  2  0
M  END
$$$$
