LEK.pdb
     RDKit          3D

 27 26  0  0  1  0  0  0  0  0999 V2000
    6.9905  -12.4548   20.8483 C   0  0  0  0  0  0  0  0  0  0  0  0
    7.2139  -13.6827   20.0018 C   0  0  1  0  0  0  0  0  0  0  0  0
    7.5589  -13.3184   18.5748 C   0  0  0  0  0  0  0  0  0  0  0  0
    8.2587  -14.5322   20.6470 C   0  0  0  0  0  0  0  0  0  0  0  0
    8.4830  -15.8077   19.8654 C   0  0  2  0  0  0  0  0  0  0  0  0
    7.3025  -16.6452   19.8531 N   0  0  0  0  0  0  0  0  0  0  0  0
    9.6206  -16.5682   20.4312 C   0  0  0  0  0  0  0  0  0  0  0  0
    9.4166  -17.3683   21.3754 O   0  0  0  0  0  0  0  0  0  0  0  0
   10.9450  -16.4335   19.9511 N   0  0  0  0  0  0  0  0  0  0  0  0
   12.0465  -17.1613   20.6193 C   0  0  1  0  0  0  0  0  0  0  0  0
   13.2098  -17.2191   19.6887 C   0  0  0  0  0  0  0  0  0  0  0  0
   14.4415  -17.8381   20.2590 C   0  0  0  0  0  0  0  0  0  0  0  0
   14.4943  -19.3152   19.9108 C   0  0  0  0  0  0  0  0  0  0  0  0
   14.7225  -20.1731   20.7917 O   0  0  0  0  0  0  0  0  0  0  0  0
   12.3762  -16.5090   21.8881 C   0  0  0  0  0  0  0  0  0  0  0  0
   12.6450  -15.2463   21.9311 O   0  0  0  0  0  0  0  0  0  0  0  0
   14.2845  -19.6741   18.6049 O   0  0  0  0  0  0  0  0  0  0  0  0
   12.4143  -17.1919   23.1247 N   0  0  0  0  0  0  0  0  0  0  0  0
   12.7559  -16.4504   24.3394 C   0  0  1  0  0  0  0  0  0  0  0  0
   12.1210  -17.2639   25.4770 C   0  0  0  0  0  0  0  0  0  0  0  0
   12.5767  -16.7274   26.7883 C   0  0  0  0  0  0  0  0  0  0  0  0
   12.0175  -17.6832   27.8625 C   0  0  0  0  0  0  0  0  0  0  0  0
   12.5759  -17.1618   29.1910 C   0  0  0  0  0  0  0  0  0  0  0  0
   12.1147  -18.0038   30.2568 N   0  0  0  0  0  0  0  0  0  0  0  0
   14.2184  -16.3767   24.4419 C   0  0  0  0  0  0  0  0  0  0  0  0
   14.7904  -15.3274   24.8257 O   0  0  0  0  0  0  0  0  0  0  0  0
   15.0795  -17.4386   24.1320 O   0  0  0  0  0  0  0  0  0  0  0  0
  2  1  1  1
  2  3  1  0
  4  5  1  0
  4  2  1  0
  5  6  1  1
  7  5  1  0
  7  8  2  0
  9  7  1  0
 10  9  1  0
 10 11  1  6
 12 11  1  0
 12 13  1  0
 13 14  2  0
 15 10  1  0
 16 15  2  0
 17 13  1  0
 18 15  1  0
 19 18  1  0
 19 25  1  0
 19 20  1  1
 21 20  1  0
 22 23  1  0
 22 21  1  0
 23 24  1  0
 25 27  1  0
 26 25  2  0
M  END
$$$$
