LEK.pdb
     RDKit          3D

 27 26  0  0  1  0  0  0  0  0999 V2000
    7.0187  -12.4175   20.9406 C   0  0  0  0  0  0  0  0  0  0  0  0
    7.5001  -13.5518   20.0713 C   0  0  1  0  0  0  0  0  0  0  0  0
    8.4817  -13.0721   19.0253 C   0  0  0  0  0  0  0  0  0  0  0  0
    8.0668  -14.6233   20.9432 C   0  0  0  0  0  0  0  0  0  0  0  0
    8.4781  -15.8289   20.1274 C   0  0  2  0  0  0  0  0  0  0  0  0
    7.3478  -16.4351   19.4566 N   0  0  0  0  0  0  0  0  0  0  0  0
    9.1379  -16.8363   20.9890 C   0  0  0  0  0  0  0  0  0  0  0  0
    8.4466  -17.7365   21.5228 O   0  0  0  0  0  0  0  0  0  0  0  0
   10.5302  -16.8318   21.2425 N   0  0  0  0  0  0  0  0  0  0  0  0
   11.1186  -17.8583   22.1310 C   0  0  1  0  0  0  0  0  0  0  0  0
   12.5885  -17.9104   21.8871 C   0  0  0  0  0  0  0  0  0  0  0  0
   12.9926  -18.5880   20.6211 C   0  0  0  0  0  0  0  0  0  0  0  0
   14.4626  -18.3337   20.3375 C   0  0  0  0  0  0  0  0  0  0  0  0
   15.0104  -18.8111   19.3196 O   0  0  0  0  0  0  0  0  0  0  0  0
   10.7929  -17.5550   23.5259 C   0  0  0  0  0  0  0  0  0  0  0  0
   11.0779  -16.4027   24.0351 O   0  0  0  0  0  0  0  0  0  0  0  0
   15.1648  -17.5672   21.2305 O   0  0  0  0  0  0  0  0  0  0  0  0
   10.1523  -18.4716   24.3900 N   0  0  0  0  0  0  0  0  0  0  0  0
    9.9502  -18.1080   25.7933 C   0  0  1  0  0  0  0  0  0  0  0  0
    8.4675  -18.4085   26.0580 C   0  0  0  0  0  0  0  0  0  0  0  0
    8.2454  -19.8800   26.0366 C   0  0  0  0  0  0  0  0  0  0  0  0
    6.7857  -20.1018   26.4840 C   0  0  0  0  0  0  0  0  0  0  0  0
    6.6084  -21.6234   26.5290 C   0  0  0  0  0  0  0  0  0  0  0  0
    5.2753  -21.9281   26.9619 N   0  0  0  0  0  0  0  0  0  0  0  0
   10.8506  -18.9229   26.6180 C   0  0  0  0  0  0  0  0  0  0  0  0
   11.5256  -18.4102   27.5436 O   0  0  0  0  0  0  0  0  0  0  0  0
   11.0299  -20.3033   26.4516 O   0  0  0  0  0  0  0  0  0  0  0  0
  2  1  1  1
  2  3  1  0
  4  5  1  0
  4  2  1  0
  5  6  1  1
  7  5  1  0
  7  8  2  0
  9  7  1  0
 10  9  1  0
 10 11  1  1
 12 11  1  0
 12 13  1  0
 13 14  2  0
 15 10  1  0
 16 15  2  0
 17 13  1  0
 18 15  1  0
 19 18  1  0
 19 25  1  0
 19 20  1  1
 21 20  1  0
 22 23  1  0
 22 21  1  0
 23 24  1  0
 25 27  1  0
 26 25  2  0
M  END
$$$$
