LEK.pdb
     RDKit          3D

 27 26  0  0  1  0  0  0  0  0999 V2000
    7.1738  -12.1543   27.2216 C   0  0  0  0  0  0  0  0  0  0  0  0
    6.5857  -13.0626   26.1712 C   0  0  1  0  0  0  0  0  0  0  0  0
    6.2888  -12.3128   24.8916 C   0  0  0  0  0  0  0  0  0  0  0  0
    7.5068  -14.2186   25.9597 C   0  0  0  0  0  0  0  0  0  0  0  0
    6.9650  -15.1617   24.9085 C   0  0  2  0  0  0  0  0  0  0  0  0
    5.8087  -15.8904   25.3848 N   0  0  0  0  0  0  0  0  0  0  0  0
    8.0110  -16.1203   24.4846 C   0  0  0  0  0  0  0  0  0  0  0  0
    8.1691  -17.1836   25.1308 O   0  0  0  0  0  0  0  0  0  0  0  0
    8.8523  -15.8908   23.3700 N   0  0  0  0  0  0  0  0  0  0  0  0
    9.8957  -16.8801   23.0209 C   0  0  1  0  0  0  0  0  0  0  0  0
   10.5763  -16.4311   21.7727 C   0  0  0  0  0  0  0  0  0  0  0  0
   11.6730  -17.3240   21.2980 C   0  0  0  0  0  0  0  0  0  0  0  0
   11.5484  -17.5563   19.8026 C   0  0  0  0  0  0  0  0  0  0  0  0
   11.9238  -18.6327   19.2881 O   0  0  0  0  0  0  0  0  0  0  0  0
   10.8262  -17.0381   24.1403 C   0  0  0  0  0  0  0  0  0  0  0  0
   11.2707  -16.0078   24.7800 O   0  0  0  0  0  0  0  0  0  0  0  0
   11.0133  -16.5513   19.0398 O   0  0  0  0  0  0  0  0  0  0  0  0
   11.2856  -18.2945   24.5959 N   0  0  0  0  0  0  0  0  0  0  0  0
   12.2157  -18.3479   25.7248 C   0  0  1  0  0  0  0  0  0  0  0  0
   11.4407  -19.0870   26.8258 C   0  0  0  0  0  0  0  0  0  0  0  0
   12.3478  -19.3669   27.9720 C   0  0  0  0  0  0  0  0  0  0  0  0
   11.4797  -20.0442   29.0527 C   0  0  0  0  0  0  0  0  0  0  0  0
   12.4205  -20.2611   30.2429 C   0  0  0  0  0  0  0  0  0  0  0  0
   11.6944  -20.8933   31.3061 N   0  0  0  0  0  0  0  0  0  0  0  0
   13.4218  -19.0679   25.2985 C   0  0  0  0  0  0  0  0  0  0  0  0
   14.3845  -19.2443   26.0842 O   0  0  0  0  0  0  0  0  0  0  0  0
   13.5996  -19.6074   24.0169 O   0  0  0  0  0  0  0  0  0  0  0  0
  2  1  1  1
  2  3  1  0
  4  5  1  0
  4  2  1  0
  5  6  1  1
  7  5  1  0
  7  8  2  0
  9  7  1  0
 10  9  1  0
 10 11  1  6
 12 11  1  0
 12 13  1  0
 13 14  2  0
 15 10  1  0
 16 15  2  0
 17 13  1  0
 18 15  1  0
 19 18  1  0
 19 25  1  0
 19 20  1  1
 21 20  1  0
 22 23  1  0
 22 21  1  0
 23 24  1  0
 25 27  1  0
 26 25  2  0
M  END
$$$$
