CCM.pdb
     RDKit          3D

 21 20  0  0  1  0  0  0  0  0999 V2000
    9.7455  -18.0190   18.0822 N   0  0  0  0  0  0  0  0  0  0  0  0
   10.2715  -18.0369   19.4323 C   0  0  1  0  0  0  0  0  0  0  0  0
   11.5728  -17.3031   19.4498 C   0  0  0  0  0  0  0  0  0  0  0  0
   12.2325  -17.4079   21.1530 S   0  0  0  0  0  0  0  0  0  0  0  0
    9.2828  -17.5279   20.4066 C   0  0  0  0  0  0  0  0  0  0  0  0
    8.6027  -16.5141   20.1017 O   0  0  0  0  0  0  0  0  0  0  0  0
    9.0616  -18.1178   21.6590 N   0  0  0  0  0  0  0  0  0  0  0  0
    7.9967  -17.6147   22.5404 C   0  0  1  0  0  0  0  0  0  0  0  0
    7.2881  -18.8198   23.1519 C   0  0  0  0  0  0  0  0  0  0  0  0
    6.1919  -18.3073   24.4694 S   0  0  0  0  0  0  0  0  0  0  0  0
    8.6430  -16.7664   23.5525 C   0  0  0  0  0  0  0  0  0  0  0  0
    9.8109  -17.0355   23.9781 O   0  0  0  0  0  0  0  0  0  0  0  0
    5.3408  -12.1921   26.5115 C   0  0  0  0  0  0  0  0  0  0  0  0
    6.9583  -11.6961   27.1354 S   0  0  0  0  0  0  0  0  0  0  0  0
    8.1224  -13.0561   26.8157 C   0  0  0  0  0  0  0  0  0  0  0  0
    7.6845  -13.8412   25.6053 C   0  0  0  0  0  0  0  0  0  0  0  0
    8.6476  -14.9420   25.2296 C   0  0  2  0  0  0  0  0  0  0  0  0
    8.0029  -15.6333   24.0832 N   0  0  0  0  0  0  0  0  0  0  0  0
    8.7808  -15.8994   26.3555 C   0  0  0  0  0  0  0  0  0  0  0  0
    9.7512  -15.8318   27.3325 O   0  0  0  0  0  0  0  0  0  0  0  0
    7.9507  -16.8693   26.4537 O   0  0  0  0  0  0  0  0  0  0  0  0
  2  1  1  6
  3  2  1  0
  4  3  1  0
  5  2  1  0
  5  6  2  0
  7  5  1  0
  8  7  1  0
  8  9  1  1
 10  9  1  0
 11  8  1  0
 12 11  2  0
 13 14  1  0
 15 14  1  0
 16 15  1  0
 17 18  1  0
 17 16  1  1
 18 11  1  0
 19 17  1  0
 20 19  1  0
 21 19  2  0
M  END
$$$$
