CCM.pdb
     RDKit          3D

 21 20  0  0  1  0  0  0  0  0999 V2000
    7.7749  -14.9967   17.5752 N   0  0  0  0  0  0  0  0  0  0  0  0
    8.4589  -14.5578   18.7748 C   0  0  1  0  0  0  0  0  0  0  0  0
    7.9270  -13.2178   19.1670 C   0  0  0  0  0  0  0  0  0  0  0  0
    8.9404  -11.9589   18.3096 S   0  0  0  0  0  0  0  0  0  0  0  0
    8.3785  -15.5723   19.8472 C   0  0  0  0  0  0  0  0  0  0  0  0
    7.2829  -16.1603   20.0400 O   0  0  0  0  0  0  0  0  0  0  0  0
    9.4639  -15.9157   20.6655 N   0  0  0  0  0  0  0  0  0  0  0  0
    9.2598  -16.7475   21.8614 C   0  0  1  0  0  0  0  0  0  0  0  0
   10.2220  -17.9289   21.7786 C   0  0  0  0  0  0  0  0  0  0  0  0
   10.2974  -18.7938   23.3427 S   0  0  0  0  0  0  0  0  0  0  0  0
    9.5167  -15.8909   23.0284 C   0  0  0  0  0  0  0  0  0  0  0  0
   10.5367  -15.1323   23.0673 O   0  0  0  0  0  0  0  0  0  0  0  0
    6.7355  -11.2703   26.9810 C   0  0  0  0  0  0  0  0  0  0  0  0
    5.8165  -12.7728   26.5945 S   0  0  0  0  0  0  0  0  0  0  0  0
    7.0011  -14.1507   26.5238 C   0  0  0  0  0  0  0  0  0  0  0  0
    7.9405  -13.9692   25.3585 C   0  0  0  0  0  0  0  0  0  0  0  0
    9.0213  -15.0220   25.2957 C   0  0  2  0  0  0  0  0  0  0  0  0
    8.6517  -15.8744   24.1360 N   0  0  0  0  0  0  0  0  0  0  0  0
    8.9912  -15.8476   26.5284 C   0  0  0  0  0  0  0  0  0  0  0  0
    8.5314  -17.1458   26.5924 O   0  0  0  0  0  0  0  0  0  0  0  0
    9.4149  -15.3464   27.6277 O   0  0  0  0  0  0  0  0  0  0  0  0
  2  1  1  6
  3  2  1  0
  4  3  1  0
  5  2  1  0
  5  6  2  0
  7  5  1  0
  8  7  1  0
  8  9  1  6
 10  9  1  0
 11  8  1  0
 12 11  2  0
 13 14  1  0
 15 14  1  0
 16 15  1  0
 17 18  1  0
 17 16  1  1
 18 11  1  0
 19 17  1  0
 20 19  1  0
 21 19  2  0
M  END
$$$$
