CCM.pdb
     RDKit          3D

 21 20  0  0  1  0  0  0  0  0999 V2000
    3.2618  -21.1474   21.9807 N   0  0  0  0  0  0  0  0  0  0  0  0
    3.7022  -19.7697   21.8935 C   0  0  1  0  0  0  0  0  0  0  0  0
    2.5381  -18.9177   21.5048 C   0  0  0  0  0  0  0  0  0  0  0  0
    2.5140  -18.8317   19.6775 S   0  0  0  0  0  0  0  0  0  0  0  0
    4.3747  -19.3354   23.1365 C   0  0  0  0  0  0  0  0  0  0  0  0
    3.7148  -19.3272   24.2078 O   0  0  0  0  0  0  0  0  0  0  0  0
    5.7159  -18.9297   23.1852 N   0  0  0  0  0  0  0  0  0  0  0  0
    6.3088  -18.4715   24.4510 C   0  0  1  0  0  0  0  0  0  0  0  0
    7.1647  -19.6072   25.0042 C   0  0  0  0  0  0  0  0  0  0  0  0
    7.2868  -19.4971   26.7855 S   0  0  0  0  0  0  0  0  0  0  0  0
    7.0965  -17.2684   24.1447 C   0  0  0  0  0  0  0  0  0  0  0  0
    7.7249  -17.1645   23.0439 O   0  0  0  0  0  0  0  0  0  0  0  0
    7.6417  -11.5147   27.3936 C   0  0  0  0  0  0  0  0  0  0  0  0
    6.0584  -12.1188   26.7773 S   0  0  0  0  0  0  0  0  0  0  0  0
    6.3951  -13.3465   25.4787 C   0  0  0  0  0  0  0  0  0  0  0  0
    7.7430  -13.9837   25.7029 C   0  0  0  0  0  0  0  0  0  0  0  0
    8.0701  -15.0561   24.6912 C   0  0  2  0  0  0  0  0  0  0  0  0
    7.1835  -16.1942   25.0468 N   0  0  0  0  0  0  0  0  0  0  0  0
    9.4835  -15.4803   24.8474 C   0  0  0  0  0  0  0  0  0  0  0  0
   10.5592  -14.8625   24.2459 O   0  0  0  0  0  0  0  0  0  0  0  0
    9.7559  -16.4896   25.5866 O   0  0  0  0  0  0  0  0  0  0  0  0
  2  1  1  1
  3  2  1  0
  4  3  1  0
  5  2  1  0
  5  6  2  0
  7  5  1  0
  8  7  1  0
  8  9  1  6
 10  9  1  0
 11  8  1  0
 12 11  2  0
 13 14  1  0
 15 14  1  0
 16 15  1  0
 17 18  1  0
 17 16  1  1
 18 11  1  0
 19 17  1  0
 20 19  1  0
 21 19  2  0
M  END
$$$$
