CCM.pdb
     RDKit          3D

 21 20  0  0  1  0  0  0  0  0999 V2000
   10.5502  -17.9275   17.9929 N   0  0  0  0  0  0  0  0  0  0  0  0
   11.1048  -17.7683   19.3221 C   0  0  1  0  0  0  0  0  0  0  0  0
   12.2025  -16.7563   19.2657 C   0  0  0  0  0  0  0  0  0  0  0  0
   13.7859  -17.6726   19.2561 S   0  0  0  0  0  0  0  0  0  0  0  0
   10.0539  -17.4585   20.3149 C   0  0  0  0  0  0  0  0  0  0  0  0
    9.0475  -16.8015   19.9424 O   0  0  0  0  0  0  0  0  0  0  0  0
   10.1197  -17.8597   21.6566 N   0  0  0  0  0  0  0  0  0  0  0  0
    8.9772  -17.6375   22.5562 C   0  0  1  0  0  0  0  0  0  0  0  0
    8.6112  -18.9781   23.1865 C   0  0  0  0  0  0  0  0  0  0  0  0
    9.8199  -19.4486   24.4184 S   0  0  0  0  0  0  0  0  0  0  0  0
    9.4027  -16.6429   23.5519 C   0  0  0  0  0  0  0  0  0  0  0  0
   10.6367  -16.4129   23.7562 O   0  0  0  0  0  0  0  0  0  0  0  0
    5.5566  -12.2629   25.6812 C   0  0  0  0  0  0  0  0  0  0  0  0
    6.7642  -11.9278   26.9777 S   0  0  0  0  0  0  0  0  0  0  0  0
    8.1542  -13.0798   26.7589 C   0  0  0  0  0  0  0  0  0  0  0  0
    7.8542  -14.0506   25.6451 C   0  0  0  0  0  0  0  0  0  0  0  0
    8.9904  -15.0053   25.3656 C   0  0  2  0  0  0  0  0  0  0  0  0
    8.4712  -15.9117   24.3088 N   0  0  0  0  0  0  0  0  0  0  0  0
    9.2869  -15.8035   26.5809 C   0  0  0  0  0  0  0  0  0  0  0  0
   10.1532  -15.4171   27.5814 O   0  0  0  0  0  0  0  0  0  0  0  0
    8.7137  -16.9372   26.7403 O   0  0  0  0  0  0  0  0  0  0  0  0
  2  1  1  6
  3  2  1  0
  4  3  1  0
  5  2  1  0
  5  6  2  0
  7  5  1  0
  8  7  1  0
  8  9  1  1
 10  9  1  0
 11  8  1  0
 12 11  2  0
 13 14  1  0
 15 14  1  0
 16 15  1  0
 17 18  1  0
 17 16  1  1
 18 11  1  0
 19 17  1  0
 20 19  1  0
 21 19  2  0
M  END
$$$$
