CCM.pdb
     RDKit          3D

 21 20  0  0  1  0  0  0  0  0999 V2000
   10.6972  -18.1427   18.8498 N   0  0  0  0  0  0  0  0  0  0  0  0
   11.2555  -17.5373   20.0421 C   0  0  1  0  0  0  0  0  0  0  0  0
   11.1866  -16.0514   19.9027 C   0  0  0  0  0  0  0  0  0  0  0  0
   12.1219  -15.3309   21.3003 S   0  0  0  0  0  0  0  0  0  0  0  0
   10.6095  -18.0553   21.2670 C   0  0  0  0  0  0  0  0  0  0  0  0
    9.3603  -17.9542   21.3787 O   0  0  0  0  0  0  0  0  0  0  0  0
   11.3188  -18.6563   22.3165 N   0  0  0  0  0  0  0  0  0  0  0  0
   10.6111  -19.1362   23.5134 C   0  0  1  0  0  0  0  0  0  0  0  0
   11.0456  -20.5767   23.7670 C   0  0  0  0  0  0  0  0  0  0  0  0
   10.3774  -21.1757   25.3145 S   0  0  0  0  0  0  0  0  0  0  0  0
   10.9743  -18.2345   24.6165 C   0  0  0  0  0  0  0  0  0  0  0  0
   12.1478  -17.7518   24.7034 O   0  0  0  0  0  0  0  0  0  0  0  0
   10.8443  -13.0130   29.4445 C   0  0  0  0  0  0  0  0  0  0  0  0
   10.6145  -14.0351   27.9769 S   0  0  0  0  0  0  0  0  0  0  0  0
    9.5599  -15.4437   28.4357 C   0  0  0  0  0  0  0  0  0  0  0  0
    9.2971  -16.3105   27.2303 C   0  0  0  0  0  0  0  0  0  0  0  0
   10.5275  -17.0346   26.7382 C   0  0  2  0  0  0  0  0  0  0  0  0
   10.0470  -17.8713   25.6082 N   0  0  0  0  0  0  0  0  0  0  0  0
   11.0492  -17.9226   27.8065 C   0  0  0  0  0  0  0  0  0  0  0  0
   12.1625  -17.6558   28.5746 O   0  0  0  0  0  0  0  0  0  0  0  0
   10.4445  -19.0232   28.0561 O   0  0  0  0  0  0  0  0  0  0  0  0
  2  1  1  6
  3  2  1  0
  4  3  1  0
  5  2  1  0
  5  6  2  0
  7  5  1  0
  8  7  1  0
  8  9  1  1
 10  9  1  0
 11  8  1  0
 12 11  2  0
 13 14  1  0
 15 14  1  0
 16 15  1  0
 17 18  1  0
 17 16  1  1
 18 11  1  0
 19 17  1  0
 20 19  1  0
 21 19  2  0
M  END
$$$$
