CCM.pdb
     RDKit          3D

 21 20  0  0  1  0  0  0  0  0999 V2000
    8.8415  -18.4722   17.8999 N   0  0  0  0  0  0  0  0  0  0  0  0
    9.4422  -18.4876   19.2184 C   0  0  1  0  0  0  0  0  0  0  0  0
   10.7890  -17.8457   19.1393 C   0  0  0  0  0  0  0  0  0  0  0  0
   10.5444  -16.1463   18.5074 S   0  0  0  0  0  0  0  0  0  0  0  0
    8.5483  -17.8832   20.2291 C   0  0  0  0  0  0  0  0  0  0  0  0
    7.5827  -17.1788   19.8357 O   0  0  0  0  0  0  0  0  0  0  0  0
    8.7203  -18.0540   21.6100 N   0  0  0  0  0  0  0  0  0  0  0  0
    7.6998  -17.5692   22.5520 C   0  0  1  0  0  0  0  0  0  0  0  0
    7.0899  -18.7837   23.2458 C   0  0  0  0  0  0  0  0  0  0  0  0
    8.3464  -19.7102   24.1192 S   0  0  0  0  0  0  0  0  0  0  0  0
    8.3787  -16.6643   23.4912 C   0  0  0  0  0  0  0  0  0  0  0  0
    9.6477  -16.6429   23.5724 O   0  0  0  0  0  0  0  0  0  0  0  0
    5.6470  -11.4855   25.7485 C   0  0  0  0  0  0  0  0  0  0  0  0
    6.8054  -11.6269   27.1231 S   0  0  0  0  0  0  0  0  0  0  0  0
    8.0354  -12.8943   26.6900 C   0  0  0  0  0  0  0  0  0  0  0  0
    7.4478  -13.8742   25.7063 C   0  0  0  0  0  0  0  0  0  0  0  0
    8.4274  -14.9360   25.2664 C   0  0  2  0  0  0  0  0  0  0  0  0
    7.6590  -15.7932   24.3270 N   0  0  0  0  0  0  0  0  0  0  0  0
    8.8414  -15.7528   26.4340 C   0  0  0  0  0  0  0  0  0  0  0  0
    9.8970  -15.4512   27.2680 O   0  0  0  0  0  0  0  0  0  0  0  0
    8.1922  -16.8206   26.7125 O   0  0  0  0  0  0  0  0  0  0  0  0
  2  1  1  6
  3  2  1  0
  4  3  1  0
  5  2  1  0
  5  6  2  0
  7  5  1  0
  8  7  1  0
  8  9  1  1
 10  9  1  0
 11  8  1  0
 12 11  2  0
 13 14  1  0
 15 14  1  0
 16 15  1  0
 17 18  1  0
 17 16  1  1
 18 11  1  0
 19 17  1  0
 20 19  1  0
 21 19  2  0
M  END
$$$$
