CCM.pdb
     RDKit          3D

 21 20  0  0  1  0  0  0  0  0999 V2000
    8.0125  -14.2684   17.1783 N   0  0  0  0  0  0  0  0  0  0  0  0
    8.7898  -14.0472   18.3811 C   0  0  1  0  0  0  0  0  0  0  0  0
    8.7513  -12.5918   18.7162 C   0  0  0  0  0  0  0  0  0  0  0  0
    9.7493  -12.3567   20.2313 S   0  0  0  0  0  0  0  0  0  0  0  0
    8.3470  -14.9282   19.4828 C   0  0  0  0  0  0  0  0  0  0  0  0
    7.1149  -15.0258   19.7186 O   0  0  0  0  0  0  0  0  0  0  0  0
    9.2318  -15.6643   20.2833 N   0  0  0  0  0  0  0  0  0  0  0  0
    8.7298  -16.4376   21.4296 C   0  0  1  0  0  0  0  0  0  0  0  0
    9.2760  -17.8574   21.3104 C   0  0  0  0  0  0  0  0  0  0  0  0
    8.7689  -18.8495   22.7099 S   0  0  0  0  0  0  0  0  0  0  0  0
    9.1954  -15.7538   22.6450 C   0  0  0  0  0  0  0  0  0  0  0  0
   10.3718  -15.2752   22.7127 O   0  0  0  0  0  0  0  0  0  0  0  0
    5.6566  -12.1548   25.9042 C   0  0  0  0  0  0  0  0  0  0  0  0
    6.9850  -12.0245   27.1165 S   0  0  0  0  0  0  0  0  0  0  0  0
    8.2179  -13.3057   26.7355 C   0  0  0  0  0  0  0  0  0  0  0  0
    7.9130  -13.9403   25.4023 C   0  0  0  0  0  0  0  0  0  0  0  0
    8.9432  -14.9602   24.9790 C   0  0  2  0  0  0  0  0  0  0  0  0
    8.3658  -15.6009   23.7691 N   0  0  0  0  0  0  0  0  0  0  0  0
    9.0993  -15.9868   26.0390 C   0  0  0  0  0  0  0  0  0  0  0  0
    9.9763  -15.8937   27.0987 O   0  0  0  0  0  0  0  0  0  0  0  0
    8.3829  -17.0471   25.9936 O   0  0  0  0  0  0  0  0  0  0  0  0
  2  1  1  6
  3  2  1  0
  4  3  1  0
  5  2  1  0
  5  6  2  0
  7  5  1  0
  8  7  1  0
  8  9  1  6
 10  9  1  0
 11  8  1  0
 12 11  2  0
 13 14  1  0
 15 14  1  0
 16 15  1  0
 17 18  1  0
 17 16  1  1
 18 11  1  0
 19 17  1  0
 20 19  1  0
 21 19  2  0
M  END
$$$$
