CCM.pdb
     RDKit          3D

 21 20  0  0  1  0  0  0  0  0999 V2000
    7.7503  -13.6495   18.0026 N   0  0  0  0  0  0  0  0  0  0  0  0
    8.5946  -14.5431   18.7696 C   0  0  1  0  0  0  0  0  0  0  0  0
    9.8932  -13.8576   19.0450 C   0  0  0  0  0  0  0  0  0  0  0  0
    9.5270  -12.3992   20.0871 S   0  0  0  0  0  0  0  0  0  0  0  0
    7.9056  -15.0325   19.9827 C   0  0  0  0  0  0  0  0  0  0  0  0
    6.8972  -14.4049   20.3980 O   0  0  0  0  0  0  0  0  0  0  0  0
    8.3186  -16.1647   20.6991 N   0  0  0  0  0  0  0  0  0  0  0  0
    7.5885  -16.5900   21.9032 C   0  0  1  0  0  0  0  0  0  0  0  0
    7.6635  -18.1120   21.9819 C   0  0  0  0  0  0  0  0  0  0  0  0
    9.2985  -18.6396   22.4804 S   0  0  0  0  0  0  0  0  0  0  0  0
    8.2332  -15.9330   23.0498 C   0  0  0  0  0  0  0  0  0  0  0  0
    9.4461  -15.5559   22.9866 O   0  0  0  0  0  0  0  0  0  0  0  0
    6.1103  -10.8839   25.9945 C   0  0  0  0  0  0  0  0  0  0  0  0
    6.4736  -11.8849   27.4496 S   0  0  0  0  0  0  0  0  0  0  0  0
    7.7209  -13.1221   26.9804 C   0  0  0  0  0  0  0  0  0  0  0  0
    7.2415  -13.9193   25.7938 C   0  0  0  0  0  0  0  0  0  0  0  0
    8.2431  -14.9468   25.3232 C   0  0  2  0  0  0  0  0  0  0  0  0
    7.5402  -15.6955   24.2492 N   0  0  0  0  0  0  0  0  0  0  0  0
    8.5630  -15.8811   26.4307 C   0  0  0  0  0  0  0  0  0  0  0  0
    9.4873  -15.6342   27.4234 O   0  0  0  0  0  0  0  0  0  0  0  0
    7.9545  -17.0057   26.4962 O   0  0  0  0  0  0  0  0  0  0  0  0
  2  1  1  1
  3  2  1  0
  4  3  1  0
  5  2  1  0
  5  6  2  0
  7  5  1  0
  8  7  1  0
  8  9  1  1
 10  9  1  0
 11  8  1  0
 12 11  2  0
 13 14  1  0
 15 14  1  0
 16 15  1  0
 17 18  1  0
 17 16  1  1
 18 11  1  0
 19 17  1  0
 20 19  1  0
 21 19  2  0
M  END
$$$$
