CCM.pdb
     RDKit          3D

 21 20  0  0  1  0  0  0  0  0999 V2000
    7.7507  -15.2308   17.9655 N   0  0  0  0  0  0  0  0  0  0  0  0
    8.2448  -14.5621   19.1522 C   0  0  1  0  0  0  0  0  0  0  0  0
    7.6279  -13.2035   19.2290 C   0  0  0  0  0  0  0  0  0  0  0  0
    8.7502  -12.0476   18.3622 S   0  0  0  0  0  0  0  0  0  0  0  0
    8.0383  -15.3839   20.3638 C   0  0  0  0  0  0  0  0  0  0  0  0
    6.8637  -15.7026   20.6831 O   0  0  0  0  0  0  0  0  0  0  0  0
    9.0874  -15.8291   21.1803 N   0  0  0  0  0  0  0  0  0  0  0  0
    8.8027  -16.5681   22.4200 C   0  0  1  0  0  0  0  0  0  0  0  0
    9.6256  -17.8529   22.3975 C   0  0  0  0  0  0  0  0  0  0  0  0
    9.6468  -18.6186   24.0140 S   0  0  0  0  0  0  0  0  0  0  0  0
    9.1651  -15.6851   23.5383 C   0  0  0  0  0  0  0  0  0  0  0  0
   10.3241  -15.1662   23.6090 O   0  0  0  0  0  0  0  0  0  0  0  0
    5.7873  -11.1914   26.1718 C   0  0  0  0  0  0  0  0  0  0  0  0
    6.3267  -11.8993   27.7400 S   0  0  0  0  0  0  0  0  0  0  0  0
    7.7488  -12.9821   27.4054 C   0  0  0  0  0  0  0  0  0  0  0  0
    7.5321  -13.7429   26.1219 C   0  0  0  0  0  0  0  0  0  0  0  0
    8.7338  -14.5549   25.7011 C   0  0  2  0  0  0  0  0  0  0  0  0
    8.2527  -15.3800   24.5629 N   0  0  0  0  0  0  0  0  0  0  0  0
    9.1451  -15.4544   26.8073 C   0  0  0  0  0  0  0  0  0  0  0  0
    8.9795  -16.8231   26.8085 O   0  0  0  0  0  0  0  0  0  0  0  0
    9.6952  -14.9537   27.8494 O   0  0  0  0  0  0  0  0  0  0  0  0
  2  1  1  6
  3  2  1  0
  4  3  1  0
  5  2  1  0
  5  6  2  0
  7  5  1  0
  8  7  1  0
  8  9  1  6
 10  9  1  0
 11  8  1  0
 12 11  2  0
 13 14  1  0
 15 14  1  0
 16 15  1  0
 17 18  1  0
 17 16  1  1
 18 11  1  0
 19 17  1  0
 20 19  1  0
 21 19  2  0
M  END
$$$$
