SPV.pdb
     RDKit          3D

 21 21  0  0  1  0  0  0  0  0999 V2000
    9.8960  -18.8692   22.2077 O   0  0  0  0  0  0  0  0  0  0  0  0
   11.0615  -18.4012   21.6410 C   0  0  0  0  0  0  0  0  0  0  0  0
   10.6638  -17.2894   20.6533 C   0  0  2  0  0  0  0  0  0  0  0  0
   11.7933  -16.8450   19.9085 N   0  0  0  0  0  0  0  0  0  0  0  0
   10.0116  -16.1853   21.3701 C   0  0  0  0  0  0  0  0  0  0  0  0
   10.7536  -15.5659   22.2105 O   0  0  0  0  0  0  0  0  0  0  0  0
    8.6408  -15.8283   21.1444 N   0  0  0  0  0  0  0  0  0  0  0  0
    7.8593  -16.3162   20.0288 C   0  0  0  0  0  0  0  0  0  0  0  0
    6.4784  -15.7639   20.2216 C   0  0  0  0  0  0  0  0  0  0  0  0
    6.4046  -15.3844   21.6777 C   0  0  0  0  0  0  0  0  0  0  0  0
    7.8282  -14.9392   21.9191 C   0  0  1  0  0  0  0  0  0  0  0  0
    8.1170  -14.8588   23.3563 C   0  0  0  0  0  0  0  0  0  0  0  0
    8.7615  -15.7535   23.9184 O   0  0  0  0  0  0  0  0  0  0  0  0
    7.6507  -12.2472   27.5727 C   0  0  0  0  0  0  0  0  0  0  0  0
    7.2051  -12.4342   26.1235 C   0  0  2  0  0  0  0  0  0  0  0  0
    5.7043  -12.4598   26.0985 C   0  0  0  0  0  0  0  0  0  0  0  0
    7.8379  -13.7021   25.6007 C   0  0  2  0  0  0  0  0  0  0  0  0
    7.6772  -13.7583   24.1677 N   0  0  0  0  0  0  0  0  0  0  0  0
    7.3410  -14.9261   26.2719 C   0  0  0  0  0  0  0  0  0  0  0  0
    6.3062  -15.4828   25.8438 O   0  0  0  0  0  0  0  0  0  0  0  0
    7.9757  -15.4826   27.3570 O   0  0  0  0  0  0  0  0  0  0  0  0
  2  1  1  0
  2  3  1  0
  3  4  1  1
  5  3  1  0
  6  5  2  0
  7  5  1  0
  8  7  1  0
  9  8  1  0
 10  9  1  0
 10 11  1  0
 11  7  1  0
 11 12  1  1
 12 18  1  0
 13 12  2  0
 15 14  1  1
 15 16  1  0
 17 15  1  0
 17 18  1  6
 19 17  1  0
 19 21  1  0
 20 19  2  0
M  END
$$$$
