SPV.pdb
     RDKit          3D

 21 21  0  0  1  0  0  0  0  0999 V2000
    9.5597  -18.5934   17.0505 O   0  0  0  0  0  0  0  0  0  0  0  0
    8.5993  -17.6085   16.9714 C   0  0  0  0  0  0  0  0  0  0  0  0
    9.3403  -16.2592   16.9814 C   0  0  2  0  0  0  0  0  0  0  0  0
   10.6062  -16.3712   16.3388 N   0  0  0  0  0  0  0  0  0  0  0  0
    9.4670  -15.7617   18.3578 C   0  0  0  0  0  0  0  0  0  0  0  0
   10.3091  -16.3901   19.0903 O   0  0  0  0  0  0  0  0  0  0  0  0
    8.7006  -14.6517   18.8456 N   0  0  0  0  0  0  0  0  0  0  0  0
    8.0759  -13.6701   17.9855 C   0  0  0  0  0  0  0  0  0  0  0  0
    7.3218  -12.7469   18.8954 C   0  0  0  0  0  0  0  0  0  0  0  0
    7.1525  -13.5119   20.1821 C   0  0  0  0  0  0  0  0  0  0  0  0
    8.4439  -14.2958   20.2088 C   0  0  1  0  0  0  0  0  0  0  0  0
    8.3713  -15.3953   21.1791 C   0  0  0  0  0  0  0  0  0  0  0  0
    7.7666  -16.4389   20.9016 O   0  0  0  0  0  0  0  0  0  0  0  0
   10.4864  -15.1635   24.9295 C   0  0  0  0  0  0  0  0  0  0  0  0
   10.3036  -16.4581   24.1391 C   0  0  2  0  0  0  0  0  0  0  0  0
   11.4661  -16.5969   23.1996 C   0  0  0  0  0  0  0  0  0  0  0  0
    8.9672  -16.3922   23.4384 C   0  0  2  0  0  0  0  0  0  0  0  0
    8.9881  -15.3188   22.4740 N   0  0  0  0  0  0  0  0  0  0  0  0
    7.8200  -16.2899   24.3706 C   0  0  0  0  0  0  0  0  0  0  0  0
    7.1846  -15.2153   24.4451 O   0  0  0  0  0  0  0  0  0  0  0  0
    7.4193  -17.3372   25.1659 O   0  0  0  0  0  0  0  0  0  0  0  0
  2  1  1  0
  2  3  1  0
  3  4  1  1
  5  3  1  0
  6  5  2  0
  7  5  1  0
  8  7  1  0
  9  8  1  0
 10  9  1  0
 10 11  1  0
 11  7  1  0
 11 12  1  1
 12 18  1  0
 13 12  2  0
 15 14  1  6
 15 16  1  0
 17 15  1  0
 17 18  1  6
 19 17  1  0
 19 21  1  0
 20 19  2  0
M  END
$$$$
