SPV.pdb
     RDKit          3D

 21 21  0  0  1  0  0  0  0  0999 V2000
    7.3278  -18.6157   18.6834 O   0  0  0  0  0  0  0  0  0  0  0  0
    6.7582  -17.5794   17.9761 C   0  0  0  0  0  0  0  0  0  0  0  0
    7.9042  -16.6413   17.5559 C   0  0  2  0  0  0  0  0  0  0  0  0
    8.7807  -17.2904   16.6403 N   0  0  0  0  0  0  0  0  0  0  0  0
    8.6175  -16.1508   18.7428 C   0  0  0  0  0  0  0  0  0  0  0  0
    9.4904  -16.9538   19.2260 O   0  0  0  0  0  0  0  0  0  0  0  0
    8.3531  -14.8640   19.3188 N   0  0  0  0  0  0  0  0  0  0  0  0
    7.6446  -13.8078   18.6289 C   0  0  0  0  0  0  0  0  0  0  0  0
    7.5245  -12.6826   19.6130 C   0  0  0  0  0  0  0  0  0  0  0  0
    7.7403  -13.3143   20.9636 C   0  0  0  0  0  0  0  0  0  0  0  0
    8.7465  -14.3846   20.6097 C   0  0  1  0  0  0  0  0  0  0  0  0
    8.8537  -15.3805   21.6830 C   0  0  0  0  0  0  0  0  0  0  0  0
    7.8440  -15.9553   22.1096 O   0  0  0  0  0  0  0  0  0  0  0  0
   12.1944  -17.6989   22.3045 C   0  0  0  0  0  0  0  0  0  0  0  0
   10.8005  -17.9651   22.8700 C   0  0  2  0  0  0  0  0  0  0  0  0
    9.9688  -18.5835   21.7839 C   0  0  0  0  0  0  0  0  0  0  0  0
   10.2467  -16.6564   23.3816 C   0  0  2  0  0  0  0  0  0  0  0  0
   10.1113  -15.7339   22.2800 N   0  0  0  0  0  0  0  0  0  0  0  0
   11.0306  -16.0852   24.5018 C   0  0  0  0  0  0  0  0  0  0  0  0
   11.0128  -16.6545   25.6152 O   0  0  0  0  0  0  0  0  0  0  0  0
   11.7853  -14.9439   24.3684 O   0  0  0  0  0  0  0  0  0  0  0  0
  2  1  1  0
  2  3  1  0
  3  4  1  6
  5  3  1  0
  6  5  2  0
  7  5  1  0
  8  7  1  0
  9  8  1  0
 10  9  1  0
 10 11  1  0
 11  7  1  0
 11 12  1  1
 12 18  1  0
 13 12  2  0
 15 14  1  6
 15 16  1  0
 17 15  1  0
 17 18  1  6
 19 17  1  0
 19 21  1  0
 20 19  2  0
M  END
$$$$
