SPV.pdb
     RDKit          3D

 21 21  0  0  1  0  0  0  0  0999 V2000
    9.4687  -18.7262   21.9420 O   0  0  0  0  0  0  0  0  0  0  0  0
   10.4218  -18.4333   20.9909 C   0  0  0  0  0  0  0  0  0  0  0  0
   10.3655  -16.9132   20.7544 C   0  0  2  0  0  0  0  0  0  0  0  0
   11.4882  -16.4764   19.9949 N   0  0  0  0  0  0  0  0  0  0  0  0
   10.2633  -16.2049   22.0373 C   0  0  0  0  0  0  0  0  0  0  0  0
   11.3450  -16.1549   22.7213 O   0  0  0  0  0  0  0  0  0  0  0  0
    9.0380  -15.6129   22.4908 N   0  0  0  0  0  0  0  0  0  0  0  0
    7.8809  -15.4185   21.6442 C   0  0  0  0  0  0  0  0  0  0  0  0
    6.8135  -14.8502   22.5311 C   0  0  0  0  0  0  0  0  0  0  0  0
    7.2436  -15.1902   23.9343 C   0  0  0  0  0  0  0  0  0  0  0  0
    8.7450  -15.0945   23.7933 C   0  0  1  0  0  0  0  0  0  0  0  0
    9.4212  -15.7332   24.9291 C   0  0  0  0  0  0  0  0  0  0  0  0
    9.8106  -16.9054   24.8500 O   0  0  0  0  0  0  0  0  0  0  0  0
    9.2431  -14.2189   29.0111 C   0  0  0  0  0  0  0  0  0  0  0  0
   10.5704  -14.5850   28.3491 C   0  0  2  0  0  0  0  0  0  0  0  0
   11.1661  -13.3311   27.7778 C   0  0  0  0  0  0  0  0  0  0  0  0
   10.2969  -15.6487   27.3123 C   0  0  2  0  0  0  0  0  0  0  0  0
    9.6630  -15.0436   26.1656 N   0  0  0  0  0  0  0  0  0  0  0  0
    9.5264  -16.7989   27.8405 C   0  0  0  0  0  0  0  0  0  0  0  0
    8.3186  -16.9180   27.5389 O   0  0  0  0  0  0  0  0  0  0  0  0
   10.0885  -17.7517   28.6567 O   0  0  0  0  0  0  0  0  0  0  0  0
  2  1  1  0
  2  3  1  0
  3  4  1  1
  5  3  1  0
  6  5  2  0
  7  5  1  0
  8  7  1  0
  9  8  1  0
 10  9  1  0
 10 11  1  0
 11  7  1  0
 11 12  1  1
 12 18  1  0
 13 12  2  0
 15 14  1  6
 15 16  1  0
 17 15  1  0
 17 18  1  6
 19 17  1  0
 19 21  1  0
 20 19  2  0
M  END
$$$$
