SPV.pdb
     RDKit          3D

 21 21  0  0  1  0  0  0  0  0999 V2000
   10.4642  -18.5219   22.7830 O   0  0  0  0  0  0  0  0  0  0  0  0
   10.1533  -18.3765   21.4486 C   0  0  0  0  0  0  0  0  0  0  0  0
   10.6835  -16.9984   21.0131 C   0  0  2  0  0  0  0  0  0  0  0  0
   12.1066  -16.9664   21.0549 N   0  0  0  0  0  0  0  0  0  0  0  0
   10.0875  -15.9420   21.8418 C   0  0  0  0  0  0  0  0  0  0  0  0
   10.7500  -15.6338   22.8937 O   0  0  0  0  0  0  0  0  0  0  0  0
    8.8507  -15.3028   21.4965 N   0  0  0  0  0  0  0  0  0  0  0  0
    8.2774  -15.3320   20.1684 C   0  0  0  0  0  0  0  0  0  0  0  0
    6.9633  -14.6169   20.2721 C   0  0  0  0  0  0  0  0  0  0  0  0
    6.6210  -14.6305   21.7392 C   0  0  0  0  0  0  0  0  0  0  0  0
    8.0009  -14.5227   22.3453 C   0  0  1  0  0  0  0  0  0  0  0  0
    7.9786  -14.8785   23.7694 C   0  0  0  0  0  0  0  0  0  0  0  0
    8.1977  -16.0422   24.1295 O   0  0  0  0  0  0  0  0  0  0  0  0
    5.6512  -12.7907   26.6048 C   0  0  0  0  0  0  0  0  0  0  0  0
    7.1187  -13.0262   26.9583 C   0  0  2  0  0  0  0  0  0  0  0  0
    7.8828  -11.7775   26.6260 C   0  0  0  0  0  0  0  0  0  0  0  0
    7.5924  -14.2425   26.1984 C   0  0  2  0  0  0  0  0  0  0  0  0
    7.7089  -13.9131   24.7982 N   0  0  0  0  0  0  0  0  0  0  0  0
    6.7524  -15.4415   26.4273 C   0  0  0  0  0  0  0  0  0  0  0  0
    5.8074  -15.6863   25.6454 O   0  0  0  0  0  0  0  0  0  0  0  0
    6.9696  -16.3063   27.4736 O   0  0  0  0  0  0  0  0  0  0  0  0
  2  1  1  0
  2  3  1  0
  3  4  1  1
  5  3  1  0
  6  5  2  0
  7  5  1  0
  8  7  1  0
  9  8  1  0
 10  9  1  0
 10 11  1  0
 11  7  1  0
 11 12  1  1
 12 18  1  0
 13 12  2  0
 15 14  1  6
 15 16  1  0
 17 15  1  0
 17 18  1  6
 19 17  1  0
 19 21  1  0
 20 19  2  0
M  END
$$$$
