SPV.pdb
     RDKit          3D

 21 21  0  0  1  0  0  0  0  0999 V2000
    9.8974  -18.7568   22.1495 O   0  0  0  0  0  0  0  0  0  0  0  0
   10.8706  -18.4256   21.2320 C   0  0  0  0  0  0  0  0  0  0  0  0
   10.6804  -16.9354   20.8962 C   0  0  2  0  0  0  0  0  0  0  0  0
   11.7673  -16.4489   20.1151 N   0  0  0  0  0  0  0  0  0  0  0  0
   10.5011  -16.1576   22.1294 C   0  0  0  0  0  0  0  0  0  0  0  0
   11.5675  -15.9608   22.8109 O   0  0  0  0  0  0  0  0  0  0  0  0
    9.2217  -15.6559   22.5403 N   0  0  0  0  0  0  0  0  0  0  0  0
    8.0882  -15.5273   21.6502 C   0  0  0  0  0  0  0  0  0  0  0  0
    6.9508  -15.0449   22.5002 C   0  0  0  0  0  0  0  0  0  0  0  0
    7.3475  -15.3755   23.9155 C   0  0  0  0  0  0  0  0  0  0  0  0
    8.8433  -15.1773   23.8360 C   0  0  1  0  0  0  0  0  0  0  0  0
    9.5161  -15.7856   24.9904 C   0  0  0  0  0  0  0  0  0  0  0  0
    9.9229  -16.9532   24.9368 O   0  0  0  0  0  0  0  0  0  0  0  0
    9.0382  -14.4001   29.0462 C   0  0  0  0  0  0  0  0  0  0  0  0
   10.4392  -14.6043   28.4723 C   0  0  2  0  0  0  0  0  0  0  0  0
   10.9397  -13.2755   27.9849 C   0  0  0  0  0  0  0  0  0  0  0  0
   10.3506  -15.6499   27.3860 C   0  0  2  0  0  0  0  0  0  0  0  0
    9.7346  -15.0703   26.2167 N   0  0  0  0  0  0  0  0  0  0  0  0
    9.6730  -16.8934   27.8221 C   0  0  0  0  0  0  0  0  0  0  0  0
    8.5077  -17.1257   27.4319 O   0  0  0  0  0  0  0  0  0  0  0  0
   10.2769  -17.8132   28.6462 O   0  0  0  0  0  0  0  0  0  0  0  0
  2  1  1  0
  2  3  1  0
  3  4  1  1
  5  3  1  0
  6  5  2  0
  7  5  1  0
  8  7  1  0
  9  8  1  0
 10  9  1  0
 10 11  1  0
 11  7  1  0
 11 12  1  1
 12 18  1  0
 13 12  2  0
 15 14  1  6
 15 16  1  0
 17 15  1  0
 17 18  1  6
 19 17  1  0
 19 21  1  0
 20 19  2  0
M  END
$$$$
