SPV.pdb
     RDKit          3D

 21 21  0  0  1  0  0  0  0  0999 V2000
   10.8354  -18.9009   21.6868 O   0  0  0  0  0  0  0  0  0  0  0  0
    9.8498  -18.4101   20.8583 C   0  0  0  0  0  0  0  0  0  0  0  0
   10.2464  -16.9671   20.4971 C   0  0  2  0  0  0  0  0  0  0  0  0
   11.5639  -16.9232   19.9584 N   0  0  0  0  0  0  0  0  0  0  0  0
   10.1054  -16.0948   21.6707 C   0  0  0  0  0  0  0  0  0  0  0  0
   11.1771  -15.9128   22.3479 O   0  0  0  0  0  0  0  0  0  0  0  0
    8.8551  -15.4914   22.0317 N   0  0  0  0  0  0  0  0  0  0  0  0
    7.7288  -15.3816   21.1301 C   0  0  0  0  0  0  0  0  0  0  0  0
    6.6201  -14.7662   21.9306 C   0  0  0  0  0  0  0  0  0  0  0  0
    7.0007  -14.9915   23.3708 C   0  0  0  0  0  0  0  0  0  0  0  0
    8.5048  -14.8809   23.2789 C   0  0  1  0  0  0  0  0  0  0  0  0
    9.1460  -15.4200   24.4846 C   0  0  0  0  0  0  0  0  0  0  0  0
    9.4793  -16.6107   24.5397 O   0  0  0  0  0  0  0  0  0  0  0  0
   10.9535  -14.5020   29.0438 C   0  0  0  0  0  0  0  0  0  0  0  0
   10.2433  -13.9583   27.8053 C   0  0  2  0  0  0  0  0  0  0  0  0
    8.9452  -13.3459   28.2454 C   0  0  0  0  0  0  0  0  0  0  0  0
   10.0713  -15.0972   26.8283 C   0  0  2  0  0  0  0  0  0  0  0  0
    9.4161  -14.6090   25.6388 N   0  0  0  0  0  0  0  0  0  0  0  0
    9.3800  -16.2711   27.4110 C   0  0  0  0  0  0  0  0  0  0  0  0
    8.1517  -16.4144   27.2238 O   0  0  0  0  0  0  0  0  0  0  0  0
   10.0378  -17.2204   28.1567 O   0  0  0  0  0  0  0  0  0  0  0  0
  2  1  1  0
  2  3  1  0
  3  4  1  1
  5  3  1  0
  6  5  2  0
  7  5  1  0
  8  7  1  0
  9  8  1  0
 10  9  1  0
 10 11  1  0
 11  7  1  0
 11 12  1  1
 12 18  1  0
 13 12  2  0
 15 14  1  1
 15 16  1  0
 17 15  1  0
 17 18  1  6
 19 17  1  0
 19 21  1  0
 20 19  2  0
M  END
$$$$
