SPV.pdb
     RDKit          3D

 21 21  0  0  1  0  0  0  0  0999 V2000
    8.8371  -17.6892   16.3315 O   0  0  0  0  0  0  0  0  0  0  0  0
    8.0349  -16.6092   16.0336 C   0  0  0  0  0  0  0  0  0  0  0  0
    8.9436  -15.3667   16.0214 C   0  0  2  0  0  0  0  0  0  0  0  0
    9.9972  -15.5184   15.0753 N   0  0  0  0  0  0  0  0  0  0  0  0
    9.4551  -15.1006   17.3726 C   0  0  0  0  0  0  0  0  0  0  0  0
   10.5044  -15.7586   17.6988 O   0  0  0  0  0  0  0  0  0  0  0  0
    8.8224  -14.1705   18.2626 N   0  0  0  0  0  0  0  0  0  0  0  0
    7.8721  -13.1686   17.8307 C   0  0  0  0  0  0  0  0  0  0  0  0
    7.4086  -12.4771   19.0781 C   0  0  0  0  0  0  0  0  0  0  0  0
    7.7445  -13.4226   20.2019 C   0  0  0  0  0  0  0  0  0  0  0  0
    9.0210  -14.0353   19.6744 C   0  0  1  0  0  0  0  0  0  0  0  0
    9.3640  -15.2550   20.4159 C   0  0  0  0  0  0  0  0  0  0  0  0
    8.7384  -16.3051   20.2214 O   0  0  0  0  0  0  0  0  0  0  0  0
   12.7032  -16.8144   20.5917 C   0  0  0  0  0  0  0  0  0  0  0  0
   12.3041  -16.6397   22.0559 C   0  0  2  0  0  0  0  0  0  0  0  0
   12.8085  -17.8294   22.8200 C   0  0  0  0  0  0  0  0  0  0  0  0
   10.8036  -16.4781   22.1145 C   0  0  2  0  0  0  0  0  0  0  0  0
   10.4238  -15.2925   21.3846 N   0  0  0  0  0  0  0  0  0  0  0  0
   10.2658  -16.4864   23.4952 C   0  0  0  0  0  0  0  0  0  0  0  0
    9.9286  -15.4064   24.0281 O   0  0  0  0  0  0  0  0  0  0  0  0
   10.1196  -17.6430   24.2237 O   0  0  0  0  0  0  0  0  0  0  0  0
  2  1  1  0
  2  3  1  0
  3  4  1  6
  5  3  1  0
  6  5  2  0
  7  5  1  0
  8  7  1  0
  9  8  1  0
 10  9  1  0
 10 11  1  0
 11  7  1  0
 11 12  1  1
 12 18  1  0
 13 12  2  0
 15 14  1  6
 15 16  1  0
 17 15  1  0
 17 18  1  1
 19 17  1  0
 19 21  1  0
 20 19  2  0
M  END
$$$$
