SPV.pdb
     RDKit          3D

 21 21  0  0  1  0  0  0  0  0999 V2000
    8.0310  -17.2635   22.2637 O   0  0  0  0  0  0  0  0  0  0  0  0
    7.1132  -16.2478   22.1066 C   0  0  0  0  0  0  0  0  0  0  0  0
    7.9129  -14.9400   21.9649 C   0  0  2  0  0  0  0  0  0  0  0  0
    8.9129  -15.0638   20.9586 N   0  0  0  0  0  0  0  0  0  0  0  0
    8.4856  -14.5542   23.2615 C   0  0  0  0  0  0  0  0  0  0  0  0
    9.7216  -14.8490   23.4221 O   0  0  0  0  0  0  0  0  0  0  0  0
    7.7137  -13.8951   24.2750 N   0  0  0  0  0  0  0  0  0  0  0  0
    6.5023  -13.1521   24.0029 C   0  0  0  0  0  0  0  0  0  0  0  0
    5.9862  -12.7043   25.3378 C   0  0  0  0  0  0  0  0  0  0  0  0
    6.6523  -13.6082   26.3422 C   0  0  0  0  0  0  0  0  0  0  0  0
    7.9929  -13.8184   25.6776 C   0  0  1  0  0  0  0  0  0  0  0  0
    8.7035  -14.9553   26.2757 C   0  0  0  0  0  0  0  0  0  0  0  0
    8.5130  -16.1048   25.8586 O   0  0  0  0  0  0  0  0  0  0  0  0
   10.9736  -14.6553   29.9483 C   0  0  0  0  0  0  0  0  0  0  0  0
   11.5825  -15.2771   28.6927 C   0  0  2  0  0  0  0  0  0  0  0  0
   12.3558  -14.2100   27.9739 C   0  0  0  0  0  0  0  0  0  0  0  0
   10.4593  -15.8640   27.8710 C   0  0  2  0  0  0  0  0  0  0  0  0
    9.6397  -14.7951   27.3532 N   0  0  0  0  0  0  0  0  0  0  0  0
    9.6655  -16.8793   28.6023 C   0  0  0  0  0  0  0  0  0  0  0  0
    8.5011  -16.6022   28.9649 O   0  0  0  0  0  0  0  0  0  0  0  0
   10.1592  -18.1267   28.9025 O   0  0  0  0  0  0  0  0  0  0  0  0
  2  1  1  0
  2  3  1  0
  3  4  1  6
  5  3  1  0
  6  5  2  0
  7  5  1  0
  8  7  1  0
  9  8  1  0
 10  9  1  0
 10 11  1  0
 11  7  1  0
 11 12  1  1
 12 18  1  0
 13 12  2  0
 15 14  1  1
 15 16  1  0
 17 15  1  0
 17 18  1  1
 19 17  1  0
 19 21  1  0
 20 19  2  0
M  END
$$$$
