SPV.pdb
     RDKit          3D

 21 21  0  0  1  0  0  0  0  0999 V2000
   11.8936  -18.5476   22.2420 O   0  0  0  0  0  0  0  0  0  0  0  0
   10.6111  -18.3451   21.7806 C   0  0  0  0  0  0  0  0  0  0  0  0
   10.6752  -17.1783   20.7785 C   0  0  2  0  0  0  0  0  0  0  0  0
   12.0235  -16.8884   20.4234 N   0  0  0  0  0  0  0  0  0  0  0  0
    9.9883  -16.0015   21.3275 C   0  0  0  0  0  0  0  0  0  0  0  0
   10.7334  -15.1890   21.9795 O   0  0  0  0  0  0  0  0  0  0  0  0
    8.5827  -15.7801   21.1461 N   0  0  0  0  0  0  0  0  0  0  0  0
    7.8207  -16.3300   20.0460 C   0  0  0  0  0  0  0  0  0  0  0  0
    6.3982  -15.9204   20.2861 C   0  0  0  0  0  0  0  0  0  0  0  0
    6.3303  -15.5677   21.7492 C   0  0  0  0  0  0  0  0  0  0  0  0
    7.7093  -14.9858   21.9568 C   0  0  1  0  0  0  0  0  0  0  0  0
    8.0313  -14.8943   23.3862 C   0  0  0  0  0  0  0  0  0  0  0  0
    8.6440  -15.8090   23.9518 O   0  0  0  0  0  0  0  0  0  0  0  0
    7.6364  -12.2259   27.5788 C   0  0  0  0  0  0  0  0  0  0  0  0
    7.1513  -12.4619   26.1495 C   0  0  2  0  0  0  0  0  0  0  0  0
    5.6566  -12.5972   26.1826 C   0  0  0  0  0  0  0  0  0  0  0  0
    7.8552  -13.6862   25.6139 C   0  0  2  0  0  0  0  0  0  0  0  0
    7.6612  -13.7600   24.1858 N   0  0  0  0  0  0  0  0  0  0  0  0
    7.4607  -14.9380   26.3017 C   0  0  0  0  0  0  0  0  0  0  0  0
    6.4410  -15.5526   25.9188 O   0  0  0  0  0  0  0  0  0  0  0  0
    8.1753  -15.4589   27.3542 O   0  0  0  0  0  0  0  0  0  0  0  0
  2  1  1  0
  2  3  1  0
  3  4  1  1
  5  3  1  0
  6  5  2  0
  7  5  1  0
  8  7  1  0
  9  8  1  0
 10  9  1  0
 10 11  1  0
 11  7  1  0
 11 12  1  1
 12 18  1  0
 13 12  2  0
 15 14  1  1
 15 16  1  0
 17 15  1  0
 17 18  1  6
 19 17  1  0
 19 21  1  0
 20 19  2  0
M  END
$$$$
