WMK.pdb
     RDKit          3D

 32 33  0  0  1  0  0  0  0  0999 V2000
    6.4603  -17.9922   25.5674 N   0  0  0  0  0  0  0  0  0  0  0  0
    6.9174  -16.6694   25.1418 C   0  0  1  0  0  0  0  0  0  0  0  0
    8.1865  -16.3846   25.9403 C   0  0  0  0  0  0  0  0  0  0  0  0
    7.8561  -15.4508   27.0381 C   0  0  0  0  0  0  0  0  0  0  0  0
    7.6751  -15.6962   28.3884 C   0  0  0  0  0  0  0  0  0  0  0  0
    7.3848  -14.5388   29.0118 N   0  0  0  0  0  0  0  0  0  0  0  0
    7.3660  -13.5282   28.1235 C   0  0  0  0  0  0  0  0  0  0  0  0
    7.1206  -12.1853   28.2907 C   0  0  0  0  0  0  0  0  0  0  0  0
    7.1709  -11.3610   27.1669 C   0  0  0  0  0  0  0  0  0  0  0  0
    7.4605  -11.9034   25.9369 C   0  0  0  0  0  0  0  0  0  0  0  0
    7.6992  -13.2399   25.8035 C   0  0  0  0  0  0  0  0  0  0  0  0
    7.6591  -14.0928   26.8936 C   0  0  0  0  0  0  0  0  0  0  0  0
    7.1994  -16.7126   23.6886 C   0  0  0  0  0  0  0  0  0  0  0  0
    7.5663  -17.7955   23.1507 O   0  0  0  0  0  0  0  0  0  0  0  0
    8.2436  -12.3573   17.0727 C   0  0  0  0  0  0  0  0  0  0  0  0
    7.6297  -12.4517   18.7796 S   0  0  0  0  0  0  0  0  0  0  0  0
    8.0256  -14.1093   19.4898 C   0  0  0  0  0  0  0  0  0  0  0  0
    7.4309  -14.2110   20.8671 C   0  0  0  0  0  0  0  0  0  0  0  0
    7.6852  -15.5323   21.5185 C   0  0  2  0  0  0  0  0  0  0  0  0
    7.0750  -15.5706   22.8508 N   0  0  0  0  0  0  0  0  0  0  0  0
    9.1443  -15.8236   21.6559 C   0  0  0  0  0  0  0  0  0  0  0  0
    9.7942  -15.3182   22.6216 O   0  0  0  0  0  0  0  0  0  0  0  0
    9.8022  -16.6585   20.7160 N   0  0  0  0  0  0  0  0  0  0  0  0
   11.1853  -16.9861   20.8983 C   0  0  1  0  0  0  0  0  0  0  0  0
   11.4223  -18.4576   21.0325 C   0  0  0  0  0  0  0  0  0  0  0  0
   12.8063  -18.9327   21.0924 C   0  0  0  0  0  0  0  0  0  0  0  0
   13.1018  -20.3723   21.1755 C   0  0  0  0  0  0  0  0  0  0  0  0
   14.5263  -20.7714   21.3517 C   0  0  0  0  0  0  0  0  0  0  0  0
   14.6919  -22.2306   21.3025 N   0  0  0  0  0  0  0  0  0  0  0  0
   11.9876  -16.3117   19.8719 C   0  0  0  0  0  0  0  0  0  0  0  0
   11.4756  -16.0566   18.7551 O   0  0  0  0  0  0  0  0  0  0  0  0
   13.2894  -15.9427   20.0933 O   0  0  0  0  0  0  0  0  0  0  0  0
  2  1  1  1
  2 13  1  0
  2  3  1  0
  4  3  1  0
  4  5  2  0
  6  5  1  0
  7 12  2  0
  7  6  1  0
  8  7  1  0
  9 10  1  0
  9  8  2  0
 10 11  2  0
 11 12  1  0
 12  4  1  0
 13 14  2  0
 16 15  1  0
 17 16  1  0
 18 17  1  0
 19 18  1  1
 20 19  1  0
 20 13  1  0
 21 19  1  0
 22 21  2  0
 23 21  1  0
 24 23  1  0
 24 25  1  6
 25 26  1  0
 26 27  1  0
 27 28  1  0
 28 29  1  0
 30 24  1  0
 31 30  2  0
 32 30  1  0
M  END
$$$$
