WMK.pdb
     RDKit          3D

 32 33  0  0  1  0  0  0  0  0999 V2000
    6.0932  -18.5882   23.9878 N   0  0  0  0  0  0  0  0  0  0  0  0
    6.5571  -17.2022   23.9274 C   0  0  1  0  0  0  0  0  0  0  0  0
    7.1662  -16.9012   25.2941 C   0  0  0  0  0  0  0  0  0  0  0  0
    6.4377  -15.7648   25.8976 C   0  0  0  0  0  0  0  0  0  0  0  0
    5.2282  -15.7420   26.5705 C   0  0  0  0  0  0  0  0  0  0  0  0
    4.9550  -14.4776   26.9434 N   0  0  0  0  0  0  0  0  0  0  0  0
    5.9412  -13.6548   26.5425 C   0  0  0  0  0  0  0  0  0  0  0  0
    6.0998  -12.2970   26.6934 C   0  0  0  0  0  0  0  0  0  0  0  0
    7.2459  -11.7042   26.1641 C   0  0  0  0  0  0  0  0  0  0  0  0
    8.1758  -12.4808   25.5137 C   0  0  0  0  0  0  0  0  0  0  0  0
    7.9897  -13.8256   25.3801 C   0  0  0  0  0  0  0  0  0  0  0  0
    6.8661  -14.4532   25.8909 C   0  0  0  0  0  0  0  0  0  0  0  0
    7.5720  -17.0907   22.8545 C   0  0  0  0  0  0  0  0  0  0  0  0
    8.1035  -18.1343   22.3801 O   0  0  0  0  0  0  0  0  0  0  0  0
    9.1072  -11.7771   19.2078 C   0  0  0  0  0  0  0  0  0  0  0  0
    7.4024  -12.3774   19.3886 S   0  0  0  0  0  0  0  0  0  0  0  0
    7.4177  -14.0843   20.0922 C   0  0  0  0  0  0  0  0  0  0  0  0
    8.8164  -14.4278   20.5239 C   0  0  0  0  0  0  0  0  0  0  0  0
    8.9130  -15.7642   21.1870 C   0  0  2  0  0  0  0  0  0  0  0  0
    7.9864  -15.8399   22.3205 N   0  0  0  0  0  0  0  0  0  0  0  0
   10.2932  -16.0517   21.6818 C   0  0  0  0  0  0  0  0  0  0  0  0
   11.2588  -16.0806   20.8588 O   0  0  0  0  0  0  0  0  0  0  0  0
   10.5271  -16.2910   23.0607 N   0  0  0  0  0  0  0  0  0  0  0  0
   11.8285  -16.6953   23.5038 C   0  0  1  0  0  0  0  0  0  0  0  0
   11.8434  -17.1474   24.9303 C   0  0  0  0  0  0  0  0  0  0  0  0
   13.1013  -17.6560   25.4815 C   0  0  0  0  0  0  0  0  0  0  0  0
   13.2025  -18.0233   26.9034 C   0  0  0  0  0  0  0  0  0  0  0  0
   14.5171  -18.5277   27.3899 C   0  0  0  0  0  0  0  0  0  0  0  0
   14.5195  -18.7218   28.8465 N   0  0  0  0  0  0  0  0  0  0  0  0
   12.4025  -17.6400   22.5394 C   0  0  0  0  0  0  0  0  0  0  0  0
   11.7581  -18.6690   22.2227 O   0  0  0  0  0  0  0  0  0  0  0  0
   13.6293  -17.4342   21.9626 O   0  0  0  0  0  0  0  0  0  0  0  0
  2  1  1  1
  2 13  1  0
  2  3  1  0
  4  3  1  0
  4  5  2  0
  6  5  1  0
  7 12  2  0
  7  6  1  0
  8  7  1  0
  9 10  1  0
  9  8  2  0
 10 11  2  0
 11 12  1  0
 12  4  1  0
 13 14  2  0
 16 15  1  0
 17 16  1  0
 18 17  1  0
 19 18  1  1
 20 19  1  0
 20 13  1  0
 21 19  1  0
 22 21  2  0
 23 21  1  0
 24 23  1  0
 24 25  1  1
 25 26  1  0
 26 27  1  0
 27 28  1  0
 28 29  1  0
 30 24  1  0
 31 30  2  0
 32 30  1  0
M  END
$$$$
