WMK.pdb
     RDKit          3D

 32 33  0  0  1  0  0  0  0  0999 V2000
    6.3413  -17.4036   25.0695 N   0  0  0  0  0  0  0  0  0  0  0  0
    7.0348  -16.1404   24.8184 C   0  0  1  0  0  0  0  0  0  0  0  0
    8.2563  -16.1405   25.7335 C   0  0  0  0  0  0  0  0  0  0  0  0
    8.0354  -15.1608   26.8187 C   0  0  0  0  0  0  0  0  0  0  0  0
    8.3058  -15.2593   28.1728 C   0  0  0  0  0  0  0  0  0  0  0  0
    7.9354  -14.1167   28.7807 N   0  0  0  0  0  0  0  0  0  0  0  0
    7.4267  -13.2578   27.8784 C   0  0  0  0  0  0  0  0  0  0  0  0
    6.9252  -11.9858   28.0274 C   0  0  0  0  0  0  0  0  0  0  0  0
    6.4589  -11.3238   26.8919 C   0  0  0  0  0  0  0  0  0  0  0  0
    6.5112  -11.9502   25.6688 C   0  0  0  0  0  0  0  0  0  0  0  0
    7.0144  -13.2129   25.5536 C   0  0  0  0  0  0  0  0  0  0  0  0
    7.4875  -13.9049   26.6557 C   0  0  0  0  0  0  0  0  0  0  0  0
    7.4355  -16.0972   23.3933 C   0  0  0  0  0  0  0  0  0  0  0  0
    7.7661  -17.1628   22.8001 O   0  0  0  0  0  0  0  0  0  0  0  0
    7.9750  -13.4857   16.4118 C   0  0  0  0  0  0  0  0  0  0  0  0
    7.2214  -13.5988   18.0606 S   0  0  0  0  0  0  0  0  0  0  0  0
    8.5157  -13.3443   19.3524 C   0  0  0  0  0  0  0  0  0  0  0  0
    7.8879  -13.4739   20.7125 C   0  0  0  0  0  0  0  0  0  0  0  0
    7.9842  -14.8568   21.2723 C   0  0  2  0  0  0  0  0  0  0  0  0
    7.4671  -14.8896   22.6437 N   0  0  0  0  0  0  0  0  0  0  0  0
    9.3888  -15.3664   21.2821 C   0  0  0  0  0  0  0  0  0  0  0  0
   10.2254  -14.8771   22.1012 O   0  0  0  0  0  0  0  0  0  0  0  0
    9.7883  -16.3896   20.3839 N   0  0  0  0  0  0  0  0  0  0  0  0
   11.1145  -16.9273   20.4596 C   0  0  1  0  0  0  0  0  0  0  0  0
   11.1406  -18.3491   20.9257 C   0  0  0  0  0  0  0  0  0  0  0  0
   11.7906  -18.6461   22.2040 C   0  0  0  0  0  0  0  0  0  0  0  0
   11.8244  -20.0221   22.7260 C   0  0  0  0  0  0  0  0  0  0  0  0
   12.4844  -20.2401   24.0436 C   0  0  0  0  0  0  0  0  0  0  0  0
   12.3118  -21.6208   24.5160 N   0  0  0  0  0  0  0  0  0  0  0  0
   11.8214  -16.6657   19.2011 C   0  0  0  0  0  0  0  0  0  0  0  0
   13.0556  -16.8801   19.1286 O   0  0  0  0  0  0  0  0  0  0  0  0
   11.1739  -16.1942   18.0882 O   0  0  0  0  0  0  0  0  0  0  0  0
  2  1  1  6
  2 13  1  0
  2  3  1  0
  4  3  1  0
  4  5  2  0
  6  5  1  0
  7 12  2  0
  7  6  1  0
  8  7  1  0
  9 10  1  0
  9  8  2  0
 10 11  2  0
 11 12  1  0
 12  4  1  0
 13 14  2  0
 16 15  1  0
 17 16  1  0
 18 17  1  0
 19 18  1  1
 20 19  1  0
 20 13  1  0
 21 19  1  0
 22 21  2  0
 23 21  1  0
 24 23  1  0
 24 25  1  6
 25 26  1  0
 26 27  1  0
 27 28  1  0
 28 29  1  0
 30 24  1  0
 31 30  2  0
 32 30  1  0
M  END
$$$$
