WMK.pdb
     RDKit          3D

 32 33  0  0  1  0  0  0  0  0999 V2000
    8.7146  -17.6848   22.8125 N   0  0  0  0  0  0  0  0  0  0  0  0
    8.9226  -16.2464   22.9785 C   0  0  1  0  0  0  0  0  0  0  0  0
    7.5307  -15.6238   23.0459 C   0  0  0  0  0  0  0  0  0  0  0  0
    7.0937  -15.2906   21.6732 C   0  0  0  0  0  0  0  0  0  0  0  0
    6.2756  -15.9944   20.8062 C   0  0  0  0  0  0  0  0  0  0  0  0
    6.1546  -15.3045   19.6565 N   0  0  0  0  0  0  0  0  0  0  0  0
    6.8642  -14.1634   19.7260 C   0  0  0  0  0  0  0  0  0  0  0  0
    7.0400  -13.1538   18.8088 C   0  0  0  0  0  0  0  0  0  0  0  0
    7.8458  -12.0726   19.1649 C   0  0  0  0  0  0  0  0  0  0  0  0
    8.4362  -12.0431   20.4065 C   0  0  0  0  0  0  0  0  0  0  0  0
    8.2426  -13.0604   21.2945 C   0  0  0  0  0  0  0  0  0  0  0  0
    7.4502  -14.1517   20.9805 C   0  0  0  0  0  0  0  0  0  0  0  0
    9.6702  -16.0198   24.2367 C   0  0  0  0  0  0  0  0  0  0  0  0
    9.9812  -14.8445   24.5809 O   0  0  0  0  0  0  0  0  0  0  0  0
    9.7167  -12.9910   28.2881 C   0  0  0  0  0  0  0  0  0  0  0  0
   10.9962  -14.2264   28.6565 S   0  0  0  0  0  0  0  0  0  0  0  0
   10.2403  -15.9104   28.6906 C   0  0  0  0  0  0  0  0  0  0  0  0
    9.6705  -16.2234   27.3348 C   0  0  0  0  0  0  0  0  0  0  0  0
   10.6739  -16.8216   26.4019 C   0  0  2  0  0  0  0  0  0  0  0  0
   10.0636  -17.0829   25.0949 N   0  0  0  0  0  0  0  0  0  0  0  0
   11.2407  -18.1010   26.9257 C   0  0  0  0  0  0  0  0  0  0  0  0
   11.7914  -18.1189   28.0689 O   0  0  0  0  0  0  0  0  0  0  0  0
   11.1660  -19.2894   26.1540 N   0  0  0  0  0  0  0  0  0  0  0  0
   12.3202  -19.7504   25.4407 C   0  0  1  0  0  0  0  0  0  0  0  0
   12.5630  -18.9920   24.1738 C   0  0  0  0  0  0  0  0  0  0  0  0
   13.7024  -19.3832   23.3409 C   0  0  0  0  0  0  0  0  0  0  0  0
   13.9463  -18.7250   22.0471 C   0  0  0  0  0  0  0  0  0  0  0  0
   15.1152  -19.1910   21.2497 C   0  0  0  0  0  0  0  0  0  0  0  0
   15.3344  -18.3506   20.0644 N   0  0  0  0  0  0  0  0  0  0  0  0
   13.4637  -19.8262   26.3565 C   0  0  0  0  0  0  0  0  0  0  0  0
   13.5284  -19.0396   27.3319 O   0  0  0  0  0  0  0  0  0  0  0  0
   14.4729  -20.7384   26.1849 O   0  0  0  0  0  0  0  0  0  0  0  0
  2  1  1  1
  2 13  1  0
  2  3  1  0
  4  3  1  0
  4  5  2  0
  6  5  1  0
  7 12  2  0
  7  6  1  0
  8  7  1  0
  9 10  1  0
  9  8  2  0
 10 11  2  0
 11 12  1  0
 12  4  1  0
 13 14  2  0
 16 15  1  0
 17 16  1  0
 18 17  1  0
 19 18  1  1
 20 19  1  0
 20 13  1  0
 21 19  1  0
 22 21  2  0
 23 21  1  0
 24 23  1  0
 24 25  1  6
 25 26  1  0
 26 27  1  0
 27 28  1  0
 28 29  1  0
 30 24  1  0
 31 30  2  0
 32 30  1  0
M  END
$$$$
