WMK.pdb
     RDKit          3D

 32 33  0  0  1  0  0  0  0  0999 V2000
    6.4453  -18.1701   25.9690 N   0  0  0  0  0  0  0  0  0  0  0  0
    6.9787  -16.8615   25.5913 C   0  0  1  0  0  0  0  0  0  0  0  0
    8.2742  -16.6903   26.3799 C   0  0  0  0  0  0  0  0  0  0  0  0
    8.1241  -15.5374   27.2934 C   0  0  0  0  0  0  0  0  0  0  0  0
    8.5001  -15.3994   28.6185 C   0  0  0  0  0  0  0  0  0  0  0  0
    8.1615  -14.1690   29.0471 N   0  0  0  0  0  0  0  0  0  0  0  0
    7.5719  -13.4800   28.0530 C   0  0  0  0  0  0  0  0  0  0  0  0
    7.0652  -12.2019   28.0190 C   0  0  0  0  0  0  0  0  0  0  0  0
    6.5027  -11.7472   26.8265 C   0  0  0  0  0  0  0  0  0  0  0  0
    6.4690  -12.5761   25.7299 C   0  0  0  0  0  0  0  0  0  0  0  0
    6.9799  -13.8393   25.7952 C   0  0  0  0  0  0  0  0  0  0  0  0
    7.5471  -14.3293   26.9595 C   0  0  0  0  0  0  0  0  0  0  0  0
    7.2373  -16.8603   24.1331 C   0  0  0  0  0  0  0  0  0  0  0  0
    7.5046  -17.9438   23.5405 O   0  0  0  0  0  0  0  0  0  0  0  0
    8.3123  -12.4280   17.5786 C   0  0  0  0  0  0  0  0  0  0  0  0
    7.6085  -12.5775   19.2464 S   0  0  0  0  0  0  0  0  0  0  0  0
    8.1327  -14.1799   19.9990 C   0  0  0  0  0  0  0  0  0  0  0  0
    7.5291  -14.3019   21.3707 C   0  0  0  0  0  0  0  0  0  0  0  0
    7.8134  -15.6178   22.0205 C   0  0  2  0  0  0  0  0  0  0  0  0
    7.1986  -15.6741   23.3502 N   0  0  0  0  0  0  0  0  0  0  0  0
    9.2787  -15.8730   22.1637 C   0  0  0  0  0  0  0  0  0  0  0  0
    9.9016  -15.3961   23.1612 O   0  0  0  0  0  0  0  0  0  0  0  0
    9.9724  -16.6421   21.1939 N   0  0  0  0  0  0  0  0  0  0  0  0
   11.3119  -17.0792   21.4550 C   0  0  1  0  0  0  0  0  0  0  0  0
   11.5285  -18.5223   21.1235 C   0  0  0  0  0  0  0  0  0  0  0  0
   12.8743  -19.0756   21.2891 C   0  0  0  0  0  0  0  0  0  0  0  0
   13.1569  -20.4773   20.9393 C   0  0  0  0  0  0  0  0  0  0  0  0
   14.5372  -20.9809   21.1851 C   0  0  0  0  0  0  0  0  0  0  0  0
   14.7208  -22.3412   20.6606 N   0  0  0  0  0  0  0  0  0  0  0  0
   12.2606  -16.1442   20.8404 C   0  0  0  0  0  0  0  0  0  0  0  0
   13.2080  -15.6858   21.5236 O   0  0  0  0  0  0  0  0  0  0  0  0
   12.1501  -15.7525   19.5311 O   0  0  0  0  0  0  0  0  0  0  0  0
  2  1  1  1
  2 13  1  0
  2  3  1  0
  4  3  1  0
  4  5  2  0
  6  5  1  0
  7 12  2  0
  7  6  1  0
  8  7  1  0
  9 10  1  0
  9  8  2  0
 10 11  2  0
 11 12  1  0
 12  4  1  0
 13 14  2  0
 16 15  1  0
 17 16  1  0
 18 17  1  0
 19 18  1  1
 20 19  1  0
 20 13  1  0
 21 19  1  0
 22 21  2  0
 23 21  1  0
 24 23  1  0
 24 25  1  6
 25 26  1  0
 26 27  1  0
 27 28  1  0
 28 29  1  0
 30 24  1  0
 31 30  2  0
 32 30  1  0
M  END
$$$$
