WMK.pdb
     RDKit          3D

 32 33  0  0  1  0  0  0  0  0999 V2000
    6.8757  -16.6424   23.5549 N   0  0  0  0  0  0  0  0  0  0  0  0
    7.7993  -17.4259   22.7345 C   0  0  1  0  0  0  0  0  0  0  0  0
    7.5492  -16.9971   21.2913 C   0  0  0  0  0  0  0  0  0  0  0  0
    7.3179  -15.5370   21.2640 C   0  0  0  0  0  0  0  0  0  0  0  0
    6.3700  -14.7754   21.9257 C   0  0  0  0  0  0  0  0  0  0  0  0
    6.5365  -13.4807   21.5964 N   0  0  0  0  0  0  0  0  0  0  0  0
    7.5638  -13.3514   20.7371 C   0  0  0  0  0  0  0  0  0  0  0  0
    8.0995  -12.2378   20.1332 C   0  0  0  0  0  0  0  0  0  0  0  0
    9.1835  -12.4114   19.2731 C   0  0  0  0  0  0  0  0  0  0  0  0
    9.6829  -13.6736   19.0531 C   0  0  0  0  0  0  0  0  0  0  0  0
    9.1294  -14.7588   19.6670 C   0  0  0  0  0  0  0  0  0  0  0  0
    8.0526  -14.6300   20.5280 C   0  0  0  0  0  0  0  0  0  0  0  0
    9.1848  -17.1111   23.1524 C   0  0  0  0  0  0  0  0  0  0  0  0
   10.0711  -18.0112   23.1219 O   0  0  0  0  0  0  0  0  0  0  0  0
    6.6491  -11.8923   26.3430 C   0  0  0  0  0  0  0  0  0  0  0  0
    6.5085  -13.5511   27.0695 S   0  0  0  0  0  0  0  0  0  0  0  0
    8.0834  -14.4782   26.8068 C   0  0  0  0  0  0  0  0  0  0  0  0
    8.2202  -14.8155   25.3480 C   0  0  0  0  0  0  0  0  0  0  0  0
    9.5309  -15.4528   25.0148 C   0  0  2  0  0  0  0  0  0  0  0  0
    9.5751  -15.8178   23.5957 N   0  0  0  0  0  0  0  0  0  0  0  0
    9.7865  -16.6794   25.8289 C   0  0  0  0  0  0  0  0  0  0  0  0
    8.8154  -17.4316   26.1474 O   0  0  0  0  0  0  0  0  0  0  0  0
   11.1036  -17.0045   26.2448 N   0  0  0  0  0  0  0  0  0  0  0  0
   11.3362  -18.1905   27.0147 C   0  0  1  0  0  0  0  0  0  0  0  0
   12.4891  -18.9978   26.5063 C   0  0  0  0  0  0  0  0  0  0  0  0
   12.8766  -20.1967   27.2529 C   0  0  0  0  0  0  0  0  0  0  0  0
   14.0440  -20.9925   26.8397 C   0  0  0  0  0  0  0  0  0  0  0  0
   14.3493  -22.2213   27.6246 C   0  0  0  0  0  0  0  0  0  0  0  0
   14.1376  -23.4398   26.8310 N   0  0  0  0  0  0  0  0  0  0  0  0
   11.3901  -17.8464   28.4397 C   0  0  0  0  0  0  0  0  0  0  0  0
   11.5142  -16.6456   28.7819 O   0  0  0  0  0  0  0  0  0  0  0  0
   11.3048  -18.7999   29.4213 O   0  0  0  0  0  0  0  0  0  0  0  0
  2  1  1  1
  2 13  1  0
  2  3  1  0
  4  3  1  0
  4  5  2  0
  6  5  1  0
  7 12  2  0
  7  6  1  0
  8  7  1  0
  9 10  1  0
  9  8  2  0
 10 11  2  0
 11 12  1  0
 12  4  1  0
 13 14  2  0
 16 15  1  0
 17 16  1  0
 18 17  1  0
 19 18  1  1
 20 19  1  0
 20 13  1  0
 21 19  1  0
 22 21  2  0
 23 21  1  0
 24 23  1  0
 24 25  1  6
 25 26  1  0
 26 27  1  0
 27 28  1  0
 28 29  1  0
 30 24  1  0
 31 30  2  0
 32 30  1  0
M  END
$$$$
