WMK.pdb
     RDKit          3D

 32 33  0  0  1  0  0  0  0  0999 V2000
    8.8842  -20.2642   26.4263 N   0  0  0  0  0  0  0  0  0  0  0  0
    8.9316  -18.8163   26.6284 C   0  0  1  0  0  0  0  0  0  0  0  0
   10.4078  -18.4595   26.7799 C   0  0  0  0  0  0  0  0  0  0  0  0
   10.6003  -17.7807   28.0793 C   0  0  0  0  0  0  0  0  0  0  0  0
   11.0768  -18.2792   29.2797 C   0  0  0  0  0  0  0  0  0  0  0  0
   11.0771  -17.2939   30.1971 N   0  0  0  0  0  0  0  0  0  0  0  0
   10.6170  -16.1539   29.6503 C   0  0  0  0  0  0  0  0  0  0  0  0
   10.4389  -14.9021   30.1914 C   0  0  0  0  0  0  0  0  0  0  0  0
    9.9356  -13.8940   29.3695 C   0  0  0  0  0  0  0  0  0  0  0  0
    9.6340  -14.1725   28.0571 C   0  0  0  0  0  0  0  0  0  0  0  0
    9.8217  -15.4248   27.5496 C   0  0  0  0  0  0  0  0  0  0  0  0
   10.3192  -16.4536   28.3316 C   0  0  0  0  0  0  0  0  0  0  0  0
    8.3416  -18.1547   25.4419 C   0  0  0  0  0  0  0  0  0  0  0  0
    8.1957  -18.8033   24.3673 O   0  0  0  0  0  0  0  0  0  0  0  0
    6.5811  -11.9535   25.4685 C   0  0  0  0  0  0  0  0  0  0  0  0
    5.7045  -12.3917   23.9392 S   0  0  0  0  0  0  0  0  0  0  0  0
    6.1124  -14.1294   23.4673 C   0  0  0  0  0  0  0  0  0  0  0  0
    6.8652  -14.7829   24.5928 C   0  0  0  0  0  0  0  0  0  0  0  0
    7.2557  -16.1947   24.2941 C   0  0  2  0  0  0  0  0  0  0  0  0
    7.9222  -16.7962   25.4529 N   0  0  0  0  0  0  0  0  0  0  0  0
    8.1707  -16.2914   23.1168 C   0  0  0  0  0  0  0  0  0  0  0  0
    7.7153  -16.6932   22.0026 O   0  0  0  0  0  0  0  0  0  0  0  0
    9.5394  -15.9376   23.2394 N   0  0  0  0  0  0  0  0  0  0  0  0
   10.3520  -15.8139   22.0656 C   0  0  1  0  0  0  0  0  0  0  0  0
   10.2400  -14.4690   21.4189 C   0  0  0  0  0  0  0  0  0  0  0  0
    9.1151  -14.2290   20.5123 C   0  0  0  0  0  0  0  0  0  0  0  0
    9.0497  -12.9976   19.7085 C   0  0  0  0  0  0  0  0  0  0  0  0
    9.8264  -12.9657   18.4377 C   0  0  0  0  0  0  0  0  0  0  0  0
    9.1243  -13.6668   17.3538 N   0  0  0  0  0  0  0  0  0  0  0  0
   11.7185  -16.2539   22.3676 C   0  0  0  0  0  0  0  0  0  0  0  0
   12.3571  -15.6978   23.2935 O   0  0  0  0  0  0  0  0  0  0  0  0
   12.3276  -17.2645   21.6693 O   0  0  0  0  0  0  0  0  0  0  0  0
  2  1  1  6
  2 13  1  0
  2  3  1  0
  4  3  1  0
  4  5  2  0
  6  5  1  0
  7 12  2  0
  7  6  1  0
  8  7  1  0
  9 10  1  0
  9  8  2  0
 10 11  2  0
 11 12  1  0
 12  4  1  0
 13 14  2  0
 16 15  1  0
 17 16  1  0
 18 17  1  0
 19 18  1  1
 20 19  1  0
 20 13  1  0
 21 19  1  0
 22 21  2  0
 23 21  1  0
 24 23  1  0
 24 25  1  1
 25 26  1  0
 26 27  1  0
 27 28  1  0
 28 29  1  0
 30 24  1  0
 31 30  2  0
 32 30  1  0
M  END
$$$$
