WMK.pdb
     RDKit          3D

 32 33  0  0  1  0  0  0  0  0999 V2000
    7.2062  -17.7269   26.1081 N   0  0  0  0  0  0  0  0  0  0  0  0
    6.5501  -17.2686   24.8837 C   0  0  1  0  0  0  0  0  0  0  0  0
    5.9994  -15.8796   25.1946 C   0  0  0  0  0  0  0  0  0  0  0  0
    6.9757  -15.1615   26.0416 C   0  0  0  0  0  0  0  0  0  0  0  0
    8.0670  -15.6441   26.7433 C   0  0  0  0  0  0  0  0  0  0  0  0
    8.6701  -14.6217   27.3784 N   0  0  0  0  0  0  0  0  0  0  0  0
    8.0186  -13.4721   27.1247 C   0  0  0  0  0  0  0  0  0  0  0  0
    8.2611  -12.1860   27.5476 C   0  0  0  0  0  0  0  0  0  0  0  0
    7.4015  -11.1766   27.1151 C   0  0  0  0  0  0  0  0  0  0  0  0
    6.3476  -11.4875   26.2883 C   0  0  0  0  0  0  0  0  0  0  0  0
    6.1332  -12.7733   25.8861 C   0  0  0  0  0  0  0  0  0  0  0  0
    6.9629  -13.8046   26.2926 C   0  0  0  0  0  0  0  0  0  0  0  0
    7.5585  -17.2128   23.8005 C   0  0  0  0  0  0  0  0  0  0  0  0
    8.2035  -18.2532   23.4870 O   0  0  0  0  0  0  0  0  0  0  0  0
    7.8761  -11.7172   20.3437 C   0  0  0  0  0  0  0  0  0  0  0  0
    7.1156  -13.1223   19.4796 S   0  0  0  0  0  0  0  0  0  0  0  0
    7.1698  -14.6179   20.5608 C   0  0  0  0  0  0  0  0  0  0  0  0
    8.5570  -14.7729   21.1198 C   0  0  0  0  0  0  0  0  0  0  0  0
    8.7312  -16.0271   21.9145 C   0  0  2  0  0  0  0  0  0  0  0  0
    7.8427  -16.0203   23.0805 N   0  0  0  0  0  0  0  0  0  0  0  0
   10.1367  -16.2050   22.3895 C   0  0  0  0  0  0  0  0  0  0  0  0
   10.5186  -15.6153   23.4463 O   0  0  0  0  0  0  0  0  0  0  0  0
   11.0409  -17.0262   21.6673 N   0  0  0  0  0  0  0  0  0  0  0  0
   12.3768  -17.2131   22.1510 C   0  0  1  0  0  0  0  0  0  0  0  0
   12.7929  -18.6504   22.1712 C   0  0  0  0  0  0  0  0  0  0  0  0
   11.9862  -19.5931   22.9493 C   0  0  0  0  0  0  0  0  0  0  0  0
   12.3347  -21.0227   22.9895 C   0  0  0  0  0  0  0  0  0  0  0  0
   11.4980  -21.9091   23.8459 C   0  0  0  0  0  0  0  0  0  0  0  0
   11.8531  -23.3245   23.6733 N   0  0  0  0  0  0  0  0  0  0  0  0
   13.2857  -16.3059   21.4418 C   0  0  0  0  0  0  0  0  0  0  0  0
   12.9178  -15.7796   20.3638 O   0  0  0  0  0  0  0  0  0  0  0  0
   14.5345  -16.0064   21.9222 O   0  0  0  0  0  0  0  0  0  0  0  0
  2  1  1  1
  2 13  1  0
  2  3  1  0
  4  3  1  0
  4  5  2  0
  6  5  1  0
  7 12  2  0
  7  6  1  0
  8  7  1  0
  9 10  1  0
  9  8  2  0
 10 11  2  0
 11 12  1  0
 12  4  1  0
 13 14  2  0
 16 15  1  0
 17 16  1  0
 18 17  1  0
 19 18  1  1
 20 19  1  0
 20 13  1  0
 21 19  1  0
 22 21  2  0
 23 21  1  0
 24 23  1  0
 24 25  1  6
 25 26  1  0
 26 27  1  0
 27 28  1  0
 28 29  1  0
 30 24  1  0
 31 30  2  0
 32 30  1  0
M  END
$$$$
