WMK.pdb
     RDKit          3D

 32 33  0  0  1  0  0  0  0  0999 V2000
    6.4505  -17.8834   24.7048 N   0  0  0  0  0  0  0  0  0  0  0  0
    7.1437  -16.6392   24.3714 C   0  0  1  0  0  0  0  0  0  0  0  0
    8.0923  -16.3601   25.5341 C   0  0  0  0  0  0  0  0  0  0  0  0
    7.3801  -15.5451   26.5415 C   0  0  0  0  0  0  0  0  0  0  0  0
    6.7370  -15.9332   27.7043 C   0  0  0  0  0  0  0  0  0  0  0  0
    6.2267  -14.8447   28.3102 N   0  0  0  0  0  0  0  0  0  0  0  0
    6.5072  -13.7423   27.5915 C   0  0  0  0  0  0  0  0  0  0  0  0
    6.1972  -12.4203   27.8103 C   0  0  0  0  0  0  0  0  0  0  0  0
    6.6287  -11.4787   26.8764 C   0  0  0  0  0  0  0  0  0  0  0  0
    7.3432  -11.8893   25.7756 C   0  0  0  0  0  0  0  0  0  0  0  0
    7.6349  -13.2084   25.5865 C   0  0  0  0  0  0  0  0  0  0  0  0
    7.2253  -14.1749   26.4895 C   0  0  0  0  0  0  0  0  0  0  0  0
    7.8914  -16.8394   23.1088 C   0  0  0  0  0  0  0  0  0  0  0  0
    8.3275  -17.9873   22.8109 O   0  0  0  0  0  0  0  0  0  0  0  0
    8.4571  -11.5437   19.7024 C   0  0  0  0  0  0  0  0  0  0  0  0
    7.4983  -12.7736   18.7710 S   0  0  0  0  0  0  0  0  0  0  0  0
    7.4156  -14.3498   19.7289 C   0  0  0  0  0  0  0  0  0  0  0  0
    8.8107  -14.7901   20.0763 C   0  0  0  0  0  0  0  0  0  0  0  0
    8.8420  -16.0194   20.9265 C   0  0  2  0  0  0  0  0  0  0  0  0
    8.1483  -15.7804   22.1955 N   0  0  0  0  0  0  0  0  0  0  0  0
   10.2366  -16.4657   21.2243 C   0  0  0  0  0  0  0  0  0  0  0  0
   10.8297  -16.0180   22.2530 O   0  0  0  0  0  0  0  0  0  0  0  0
   10.8965  -17.3829   20.3661 N   0  0  0  0  0  0  0  0  0  0  0  0
   12.2159  -17.8393   20.6890 C   0  0  1  0  0  0  0  0  0  0  0  0
   12.4016  -19.3038   20.4438 C   0  0  0  0  0  0  0  0  0  0  0  0
   13.7500  -19.8609   20.5714 C   0  0  0  0  0  0  0  0  0  0  0  0
   14.0097  -21.2752   20.2565 C   0  0  0  0  0  0  0  0  0  0  0  0
   15.3974  -21.7790   20.4560 C   0  0  0  0  0  0  0  0  0  0  0  0
   15.5223  -23.1929   20.0756 N   0  0  0  0  0  0  0  0  0  0  0  0
   13.2062  -16.9650   20.0512 C   0  0  0  0  0  0  0  0  0  0  0  0
   12.9225  -16.3941   18.9704 O   0  0  0  0  0  0  0  0  0  0  0  0
   14.4422  -16.7439   20.6019 O   0  0  0  0  0  0  0  0  0  0  0  0
  2  1  1  1
  2 13  1  0
  2  3  1  0
  4  3  1  0
  4  5  2  0
  6  5  1  0
  7 12  2  0
  7  6  1  0
  8  7  1  0
  9 10  1  0
  9  8  2  0
 10 11  2  0
 11 12  1  0
 12  4  1  0
 13 14  2  0
 16 15  1  0
 17 16  1  0
 18 17  1  0
 19 18  1  6
 20 19  1  0
 20 13  1  0
 21 19  1  0
 22 21  2  0
 23 21  1  0
 24 23  1  0
 24 25  1  6
 25 26  1  0
 26 27  1  0
 27 28  1  0
 28 29  1  0
 30 24  1  0
 31 30  2  0
 32 30  1  0
M  END
$$$$
