WGH.pdb
     RDKit          3D

 29 31  0  0  1  0  0  0  0  0999 V2000
    7.5745  -17.0870   22.5691 N   0  0  0  0  0  0  0  0  0  0  0  0
    8.1732  -15.8391   21.9736 C   0  0  1  0  0  0  0  0  0  0  0  0
    7.4095  -14.6872   22.5152 C   0  0  0  0  0  0  0  0  0  0  0  0
    7.0320  -14.7652   23.9105 C   0  0  0  0  0  0  0  0  0  0  0  0
    6.6245  -15.7920   24.6920 C   0  0  0  0  0  0  0  0  0  0  0  0
    6.3894  -15.3327   25.9530 N   0  0  0  0  0  0  0  0  0  0  0  0
    6.6345  -14.0185   26.0257 C   0  0  0  0  0  0  0  0  0  0  0  0
    6.5543  -13.0935   27.0749 C   0  0  0  0  0  0  0  0  0  0  0  0
    6.8835  -11.7971   26.8285 C   0  0  0  0  0  0  0  0  0  0  0  0
    7.2867  -11.3811   25.5940 C   0  0  0  0  0  0  0  0  0  0  0  0
    7.3618  -12.3133   24.5608 C   0  0  0  0  0  0  0  0  0  0  0  0
    7.0337  -13.6463   24.7736 C   0  0  0  0  0  0  0  0  0  0  0  0
    9.6196  -15.8457   22.2750 C   0  0  0  0  0  0  0  0  0  0  0  0
   10.4873  -15.3333   21.5154 O   0  0  0  0  0  0  0  0  0  0  0  0
   10.1383  -16.4529   23.4814 N   0  0  0  0  0  0  0  0  0  0  0  0
   11.5540  -16.4464   23.7436 C   0  0  0  0  0  0  0  0  0  0  0  0
   11.9799  -17.0126   25.0211 C   0  0  0  0  0  0  0  0  0  0  0  0
   13.2386  -16.9911   25.2628 O   0  0  0  0  0  0  0  0  0  0  0  0
   11.1261  -17.5638   25.9807 N   0  0  0  0  0  0  0  0  0  0  0  0
   11.1768  -18.9047   26.4984 C   0  0  1  0  0  0  0  0  0  0  0  0
   10.2538  -19.8171   25.7621 C   0  0  0  0  0  0  0  0  0  0  0  0
    8.8719  -19.3484   25.6111 C   0  0  0  0  0  0  0  0  0  0  0  0
    8.1816  -18.5759   26.5215 C   0  0  0  0  0  0  0  0  0  0  0  0
    6.9501  -18.3523   26.0384 N   0  0  0  0  0  0  0  0  0  0  0  0
    6.8730  -18.9656   24.8635 C   0  0  0  0  0  0  0  0  0  0  0  0
    8.0418  -19.5780   24.5918 N   0  0  0  0  0  0  0  0  0  0  0  0
   12.5486  -19.4323   26.6552 C   0  0  0  0  0  0  0  0  0  0  0  0
   13.1764  -19.7273   27.8489 O   0  0  0  0  0  0  0  0  0  0  0  0
   13.2209  -19.6407   25.6103 O   0  0  0  0  0  0  0  0  0  0  0  0
  2  1  1  1
  2 13  1  0
  3  2  1  0
  3  4  1  0
  4 12  1  0
  4  5  2  0
  5  6  1  0
  7  8  2  0
  7  6  1  0
  9  8  1  0
 10  9  2  0
 11 10  1  0
 11 12  2  0
 12  7  1  0
 13 15  1  0
 13 14  2  0
 15 16  1  0
 17 16  1  0
 17 18  2  0
 19 17  1  0
 20 19  1  0
 20 21  1  6
 22 21  1  0
 23 22  2  0
 24 25  1  0
 24 23  1  0
 25 26  2  0
 26 22  1  0
 27 20  1  0
 28 27  1  0
 29 27  2  0
M  END
$$$$
