WGH.pdb
     RDKit          3D

 29 31  0  0  1  0  0  0  0  0999 V2000
    7.8857  -17.5976   23.8050 N   0  0  0  0  0  0  0  0  0  0  0  0
    7.8117  -16.9158   22.4632 C   0  0  1  0  0  0  0  0  0  0  0  0
    6.7581  -15.8747   22.5600 C   0  0  0  0  0  0  0  0  0  0  0  0
    6.5861  -15.2529   23.8559 C   0  0  0  0  0  0  0  0  0  0  0  0
    6.3044  -15.7540   25.0810 C   0  0  0  0  0  0  0  0  0  0  0  0
    6.2492  -14.7343   25.9829 N   0  0  0  0  0  0  0  0  0  0  0  0
    6.4905  -13.5632   25.3807 C   0  0  0  0  0  0  0  0  0  0  0  0
    6.5539  -12.2462   25.8547 C   0  0  0  0  0  0  0  0  0  0  0  0
    6.8327  -11.2484   24.9736 C   0  0  0  0  0  0  0  0  0  0  0  0
    7.0502  -11.4988   23.6508 C   0  0  0  0  0  0  0  0  0  0  0  0
    6.9841  -12.8140   23.1950 C   0  0  0  0  0  0  0  0  0  0  0  0
    6.7020  -13.8601   24.0644 C   0  0  0  0  0  0  0  0  0  0  0  0
    9.1657  -16.4262   22.1317 C   0  0  0  0  0  0  0  0  0  0  0  0
    9.4771  -15.9655   20.9990 O   0  0  0  0  0  0  0  0  0  0  0  0
   10.2370  -16.4473   23.1040 N   0  0  0  0  0  0  0  0  0  0  0  0
   11.5825  -16.1262   22.7050 C   0  0  0  0  0  0  0  0  0  0  0  0
   12.6367  -16.4387   23.6668 C   0  0  0  0  0  0  0  0  0  0  0  0
   13.7376  -15.7954   23.5351 O   0  0  0  0  0  0  0  0  0  0  0  0
   12.5293  -17.3714   24.7023 N   0  0  0  0  0  0  0  0  0  0  0  0
   12.1552  -17.0958   26.0635 C   0  0  1  0  0  0  0  0  0  0  0  0
   11.0529  -16.0932   26.1419 C   0  0  0  0  0  0  0  0  0  0  0  0
   10.5997  -15.7406   27.4919 C   0  0  0  0  0  0  0  0  0  0  0  0
   11.0652  -16.2947   28.6659 C   0  0  0  0  0  0  0  0  0  0  0  0
   10.4136  -15.7237   29.6903 N   0  0  0  0  0  0  0  0  0  0  0  0
    9.5676  -14.8409   29.1732 C   0  0  0  0  0  0  0  0  0  0  0  0
    9.6723  -14.8425   27.8300 N   0  0  0  0  0  0  0  0  0  0  0  0
   11.9266  -18.3087   26.8767 C   0  0  0  0  0  0  0  0  0  0  0  0
   11.1417  -19.3889   26.5255 O   0  0  0  0  0  0  0  0  0  0  0  0
   12.4971  -18.3806   27.9977 O   0  0  0  0  0  0  0  0  0  0  0  0
  2  1  1  1
  2 13  1  0
  3  2  1  0
  3  4  1  0
  4 12  1  0
  4  5  2  0
  5  6  1  0
  7  8  2  0
  7  6  1  0
  9  8  1  0
 10  9  2  0
 11 10  1  0
 11 12  2  0
 12  7  1  0
 13 15  1  0
 13 14  2  0
 15 16  1  0
 17 16  1  0
 17 18  2  0
 19 17  1  0
 20 19  1  0
 20 21  1  6
 22 21  1  0
 23 22  2  0
 24 25  1  0
 24 23  1  0
 25 26  2  0
 26 22  1  0
 27 20  1  0
 28 27  1  0
 29 27  2  0
M  END
$$$$
