WGH.pdb
     RDKit          3D

 29 31  0  0  1  0  0  0  0  0999 V2000
    7.0176  -15.8343   22.4160 N   0  0  0  0  0  0  0  0  0  0  0  0
    8.3542  -16.3930   22.8309 C   0  0  1  0  0  0  0  0  0  0  0  0
    8.3900  -16.3827   24.3148 C   0  0  0  0  0  0  0  0  0  0  0  0
    7.4865  -15.4631   24.9732 C   0  0  0  0  0  0  0  0  0  0  0  0
    6.2614  -15.6220   25.5256 C   0  0  0  0  0  0  0  0  0  0  0  0
    5.8328  -14.4278   26.0219 N   0  0  0  0  0  0  0  0  0  0  0  0
    6.7511  -13.4766   25.8113 C   0  0  0  0  0  0  0  0  0  0  0  0
    6.7961  -12.1125   26.1278 C   0  0  0  0  0  0  0  0  0  0  0  0
    7.8983  -11.3973   25.7767 C   0  0  0  0  0  0  0  0  0  0  0  0
    8.9515  -11.9730   25.1293 C   0  0  0  0  0  0  0  0  0  0  0  0
    8.8917  -13.3309   24.8218 C   0  0  0  0  0  0  0  0  0  0  0  0
    7.7830  -14.0947   25.1641 C   0  0  0  0  0  0  0  0  0  0  0  0
    8.5040  -17.7192   22.1970 C   0  0  0  0  0  0  0  0  0  0  0  0
    7.7545  -18.1317   21.2695 O   0  0  0  0  0  0  0  0  0  0  0  0
    9.5381  -18.6429   22.6103 N   0  0  0  0  0  0  0  0  0  0  0  0
   10.5289  -19.0894   21.6661 C   0  0  0  0  0  0  0  0  0  0  0  0
   11.7916  -18.3549   21.6544 C   0  0  0  0  0  0  0  0  0  0  0  0
   12.6262  -18.6705   20.7339 O   0  0  0  0  0  0  0  0  0  0  0  0
   12.1453  -17.3497   22.5589 N   0  0  0  0  0  0  0  0  0  0  0  0
   13.3166  -16.5174   22.4945 C   0  0  1  0  0  0  0  0  0  0  0  0
   12.9701  -15.0971   22.1957 C   0  0  0  0  0  0  0  0  0  0  0  0
   12.1695  -14.8714   20.9873 C   0  0  0  0  0  0  0  0  0  0  0  0
   12.6699  -14.6679   19.7184 C   0  0  0  0  0  0  0  0  0  0  0  0
   11.6373  -14.4961   18.8792 N   0  0  0  0  0  0  0  0  0  0  0  0
   10.5267  -14.5891   19.6006 C   0  0  0  0  0  0  0  0  0  0  0  0
   10.8395  -14.8183   20.8908 N   0  0  0  0  0  0  0  0  0  0  0  0
   14.2325  -16.6865   23.6422 C   0  0  0  0  0  0  0  0  0  0  0  0
   15.4936  -16.1383   23.7657 O   0  0  0  0  0  0  0  0  0  0  0  0
   13.8390  -17.3923   24.6088 O   0  0  0  0  0  0  0  0  0  0  0  0
  2  1  1  1
  2 13  1  0
  3  2  1  0
  3  4  1  0
  4 12  1  0
  4  5  2  0
  5  6  1  0
  7  8  2  0
  7  6  1  0
  9  8  1  0
 10  9  2  0
 11 10  1  0
 11 12  2  0
 12  7  1  0
 13 15  1  0
 13 14  2  0
 15 16  1  0
 17 16  1  0
 17 18  2  0
 19 17  1  0
 20 19  1  0
 20 21  1  1
 22 21  1  0
 23 22  2  0
 24 25  1  0
 24 23  1  0
 25 26  2  0
 26 22  1  0
 27 20  1  0
 28 27  1  0
 29 27  2  0
M  END
$$$$
