WGH.pdb
     RDKit          3D

 29 31  0  0  1  0  0  0  0  0999 V2000
    7.1756  -17.9109   24.7018 N   0  0  0  0  0  0  0  0  0  0  0  0
    7.2959  -16.9611   23.5382 C   0  0  1  0  0  0  0  0  0  0  0  0
    7.9021  -15.7094   24.0573 C   0  0  0  0  0  0  0  0  0  0  0  0
    7.1563  -15.0114   25.0830 C   0  0  0  0  0  0  0  0  0  0  0  0
    6.1859  -15.4081   25.9387 C   0  0  0  0  0  0  0  0  0  0  0  0
    5.8102  -14.3527   26.7142 N   0  0  0  0  0  0  0  0  0  0  0  0
    6.5140  -13.2606   26.3913 C   0  0  0  0  0  0  0  0  0  0  0  0
    6.5127  -11.9491   26.8844 C   0  0  0  0  0  0  0  0  0  0  0  0
    7.3714  -11.0463   26.3392 C   0  0  0  0  0  0  0  0  0  0  0  0
    8.2262  -11.3859   25.3324 C   0  0  0  0  0  0  0  0  0  0  0  0
    8.2158  -12.6944   24.8532 C   0  0  0  0  0  0  0  0  0  0  0  0
    7.3532  -13.6449   25.3845 C   0  0  0  0  0  0  0  0  0  0  0  0
    8.0578  -17.6469   22.4742 C   0  0  0  0  0  0  0  0  0  0  0  0
    9.3065  -17.8230   22.5207 O   0  0  0  0  0  0  0  0  0  0  0  0
    7.4060  -18.1665   21.2916 N   0  0  0  0  0  0  0  0  0  0  0  0
    7.7320  -17.6358   19.9936 C   0  0  0  0  0  0  0  0  0  0  0  0
    9.0775  -17.9147   19.4978 C   0  0  0  0  0  0  0  0  0  0  0  0
    9.4594  -19.1375   19.5423 O   0  0  0  0  0  0  0  0  0  0  0  0
    9.9598  -16.9589   18.9861 N   0  0  0  0  0  0  0  0  0  0  0  0
   10.7575  -16.0381   19.7507 C   0  0  1  0  0  0  0  0  0  0  0  0
    9.9128  -15.1420   20.5932 C   0  0  0  0  0  0  0  0  0  0  0  0
    8.9357  -14.3170   19.8743 C   0  0  0  0  0  0  0  0  0  0  0  0
    8.8128  -14.2285   18.5035 C   0  0  0  0  0  0  0  0  0  0  0  0
    7.8151  -13.3766   18.2227 N   0  0  0  0  0  0  0  0  0  0  0  0
    7.3299  -12.9461   19.3810 C   0  0  0  0  0  0  0  0  0  0  0  0
    8.0071  -13.5140   20.3978 N   0  0  0  0  0  0  0  0  0  0  0  0
   11.8724  -16.6780   20.4803 C   0  0  0  0  0  0  0  0  0  0  0  0
   11.7764  -17.7700   21.3197 O   0  0  0  0  0  0  0  0  0  0  0  0
   13.0263  -16.1950   20.3307 O   0  0  0  0  0  0  0  0  0  0  0  0
  2  1  1  1
  2 13  1  0
  3  2  1  0
  3  4  1  0
  4 12  1  0
  4  5  2  0
  5  6  1  0
  7  8  2  0
  7  6  1  0
  9  8  1  0
 10  9  2  0
 11 10  1  0
 11 12  2  0
 12  7  1  0
 13 15  1  0
 13 14  2  0
 15 16  1  0
 17 16  1  0
 17 18  2  0
 19 17  1  0
 20 19  1  0
 20 21  1  1
 22 21  1  0
 23 22  2  0
 24 25  1  0
 24 23  1  0
 25 26  2  0
 26 22  1  0
 27 20  1  0
 28 27  1  0
 29 27  2  0
M  END
$$$$
