WGH.pdb
     RDKit          3D

 29 31  0  0  1  0  0  0  0  0999 V2000
    6.8221  -17.8267   24.7464 N   0  0  0  0  0  0  0  0  0  0  0  0
    7.6929  -16.9089   23.9279 C   0  0  1  0  0  0  0  0  0  0  0  0
    8.2164  -15.8683   24.8481 C   0  0  0  0  0  0  0  0  0  0  0  0
    7.2296  -15.0909   25.5672 C   0  0  0  0  0  0  0  0  0  0  0  0
    6.0213  -15.4043   26.0897 C   0  0  0  0  0  0  0  0  0  0  0  0
    5.4831  -14.2981   26.6754 N   0  0  0  0  0  0  0  0  0  0  0  0
    6.3120  -13.2539   26.5536 C   0  0  0  0  0  0  0  0  0  0  0  0
    6.2310  -11.9216   26.9798 C   0  0  0  0  0  0  0  0  0  0  0  0
    7.2653  -11.0835   26.7013 C   0  0  0  0  0  0  0  0  0  0  0  0
    8.3698  -11.5070   26.0227 C   0  0  0  0  0  0  0  0  0  0  0  0
    8.4355  -12.8352   25.6059 C   0  0  0  0  0  0  0  0  0  0  0  0
    7.3992  -13.7214   25.8716 C   0  0  0  0  0  0  0  0  0  0  0  0
    8.7132  -17.7385   23.2544 C   0  0  0  0  0  0  0  0  0  0  0  0
    8.8214  -18.9830   23.4329 O   0  0  0  0  0  0  0  0  0  0  0  0
    9.6688  -17.1629   22.3331 N   0  0  0  0  0  0  0  0  0  0  0  0
   10.0404  -17.8743   21.1378 C   0  0  0  0  0  0  0  0  0  0  0  0
   10.8695  -17.1462   20.1806 C   0  0  0  0  0  0  0  0  0  0  0  0
   11.2656  -17.8034   19.1538 O   0  0  0  0  0  0  0  0  0  0  0  0
   11.2519  -15.8073   20.3034 N   0  0  0  0  0  0  0  0  0  0  0  0
   12.0725  -15.0665   19.3834 C   0  0  1  0  0  0  0  0  0  0  0  0
   11.5030  -13.7174   19.0971 C   0  0  0  0  0  0  0  0  0  0  0  0
   10.0595  -13.6705   18.8400 C   0  0  0  0  0  0  0  0  0  0  0  0
    9.2245  -14.7640   18.7445 C   0  0  0  0  0  0  0  0  0  0  0  0
    7.9801  -14.3257   18.5007 N   0  0  0  0  0  0  0  0  0  0  0  0
    8.0354  -13.0004   18.4454 C   0  0  0  0  0  0  0  0  0  0  0  0
    9.3015  -12.5884   18.6512 N   0  0  0  0  0  0  0  0  0  0  0  0
   13.5066  -15.0526   19.7409 C   0  0  0  0  0  0  0  0  0  0  0  0
   14.0781  -15.6624   20.8400 O   0  0  0  0  0  0  0  0  0  0  0  0
   14.2960  -14.4326   18.9795 O   0  0  0  0  0  0  0  0  0  0  0  0
  2  1  1  1
  2 13  1  0
  3  2  1  0
  3  4  1  0
  4 12  1  0
  4  5  2  0
  5  6  1  0
  7  8  2  0
  7  6  1  0
  9  8  1  0
 10  9  2  0
 11 10  1  0
 11 12  2  0
 12  7  1  0
 13 15  1  0
 13 14  2  0
 15 16  1  0
 17 16  1  0
 17 18  2  0
 19 17  1  0
 20 19  1  0
 20 21  1  1
 22 21  1  0
 23 22  2  0
 24 25  1  0
 24 23  1  0
 25 26  2  0
 26 22  1  0
 27 20  1  0
 28 27  1  0
 29 27  2  0
M  END
$$$$
