WGH.pdb
     RDKit          3D

 29 31  0  0  1  0  0  0  0  0999 V2000
    7.4114  -17.0340   23.3407 N   0  0  0  0  0  0  0  0  0  0  0  0
    7.1477  -16.1086   22.1811 C   0  0  1  0  0  0  0  0  0  0  0  0
    6.8261  -14.7760   22.7505 C   0  0  0  0  0  0  0  0  0  0  0  0
    6.6976  -14.7064   24.1906 C   0  0  0  0  0  0  0  0  0  0  0  0
    6.3956  -15.6342   25.1282 C   0  0  0  0  0  0  0  0  0  0  0  0
    6.4039  -15.0502   26.3591 N   0  0  0  0  0  0  0  0  0  0  0  0
    6.7074  -13.7501   26.2583 C   0  0  0  0  0  0  0  0  0  0  0  0
    6.8483  -12.7307   27.2090 C   0  0  0  0  0  0  0  0  0  0  0  0
    7.1777  -11.4819   26.7827 C   0  0  0  0  0  0  0  0  0  0  0  0
    7.3725  -11.2023   25.4623 C   0  0  0  0  0  0  0  0  0  0  0  0
    7.2292  -12.2271   24.5289 C   0  0  0  0  0  0  0  0  0  0  0  0
    6.8936  -13.5154   24.9256 C   0  0  0  0  0  0  0  0  0  0  0  0
    8.3258  -16.1558   21.2906 C   0  0  0  0  0  0  0  0  0  0  0  0
    8.4325  -15.4557   20.2462 O   0  0  0  0  0  0  0  0  0  0  0  0
    9.4487  -17.0254   21.5669 N   0  0  0  0  0  0  0  0  0  0  0  0
   10.6348  -16.9557   20.7538 C   0  0  0  0  0  0  0  0  0  0  0  0
   11.8810  -16.6442   21.4494 C   0  0  0  0  0  0  0  0  0  0  0  0
   12.3806  -15.4839   21.2320 O   0  0  0  0  0  0  0  0  0  0  0  0
   12.5526  -17.5067   22.3205 N   0  0  0  0  0  0  0  0  0  0  0  0
   13.6035  -17.1478   23.2347 C   0  0  1  0  0  0  0  0  0  0  0  0
   13.3133  -17.6147   24.6218 C   0  0  0  0  0  0  0  0  0  0  0  0
   12.0880  -17.0891   25.2337 C   0  0  0  0  0  0  0  0  0  0  0  0
   11.3277  -16.0483   24.7433 C   0  0  0  0  0  0  0  0  0  0  0  0
   10.2910  -15.8546   25.5726 N   0  0  0  0  0  0  0  0  0  0  0  0
   10.3998  -16.7460   26.5504 C   0  0  0  0  0  0  0  0  0  0  0  0
   11.4946  -17.5061   26.3540 N   0  0  0  0  0  0  0  0  0  0  0  0
   14.9574  -17.4931   22.7526 C   0  0  0  0  0  0  0  0  0  0  0  0
   15.2589  -18.1762   21.5912 O   0  0  0  0  0  0  0  0  0  0  0  0
   15.9402  -17.1350   23.4547 O   0  0  0  0  0  0  0  0  0  0  0  0
  2  1  1  1
  2 13  1  0
  3  2  1  0
  3  4  1  0
  4 12  1  0
  4  5  2  0
  5  6  1  0
  7  8  2  0
  7  6  1  0
  9  8  1  0
 10  9  2  0
 11 10  1  0
 11 12  2  0
 12  7  1  0
 13 15  1  0
 13 14  2  0
 15 16  1  0
 17 16  1  0
 17 18  2  0
 19 17  1  0
 20 19  1  0
 20 21  1  1
 22 21  1  0
 23 22  2  0
 24 25  1  0
 24 23  1  0
 25 26  2  0
 26 22  1  0
 27 20  1  0
 28 27  1  0
 29 27  2  0
M  END
$$$$
