WGH.pdb
     RDKit          3D

 29 31  0  0  1  0  0  0  0  0999 V2000
    6.4304  -17.2471   23.5982 N   0  0  0  0  0  0  0  0  0  0  0  0
    7.8401  -16.7236   23.6943 C   0  0  1  0  0  0  0  0  0  0  0  0
    8.0890  -16.3992   25.1213 C   0  0  0  0  0  0  0  0  0  0  0  0
    7.1508  -15.4917   25.7472 C   0  0  0  0  0  0  0  0  0  0  0  0
    5.9270  -15.6752   26.2948 C   0  0  0  0  0  0  0  0  0  0  0  0
    5.4558  -14.4823   26.7546 N   0  0  0  0  0  0  0  0  0  0  0  0
    6.3445  -13.5079   26.5243 C   0  0  0  0  0  0  0  0  0  0  0  0
    6.3427  -12.1348   26.8031 C   0  0  0  0  0  0  0  0  0  0  0  0
    7.4241  -11.3940   26.4403 C   0  0  0  0  0  0  0  0  0  0  0  0
    8.5006  -11.9528   25.8169 C   0  0  0  0  0  0  0  0  0  0  0  0
    8.4874  -13.3198   25.5469 C   0  0  0  0  0  0  0  0  0  0  0  0
    7.4012  -14.1096   25.9022 C   0  0  0  0  0  0  0  0  0  0  0  0
    8.7380  -17.7372   23.1032 C   0  0  0  0  0  0  0  0  0  0  0  0
    8.3405  -18.8677   22.7081 O   0  0  0  0  0  0  0  0  0  0  0  0
   10.1543  -17.4904   22.9400 N   0  0  0  0  0  0  0  0  0  0  0  0
   10.9999  -18.4938   22.3477 C   0  0  0  0  0  0  0  0  0  0  0  0
   12.4276  -18.1894   22.2930 C   0  0  0  0  0  0  0  0  0  0  0  0
   13.1777  -19.0707   21.7417 O   0  0  0  0  0  0  0  0  0  0  0  0
   13.0208  -17.0249   22.7889 N   0  0  0  0  0  0  0  0  0  0  0  0
   14.3412  -16.5433   22.4834 C   0  0  1  0  0  0  0  0  0  0  0  0
   14.3085  -15.1674   21.9071 C   0  0  0  0  0  0  0  0  0  0  0  0
   13.4379  -14.9793   20.7415 C   0  0  0  0  0  0  0  0  0  0  0  0
   12.7896  -15.9829   20.0527 C   0  0  0  0  0  0  0  0  0  0  0  0
   12.0926  -15.4259   19.0507 N   0  0  0  0  0  0  0  0  0  0  0  0
   12.2987  -14.1159   19.1111 C   0  0  0  0  0  0  0  0  0  0  0  0
   13.1196  -13.8309   20.1407 N   0  0  0  0  0  0  0  0  0  0  0  0
   15.3083  -16.7119   23.5885 C   0  0  0  0  0  0  0  0  0  0  0  0
   15.0251  -17.1877   24.8533 O   0  0  0  0  0  0  0  0  0  0  0  0
   16.5091  -16.3991   23.3711 O   0  0  0  0  0  0  0  0  0  0  0  0
  2  1  1  1
  2 13  1  0
  3  2  1  0
  3  4  1  0
  4 12  1  0
  4  5  2  0
  5  6  1  0
  7  8  2  0
  7  6  1  0
  9  8  1  0
 10  9  2  0
 11 10  1  0
 11 12  2  0
 12  7  1  0
 13 15  1  0
 13 14  2  0
 15 16  1  0
 17 16  1  0
 17 18  2  0
 19 17  1  0
 20 19  1  0
 20 21  1  1
 22 21  1  0
 23 22  2  0
 24 25  1  0
 24 23  1  0
 25 26  2  0
 26 22  1  0
 27 20  1  0
 28 27  1  0
 29 27  2  0
M  END
$$$$
