WGH.pdb
     RDKit          3D

 29 31  0  0  1  0  0  0  0  0999 V2000
    6.2601  -18.0170   23.6513 N   0  0  0  0  0  0  0  0  0  0  0  0
    7.0762  -16.9731   22.9337 C   0  0  1  0  0  0  0  0  0  0  0  0
    7.9044  -16.2871   23.9568 C   0  0  0  0  0  0  0  0  0  0  0  0
    7.1869  -15.5674   24.9876 C   0  0  0  0  0  0  0  0  0  0  0  0
    6.2867  -15.9588   25.9191 C   0  0  0  0  0  0  0  0  0  0  0  0
    5.9073  -14.8801   26.6600 N   0  0  0  0  0  0  0  0  0  0  0  0
    6.5397  -13.7776   26.2395 C   0  0  0  0  0  0  0  0  0  0  0  0
    6.5054  -12.4425   26.6631 C   0  0  0  0  0  0  0  0  0  0  0  0
    7.2884  -11.5342   26.0216 C   0  0  0  0  0  0  0  0  0  0  0  0
    8.0990  -11.8906   24.9845 C   0  0  0  0  0  0  0  0  0  0  0  0
    8.1222  -13.2224   24.5752 C   0  0  0  0  0  0  0  0  0  0  0  0
    7.3368  -14.1793   25.2056 C   0  0  0  0  0  0  0  0  0  0  0  0
    7.8244  -17.6502   21.8545 C   0  0  0  0  0  0  0  0  0  0  0  0
    8.2302  -18.8422   21.9361 O   0  0  0  0  0  0  0  0  0  0  0  0
    8.1442  -16.9739   20.6160 N   0  0  0  0  0  0  0  0  0  0  0  0
    9.0427  -17.5830   19.6703 C   0  0  0  0  0  0  0  0  0  0  0  0
   10.4293  -17.7416   20.1019 C   0  0  0  0  0  0  0  0  0  0  0  0
   11.2786  -18.0458   19.1913 O   0  0  0  0  0  0  0  0  0  0  0  0
   10.8856  -17.5856   21.4139 N   0  0  0  0  0  0  0  0  0  0  0  0
   12.1751  -17.9723   21.9204 C   0  0  1  0  0  0  0  0  0  0  0  0
   12.7692  -16.9128   22.7870 C   0  0  0  0  0  0  0  0  0  0  0  0
   11.8164  -16.0831   23.5324 C   0  0  0  0  0  0  0  0  0  0  0  0
   10.4433  -16.1337   23.4147 C   0  0  0  0  0  0  0  0  0  0  0  0
    9.9136  -15.2275   24.2503 N   0  0  0  0  0  0  0  0  0  0  0  0
   10.9235  -14.6292   24.8704 C   0  0  0  0  0  0  0  0  0  0  0  0
   12.0917  -15.1438   24.4396 N   0  0  0  0  0  0  0  0  0  0  0  0
   12.2009  -19.3245   22.5167 C   0  0  0  0  0  0  0  0  0  0  0  0
   13.3255  -20.0130   22.9257 O   0  0  0  0  0  0  0  0  0  0  0  0
   11.1007  -19.9172   22.6765 O   0  0  0  0  0  0  0  0  0  0  0  0
  2  1  1  1
  2 13  1  0
  3  2  1  0
  3  4  1  0
  4 12  1  0
  4  5  2  0
  5  6  1  0
  7  8  2  0
  7  6  1  0
  9  8  1  0
 10  9  2  0
 11 10  1  0
 11 12  2  0
 12  7  1  0
 13 15  1  0
 13 14  2  0
 15 16  1  0
 17 16  1  0
 17 18  2  0
 19 17  1  0
 20 19  1  0
 20 21  1  1
 22 21  1  0
 23 22  2  0
 24 25  1  0
 24 23  1  0
 25 26  2  0
 26 22  1  0
 27 20  1  0
 28 27  1  0
 29 27  2  0
M  END
$$$$
