WGH.pdb
     RDKit          3D

 29 31  0  0  1  0  0  0  0  0999 V2000
    9.4542  -15.8233   21.9053 N   0  0  0  0  0  0  0  0  0  0  0  0
    9.2522  -16.1007   23.3725 C   0  0  1  0  0  0  0  0  0  0  0  0
    7.8236  -15.8338   23.6746 C   0  0  0  0  0  0  0  0  0  0  0  0
    7.3953  -14.4538   23.5878 C   0  0  0  0  0  0  0  0  0  0  0  0
    7.1394  -13.6395   22.5377 C   0  0  0  0  0  0  0  0  0  0  0  0
    6.7605  -12.4149   22.9991 N   0  0  0  0  0  0  0  0  0  0  0  0
    6.7581  -12.3993   24.3378 C   0  0  0  0  0  0  0  0  0  0  0  0
    6.4458  -11.4067   25.2760 C   0  0  0  0  0  0  0  0  0  0  0  0
    6.5366  -11.7078   26.5992 C   0  0  0  0  0  0  0  0  0  0  0  0
    6.9214  -12.9434   27.0295 C   0  0  0  0  0  0  0  0  0  0  0  0
    7.2283  -13.9200   26.0840 C   0  0  0  0  0  0  0  0  0  0  0  0
    7.1473  -13.6504   24.7236 C   0  0  0  0  0  0  0  0  0  0  0  0
    9.7152  -17.4784   23.6381 C   0  0  0  0  0  0  0  0  0  0  0  0
    9.3257  -18.4793   22.9757 O   0  0  0  0  0  0  0  0  0  0  0  0
   10.6600  -17.7687   24.6947 N   0  0  0  0  0  0  0  0  0  0  0  0
   10.9595  -19.1333   25.0426 C   0  0  0  0  0  0  0  0  0  0  0  0
   11.8321  -19.3320   26.1972 C   0  0  0  0  0  0  0  0  0  0  0  0
   12.2296  -20.5317   26.4116 O   0  0  0  0  0  0  0  0  0  0  0  0
   12.2571  -18.3235   27.0667 N   0  0  0  0  0  0  0  0  0  0  0  0
   12.0848  -18.2993   28.4944 C   0  0  1  0  0  0  0  0  0  0  0  0
   10.8570  -17.5498   28.8908 C   0  0  0  0  0  0  0  0  0  0  0  0
   10.6525  -16.2560   28.2304 C   0  0  0  0  0  0  0  0  0  0  0  0
   11.5361  -15.6480   27.3634 C   0  0  0  0  0  0  0  0  0  0  0  0
   11.0054  -14.4808   26.9685 N   0  0  0  0  0  0  0  0  0  0  0  0
    9.8276  -14.3627   27.5697 C   0  0  0  0  0  0  0  0  0  0  0  0
    9.6012  -15.4418   28.3438 N   0  0  0  0  0  0  0  0  0  0  0  0
   12.2149  -19.6257   29.1336 C   0  0  0  0  0  0  0  0  0  0  0  0
   13.1648  -19.9907   30.0667 O   0  0  0  0  0  0  0  0  0  0  0  0
   11.3865  -20.5178   28.8095 O   0  0  0  0  0  0  0  0  0  0  0  0
  2  1  1  6
  2 13  1  0
  3  2  1  0
  3  4  1  0
  4 12  1  0
  4  5  2  0
  5  6  1  0
  7  8  2  0
  7  6  1  0
  9  8  1  0
 10  9  2  0
 11 10  1  0
 11 12  2  0
 12  7  1  0
 13 15  1  0
 13 14  2  0
 15 16  1  0
 17 16  1  0
 17 18  2  0
 19 17  1  0
 20 19  1  0
 20 21  1  6
 22 21  1  0
 23 22  2  0
 24 25  1  0
 24 23  1  0
 25 26  2  0
 26 22  1  0
 27 20  1  0
 28 27  1  0
 29 27  2  0
M  END
$$$$
