WGH.pdb
     RDKit          3D

 29 31  0  0  1  0  0  0  0  0999 V2000
    8.8232  -17.0181   24.6827 N   0  0  0  0  0  0  0  0  0  0  0  0
    8.2324  -16.4638   23.4121 C   0  0  1  0  0  0  0  0  0  0  0  0
    7.8746  -15.0480   23.6785 C   0  0  0  0  0  0  0  0  0  0  0  0
    7.1146  -14.7930   24.8838 C   0  0  0  0  0  0  0  0  0  0  0  0
    6.3741  -15.5935   25.6851 C   0  0  0  0  0  0  0  0  0  0  0  0
    5.8573  -14.8546   26.7065 N   0  0  0  0  0  0  0  0  0  0  0  0
    6.2414  -13.5765   26.6006 C   0  0  0  0  0  0  0  0  0  0  0  0
    5.9919  -12.4413   27.3829 C   0  0  0  0  0  0  0  0  0  0  0  0
    6.5432  -11.2561   27.0075 C   0  0  0  0  0  0  0  0  0  0  0  0
    7.3267  -11.1487   25.8964 C   0  0  0  0  0  0  0  0  0  0  0  0
    7.5659  -12.2870   25.1290 C   0  0  0  0  0  0  0  0  0  0  0  0
    7.0204  -13.5154   25.4802 C   0  0  0  0  0  0  0  0  0  0  0  0
    9.2116  -16.6825   22.3276 C   0  0  0  0  0  0  0  0  0  0  0  0
    9.6492  -15.7548   21.5926 O   0  0  0  0  0  0  0  0  0  0  0  0
    9.7366  -17.9989   22.0363 N   0  0  0  0  0  0  0  0  0  0  0  0
   10.6268  -18.1923   20.9214 C   0  0  0  0  0  0  0  0  0  0  0  0
   12.0131  -17.7758   21.1180 C   0  0  0  0  0  0  0  0  0  0  0  0
   12.8539  -18.1547   20.2277 O   0  0  0  0  0  0  0  0  0  0  0  0
   12.4769  -17.0056   22.1882 N   0  0  0  0  0  0  0  0  0  0  0  0
   13.8229  -16.5369   22.3819 C   0  0  1  0  0  0  0  0  0  0  0  0
   14.0003  -15.1425   21.8813 C   0  0  0  0  0  0  0  0  0  0  0  0
   14.1779  -14.9975   20.4324 C   0  0  0  0  0  0  0  0  0  0  0  0
   14.2473  -16.0329   19.5239 C   0  0  0  0  0  0  0  0  0  0  0  0
   14.4154  -15.5105   18.2996 N   0  0  0  0  0  0  0  0  0  0  0  0
   14.4501  -14.1906   18.4383 C   0  0  0  0  0  0  0  0  0  0  0  0
   14.3060  -13.8653   19.7377 N   0  0  0  0  0  0  0  0  0  0  0  0
   14.3408  -16.7579   23.7485 C   0  0  0  0  0  0  0  0  0  0  0  0
   15.6407  -16.5589   24.1691 O   0  0  0  0  0  0  0  0  0  0  0  0
   13.5317  -17.1634   24.6250 O   0  0  0  0  0  0  0  0  0  0  0  0
  2  1  1  1
  2 13  1  0
  3  2  1  0
  3  4  1  0
  4 12  1  0
  4  5  2  0
  5  6  1  0
  7  8  2  0
  7  6  1  0
  9  8  1  0
 10  9  2  0
 11 10  1  0
 11 12  2  0
 12  7  1  0
 13 15  1  0
 13 14  2  0
 15 16  1  0
 17 16  1  0
 17 18  2  0
 19 17  1  0
 20 19  1  0
 20 21  1  1
 22 21  1  0
 23 22  2  0
 24 25  1  0
 24 23  1  0
 25 26  2  0
 26 22  1  0
 27 20  1  0
 28 27  1  0
 29 27  2  0
M  END
$$$$
