WGH.pdb
     RDKit          3D

 29 31  0  0  1  0  0  0  0  0999 V2000
    7.5230  -16.6587   23.2268 N   0  0  0  0  0  0  0  0  0  0  0  0
    8.6198  -15.7710   22.6979 C   0  0  1  0  0  0  0  0  0  0  0  0
    8.5065  -14.4698   23.4033 C   0  0  0  0  0  0  0  0  0  0  0  0
    7.4105  -14.3397   24.3400 C   0  0  0  0  0  0  0  0  0  0  0  0
    6.5851  -15.2455   24.9139 C   0  0  0  0  0  0  0  0  0  0  0  0
    5.7090  -14.6004   25.7341 N   0  0  0  0  0  0  0  0  0  0  0  0
    5.9371  -13.2812   25.7176 C   0  0  0  0  0  0  0  0  0  0  0  0
    5.3307  -12.2038   26.3768 C   0  0  0  0  0  0  0  0  0  0  0  0
    5.8058  -10.9496   26.1507 C   0  0  0  0  0  0  0  0  0  0  0  0
    6.8502  -10.7194   25.3045 C   0  0  0  0  0  0  0  0  0  0  0  0
    7.4429  -11.8015   24.6568 C   0  0  0  0  0  0  0  0  0  0  0  0
    6.9857  -13.0972   24.8620 C   0  0  0  0  0  0  0  0  0  0  0  0
    9.9013  -16.4847   22.8749 C   0  0  0  0  0  0  0  0  0  0  0  0
   11.0055  -16.0381   22.4584 O   0  0  0  0  0  0  0  0  0  0  0  0
    9.9684  -17.7637   23.5479 N   0  0  0  0  0  0  0  0  0  0  0  0
   11.2451  -18.3623   23.8383 C   0  0  0  0  0  0  0  0  0  0  0  0
   11.9336  -17.8758   25.0313 C   0  0  0  0  0  0  0  0  0  0  0  0
   11.6419  -16.6873   25.4131 O   0  0  0  0  0  0  0  0  0  0  0  0
   12.8691  -18.6033   25.7724 N   0  0  0  0  0  0  0  0  0  0  0  0
   13.3552  -18.2788   27.0867 C   0  0  1  0  0  0  0  0  0  0  0  0
   12.2418  -18.1488   28.0716 C   0  0  0  0  0  0  0  0  0  0  0  0
   11.5034  -16.8815   28.0432 C   0  0  0  0  0  0  0  0  0  0  0  0
   12.0077  -15.6670   27.6275 C   0  0  0  0  0  0  0  0  0  0  0  0
   11.0410  -14.7444   27.7478 N   0  0  0  0  0  0  0  0  0  0  0  0
    9.9668  -15.3624   28.2237 C   0  0  0  0  0  0  0  0  0  0  0  0
   10.2375  -16.6692   28.4084 N   0  0  0  0  0  0  0  0  0  0  0  0
   14.4658  -19.1414   27.5419 C   0  0  0  0  0  0  0  0  0  0  0  0
   15.3358  -18.8698   28.5790 O   0  0  0  0  0  0  0  0  0  0  0  0
   14.6474  -20.2325   26.9388 O   0  0  0  0  0  0  0  0  0  0  0  0
  2  1  1  1
  2 13  1  0
  3  2  1  0
  3  4  1  0
  4 12  1  0
  4  5  2  0
  5  6  1  0
  7  8  2  0
  7  6  1  0
  9  8  1  0
 10  9  2  0
 11 10  1  0
 11 12  2  0
 12  7  1  0
 13 15  1  0
 13 14  2  0
 15 16  1  0
 17 16  1  0
 17 18  2  0
 19 17  1  0
 20 19  1  0
 20 21  1  1
 22 21  1  0
 23 22  2  0
 24 25  1  0
 24 23  1  0
 25 26  2  0
 26 22  1  0
 27 20  1  0
 28 27  1  0
 29 27  2  0
M  END
$$$$
