TFP.pdb
     RDKit          3D

 26 27  0  0  1  0  0  0  0  0999 V2000
    6.7562  -20.4510   22.3616 C   0  0  0  0  0  0  0  0  0  0  0  0
    5.3171  -20.3089   21.8583 C   0  0  1  0  0  0  0  0  0  0  0  0
    4.7780  -21.5487   21.5957 O   0  0  0  0  0  0  0  0  0  0  0  0
    4.5689  -19.5341   22.9142 C   0  0  2  0  0  0  0  0  0  0  0  0
    3.1503  -19.4581   22.5624 N   0  0  0  0  0  0  0  0  0  0  0  0
    5.0483  -18.1756   23.1433 C   0  0  0  0  0  0  0  0  0  0  0  0
    4.8692  -17.2446   22.2819 O   0  0  0  0  0  0  0  0  0  0  0  0
    5.7487  -17.7327   24.3128 N   0  0  0  0  0  0  0  0  0  0  0  0
    6.3966  -16.4420   24.3939 C   0  0  1  0  0  0  0  0  0  0  0  0
    6.4636  -16.1382   25.8819 C   0  0  0  0  0  0  0  0  0  0  0  0
    6.8339  -14.7746   26.2248 C   0  0  0  0  0  0  0  0  0  0  0  0
    5.8810  -13.7803   26.3142 C   0  0  0  0  0  0  0  0  0  0  0  0
    6.3014  -12.5192   26.6616 C   0  0  0  0  0  0  0  0  0  0  0  0
    7.6318  -12.2145   26.9220 C   0  0  0  0  0  0  0  0  0  0  0  0
    8.5740  -13.2106   26.8307 C   0  0  0  0  0  0  0  0  0  0  0  0
    8.1595  -14.4731   26.4838 C   0  0  0  0  0  0  0  0  0  0  0  0
    7.6555  -16.2850   23.6923 C   0  0  0  0  0  0  0  0  0  0  0  0
    8.4405  -17.3300   23.7344 O   0  0  0  0  0  0  0  0  0  0  0  0
    8.1991  -15.2212   22.9727 N   0  0  0  0  0  0  0  0  0  0  0  0
    7.7814  -13.8431   22.9478 C   0  0  0  0  0  0  0  0  0  0  0  0
    7.6049  -13.6579   21.4269 C   0  0  0  0  0  0  0  0  0  0  0  0
    8.8456  -14.3763   20.9155 C   0  0  0  0  0  0  0  0  0  0  0  0
    9.3370  -15.2425   22.0434 C   0  0  1  0  0  0  0  0  0  0  0  0
   10.5563  -14.6746   22.6639 C   0  0  0  0  0  0  0  0  0  0  0  0
   11.8196  -14.7268   22.0613 O   0  0  0  0  0  0  0  0  0  0  0  0
   10.5239  -14.1048   23.7842 O   0  0  0  0  0  0  0  0  0  0  0  0
  2  1  1  1
  3  2  1  0
  4  6  1  0
  4  2  1  0
  4  5  1  6
  6  8  1  0
  7  6  2  0
  8  9  1  0
  9 10  1  1
 11 16  1  0
 11 10  1  0
 12 11  2  0
 13 14  2  0
 13 12  1  0
 14 15  1  0
 15 16  2  0
 17 18  2  0
 17  9  1  0
 19 17  1  0
 20 21  1  0
 20 19  1  0
 21 22  1  0
 22 23  1  0
 23 19  1  0
 23 24  1  1
 25 24  1  0
 26 24  2  0
M  END
$$$$
