TFP.pdb
     RDKit          3D

 26 27  0  0  1  0  0  0  0  0999 V2000
   10.7900  -19.2003   20.1349 C   0  0  0  0  0  0  0  0  0  0  0  0
   10.6358  -18.4323   21.4506 C   0  0  1  0  0  0  0  0  0  0  0  0
   11.5991  -18.8293   22.3514 O   0  0  0  0  0  0  0  0  0  0  0  0
   10.7005  -16.9666   21.1008 C   0  0  2  0  0  0  0  0  0  0  0  0
   12.0095  -16.6502   20.5279 N   0  0  0  0  0  0  0  0  0  0  0  0
   10.4638  -16.0524   22.2126 C   0  0  0  0  0  0  0  0  0  0  0  0
   11.4301  -15.5158   22.8599 O   0  0  0  0  0  0  0  0  0  0  0  0
    9.1740  -15.6568   22.6969 N   0  0  0  0  0  0  0  0  0  0  0  0
    8.9882  -14.9779   23.9606 C   0  0  1  0  0  0  0  0  0  0  0  0
    7.6325  -14.3012   23.8377 C   0  0  0  0  0  0  0  0  0  0  0  0
    7.1688  -13.6108   25.0305 C   0  0  0  0  0  0  0  0  0  0  0  0
    6.4618  -14.2793   26.0092 C   0  0  0  0  0  0  0  0  0  0  0  0
    6.0721  -13.5673   27.1177 C   0  0  0  0  0  0  0  0  0  0  0  0
    6.3605  -12.2184   27.2854 C   0  0  0  0  0  0  0  0  0  0  0  0
    7.0649  -11.5606   26.3059 C   0  0  0  0  0  0  0  0  0  0  0  0
    7.4570  -12.2673   25.1956 C   0  0  0  0  0  0  0  0  0  0  0  0
    9.1601  -15.7619   25.1678 C   0  0  0  0  0  0  0  0  0  0  0  0
    8.8582  -17.0285   25.0465 O   0  0  0  0  0  0  0  0  0  0  0  0
    9.5897  -15.4225   26.4505 N   0  0  0  0  0  0  0  0  0  0  0  0
    9.4663  -14.1632   27.1384 C   0  0  0  0  0  0  0  0  0  0  0  0
   10.9441  -13.9325   27.5145 C   0  0  0  0  0  0  0  0  0  0  0  0
   11.3345  -15.3312   27.9708 C   0  0  0  0  0  0  0  0  0  0  0  0
   10.2917  -16.2686   27.4253 C   0  0  1  0  0  0  0  0  0  0  0  0
    9.3797  -16.7374   28.4944 C   0  0  0  0  0  0  0  0  0  0  0  0
    8.0081  -16.4540   28.5119 O   0  0  0  0  0  0  0  0  0  0  0  0
    9.7933  -17.4271   29.4606 O   0  0  0  0  0  0  0  0  0  0  0  0
  2  1  1  6
  3  2  1  0
  4  6  1  0
  4  2  1  0
  4  5  1  1
  6  8  1  0
  7  6  2  0
  8  9  1  0
  9 10  1  6
 11 16  1  0
 11 10  1  0
 12 11  2  0
 13 14  2  0
 13 12  1  0
 14 15  1  0
 15 16  2  0
 17 18  2  0
 17  9  1  0
 19 17  1  0
 20 21  1  0
 20 19  1  0
 21 22  1  0
 22 23  1  0
 23 19  1  0
 23 24  1  1
 25 24  1  0
 26 24  2  0
M  END
$$$$
