TFP.pdb
     RDKit          3D

 26 27  0  0  1  0  0  0  0  0999 V2000
    8.9007  -19.2009   21.4453 C   0  0  0  0  0  0  0  0  0  0  0  0
    9.8349  -18.4690   20.4777 C   0  0  1  0  0  0  0  0  0  0  0  0
    9.8566  -19.1088   19.2583 O   0  0  0  0  0  0  0  0  0  0  0  0
    9.3455  -17.0441   20.4057 C   0  0  2  0  0  0  0  0  0  0  0  0
   10.0588  -16.3271   19.3479 N   0  0  0  0  0  0  0  0  0  0  0  0
    9.4829  -16.2779   21.6394 C   0  0  0  0  0  0  0  0  0  0  0  0
   10.6182  -15.8337   22.0327 O   0  0  0  0  0  0  0  0  0  0  0  0
    8.4087  -15.9400   22.5263 N   0  0  0  0  0  0  0  0  0  0  0  0
    8.6229  -15.2938   23.8025 C   0  0  1  0  0  0  0  0  0  0  0  0
    7.3635  -14.4746   24.0347 C   0  0  0  0  0  0  0  0  0  0  0  0
    7.3447  -13.6919   25.2599 C   0  0  0  0  0  0  0  0  0  0  0  0
    7.8110  -12.3931   25.2810 C   0  0  0  0  0  0  0  0  0  0  0  0
    7.7448  -11.7076   26.4699 C   0  0  0  0  0  0  0  0  0  0  0  0
    7.2326  -12.2676   27.6339 C   0  0  0  0  0  0  0  0  0  0  0  0
    6.7705  -13.5614   27.6039 C   0  0  0  0  0  0  0  0  0  0  0  0
    6.8343  -14.2514   26.4183 C   0  0  0  0  0  0  0  0  0  0  0  0
    9.0045  -16.1366   24.9186 C   0  0  0  0  0  0  0  0  0  0  0  0
    8.4142  -17.3030   24.9516 O   0  0  0  0  0  0  0  0  0  0  0  0
    9.8900  -15.9416   25.9783 N   0  0  0  0  0  0  0  0  0  0  0  0
   10.4759  -14.7129   26.4485 C   0  0  0  0  0  0  0  0  0  0  0  0
   11.9661  -15.1079   26.4042 C   0  0  0  0  0  0  0  0  0  0  0  0
   11.8965  -16.5137   26.9837 C   0  0  0  0  0  0  0  0  0  0  0  0
   10.4605  -16.9510   26.8808 C   0  0  1  0  0  0  0  0  0  0  0  0
    9.7977  -16.9322   28.2055 C   0  0  0  0  0  0  0  0  0  0  0  0
    8.9238  -15.9159   28.6120 O   0  0  0  0  0  0  0  0  0  0  0  0
    9.9858  -17.8428   29.0517 O   0  0  0  0  0  0  0  0  0  0  0  0
  2  1  1  1
  3  2  1  0
  4  6  1  0
  4  2  1  0
  4  5  1  6
  6  8  1  0
  7  6  2  0
  8  9  1  0
  9 10  1  1
 11 16  1  0
 11 10  1  0
 12 11  2  0
 13 14  2  0
 13 12  1  0
 14 15  1  0
 15 16  2  0
 17 18  2  0
 17  9  1  0
 19 17  1  0
 20 21  1  0
 20 19  1  0
 21 22  1  0
 22 23  1  0
 23 19  1  0
 23 24  1  1
 25 24  1  0
 26 24  2  0
M  END
$$$$
