TFP.pdb
     RDKit          3D

 26 27  0  0  1  0  0  0  0  0999 V2000
    7.0411  -20.3287   19.7959 C   0  0  0  0  0  0  0  0  0  0  0  0
    7.6844  -19.4513   20.8734 C   0  0  1  0  0  0  0  0  0  0  0  0
    9.0149  -19.7748   21.0217 O   0  0  0  0  0  0  0  0  0  0  0  0
    7.4514  -18.0207   20.4559 C   0  0  2  0  0  0  0  0  0  0  0  0
    8.1165  -17.7619   19.1782 N   0  0  0  0  0  0  0  0  0  0  0  0
    7.9041  -17.0144   21.4100 C   0  0  0  0  0  0  0  0  0  0  0  0
    9.0430  -16.4400   21.2926 O   0  0  0  0  0  0  0  0  0  0  0  0
    7.1605  -16.5618   22.5488 N   0  0  0  0  0  0  0  0  0  0  0  0
    7.7437  -15.7405   23.5869 C   0  0  1  0  0  0  0  0  0  0  0  0
    6.5861  -14.9084   24.1145 C   0  0  0  0  0  0  0  0  0  0  0  0
    6.9059  -14.0278   25.2265 C   0  0  0  0  0  0  0  0  0  0  0  0
    6.6981  -14.4263   26.5314 C   0  0  0  0  0  0  0  0  0  0  0  0
    7.0413  -13.5491   27.5317 C   0  0  0  0  0  0  0  0  0  0  0  0
    7.5821  -12.2943   27.2794 C   0  0  0  0  0  0  0  0  0  0  0  0
    7.7856  -11.9057   25.9772 C   0  0  0  0  0  0  0  0  0  0  0  0
    7.4444  -12.7783   24.9732 C   0  0  0  0  0  0  0  0  0  0  0  0
    8.5147  -16.4145   24.6130 C   0  0  0  0  0  0  0  0  0  0  0  0
    7.9602  -17.4972   25.0930 O   0  0  0  0  0  0  0  0  0  0  0  0
    9.7488  -16.1276   25.1959 N   0  0  0  0  0  0  0  0  0  0  0  0
   10.5097  -14.9061   25.1398 C   0  0  0  0  0  0  0  0  0  0  0  0
   11.8516  -15.4653   24.6249 C   0  0  0  0  0  0  0  0  0  0  0  0
   11.9695  -16.7241   25.4724 C   0  0  0  0  0  0  0  0  0  0  0  0
   10.5941  -17.0109   26.0108 C   0  0  1  0  0  0  0  0  0  0  0  0
   10.5009  -16.6758   27.4507 C   0  0  0  0  0  0  0  0  0  0  0  0
    9.7223  -15.6213   27.9444 O   0  0  0  0  0  0  0  0  0  0  0  0
   11.1255  -17.3305   28.3236 O   0  0  0  0  0  0  0  0  0  0  0  0
  2  1  1  6
  3  2  1  0
  4  6  1  0
  4  2  1  0
  4  5  1  6
  6  8  1  0
  7  6  2  0
  8  9  1  0
  9 10  1  1
 11 16  1  0
 11 10  1  0
 12 11  2  0
 13 14  2  0
 13 12  1  0
 14 15  1  0
 15 16  2  0
 17 18  2  0
 17  9  1  0
 19 17  1  0
 20 21  1  0
 20 19  1  0
 21 22  1  0
 22 23  1  0
 23 19  1  0
 23 24  1  1
 25 24  1  0
 26 24  2  0
M  END
$$$$
