TFP.pdb
     RDKit          3D

 26 27  0  0  1  0  0  0  0  0999 V2000
    9.5233  -19.2304   19.4394 C   0  0  0  0  0  0  0  0  0  0  0  0
    9.6221  -18.5297   20.7973 C   0  0  1  0  0  0  0  0  0  0  0  0
   10.6643  -19.0526   21.5302 O   0  0  0  0  0  0  0  0  0  0  0  0
    9.7635  -17.0559   20.5091 C   0  0  2  0  0  0  0  0  0  0  0  0
   10.9984  -16.8123   19.7624 N   0  0  0  0  0  0  0  0  0  0  0  0
    9.7713  -16.1919   21.6844 C   0  0  0  0  0  0  0  0  0  0  0  0
   10.8637  -15.7567   22.1924 O   0  0  0  0  0  0  0  0  0  0  0  0
    8.6056  -15.7406   22.3859 N   0  0  0  0  0  0  0  0  0  0  0  0
    8.6753  -15.0560   23.6582 C   0  0  1  0  0  0  0  0  0  0  0  0
    7.4265  -14.1902   23.6978 C   0  0  0  0  0  0  0  0  0  0  0  0
    7.2398  -13.4189   24.9162 C   0  0  0  0  0  0  0  0  0  0  0  0
    7.7289  -12.1330   25.0255 C   0  0  0  0  0  0  0  0  0  0  0  0
    7.4985  -11.4573   26.1994 C   0  0  0  0  0  0  0  0  0  0  0  0
    6.8010  -12.0147   27.2641 C   0  0  0  0  0  0  0  0  0  0  0  0
    6.3175  -13.2956   27.1467 C   0  0  0  0  0  0  0  0  0  0  0  0
    6.5449  -13.9757   25.9756 C   0  0  0  0  0  0  0  0  0  0  0  0
    8.8788  -15.8699   24.8405 C   0  0  0  0  0  0  0  0  0  0  0  0
    8.2916  -17.0379   24.8097 O   0  0  0  0  0  0  0  0  0  0  0  0
    9.5879  -15.6452   26.0203 N   0  0  0  0  0  0  0  0  0  0  0  0
    9.9604  -14.3913   26.6228 C   0  0  0  0  0  0  0  0  0  0  0  0
   11.4789  -14.6191   26.7670 C   0  0  0  0  0  0  0  0  0  0  0  0
   11.4963  -16.0569   27.2663 C   0  0  0  0  0  0  0  0  0  0  0  0
   10.1468  -16.6400   26.9459 C   0  0  1  0  0  0  0  0  0  0  0  0
    9.3169  -16.7742   28.1656 C   0  0  0  0  0  0  0  0  0  0  0  0
    9.5742  -17.7170   29.1690 O   0  0  0  0  0  0  0  0  0  0  0  0
    8.3197  -16.0366   28.3710 O   0  0  0  0  0  0  0  0  0  0  0  0
  2  1  1  6
  3  2  1  0
  4  6  1  0
  4  2  1  0
  4  5  1  1
  6  8  1  0
  7  6  2  0
  8  9  1  0
  9 10  1  1
 11 16  1  0
 11 10  1  0
 12 11  2  0
 13 14  2  0
 13 12  1  0
 14 15  1  0
 15 16  2  0
 17 18  2  0
 17  9  1  0
 19 17  1  0
 20 21  1  0
 20 19  1  0
 21 22  1  0
 22 23  1  0
 23 19  1  0
 23 24  1  1
 25 24  1  0
 26 24  2  0
M  END
$$$$
