TFP.pdb
     RDKit          3D

 26 27  0  0  1  0  0  0  0  0999 V2000
    9.5719  -19.1079   22.0778 C   0  0  0  0  0  0  0  0  0  0  0  0
   10.7039  -18.5242   21.2278 C   0  0  1  0  0  0  0  0  0  0  0  0
   10.8994  -19.2910   20.1006 O   0  0  0  0  0  0  0  0  0  0  0  0
   10.3229  -17.0955   20.9304 C   0  0  2  0  0  0  0  0  0  0  0  0
   11.3113  -16.4944   20.0340 N   0  0  0  0  0  0  0  0  0  0  0  0
   10.1921  -16.2321   22.0988 C   0  0  0  0  0  0  0  0  0  0  0  0
   11.2174  -15.7641   22.7077 O   0  0  0  0  0  0  0  0  0  0  0  0
    8.9517  -15.8167   22.6847 N   0  0  0  0  0  0  0  0  0  0  0  0
    8.8816  -15.0922   23.9347 C   0  0  1  0  0  0  0  0  0  0  0  0
    7.5899  -14.2958   23.8455 C   0  0  0  0  0  0  0  0  0  0  0  0
    7.2187  -13.5710   25.0501 C   0  0  0  0  0  0  0  0  0  0  0  0
    7.6310  -12.2695   25.2521 C   0  0  0  0  0  0  0  0  0  0  0  0
    7.2264  -11.6406   26.4048 C   0  0  0  0  0  0  0  0  0  0  0  0
    6.4289  -12.2596   27.3595 C   0  0  0  0  0  0  0  0  0  0  0  0
    6.0229  -13.5556   27.1503 C   0  0  0  0  0  0  0  0  0  0  0  0
    6.4244  -14.1892   25.9999 C   0  0  0  0  0  0  0  0  0  0  0  0
    9.0308  -15.8585   25.1563 C   0  0  0  0  0  0  0  0  0  0  0  0
    8.5240  -17.0632   25.1131 O   0  0  0  0  0  0  0  0  0  0  0  0
    9.6168  -15.5554   26.3851 N   0  0  0  0  0  0  0  0  0  0  0  0
    9.7745  -14.2703   27.0157 C   0  0  0  0  0  0  0  0  0  0  0  0
   11.2955  -14.2960   27.2696 C   0  0  0  0  0  0  0  0  0  0  0  0
   11.4684  -15.7245   27.7660 C   0  0  0  0  0  0  0  0  0  0  0  0
   10.2353  -16.4780   27.3469 C   0  0  1  0  0  0  0  0  0  0  0  0
    9.3451  -16.7354   28.5026 C   0  0  0  0  0  0  0  0  0  0  0  0
    7.9803  -16.4209   28.5050 O   0  0  0  0  0  0  0  0  0  0  0  0
    9.7727  -17.2594   29.5624 O   0  0  0  0  0  0  0  0  0  0  0  0
  2  1  1  1
  3  2  1  0
  4  6  1  0
  4  2  1  0
  4  5  1  6
  6  8  1  0
  7  6  2  0
  8  9  1  0
  9 10  1  1
 11 16  1  0
 11 10  1  0
 12 11  2  0
 13 14  2  0
 13 12  1  0
 14 15  1  0
 15 16  2  0
 17 18  2  0
 17  9  1  0
 19 17  1  0
 20 21  1  0
 20 19  1  0
 21 22  1  0
 22 23  1  0
 23 19  1  0
 23 24  1  1
 25 24  1  0
 26 24  2  0
M  END
$$$$
