DPK.pdb
     RDKit          3D

 25 25  0  0  1  0  0  0  0  0999 V2000
   18.6425  -10.4416  -15.5059 N   0  0  0  0  0  0  0  0  0  0  0  0
   18.9289   -9.1452  -15.0423 C   0  0  1  0  0  0  0  0  0  0  0  0
   17.9391   -8.1723  -15.6508 C   0  0  0  0  0  0  0  0  0  0  0  0
   17.9374   -8.2518  -17.1309 C   0  0  0  0  0  0  0  0  0  0  0  0
   18.9745   -7.9630  -17.7736 O   0  0  0  0  0  0  0  0  0  0  0  0
   18.9396   -8.9164  -13.5916 C   0  0  0  0  0  0  0  0  0  0  0  0
   18.4293   -9.8960  -12.9348 O   0  0  0  0  0  0  0  0  0  0  0  0
   16.8090   -8.6406  -17.8283 O   0  0  0  0  0  0  0  0  0  0  0  0
   19.4363   -7.7757  -12.9136 N   0  0  0  0  0  0  0  0  0  0  0  0
   20.0827   -6.5750  -13.3530 C   0  0  0  0  0  0  0  0  0  0  0  0
   21.3381   -6.6099  -12.5034 C   0  0  0  0  0  0  0  0  0  0  0  0
   20.6943   -6.9800  -11.1584 C   0  0  0  0  0  0  0  0  0  0  0  0
   19.3647   -7.6118  -11.4817 C   0  0  1  0  0  0  0  0  0  0  0  0
   18.2882   -6.6993  -11.0354 C   0  0  0  0  0  0  0  0  0  0  0  0
   18.0820   -5.6924  -11.7811 O   0  0  0  0  0  0  0  0  0  0  0  0
   17.4947   -6.8368   -9.8943 N   0  0  0  0  0  0  0  0  0  0  0  0
   16.3740   -5.9114   -9.6322 C   0  0  1  0  0  0  0  0  0  0  0  0
   15.2307   -6.6698   -9.0022 C   0  0  0  0  0  0  0  0  0  0  0  0
   14.6773   -7.7748   -9.8474 C   0  0  0  0  0  0  0  0  0  0  0  0
   13.5440   -8.4475   -9.0937 C   0  0  0  0  0  0  0  0  0  0  0  0
   12.9375   -9.6002   -9.8327 C   0  0  0  0  0  0  0  0  0  0  0  0
   11.9377  -10.2789   -9.0006 N   0  0  0  0  0  0  0  0  0  0  0  0
   16.8395   -4.7567   -8.8758 C   0  0  0  0  0  0  0  0  0  0  0  0
   16.2141   -3.5282   -8.8482 O   0  0  0  0  0  0  0  0  0  0  0  0
   17.9002   -4.8479   -8.1763 O   0  0  0  0  0  0  0  0  0  0  0  0
  2  1  1  1
  2  3  1  0
  3  4  1  0
  4  8  1  0
  5  4  2  0
  6  2  1  0
  7  6  2  0
  9 13  1  0
  9  6  1  0
 10 11  1  0
 10  9  1  0
 11 12  1  0
 12 13  1  0
 13 14  1  6
 14 15  2  0
 16 14  1  0
 17 16  1  0
 17 23  1  0
 17 18  1  1
 19 18  1  0
 20 19  1  0
 20 21  1  0
 22 21  1  0
 23 25  2  0
 23 24  1  0
M  END
$$$$
