DPK.pdb
     RDKit          3D

 25 25  0  0  1  0  0  0  0  0999 V2000
   26.0238  -22.2937  -13.9556 N   0  0  0  0  0  0  0  0  0  0  0  0
   25.4930  -21.2803  -13.1377 C   0  0  1  0  0  0  0  0  0  0  0  0
   24.4691  -20.4915  -13.9287 C   0  0  0  0  0  0  0  0  0  0  0  0
   25.0388  -19.9783  -15.1973 C   0  0  0  0  0  0  0  0  0  0  0  0
   25.6761  -18.8986  -15.2045 O   0  0  0  0  0  0  0  0  0  0  0  0
   24.8655  -21.6734  -11.8693 C   0  0  0  0  0  0  0  0  0  0  0  0
   24.4877  -22.9016  -11.8667 O   0  0  0  0  0  0  0  0  0  0  0  0
   24.8836  -20.6675  -16.3855 O   0  0  0  0  0  0  0  0  0  0  0  0
   24.6616  -20.8546  -10.7310 N   0  0  0  0  0  0  0  0  0  0  0  0
   24.8888  -19.4651  -10.4663 C   0  0  0  0  0  0  0  0  0  0  0  0
   25.7552  -19.5581   -9.2253 C   0  0  0  0  0  0  0  0  0  0  0  0
   24.9460  -20.6163   -8.4597 C   0  0  0  0  0  0  0  0  0  0  0  0
   24.1209  -21.3476   -9.4873 C   0  0  1  0  0  0  0  0  0  0  0  0
   22.6959  -21.0083   -9.2762 C   0  0  0  0  0  0  0  0  0  0  0  0
   22.2394  -20.0833  -10.0168 O   0  0  0  0  0  0  0  0  0  0  0  0
   21.8233  -21.5957   -8.3573 N   0  0  0  0  0  0  0  0  0  0  0  0
   20.5701  -22.2376   -8.8028 C   0  0  1  0  0  0  0  0  0  0  0  0
   20.0078  -23.0778   -7.6816 C   0  0  0  0  0  0  0  0  0  0  0  0
   18.7279  -23.7805   -8.0133 C   0  0  0  0  0  0  0  0  0  0  0  0
   18.2698  -24.5642   -6.7963 C   0  0  0  0  0  0  0  0  0  0  0  0
   17.0057  -25.3341   -7.0237 C   0  0  0  0  0  0  0  0  0  0  0  0
   16.6051  -26.0423   -5.8027 N   0  0  0  0  0  0  0  0  0  0  0  0
   19.6570  -21.2400   -9.3439 C   0  0  0  0  0  0  0  0  0  0  0  0
   19.7330  -19.8855   -9.0974 O   0  0  0  0  0  0  0  0  0  0  0  0
   18.7031  -21.6061  -10.1047 O   0  0  0  0  0  0  0  0  0  0  0  0
  2  1  1  6
  2  3  1  0
  3  4  1  0
  4  8  1  0
  5  4  2  0
  6  2  1  0
  7  6  2  0
  9 13  1  0
  9  6  1  0
 10 11  1  0
 10  9  1  0
 11 12  1  0
 12 13  1  0
 13 14  1  1
 14 15  2  0
 16 14  1  0
 17 16  1  0
 17 23  1  0
 17 18  1  1
 19 18  1  0
 20 19  1  0
 20 21  1  0
 22 21  1  0
 23 25  2  0
 23 24  1  0
M  END
$$$$
