DPK.pdb
     RDKit          3D

 25 25  0  0  1  0  0  0  0  0999 V2000
   19.4350  -10.4005  -16.3378 N   0  0  0  0  0  0  0  0  0  0  0  0
   19.2472   -9.1147  -15.8001 C   0  0  1  0  0  0  0  0  0  0  0  0
   17.9124   -8.5722  -16.2695 C   0  0  0  0  0  0  0  0  0  0  0  0
   17.9338   -8.2509  -17.7164 C   0  0  0  0  0  0  0  0  0  0  0  0
   18.7620   -7.4206  -18.1601 O   0  0  0  0  0  0  0  0  0  0  0  0
   19.2986   -8.9615  -14.3403 C   0  0  0  0  0  0  0  0  0  0  0  0
   18.9024  -10.0151  -13.7204 O   0  0  0  0  0  0  0  0  0  0  0  0
   17.0542   -8.8499  -18.5987 O   0  0  0  0  0  0  0  0  0  0  0  0
   19.7230   -7.8181  -13.6190 N   0  0  0  0  0  0  0  0  0  0  0  0
   20.1871   -6.5221  -14.0157 C   0  0  0  0  0  0  0  0  0  0  0  0
   21.5104   -6.4644  -13.2776 C   0  0  0  0  0  0  0  0  0  0  0  0
   21.0373   -6.9985  -11.9170 C   0  0  0  0  0  0  0  0  0  0  0  0
   19.7636   -7.7609  -12.1778 C   0  0  1  0  0  0  0  0  0  0  0  0
   18.6361   -7.0154  -11.5749 C   0  0  0  0  0  0  0  0  0  0  0  0
   18.2867   -5.9616  -12.1912 O   0  0  0  0  0  0  0  0  0  0  0  0
   17.9349   -7.3530  -10.4151 N   0  0  0  0  0  0  0  0  0  0  0  0
   16.6193   -6.7505  -10.1201 C   0  0  1  0  0  0  0  0  0  0  0  0
   15.6057   -7.8440   -9.8830 C   0  0  0  0  0  0  0  0  0  0  0  0
   14.2413   -7.3557   -9.5064 C   0  0  0  0  0  0  0  0  0  0  0  0
   13.3585   -8.5535   -9.2044 C   0  0  0  0  0  0  0  0  0  0  0  0
   11.9578   -8.1820   -8.8265 C   0  0  0  0  0  0  0  0  0  0  0  0
   11.1771   -9.3793   -8.4955 N   0  0  0  0  0  0  0  0  0  0  0  0
   16.7402   -5.7772   -9.0430 C   0  0  0  0  0  0  0  0  0  0  0  0
   15.9180   -4.6835   -8.8728 O   0  0  0  0  0  0  0  0  0  0  0  0
   17.6621   -5.9106   -8.1741 O   0  0  0  0  0  0  0  0  0  0  0  0
  2  1  1  1
  2  3  1  0
  3  4  1  0
  4  8  1  0
  5  4  2  0
  6  2  1  0
  7  6  2  0
  9 13  1  0
  9  6  1  0
 10 11  1  0
 10  9  1  0
 11 12  1  0
 12 13  1  0
 13 14  1  6
 14 15  2  0
 16 14  1  0
 17 16  1  0
 17 23  1  0
 17 18  1  1
 19 18  1  0
 20 19  1  0
 20 21  1  0
 22 21  1  0
 23 25  2  0
 23 24  1  0
M  END
$$$$
