DPK.pdb
     RDKit          3D

 25 25  0  0  1  0  0  0  0  0999 V2000
   19.6580  -10.4497  -15.8083 N   0  0  0  0  0  0  0  0  0  0  0  0
   19.5528   -9.1125  -15.3858 C   0  0  1  0  0  0  0  0  0  0  0  0
   18.2627   -8.5246  -15.9210 C   0  0  0  0  0  0  0  0  0  0  0  0
   18.2100   -8.5847  -17.4011 C   0  0  0  0  0  0  0  0  0  0  0  0
   17.1649   -8.9740  -17.9740 O   0  0  0  0  0  0  0  0  0  0  0  0
   19.5998   -8.8374  -13.9438 C   0  0  0  0  0  0  0  0  0  0  0  0
   19.3485   -9.8795  -13.2352 O   0  0  0  0  0  0  0  0  0  0  0  0
   19.2957   -8.2183  -18.1744 O   0  0  0  0  0  0  0  0  0  0  0  0
   19.8821   -7.5952  -13.3232 N   0  0  0  0  0  0  0  0  0  0  0  0
   20.1999   -6.2933  -13.8295 C   0  0  0  0  0  0  0  0  0  0  0  0
   21.4989   -6.0210  -13.0964 C   0  0  0  0  0  0  0  0  0  0  0  0
   21.0736   -6.4873  -11.6956 C   0  0  0  0  0  0  0  0  0  0  0  0
   19.8985   -7.4105  -11.8923 C   0  0  1  0  0  0  0  0  0  0  0  0
   18.6860   -6.7505  -11.3585 C   0  0  0  0  0  0  0  0  0  0  0  0
   18.2201   -5.8072  -12.0695 O   0  0  0  0  0  0  0  0  0  0  0  0
   18.0198   -7.0594  -10.1705 N   0  0  0  0  0  0  0  0  0  0  0  0
   16.6163   -6.6517   -9.9583 C   0  0  1  0  0  0  0  0  0  0  0  0
   15.7693   -7.8748   -9.7019 C   0  0  0  0  0  0  0  0  0  0  0  0
   14.3345   -7.5827   -9.3893 C   0  0  0  0  0  0  0  0  0  0  0  0
   13.6295   -8.8866   -9.0606 C   0  0  0  0  0  0  0  0  0  0  0  0
   12.1879   -8.7099   -8.6957 C   0  0  0  0  0  0  0  0  0  0  0  0
   11.5458  -10.0115   -8.4808 N   0  0  0  0  0  0  0  0  0  0  0  0
   16.5399   -5.6219   -8.9309 C   0  0  0  0  0  0  0  0  0  0  0  0
   15.6166   -4.5980   -8.9081 O   0  0  0  0  0  0  0  0  0  0  0  0
   17.3708   -5.6324   -7.9654 O   0  0  0  0  0  0  0  0  0  0  0  0
  2  1  1  1
  2  3  1  0
  3  4  1  0
  4  8  1  0
  5  4  2  0
  6  2  1  0
  7  6  2  0
  9 13  1  0
  9  6  1  0
 10 11  1  0
 10  9  1  0
 11 12  1  0
 12 13  1  0
 13 14  1  6
 14 15  2  0
 16 14  1  0
 17 16  1  0
 17 23  1  0
 17 18  1  1
 19 18  1  0
 20 19  1  0
 20 21  1  0
 22 21  1  0
 23 25  2  0
 23 24  1  0
M  END
$$$$
