DPK.pdb
     RDKit          3D

 25 25  0  0  1  0  0  0  0  0999 V2000
   17.8603  -14.5506  -16.8342 N   0  0  0  0  0  0  0  0  0  0  0  0
   18.3316  -13.4104  -17.5091 C   0  0  1  0  0  0  0  0  0  0  0  0
   17.1744  -12.7483  -18.2295 C   0  0  0  0  0  0  0  0  0  0  0  0
   16.5390  -13.6700  -19.2010 C   0  0  0  0  0  0  0  0  0  0  0  0
   17.2167  -14.1546  -20.1380 O   0  0  0  0  0  0  0  0  0  0  0  0
   19.0144  -12.3746  -16.7230 C   0  0  0  0  0  0  0  0  0  0  0  0
   18.4392  -12.1529  -15.5955 O   0  0  0  0  0  0  0  0  0  0  0  0
   15.2037  -14.0126  -19.0992 O   0  0  0  0  0  0  0  0  0  0  0  0
   20.1777  -11.6547  -17.0921 N   0  0  0  0  0  0  0  0  0  0  0  0
   20.9586  -11.5969  -18.2918 C   0  0  0  0  0  0  0  0  0  0  0  0
   22.3333  -11.9258  -17.7431 C   0  0  0  0  0  0  0  0  0  0  0  0
   22.3094  -11.0165  -16.5049 C   0  0  0  0  0  0  0  0  0  0  0  0
   20.8580  -10.7411  -16.2062 C   0  0  1  0  0  0  0  0  0  0  0  0
   20.5812   -9.3146  -16.4875 C   0  0  0  0  0  0  0  0  0  0  0  0
   20.5831   -8.9899  -17.7150 O   0  0  0  0  0  0  0  0  0  0  0  0
   20.3248   -8.3116  -15.5499 N   0  0  0  0  0  0  0  0  0  0  0  0
   19.9873   -6.9393  -15.9785 C   0  0  1  0  0  0  0  0  0  0  0  0
   18.5838   -6.6034  -15.5351 C   0  0  0  0  0  0  0  0  0  0  0  0
   17.5045   -7.2727  -16.3281 C   0  0  0  0  0  0  0  0  0  0  0  0
   16.5390   -7.9470  -15.3699 C   0  0  0  0  0  0  0  0  0  0  0  0
   15.4409   -8.6968  -16.0588 C   0  0  0  0  0  0  0  0  0  0  0  0
   14.6374   -9.4458  -15.0860 N   0  0  0  0  0  0  0  0  0  0  0  0
   21.0141   -6.0056  -15.5361 C   0  0  0  0  0  0  0  0  0  0  0  0
   21.1153   -4.6929  -15.9457 O   0  0  0  0  0  0  0  0  0  0  0  0
   21.9038   -6.3925  -14.7106 O   0  0  0  0  0  0  0  0  0  0  0  0
  2  1  1  1
  2  3  1  0
  3  4  1  0
  4  8  1  0
  5  4  2  0
  6  2  1  0
  7  6  2  0
  9 13  1  0
  9  6  1  0
 10 11  1  0
 10  9  1  0
 11 12  1  0
 12 13  1  0
 13 14  1  6
 14 15  2  0
 16 14  1  0
 17 16  1  0
 17 23  1  0
 17 18  1  1
 19 18  1  0
 20 19  1  0
 20 21  1  0
 22 21  1  0
 23 25  2  0
 23 24  1  0
M  END
$$$$
