DPK.pdb
     RDKit          3D

 25 25  0  0  1  0  0  0  0  0999 V2000
   27.3106  -21.6575  -14.5631 N   0  0  0  0  0  0  0  0  0  0  0  0
   27.1005  -20.4693  -15.2853 C   0  0  1  0  0  0  0  0  0  0  0  0
   26.9710  -20.8018  -16.7580 C   0  0  0  0  0  0  0  0  0  0  0  0
   28.1026  -21.6350  -17.2296 C   0  0  0  0  0  0  0  0  0  0  0  0
   29.1468  -21.0873  -17.6562 O   0  0  0  0  0  0  0  0  0  0  0  0
   25.9518  -19.6310  -14.9181 C   0  0  0  0  0  0  0  0  0  0  0  0
   25.1483  -20.2236  -14.1092 O   0  0  0  0  0  0  0  0  0  0  0  0
   28.0354  -23.0156  -17.2107 O   0  0  0  0  0  0  0  0  0  0  0  0
   25.6856  -18.3113  -15.3600 N   0  0  0  0  0  0  0  0  0  0  0  0
   26.3619  -17.4186  -16.2533 C   0  0  0  0  0  0  0  0  0  0  0  0
   26.5296  -16.2062  -15.3582 C   0  0  0  0  0  0  0  0  0  0  0  0
   25.1140  -16.1636  -14.7626 C   0  0  0  0  0  0  0  0  0  0  0  0
   24.5402  -17.5474  -14.9280 C   0  0  1  0  0  0  0  0  0  0  0  0
   23.4475  -17.4887  -15.9246 C   0  0  0  0  0  0  0  0  0  0  0  0
   23.7722  -17.8077  -17.1100 O   0  0  0  0  0  0  0  0  0  0  0  0
   22.1204  -17.1217  -15.6903 N   0  0  0  0  0  0  0  0  0  0  0  0
   21.0372  -18.1248  -15.7256 C   0  0  1  0  0  0  0  0  0  0  0  0
   21.4884  -19.3792  -15.0171 C   0  0  0  0  0  0  0  0  0  0  0  0
   21.4609  -20.6147  -15.8625 C   0  0  0  0  0  0  0  0  0  0  0  0
   21.0224  -21.7868  -15.0029 C   0  0  0  0  0  0  0  0  0  0  0  0
   21.0368  -23.0969  -15.7282 C   0  0  0  0  0  0  0  0  0  0  0  0
   20.5171  -24.1681  -14.8708 N   0  0  0  0  0  0  0  0  0  0  0  0
   19.7972  -17.5462  -15.2261 C   0  0  0  0  0  0  0  0  0  0  0  0
   18.6505  -17.3745  -15.9723 O   0  0  0  0  0  0  0  0  0  0  0  0
   19.7270  -17.1562  -14.0154 O   0  0  0  0  0  0  0  0  0  0  0  0
  2  1  1  1
  2  3  1  0
  3  4  1  0
  4  8  1  0
  5  4  2  0
  6  2  1  0
  7  6  2  0
  9 13  1  0
  9  6  1  0
 10 11  1  0
 10  9  1  0
 11 12  1  0
 12 13  1  0
 13 14  1  6
 14 15  2  0
 16 14  1  0
 17 16  1  0
 17 23  1  0
 17 18  1  1
 19 18  1  0
 20 19  1  0
 20 21  1  0
 22 21  1  0
 23 25  2  0
 23 24  1  0
M  END
$$$$
