DPK.pdb
     RDKit          3D

 25 25  0  0  1  0  0  0  0  0999 V2000
   21.3082  -21.9473  -14.3904 N   0  0  0  0  0  0  0  0  0  0  0  0
   20.5402  -21.3944  -13.3501 C   0  0  1  0  0  0  0  0  0  0  0  0
   19.0725  -21.4882  -13.7151 C   0  0  0  0  0  0  0  0  0  0  0  0
   18.7590  -20.6855  -14.9211 C   0  0  0  0  0  0  0  0  0  0  0  0
   18.9251  -19.4428  -14.9054 O   0  0  0  0  0  0  0  0  0  0  0  0
   20.6977  -21.9544  -12.0016 C   0  0  0  0  0  0  0  0  0  0  0  0
   21.2095  -23.1331  -12.0145 O   0  0  0  0  0  0  0  0  0  0  0  0
   18.2829  -21.2787  -16.0754 O   0  0  0  0  0  0  0  0  0  0  0  0
   20.3509  -21.3332  -10.7762 N   0  0  0  0  0  0  0  0  0  0  0  0
   19.6624  -20.1200  -10.4496 C   0  0  0  0  0  0  0  0  0  0  0  0
   20.6862  -19.4544   -9.5507 C   0  0  0  0  0  0  0  0  0  0  0  0
   21.0601  -20.6706   -8.6895 C   0  0  0  0  0  0  0  0  0  0  0  0
   20.6753  -21.8911   -9.4857 C   0  0  1  0  0  0  0  0  0  0  0  0
   19.5341  -22.5519   -8.8136 C   0  0  0  0  0  0  0  0  0  0  0  0
   18.3849  -22.1208   -9.1390 O   0  0  0  0  0  0  0  0  0  0  0  0
   19.5997  -23.5826   -7.8734 N   0  0  0  0  0  0  0  0  0  0  0  0
   18.3789  -24.2858   -7.4305 C   0  0  1  0  0  0  0  0  0  0  0  0
   18.7607  -25.4634   -6.5664 C   0  0  0  0  0  0  0  0  0  0  0  0
   17.6076  -26.3104   -6.1252 C   0  0  0  0  0  0  0  0  0  0  0  0
   18.1320  -27.4337   -5.2486 C   0  0  0  0  0  0  0  0  0  0  0  0
   17.0691  -28.3919   -4.8074 C   0  0  0  0  0  0  0  0  0  0  0  0
   17.6469  -29.4630   -3.9879 N   0  0  0  0  0  0  0  0  0  0  0  0
   17.4498  -23.3463   -6.8173 C   0  0  0  0  0  0  0  0  0  0  0  0
   17.8163  -22.2762   -6.0287 O   0  0  0  0  0  0  0  0  0  0  0  0
   16.1971  -23.4904   -6.9982 O   0  0  0  0  0  0  0  0  0  0  0  0
  2  1  1  6
  2  3  1  0
  3  4  1  0
  4  8  1  0
  5  4  2  0
  6  2  1  0
  7  6  2  0
  9 13  1  0
  9  6  1  0
 10 11  1  0
 10  9  1  0
 11 12  1  0
 12 13  1  0
 13 14  1  1
 14 15  2  0
 16 14  1  0
 17 16  1  0
 17 23  1  0
 17 18  1  1
 19 18  1  0
 20 19  1  0
 20 21  1  0
 22 21  1  0
 23 25  2  0
 23 24  1  0
M  END
$$$$
