DPK.pdb
     RDKit          3D

 25 25  0  0  1  0  0  0  0  0999 V2000
   18.9369  -10.6558  -14.9572 N   0  0  0  0  0  0  0  0  0  0  0  0
   19.0784   -9.2742  -14.7365 C   0  0  1  0  0  0  0  0  0  0  0  0
   18.0908   -8.5296  -15.6119 C   0  0  0  0  0  0  0  0  0  0  0  0
   18.2577   -8.8816  -17.0420 C   0  0  0  0  0  0  0  0  0  0  0  0
   17.2953   -9.3669  -17.6827 O   0  0  0  0  0  0  0  0  0  0  0  0
   18.9194   -8.7734  -13.3650 C   0  0  0  0  0  0  0  0  0  0  0  0
   18.3300   -9.6187  -12.5973 O   0  0  0  0  0  0  0  0  0  0  0  0
   19.4606   -8.6865  -17.6945 O   0  0  0  0  0  0  0  0  0  0  0  0
   19.3392   -7.5161  -12.8641 N   0  0  0  0  0  0  0  0  0  0  0  0
   19.8617   -6.3355  -13.4849 C   0  0  0  0  0  0  0  0  0  0  0  0
   21.1457   -6.1548  -12.6986 C   0  0  0  0  0  0  0  0  0  0  0  0
   20.5862   -6.3949  -11.2880 C   0  0  0  0  0  0  0  0  0  0  0  0
   19.3059   -7.1704  -11.4635 C   0  0  1  0  0  0  0  0  0  0  0  0
   18.1709   -6.2980  -11.0877 C   0  0  0  0  0  0  0  0  0  0  0  0
   17.8242   -5.4458  -11.9630 O   0  0  0  0  0  0  0  0  0  0  0  0
   17.4601   -6.3213   -9.8856 N   0  0  0  0  0  0  0  0  0  0  0  0
   16.2371   -5.5123   -9.7103 C   0  0  1  0  0  0  0  0  0  0  0  0
   15.2359   -6.2844   -8.8853 C   0  0  0  0  0  0  0  0  0  0  0  0
   14.6200   -7.4534   -9.5894 C   0  0  0  0  0  0  0  0  0  0  0  0
   13.5747   -8.0768   -8.6818 C   0  0  0  0  0  0  0  0  0  0  0  0
   12.9943   -9.3463   -9.2242 C   0  0  0  0  0  0  0  0  0  0  0  0
   14.0437  -10.3535   -9.4164 N   0  0  0  0  0  0  0  0  0  0  0  0
   16.5748   -4.1926   -9.1943 C   0  0  0  0  0  0  0  0  0  0  0  0
   17.8345   -3.8020   -8.7919 O   0  0  0  0  0  0  0  0  0  0  0  0
   15.6665   -3.3055   -9.0905 O   0  0  0  0  0  0  0  0  0  0  0  0
  2  1  1  1
  2  3  1  0
  3  4  1  0
  4  8  1  0
  5  4  2  0
  6  2  1  0
  7  6  2  0
  9 13  1  0
  9  6  1  0
 10 11  1  0
 10  9  1  0
 11 12  1  0
 12 13  1  0
 13 14  1  6
 14 15  2  0
 16 14  1  0
 17 16  1  0
 17 23  1  0
 17 18  1  1
 19 18  1  0
 20 19  1  0
 20 21  1  0
 22 21  1  0
 23 25  2  0
 23 24  1  0
M  END
$$$$
