DPK.pdb
     RDKit          3D

 25 25  0  0  1  0  0  0  0  0999 V2000
   23.4184  -20.3899   -9.9424 N   0  0  0  0  0  0  0  0  0  0  0  0
   23.9648  -20.8052  -11.1698 C   0  0  1  0  0  0  0  0  0  0  0  0
   22.8548  -20.9075  -12.1962 C   0  0  0  0  0  0  0  0  0  0  0  0
   21.7460  -21.7657  -11.7153 C   0  0  0  0  0  0  0  0  0  0  0  0
   21.8500  -23.0137  -11.7765 O   0  0  0  0  0  0  0  0  0  0  0  0
   25.0385  -19.9941  -11.7583 C   0  0  0  0  0  0  0  0  0  0  0  0
   24.8283  -18.7327  -11.6323 O   0  0  0  0  0  0  0  0  0  0  0  0
   20.5877  -21.2191  -11.1954 O   0  0  0  0  0  0  0  0  0  0  0  0
   26.2050  -20.4686  -12.4080 N   0  0  0  0  0  0  0  0  0  0  0  0
   26.7198  -21.7796  -12.6699 C   0  0  0  0  0  0  0  0  0  0  0  0
   28.1027  -21.6607  -12.0592 C   0  0  0  0  0  0  0  0  0  0  0  0
   28.4884  -20.2878  -12.6310 C   0  0  0  0  0  0  0  0  0  0  0  0
   27.1975  -19.5975  -12.9896 C   0  0  1  0  0  0  0  0  0  0  0  0
   27.1131  -19.4915  -14.4634 C   0  0  0  0  0  0  0  0  0  0  0  0
   26.8325  -20.5694  -15.0731 O   0  0  0  0  0  0  0  0  0  0  0  0
   27.3102  -18.3421  -15.2321 N   0  0  0  0  0  0  0  0  0  0  0  0
   26.5461  -18.1198  -16.4762 C   0  0  1  0  0  0  0  0  0  0  0  0
   25.6945  -16.8818  -16.3304 C   0  0  0  0  0  0  0  0  0  0  0  0
   24.8975  -16.5288  -17.5477 C   0  0  0  0  0  0  0  0  0  0  0  0
   23.4591  -16.2732  -17.1344 C   0  0  0  0  0  0  0  0  0  0  0  0
   22.5485  -15.9882  -18.2886 C   0  0  0  0  0  0  0  0  0  0  0  0
   21.1809  -15.7400  -17.8187 N   0  0  0  0  0  0  0  0  0  0  0  0
   27.4415  -18.1209  -17.6252 C   0  0  0  0  0  0  0  0  0  0  0  0
   27.0365  -18.2124  -18.9401 O   0  0  0  0  0  0  0  0  0  0  0  0
   28.6993  -18.0338  -17.4436 O   0  0  0  0  0  0  0  0  0  0  0  0
  2  1  1  1
  2  3  1  0
  3  4  1  0
  4  8  1  0
  5  4  2  0
  6  2  1  0
  7  6  2  0
  9 13  1  0
  9  6  1  0
 10 11  1  0
 10  9  1  0
 11 12  1  0
 12 13  1  0
 13 14  1  6
 14 15  2  0
 16 14  1  0
 17 16  1  0
 17 23  1  0
 17 18  1  1
 19 18  1  0
 20 19  1  0
 20 21  1  0
 22 21  1  0
 23 25  2  0
 23 24  1  0
M  END
$$$$
