DPK.pdb
     RDKit          3D

 25 25  0  0  1  0  0  0  0  0999 V2000
   16.6903  -11.6174  -16.8774 N   0  0  0  0  0  0  0  0  0  0  0  0
   16.3637  -10.4701  -16.1326 C   0  0  1  0  0  0  0  0  0  0  0  0
   16.2780  -10.8402  -14.6657 C   0  0  0  0  0  0  0  0  0  0  0  0
   15.3893  -12.0067  -14.4496 C   0  0  0  0  0  0  0  0  0  0  0  0
   14.2080  -11.9786  -14.8691 O   0  0  0  0  0  0  0  0  0  0  0  0
   17.2447   -9.3002  -16.2432 C   0  0  0  0  0  0  0  0  0  0  0  0
   18.2796   -9.5300  -16.9694 O   0  0  0  0  0  0  0  0  0  0  0  0
   15.8346  -13.1371  -13.7903 O   0  0  0  0  0  0  0  0  0  0  0  0
   17.0493   -8.0285  -15.6495 N   0  0  0  0  0  0  0  0  0  0  0  0
   15.9788   -7.4513  -14.8922 C   0  0  0  0  0  0  0  0  0  0  0  0
   15.7071   -6.2011  -15.7060 C   0  0  0  0  0  0  0  0  0  0  0  0
   17.1591   -5.7455  -15.9177 C   0  0  0  0  0  0  0  0  0  0  0  0
   18.0219   -6.9648  -15.7174 C   0  0  1  0  0  0  0  0  0  0  0  0
   18.8060   -6.7886  -14.4746 C   0  0  0  0  0  0  0  0  0  0  0  0
   18.4454   -7.5109  -13.4945 O   0  0  0  0  0  0  0  0  0  0  0  0
   19.8823   -5.9198  -14.2807 N   0  0  0  0  0  0  0  0  0  0  0  0
   21.1848   -6.4200  -13.7967 C   0  0  1  0  0  0  0  0  0  0  0  0
   21.6746   -7.5173  -14.7105 C   0  0  0  0  0  0  0  0  0  0  0  0
   23.0393   -8.0377  -14.3809 C   0  0  0  0  0  0  0  0  0  0  0  0
   23.3900   -9.1460  -15.3576 C   0  0  0  0  0  0  0  0  0  0  0  0
   24.7414   -9.7456  -15.1193 C   0  0  0  0  0  0  0  0  0  0  0  0
   24.9773  -10.8683  -16.0340 N   0  0  0  0  0  0  0  0  0  0  0  0
   22.1127   -5.3127  -13.6098 C   0  0  0  0  0  0  0  0  0  0  0  0
   22.9919   -5.1904  -12.5547 O   0  0  0  0  0  0  0  0  0  0  0  0
   22.1438   -4.3664  -14.4619 O   0  0  0  0  0  0  0  0  0  0  0  0
  2  1  1  6
  2  3  1  0
  3  4  1  0
  4  8  1  0
  5  4  2  0
  6  2  1  0
  7  6  2  0
  9 13  1  0
  9  6  1  0
 10 11  1  0
 10  9  1  0
 11 12  1  0
 12 13  1  0
 13 14  1  1
 14 15  2  0
 16 14  1  0
 17 16  1  0
 17 23  1  0
 17 18  1  6
 19 18  1  0
 20 19  1  0
 20 21  1  0
 22 21  1  0
 23 25  2  0
 23 24  1  0
M  END
$$$$
