YVT.pdb
     RDKit          3D

 27 27  0  0  1  0  0  0  0  0999 V2000
   28.7882  -13.8712  -17.9652 O   0  0  0  0  0  0  0  0  0  0  0  0
   28.1158  -14.9881  -17.4737 C   0  0  0  0  0  0  0  0  0  0  0  0
   27.7813  -14.9785  -16.1236 C   0  0  0  0  0  0  0  0  0  0  0  0
   27.1074  -16.0836  -15.6033 C   0  0  0  0  0  0  0  0  0  0  0  0
   26.8013  -17.1346  -16.4403 C   0  0  0  0  0  0  0  0  0  0  0  0
   26.0894  -18.2951  -15.8769 C   0  0  0  0  0  0  0  0  0  0  0  0
   27.0232  -19.2377  -15.1506 C   0  0  2  0  0  0  0  0  0  0  0  0
   27.9903  -19.8504  -16.0005 N   0  0  0  0  0  0  0  0  0  0  0  0
   26.1819  -20.2746  -14.4967 C   0  0  0  0  0  0  0  0  0  0  0  0
   25.9448  -21.3220  -15.1380 O   0  0  0  0  0  0  0  0  0  0  0  0
   27.1313  -17.1470  -17.7779 C   0  0  0  0  0  0  0  0  0  0  0  0
   27.8059  -16.0431  -18.3038 C   0  0  0  0  0  0  0  0  0  0  0  0
   26.5876  -21.4666  -10.8582 C   0  0  0  0  0  0  0  0  0  0  0  0
   25.1366  -21.1477  -11.0749 C   0  0  1  0  0  0  0  0  0  0  0  0
   24.7488  -19.8587  -10.3696 C   0  0  0  0  0  0  0  0  0  0  0  0
   24.7900  -21.0854  -12.5524 C   0  0  2  0  0  0  0  0  0  0  0  0
   25.6420  -20.1332  -13.1947 N   0  0  0  0  0  0  0  0  0  0  0  0
   23.3484  -20.7987  -12.7622 C   0  0  0  0  0  0  0  0  0  0  0  0
   22.8760  -19.6534  -12.5433 O   0  0  0  0  0  0  0  0  0  0  0  0
   19.1544  -21.8458  -15.0167 C   0  0  0  0  0  0  0  0  0  0  0  0
   20.6321  -22.1445  -14.7564 C   0  0  1  0  0  0  0  0  0  0  0  0
   21.3969  -21.5904  -15.7831 O   0  0  0  0  0  0  0  0  0  0  0  0
   21.0425  -21.4367  -13.4753 C   0  0  2  0  0  0  0  0  0  0  0  0
   22.4254  -21.7839  -13.2163 N   0  0  0  0  0  0  0  0  0  0  0  0
   20.1601  -21.7998  -12.3360 C   0  0  0  0  0  0  0  0  0  0  0  0
   19.1283  -20.9224  -12.0364 O   0  0  0  0  0  0  0  0  0  0  0  0
   20.3553  -22.8511  -11.6906 O   0  0  0  0  0  0  0  0  0  0  0  0
  2  1  1  0
  3  2  2  0
  4  3  1  0
  5  4  2  0
  5 11  1  0
  6  5  1  0
  7  9  1  0
  7  6  1  0
  7  8  1  6
  9 17  1  0
 10  9  2  0
 11 12  2  0
 12  2  1  0
 14 15  1  6
 14 13  1  0
 16 14  1  0
 16 17  1  6
 18 19  2  0
 18 16  1  0
 21 20  1  6
 21 22  1  0
 23 24  1  1
 23 21  1  0
 24 18  1  0
 25 23  1  0
 26 25  1  0
 27 25  2  0
M  END
$$$$
