YVT.pdb
     RDKit          3D

 27 27  0  0  1  0  0  0  0  0999 V2000
   16.8747  -24.2020  -15.8884 O   0  0  0  0  0  0  0  0  0  0  0  0
   18.0621  -23.5598  -15.5436 C   0  0  0  0  0  0  0  0  0  0  0  0
   18.1874  -22.2252  -15.9151 C   0  0  0  0  0  0  0  0  0  0  0  0
   19.3655  -21.5561  -15.5833 C   0  0  0  0  0  0  0  0  0  0  0  0
   20.3528  -22.2376  -14.9052 C   0  0  0  0  0  0  0  0  0  0  0  0
   21.5918  -21.5182  -14.5612 C   0  0  0  0  0  0  0  0  0  0  0  0
   21.6613  -21.1762  -13.0894 C   0  0  2  0  0  0  0  0  0  0  0  0
   20.5709  -20.3764  -12.6371 N   0  0  0  0  0  0  0  0  0  0  0  0
   22.9485  -20.4679  -12.8618 C   0  0  0  0  0  0  0  0  0  0  0  0
   22.9632  -19.2255  -13.0059 O   0  0  0  0  0  0  0  0  0  0  0  0
   20.2316  -23.5594  -14.5358 C   0  0  0  0  0  0  0  0  0  0  0  0
   19.0540  -24.2339  -14.8657 C   0  0  0  0  0  0  0  0  0  0  0  0
   25.0589  -20.2771   -9.8591 C   0  0  0  0  0  0  0  0  0  0  0  0
   25.9540  -20.8099  -10.9402 C   0  0  1  0  0  0  0  0  0  0  0  0
   26.1800  -22.3038  -10.7761 C   0  0  0  0  0  0  0  0  0  0  0  0
   25.4153  -20.4896  -12.3239 C   0  0  2  0  0  0  0  0  0  0  0  0
   24.1466  -21.1276  -12.4930 N   0  0  0  0  0  0  0  0  0  0  0  0
   26.3873  -20.8552  -13.3850 C   0  0  0  0  0  0  0  0  0  0  0  0
   27.4711  -21.4284  -13.1027 O   0  0  0  0  0  0  0  0  0  0  0  0
   26.7760  -23.3551  -15.4770 C   0  0  0  0  0  0  0  0  0  0  0  0
   26.6746  -22.1887  -16.4619 C   0  0  1  0  0  0  0  0  0  0  0  0
   25.3337  -21.9804  -16.7854 O   0  0  0  0  0  0  0  0  0  0  0  0
   27.1552  -20.9292  -15.7593 C   0  0  2  0  0  0  0  0  0  0  0  0
   26.1590  -20.5851  -14.7647 N   0  0  0  0  0  0  0  0  0  0  0  0
   27.3862  -19.8162  -16.7164 C   0  0  0  0  0  0  0  0  0  0  0  0
   28.4079  -19.9837  -17.6397 O   0  0  0  0  0  0  0  0  0  0  0  0
   26.6820  -18.7855  -16.6750 O   0  0  0  0  0  0  0  0  0  0  0  0
  2  1  1  0
  3  2  2  0
  4  3  1  0
  5  4  2  0
  5 11  1  0
  6  5  1  0
  7  9  1  0
  7  6  1  0
  7  8  1  6
  9 17  1  0
 10  9  2  0
 11 12  2  0
 12  2  1  0
 14 15  1  1
 14 13  1  0
 16 14  1  0
 16 17  1  6
 18 19  2  0
 18 16  1  0
 21 20  1  1
 21 22  1  0
 23 24  1  1
 23 21  1  0
 24 18  1  0
 25 23  1  0
 26 25  1  0
 27 25  2  0
M  END
$$$$
