YVT.pdb
     RDKit          3D

 27 27  0  0  1  0  0  0  0  0999 V2000
   28.3920  -19.4800   -4.2563 O   0  0  0  0  0  0  0  0  0  0  0  0
   27.9701  -19.5311   -5.5832 C   0  0  0  0  0  0  0  0  0  0  0  0
   28.8446  -19.0307   -6.5421 C   0  0  0  0  0  0  0  0  0  0  0  0
   28.4490  -19.0688   -7.8793 C   0  0  0  0  0  0  0  0  0  0  0  0
   27.2164  -19.5967   -8.1967 C   0  0  0  0  0  0  0  0  0  0  0  0
   26.8118  -19.6304   -9.6132 C   0  0  0  0  0  0  0  0  0  0  0  0
   26.8012  -21.0374  -10.1685 C   0  0  2  0  0  0  0  0  0  0  0  0
   28.0785  -21.6706  -10.1434 N   0  0  0  0  0  0  0  0  0  0  0  0
   26.2938  -20.9568  -11.5636 C   0  0  0  0  0  0  0  0  0  0  0  0
   27.1240  -21.0666  -12.4927 O   0  0  0  0  0  0  0  0  0  0  0  0
   26.3481  -20.0931   -7.2492 C   0  0  0  0  0  0  0  0  0  0  0  0
   26.7393  -20.0573   -5.9091 C   0  0  0  0  0  0  0  0  0  0  0  0
   26.1155  -22.5097  -13.8593 C   0  0  0  0  0  0  0  0  0  0  0  0
   24.6455  -22.2150  -13.7816 C   0  0  1  0  0  0  0  0  0  0  0  0
   23.9140  -23.2865  -12.9901 C   0  0  0  0  0  0  0  0  0  0  0  0
   24.3791  -20.8352  -13.2051 C   0  0  2  0  0  0  0  0  0  0  0  0
   24.9281  -20.7633  -11.8865 N   0  0  0  0  0  0  0  0  0  0  0  0
   22.9337  -20.4982  -13.2439 C   0  0  0  0  0  0  0  0  0  0  0  0
   22.1553  -20.8730  -12.3293 O   0  0  0  0  0  0  0  0  0  0  0  0
   21.7073  -16.9285  -14.7793 C   0  0  0  0  0  0  0  0  0  0  0  0
   20.8479  -18.1184  -15.2110 C   0  0  1  0  0  0  0  0  0  0  0  0
   21.3441  -18.6274  -16.4113 O   0  0  0  0  0  0  0  0  0  0  0  0
   21.0021  -19.2184  -14.1732 C   0  0  2  0  0  0  0  0  0  0  0  0
   22.3470  -19.7431  -14.2995 N   0  0  0  0  0  0  0  0  0  0  0  0
   19.9774  -20.2819  -14.3384 C   0  0  0  0  0  0  0  0  0  0  0  0
   18.7028  -20.0047  -13.8662 O   0  0  0  0  0  0  0  0  0  0  0  0
   20.2704  -21.3685  -14.8801 O   0  0  0  0  0  0  0  0  0  0  0  0
  2  1  1  0
  3  2  2  0
  4  3  1  0
  5  4  2  0
  5 11  1  0
  6  5  1  0
  7  9  1  0
  7  6  1  0
  7  8  1  6
  9 17  1  0
 10  9  2  0
 11 12  2  0
 12  2  1  0
 14 15  1  1
 14 13  1  0
 16 14  1  0
 16 17  1  1
 18 19  2  0
 18 16  1  0
 21 20  1  1
 21 22  1  0
 23 24  1  6
 23 21  1  0
 24 18  1  0
 25 23  1  0
 26 25  1  0
 27 25  2  0
M  END
$$$$
