YVT.pdb
     RDKit          3D

 27 27  0  0  1  0  0  0  0  0999 V2000
   16.5077  -11.5113  -23.0085 O   0  0  0  0  0  0  0  0  0  0  0  0
   16.8755  -11.0343  -21.7521 C   0  0  0  0  0  0  0  0  0  0  0  0
   18.1985  -10.6359  -21.5920 C   0  0  0  0  0  0  0  0  0  0  0  0
   18.5957  -10.1538  -20.3447 C   0  0  0  0  0  0  0  0  0  0  0  0
   17.6693  -10.0911  -19.3265 C   0  0  0  0  0  0  0  0  0  0  0  0
   18.1030   -9.5798  -18.0144 C   0  0  0  0  0  0  0  0  0  0  0  0
   18.7127  -10.6645  -17.1544 C   0  0  2  0  0  0  0  0  0  0  0  0
   17.7752  -11.6517  -16.7308 N   0  0  0  0  0  0  0  0  0  0  0  0
   19.3274   -9.9989  -15.9756 C   0  0  0  0  0  0  0  0  0  0  0  0
   18.6346   -9.8927  -14.9396 O   0  0  0  0  0  0  0  0  0  0  0  0
   16.3582  -10.4850  -19.4821 C   0  0  0  0  0  0  0  0  0  0  0  0
   15.9554  -10.9683  -20.7288 C   0  0  0  0  0  0  0  0  0  0  0  0
   23.2756   -8.8909  -13.3743 C   0  0  0  0  0  0  0  0  0  0  0  0
   22.5356   -9.5767  -14.4861 C   0  0  1  0  0  0  0  0  0  0  0  0
   22.2298  -11.0220  -14.1295 C   0  0  0  0  0  0  0  0  0  0  0  0
   21.2680   -8.8288  -14.8620 C   0  0  2  0  0  0  0  0  0  0  0  0
   20.6473   -9.4847  -15.9709 N   0  0  0  0  0  0  0  0  0  0  0  0
   21.5399   -7.3928  -15.1235 C   0  0  0  0  0  0  0  0  0  0  0  0
   22.3131   -7.0371  -16.0501 O   0  0  0  0  0  0  0  0  0  0  0  0
   18.8874   -4.7086  -15.4657 C   0  0  0  0  0  0  0  0  0  0  0  0
   19.9216   -4.1914  -14.4639 C   0  0  1  0  0  0  0  0  0  0  0  0
   19.4907   -4.4868  -13.1704 O   0  0  0  0  0  0  0  0  0  0  0  0
   21.2169   -4.9577  -14.6783 C   0  0  2  0  0  0  0  0  0  0  0  0
   20.9536   -6.3458  -14.3563 N   0  0  0  0  0  0  0  0  0  0  0  0
   22.3286   -4.4036  -13.8626 C   0  0  0  0  0  0  0  0  0  0  0  0
   22.8496   -3.1807  -14.2592 O   0  0  0  0  0  0  0  0  0  0  0  0
   22.7597   -5.0260  -12.8692 O   0  0  0  0  0  0  0  0  0  0  0  0
  2  1  1  0
  3  2  2  0
  4  3  1  0
  5  4  2  0
  5 11  1  0
  6  5  1  0
  7  9  1  0
  7  6  1  0
  7  8  1  1
  9 17  1  0
 10  9  2  0
 11 12  2  0
 12  2  1  0
 14 15  1  1
 14 13  1  0
 16 14  1  0
 16 17  1  6
 18 19  2  0
 18 16  1  0
 21 20  1  6
 21 22  1  0
 23 24  1  1
 23 21  1  0
 24 18  1  0
 25 23  1  0
 26 25  1  0
 27 25  2  0
M  END
$$$$
