YVT.pdb
     RDKit          3D

 27 27  0  0  1  0  0  0  0  0999 V2000
   35.5860  -31.0570    1.8551 O   0  0  0  0  0  0  0  0  0  0  0  0
   35.7210  -29.9780    2.7263 C   0  0  0  0  0  0  0  0  0  0  0  0
   36.9459  -29.8376    3.3702 C   0  0  0  0  0  0  0  0  0  0  0  0
   37.1103  -28.7664    4.2485 C   0  0  0  0  0  0  0  0  0  0  0  0
   36.0609  -27.8948    4.4432 C   0  0  0  0  0  0  0  0  0  0  0  0
   36.2489  -26.7679    5.3738 C   0  0  0  0  0  0  0  0  0  0  0  0
   36.6542  -25.4994    4.6565 C   0  0  2  0  0  0  0  0  0  0  0  0
   38.0520  -25.4175    4.3873 N   0  0  0  0  0  0  0  0  0  0  0  0
   36.2257  -24.3567    5.5057 C   0  0  0  0  0  0  0  0  0  0  0  0
   37.0312  -23.9349    6.3646 O   0  0  0  0  0  0  0  0  0  0  0  0
   34.8465  -28.0313    3.8070 C   0  0  0  0  0  0  0  0  0  0  0  0
   34.6767  -29.1021    2.9267 C   0  0  0  0  0  0  0  0  0  0  0  0
   32.3267  -22.8478    4.9912 C   0  0  0  0  0  0  0  0  0  0  0  0
   33.3927  -21.9101    5.4796 C   0  0  1  0  0  0  0  0  0  0  0  0
   32.8010  -20.8183    6.3556 C   0  0  0  0  0  0  0  0  0  0  0  0
   34.5016  -22.6506    6.2071 C   0  0  2  0  0  0  0  0  0  0  0  0
   34.9607  -23.7299    5.3888 N   0  0  0  0  0  0  0  0  0  0  0  0
   34.0658  -23.0972    7.5543 C   0  0  0  0  0  0  0  0  0  0  0  0
   33.2783  -24.0685    7.6928 O   0  0  0  0  0  0  0  0  0  0  0  0
   35.4096  -21.2040   11.1630 C   0  0  0  0  0  0  0  0  0  0  0  0
   35.2322  -22.7167   11.0174 C   0  0  1  0  0  0  0  0  0  0  0  0
   34.8415  -23.2501   12.2458 O   0  0  0  0  0  0  0  0  0  0  0  0
   34.0896  -22.9709   10.0476 C   0  0  2  0  0  0  0  0  0  0  0  0
   34.5034  -22.4660    8.7538 N   0  0  0  0  0  0  0  0  0  0  0  0
   32.8244  -22.3407   10.5064 C   0  0  0  0  0  0  0  0  0  0  0  0
   32.1223  -22.9976   11.5064 O   0  0  0  0  0  0  0  0  0  0  0  0
   32.4285  -21.2688   10.0021 O   0  0  0  0  0  0  0  0  0  0  0  0
  2  1  1  0
  3  2  2  0
  4  3  1  0
  5  4  2  0
  5 11  1  0
  6  5  1  0
  7  9  1  0
  7  6  1  0
  7  8  1  1
  9 17  1  0
 10  9  2  0
 11 12  2  0
 12  2  1  0
 14 15  1  1
 14 13  1  0
 16 14  1  0
 16 17  1  6
 18 19  2  0
 18 16  1  0
 21 20  1  1
 21 22  1  0
 23 24  1  6
 23 21  1  0
 24 18  1  0
 25 23  1  0
 26 25  1  0
 27 25  2  0
M  END
$$$$
