YVT.pdb
     RDKit          3D

 27 27  0  0  1  0  0  0  0  0999 V2000
   27.5862  -19.9023   -5.5640 O   0  0  0  0  0  0  0  0  0  0  0  0
   27.1895  -19.9438   -6.8990 C   0  0  0  0  0  0  0  0  0  0  0  0
   28.1184  -19.5240   -7.8455 C   0  0  0  0  0  0  0  0  0  0  0  0
   27.7492  -19.5545   -9.1904 C   0  0  0  0  0  0  0  0  0  0  0  0
   26.4881  -19.9959   -9.5274 C   0  0  0  0  0  0  0  0  0  0  0  0
   26.1120  -20.0227  -10.9518 C   0  0  0  0  0  0  0  0  0  0  0  0
   26.2354  -21.4078  -11.5469 C   0  0  2  0  0  0  0  0  0  0  0  0
   27.5657  -21.9207  -11.5281 N   0  0  0  0  0  0  0  0  0  0  0  0
   25.7318  -21.3338  -12.9438 C   0  0  0  0  0  0  0  0  0  0  0  0
   26.5694  -21.1622  -13.8567 O   0  0  0  0  0  0  0  0  0  0  0  0
   25.5660  -20.4123   -8.5922 C   0  0  0  0  0  0  0  0  0  0  0  0
   25.9306  -20.3838   -7.2444 C   0  0  0  0  0  0  0  0  0  0  0  0
   25.8496  -22.9246  -15.2924 C   0  0  0  0  0  0  0  0  0  0  0  0
   24.3509  -22.8817  -15.2147 C   0  0  1  0  0  0  0  0  0  0  0  0
   23.8091  -24.0732  -14.4423 C   0  0  0  0  0  0  0  0  0  0  0  0
   23.8567  -21.5755  -14.6173 C   0  0  2  0  0  0  0  0  0  0  0  0
   24.3618  -21.4475  -13.2855 N   0  0  0  0  0  0  0  0  0  0  0  0
   22.3770  -21.4720  -14.6823 C   0  0  0  0  0  0  0  0  0  0  0  0
   21.6515  -21.9747  -13.7858 O   0  0  0  0  0  0  0  0  0  0  0  0
   20.2124  -20.1685  -18.0967 C   0  0  0  0  0  0  0  0  0  0  0  0
   19.9453  -19.5198  -16.7370 C   0  0  1  0  0  0  0  0  0  0  0  0
   18.5826  -19.2438  -16.6235 O   0  0  0  0  0  0  0  0  0  0  0  0
   20.2777  -20.5324  -15.6530 C   0  0  2  0  0  0  0  0  0  0  0  0
   21.6972  -20.8094  -15.7440 N   0  0  0  0  0  0  0  0  0  0  0  0
   19.4649  -21.7695  -15.7841 C   0  0  0  0  0  0  0  0  0  0  0  0
   18.1820  -21.7369  -15.2574 O   0  0  0  0  0  0  0  0  0  0  0  0
   19.9337  -22.7817  -16.3461 O   0  0  0  0  0  0  0  0  0  0  0  0
  2  1  1  0
  3  2  2  0
  4  3  1  0
  5  4  2  0
  5 11  1  0
  6  5  1  0
  7  9  1  0
  7  6  1  0
  7  8  1  6
  9 17  1  0
 10  9  2  0
 11 12  2  0
 12  2  1  0
 14 15  1  1
 14 13  1  0
 16 14  1  0
 16 17  1  1
 18 19  2  0
 18 16  1  0
 21 20  1  6
 21 22  1  0
 23 24  1  6
 23 21  1  0
 24 18  1  0
 25 23  1  0
 26 25  1  0
 27 25  2  0
M  END
$$$$
