YVT.pdb
     RDKit          3D

 27 27  0  0  1  0  0  0  0  0999 V2000
   28.4211  -19.6637   -3.8249 O   0  0  0  0  0  0  0  0  0  0  0  0
   28.0052  -19.6622   -5.1547 C   0  0  0  0  0  0  0  0  0  0  0  0
   28.9100  -19.1846   -6.0971 C   0  0  0  0  0  0  0  0  0  0  0  0
   28.5212  -19.1710   -7.4368 C   0  0  0  0  0  0  0  0  0  0  0  0
   27.2653  -19.6278   -7.7728 C   0  0  0  0  0  0  0  0  0  0  0  0
   26.8683  -19.6077   -9.1917 C   0  0  0  0  0  0  0  0  0  0  0  0
   26.9417  -20.9805   -9.8225 C   0  0  2  0  0  0  0  0  0  0  0  0
   28.2595  -21.5237   -9.8559 N   0  0  0  0  0  0  0  0  0  0  0  0
   26.3988  -20.8614  -11.2015 C   0  0  0  0  0  0  0  0  0  0  0  0
   27.2017  -20.9664  -12.1548 O   0  0  0  0  0  0  0  0  0  0  0  0
   26.3671  -20.1015   -6.8417 C   0  0  0  0  0  0  0  0  0  0  0  0
   26.7513  -20.1172   -5.4991 C   0  0  0  0  0  0  0  0  0  0  0  0
   23.8160  -22.5990  -14.4289 C   0  0  0  0  0  0  0  0  0  0  0  0
   24.5387  -22.3012  -13.1472 C   0  0  1  0  0  0  0  0  0  0  0  0
   25.9984  -22.7150  -13.2336 C   0  0  0  0  0  0  0  0  0  0  0  0
   24.4096  -20.8390  -12.7564 C   0  0  2  0  0  0  0  0  0  0  0  0
   25.0288  -20.6370  -11.4832 N   0  0  0  0  0  0  0  0  0  0  0  0
   22.9945  -20.3906  -12.7838 C   0  0  0  0  0  0  0  0  0  0  0  0
   22.2021  -20.6859  -11.8523 O   0  0  0  0  0  0  0  0  0  0  0  0
   19.6058  -17.3994  -14.7994 C   0  0  0  0  0  0  0  0  0  0  0  0
   20.9082  -18.1819  -14.9798 C   0  0  1  0  0  0  0  0  0  0  0  0
   21.9729  -17.2836  -15.0552 O   0  0  0  0  0  0  0  0  0  0  0  0
   21.1342  -19.0237  -13.7344 C   0  0  2  0  0  0  0  0  0  0  0  0
   22.4538  -19.6120  -13.8469 N   0  0  0  0  0  0  0  0  0  0  0  0
   20.0812  -20.0591  -13.5683 C   0  0  0  0  0  0  0  0  0  0  0  0
   19.0993  -19.8097  -12.6207 O   0  0  0  0  0  0  0  0  0  0  0  0
   20.0974  -21.0991  -14.2597 O   0  0  0  0  0  0  0  0  0  0  0  0
  2  1  1  0
  3  2  2  0
  4  3  1  0
  5  4  2  0
  5 11  1  0
  6  5  1  0
  7  9  1  0
  7  6  1  0
  7  8  1  6
  9 17  1  0
 10  9  2  0
 11 12  2  0
 12  2  1  0
 14 15  1  6
 14 13  1  0
 16 14  1  0
 16 17  1  1
 18 19  2  0
 18 16  1  0
 21 20  1  1
 21 22  1  0
 23 24  1  6
 23 21  1  0
 24 18  1  0
 25 23  1  0
 26 25  1  0
 27 25  2  0
M  END
$$$$
