AQH.pdb
     RDKit          3D

 25 25  0  0  1  0  0  0  0  0999 V2000
    7.8186  -12.1449   20.0585 C   0  0  0  0  0  0  0  0  0  0  0  0
    8.4974  -13.2449   19.3054 C   0  0  2  0  0  0  0  0  0  0  0  0
    7.7307  -13.6545   18.1587 N   0  0  0  0  0  0  0  0  0  0  0  0
    8.7634  -14.4339   20.1805 C   0  0  0  0  0  0  0  0  0  0  0  0
    7.9343  -15.3780   20.1422 O   0  0  0  0  0  0  0  0  0  0  0  0
   13.9973  -14.6090   20.3983 N   0  0  0  0  0  0  0  0  0  0  0  0
   13.4074  -15.5552   19.5281 C   0  0  0  0  0  0  0  0  0  0  0  0
   13.8957  -15.7575   18.4024 O   0  0  0  0  0  0  0  0  0  0  0  0
   12.2099  -16.2875   19.9866 C   0  0  0  0  0  0  0  0  0  0  0  0
   11.7899  -15.9134   21.3534 C   0  0  0  0  0  0  0  0  0  0  0  0
   10.3120  -15.8016   21.6164 C   0  0  2  0  0  0  0  0  0  0  0  0
    9.8914  -14.5158   21.0227 N   0  0  0  0  0  0  0  0  0  0  0  0
   10.0658  -15.7012   23.0595 C   0  0  0  0  0  0  0  0  0  0  0  0
   10.6257  -14.7005   23.6490 O   0  0  0  0  0  0  0  0  0  0  0  0
    9.2861  -16.5754   23.8476 N   0  0  0  0  0  0  0  0  0  0  0  0
    9.2430  -16.3570   25.2745 C   0  0  1  0  0  0  0  0  0  0  0  0
    7.8190  -16.1817   25.7566 C   0  0  0  0  0  0  0  0  0  0  0  0
    7.3468  -14.8387   25.3860 C   0  0  0  0  0  0  0  0  0  0  0  0
    7.3072  -13.6684   26.1153 C   0  0  0  0  0  0  0  0  0  0  0  0
    6.7554  -12.7035   25.3341 N   0  0  0  0  0  0  0  0  0  0  0  0
    6.4550  -13.2288   24.1599 C   0  0  0  0  0  0  0  0  0  0  0  0
    6.8071  -14.5217   24.1755 N   0  0  0  0  0  0  0  0  0  0  0  0
    9.9504  -17.4617   25.9318 C   0  0  0  0  0  0  0  0  0  0  0  0
   10.0104  -17.5221   27.1970 O   0  0  0  0  0  0  0  0  0  0  0  0
   10.5604  -18.4549   25.1961 O   0  0  0  0  0  0  0  0  0  0  0  0
  2  1  1  1
  2  4  1  0
  3  2  1  0
  4  5  2  0
  7  6  1  0
  7  9  1  0
  8  7  2  0
 10  9  1  0
 11 10  1  1
 11 13  1  0
 12 11  1  0
 12  4  1  0
 13 14  2  0
 15 16  1  0
 15 13  1  0
 16 23  1  0
 16 17  1  1
 18 17  1  0
 18 19  2  0
 20 19  1  0
 21 20  1  0
 22 21  2  0
 22 18  1  0
 23 24  2  0
 23 25  1  0
M  END
$$$$
