AQH.pdb
     RDKit          3D

 25 25  0  0  1  0  0  0  0  0999 V2000
   18.3017  -18.7538   12.2503 C   0  0  0  0  0  0  0  0  0  0  0  0
   16.8102  -18.6568   12.1900 C   0  0  2  0  0  0  0  0  0  0  0  0
   16.3817  -17.6309   11.2766 N   0  0  0  0  0  0  0  0  0  0  0  0
   16.2160  -18.4019   13.5437 C   0  0  0  0  0  0  0  0  0  0  0  0
   16.3319  -17.2435   14.0180 O   0  0  0  0  0  0  0  0  0  0  0  0
   10.8420  -20.8776   16.7036 N   0  0  0  0  0  0  0  0  0  0  0  0
   11.6932  -21.0522   15.5876 C   0  0  0  0  0  0  0  0  0  0  0  0
   11.6202  -22.0876   14.9027 O   0  0  0  0  0  0  0  0  0  0  0  0
   12.6600  -19.9846   15.2616 C   0  0  0  0  0  0  0  0  0  0  0  0
   13.9823  -20.1890   15.8894 C   0  0  0  0  0  0  0  0  0  0  0  0
   15.0359  -19.1435   15.6383 C   0  0  2  0  0  0  0  0  0  0  0  0
   15.5483  -19.4039   14.2774 N   0  0  0  0  0  0  0  0  0  0  0  0
   16.1627  -19.3365   16.5582 C   0  0  0  0  0  0  0  0  0  0  0  0
   16.9813  -20.2809   16.2415 O   0  0  0  0  0  0  0  0  0  0  0  0
   16.4335  -18.5985   17.7309 N   0  0  0  0  0  0  0  0  0  0  0  0
   17.6064  -18.9413   18.5006 C   0  0  1  0  0  0  0  0  0  0  0  0
   18.6541  -17.8524   18.4125 C   0  0  0  0  0  0  0  0  0  0  0  0
   19.8599  -18.2844   19.1357 C   0  0  0  0  0  0  0  0  0  0  0  0
   20.1698  -19.4944   19.7214 C   0  0  0  0  0  0  0  0  0  0  0  0
   21.3984  -19.3846   20.2908 N   0  0  0  0  0  0  0  0  0  0  0  0
   21.8554  -18.1631   20.0811 C   0  0  0  0  0  0  0  0  0  0  0  0
   20.9349  -17.4842   19.3827 N   0  0  0  0  0  0  0  0  0  0  0  0
   17.1861  -19.2377   19.8747 C   0  0  0  0  0  0  0  0  0  0  0  0
   18.0450  -19.5432   20.7562 O   0  0  0  0  0  0  0  0  0  0  0  0
   15.8578  -19.1893   20.2394 O   0  0  0  0  0  0  0  0  0  0  0  0
  2  1  1  1
  2  4  1  0
  3  2  1  0
  4  5  2  0
  7  6  1  0
  7  9  1  0
  8  7  2  0
 10  9  1  0
 11 10  1  1
 11 13  1  0
 12 11  1  0
 12  4  1  0
 13 14  2  0
 15 16  1  0
 15 13  1  0
 16 23  1  0
 16 17  1  1
 18 17  1  0
 18 19  2  0
 20 19  1  0
 21 20  1  0
 22 21  2  0
 22 18  1  0
 23 24  2  0
 23 25  1  0
M  END
$$$$
