AQH.pdb
     RDKit          3D

 25 25  0  0  1  0  0  0  0  0999 V2000
    8.2667  -12.2079   19.7880 C   0  0  0  0  0  0  0  0  0  0  0  0
    8.3832  -13.4946   19.0339 C   0  0  2  0  0  0  0  0  0  0  0  0
    7.2911  -13.6710   18.1138 N   0  0  0  0  0  0  0  0  0  0  0  0
    8.4549  -14.6742   19.9579 C   0  0  0  0  0  0  0  0  0  0  0  0
    7.3893  -15.3042   20.1763 O   0  0  0  0  0  0  0  0  0  0  0  0
   12.9277  -18.6451   19.2610 N   0  0  0  0  0  0  0  0  0  0  0  0
   12.6444  -18.8830   20.6261 C   0  0  0  0  0  0  0  0  0  0  0  0
   13.4548  -19.5086   21.3321 O   0  0  0  0  0  0  0  0  0  0  0  0
   11.3750  -18.3751   21.1840 C   0  0  0  0  0  0  0  0  0  0  0  0
   11.0537  -17.0032   20.7375 C   0  0  0  0  0  0  0  0  0  0  0  0
    9.7696  -16.3966   21.2366 C   0  0  2  0  0  0  0  0  0  0  0  0
    9.6573  -15.0825   20.5711 N   0  0  0  0  0  0  0  0  0  0  0  0
    9.8661  -16.1338   22.6771 C   0  0  0  0  0  0  0  0  0  0  0  0
   10.7175  -15.2281   23.0195 O   0  0  0  0  0  0  0  0  0  0  0  0
    9.1271  -16.7619   23.7031 N   0  0  0  0  0  0  0  0  0  0  0  0
    9.3702  -16.3580   25.0681 C   0  0  1  0  0  0  0  0  0  0  0  0
    8.0731  -16.2248   25.8367 C   0  0  0  0  0  0  0  0  0  0  0  0
    7.4277  -14.9532   25.4757 C   0  0  0  0  0  0  0  0  0  0  0  0
    7.8650  -13.9216   24.6708 C   0  0  0  0  0  0  0  0  0  0  0  0
    6.9140  -12.9515   24.6752 N   0  0  0  0  0  0  0  0  0  0  0  0
    5.9143  -13.3410   25.4457 C   0  0  0  0  0  0  0  0  0  0  0  0
    6.2103  -14.5517   25.9381 N   0  0  0  0  0  0  0  0  0  0  0  0
   10.3108  -17.3096   25.6702 C   0  0  0  0  0  0  0  0  0  0  0  0
   10.7117  -18.3176   25.0135 O   0  0  0  0  0  0  0  0  0  0  0  0
   10.7803  -17.1317   26.9538 O   0  0  0  0  0  0  0  0  0  0  0  0
  2  1  1  1
  2  4  1  0
  3  2  1  0
  4  5  2  0
  7  6  1  0
  7  9  1  0
  8  7  2  0
 10  9  1  0
 11 10  1  6
 11 13  1  0
 12 11  1  0
 12  4  1  0
 13 14  2  0
 15 16  1  0
 15 13  1  0
 16 23  1  0
 16 17  1  1
 18 17  1  0
 18 19  2  0
 20 19  1  0
 21 20  1  0
 22 21  2  0
 22 18  1  0
 23 24  2  0
 23 25  1  0
M  END
$$$$
