AQH.pdb
     RDKit          3D

 25 25  0  0  1  0  0  0  0  0999 V2000
    5.8656  -17.8702   23.1189 C   0  0  0  0  0  0  0  0  0  0  0  0
    5.3234  -17.5414   21.7640 C   0  0  2  0  0  0  0  0  0  0  0  0
    4.6718  -18.6753   21.1638 N   0  0  0  0  0  0  0  0  0  0  0  0
    6.3962  -17.0362   20.8451 C   0  0  0  0  0  0  0  0  0  0  0  0
    7.0393  -17.8888   20.1820 O   0  0  0  0  0  0  0  0  0  0  0  0
    7.6147  -14.7282   16.8672 N   0  0  0  0  0  0  0  0  0  0  0  0
    8.4803  -13.6616   17.2043 C   0  0  0  0  0  0  0  0  0  0  0  0
    9.2901  -13.2262   16.3669 O   0  0  0  0  0  0  0  0  0  0  0  0
    8.3979  -13.0858   18.5616 C   0  0  0  0  0  0  0  0  0  0  0  0
    7.4438  -13.7990   19.4366 C   0  0  0  0  0  0  0  0  0  0  0  0
    7.8017  -15.2008   19.8521 C   0  0  2  0  0  0  0  0  0  0  0  0
    6.6925  -15.6642   20.7108 N   0  0  0  0  0  0  0  0  0  0  0  0
    9.0060  -15.1831   20.6904 C   0  0  0  0  0  0  0  0  0  0  0  0
    8.9819  -14.3542   21.6777 O   0  0  0  0  0  0  0  0  0  0  0  0
   10.1634  -15.9745   20.5254 N   0  0  0  0  0  0  0  0  0  0  0  0
   11.2830  -15.7433   21.4078 C   0  0  1  0  0  0  0  0  0  0  0  0
   11.4907  -16.9144   22.3439 C   0  0  0  0  0  0  0  0  0  0  0  0
   10.4287  -16.9119   23.3616 C   0  0  0  0  0  0  0  0  0  0  0  0
   10.0280  -15.9248   24.2381 C   0  0  0  0  0  0  0  0  0  0  0  0
    9.0176  -16.4211   24.9986 N   0  0  0  0  0  0  0  0  0  0  0  0
    8.7808  -17.6669   24.6285 C   0  0  0  0  0  0  0  0  0  0  0  0
    9.6275  -17.9791   23.6377 N   0  0  0  0  0  0  0  0  0  0  0  0
   12.4602  -15.4346   20.5883 C   0  0  0  0  0  0  0  0  0  0  0  0
   12.4688  -15.7073   19.3499 O   0  0  0  0  0  0  0  0  0  0  0  0
   13.5765  -14.8429   21.1393 O   0  0  0  0  0  0  0  0  0  0  0  0
  2  1  1  1
  2  4  1  0
  3  2  1  0
  4  5  2  0
  7  6  1  0
  7  9  1  0
  8  7  2  0
 10  9  1  0
 11 10  1  1
 11 13  1  0
 12 11  1  0
 12  4  1  0
 13 14  2  0
 15 16  1  0
 15 13  1  0
 16 23  1  0
 16 17  1  6
 18 17  1  0
 18 19  2  0
 20 19  1  0
 21 20  1  0
 22 21  2  0
 22 18  1  0
 23 24  2  0
 23 25  1  0
M  END
$$$$
