AQH.pdb
     RDKit          3D

 25 25  0  0  1  0  0  0  0  0999 V2000
    7.7751  -16.3930   19.2757 C   0  0  0  0  0  0  0  0  0  0  0  0
    7.5399  -15.0017   19.7725 C   0  0  2  0  0  0  0  0  0  0  0  0
    7.9217  -14.0176   18.7946 N   0  0  0  0  0  0  0  0  0  0  0  0
    8.2698  -14.7408   21.0568 C   0  0  0  0  0  0  0  0  0  0  0  0
    9.5024  -14.5049   20.9846 O   0  0  0  0  0  0  0  0  0  0  0  0
    5.1730  -12.8117   26.0046 N   0  0  0  0  0  0  0  0  0  0  0  0
    6.4844  -12.6292   26.5019 C   0  0  0  0  0  0  0  0  0  0  0  0
    6.6681  -12.0151   27.5676 O   0  0  0  0  0  0  0  0  0  0  0  0
    7.6165  -13.1805   25.7305 C   0  0  0  0  0  0  0  0  0  0  0  0
    7.2147  -13.7111   24.4108 C   0  0  0  0  0  0  0  0  0  0  0  0
    8.3018  -14.2604   23.5264 C   0  0  2  0  0  0  0  0  0  0  0  0
    7.6235  -14.7533   22.3100 N   0  0  0  0  0  0  0  0  0  0  0  0
    8.9257  -15.4256   24.1637 C   0  0  0  0  0  0  0  0  0  0  0  0
    8.5519  -16.5726   23.7089 O   0  0  0  0  0  0  0  0  0  0  0  0
    9.8807  -15.4109   25.2035 N   0  0  0  0  0  0  0  0  0  0  0  0
   10.3844  -16.6743   25.6889 C   0  0  1  0  0  0  0  0  0  0  0  0
   11.6267  -16.4788   26.5313 C   0  0  0  0  0  0  0  0  0  0  0  0
   11.2808  -15.6901   27.7238 C   0  0  0  0  0  0  0  0  0  0  0  0
   10.5290  -14.5405   27.8524 C   0  0  0  0  0  0  0  0  0  0  0  0
   10.5253  -14.1839   29.1633 N   0  0  0  0  0  0  0  0  0  0  0  0
   11.2402  -15.0619   29.8437 C   0  0  0  0  0  0  0  0  0  0  0  0
   11.7048  -15.9807   28.9859 N   0  0  0  0  0  0  0  0  0  0  0  0
    9.2996  -17.3616   26.3985 C   0  0  0  0  0  0  0  0  0  0  0  0
    8.1568  -16.8216   26.5001 O   0  0  0  0  0  0  0  0  0  0  0  0
    9.4935  -18.6027   26.9658 O   0  0  0  0  0  0  0  0  0  0  0  0
  2  1  1  6
  2  4  1  0
  3  2  1  0
  4  5  2  0
  7  6  1  0
  7  9  1  0
  8  7  2  0
 10  9  1  0
 11 10  1  1
 11 13  1  0
 12 11  1  0
 12  4  1  0
 13 14  2  0
 15 16  1  0
 15 13  1  0
 16 23  1  0
 16 17  1  1
 18 17  1  0
 18 19  2  0
 20 19  1  0
 21 20  1  0
 22 21  2  0
 22 18  1  0
 23 24  2  0
 23 25  1  0
M  END
$$$$
