AQH.pdb
     RDKit          3D

 25 25  0  0  1  0  0  0  0  0999 V2000
    4.6220  -22.6477   13.5464 C   0  0  0  0  0  0  0  0  0  0  0  0
    5.9267  -21.9546   13.7818 C   0  0  2  0  0  0  0  0  0  0  0  0
    5.8066  -20.9210   14.7756 N   0  0  0  0  0  0  0  0  0  0  0  0
    6.4803  -21.3702   12.5159 C   0  0  0  0  0  0  0  0  0  0  0  0
    6.8062  -22.1705   11.6029 O   0  0  0  0  0  0  0  0  0  0  0  0
    7.7658  -16.4557    8.1410 N   0  0  0  0  0  0  0  0  0  0  0  0
    6.5470  -16.6746    8.8242 C   0  0  0  0  0  0  0  0  0  0  0  0
    5.7896  -15.7196    9.0715 O   0  0  0  0  0  0  0  0  0  0  0  0
    6.2020  -18.0513    9.2318 C   0  0  0  0  0  0  0  0  0  0  0  0
    6.3710  -18.2860   10.6812 C   0  0  0  0  0  0  0  0  0  0  0  0
    7.2458  -19.4381   11.0977 C   0  0  2  0  0  0  0  0  0  0  0  0
    6.6397  -19.9815   12.3305 N   0  0  0  0  0  0  0  0  0  0  0  0
    8.5797  -18.9481   11.4632 C   0  0  0  0  0  0  0  0  0  0  0  0
    8.6891  -18.4778   12.6587 O   0  0  0  0  0  0  0  0  0  0  0  0
    9.7330  -18.9468   10.6488 N   0  0  0  0  0  0  0  0  0  0  0  0
   11.0247  -18.8725   11.2905 C   0  0  1  0  0  0  0  0  0  0  0  0
   11.2187  -20.0183   12.2602 C   0  0  0  0  0  0  0  0  0  0  0  0
   12.6131  -20.0222   12.7285 C   0  0  0  0  0  0  0  0  0  0  0  0
   13.7405  -19.4326   12.1952 C   0  0  0  0  0  0  0  0  0  0  0  0
   14.7978  -19.7528   12.9861 N   0  0  0  0  0  0  0  0  0  0  0  0
   14.3700  -20.5115   13.9793 C   0  0  0  0  0  0  0  0  0  0  0  0
   13.0486  -20.6839   13.8374 N   0  0  0  0  0  0  0  0  0  0  0  0
   12.0549  -18.8090   10.2477 C   0  0  0  0  0  0  0  0  0  0  0  0
   13.1400  -18.1866   10.4554 O   0  0  0  0  0  0  0  0  0  0  0  0
   11.8712  -19.4216    9.0267 O   0  0  0  0  0  0  0  0  0  0  0  0
  2  1  1  6
  2  4  1  0
  3  2  1  0
  4  5  2  0
  7  6  1  0
  7  9  1  0
  8  7  2  0
 10  9  1  0
 11 10  1  1
 11 13  1  0
 12 11  1  0
 12  4  1  0
 13 14  2  0
 15 16  1  0
 15 13  1  0
 16 23  1  0
 16 17  1  6
 18 17  1  0
 18 19  2  0
 20 19  1  0
 21 20  1  0
 22 21  2  0
 22 18  1  0
 23 24  2  0
 23 25  1  0
M  END
$$$$
