AQH.pdb
     RDKit          3D

 25 25  0  0  1  0  0  0  0  0999 V2000
    8.1887  -12.5967   19.7140 C   0  0  0  0  0  0  0  0  0  0  0  0
    8.6185  -13.2955   18.4630 C   0  0  2  0  0  0  0  0  0  0  0  0
    7.5231  -13.9908   17.8407 N   0  0  0  0  0  0  0  0  0  0  0  0
    9.7396  -14.2578   18.7226 C   0  0  0  0  0  0  0  0  0  0  0  0
    9.4416  -15.4718   18.8550 O   0  0  0  0  0  0  0  0  0  0  0  0
   16.3622  -13.3837   17.5492 N   0  0  0  0  0  0  0  0  0  0  0  0
   15.5299  -14.3864   16.9994 C   0  0  0  0  0  0  0  0  0  0  0  0
   15.6475  -14.7092   15.8041 O   0  0  0  0  0  0  0  0  0  0  0  0
   14.5290  -15.0319   17.8723 C   0  0  0  0  0  0  0  0  0  0  0  0
   13.2993  -14.2286   18.0364 C   0  0  0  0  0  0  0  0  0  0  0  0
   12.1869  -14.8266   18.8554 C   0  0  2  0  0  0  0  0  0  0  0  0
   11.0842  -13.8442   18.8191 N   0  0  0  0  0  0  0  0  0  0  0  0
   12.6034  -14.9426   20.2577 C   0  0  0  0  0  0  0  0  0  0  0  0
   12.9463  -13.8379   20.8272 O   0  0  0  0  0  0  0  0  0  0  0  0
   12.6589  -16.1239   21.0289 N   0  0  0  0  0  0  0  0  0  0  0  0
   13.2385  -16.0532   22.3497 C   0  0  1  0  0  0  0  0  0  0  0  0
   12.5650  -17.0259   23.2937 C   0  0  0  0  0  0  0  0  0  0  0  0
   11.1967  -16.5611   23.5689 C   0  0  0  0  0  0  0  0  0  0  0  0
   10.5650  -15.3817   23.2326 C   0  0  0  0  0  0  0  0  0  0  0  0
    9.3058  -15.4182   23.7415 N   0  0  0  0  0  0  0  0  0  0  0  0
    9.1371  -16.5655   24.3741 C   0  0  0  0  0  0  0  0  0  0  0  0
   10.2737  -17.2691   24.2786 N   0  0  0  0  0  0  0  0  0  0  0  0
   14.6858  -16.2623   22.2302 C   0  0  0  0  0  0  0  0  0  0  0  0
   15.2051  -16.5231   21.1032 O   0  0  0  0  0  0  0  0  0  0  0  0
   15.5109  -16.1789   23.3312 O   0  0  0  0  0  0  0  0  0  0  0  0
  2  1  1  1
  2  4  1  0
  3  2  1  0
  4  5  2  0
  7  6  1  0
  7  9  1  0
  8  7  2  0
 10  9  1  0
 11 10  1  6
 11 13  1  0
 12 11  1  0
 12  4  1  0
 13 14  2  0
 15 16  1  0
 15 13  1  0
 16 23  1  0
 16 17  1  1
 18 17  1  0
 18 19  2  0
 20 19  1  0
 21 20  1  0
 22 21  2  0
 22 18  1  0
 23 24  2  0
 23 25  1  0
M  END
$$$$
