AQH.pdb
     RDKit          3D

 25 25  0  0  1  0  0  0  0  0999 V2000
    8.0557  -12.1712   19.6558 C   0  0  0  0  0  0  0  0  0  0  0  0
    8.5548  -13.2757   18.7789 C   0  0  2  0  0  0  0  0  0  0  0  0
    7.7076  -13.4661   17.6315 N   0  0  0  0  0  0  0  0  0  0  0  0
    8.6775  -14.5680   19.5307 C   0  0  0  0  0  0  0  0  0  0  0  0
    7.7336  -15.3914   19.4245 O   0  0  0  0  0  0  0  0  0  0  0  0
   13.7581  -17.6310   19.5887 N   0  0  0  0  0  0  0  0  0  0  0  0
   12.6998  -17.7658   18.6601 C   0  0  0  0  0  0  0  0  0  0  0  0
   12.9087  -18.2752   17.5450 O   0  0  0  0  0  0  0  0  0  0  0  0
   11.3559  -17.2904   19.0455 C   0  0  0  0  0  0  0  0  0  0  0  0
   11.3153  -16.7050   20.4021 C   0  0  0  0  0  0  0  0  0  0  0  0
    9.9821  -16.2216   20.9069 C   0  0  2  0  0  0  0  0  0  0  0  0
    9.7966  -14.8732   20.3324 N   0  0  0  0  0  0  0  0  0  0  0  0
   10.0276  -16.0573   22.3643 C   0  0  0  0  0  0  0  0  0  0  0  0
   10.7387  -15.0691   22.7888 O   0  0  0  0  0  0  0  0  0  0  0  0
    9.3763  -16.8590   23.3268 N   0  0  0  0  0  0  0  0  0  0  0  0
    9.5458  -16.5278   24.7222 C   0  0  1  0  0  0  0  0  0  0  0  0
    8.2076  -16.3649   25.4105 C   0  0  0  0  0  0  0  0  0  0  0  0
    7.6598  -15.0377   25.0907 C   0  0  0  0  0  0  0  0  0  0  0  0
    8.2129  -13.9824   24.3953 C   0  0  0  0  0  0  0  0  0  0  0  0
    7.3159  -12.9619   24.3946 N   0  0  0  0  0  0  0  0  0  0  0  0
    6.2390  -13.3434   25.0576 C   0  0  0  0  0  0  0  0  0  0  0  0
    6.4317  -14.5986   25.4857 N   0  0  0  0  0  0  0  0  0  0  0  0
   10.3991  -17.5498   25.3386 C   0  0  0  0  0  0  0  0  0  0  0  0
   10.6917  -17.4830   26.5707 O   0  0  0  0  0  0  0  0  0  0  0  0
   10.8981  -18.6012   24.6001 O   0  0  0  0  0  0  0  0  0  0  0  0
  2  1  1  1
  2  4  1  0
  3  2  1  0
  4  5  2  0
  7  6  1  0
  7  9  1  0
  8  7  2  0
 10  9  1  0
 11 10  1  6
 11 13  1  0
 12 11  1  0
 12  4  1  0
 13 14  2  0
 15 16  1  0
 15 13  1  0
 16 23  1  0
 16 17  1  1
 18 17  1  0
 18 19  2  0
 20 19  1  0
 21 20  1  0
 22 21  2  0
 22 18  1  0
 23 24  2  0
 23 25  1  0
M  END
$$$$
