AQH.pdb
     RDKit          3D

 25 25  0  0  1  0  0  0  0  0999 V2000
    8.2425  -12.3044   19.0262 C   0  0  0  0  0  0  0  0  0  0  0  0
    8.9005  -13.1774   18.0051 C   0  0  2  0  0  0  0  0  0  0  0  0
    7.9521  -13.6816   17.0477 N   0  0  0  0  0  0  0  0  0  0  0  0
    9.6271  -14.3249   18.6421 C   0  0  0  0  0  0  0  0  0  0  0  0
    8.9875  -15.3942   18.8085 O   0  0  0  0  0  0  0  0  0  0  0  0
   13.4881  -17.8341   18.4503 N   0  0  0  0  0  0  0  0  0  0  0  0
   13.6312  -16.8999   17.3981 C   0  0  0  0  0  0  0  0  0  0  0  0
   13.8519  -17.2937   16.2393 O   0  0  0  0  0  0  0  0  0  0  0  0
   13.5135  -15.4611   17.7088 C   0  0  0  0  0  0  0  0  0  0  0  0
   13.1494  -15.2004   19.1174 C   0  0  0  0  0  0  0  0  0  0  0  0
   11.7148  -15.4257   19.5138 C   0  0  2  0  0  0  0  0  0  0  0  0
   10.9744  -14.2351   19.0480 N   0  0  0  0  0  0  0  0  0  0  0  0
   11.5969  -15.4511   20.9762 C   0  0  0  0  0  0  0  0  0  0  0  0
   11.9171  -14.3563   21.5772 O   0  0  0  0  0  0  0  0  0  0  0  0
   11.1703  -16.5366   21.7719 N   0  0  0  0  0  0  0  0  0  0  0  0
   10.9911  -16.3189   23.1883 C   0  0  1  0  0  0  0  0  0  0  0  0
    9.6083  -16.7428   23.6345 C   0  0  0  0  0  0  0  0  0  0  0  0
    8.6078  -15.8794   22.9884 C   0  0  0  0  0  0  0  0  0  0  0  0
    8.6736  -14.5525   22.6167 C   0  0  0  0  0  0  0  0  0  0  0  0
    7.4750  -14.2054   22.0795 N   0  0  0  0  0  0  0  0  0  0  0  0
    6.6779  -15.2585   22.1050 C   0  0  0  0  0  0  0  0  0  0  0  0
    7.3495  -16.2807   22.6528 N   0  0  0  0  0  0  0  0  0  0  0  0
   12.0720  -17.0088   23.9014 C   0  0  0  0  0  0  0  0  0  0  0  0
   12.4523  -16.5998   25.0398 O   0  0  0  0  0  0  0  0  0  0  0  0
   12.6945  -18.1114   23.3569 O   0  0  0  0  0  0  0  0  0  0  0  0
  2  1  1  1
  2  4  1  0
  3  2  1  0
  4  5  2  0
  7  6  1  0
  7  9  1  0
  8  7  2  0
 10  9  1  0
 11 10  1  1
 11 13  1  0
 12 11  1  0
 12  4  1  0
 13 14  2  0
 15 16  1  0
 15 13  1  0
 16 23  1  0
 16 17  1  1
 18 17  1  0
 18 19  2  0
 20 19  1  0
 21 20  1  0
 22 21  2  0
 22 18  1  0
 23 24  2  0
 23 25  1  0
M  END
$$$$
