AQH.pdb
     RDKit          3D

 25 25  0  0  1  0  0  0  0  0999 V2000
    9.4819  -18.0569   16.5605 C   0  0  0  0  0  0  0  0  0  0  0  0
    8.0085  -18.3116   16.6061 C   0  0  2  0  0  0  0  0  0  0  0  0
    7.3362  -17.7421   15.4685 N   0  0  0  0  0  0  0  0  0  0  0  0
    7.3931  -17.7826   17.8678 C   0  0  0  0  0  0  0  0  0  0  0  0
    7.1147  -16.5574   17.9067 O   0  0  0  0  0  0  0  0  0  0  0  0
    2.5297  -18.9742   22.5038 N   0  0  0  0  0  0  0  0  0  0  0  0
    3.6038  -19.6695   21.9009 C   0  0  0  0  0  0  0  0  0  0  0  0
    3.3939  -20.7286   21.2838 O   0  0  0  0  0  0  0  0  0  0  0  0
    4.9652  -19.1108   22.0228 C   0  0  0  0  0  0  0  0  0  0  0  0
    5.7898  -19.3253   20.8151 C   0  0  0  0  0  0  0  0  0  0  0  0
    6.3495  -18.1049   20.1343 C   0  0  2  0  0  0  0  0  0  0  0  0
    7.1266  -18.6050   18.9818 N   0  0  0  0  0  0  0  0  0  0  0  0
    7.3003  -17.4270   21.0229 C   0  0  0  0  0  0  0  0  0  0  0  0
    8.5057  -17.8838   20.9968 O   0  0  0  0  0  0  0  0  0  0  0  0
    7.0280  -16.3409   21.8829 N   0  0  0  0  0  0  0  0  0  0  0  0
    8.1233  -15.7658   22.6280 C   0  0  1  0  0  0  0  0  0  0  0  0
    8.1067  -14.2547   22.5432 C   0  0  0  0  0  0  0  0  0  0  0  0
    8.3658  -13.8473   21.1537 C   0  0  0  0  0  0  0  0  0  0  0  0
    9.5506  -13.5547   20.5105 C   0  0  0  0  0  0  0  0  0  0  0  0
    9.2597  -13.2021   19.2311 N   0  0  0  0  0  0  0  0  0  0  0  0
    7.9512  -13.2652   19.0609 C   0  0  0  0  0  0  0  0  0  0  0  0
    7.3955  -13.6545   20.2166 N   0  0  0  0  0  0  0  0  0  0  0  0
    8.0632  -16.2743   24.0030 C   0  0  0  0  0  0  0  0  0  0  0  0
    8.9457  -15.9393   24.8497 O   0  0  0  0  0  0  0  0  0  0  0  0
    7.0525  -17.1204   24.4060 O   0  0  0  0  0  0  0  0  0  0  0  0
  2  1  1  6
  2  4  1  0
  3  2  1  0
  4  5  2  0
  7  6  1  0
  7  9  1  0
  8  7  2  0
 10  9  1  0
 11 10  1  1
 11 13  1  0
 12 11  1  0
 12  4  1  0
 13 14  2  0
 15 16  1  0
 15 13  1  0
 16 23  1  0
 16 17  1  1
 18 17  1  0
 18 19  2  0
 20 19  1  0
 21 20  1  0
 22 21  2  0
 22 18  1  0
 23 24  2  0
 23 25  1  0
M  END
$$$$
