RCN.pdb
     RDKit          3D

 26 25  0  0  1  0  0  0  0  0999 V2000
   29.9268  -26.4138  -16.0219 N   0  0  0  0  0  0  0  0  0  0  0  0
   28.9608  -26.4322  -17.0613 C   0  0  0  0  0  0  0  0  0  0  0  0
   28.3460  -27.5175  -17.4363 N   0  0  0  0  0  0  0  0  0  0  0  0
   28.6187  -25.2366  -17.7500 N   0  0  0  0  0  0  0  0  0  0  0  0
   28.2689  -24.0166  -17.0539 C   0  0  0  0  0  0  0  0  0  0  0  0
   26.7616  -23.9279  -16.8534 C   0  0  0  0  0  0  0  0  0  0  0  0
   26.3935  -23.8008  -15.4197 C   0  0  0  0  0  0  0  0  0  0  0  0
   26.0070  -22.3913  -15.0726 C   0  0  2  0  0  0  0  0  0  0  0  0
   27.2417  -21.6598  -14.7626 N   0  0  0  0  0  0  0  0  0  0  0  0
   25.0445  -22.2583  -13.9697 C   0  0  0  0  0  0  0  0  0  0  0  0
   24.0207  -23.0231  -13.9865 O   0  0  0  0  0  0  0  0  0  0  0  0
   27.6918  -27.5299  -18.2395 N   0  0  0  0  0  0  0  0  0  0  0  0
   25.1993  -21.3357  -12.9074 C   0  0  1  0  0  0  0  0  0  0  0  0
   24.1523  -21.2338  -11.9061 C   0  0  0  0  0  0  0  0  0  0  0  0
   24.7854  -20.7121  -10.6402 S   0  0  0  0  0  0  0  0  0  0  0  0
   26.1889  -21.7232  -10.1397 C   0  0  0  0  0  0  0  0  0  0  0  0
   23.0173  -20.4439  -12.3998 O   0  0  0  0  0  0  0  0  0  0  0  0
   22.8640  -19.2821  -11.8827 N   0  0  0  0  0  0  0  0  0  0  0  0
   18.8927  -18.2797  -14.6403 C   0  0  0  0  0  0  0  0  0  0  0  0
   19.6469  -19.0040  -15.5954 O   0  0  0  0  0  0  0  0  0  0  0  0
   19.3665  -18.8905  -16.8405 C   0  0  0  0  0  0  0  0  0  0  0  0
   20.7516  -19.8860  -15.2010 C   0  0  2  0  0  0  0  0  0  0  0  0
   20.9408  -19.9389  -13.7211 N   0  0  0  0  0  0  0  0  0  0  0  0
   22.0768  -20.8019  -13.3708 C   0  0  0  0  0  0  0  0  0  0  0  0
   19.7007  -20.4997  -13.1070 O   0  0  0  0  0  0  0  0  0  0  0  0
   18.7804  -19.7573  -12.4311 O   0  0  0  0  0  0  0  0  0  0  0  0
  1  2  1  0
  2  3  2  0
  4  5  1  0
  4  2  1  0
  6  5  1  0
  7  6  1  0
  7  8  1  0
  8 10  1  0
  8  9  1  1
 10 11  2  0
 12 13  1  0
 12 10  1  0
 14 15  1  0
 13 14  1  1
 16 23  1  0
 16 13  1  0
 17 16  2  0
 19 21  1  0
 19 18  1  0
 20 19  2  0
 22 23  1  0
 22 21  1  6
 24 22  1  0
 25 24  1  0
 26 24  2  0
M  END
$$$$
