RCN.pdb
     RDKit          3D

 26 25  0  0  1  0  0  0  0  0999 V2000
   29.2818  -17.0005  -18.5691 N   0  0  0  0  0  0  0  0  0  0  0  0
   28.2039  -16.2958  -17.9731 C   0  0  0  0  0  0  0  0  0  0  0  0
   27.7191  -15.1934  -18.4693 N   0  0  0  0  0  0  0  0  0  0  0  0
   27.5969  -16.7784  -16.7816 N   0  0  0  0  0  0  0  0  0  0  0  0
   28.0679  -17.9656  -16.1003 C   0  0  0  0  0  0  0  0  0  0  0  0
   27.6603  -19.2187  -16.8642 C   0  0  0  0  0  0  0  0  0  0  0  0
   26.6200  -19.9992  -16.1460 C   0  0  0  0  0  0  0  0  0  0  0  0
   27.2132  -20.8147  -15.0325 C   0  0  2  0  0  0  0  0  0  0  0  0
   27.8404  -21.9960  -15.6378 N   0  0  0  0  0  0  0  0  0  0  0  0
   26.2699  -21.2202  -13.9808 C   0  0  0  0  0  0  0  0  0  0  0  0
   25.3958  -22.1026  -14.2824 O   0  0  0  0  0  0  0  0  0  0  0  0
   26.9661  -14.6615  -17.9966 N   0  0  0  0  0  0  0  0  0  0  0  0
   26.2869  -20.6855  -12.6704 C   0  0  2  0  0  0  0  0  0  0  0  0
   25.2156  -21.0348  -11.7541 C   0  0  0  0  0  0  0  0  0  0  0  0
   25.7399  -20.8484  -10.3520 S   0  0  0  0  0  0  0  0  0  0  0  0
   27.4179  -21.4807  -10.1861 C   0  0  0  0  0  0  0  0  0  0  0  0
   23.9886  -20.2880  -12.0588 O   0  0  0  0  0  0  0  0  0  0  0  0
   24.1339  -19.1947  -12.7098 N   0  0  0  0  0  0  0  0  0  0  0  0
   20.2628  -19.5804  -14.9777 C   0  0  0  0  0  0  0  0  0  0  0  0
   21.2186  -20.6156  -15.1205 O   0  0  0  0  0  0  0  0  0  0  0  0
   21.5109  -21.0494  -16.2901 C   0  0  0  0  0  0  0  0  0  0  0  0
   21.8934  -21.2106  -13.9610 C   0  0  2  0  0  0  0  0  0  0  0  0
   21.5654  -20.5075  -12.6855 N   0  0  0  0  0  0  0  0  0  0  0  0
   22.6721  -20.6231  -11.7265 C   0  0  0  0  0  0  0  0  0  0  0  0
   20.3482  -21.1412  -12.0972 O   0  0  0  0  0  0  0  0  0  0  0  0
   19.1575  -20.5008  -11.9331 O   0  0  0  0  0  0  0  0  0  0  0  0
  1  2  1  0
  2  3  2  0
  4  5  1  0
  4  2  1  0
  6  5  1  0
  7  6  1  0
  7  8  1  0
  8 10  1  0
  8  9  1  6
 10 11  2  0
 12 13  1  0
 12 10  1  0
 14 15  1  0
 13 14  1  6
 16 23  1  0
 16 13  1  0
 17 16  2  0
 19 21  1  0
 19 18  1  0
 20 19  2  0
 22 23  1  0
 22 21  1  6
 24 22  1  0
 25 24  1  0
 26 24  2  0
M  END
$$$$
