RCN.pdb
     RDKit          3D

 26 25  0  0  1  0  0  0  0  0999 V2000
   14.7813  -25.9088  -10.2817 N   0  0  0  0  0  0  0  0  0  0  0  0
   14.1918  -27.0570   -9.6917 C   0  0  0  0  0  0  0  0  0  0  0  0
   14.2606  -28.2420  -10.2279 N   0  0  0  0  0  0  0  0  0  0  0  0
   13.4859  -26.9548   -8.4619 N   0  0  0  0  0  0  0  0  0  0  0  0
   13.2365  -25.6830   -7.8172 C   0  0  0  0  0  0  0  0  0  0  0  0
   14.4597  -25.2331   -7.0291 C   0  0  0  0  0  0  0  0  0  0  0  0
   14.2141  -25.2349   -5.5638 C   0  0  0  0  0  0  0  0  0  0  0  0
   14.1200  -23.8382   -5.0189 C   0  0  2  0  0  0  0  0  0  0  0  0
   14.6044  -22.9252   -6.0616 N   0  0  0  0  0  0  0  0  0  0  0  0
   14.8434  -23.6058   -3.7607 C   0  0  0  0  0  0  0  0  0  0  0  0
   16.1000  -23.8394   -3.7525 O   0  0  0  0  0  0  0  0  0  0  0  0
   13.7969  -29.0657   -9.8038 N   0  0  0  0  0  0  0  0  0  0  0  0
   14.2200  -23.1422   -2.5775 C   0  0  2  0  0  0  0  0  0  0  0  0
   15.0160  -23.0042   -1.3707 C   0  0  0  0  0  0  0  0  0  0  0  0
   14.3901  -21.9134   -0.5376 S   0  0  0  0  0  0  0  0  0  0  0  0
   15.3668  -21.5655    0.9347 C   0  0  0  0  0  0  0  0  0  0  0  0
   15.1719  -24.2928   -0.6843 O   0  0  0  0  0  0  0  0  0  0  0  0
   14.4741  -25.2671   -1.1363 N   0  0  0  0  0  0  0  0  0  0  0  0
   16.1784  -28.5140    2.0524 C   0  0  0  0  0  0  0  0  0  0  0  0
   16.7954  -28.2372    0.8081 O   0  0  0  0  0  0  0  0  0  0  0  0
   17.4193  -29.1703    0.1902 C   0  0  0  0  0  0  0  0  0  0  0  0
   16.7398  -26.9042    0.1967 C   0  0  1  0  0  0  0  0  0  0  0  0
   16.0042  -25.9177    1.0419 N   0  0  0  0  0  0  0  0  0  0  0  0
   15.9928  -24.5928    0.4074 C   0  0  0  0  0  0  0  0  0  0  0  0
   16.6980  -25.8160    2.3601 O   0  0  0  0  0  0  0  0  0  0  0  0
   16.7238  -26.8124    3.2882 O   0  0  0  0  0  0  0  0  0  0  0  0
  1  2  1  0
  2  3  2  0
  4  5  1  0
  4  2  1  0
  6  5  1  0
  7  6  1  0
  7  8  1  0
  8 10  1  0
  8  9  1  6
 10 11  2  0
 12 13  1  0
 12 10  1  0
 14 15  1  0
 13 14  1  1
 16 23  1  0
 16 13  1  0
 17 16  2  0
 19 21  1  0
 19 18  1  0
 20 19  2  0
 22 23  1  0
 22 21  1  6
 24 22  1  0
 25 24  1  0
 26 24  2  0
M  END
$$$$
