RCN.pdb
     RDKit          3D

 26 25  0  0  1  0  0  0  0  0999 V2000
   18.2226  -24.5019   -6.4916 N   0  0  0  0  0  0  0  0  0  0  0  0
   18.0543  -25.6333   -7.3315 C   0  0  0  0  0  0  0  0  0  0  0  0
   17.4462  -26.7178   -6.9438 N   0  0  0  0  0  0  0  0  0  0  0  0
   18.5556  -25.6257   -8.6618 N   0  0  0  0  0  0  0  0  0  0  0  0
   19.1691  -24.4539   -9.2500 C   0  0  0  0  0  0  0  0  0  0  0  0
   18.2462  -23.8308  -10.2891 C   0  0  0  0  0  0  0  0  0  0  0  0
   18.9729  -22.9167  -11.2078 C   0  0  0  0  0  0  0  0  0  0  0  0
   19.2414  -21.5866  -10.5635 C   0  0  2  0  0  0  0  0  0  0  0  0
   18.0747  -20.7317  -10.8154 N   0  0  0  0  0  0  0  0  0  0  0  0
   20.4717  -20.9135  -11.0034 C   0  0  0  0  0  0  0  0  0  0  0  0
   20.3460  -19.9057  -11.7795 O   0  0  0  0  0  0  0  0  0  0  0  0
   17.3029  -27.5250   -7.5773 N   0  0  0  0  0  0  0  0  0  0  0  0
   21.7680  -21.3254  -10.6119 C   0  0  2  0  0  0  0  0  0  0  0  0
   22.9181  -20.5796  -11.0919 C   0  0  0  0  0  0  0  0  0  0  0  0
   24.1038  -20.9856  -10.2523 S   0  0  0  0  0  0  0  0  0  0  0  0
   25.6330  -20.2743  -10.8832 C   0  0  0  0  0  0  0  0  0  0  0  0
   23.0986  -20.7509  -12.5390 O   0  0  0  0  0  0  0  0  0  0  0  0
   23.0697  -21.9536  -12.9783 N   0  0  0  0  0  0  0  0  0  0  0  0
   22.2800  -18.7083  -18.1991 C   0  0  0  0  0  0  0  0  0  0  0  0
   22.6320  -19.6446  -17.1966 O   0  0  0  0  0  0  0  0  0  0  0  0
   23.0846  -20.7943  -17.5360 C   0  0  0  0  0  0  0  0  0  0  0  0
   22.4967  -19.3359  -15.7682 C   0  0  2  0  0  0  0  0  0  0  0  0
   23.4853  -20.0740  -14.9275 N   0  0  0  0  0  0  0  0  0  0  0  0
   23.2982  -19.7594  -13.5048 C   0  0  0  0  0  0  0  0  0  0  0  0
   24.8586  -19.6561  -15.3382 O   0  0  0  0  0  0  0  0  0  0  0  0
   25.4525  -20.0276  -16.5061 O   0  0  0  0  0  0  0  0  0  0  0  0
  1  2  1  0
  2  3  2  0
  4  5  1  0
  4  2  1  0
  6  5  1  0
  7  6  1  0
  7  8  1  0
  8 10  1  0
  8  9  1  6
 10 11  2  0
 12 13  1  0
 12 10  1  0
 14 15  1  0
 13 14  1  1
 16 23  1  0
 16 13  1  0
 17 16  2  0
 19 21  1  0
 19 18  1  0
 20 19  2  0
 22 23  1  0
 22 21  1  1
 24 22  1  0
 25 24  1  0
 26 24  2  0
M  END
$$$$
