RCN.pdb
     RDKit          3D

 26 25  0  0  1  0  0  0  0  0999 V2000
   31.5273  -22.0846   -8.6247 N   0  0  0  0  0  0  0  0  0  0  0  0
   31.8958  -22.4853   -9.9352 C   0  0  0  0  0  0  0  0  0  0  0  0
   32.8555  -23.3334  -10.1720 N   0  0  0  0  0  0  0  0  0  0  0  0
   31.2142  -21.9629  -11.0682 N   0  0  0  0  0  0  0  0  0  0  0  0
   30.0170  -21.1583  -10.9469 C   0  0  0  0  0  0  0  0  0  0  0  0
   29.0584  -21.4482  -12.0945 C   0  0  0  0  0  0  0  0  0  0  0  0
   27.8405  -20.5994  -12.0353 C   0  0  0  0  0  0  0  0  0  0  0  0
   26.8828  -20.9313  -13.1440 C   0  0  2  0  0  0  0  0  0  0  0  0
   27.6779  -21.3868  -14.2911 N   0  0  0  0  0  0  0  0  0  0  0  0
   25.9860  -19.8385  -13.5464 C   0  0  0  0  0  0  0  0  0  0  0  0
   25.0316  -19.5374  -12.7516 O   0  0  0  0  0  0  0  0  0  0  0  0
   33.1495  -23.5772  -11.1350 N   0  0  0  0  0  0  0  0  0  0  0  0
   26.1308  -19.1169  -14.7555 C   0  0  1  0  0  0  0  0  0  0  0  0
   25.2010  -18.0402  -15.0477 C   0  0  0  0  0  0  0  0  0  0  0  0
   25.9333  -17.0255  -15.8901 S   0  0  0  0  0  0  0  0  0  0  0  0
   27.0482  -16.0223  -14.8934 C   0  0  0  0  0  0  0  0  0  0  0  0
   23.9594  -18.5537  -15.6399 O   0  0  0  0  0  0  0  0  0  0  0  0
   23.9972  -19.7510  -16.0933 N   0  0  0  0  0  0  0  0  0  0  0  0
   21.0970  -21.5811  -13.3652 C   0  0  0  0  0  0  0  0  0  0  0  0
   20.9563  -20.6857  -14.4533 O   0  0  0  0  0  0  0  0  0  0  0  0
   20.5035  -21.1162  -15.5720 C   0  0  0  0  0  0  0  0  0  0  0  0
   21.3129  -19.2667  -14.3384 C   0  0  2  0  0  0  0  0  0  0  0  0
   21.4475  -18.6015  -15.6681 N   0  0  0  0  0  0  0  0  0  0  0  0
   22.7321  -17.8963  -15.7710 C   0  0  0  0  0  0  0  0  0  0  0  0
   20.3397  -17.6111  -15.8142 O   0  0  0  0  0  0  0  0  0  0  0  0
   19.2029  -17.8372  -16.5292 O   0  0  0  0  0  0  0  0  0  0  0  0
  1  2  1  0
  2  3  2  0
  4  5  1  0
  4  2  1  0
  6  5  1  0
  7  6  1  0
  7  8  1  0
  8 10  1  0
  8  9  1  6
 10 11  2  0
 12 13  1  0
 12 10  1  0
 14 15  1  0
 13 14  1  1
 16 23  1  0
 16 13  1  0
 17 16  2  0
 19 21  1  0
 19 18  1  0
 20 19  2  0
 22 23  1  0
 22 21  1  6
 24 22  1  0
 25 24  1  0
 26 24  2  0
M  END
$$$$
