WIY.pdb
     RDKit          3D

 35 37  0  0  1  0  0  0  0  0999 V2000
    6.4450  -18.4189   25.0322 N   0  0  0  0  0  0  0  0  0  0  0  0
    6.6265  -17.0458   24.5138 C   0  0  1  0  0  0  0  0  0  0  0  0
    7.2248  -16.2798   25.6815 C   0  0  0  0  0  0  0  0  0  0  0  0
    6.4775  -15.0482   25.9998 C   0  0  0  0  0  0  0  0  0  0  0  0
    5.1299  -14.9278   26.3620 C   0  0  0  0  0  0  0  0  0  0  0  0
    4.8219  -13.6384   26.5680 N   0  0  0  0  0  0  0  0  0  0  0  0
    5.9353  -12.8896   26.3514 C   0  0  0  0  0  0  0  0  0  0  0  0
    6.1031  -11.5235   26.4429 C   0  0  0  0  0  0  0  0  0  0  0  0
    7.3584  -11.0042   26.1695 C   0  0  0  0  0  0  0  0  0  0  0  0
    8.3783  -11.8602   25.8215 C   0  0  0  0  0  0  0  0  0  0  0  0
    8.2023  -13.2362   25.7313 C   0  0  0  0  0  0  0  0  0  0  0  0
    6.9597  -13.7513   26.0012 C   0  0  0  0  0  0  0  0  0  0  0  0
    7.6811  -17.0858   23.4678 C   0  0  0  0  0  0  0  0  0  0  0  0
    8.4081  -18.1383   23.3249 O   0  0  0  0  0  0  0  0  0  0  0  0
    7.3221  -13.0915   19.6581 C   0  0  0  0  0  0  0  0  0  0  0  0
    7.3845  -14.4707   20.2701 C   0  0  0  0  0  0  0  0  0  0  0  0
    8.7912  -14.7040   20.7477 C   0  0  2  0  0  0  0  0  0  0  0  0
    9.6597  -14.8952   19.5237 C   0  0  0  0  0  0  0  0  0  0  0  0
    8.8863  -15.9662   21.6013 C   0  0  2  0  0  0  0  0  0  0  0  0
    7.8810  -15.9676   22.6337 N   0  0  0  0  0  0  0  0  0  0  0  0
   10.2703  -16.0434   22.1088 C   0  0  0  0  0  0  0  0  0  0  0  0
   11.0949  -15.1987   21.6919 O   0  0  0  0  0  0  0  0  0  0  0  0
    9.1784  -16.1839   29.2908 O   0  0  0  0  0  0  0  0  0  0  0  0
    9.9026  -16.0370   28.1056 C   0  0  0  0  0  0  0  0  0  0  0  0
   11.1253  -16.6515   27.9142 C   0  0  0  0  0  0  0  0  0  0  0  0
   11.7994  -16.4720   26.7217 C   0  0  0  0  0  0  0  0  0  0  0  0
   11.2574  -15.6860   25.7289 C   0  0  0  0  0  0  0  0  0  0  0  0
   12.0018  -15.5230   24.4671 C   0  0  0  0  0  0  0  0  0  0  0  0
   12.0355  -16.8108   23.6533 C   0  0  2  0  0  0  0  0  0  0  0  0
   10.7111  -17.0133   23.0387 N   0  0  0  0  0  0  0  0  0  0  0  0
   12.3799  -17.9754   24.4681 C   0  0  0  0  0  0  0  0  0  0  0  0
   11.6173  -18.9340   24.6224 O   0  0  0  0  0  0  0  0  0  0  0  0
   10.0191  -15.0656   25.9275 C   0  0  0  0  0  0  0  0  0  0  0  0
    9.3397  -15.2402   27.1164 C   0  0  0  0  0  0  0  0  0  0  0  0
   13.6192  -18.0784   25.1394 O   0  0  0  0  0  0  0  0  0  0  0  0
  2  1  1  1
  2  3  1  0
  3  4  1  0
  4  5  2  0
  6  5  1  0
  7  6  1  0
  8  7  2  0
  9  8  1  0
 10  9  2  0
 10 11  1  0
 11 12  2  0
 12  7  1  0
 12  4  1  0
 13  2  1  0
 14 13  2  0
 15 16  1  0
 17 19  1  0
 17 16  1  0
 17 18  1  6
 19 20  1  1
 20 13  1  0
 21 19  1  0
 21 22  2  0
 23 24  1  0
 24 34  2  0
 24 25  1  0
 25 26  2  0
 26 27  1  0
 27 28  1  0
 29 28  1  1
 29 30  1  0
 30 21  1  0
 31 29  1  0
 32 31  2  0
 33 27  2  0
 34 33  1  0
 35 31  1  0
M  END
$$$$
