WIY.pdb
     RDKit          3D

 35 37  0  0  1  0  0  0  0  0999 V2000
    6.0466  -18.0791   23.7484 N   0  0  0  0  0  0  0  0  0  0  0  0
    6.5567  -16.6970   23.6181 C   0  0  1  0  0  0  0  0  0  0  0  0
    7.1316  -16.3784   24.9878 C   0  0  0  0  0  0  0  0  0  0  0  0
    6.3870  -15.3134   25.6864 C   0  0  0  0  0  0  0  0  0  0  0  0
    5.2064  -15.4337   26.4303 C   0  0  0  0  0  0  0  0  0  0  0  0
    4.8379  -14.2348   26.9064 N   0  0  0  0  0  0  0  0  0  0  0  0
    5.7470  -13.3109   26.4972 C   0  0  0  0  0  0  0  0  0  0  0  0
    5.7865  -11.9537   26.7410 C   0  0  0  0  0  0  0  0  0  0  0  0
    6.8375  -11.2283   26.2033 C   0  0  0  0  0  0  0  0  0  0  0  0
    7.7911  -11.8808   25.4556 C   0  0  0  0  0  0  0  0  0  0  0  0
    7.7452  -13.2489   25.2138 C   0  0  0  0  0  0  0  0  0  0  0  0
    6.7047  -13.9680   25.7452 C   0  0  0  0  0  0  0  0  0  0  0  0
    7.7128  -16.7205   22.6849 C   0  0  0  0  0  0  0  0  0  0  0  0
    8.3530  -17.8180   22.4789 O   0  0  0  0  0  0  0  0  0  0  0  0
    7.5299  -12.7153   19.1393 C   0  0  0  0  0  0  0  0  0  0  0  0
    7.7463  -14.1667   19.4963 C   0  0  0  0  0  0  0  0  0  0  0  0
    9.0857  -14.2850   20.1695 C   0  0  2  0  0  0  0  0  0  0  0  0
   10.1303  -14.4091   19.0821 C   0  0  0  0  0  0  0  0  0  0  0  0
    9.1593  -15.5330   21.0455 C   0  0  2  0  0  0  0  0  0  0  0  0
    8.1040  -15.5373   22.0270 N   0  0  0  0  0  0  0  0  0  0  0  0
   10.5174  -15.5790   21.6221 C   0  0  0  0  0  0  0  0  0  0  0  0
   11.2520  -14.5765   21.4709 O   0  0  0  0  0  0  0  0  0  0  0  0
   11.1788  -15.1208   29.9632 O   0  0  0  0  0  0  0  0  0  0  0  0
   10.9161  -15.3519   28.6110 C   0  0  0  0  0  0  0  0  0  0  0  0
   10.2617  -16.4887   28.1767 C   0  0  0  0  0  0  0  0  0  0  0  0
   10.0277  -16.6670   26.8268 C   0  0  0  0  0  0  0  0  0  0  0  0
   10.4434  -15.7186   25.9186 C   0  0  0  0  0  0  0  0  0  0  0  0
   10.1701  -15.9393   24.4869 C   0  0  0  0  0  0  0  0  0  0  0  0
   11.3900  -16.4767   23.7488 C   0  0  2  0  0  0  0  0  0  0  0  0
   11.0290  -16.6877   22.3354 N   0  0  0  0  0  0  0  0  0  0  0  0
   11.8794  -17.7303   24.3211 C   0  0  0  0  0  0  0  0  0  0  0  0
   11.2883  -18.8053   24.1832 O   0  0  0  0  0  0  0  0  0  0  0  0
   11.1059  -14.5692   26.3632 C   0  0  0  0  0  0  0  0  0  0  0  0
   11.3433  -14.3841   27.7104 C   0  0  0  0  0  0  0  0  0  0  0  0
   13.0714  -17.7919   25.0780 O   0  0  0  0  0  0  0  0  0  0  0  0
  2  1  1  1
  2  3  1  0
  3  4  1  0
  4  5  2  0
  6  5  1  0
  7  6  1  0
  8  7  2  0
  9  8  1  0
 10  9  2  0
 10 11  1  0
 11 12  2  0
 12  7  1  0
 12  4  1  0
 13  2  1  0
 14 13  2  0
 15 16  1  0
 17 19  1  0
 17 16  1  0
 17 18  1  6
 19 20  1  1
 20 13  1  0
 21 19  1  0
 21 22  2  0
 23 24  1  0
 24 34  2  0
 24 25  1  0
 25 26  2  0
 26 27  1  0
 27 28  1  0
 29 28  1  1
 29 30  1  0
 30 21  1  0
 31 29  1  0
 32 31  2  0
 33 27  2  0
 34 33  1  0
 35 31  1  0
M  END
$$$$
