WIY.pdb
     RDKit          3D

 35 37  0  0  1  0  0  0  0  0999 V2000
    6.1427  -18.2370   24.2725 N   0  0  0  0  0  0  0  0  0  0  0  0
    6.4784  -16.8237   23.9949 C   0  0  1  0  0  0  0  0  0  0  0  0
    7.2124  -16.3604   25.2419 C   0  0  0  0  0  0  0  0  0  0  0  0
    6.4448  -15.3713   26.0224 C   0  0  0  0  0  0  0  0  0  0  0  0
    5.3357  -15.5981   26.8470 C   0  0  0  0  0  0  0  0  0  0  0  0
    4.9154  -14.4417   27.3819 N   0  0  0  0  0  0  0  0  0  0  0  0
    5.7197  -13.4421   26.9331 C   0  0  0  0  0  0  0  0  0  0  0  0
    5.6758  -12.0917   27.2110 C   0  0  0  0  0  0  0  0  0  0  0  0
    6.6264  -11.2762   26.6182 C   0  0  0  0  0  0  0  0  0  0  0  0
    7.5672  -11.8370   25.7849 C   0  0  0  0  0  0  0  0  0  0  0  0
    7.6057  -13.1989   25.5092 C   0  0  0  0  0  0  0  0  0  0  0  0
    6.6646  -14.0072   26.0951 C   0  0  0  0  0  0  0  0  0  0  0  0
    7.4797  -16.7968   22.8975 C   0  0  0  0  0  0  0  0  0  0  0  0
    7.9388  -17.8989   22.4163 O   0  0  0  0  0  0  0  0  0  0  0  0
    7.6011  -12.1371   19.9704 C   0  0  0  0  0  0  0  0  0  0  0  0
    7.4948  -13.5818   20.3969 C   0  0  0  0  0  0  0  0  0  0  0  0
    8.8819  -14.0835   20.6890 C   0  0  2  0  0  0  0  0  0  0  0  0
    9.6279  -14.1454   19.3741 C   0  0  0  0  0  0  0  0  0  0  0  0
    8.8509  -15.4883   21.2857 C   0  0  2  0  0  0  0  0  0  0  0  0
    7.9235  -15.5608   22.3863 N   0  0  0  0  0  0  0  0  0  0  0  0
   10.2393  -15.8380   21.6447 C   0  0  0  0  0  0  0  0  0  0  0  0
   11.1247  -15.6903   20.7720 O   0  0  0  0  0  0  0  0  0  0  0  0
    9.8157  -14.0639   28.4928 O   0  0  0  0  0  0  0  0  0  0  0  0
   10.4030  -14.8300   27.4834 C   0  0  0  0  0  0  0  0  0  0  0  0
   10.4236  -14.4128   26.1663 C   0  0  0  0  0  0  0  0  0  0  0  0
   11.0180  -15.2106   25.2076 C   0  0  0  0  0  0  0  0  0  0  0  0
   11.5869  -16.4142   25.5609 C   0  0  0  0  0  0  0  0  0  0  0  0
   12.2183  -17.2356   24.5123 C   0  0  0  0  0  0  0  0  0  0  0  0
   12.0493  -16.6227   23.1275 C   0  0  2  0  0  0  0  0  0  0  0  0
   10.6212  -16.3250   22.9162 N   0  0  0  0  0  0  0  0  0  0  0  0
   12.5270  -17.5070   22.0652 C   0  0  0  0  0  0  0  0  0  0  0  0
   11.7967  -17.9222   21.1605 O   0  0  0  0  0  0  0  0  0  0  0  0
   11.5633  -16.8325   26.8959 C   0  0  0  0  0  0  0  0  0  0  0  0
   10.9711  -16.0409   27.8594 C   0  0  0  0  0  0  0  0  0  0  0  0
   13.8681  -17.9491   22.0066 O   0  0  0  0  0  0  0  0  0  0  0  0
  2  1  1  1
  2  3  1  0
  3  4  1  0
  4  5  2  0
  6  5  1  0
  7  6  1  0
  8  7  2  0
  9  8  1  0
 10  9  2  0
 10 11  1  0
 11 12  2  0
 12  7  1  0
 12  4  1  0
 13  2  1  0
 14 13  2  0
 15 16  1  0
 17 19  1  0
 17 16  1  0
 17 18  1  6
 19 20  1  1
 20 13  1  0
 21 19  1  0
 21 22  2  0
 23 24  1  0
 24 34  2  0
 24 25  1  0
 25 26  2  0
 26 27  1  0
 27 28  1  0
 29 28  1  1
 29 30  1  0
 30 21  1  0
 31 29  1  0
 32 31  2  0
 33 27  2  0
 34 33  1  0
 35 31  1  0
M  END
$$$$
