WIY.pdb
     RDKit          3D

 35 37  0  0  1  0  0  0  0  0999 V2000
    5.8771  -17.8618   23.6860 N   0  0  0  0  0  0  0  0  0  0  0  0
    6.5309  -16.5418   23.5546 C   0  0  1  0  0  0  0  0  0  0  0  0
    7.2017  -16.3197   24.8996 C   0  0  0  0  0  0  0  0  0  0  0  0
    6.6172  -15.1921   25.6503 C   0  0  0  0  0  0  0  0  0  0  0  0
    5.3524  -15.1184   26.2473 C   0  0  0  0  0  0  0  0  0  0  0  0
    5.1893  -13.9233   26.8346 N   0  0  0  0  0  0  0  0  0  0  0  0
    6.3190  -13.1920   26.6441 C   0  0  0  0  0  0  0  0  0  0  0  0
    6.6147  -11.9120   27.0647 C   0  0  0  0  0  0  0  0  0  0  0  0
    7.8562  -11.3916   26.7363 C   0  0  0  0  0  0  0  0  0  0  0  0
    8.7372  -12.1619   26.0120 C   0  0  0  0  0  0  0  0  0  0  0  0
    8.4328  -13.4514   25.5913 C   0  0  0  0  0  0  0  0  0  0  0  0
    7.2036  -13.9672   25.9154 C   0  0  0  0  0  0  0  0  0  0  0  0
    7.6319  -16.6714   22.5651 C   0  0  0  0  0  0  0  0  0  0  0  0
    8.1074  -17.8325   22.2779 O   0  0  0  0  0  0  0  0  0  0  0  0
    7.6359  -12.5212   20.3388 C   0  0  0  0  0  0  0  0  0  0  0  0
    7.9944  -13.8140   19.6453 C   0  0  0  0  0  0  0  0  0  0  0  0
    9.3180  -14.2799   20.1860 C   0  0  2  0  0  0  0  0  0  0  0  0
   10.2376  -14.5008   19.0051 C   0  0  0  0  0  0  0  0  0  0  0  0
    9.1780  -15.6028   20.9349 C   0  0  2  0  0  0  0  0  0  0  0  0
    8.1518  -15.5187   21.9431 N   0  0  0  0  0  0  0  0  0  0  0  0
   10.5132  -15.9462   21.4623 C   0  0  0  0  0  0  0  0  0  0  0  0
   10.9466  -15.2860   22.4338 O   0  0  0  0  0  0  0  0  0  0  0  0
   17.7866  -13.7864   18.0108 O   0  0  0  0  0  0  0  0  0  0  0  0
   16.5275  -14.1883   18.4623 C   0  0  0  0  0  0  0  0  0  0  0  0
   16.3747  -15.1351   19.4570 C   0  0  0  0  0  0  0  0  0  0  0  0
   15.1052  -15.4960   19.8655 C   0  0  0  0  0  0  0  0  0  0  0  0
   13.9980  -14.9166   19.2861 C   0  0  0  0  0  0  0  0  0  0  0  0
   12.6595  -15.3213   19.7524 C   0  0  0  0  0  0  0  0  0  0  0  0
   12.6988  -16.6255   20.5393 C   0  0  2  0  0  0  0  0  0  0  0  0
   11.3230  -16.9781   20.9340 N   0  0  0  0  0  0  0  0  0  0  0  0
   13.5408  -16.5314   21.7313 C   0  0  0  0  0  0  0  0  0  0  0  0
   13.2586  -15.8139   22.6956 O   0  0  0  0  0  0  0  0  0  0  0  0
   14.1578  -13.9585   18.2790 C   0  0  0  0  0  0  0  0  0  0  0  0
   15.4231  -13.5928   17.8655 C   0  0  0  0  0  0  0  0  0  0  0  0
   14.7444  -17.2614   21.8563 O   0  0  0  0  0  0  0  0  0  0  0  0
  2  1  1  1
  2  3  1  0
  3  4  1  0
  4  5  2  0
  6  5  1  0
  7  6  1  0
  8  7  2  0
  9  8  1  0
 10  9  2  0
 10 11  1  0
 11 12  2  0
 12  7  1  0
 12  4  1  0
 13  2  1  0
 14 13  2  0
 15 16  1  0
 17 19  1  0
 17 16  1  0
 17 18  1  6
 19 20  1  1
 20 13  1  0
 21 19  1  0
 21 22  2  0
 23 24  1  0
 24 34  2  0
 24 25  1  0
 25 26  2  0
 26 27  1  0
 27 28  1  0
 29 28  1  1
 29 30  1  0
 30 21  1  0
 31 29  1  0
 32 31  2  0
 33 27  2  0
 34 33  1  0
 35 31  1  0
M  END
$$$$
