WIY.pdb
     RDKit          3D

 35 37  0  0  1  0  0  0  0  0999 V2000
    5.7575  -18.6730   24.5627 N   0  0  0  0  0  0  0  0  0  0  0  0
    6.3538  -17.3253   24.4388 C   0  0  1  0  0  0  0  0  0  0  0  0
    7.2715  -17.2087   25.6441 C   0  0  0  0  0  0  0  0  0  0  0  0
    6.8883  -16.1088   26.5496 C   0  0  0  0  0  0  0  0  0  0  0  0
    6.2706  -16.2010   27.8033 C   0  0  0  0  0  0  0  0  0  0  0  0
    6.0823  -14.9753   28.3152 N   0  0  0  0  0  0  0  0  0  0  0  0
    6.5608  -14.0610   27.4306 C   0  0  0  0  0  0  0  0  0  0  0  0
    6.5875  -12.6848   27.5222 C   0  0  0  0  0  0  0  0  0  0  0  0
    7.1410  -11.9751   26.4687 C   0  0  0  0  0  0  0  0  0  0  0  0
    7.6377  -12.6611   25.3839 C   0  0  0  0  0  0  0  0  0  0  0  0
    7.6077  -14.0482   25.2981 C   0  0  0  0  0  0  0  0  0  0  0  0
    7.0593  -14.7519   26.3404 C   0  0  0  0  0  0  0  0  0  0  0  0
    7.2417  -17.3240   23.2473 C   0  0  0  0  0  0  0  0  0  0  0  0
    7.3332  -18.3752   22.5102 O   0  0  0  0  0  0  0  0  0  0  0  0
    7.7591  -12.4770   20.6059 C   0  0  0  0  0  0  0  0  0  0  0  0
    7.5172  -13.9403   20.8901 C   0  0  0  0  0  0  0  0  0  0  0  0
    8.8276  -14.5585   21.2925 C   0  0  2  0  0  0  0  0  0  0  0  0
    9.7533  -14.4763   20.0986 C   0  0  0  0  0  0  0  0  0  0  0  0
    8.6577  -16.0296   21.6633 C   0  0  2  0  0  0  0  0  0  0  0  0
    7.9817  -16.1679   22.9284 N   0  0  0  0  0  0  0  0  0  0  0  0
    9.9996  -16.6437   21.6277 C   0  0  0  0  0  0  0  0  0  0  0  0
   10.6925  -16.4774   20.5983 O   0  0  0  0  0  0  0  0  0  0  0  0
   11.3197  -15.1352   29.3590 O   0  0  0  0  0  0  0  0  0  0  0  0
   11.3991  -15.1952   27.9658 C   0  0  0  0  0  0  0  0  0  0  0  0
   11.5501  -14.0605   27.1920 C   0  0  0  0  0  0  0  0  0  0  0  0
   11.6229  -14.1774   25.8173 C   0  0  0  0  0  0  0  0  0  0  0  0
   11.5458  -15.4164   25.2205 C   0  0  0  0  0  0  0  0  0  0  0  0
   11.6343  -15.5032   23.7517 C   0  0  0  0  0  0  0  0  0  0  0  0
   11.8141  -16.9390   23.2741 C   0  0  2  0  0  0  0  0  0  0  0  0
   10.5426  -17.4028   22.6901 N   0  0  0  0  0  0  0  0  0  0  0  0
   12.2130  -17.8394   24.3551 C   0  0  0  0  0  0  0  0  0  0  0  0
   11.4903  -18.7509   24.7687 O   0  0  0  0  0  0  0  0  0  0  0  0
   11.3926  -16.5625   26.0083 C   0  0  0  0  0  0  0  0  0  0  0  0
   11.3190  -16.4536   27.3825 C   0  0  0  0  0  0  0  0  0  0  0  0
   13.4632  -17.7216   25.0037 O   0  0  0  0  0  0  0  0  0  0  0  0
  2  1  1  1
  2  3  1  0
  3  4  1  0
  4  5  2  0
  6  5  1  0
  7  6  1  0
  8  7  2  0
  9  8  1  0
 10  9  2  0
 10 11  1  0
 11 12  2  0
 12  7  1  0
 12  4  1  0
 13  2  1  0
 14 13  2  0
 15 16  1  0
 17 19  1  0
 17 16  1  0
 17 18  1  6
 19 20  1  1
 20 13  1  0
 21 19  1  0
 21 22  2  0
 23 24  1  0
 24 34  2  0
 24 25  1  0
 25 26  2  0
 26 27  1  0
 27 28  1  0
 29 28  1  1
 29 30  1  0
 30 21  1  0
 31 29  1  0
 32 31  2  0
 33 27  2  0
 34 33  1  0
 35 31  1  0
M  END
$$$$
