WIY.pdb
     RDKit          3D

 35 37  0  0  1  0  0  0  0  0999 V2000
    6.5350  -17.8422   25.5181 N   0  0  0  0  0  0  0  0  0  0  0  0
    6.7279  -16.5286   24.8665 C   0  0  1  0  0  0  0  0  0  0  0  0
    7.3636  -15.6654   25.9431 C   0  0  0  0  0  0  0  0  0  0  0  0
    6.5276  -14.5082   26.3154 C   0  0  0  0  0  0  0  0  0  0  0  0
    5.2410  -14.5177   26.8685 C   0  0  0  0  0  0  0  0  0  0  0  0
    4.8136  -13.2608   27.0620 N   0  0  0  0  0  0  0  0  0  0  0  0
    5.7871  -12.4066   26.6497 C   0  0  0  0  0  0  0  0  0  0  0  0
    5.8016  -11.0273   26.6557 C   0  0  0  0  0  0  0  0  0  0  0  0
    6.9339  -10.3883   26.1762 C   0  0  0  0  0  0  0  0  0  0  0  0
    7.9885  -11.1442   25.7178 C   0  0  0  0  0  0  0  0  0  0  0  0
    7.9673  -12.5342   25.7146 C   0  0  0  0  0  0  0  0  0  0  0  0
    6.8465  -13.1678   26.1886 C   0  0  0  0  0  0  0  0  0  0  0  0
    7.7589  -16.6879   23.8085 C   0  0  0  0  0  0  0  0  0  0  0  0
    8.6692  -17.5904   23.9259 O   0  0  0  0  0  0  0  0  0  0  0  0
    7.1190  -13.3746   19.3831 C   0  0  0  0  0  0  0  0  0  0  0  0
    7.3500  -14.6752   20.1148 C   0  0  0  0  0  0  0  0  0  0  0  0
    8.6825  -14.5891   20.8064 C   0  0  2  0  0  0  0  0  0  0  0  0
    9.7531  -14.7029   19.7435 C   0  0  0  0  0  0  0  0  0  0  0  0
    8.8702  -15.7360   21.7964 C   0  0  2  0  0  0  0  0  0  0  0  0
    7.7352  -15.8478   22.6774 N   0  0  0  0  0  0  0  0  0  0  0  0
   10.1513  -15.5035   22.4919 C   0  0  0  0  0  0  0  0  0  0  0  0
   10.1419  -14.7710   23.5071 O   0  0  0  0  0  0  0  0  0  0  0  0
   10.1504  -15.8204   29.0536 O   0  0  0  0  0  0  0  0  0  0  0  0
   10.5394  -16.2279   27.7755 C   0  0  0  0  0  0  0  0  0  0  0  0
   10.5834  -15.3500   26.7094 C   0  0  0  0  0  0  0  0  0  0  0  0
   10.9755  -15.8068   25.4658 C   0  0  0  0  0  0  0  0  0  0  0  0
   11.3208  -17.1284   25.2885 C   0  0  0  0  0  0  0  0  0  0  0  0
   11.7410  -17.5783   23.9491 C   0  0  0  0  0  0  0  0  0  0  0  0
   12.3423  -16.4442   23.1281 C   0  0  2  0  0  0  0  0  0  0  0  0
   11.3814  -16.0641   22.0769 N   0  0  0  0  0  0  0  0  0  0  0  0
   13.6167  -16.8160   22.5146 C   0  0  0  0  0  0  0  0  0  0  0  0
   14.7027  -16.3842   22.9124 O   0  0  0  0  0  0  0  0  0  0  0  0
   11.2744  -18.0135   26.3710 C   0  0  0  0  0  0  0  0  0  0  0  0
   10.8835  -17.5645   27.6165 C   0  0  0  0  0  0  0  0  0  0  0  0
   13.6874  -17.7007   21.4148 O   0  0  0  0  0  0  0  0  0  0  0  0
  2  1  1  1
  2  3  1  0
  3  4  1  0
  4  5  2  0
  6  5  1  0
  7  6  1  0
  8  7  2  0
  9  8  1  0
 10  9  2  0
 10 11  1  0
 11 12  2  0
 12  7  1  0
 12  4  1  0
 13  2  1  0
 14 13  2  0
 15 16  1  0
 17 19  1  0
 17 16  1  0
 17 18  1  6
 19 20  1  1
 20 13  1  0
 21 19  1  0
 21 22  2  0
 23 24  1  0
 24 34  2  0
 24 25  1  0
 25 26  2  0
 26 27  1  0
 27 28  1  0
 29 28  1  6
 29 30  1  0
 30 21  1  0
 31 29  1  0
 32 31  2  0
 33 27  2  0
 34 33  1  0
 35 31  1  0
M  END
$$$$
