IAK.pdb
     RDKit          3D

 23 22  0  0  1  0  0  0  0  0999 V2000
    8.3985  -11.7318   26.8833 C   0  0  0  0  0  0  0  0  0  0  0  0
    7.8969  -13.1188   26.6562 C   0  0  0  0  0  0  0  0  0  0  0  0
    6.7053  -13.1222   25.7607 C   0  0  2  0  0  0  0  0  0  0  0  0
    5.5794  -12.2633   26.3142 C   0  0  0  0  0  0  0  0  0  0  0  0
    6.2283  -14.4546   25.2922 C   0  0  2  0  0  0  0  0  0  0  0  0
    6.0124  -15.2293   26.5367 N   0  0  0  0  0  0  0  0  0  0  0  0
    7.1379  -15.2233   24.4510 C   0  0  0  0  0  0  0  0  0  0  0  0
    7.8387  -16.1715   24.9647 O   0  0  0  0  0  0  0  0  0  0  0  0
    8.3732  -15.2254   20.8996 C   0  0  0  0  0  0  0  0  0  0  0  0
    8.3612  -15.7983   22.3181 C   0  0  2  0  0  0  0  0  0  0  0  0
    7.3665  -15.0568   23.0590 N   0  0  0  0  0  0  0  0  0  0  0  0
    9.7205  -15.6309   22.8559 C   0  0  0  0  0  0  0  0  0  0  0  0
   10.2526  -14.5268   23.1331 O   0  0  0  0  0  0  0  0  0  0  0  0
   10.4770  -16.8407   23.0717 N   0  0  0  0  0  0  0  0  0  0  0  0
   11.7974  -16.8210   23.6366 C   0  0  1  0  0  0  0  0  0  0  0  0
   12.1273  -18.1857   24.2023 C   0  0  0  0  0  0  0  0  0  0  0  0
   11.2885  -18.5309   25.3922 C   0  0  0  0  0  0  0  0  0  0  0  0
   11.5551  -19.9631   25.8087 C   0  0  0  0  0  0  0  0  0  0  0  0
   10.7634  -20.3548   27.0256 C   0  0  0  0  0  0  0  0  0  0  0  0
   10.9057  -21.7364   27.3833 N   0  0  0  0  0  0  0  0  0  0  0  0
   12.7636  -16.4586   22.5685 C   0  0  0  0  0  0  0  0  0  0  0  0
   14.0155  -15.9194   22.8333 O   0  0  0  0  0  0  0  0  0  0  0  0
   12.4821  -16.6290   21.3427 O   0  0  0  0  0  0  0  0  0  0  0  0
  2  3  1  0
  2  1  1  0
  3  5  1  0
  3  4  1  1
  5  7  1  0
  5  6  1  1
  7  8  2  0
 10  9  1  6
 10 12  1  0
 11 10  1  0
 11  7  1  0
 12 13  2  0
 14 15  1  0
 14 12  1  0
 15 21  1  0
 15 16  1  6
 17 16  1  0
 18 17  1  0
 19 18  1  0
 20 19  1  0
 21 23  2  0
 21 22  1  0
M  END
$$$$
