IAK.pdb
     RDKit          3D

 23 22  0  0  1  0  0  0  0  0999 V2000
    6.5021  -11.3335   27.5029 C   0  0  0  0  0  0  0  0  0  0  0  0
    5.8304  -12.4895   26.8400 C   0  0  0  0  0  0  0  0  0  0  0  0
    6.7402  -13.1566   25.8657 C   0  0  2  0  0  0  0  0  0  0  0  0
    7.4269  -12.1520   24.9540 C   0  0  0  0  0  0  0  0  0  0  0  0
    6.1781  -14.3158   25.1158 C   0  0  2  0  0  0  0  0  0  0  0  0
    5.8279  -15.3013   26.1653 N   0  0  0  0  0  0  0  0  0  0  0  0
    7.0642  -14.9820   24.1687 C   0  0  0  0  0  0  0  0  0  0  0  0
    7.9307  -15.8329   24.5917 O   0  0  0  0  0  0  0  0  0  0  0  0
    7.9181  -14.8627   20.5160 C   0  0  0  0  0  0  0  0  0  0  0  0
    7.9909  -15.5384   21.8866 C   0  0  2  0  0  0  0  0  0  0  0  0
    7.1002  -14.8083   22.7594 N   0  0  0  0  0  0  0  0  0  0  0  0
    9.3962  -15.4755   22.3178 C   0  0  0  0  0  0  0  0  0  0  0  0
    9.9688  -14.4451   22.7532 O   0  0  0  0  0  0  0  0  0  0  0  0
   10.1503  -16.7022   22.2234 N   0  0  0  0  0  0  0  0  0  0  0  0
   11.3752  -16.8992   22.9471 C   0  0  1  0  0  0  0  0  0  0  0  0
   11.1500  -17.8968   24.0631 C   0  0  0  0  0  0  0  0  0  0  0  0
   12.4222  -18.2903   24.7452 C   0  0  0  0  0  0  0  0  0  0  0  0
   12.1290  -19.3091   25.8278 C   0  0  0  0  0  0  0  0  0  0  0  0
   13.3738  -19.7347   26.5559 C   0  0  0  0  0  0  0  0  0  0  0  0
   13.1279  -20.6666   27.6181 N   0  0  0  0  0  0  0  0  0  0  0  0
   12.4056  -17.4044   22.0044 C   0  0  0  0  0  0  0  0  0  0  0  0
   13.7661  -17.1974   22.1901 O   0  0  0  0  0  0  0  0  0  0  0  0
   12.0819  -18.0604   20.9672 O   0  0  0  0  0  0  0  0  0  0  0  0
  2  3  1  0
  2  1  1  0
  3  5  1  0
  3  4  1  6
  5  7  1  0
  5  6  1  1
  7  8  2  0
 10  9  1  6
 10 12  1  0
 11 10  1  0
 11  7  1  0
 12 13  2  0
 14 15  1  0
 14 12  1  0
 15 21  1  0
 15 16  1  1
 17 16  1  0
 18 17  1  0
 19 18  1  0
 20 19  1  0
 21 23  2  0
 21 22  1  0
M  END
$$$$
