IAK.pdb
     RDKit          3D

 23 22  0  0  1  0  0  0  0  0999 V2000
    6.6038  -12.2222   27.9369 C   0  0  0  0  0  0  0  0  0  0  0  0
    5.9444  -13.1017   26.9276 C   0  0  0  0  0  0  0  0  0  0  0  0
    6.9461  -13.7189   26.0125 C   0  0  2  0  0  0  0  0  0  0  0  0
    7.9084  -12.6859   25.4479 C   0  0  0  0  0  0  0  0  0  0  0  0
    6.4143  -14.6354   24.9640 C   0  0  2  0  0  0  0  0  0  0  0  0
    5.6554  -15.6605   25.7183 N   0  0  0  0  0  0  0  0  0  0  0  0
    7.3930  -15.3346   24.1398 C   0  0  0  0  0  0  0  0  0  0  0  0
    8.0734  -16.3056   24.6381 O   0  0  0  0  0  0  0  0  0  0  0  0
    8.7864  -15.1735   20.6494 C   0  0  0  0  0  0  0  0  0  0  0  0
    8.7212  -15.8003   22.0433 C   0  0  2  0  0  0  0  0  0  0  0  0
    7.7137  -15.0731   22.7810 N   0  0  0  0  0  0  0  0  0  0  0  0
   10.0649  -15.6742   22.6297 C   0  0  0  0  0  0  0  0  0  0  0  0
   10.6242  -14.5862   22.9170 O   0  0  0  0  0  0  0  0  0  0  0  0
   10.7708  -16.9069   22.8836 N   0  0  0  0  0  0  0  0  0  0  0  0
   12.0892  -16.9245   23.4530 C   0  0  1  0  0  0  0  0  0  0  0  0
   12.1868  -18.0397   24.4719 C   0  0  0  0  0  0  0  0  0  0  0  0
   11.4222  -17.7413   25.7229 C   0  0  0  0  0  0  0  0  0  0  0  0
   11.5851  -18.8818   26.7071 C   0  0  0  0  0  0  0  0  0  0  0  0
   10.9256  -18.5890   28.0262 C   0  0  0  0  0  0  0  0  0  0  0  0
   10.9150  -19.7074   28.9241 N   0  0  0  0  0  0  0  0  0  0  0  0
   13.0733  -17.1367   22.3610 C   0  0  0  0  0  0  0  0  0  0  0  0
   12.7033  -17.4701   21.0648 O   0  0  0  0  0  0  0  0  0  0  0  0
   14.3199  -17.0203   22.5684 O   0  0  0  0  0  0  0  0  0  0  0  0
  2  3  1  0
  2  1  1  0
  3  5  1  0
  3  4  1  6
  5  7  1  0
  5  6  1  1
  7  8  2  0
 10  9  1  6
 10 12  1  0
 11 10  1  0
 11  7  1  0
 12 13  2  0
 14 15  1  0
 14 12  1  0
 15 21  1  0
 15 16  1  1
 17 16  1  0
 18 17  1  0
 19 18  1  0
 20 19  1  0
 21 23  2  0
 21 22  1  0
M  END
$$$$
