IAK.pdb
     RDKit          3D

 23 22  0  0  1  0  0  0  0  0999 V2000
    6.6528  -11.4095   27.2211 C   0  0  0  0  0  0  0  0  0  0  0  0
    5.9824  -12.5487   26.5284 C   0  0  0  0  0  0  0  0  0  0  0  0
    6.9570  -13.3421   25.7267 C   0  0  2  0  0  0  0  0  0  0  0  0
    7.8542  -12.4503   24.8832 C   0  0  0  0  0  0  0  0  0  0  0  0
    6.4042  -14.4899   24.9527 C   0  0  2  0  0  0  0  0  0  0  0  0
    5.8435  -15.3956   25.9827 N   0  0  0  0  0  0  0  0  0  0  0  0
    7.3480  -15.2650   24.1562 C   0  0  0  0  0  0  0  0  0  0  0  0
    8.0609  -16.1774   24.7159 O   0  0  0  0  0  0  0  0  0  0  0  0
    8.6614  -15.3761   20.6371 C   0  0  0  0  0  0  0  0  0  0  0  0
    8.5561  -15.9554   22.0490 C   0  0  2  0  0  0  0  0  0  0  0  0
    7.5996  -15.1415   22.7637 N   0  0  0  0  0  0  0  0  0  0  0  0
    9.9057  -15.9011   22.6328 C   0  0  0  0  0  0  0  0  0  0  0  0
   10.4580  -14.8607   23.0703 O   0  0  0  0  0  0  0  0  0  0  0  0
   10.6267  -17.1496   22.6954 N   0  0  0  0  0  0  0  0  0  0  0  0
   11.7361  -17.3428   23.5870 C   0  0  1  0  0  0  0  0  0  0  0  0
   11.4224  -18.4671   24.5508 C   0  0  0  0  0  0  0  0  0  0  0  0
   12.1631  -18.3365   25.8441 C   0  0  0  0  0  0  0  0  0  0  0  0
   11.8528  -19.5229   26.7341 C   0  0  0  0  0  0  0  0  0  0  0  0
   12.4365  -19.3651   28.1108 C   0  0  0  0  0  0  0  0  0  0  0  0
   12.1209  -20.4483   28.9963 N   0  0  0  0  0  0  0  0  0  0  0  0
   12.9384  -17.6754   22.7809 C   0  0  0  0  0  0  0  0  0  0  0  0
   14.1991  -17.1637   23.0581 O   0  0  0  0  0  0  0  0  0  0  0  0
   12.8650  -18.4572   21.7838 O   0  0  0  0  0  0  0  0  0  0  0  0
  2  3  1  0
  2  1  1  0
  3  5  1  0
  3  4  1  6
  5  7  1  0
  5  6  1  1
  7  8  2  0
 10  9  1  6
 10 12  1  0
 11 10  1  0
 11  7  1  0
 12 13  2  0
 14 15  1  0
 14 12  1  0
 15 21  1  0
 15 16  1  1
 17 16  1  0
 18 17  1  0
 19 18  1  0
 20 19  1  0
 21 23  2  0
 21 22  1  0
M  END
$$$$
