IAK.pdb
     RDKit          3D

 23 22  0  0  1  0  0  0  0  0999 V2000
    6.5483  -11.7752   27.6171 C   0  0  0  0  0  0  0  0  0  0  0  0
    5.8686  -12.8532   26.8405 C   0  0  0  0  0  0  0  0  0  0  0  0
    6.7882  -13.4555   25.8338 C   0  0  2  0  0  0  0  0  0  0  0  0
    7.5494  -12.3934   25.0564 C   0  0  0  0  0  0  0  0  0  0  0  0
    6.2097  -14.5054   24.9477 C   0  0  2  0  0  0  0  0  0  0  0  0
    5.7430  -15.5597   25.8785 N   0  0  0  0  0  0  0  0  0  0  0  0
    7.1136  -15.1347   23.9923 C   0  0  0  0  0  0  0  0  0  0  0  0
    8.0051  -15.9649   24.4047 O   0  0  0  0  0  0  0  0  0  0  0  0
    8.0062  -14.8309   20.3610 C   0  0  0  0  0  0  0  0  0  0  0  0
    8.1514  -15.5146   21.7219 C   0  0  2  0  0  0  0  0  0  0  0  0
    7.1426  -14.9441   22.5851 N   0  0  0  0  0  0  0  0  0  0  0  0
    9.5219  -15.2492   22.1871 C   0  0  0  0  0  0  0  0  0  0  0  0
    9.8764  -14.2329   22.8355 O   0  0  0  0  0  0  0  0  0  0  0  0
   10.5129  -16.2463   21.8612 N   0  0  0  0  0  0  0  0  0  0  0  0
   11.5342  -16.6359   22.7928 C   0  0  1  0  0  0  0  0  0  0  0  0
   10.8929  -17.2143   24.0359 C   0  0  0  0  0  0  0  0  0  0  0  0
   11.9018  -17.6989   25.0287 C   0  0  0  0  0  0  0  0  0  0  0  0
   11.1948  -18.3280   26.2121 C   0  0  0  0  0  0  0  0  0  0  0  0
   12.1528  -18.7057   27.3077 C   0  0  0  0  0  0  0  0  0  0  0  0
   11.5152  -19.2878   28.4530 N   0  0  0  0  0  0  0  0  0  0  0  0
   12.4054  -17.6485   22.1435 C   0  0  0  0  0  0  0  0  0  0  0  0
   13.7829  -17.6818   22.3156 O   0  0  0  0  0  0  0  0  0  0  0  0
   11.9198  -18.5453   21.3882 O   0  0  0  0  0  0  0  0  0  0  0  0
  2  3  1  0
  2  1  1  0
  3  5  1  0
  3  4  1  6
  5  7  1  0
  5  6  1  1
  7  8  2  0
 10  9  1  6
 10 12  1  0
 11 10  1  0
 11  7  1  0
 12 13  2  0
 14 15  1  0
 14 12  1  0
 15 21  1  0
 15 16  1  1
 17 16  1  0
 18 17  1  0
 19 18  1  0
 20 19  1  0
 21 23  2  0
 21 22  1  0
M  END
$$$$
