IAK.pdb
     RDKit          3D

 23 22  0  0  1  0  0  0  0  0999 V2000
    6.6434  -12.4806   19.9834 C   0  0  0  0  0  0  0  0  0  0  0  0
    7.6910  -13.4156   19.4782 C   0  0  0  0  0  0  0  0  0  0  0  0
    8.1518  -14.3414   20.5518 C   0  0  2  0  0  0  0  0  0  0  0  0
    8.5423  -13.5918   21.8157 C   0  0  0  0  0  0  0  0  0  0  0  0
    9.1631  -15.3642   20.1602 C   0  0  2  0  0  0  0  0  0  0  0  0
    8.5067  -16.1402   19.0820 N   0  0  0  0  0  0  0  0  0  0  0  0
    9.5781  -16.3102   21.1891 C   0  0  0  0  0  0  0  0  0  0  0  0
    8.7663  -17.2275   21.5811 O   0  0  0  0  0  0  0  0  0  0  0  0
   12.6386  -17.1632   23.1939 C   0  0  0  0  0  0  0  0  0  0  0  0
   11.1414  -17.2965   22.9095 C   0  0  2  0  0  0  0  0  0  0  0  0
   10.8320  -16.3586   21.8546 N   0  0  0  0  0  0  0  0  0  0  0  0
   10.4409  -16.9965   24.1681 C   0  0  0  0  0  0  0  0  0  0  0  0
   10.2906  -15.8457   24.6501 O   0  0  0  0  0  0  0  0  0  0  0  0
    9.8955  -18.1257   24.8821 N   0  0  0  0  0  0  0  0  0  0  0  0
    9.0772  -17.9628   26.0511 C   0  0  1  0  0  0  0  0  0  0  0  0
    8.0493  -19.0724   26.1093 C   0  0  0  0  0  0  0  0  0  0  0  0
    7.2346  -19.1651   24.8578 C   0  0  0  0  0  0  0  0  0  0  0  0
    6.3047  -20.3586   24.9392 C   0  0  0  0  0  0  0  0  0  0  0  0
    5.4296  -20.4777   23.7222 C   0  0  0  0  0  0  0  0  0  0  0  0
    4.6777  -21.6980   23.6724 N   0  0  0  0  0  0  0  0  0  0  0  0
    9.9518  -18.0070   27.2507 C   0  0  0  0  0  0  0  0  0  0  0  0
   11.3072  -18.3022   27.1871 O   0  0  0  0  0  0  0  0  0  0  0  0
    9.4900  -17.7724   28.4093 O   0  0  0  0  0  0  0  0  0  0  0  0
  2  3  1  0
  2  1  1  0
  3  5  1  0
  3  4  1  1
  5  7  1  0
  5  6  1  6
  7  8  2  0
 10  9  1  1
 10 12  1  0
 11 10  1  0
 11  7  1  0
 12 13  2  0
 14 15  1  0
 14 12  1  0
 15 21  1  0
 15 16  1  1
 17 16  1  0
 18 17  1  0
 19 18  1  0
 20 19  1  0
 21 23  2  0
 21 22  1  0
M  END
$$$$
