IAK.pdb
     RDKit          3D

 23 22  0  0  1  0  0  0  0  0999 V2000
    1.1115  -19.1475   19.8577 C   0  0  0  0  0  0  0  0  0  0  0  0
    1.9565  -19.3324   21.0737 C   0  0  0  0  0  0  0  0  0  0  0  0
    3.2974  -18.7049   20.9000 C   0  0  2  0  0  0  0  0  0  0  0  0
    3.8834  -18.9937   19.5271 C   0  0  0  0  0  0  0  0  0  0  0  0
    4.2822  -18.9238   21.9976 C   0  0  2  0  0  0  0  0  0  0  0  0
    3.5198  -18.6524   23.2388 N   0  0  0  0  0  0  0  0  0  0  0  0
    5.4589  -18.0630   22.0104 C   0  0  0  0  0  0  0  0  0  0  0  0
    6.5253  -18.4263   21.3899 O   0  0  0  0  0  0  0  0  0  0  0  0
    6.3998  -14.5740   22.9458 C   0  0  0  0  0  0  0  0  0  0  0  0
    6.8025  -16.0127   22.6166 C   0  0  2  0  0  0  0  0  0  0  0  0
    5.5933  -16.8030   22.6522 N   0  0  0  0  0  0  0  0  0  0  0  0
    7.7859  -16.4220   23.6317 C   0  0  0  0  0  0  0  0  0  0  0  0
    8.9099  -15.8861   23.8004 O   0  0  0  0  0  0  0  0  0  0  0  0
    7.4060  -17.5231   24.4836 N   0  0  0  0  0  0  0  0  0  0  0  0
    8.2722  -18.0193   25.5162 C   0  0  1  0  0  0  0  0  0  0  0  0
    7.4511  -18.7389   26.5646 C   0  0  0  0  0  0  0  0  0  0  0  0
    8.2993  -19.5026   27.5320 C   0  0  0  0  0  0  0  0  0  0  0  0
    8.9049  -18.5514   28.5441 C   0  0  0  0  0  0  0  0  0  0  0  0
    9.8385  -19.2528   29.4913 C   0  0  0  0  0  0  0  0  0  0  0  0
   10.4706  -18.3734   30.4316 N   0  0  0  0  0  0  0  0  0  0  0  0
    9.2546  -18.9494   24.9031 C   0  0  0  0  0  0  0  0  0  0  0  0
   10.5605  -19.0763   25.3577 O   0  0  0  0  0  0  0  0  0  0  0  0
    8.9376  -19.6835   23.9175 O   0  0  0  0  0  0  0  0  0  0  0  0
  2  3  1  0
  2  1  1  0
  3  5  1  0
  3  4  1  6
  5  7  1  0
  5  6  1  1
  7  8  2  0
 10  9  1  1
 10 12  1  0
 11 10  1  0
 11  7  1  0
 12 13  2  0
 14 15  1  0
 14 12  1  0
 15 21  1  0
 15 16  1  1
 17 16  1  0
 18 17  1  0
 19 18  1  0
 20 19  1  0
 21 23  2  0
 21 22  1  0
M  END
$$$$
