LQR.pdb
     RDKit          3D

 29 28  0  0  1  0  0  0  0  0999 V2000
   28.2354  -20.2829  -14.4049 C   0  0  0  0  0  0  0  0  0  0  0  0
   27.1283  -19.7014  -15.3073 C   0  0  2  0  0  0  0  0  0  0  0  0
   27.7080  -18.5431  -16.0777 C   0  0  0  0  0  0  0  0  0  0  0  0
   25.9414  -19.3002  -14.4696 C   0  0  0  0  0  0  0  0  0  0  0  0
   25.2678  -20.4169  -13.8226 C   0  0  2  0  0  0  0  0  0  0  0  0
   25.5958  -21.6549  -14.5515 N   0  0  0  0  0  0  0  0  0  0  0  0
   23.8672  -20.4007  -13.5206 C   0  0  0  0  0  0  0  0  0  0  0  0
   23.3657  -19.3739  -12.9689 O   0  0  0  0  0  0  0  0  0  0  0  0
   20.6778  -18.4316  -15.3819 N   0  0  0  0  0  0  0  0  0  0  0  0
   19.4637  -19.0619  -14.9894 C   0  0  0  0  0  0  0  0  0  0  0  0
   18.4678  -18.3053  -14.8599 O   0  0  0  0  0  0  0  0  0  0  0  0
   19.3936  -20.5390  -14.7491 C   0  0  0  0  0  0  0  0  0  0  0  0
   20.7758  -21.0713  -14.9155 C   0  0  0  0  0  0  0  0  0  0  0  0
   21.5074  -21.2677  -13.5906 C   0  0  2  0  0  0  0  0  0  0  0  0
   22.9120  -21.4454  -13.7761 N   0  0  0  0  0  0  0  0  0  0  0  0
   20.8341  -22.4302  -12.9313 C   0  0  0  0  0  0  0  0  0  0  0  0
   20.9733  -23.6029  -13.4131 O   0  0  0  0  0  0  0  0  0  0  0  0
   18.3688  -25.7592   -4.9632 N   0  0  0  0  0  0  0  0  0  0  0  0
   17.3000  -24.9612   -5.5090 C   0  0  0  0  0  0  0  0  0  0  0  0
   16.1143  -25.1251   -5.0690 N   0  0  0  0  0  0  0  0  0  0  0  0
   17.5846  -24.0105   -6.5225 N   0  0  0  0  0  0  0  0  0  0  0  0
   18.6718  -24.2416   -7.4344 C   0  0  0  0  0  0  0  0  0  0  0  0
   18.3001  -24.0248   -8.8398 C   0  0  0  0  0  0  0  0  0  0  0  0
   18.9422  -23.1017   -9.7533 C   0  0  0  0  0  0  0  0  0  0  0  0
   19.3094  -23.3949  -11.1202 C   0  0  2  0  0  0  0  0  0  0  0  0
   20.0383  -22.2991  -11.7835 N   0  0  0  0  0  0  0  0  0  0  0  0
   18.4615  -24.1146  -12.0464 C   0  0  0  0  0  0  0  0  0  0  0  0
   18.0260  -25.3884  -12.1421 O   0  0  0  0  0  0  0  0  0  0  0  0
   17.9956  -23.3578  -13.0239 O   0  0  0  0  0  0  0  0  0  0  0  0
  2  1  1  1
  2  4  1  0
  3  2  1  0
  4  5  1  0
  5  6  1  6
  5  7  1  0
  7  8  2  0
  7 15  1  0
 10 12  1  0
 10  9  1  0
 11 10  2  0
 14 13  1  6
 13 12  1  0
 14 16  1  0
 15 14  1  0
 16 26  1  0
 16 17  2  0
 19 18  1  0
 20 19  2  0
 21 19  1  0
 21 22  1  0
 22 23  1  0
 23 24  1  0
 25 24  1  1
 25 27  1  0
 26 25  1  0
 27 28  1  0
 29 27  2  0
M  END
$$$$
