LQR.pdb
     RDKit          3D

 29 28  0  0  1  0  0  0  0  0999 V2000
   27.5761  -26.5259  -17.2886 C   0  0  0  0  0  0  0  0  0  0  0  0
   28.4277  -25.2417  -17.2276 C   0  0  2  0  0  0  0  0  0  0  0  0
   29.8285  -25.6237  -16.8235 C   0  0  0  0  0  0  0  0  0  0  0  0
   27.8017  -24.2556  -16.2751 C   0  0  0  0  0  0  0  0  0  0  0  0
   26.4766  -23.8045  -16.6751 C   0  0  2  0  0  0  0  0  0  0  0  0
   26.4839  -23.5387  -18.1245 N   0  0  0  0  0  0  0  0  0  0  0  0
   25.7888  -22.7433  -16.0013 C   0  0  0  0  0  0  0  0  0  0  0  0
   25.5877  -22.8325  -14.7516 O   0  0  0  0  0  0  0  0  0  0  0  0
   24.4473  -16.8644  -17.8415 N   0  0  0  0  0  0  0  0  0  0  0  0
   23.9735  -16.8623  -16.4996 C   0  0  0  0  0  0  0  0  0  0  0  0
   23.5480  -15.7606  -16.0679 O   0  0  0  0  0  0  0  0  0  0  0  0
   23.9874  -18.1065  -15.6652 C   0  0  0  0  0  0  0  0  0  0  0  0
   24.5910  -19.1825  -16.5016 C   0  0  0  0  0  0  0  0  0  0  0  0
   24.5677  -20.5515  -15.8276 C   0  0  2  0  0  0  0  0  0  0  0  0
   25.2753  -21.5332  -16.5855 N   0  0  0  0  0  0  0  0  0  0  0  0
   23.1200  -20.8729  -15.6264 C   0  0  0  0  0  0  0  0  0  0  0  0
   22.3686  -21.0821  -16.6356 O   0  0  0  0  0  0  0  0  0  0  0  0
   17.7062  -24.5605   -9.7840 N   0  0  0  0  0  0  0  0  0  0  0  0
   17.9723  -25.4841  -10.8578 C   0  0  0  0  0  0  0  0  0  0  0  0
   17.2271  -26.5098  -10.9950 N   0  0  0  0  0  0  0  0  0  0  0  0
   19.0547  -25.2367  -11.7406 N   0  0  0  0  0  0  0  0  0  0  0  0
   19.8933  -24.0866  -11.5388 C   0  0  0  0  0  0  0  0  0  0  0  0
   20.1237  -23.3190  -12.7708 C   0  0  0  0  0  0  0  0  0  0  0  0
   20.9777  -22.1556  -12.8971 C   0  0  0  0  0  0  0  0  0  0  0  0
   21.1338  -21.3564  -14.0913 C   0  0  2  0  0  0  0  0  0  0  0  0
   22.5279  -20.9593  -14.3577 N   0  0  0  0  0  0  0  0  0  0  0  0
   20.1953  -20.3362  -14.5074 C   0  0  0  0  0  0  0  0  0  0  0  0
   19.0224  -20.3399  -15.1747 O   0  0  0  0  0  0  0  0  0  0  0  0
   20.5577  -19.1168  -14.1508 O   0  0  0  0  0  0  0  0  0  0  0  0
  2  1  1  1
  2  4  1  0
  3  2  1  0
  4  5  1  0
  5  6  1  6
  5  7  1  0
  7  8  2  0
  7 15  1  0
 10 12  1  0
 10  9  1  0
 11 10  2  0
 14 13  1  6
 13 12  1  0
 14 16  1  0
 15 14  1  0
 16 26  1  0
 16 17  2  0
 19 18  1  0
 20 19  2  0
 21 19  1  0
 21 22  1  0
 22 23  1  0
 23 24  1  0
 25 24  1  1
 25 27  1  0
 26 25  1  0
 27 28  1  0
 29 27  2  0
M  END
$$$$
