LQR.pdb
     RDKit          3D

 29 28  0  0  1  0  0  0  0  0999 V2000
   24.0356  -12.4667  -21.0505 C   0  0  0  0  0  0  0  0  0  0  0  0
   22.8532  -11.6920  -20.4341 C   0  0  2  0  0  0  0  0  0  0  0  0
   23.2163  -10.2298  -20.3958 C   0  0  0  0  0  0  0  0  0  0  0  0
   22.5354  -12.2428  -19.0677 C   0  0  0  0  0  0  0  0  0  0  0  0
   22.1485  -13.6463  -19.0697 C   0  0  2  0  0  0  0  0  0  0  0  0
   21.2713  -13.8945  -20.2274 N   0  0  0  0  0  0  0  0  0  0  0  0
   21.6050  -14.2966  -17.9142 C   0  0  0  0  0  0  0  0  0  0  0  0
   22.1931  -14.1657  -16.7974 O   0  0  0  0  0  0  0  0  0  0  0  0
   15.8007  -15.2142  -16.1711 N   0  0  0  0  0  0  0  0  0  0  0  0
   16.6081  -14.0852  -15.8568 C   0  0  0  0  0  0  0  0  0  0  0  0
   15.9964  -13.0734  -15.4289 O   0  0  0  0  0  0  0  0  0  0  0  0
   18.0957  -14.1170  -16.0309 C   0  0  0  0  0  0  0  0  0  0  0  0
   18.4536  -15.5020  -16.4497 C   0  0  0  0  0  0  0  0  0  0  0  0
   19.9544  -15.7030  -16.6404 C   0  0  2  0  0  0  0  0  0  0  0  0
   20.4232  -15.1144  -17.8540 N   0  0  0  0  0  0  0  0  0  0  0  0
   20.1721  -17.1815  -16.5637 C   0  0  0  0  0  0  0  0  0  0  0  0
   19.6938  -17.9428  -17.4684 O   0  0  0  0  0  0  0  0  0  0  0  0
   25.5316  -22.0392  -14.5344 N   0  0  0  0  0  0  0  0  0  0  0  0
   25.5407  -22.0144  -15.9752 C   0  0  0  0  0  0  0  0  0  0  0  0
   25.7287  -23.1015  -16.6149 N   0  0  0  0  0  0  0  0  0  0  0  0
   25.3408  -20.7852  -16.6545 N   0  0  0  0  0  0  0  0  0  0  0  0
   24.4885  -19.7808  -16.0790 C   0  0  0  0  0  0  0  0  0  0  0  0
   23.3980  -20.3452  -15.2713 C   0  0  0  0  0  0  0  0  0  0  0  0
   22.3050  -19.5980  -14.6831 C   0  0  0  0  0  0  0  0  0  0  0  0
   21.0744  -19.2452  -15.3542 C   0  0  2  0  0  0  0  0  0  0  0  0
   20.8912  -17.7929  -15.5259 N   0  0  0  0  0  0  0  0  0  0  0  0
   19.8146  -19.9241  -15.1383 C   0  0  0  0  0  0  0  0  0  0  0  0
   18.6587  -19.6068  -14.5184 O   0  0  0  0  0  0  0  0  0  0  0  0
   19.7737  -21.1314  -15.6732 O   0  0  0  0  0  0  0  0  0  0  0  0
  2  1  1  1
  2  4  1  0
  3  2  1  0
  4  5  1  0
  5  6  1  6
  5  7  1  0
  7  8  2  0
  7 15  1  0
 10 12  1  0
 10  9  1  0
 11 10  2  0
 14 13  1  6
 13 12  1  0
 14 16  1  0
 15 14  1  0
 16 26  1  0
 16 17  2  0
 19 18  1  0
 20 19  2  0
 21 19  1  0
 21 22  1  0
 22 23  1  0
 23 24  1  0
 25 24  1  1
 25 27  1  0
 26 25  1  0
 27 28  1  0
 29 27  2  0
M  END
$$$$
