LQR.pdb
     RDKit          3D

 29 28  0  0  1  0  0  0  0  0999 V2000
   27.8268  -14.5161  -15.5898 C   0  0  0  0  0  0  0  0  0  0  0  0
   27.0033  -15.4064  -16.5424 C   0  0  2  0  0  0  0  0  0  0  0  0
   27.9401  -15.9934  -17.5667 C   0  0  0  0  0  0  0  0  0  0  0  0
   25.8957  -14.5996  -17.1697 C   0  0  0  0  0  0  0  0  0  0  0  0
   24.9341  -14.0694  -16.2139 C   0  0  2  0  0  0  0  0  0  0  0  0
   24.7433  -15.0564  -15.1364 N   0  0  0  0  0  0  0  0  0  0  0  0
   23.6597  -13.5490  -16.6121 C   0  0  0  0  0  0  0  0  0  0  0  0
   23.5970  -12.7594  -17.6034 O   0  0  0  0  0  0  0  0  0  0  0  0
   18.1325  -15.8947  -15.8533 N   0  0  0  0  0  0  0  0  0  0  0  0
   17.7506  -14.6798  -16.4884 C   0  0  0  0  0  0  0  0  0  0  0  0
   16.6126  -14.6726  -17.0232 O   0  0  0  0  0  0  0  0  0  0  0  0
   18.6612  -13.4904  -16.5094 C   0  0  0  0  0  0  0  0  0  0  0  0
   19.9394  -13.9118  -15.8689 C   0  0  0  0  0  0  0  0  0  0  0  0
   21.1670  -13.2425  -16.4805 C   0  0  2  0  0  0  0  0  0  0  0  0
   22.3836  -13.8206  -16.0065 N   0  0  0  0  0  0  0  0  0  0  0  0
   21.0274  -11.7866  -16.1637 C   0  0  0  0  0  0  0  0  0  0  0  0
   21.2804  -11.3645  -14.9870 O   0  0  0  0  0  0  0  0  0  0  0  0
   21.4213   -4.5588  -21.5376 N   0  0  0  0  0  0  0  0  0  0  0  0
   21.3235   -4.0484  -20.1934 C   0  0  0  0  0  0  0  0  0  0  0  0
   21.3709   -2.7886  -20.0014 N   0  0  0  0  0  0  0  0  0  0  0  0
   21.1764   -4.9533  -19.1110 N   0  0  0  0  0  0  0  0  0  0  0  0
   21.1353   -6.3681  -19.3625 C   0  0  0  0  0  0  0  0  0  0  0  0
   20.8719   -7.1603  -18.1529 C   0  0  0  0  0  0  0  0  0  0  0  0
   20.7473   -8.6025  -18.0951 C   0  0  0  0  0  0  0  0  0  0  0  0
   20.5633   -9.3800  -16.8905 C   0  0  2  0  0  0  0  0  0  0  0  0
   20.6236  -10.8357  -17.1126 N   0  0  0  0  0  0  0  0  0  0  0  0
   19.6267   -9.0344  -15.8427 C   0  0  0  0  0  0  0  0  0  0  0  0
   19.6275   -8.1529  -14.8208 O   0  0  0  0  0  0  0  0  0  0  0  0
   18.5062   -9.7324  -15.8929 O   0  0  0  0  0  0  0  0  0  0  0  0
  2  1  1  1
  2  4  1  0
  3  2  1  0
  4  5  1  0
  5  6  1  1
  5  7  1  0
  7  8  2  0
  7 15  1  0
 10 12  1  0
 10  9  1  0
 11 10  2  0
 14 13  1  1
 13 12  1  0
 14 16  1  0
 15 14  1  0
 16 26  1  0
 16 17  2  0
 19 18  1  0
 20 19  2  0
 21 19  1  0
 21 22  1  0
 22 23  1  0
 23 24  1  0
 25 24  1  6
 25 27  1  0
 26 25  1  0
 27 28  1  0
 29 27  2  0
M  END
$$$$
