LQR.pdb
     RDKit          3D

 29 28  0  0  1  0  0  0  0  0999 V2000
   22.4006  -31.1415  -10.0532 C   0  0  0  0  0  0  0  0  0  0  0  0
   20.8928  -30.8208  -10.0075 C   0  0  2  0  0  0  0  0  0  0  0  0
   20.6593  -29.5426  -10.7709 C   0  0  0  0  0  0  0  0  0  0  0  0
   20.4307  -30.7298   -8.5759 C   0  0  0  0  0  0  0  0  0  0  0  0
   20.7363  -31.9087   -7.7783 C   0  0  2  0  0  0  0  0  0  0  0  0
   19.9304  -33.0384   -8.2742 N   0  0  0  0  0  0  0  0  0  0  0  0
   20.7073  -31.8976   -6.3457 C   0  0  0  0  0  0  0  0  0  0  0  0
   19.6000  -32.0638   -5.7486 O   0  0  0  0  0  0  0  0  0  0  0  0
   25.3110  -32.1191   -1.9858 N   0  0  0  0  0  0  0  0  0  0  0  0
   25.0507  -33.0409   -3.0383 C   0  0  0  0  0  0  0  0  0  0  0  0
   25.9216  -33.9295   -3.2195 O   0  0  0  0  0  0  0  0  0  0  0  0
   23.8087  -32.9446   -3.8705 C   0  0  0  0  0  0  0  0  0  0  0  0
   22.9956  -31.8291   -3.3083 C   0  0  0  0  0  0  0  0  0  0  0  0
   21.6721  -31.6225   -4.0395 C   0  0  2  0  0  0  0  0  0  0  0  0
   21.8232  -31.7164   -5.4563 N   0  0  0  0  0  0  0  0  0  0  0  0
   21.1616  -30.2951   -3.5739 C   0  0  0  0  0  0  0  0  0  0  0  0
   21.6691  -29.2204   -4.0368 O   0  0  0  0  0  0  0  0  0  0  0  0
   13.2632  -27.7397   -0.0416 N   0  0  0  0  0  0  0  0  0  0  0  0
   14.1173  -26.5819    0.0405 C   0  0  0  0  0  0  0  0  0  0  0  0
   13.6498  -25.4968    0.5204 N   0  0  0  0  0  0  0  0  0  0  0  0
   15.4588  -26.6692   -0.4123 N   0  0  0  0  0  0  0  0  0  0  0  0
   15.9924  -27.9383   -0.8260 C   0  0  0  0  0  0  0  0  0  0  0  0
   17.3908  -27.8571   -1.2712 C   0  0  0  0  0  0  0  0  0  0  0  0
   18.1860  -28.9598   -1.7717 C   0  0  0  0  0  0  0  0  0  0  0  0
   19.5820  -28.8868   -2.1398 C   0  0  2  0  0  0  0  0  0  0  0  0
   20.1298  -30.1631   -2.6328 N   0  0  0  0  0  0  0  0  0  0  0  0
   20.5704  -28.1247   -1.4071 C   0  0  0  0  0  0  0  0  0  0  0  0
   20.9172  -26.8215   -1.3544 O   0  0  0  0  0  0  0  0  0  0  0  0
   21.3034  -28.8648   -0.5946 O   0  0  0  0  0  0  0  0  0  0  0  0
  2  1  1  1
  2  4  1  0
  3  2  1  0
  4  5  1  0
  5  6  1  6
  5  7  1  0
  7  8  2  0
  7 15  1  0
 10 12  1  0
 10  9  1  0
 11 10  2  0
 14 13  1  1
 13 12  1  0
 14 16  1  0
 15 14  1  0
 16 26  1  0
 16 17  2  0
 19 18  1  0
 20 19  2  0
 21 19  1  0
 21 22  1  0
 22 23  1  0
 23 24  1  0
 25 24  1  1
 25 27  1  0
 26 25  1  0
 27 28  1  0
 29 27  2  0
M  END
$$$$
