LQR.pdb
     RDKit          3D

 29 28  0  0  1  0  0  0  0  0999 V2000
   29.1319  -21.8954  -11.9815 C   0  0  0  0  0  0  0  0  0  0  0  0
   28.5593  -20.6214  -12.6352 C   0  0  2  0  0  0  0  0  0  0  0  0
   29.6144  -19.5468  -12.5772 C   0  0  0  0  0  0  0  0  0  0  0  0
   27.2850  -20.2162  -11.9398 C   0  0  0  0  0  0  0  0  0  0  0  0
   26.2045  -21.1829  -12.0717 C   0  0  2  0  0  0  0  0  0  0  0  0
   26.4837  -22.0506  -13.2296 N   0  0  0  0  0  0  0  0  0  0  0  0
   24.8245  -20.7973  -12.0891 C   0  0  0  0  0  0  0  0  0  0  0  0
   24.3728  -20.0746  -11.1491 O   0  0  0  0  0  0  0  0  0  0  0  0
   21.0678  -19.7256  -16.8322 N   0  0  0  0  0  0  0  0  0  0  0  0
   21.9595  -18.7930  -16.2321 C   0  0  0  0  0  0  0  0  0  0  0  0
   22.2225  -17.7678  -16.9110 O   0  0  0  0  0  0  0  0  0  0  0  0
   22.5409  -19.0332  -14.8724 C   0  0  0  0  0  0  0  0  0  0  0  0
   21.9273  -20.2888  -14.3543 C   0  0  0  0  0  0  0  0  0  0  0  0
   22.4805  -20.7119  -12.9964 C   0  0  2  0  0  0  0  0  0  0  0  0
   23.8407  -21.1378  -13.0817 N   0  0  0  0  0  0  0  0  0  0  0  0
   21.5473  -21.7699  -12.4971 C   0  0  0  0  0  0  0  0  0  0  0  0
   21.9567  -22.9713  -12.3713 O   0  0  0  0  0  0  0  0  0  0  0  0
   18.7921  -25.9916   -6.8996 N   0  0  0  0  0  0  0  0  0  0  0  0
   17.8399  -24.9276   -6.7047 C   0  0  0  0  0  0  0  0  0  0  0  0
   17.4188  -24.6776   -5.5272 N   0  0  0  0  0  0  0  0  0  0  0  0
   17.3892  -24.1793   -7.8223 N   0  0  0  0  0  0  0  0  0  0  0  0
   17.9701  -24.4083   -9.1172 C   0  0  0  0  0  0  0  0  0  0  0  0
   19.2169  -23.6595   -9.3293 C   0  0  0  0  0  0  0  0  0  0  0  0
   19.8202  -23.3646  -10.6130 C   0  0  0  0  0  0  0  0  0  0  0  0
   19.2576  -22.4981  -11.6239 C   0  0  2  0  0  0  0  0  0  0  0  0
   20.2135  -21.5077  -12.1508 N   0  0  0  0  0  0  0  0  0  0  0  0
   17.9100  -21.9723  -11.5765 C   0  0  0  0  0  0  0  0  0  0  0  0
   17.3683  -20.7737  -11.2746 O   0  0  0  0  0  0  0  0  0  0  0  0
   16.9909  -22.8606  -11.9104 O   0  0  0  0  0  0  0  0  0  0  0  0
  2  1  1  1
  2  4  1  0
  3  2  1  0
  4  5  1  0
  5  6  1  6
  5  7  1  0
  7  8  2  0
  7 15  1  0
 10 12  1  0
 10  9  1  0
 11 10  2  0
 14 13  1  6
 13 12  1  0
 14 16  1  0
 15 14  1  0
 16 26  1  0
 16 17  2  0
 19 18  1  0
 20 19  2  0
 21 19  1  0
 21 22  1  0
 22 23  1  0
 23 24  1  0
 25 24  1  1
 25 27  1  0
 26 25  1  0
 27 28  1  0
 29 27  2  0
M  END
$$$$
