LQR.pdb
     RDKit          3D

 29 28  0  0  1  0  0  0  0  0999 V2000
   27.7300  -18.6275  -19.2561 C   0  0  0  0  0  0  0  0  0  0  0  0
   28.4663  -19.7245  -18.4607 C   0  0  2  0  0  0  0  0  0  0  0  0
   29.3262  -20.5059  -19.4204 C   0  0  0  0  0  0  0  0  0  0  0  0
   27.4678  -20.5947  -17.7416 C   0  0  0  0  0  0  0  0  0  0  0  0
   26.6240  -19.8743  -16.7991 C   0  0  2  0  0  0  0  0  0  0  0  0
   27.4118  -18.7863  -16.1933 N   0  0  0  0  0  0  0  0  0  0  0  0
   25.8688  -20.5387  -15.7785 C   0  0  0  0  0  0  0  0  0  0  0  0
   24.9769  -21.3759  -16.1156 O   0  0  0  0  0  0  0  0  0  0  0  0
   26.1966  -20.0602   -9.4667 N   0  0  0  0  0  0  0  0  0  0  0  0
   25.1489  -21.0103   -9.6241 C   0  0  0  0  0  0  0  0  0  0  0  0
   24.6631  -21.4748   -8.5615 O   0  0  0  0  0  0  0  0  0  0  0  0
   24.6655  -21.4211  -10.9813 C   0  0  0  0  0  0  0  0  0  0  0  0
   25.5126  -20.7062  -11.9778 C   0  0  0  0  0  0  0  0  0  0  0  0
   25.1225  -21.0054  -13.4226 C   0  0  2  0  0  0  0  0  0  0  0  0
   25.9990  -20.3729  -14.3556 N   0  0  0  0  0  0  0  0  0  0  0  0
   23.6950  -20.5743  -13.5482 C   0  0  0  0  0  0  0  0  0  0  0  0
   23.4081  -19.3328  -13.6049 O   0  0  0  0  0  0  0  0  0  0  0  0
   16.5052  -24.0294  -16.3449 N   0  0  0  0  0  0  0  0  0  0  0  0
   16.2362  -22.6524  -16.6741 C   0  0  0  0  0  0  0  0  0  0  0  0
   15.0265  -22.2630  -16.7799 N   0  0  0  0  0  0  0  0  0  0  0  0
   17.3182  -21.7571  -16.8738 N   0  0  0  0  0  0  0  0  0  0  0  0
   18.6645  -22.1962  -16.6260 C   0  0  0  0  0  0  0  0  0  0  0  0
   19.2616  -21.5770  -15.4342 C   0  0  0  0  0  0  0  0  0  0  0  0
   20.6142  -21.7852  -14.9588 C   0  0  0  0  0  0  0  0  0  0  0  0
   21.2135  -21.1246  -13.8214 C   0  0  2  0  0  0  0  0  0  0  0  0
   22.6274  -21.4821  -13.6087 N   0  0  0  0  0  0  0  0  0  0  0  0
   20.5246  -20.8885  -12.5706 C   0  0  0  0  0  0  0  0  0  0  0  0
   19.5500  -20.0467  -12.1673 O   0  0  0  0  0  0  0  0  0  0  0  0
   20.9316  -21.6786  -11.5932 O   0  0  0  0  0  0  0  0  0  0  0  0
  2  1  1  6
  2  4  1  0
  3  2  1  0
  4  5  1  0
  5  6  1  1
  5  7  1  0
  7  8  2  0
  7 15  1  0
 10 12  1  0
 10  9  1  0
 11 10  2  0
 14 13  1  1
 13 12  1  0
 14 16  1  0
 15 14  1  0
 16 26  1  0
 16 17  2  0
 19 18  1  0
 20 19  2  0
 21 19  1  0
 21 22  1  0
 22 23  1  0
 23 24  1  0
 25 24  1  1
 25 27  1  0
 26 25  1  0
 27 28  1  0
 29 27  2  0
M  END
$$$$
