MAK.pdb
     RDKit          3D

 23 22  0  0  1  0  0  0  0  0999 V2000
   19.6994  -16.1959  -20.0440 C   0  0  0  0  0  0  0  0  0  0  0  0
   21.3627  -16.4691  -20.6572 S   0  0  0  0  0  0  0  0  0  0  0  0
   22.2523  -14.8657  -20.6299 C   0  0  0  0  0  0  0  0  0  0  0  0
   21.7707  -14.0995  -19.4452 C   0  0  0  0  0  0  0  0  0  0  0  0
   22.3811  -12.7148  -19.3107 C   0  0  2  0  0  0  0  0  0  0  0  0
   23.8555  -12.8602  -19.4191 N   0  0  0  0  0  0  0  0  0  0  0  0
   22.1336  -12.0805  -18.0083 C   0  0  0  0  0  0  0  0  0  0  0  0
   20.9639  -11.9244  -17.6044 O   0  0  0  0  0  0  0  0  0  0  0  0
   24.3278  -10.9284  -15.1961 C   0  0  0  0  0  0  0  0  0  0  0  0
   22.9385  -11.0114  -15.8792 C   0  0  2  0  0  0  0  0  0  0  0  0
   23.1877  -11.6208  -17.1474 N   0  0  0  0  0  0  0  0  0  0  0  0
   22.4579   -9.6299  -15.9434 C   0  0  0  0  0  0  0  0  0  0  0  0
   22.9218   -8.7969  -16.7966 O   0  0  0  0  0  0  0  0  0  0  0  0
   21.4708   -9.1508  -15.0807 N   0  0  0  0  0  0  0  0  0  0  0  0
   20.8924   -7.8175  -15.1514 C   0  0  1  0  0  0  0  0  0  0  0  0
   19.4334   -7.8364  -15.4039 C   0  0  0  0  0  0  0  0  0  0  0  0
   18.9533   -8.4899  -16.6359 C   0  0  0  0  0  0  0  0  0  0  0  0
   17.5131   -8.5578  -16.9125 C   0  0  0  0  0  0  0  0  0  0  0  0
   17.0688   -9.2564  -18.1447 C   0  0  0  0  0  0  0  0  0  0  0  0
   15.5979   -9.3348  -18.0879 N   0  0  0  0  0  0  0  0  0  0  0  0
   21.3686   -7.0397  -14.0033 C   0  0  0  0  0  0  0  0  0  0  0  0
   21.4441   -5.6538  -13.9659 O   0  0  0  0  0  0  0  0  0  0  0  0
   21.7489   -7.6604  -12.9520 O   0  0  0  0  0  0  0  0  0  0  0  0
  2  1  1  0
  2  3  1  0
  4  5  1  0
  4  3  1  0
  5  7  1  0
  5  6  1  1
  7  8  2  0
 10  9  1  1
 10 12  1  0
 11 10  1  0
 11  7  1  0
 12 14  1  0
 12 13  2  0
 14 15  1  0
 15 21  1  0
 15 16  1  1
 17 16  1  0
 18 17  1  0
 19 18  1  0
 20 19  1  0
 21 23  2  0
 21 22  1  0
M  END
$$$$
