MAK.pdb
     RDKit          3D

 23 22  0  0  1  0  0  0  0  0999 V2000
   18.0999  -14.9060    4.4599 C   0  0  0  0  0  0  0  0  0  0  0  0
   16.9738  -13.5661    4.8519 S   0  0  0  0  0  0  0  0  0  0  0  0
   17.9571  -12.1710    5.5227 C   0  0  0  0  0  0  0  0  0  0  0  0
   19.1329  -12.7462    6.2363 C   0  0  0  0  0  0  0  0  0  0  0  0
   20.0196  -11.7112    6.9076 C   0  0  2  0  0  0  0  0  0  0  0  0
   20.6861  -10.9265    5.8368 N   0  0  0  0  0  0  0  0  0  0  0  0
   21.1020  -12.2906    7.7155 C   0  0  0  0  0  0  0  0  0  0  0  0
   22.1370  -12.7100    7.1601 O   0  0  0  0  0  0  0  0  0  0  0  0
   21.7517  -12.8680   11.3511 C   0  0  0  0  0  0  0  0  0  0  0  0
   21.8054  -13.3579    9.8811 C   0  0  2  0  0  0  0  0  0  0  0  0
   21.0387  -12.4018    9.1464 N   0  0  0  0  0  0  0  0  0  0  0  0
   21.2444  -14.7100    9.9053 C   0  0  0  0  0  0  0  0  0  0  0  0
   20.0291  -14.9383    9.5768 O   0  0  0  0  0  0  0  0  0  0  0  0
   22.0037  -15.8177   10.2855 N   0  0  0  0  0  0  0  0  0  0  0  0
   21.5866  -17.2007   10.1109 C   0  0  1  0  0  0  0  0  0  0  0  0
   21.1579  -17.5013    8.7258 C   0  0  0  0  0  0  0  0  0  0  0  0
   19.8815  -18.2157    8.5366 C   0  0  0  0  0  0  0  0  0  0  0  0
   19.4614  -18.6153    7.1879 C   0  0  0  0  0  0  0  0  0  0  0  0
   18.1587  -19.3109    7.0374 C   0  0  0  0  0  0  0  0  0  0  0  0
   18.0309  -19.6818    5.6164 N   0  0  0  0  0  0  0  0  0  0  0  0
   22.6017  -18.0742   10.7078 C   0  0  0  0  0  0  0  0  0  0  0  0
   22.3251  -19.1575   11.5310 O   0  0  0  0  0  0  0  0  0  0  0  0
   23.8358  -17.8393   10.4694 O   0  0  0  0  0  0  0  0  0  0  0  0
  2  1  1  0
  2  3  1  0
  4  5  1  0
  4  3  1  0
  5  7  1  0
  5  6  1  6
  7  8  2  0
 10  9  1  1
 10 12  1  0
 11 10  1  0
 11  7  1  0
 12 14  1  0
 12 13  2  0
 14 15  1  0
 15 21  1  0
 15 16  1  6
 17 16  1  0
 18 17  1  0
 19 18  1  0
 20 19  1  0
 21 23  2  0
 21 22  1  0
M  END
$$$$
