MAK.pdb
     RDKit          3D

 23 22  0  0  1  0  0  0  0  0999 V2000
   22.9889   -8.8105  -23.6997 C   0  0  0  0  0  0  0  0  0  0  0  0
   23.4855  -10.5207  -23.4861 S   0  0  0  0  0  0  0  0  0  0  0  0
   24.6189  -10.6113  -22.0472 C   0  0  0  0  0  0  0  0  0  0  0  0
   23.8864  -10.0881  -20.8588 C   0  0  0  0  0  0  0  0  0  0  0  0
   24.7501   -9.9220  -19.6200 C   0  0  2  0  0  0  0  0  0  0  0  0
   25.1679  -11.2770  -19.1773 N   0  0  0  0  0  0  0  0  0  0  0  0
   24.0427   -9.3256  -18.4783 C   0  0  0  0  0  0  0  0  0  0  0  0
   23.0601   -9.9107  -17.9803 O   0  0  0  0  0  0  0  0  0  0  0  0
   24.8086   -6.5694  -16.1021 C   0  0  0  0  0  0  0  0  0  0  0  0
   23.7720   -7.5321  -16.7363 C   0  0  2  0  0  0  0  0  0  0  0  0
   24.4287   -8.0765  -17.8827 N   0  0  0  0  0  0  0  0  0  0  0  0
   22.6045   -6.6999  -17.0324 C   0  0  0  0  0  0  0  0  0  0  0  0
   22.5197   -6.0234  -18.1152 O   0  0  0  0  0  0  0  0  0  0  0  0
   21.5254   -6.6019  -16.1525 N   0  0  0  0  0  0  0  0  0  0  0  0
   20.3373   -5.7972  -16.3935 C   0  0  1  0  0  0  0  0  0  0  0  0
   19.0805   -6.5582  -16.2095 C   0  0  0  0  0  0  0  0  0  0  0  0
   18.5942   -7.3737  -17.3381 C   0  0  0  0  0  0  0  0  0  0  0  0
   17.3737   -8.1754  -17.1869 C   0  0  0  0  0  0  0  0  0  0  0  0
   16.9052   -8.9646  -18.3537 C   0  0  0  0  0  0  0  0  0  0  0  0
   15.7056   -9.7032  -17.9195 N   0  0  0  0  0  0  0  0  0  0  0  0
   20.4734   -4.5323  -15.6645 C   0  0  0  0  0  0  0  0  0  0  0  0
   20.0365   -3.3006  -16.1332 O   0  0  0  0  0  0  0  0  0  0  0  0
   21.0332   -4.5394  -14.5149 O   0  0  0  0  0  0  0  0  0  0  0  0
  2  1  1  0
  2  3  1  0
  4  5  1  0
  4  3  1  0
  5  7  1  0
  5  6  1  1
  7  8  2  0
 10  9  1  6
 10 12  1  0
 11 10  1  0
 11  7  1  0
 12 14  1  0
 12 13  2  0
 14 15  1  0
 15 21  1  0
 15 16  1  1
 17 16  1  0
 18 17  1  0
 19 18  1  0
 20 19  1  0
 21 23  2  0
 21 22  1  0
M  END
$$$$
