MAK.pdb
     RDKit          3D

 23 22  0  0  1  0  0  0  0  0999 V2000
   23.8382  -21.1517   -7.1886 C   0  0  0  0  0  0  0  0  0  0  0  0
   24.1916  -20.7583   -8.9024 S   0  0  0  0  0  0  0  0  0  0  0  0
   26.0097  -20.6096   -9.0915 C   0  0  0  0  0  0  0  0  0  0  0  0
   26.2815  -20.0667  -10.4531 C   0  0  0  0  0  0  0  0  0  0  0  0
   25.7726  -20.9436  -11.5847 C   0  0  2  0  0  0  0  0  0  0  0  0
   26.5229  -22.2246  -11.5339 N   0  0  0  0  0  0  0  0  0  0  0  0
   26.0159  -20.3870  -12.9229 C   0  0  0  0  0  0  0  0  0  0  0  0
   25.5233  -19.2852  -13.2377 O   0  0  0  0  0  0  0  0  0  0  0  0
   28.2388  -21.2633  -15.7887 C   0  0  0  0  0  0  0  0  0  0  0  0
   26.9800  -20.5435  -15.2402 C   0  0  2  0  0  0  0  0  0  0  0  0
   26.8125  -21.0529  -13.9158 N   0  0  0  0  0  0  0  0  0  0  0  0
   25.9041  -20.8854  -16.1724 C   0  0  0  0  0  0  0  0  0  0  0  0
   25.4159  -22.0667  -16.2296 O   0  0  0  0  0  0  0  0  0  0  0  0
   25.3555  -19.9436  -17.0443 N   0  0  0  0  0  0  0  0  0  0  0  0
   24.0419  -20.0586  -17.6596 C   0  0  1  0  0  0  0  0  0  0  0  0
   22.9630  -19.4854  -16.8228 C   0  0  0  0  0  0  0  0  0  0  0  0
   22.0982  -20.4177  -16.0757 C   0  0  0  0  0  0  0  0  0  0  0  0
   21.0063  -19.8944  -15.2454 C   0  0  0  0  0  0  0  0  0  0  0  0
   20.1247  -20.8675  -14.5530 C   0  0  0  0  0  0  0  0  0  0  0  0
   19.1050  -20.0856  -13.8306 N   0  0  0  0  0  0  0  0  0  0  0  0
   24.1345  -19.5994  -19.0489 C   0  0  0  0  0  0  0  0  0  0  0  0
   24.0903  -20.4316  -20.1595 O   0  0  0  0  0  0  0  0  0  0  0  0
   24.2686  -18.3486  -19.2782 O   0  0  0  0  0  0  0  0  0  0  0  0
  2  1  1  0
  2  3  1  0
  4  5  1  0
  4  3  1  0
  5  7  1  0
  5  6  1  6
  7  8  2  0
 10  9  1  6
 10 12  1  0
 11 10  1  0
 11  7  1  0
 12 14  1  0
 12 13  2  0
 14 15  1  0
 15 21  1  0
 15 16  1  1
 17 16  1  0
 18 17  1  0
 19 18  1  0
 20 19  1  0
 21 23  2  0
 21 22  1  0
M  END
$$$$
