MAK.pdb
     RDKit          3D

 23 22  0  0  1  0  0  0  0  0999 V2000
   29.7403  -20.1829   -8.6898 C   0  0  0  0  0  0  0  0  0  0  0  0
   28.0549  -19.7996   -8.2107 S   0  0  0  0  0  0  0  0  0  0  0  0
   26.9412  -21.0117   -9.0192 C   0  0  0  0  0  0  0  0  0  0  0  0
   26.3411  -20.3507  -10.2131 C   0  0  0  0  0  0  0  0  0  0  0  0
   25.5054  -21.2759  -11.0813 C   0  0  2  0  0  0  0  0  0  0  0  0
   26.3828  -21.7934  -12.1625 N   0  0  0  0  0  0  0  0  0  0  0  0
   24.3858  -20.6057  -11.7572 C   0  0  0  0  0  0  0  0  0  0  0  0
   23.4583  -20.1123  -11.0849 O   0  0  0  0  0  0  0  0  0  0  0  0
   23.4855  -19.9484  -15.3416 C   0  0  0  0  0  0  0  0  0  0  0  0
   23.0851  -20.1175  -13.8534 C   0  0  2  0  0  0  0  0  0  0  0  0
   24.2957  -20.4778  -13.1853 N   0  0  0  0  0  0  0  0  0  0  0  0
   22.0478  -21.1506  -13.8488 C   0  0  0  0  0  0  0  0  0  0  0  0
   22.3372  -22.3926  -13.9539 O   0  0  0  0  0  0  0  0  0  0  0  0
   20.6932  -20.8364  -13.7287 N   0  0  0  0  0  0  0  0  0  0  0  0
   19.6909  -21.7209  -13.1541 C   0  0  1  0  0  0  0  0  0  0  0  0
   20.0146  -22.1340  -11.7695 C   0  0  0  0  0  0  0  0  0  0  0  0
   19.0336  -22.9670  -11.0491 C   0  0  0  0  0  0  0  0  0  0  0  0
   19.3532  -23.4785   -9.7106 C   0  0  0  0  0  0  0  0  0  0  0  0
   18.3791  -24.3885   -9.0576 C   0  0  0  0  0  0  0  0  0  0  0  0
   18.9315  -24.7319   -7.7347 N   0  0  0  0  0  0  0  0  0  0  0  0
   18.3648  -21.1428  -13.3933 C   0  0  0  0  0  0  0  0  0  0  0  0
   18.0811  -19.7838  -13.3724 O   0  0  0  0  0  0  0  0  0  0  0  0
   17.3846  -21.9267  -13.6378 O   0  0  0  0  0  0  0  0  0  0  0  0
  2  1  1  0
  2  3  1  0
  4  5  1  0
  4  3  1  0
  5  7  1  0
  5  6  1  6
  7  8  2  0
 10  9  1  6
 10 12  1  0
 11 10  1  0
 11  7  1  0
 12 14  1  0
 12 13  2  0
 14 15  1  0
 15 21  1  0
 15 16  1  1
 17 16  1  0
 18 17  1  0
 19 18  1  0
 20 19  1  0
 21 23  2  0
 21 22  1  0
M  END
$$$$
