MAK.pdb
     RDKit          3D

 23 22  0  0  1  0  0  0  0  0999 V2000
   17.3248  -16.0334  -20.7628 C   0  0  0  0  0  0  0  0  0  0  0  0
   18.0066  -14.5151  -20.0942 S   0  0  0  0  0  0  0  0  0  0  0  0
   18.7373  -14.8901  -18.4546 C   0  0  0  0  0  0  0  0  0  0  0  0
   19.2766  -13.6173  -17.8962 C   0  0  0  0  0  0  0  0  0  0  0  0
   20.2289  -13.8056  -16.7275 C   0  0  2  0  0  0  0  0  0  0  0  0
   19.5824  -14.7341  -15.7649 N   0  0  0  0  0  0  0  0  0  0  0  0
   20.4996  -12.5715  -15.9770 C   0  0  0  0  0  0  0  0  0  0  0  0
   19.5519  -11.8708  -15.5688 O   0  0  0  0  0  0  0  0  0  0  0  0
   23.6290  -10.7791  -14.9265 C   0  0  0  0  0  0  0  0  0  0  0  0
   22.0840  -10.8722  -15.0146 C   0  0  2  0  0  0  0  0  0  0  0  0
   21.8271  -12.1138  -15.6736 N   0  0  0  0  0  0  0  0  0  0  0  0
   21.6684   -9.6820  -15.7589 C   0  0  0  0  0  0  0  0  0  0  0  0
   21.7675   -9.6187  -17.0330 O   0  0  0  0  0  0  0  0  0  0  0  0
   21.1428   -8.5578  -15.1201 N   0  0  0  0  0  0  0  0  0  0  0  0
   20.6839   -7.3601  -15.8071 C   0  0  1  0  0  0  0  0  0  0  0  0
   19.2226   -7.3589  -16.0466 C   0  0  0  0  0  0  0  0  0  0  0  0
   18.6131   -6.1340  -16.5973 C   0  0  0  0  0  0  0  0  0  0  0  0
   17.1657   -6.0833  -16.8377 C   0  0  0  0  0  0  0  0  0  0  0  0
   16.6022   -4.8612  -17.4644 C   0  0  0  0  0  0  0  0  0  0  0  0
   15.1516   -5.0812  -17.6075 N   0  0  0  0  0  0  0  0  0  0  0  0
   21.2592   -6.1885  -15.1392 C   0  0  0  0  0  0  0  0  0  0  0  0
   21.5086   -4.9708  -15.7579 O   0  0  0  0  0  0  0  0  0  0  0  0
   21.5632   -6.2715  -13.8999 O   0  0  0  0  0  0  0  0  0  0  0  0
  2  1  1  0
  2  3  1  0
  4  5  1  0
  4  3  1  0
  5  7  1  0
  5  6  1  1
  7  8  2  0
 10  9  1  6
 10 12  1  0
 11 10  1  0
 11  7  1  0
 12 14  1  0
 12 13  2  0
 14 15  1  0
 15 21  1  0
 15 16  1  1
 17 16  1  0
 18 17  1  0
 19 18  1  0
 20 19  1  0
 21 23  2  0
 21 22  1  0
M  END
$$$$
