MAK.pdb
     RDKit          3D

 23 22  0  0  1  0  0  0  0  0999 V2000
   25.9757  -23.9919  -16.1006 C   0  0  0  0  0  0  0  0  0  0  0  0
   25.0568  -24.4694  -14.6361 S   0  0  0  0  0  0  0  0  0  0  0  0
   25.3140  -23.1824  -13.3552 C   0  0  0  0  0  0  0  0  0  0  0  0
   25.9373  -22.0011  -14.0175 C   0  0  0  0  0  0  0  0  0  0  0  0
   26.3113  -20.8794  -13.0635 C   0  0  2  0  0  0  0  0  0  0  0  0
   25.7395  -21.2103  -11.7330 N   0  0  0  0  0  0  0  0  0  0  0  0
   25.7461  -19.5736  -13.4313 C   0  0  0  0  0  0  0  0  0  0  0  0
   24.6097  -19.2521  -13.0303 O   0  0  0  0  0  0  0  0  0  0  0  0
   26.9947  -16.6138  -15.3708 C   0  0  0  0  0  0  0  0  0  0  0  0
   25.8406  -17.4093  -14.7083 C   0  0  2  0  0  0  0  0  0  0  0  0
   26.4457  -18.6176  -14.2440 N   0  0  0  0  0  0  0  0  0  0  0  0
   24.8404  -17.5866  -15.7626 C   0  0  0  0  0  0  0  0  0  0  0  0
   24.8376  -18.6194  -16.5180 O   0  0  0  0  0  0  0  0  0  0  0  0
   23.8400  -16.6422  -15.9977 N   0  0  0  0  0  0  0  0  0  0  0  0
   22.7677  -16.8032  -16.9680 C   0  0  1  0  0  0  0  0  0  0  0  0
   21.4425  -16.4208  -16.4290 C   0  0  0  0  0  0  0  0  0  0  0  0
   20.2647  -16.5991  -17.2986 C   0  0  0  0  0  0  0  0  0  0  0  0
   18.9356  -16.2016  -16.8181 C   0  0  0  0  0  0  0  0  0  0  0  0
   17.7752  -16.4026  -17.7217 C   0  0  0  0  0  0  0  0  0  0  0  0
   16.5713  -16.0017  -16.9713 N   0  0  0  0  0  0  0  0  0  0  0  0
   23.1848  -16.1891  -18.2323 C   0  0  0  0  0  0  0  0  0  0  0  0
   23.9356  -15.0256  -18.3344 O   0  0  0  0  0  0  0  0  0  0  0  0
   22.8422  -16.7452  -19.3315 O   0  0  0  0  0  0  0  0  0  0  0  0
  2  1  1  0
  2  3  1  0
  4  5  1  0
  4  3  1  0
  5  7  1  0
  5  6  1  1
  7  8  2  0
 10  9  1  6
 10 12  1  0
 11 10  1  0
 11  7  1  0
 12 14  1  0
 12 13  2  0
 14 15  1  0
 15 21  1  0
 15 16  1  1
 17 16  1  0
 18 17  1  0
 19 18  1  0
 20 19  1  0
 21 23  2  0
 21 22  1  0
M  END
$$$$
