MAK.pdb
     RDKit          3D

 23 22  0  0  1  0  0  0  0  0999 V2000
   28.8812  -20.4822  -17.8535 C   0  0  0  0  0  0  0  0  0  0  0  0
   28.3403  -18.7868  -17.6297 S   0  0  0  0  0  0  0  0  0  0  0  0
   28.5226  -18.3582  -15.8559 C   0  0  0  0  0  0  0  0  0  0  0  0
   28.2364  -19.5862  -15.0605 C   0  0  0  0  0  0  0  0  0  0  0  0
   26.8418  -19.6260  -14.4591 C   0  0  2  0  0  0  0  0  0  0  0  0
   26.6009  -18.3200  -13.7936 N   0  0  0  0  0  0  0  0  0  0  0  0
   26.6740  -20.6469  -13.4154 C   0  0  0  0  0  0  0  0  0  0  0  0
   26.7832  -21.8555  -13.7037 O   0  0  0  0  0  0  0  0  0  0  0  0
   25.6663  -20.5185   -9.8019 C   0  0  0  0  0  0  0  0  0  0  0  0
   25.5666  -21.1500  -11.2143 C   0  0  2  0  0  0  0  0  0  0  0  0
   26.3879  -20.3266  -12.0444 N   0  0  0  0  0  0  0  0  0  0  0  0
   24.1405  -21.1301  -11.5451 C   0  0  0  0  0  0  0  0  0  0  0  0
   23.2815  -21.7764  -10.8512 O   0  0  0  0  0  0  0  0  0  0  0  0
   23.6444  -20.4065  -12.6307 N   0  0  0  0  0  0  0  0  0  0  0  0
   22.2446  -20.3724  -13.0265 C   0  0  1  0  0  0  0  0  0  0  0  0
   21.8939  -19.1560  -13.7948 C   0  0  0  0  0  0  0  0  0  0  0  0
   20.5119  -19.0276  -14.2936 C   0  0  0  0  0  0  0  0  0  0  0  0
   20.1373  -17.8711  -15.1166 C   0  0  0  0  0  0  0  0  0  0  0  0
   18.7361  -17.7784  -15.5978 C   0  0  0  0  0  0  0  0  0  0  0  0
   18.6542  -16.5822  -16.4554 N   0  0  0  0  0  0  0  0  0  0  0  0
   21.8938  -21.6678  -13.6168 C   0  0  0  0  0  0  0  0  0  0  0  0
   20.6880  -22.3260  -13.4154 O   0  0  0  0  0  0  0  0  0  0  0  0
   22.7441  -22.2530  -14.3716 O   0  0  0  0  0  0  0  0  0  0  0  0
  2  1  1  0
  2  3  1  0
  4  5  1  0
  4  3  1  0
  5  7  1  0
  5  6  1  1
  7  8  2  0
 10  9  1  1
 10 12  1  0
 11 10  1  0
 11  7  1  0
 12 14  1  0
 12 13  2  0
 14 15  1  0
 15 21  1  0
 15 16  1  6
 17 16  1  0
 18 17  1  0
 19 18  1  0
 20 19  1  0
 21 23  2  0
 21 22  1  0
M  END
$$$$
