DHN.pdb
     RDKit          3D

 27 27  0  0  1  0  0  0  0  0999 V2000
   16.5876  -19.2273    2.2931 N   0  0  0  0  0  0  0  0  0  0  0  0
   16.0719  -18.4865    3.3860 C   0  0  1  0  0  0  0  0  0  0  0  0
   15.2796  -19.3120    4.3657 C   0  0  0  0  0  0  0  0  0  0  0  0
   14.0412  -19.8663    3.7667 C   0  0  0  0  0  0  0  0  0  0  0  0
   14.0886  -20.8540    2.9560 O   0  0  0  0  0  0  0  0  0  0  0  0
   17.1923  -17.8106    4.1586 C   0  0  0  0  0  0  0  0  0  0  0  0
   18.2382  -18.4402    4.4068 O   0  0  0  0  0  0  0  0  0  0  0  0
   12.7750  -19.3729    4.0304 O   0  0  0  0  0  0  0  0  0  0  0  0
   17.0549  -16.4839    4.5930 N   0  0  0  0  0  0  0  0  0  0  0  0
   17.9631  -15.6465    5.3087 C   0  0  1  0  0  0  0  0  0  0  0  0
   17.6350  -14.1562    5.2955 C   0  0  0  0  0  0  0  0  0  0  0  0
   18.7343  -13.3035    5.7458 C   0  0  0  0  0  0  0  0  0  0  0  0
   19.9361  -13.7858    6.2184 C   0  0  0  0  0  0  0  0  0  0  0  0
   20.7438  -12.7748    6.5581 N   0  0  0  0  0  0  0  0  0  0  0  0
   20.0643  -11.6206    6.3050 C   0  0  0  0  0  0  0  0  0  0  0  0
   18.8575  -11.9569    5.8169 N   0  0  0  0  0  0  0  0  0  0  0  0
   18.3208  -16.0603    6.6569 C   0  0  0  0  0  0  0  0  0  0  0  0
   17.3391  -16.3665    7.4201 O   0  0  0  0  0  0  0  0  0  0  0  0
   21.0262  -17.7264   10.9826 N   0  0  0  0  0  0  0  0  0  0  0  0
   21.8576  -17.3654    9.9049 C   0  0  0  0  0  0  0  0  0  0  0  0
   23.1215  -17.5741   10.0184 O   0  0  0  0  0  0  0  0  0  0  0  0
   21.4340  -16.7680    8.6388 C   0  0  0  0  0  0  0  0  0  0  0  0
   19.9658  -16.5302    8.5161 C   0  0  2  0  0  0  0  0  0  0  0  0
   19.6540  -16.1355    7.1401 N   0  0  0  0  0  0  0  0  0  0  0  0
   19.4518  -15.4985    9.4590 C   0  0  0  0  0  0  0  0  0  0  0  0
   19.5839  -14.2728    9.1671 O   0  0  0  0  0  0  0  0  0  0  0  0
   18.8263  -15.7624   10.6580 O   0  0  0  0  0  0  0  0  0  0  0  0
  2  1  1  6
  2  3  1  0
  4  8  1  0
  4  3  1  0
  5  4  2  0
  6  7  2  0
  6  2  1  0
  9  6  1  0
 10  9  1  0
 10 11  1  1
 12 11  1  0
 12 13  2  0
 14 13  1  0
 15 14  1  0
 16 15  2  0
 16 12  1  0
 17 10  1  0
 17 18  2  0
 20 19  1  0
 20 21  2  0
 22 20  1  0
 23 24  1  0
 23 22  1  6
 24 17  1  0
 25 23  1  0
 26 25  2  0
 27 25  1  0
M  END
$$$$
