DHN.pdb
     RDKit          3D

 27 27  0  0  1  0  0  0  0  0999 V2000
   26.0283  -19.2453  -18.5364 N   0  0  0  0  0  0  0  0  0  0  0  0
   26.1735  -18.1831  -17.6091 C   0  0  1  0  0  0  0  0  0  0  0  0
   26.9019  -16.9850  -18.1597 C   0  0  0  0  0  0  0  0  0  0  0  0
   28.2004  -17.3475  -18.7780 C   0  0  0  0  0  0  0  0  0  0  0  0
   28.2563  -18.1745  -19.7516 O   0  0  0  0  0  0  0  0  0  0  0  0
   24.8178  -17.7068  -17.1150 C   0  0  0  0  0  0  0  0  0  0  0  0
   24.7551  -16.8025  -16.2606 O   0  0  0  0  0  0  0  0  0  0  0  0
   29.4169  -16.8343  -18.3622 O   0  0  0  0  0  0  0  0  0  0  0  0
   23.6389  -18.2795  -17.6151 N   0  0  0  0  0  0  0  0  0  0  0  0
   22.2770  -18.0641  -17.2449 C   0  0  1  0  0  0  0  0  0  0  0  0
   21.3261  -17.7368  -18.3926 C   0  0  0  0  0  0  0  0  0  0  0  0
   19.9591  -17.4431  -17.9642 C   0  0  0  0  0  0  0  0  0  0  0  0
   18.8851  -18.2741  -18.2009 C   0  0  0  0  0  0  0  0  0  0  0  0
   17.7647  -17.7440  -17.6973 N   0  0  0  0  0  0  0  0  0  0  0  0
   18.1091  -16.5555  -17.1256 C   0  0  0  0  0  0  0  0  0  0  0  0
   19.4326  -16.3902  -17.2952 N   0  0  0  0  0  0  0  0  0  0  0  0
   21.6673  -19.0504  -16.3660 C   0  0  0  0  0  0  0  0  0  0  0  0
   22.0542  -20.2590  -16.5385 O   0  0  0  0  0  0  0  0  0  0  0  0
   20.6863  -20.6817  -10.9216 N   0  0  0  0  0  0  0  0  0  0  0  0
   20.8670  -20.8920  -12.3022 C   0  0  0  0  0  0  0  0  0  0  0  0
   20.7245  -22.0866  -12.7568 O   0  0  0  0  0  0  0  0  0  0  0  0
   21.2036  -19.8789  -13.3019 C   0  0  0  0  0  0  0  0  0  0  0  0
   20.2189  -19.7427  -14.4151 C   0  0  2  0  0  0  0  0  0  0  0  0
   20.7040  -18.7423  -15.3691 N   0  0  0  0  0  0  0  0  0  0  0  0
   18.8522  -19.3708  -13.9549 C   0  0  0  0  0  0  0  0  0  0  0  0
   18.5808  -18.1514  -13.7441 O   0  0  0  0  0  0  0  0  0  0  0  0
   17.8231  -20.2589  -13.7297 O   0  0  0  0  0  0  0  0  0  0  0  0
  2  1  1  6
  2  3  1  0
  4  8  1  0
  4  3  1  0
  5  4  2  0
  6  7  2  0
  6  2  1  0
  9  6  1  0
 10  9  1  0
 10 11  1  6
 12 11  1  0
 12 13  2  0
 14 13  1  0
 15 14  1  0
 16 15  2  0
 16 12  1  0
 17 10  1  0
 17 18  2  0
 20 19  1  0
 20 21  2  0
 22 20  1  0
 23 24  1  0
 23 22  1  1
 24 17  1  0
 25 23  1  0
 26 25  2  0
 27 25  1  0
M  END
$$$$
