DHN.pdb
     RDKit          3D

 27 27  0  0  1  0  0  0  0  0999 V2000
   18.8327  -11.4316  -16.1486 N   0  0  0  0  0  0  0  0  0  0  0  0
   17.7307  -10.6170  -15.7865 C   0  0  1  0  0  0  0  0  0  0  0  0
   16.7681  -11.2772  -14.8345 C   0  0  0  0  0  0  0  0  0  0  0  0
   16.0771  -12.4394  -15.4442 C   0  0  0  0  0  0  0  0  0  0  0  0
   16.3506  -12.8153  -16.6354 O   0  0  0  0  0  0  0  0  0  0  0  0
   18.2019   -9.3259  -15.1383 C   0  0  0  0  0  0  0  0  0  0  0  0
   18.0932   -9.1784  -13.9061 O   0  0  0  0  0  0  0  0  0  0  0  0
   15.1114  -13.1858  -14.7913 O   0  0  0  0  0  0  0  0  0  0  0  0
   18.7571   -8.3012  -15.9190 N   0  0  0  0  0  0  0  0  0  0  0  0
   19.4199   -7.0981  -15.5300 C   0  0  1  0  0  0  0  0  0  0  0  0
   20.9272   -7.0704  -15.7659 C   0  0  0  0  0  0  0  0  0  0  0  0
   21.6478   -8.1693  -15.1242 C   0  0  0  0  0  0  0  0  0  0  0  0
   22.3287   -9.1482  -15.8158 C   0  0  0  0  0  0  0  0  0  0  0  0
   22.8851  -10.0189  -14.9660 N   0  0  0  0  0  0  0  0  0  0  0  0
   22.5655   -9.6055  -13.7070 C   0  0  0  0  0  0  0  0  0  0  0  0
   21.8211   -8.4917  -13.8206 N   0  0  0  0  0  0  0  0  0  0  0  0
   18.8286   -5.8449  -15.9740 C   0  0  0  0  0  0  0  0  0  0  0  0
   18.5526   -5.7755  -17.2225 O   0  0  0  0  0  0  0  0  0  0  0  0
   16.1420   -1.2271  -16.1654 N   0  0  0  0  0  0  0  0  0  0  0  0
   16.0708   -1.9430  -14.9550 C   0  0  0  0  0  0  0  0  0  0  0  0
   15.2739   -1.5121  -14.0421 O   0  0  0  0  0  0  0  0  0  0  0  0
   16.8174   -3.1532  -14.6124 C   0  0  0  0  0  0  0  0  0  0  0  0
   17.8774   -3.5359  -15.5908 C   0  0  2  0  0  0  0  0  0  0  0  0
   18.5569   -4.7447  -15.1182 N   0  0  0  0  0  0  0  0  0  0  0  0
   18.8805   -2.4611  -15.8282 C   0  0  0  0  0  0  0  0  0  0  0  0
   18.5082   -1.3743  -16.3623 O   0  0  0  0  0  0  0  0  0  0  0  0
   20.2189   -2.5423  -15.5108 O   0  0  0  0  0  0  0  0  0  0  0  0
  2  1  1  1
  2  3  1  0
  4  8  1  0
  4  3  1  0
  5  4  2  0
  6  7  2  0
  6  2  1  0
  9  6  1  0
 10  9  1  0
 10 11  1  6
 12 11  1  0
 12 13  2  0
 14 13  1  0
 15 14  1  0
 16 15  2  0
 16 12  1  0
 17 10  1  0
 17 18  2  0
 20 19  1  0
 20 21  2  0
 22 20  1  0
 23 24  1  0
 23 22  1  1
 24 17  1  0
 25 23  1  0
 26 25  2  0
 27 25  1  0
M  END
$$$$
