DHN.pdb
     RDKit          3D

 27 27  0  0  1  0  0  0  0  0999 V2000
   18.2320  -12.5179  -16.9847 N   0  0  0  0  0  0  0  0  0  0  0  0
   17.9328  -11.2226  -16.4930 C   0  0  1  0  0  0  0  0  0  0  0  0
   17.1192  -11.2218  -15.2253 C   0  0  0  0  0  0  0  0  0  0  0  0
   15.7034  -11.5950  -15.4617 C   0  0  0  0  0  0  0  0  0  0  0  0
   14.9476  -11.9512  -14.4938 O   0  0  0  0  0  0  0  0  0  0  0  0
   19.2062  -10.4398  -16.2196 C   0  0  0  0  0  0  0  0  0  0  0  0
   20.0060  -10.8448  -15.3547 O   0  0  0  0  0  0  0  0  0  0  0  0
   15.1070  -11.5870  -16.7108 O   0  0  0  0  0  0  0  0  0  0  0  0
   19.4849   -9.2656  -16.9348 N   0  0  0  0  0  0  0  0  0  0  0  0
   20.6129   -8.3926  -16.8756 C   0  0  1  0  0  0  0  0  0  0  0  0
   21.1948   -7.9756  -18.2232 C   0  0  0  0  0  0  0  0  0  0  0  0
   21.7421   -9.0861  -19.0015 C   0  0  0  0  0  0  0  0  0  0  0  0
   21.8256  -10.3813  -18.5372 C   0  0  0  0  0  0  0  0  0  0  0  0
   22.3709  -11.1758  -19.4653 N   0  0  0  0  0  0  0  0  0  0  0  0
   22.6463  -10.3931  -20.5468 C   0  0  0  0  0  0  0  0  0  0  0  0
   22.2617   -9.1392  -20.2508 N   0  0  0  0  0  0  0  0  0  0  0  0
   20.5049   -7.2317  -16.0052 C   0  0  0  0  0  0  0  0  0  0  0  0
   19.4957   -6.4727  -16.2184 O   0  0  0  0  0  0  0  0  0  0  0  0
   20.7242   -8.4635  -11.8072 N   0  0  0  0  0  0  0  0  0  0  0  0
   20.5229   -7.1057  -12.1211 C   0  0  0  0  0  0  0  0  0  0  0  0
   19.3614   -6.5988  -11.9014 O   0  0  0  0  0  0  0  0  0  0  0  0
   21.5115   -6.1839  -12.6797 C   0  0  0  0  0  0  0  0  0  0  0  0
   21.2550   -5.7656  -14.0891 C   0  0  2  0  0  0  0  0  0  0  0  0
   21.4308   -6.9193  -14.9747 N   0  0  0  0  0  0  0  0  0  0  0  0
   22.1301   -4.6499  -14.5446 C   0  0  0  0  0  0  0  0  0  0  0  0
   23.0153   -4.8765  -15.4221 O   0  0  0  0  0  0  0  0  0  0  0  0
   22.0639   -3.3527  -14.0848 O   0  0  0  0  0  0  0  0  0  0  0  0
  2  1  1  1
  2  3  1  0
  4  8  1  0
  4  3  1  0
  5  4  2  0
  6  7  2  0
  6  2  1  0
  9  6  1  0
 10  9  1  0
 10 11  1  6
 12 11  1  0
 12 13  2  0
 14 13  1  0
 15 14  1  0
 16 15  2  0
 16 12  1  0
 17 10  1  0
 17 18  2  0
 20 19  1  0
 20 21  2  0
 22 20  1  0
 23 24  1  0
 23 22  1  1
 24 17  1  0
 25 23  1  0
 26 25  2  0
 27 25  1  0
M  END
$$$$
