DHN.pdb
     RDKit          3D

 27 27  0  0  1  0  0  0  0  0999 V2000
   17.4468  -13.4590  -17.0992 N   0  0  0  0  0  0  0  0  0  0  0  0
   18.4822  -13.2956  -16.1450 C   0  0  1  0  0  0  0  0  0  0  0  0
   19.3204  -14.5292  -15.9340 C   0  0  0  0  0  0  0  0  0  0  0  0
   18.5607  -15.6250  -15.2846 C   0  0  0  0  0  0  0  0  0  0  0  0
   18.8399  -16.8496  -15.5241 O   0  0  0  0  0  0  0  0  0  0  0  0
   19.4190  -12.1699  -16.5503 C   0  0  0  0  0  0  0  0  0  0  0  0
   20.6350  -12.2565  -16.2942 O   0  0  0  0  0  0  0  0  0  0  0  0
   17.5212  -15.4144  -14.3950 O   0  0  0  0  0  0  0  0  0  0  0  0
   18.9221  -11.0358  -17.2096 N   0  0  0  0  0  0  0  0  0  0  0  0
   19.5797   -9.8293  -17.5972 C   0  0  1  0  0  0  0  0  0  0  0  0
   19.1436   -9.2422  -18.9365 C   0  0  0  0  0  0  0  0  0  0  0  0
   19.4161  -10.1107  -20.0811 C   0  0  0  0  0  0  0  0  0  0  0  0
   18.5067  -11.0092  -20.5966 C   0  0  0  0  0  0  0  0  0  0  0  0
   19.0357  -11.6643  -21.6363 N   0  0  0  0  0  0  0  0  0  0  0  0
   20.3026  -11.1897  -21.8025 C   0  0  0  0  0  0  0  0  0  0  0  0
   20.5150  -10.2559  -20.8588 N   0  0  0  0  0  0  0  0  0  0  0  0
   19.6636   -8.7730  -16.6002 C   0  0  0  0  0  0  0  0  0  0  0  0
   18.6237   -8.6190  -15.8688 O   0  0  0  0  0  0  0  0  0  0  0  0
   23.0984   -4.5520  -14.0117 N   0  0  0  0  0  0  0  0  0  0  0  0
   22.6125   -5.8662  -13.8714 C   0  0  0  0  0  0  0  0  0  0  0  0
   22.3596   -6.2952  -12.6856 O   0  0  0  0  0  0  0  0  0  0  0  0
   22.3540   -6.8201  -14.9495 C   0  0  0  0  0  0  0  0  0  0  0  0
   20.9128   -7.0144  -15.2847 C   0  0  2  0  0  0  0  0  0  0  0  0
   20.8003   -7.9426  -16.4125 N   0  0  0  0  0  0  0  0  0  0  0  0
   20.2041   -5.7458  -15.6109 C   0  0  0  0  0  0  0  0  0  0  0  0
   20.1440   -5.3632  -16.8170 O   0  0  0  0  0  0  0  0  0  0  0  0
   19.5885   -4.9235  -14.6924 O   0  0  0  0  0  0  0  0  0  0  0  0
  2  1  1  6
  2  3  1  0
  4  8  1  0
  4  3  1  0
  5  4  2  0
  6  7  2  0
  6  2  1  0
  9  6  1  0
 10  9  1  0
 10 11  1  6
 12 11  1  0
 12 13  2  0
 14 13  1  0
 15 14  1  0
 16 15  2  0
 16 12  1  0
 17 10  1  0
 17 18  2  0
 20 19  1  0
 20 21  2  0
 22 20  1  0
 23 24  1  0
 23 22  1  6
 24 17  1  0
 25 23  1  0
 26 25  2  0
 27 25  1  0
M  END
$$$$
