DHN.pdb
     RDKit          3D

 27 27  0  0  1  0  0  0  0  0999 V2000
   19.2488   -8.6378  -20.6025 N   0  0  0  0  0  0  0  0  0  0  0  0
   20.3323   -8.7631  -19.6972 C   0  0  1  0  0  0  0  0  0  0  0  0
   21.3083   -7.6168  -19.7481 C   0  0  0  0  0  0  0  0  0  0  0  0
   22.0480   -7.5604  -21.0325 C   0  0  0  0  0  0  0  0  0  0  0  0
   22.4231   -6.4420  -21.5258 O   0  0  0  0  0  0  0  0  0  0  0  0
   19.8323   -8.8748  -18.2667 C   0  0  0  0  0  0  0  0  0  0  0  0
   19.0951   -7.9860  -17.7993 O   0  0  0  0  0  0  0  0  0  0  0  0
   22.3804   -8.6802  -21.7752 O   0  0  0  0  0  0  0  0  0  0  0  0
   20.1962   -9.9715  -17.4713 N   0  0  0  0  0  0  0  0  0  0  0  0
   19.9326  -10.2434  -16.0948 C   0  0  1  0  0  0  0  0  0  0  0  0
   20.0368  -11.7085  -15.6808 C   0  0  0  0  0  0  0  0  0  0  0  0
   18.9757  -12.5549  -16.2249 C   0  0  0  0  0  0  0  0  0  0  0  0
   17.8538  -12.0667  -16.8598 C   0  0  0  0  0  0  0  0  0  0  0  0
   17.0611  -13.0727  -17.2464 N   0  0  0  0  0  0  0  0  0  0  0  0
   17.6703  -14.2296  -16.8613 C   0  0  0  0  0  0  0  0  0  0  0  0
   18.8207  -13.8999  -16.2484 N   0  0  0  0  0  0  0  0  0  0  0  0
   20.6069   -9.4055  -15.1149 C   0  0  0  0  0  0  0  0  0  0  0  0
   21.8587   -9.2212  -15.3128 O   0  0  0  0  0  0  0  0  0  0  0  0
   21.9312   -5.6304  -11.7038 N   0  0  0  0  0  0  0  0  0  0  0  0
   21.7576   -5.6454  -13.1011 C   0  0  0  0  0  0  0  0  0  0  0  0
   22.1574   -4.6236  -13.7722 O   0  0  0  0  0  0  0  0  0  0  0  0
   21.1620   -6.7201  -13.8945 C   0  0  0  0  0  0  0  0  0  0  0  0
   20.6541   -7.8785  -13.1025 C   0  0  2  0  0  0  0  0  0  0  0  0
   19.9632   -8.8098  -13.9980 N   0  0  0  0  0  0  0  0  0  0  0  0
   19.7415   -7.4837  -11.9939 C   0  0  0  0  0  0  0  0  0  0  0  0
   20.1949   -6.7881  -11.0371 O   0  0  0  0  0  0  0  0  0  0  0  0
   18.4069   -7.8161  -11.9099 O   0  0  0  0  0  0  0  0  0  0  0  0
  2  1  1  6
  2  3  1  0
  4  8  1  0
  4  3  1  0
  5  4  2  0
  6  7  2  0
  6  2  1  0
  9  6  1  0
 10  9  1  0
 10 11  1  1
 12 11  1  0
 12 13  2  0
 14 13  1  0
 15 14  1  0
 16 15  2  0
 16 12  1  0
 17 10  1  0
 17 18  2  0
 20 19  1  0
 20 21  2  0
 22 20  1  0
 23 24  1  0
 23 22  1  6
 24 17  1  0
 25 23  1  0
 26 25  2  0
 27 25  1  0
M  END
$$$$
