DHN.pdb
     RDKit          3D

 27 27  0  0  1  0  0  0  0  0999 V2000
   17.6308  -12.0414  -14.0840 N   0  0  0  0  0  0  0  0  0  0  0  0
   17.0408  -10.9160  -14.7121 C   0  0  1  0  0  0  0  0  0  0  0  0
   15.9321  -11.2617  -15.6715 C   0  0  0  0  0  0  0  0  0  0  0  0
   16.3578  -12.2448  -16.6973 C   0  0  0  0  0  0  0  0  0  0  0  0
   15.5061  -13.0079  -17.2692 O   0  0  0  0  0  0  0  0  0  0  0  0
   16.4704   -9.9574  -13.6804 C   0  0  0  0  0  0  0  0  0  0  0  0
   15.7740   -8.9936  -14.0518 O   0  0  0  0  0  0  0  0  0  0  0  0
   17.6709  -12.4081  -17.1039 O   0  0  0  0  0  0  0  0  0  0  0  0
   16.7239  -10.1518  -12.3144 N   0  0  0  0  0  0  0  0  0  0  0  0
   16.2771   -9.4138  -11.1769 C   0  0  1  0  0  0  0  0  0  0  0  0
   15.7430  -10.2499  -10.0174 C   0  0  0  0  0  0  0  0  0  0  0  0
   14.5879  -11.0764  -10.3656 C   0  0  0  0  0  0  0  0  0  0  0  0
   14.6353  -12.4484  -10.4900 C   0  0  0  0  0  0  0  0  0  0  0  0
   13.4309  -12.9293  -10.8188 N   0  0  0  0  0  0  0  0  0  0  0  0
   12.5879  -11.8620  -10.9100 C   0  0  0  0  0  0  0  0  0  0  0  0
   13.3002  -10.7555  -10.6343 N   0  0  0  0  0  0  0  0  0  0  0  0
   17.1657   -8.3793  -10.6698 C   0  0  0  0  0  0  0  0  0  0  0  0
   18.4168   -8.6449  -10.7337 O   0  0  0  0  0  0  0  0  0  0  0  0
   19.3024   -3.6141   -9.8674 N   0  0  0  0  0  0  0  0  0  0  0  0
   19.2013   -4.4683  -10.9823 C   0  0  0  0  0  0  0  0  0  0  0  0
   19.8849   -4.1776  -12.0322 O   0  0  0  0  0  0  0  0  0  0  0  0
   18.3888   -5.6804  -11.0814 C   0  0  0  0  0  0  0  0  0  0  0  0
   17.6451   -6.0419   -9.8391 C   0  0  2  0  0  0  0  0  0  0  0  0
   16.7229   -7.1421  -10.1313 N   0  0  0  0  0  0  0  0  0  0  0  0
   16.8900   -4.9025   -9.2479 C   0  0  0  0  0  0  0  0  0  0  0  0
   15.6576   -4.7737   -9.5116 O   0  0  0  0  0  0  0  0  0  0  0  0
   17.4252   -3.9448   -8.4142 O   0  0  0  0  0  0  0  0  0  0  0  0
  2  1  1  1
  2  3  1  0
  4  8  1  0
  4  3  1  0
  5  4  2  0
  6  7  2  0
  6  2  1  0
  9  6  1  0
 10  9  1  0
 10 11  1  1
 12 11  1  0
 12 13  2  0
 14 13  1  0
 15 14  1  0
 16 15  2  0
 16 12  1  0
 17 10  1  0
 17 18  2  0
 20 19  1  0
 20 21  2  0
 22 20  1  0
 23 24  1  0
 23 22  1  6
 24 17  1  0
 25 23  1  0
 26 25  2  0
 27 25  1  0
M  END
$$$$
