DHN.pdb
     RDKit          3D

 27 27  0  0  1  0  0  0  0  0999 V2000
   18.4950   -9.2327  -13.7842 N   0  0  0  0  0  0  0  0  0  0  0  0
   18.7241   -8.5676  -12.5536 C   0  0  1  0  0  0  0  0  0  0  0  0
   19.7040   -7.4274  -12.6471 C   0  0  0  0  0  0  0  0  0  0  0  0
   21.0363   -7.8648  -13.1303 C   0  0  0  0  0  0  0  0  0  0  0  0
   21.4198   -9.0767  -12.9918 O   0  0  0  0  0  0  0  0  0  0  0  0
   17.4275   -8.0112  -11.9894 C   0  0  0  0  0  0  0  0  0  0  0  0
   16.5940   -7.4912  -12.7553 O   0  0  0  0  0  0  0  0  0  0  0  0
   21.9415   -7.0210  -13.7505 O   0  0  0  0  0  0  0  0  0  0  0  0
   17.1652   -8.0798  -10.6130 N   0  0  0  0  0  0  0  0  0  0  0  0
   15.9981   -7.7175   -9.8750 C   0  0  1  0  0  0  0  0  0  0  0  0
   15.4027   -8.8183   -9.0018 C   0  0  0  0  0  0  0  0  0  0  0  0
   14.7214   -9.8697   -9.7561 C   0  0  0  0  0  0  0  0  0  0  0  0
   14.5430   -9.8414  -11.1227 C   0  0  0  0  0  0  0  0  0  0  0  0
   13.8853  -10.9328  -11.5304 N   0  0  0  0  0  0  0  0  0  0  0  0
   13.6315  -11.6820  -10.4203 C   0  0  0  0  0  0  0  0  0  0  0  0
   14.1413  -11.0279   -9.3620 N   0  0  0  0  0  0  0  0  0  0  0  0
   16.0495   -6.4699   -9.1281 C   0  0  0  0  0  0  0  0  0  0  0  0
   16.7014   -6.5113   -8.0266 O   0  0  0  0  0  0  0  0  0  0  0  0
   18.2557   -3.7311   -8.4092 N   0  0  0  0  0  0  0  0  0  0  0  0
   17.4605   -2.8474   -9.1639 C   0  0  0  0  0  0  0  0  0  0  0  0
   18.0409   -1.8615   -9.7514 O   0  0  0  0  0  0  0  0  0  0  0  0
   16.0136   -2.9289   -9.3620 C   0  0  0  0  0  0  0  0  0  0  0  0
   15.3507   -4.0825   -8.6860 C   0  0  2  0  0  0  0  0  0  0  0  0
   15.4343   -5.2619   -9.5511 N   0  0  0  0  0  0  0  0  0  0  0  0
   13.9274   -3.8238   -8.3324 C   0  0  0  0  0  0  0  0  0  0  0  0
   13.6563   -2.9463   -7.4599 O   0  0  0  0  0  0  0  0  0  0  0  0
   12.8437   -4.4719   -8.8839 O   0  0  0  0  0  0  0  0  0  0  0  0
  2  1  1  6
  2  3  1  0
  4  8  1  0
  4  3  1  0
  5  4  2  0
  6  7  2  0
  6  2  1  0
  9  6  1  0
 10  9  1  0
 10 11  1  1
 12 11  1  0
 12 13  2  0
 14 13  1  0
 15 14  1  0
 16 15  2  0
 16 12  1  0
 17 10  1  0
 17 18  2  0
 20 19  1  0
 20 21  2  0
 22 20  1  0
 23 24  1  0
 23 22  1  6
 24 17  1  0
 25 23  1  0
 26 25  2  0
 27 25  1  0
M  END
$$$$
