DHN.pdb
     RDKit          3D

 27 27  0  0  1  0  0  0  0  0999 V2000
   22.7982  -11.4504  -18.5271 N   0  0  0  0  0  0  0  0  0  0  0  0
   23.2301  -10.2324  -17.9450 C   0  0  1  0  0  0  0  0  0  0  0  0
   23.8902   -9.2896  -18.9168 C   0  0  0  0  0  0  0  0  0  0  0  0
   25.1041   -9.8746  -19.5365 C   0  0  0  0  0  0  0  0  0  0  0  0
   25.8132  -10.7336  -18.9086 O   0  0  0  0  0  0  0  0  0  0  0  0
   22.0646   -9.4925  -17.3101 C   0  0  0  0  0  0  0  0  0  0  0  0
   21.3007   -8.8155  -18.0242 O   0  0  0  0  0  0  0  0  0  0  0  0
   25.5509   -9.5468  -20.8050 O   0  0  0  0  0  0  0  0  0  0  0  0
   21.8452   -9.5677  -15.9266 N   0  0  0  0  0  0  0  0  0  0  0  0
   20.8405   -8.9590  -15.1153 C   0  0  1  0  0  0  0  0  0  0  0  0
   20.1712   -9.8767  -14.0962 C   0  0  0  0  0  0  0  0  0  0  0  0
   19.2490  -10.8456  -14.6870 C   0  0  0  0  0  0  0  0  0  0  0  0
   18.9841  -10.9288  -16.0372 C   0  0  0  0  0  0  0  0  0  0  0  0
   18.1015  -11.9043  -16.2807 N   0  0  0  0  0  0  0  0  0  0  0  0
   17.7864  -12.4645  -15.0787 C   0  0  0  0  0  0  0  0  0  0  0  0
   18.4854  -11.8159  -14.1310 N   0  0  0  0  0  0  0  0  0  0  0  0
   21.1767   -7.6895  -14.4889 C   0  0  0  0  0  0  0  0  0  0  0  0
   22.3150   -7.6458  -13.9039 O   0  0  0  0  0  0  0  0  0  0  0  0
   22.0026   -2.5319  -13.9242 N   0  0  0  0  0  0  0  0  0  0  0  0
   22.4854   -3.4995  -14.8261 C   0  0  0  0  0  0  0  0  0  0  0  0
   23.4576   -3.1727  -15.6020 O   0  0  0  0  0  0  0  0  0  0  0  0
   21.9952   -4.8687  -14.9810 C   0  0  0  0  0  0  0  0  0  0  0  0
   20.8167   -5.2142  -14.1330 C   0  0  2  0  0  0  0  0  0  0  0  0
   20.3326   -6.5475  -14.4993 N   0  0  0  0  0  0  0  0  0  0  0  0
   19.7019   -4.2326  -14.2397 C   0  0  0  0  0  0  0  0  0  0  0  0
   18.9431   -4.2659  -15.2537 O   0  0  0  0  0  0  0  0  0  0  0  0
   19.4105   -3.2603  -13.3079 O   0  0  0  0  0  0  0  0  0  0  0  0
  2  1  1  6
  2  3  1  0
  4  8  1  0
  4  3  1  0
  5  4  2  0
  6  7  2  0
  6  2  1  0
  9  6  1  0
 10  9  1  0
 10 11  1  1
 12 11  1  0
 12 13  2  0
 14 13  1  0
 15 14  1  0
 16 15  2  0
 16 12  1  0
 17 10  1  0
 17 18  2  0
 20 19  1  0
 20 21  2  0
 22 20  1  0
 23 24  1  0
 23 22  1  6
 24 17  1  0
 25 23  1  0
 26 25  2  0
 27 25  1  0
M  END
$$$$
