QSS.pdb
     RDKit          3D

 22 21  0  0  1  0  0  0  0  0999 V2000
   14.9661  -14.5698   20.0339 N   0  0  0  0  0  0  0  0  0  0  0  0
   14.6805  -14.1575   18.7021 C   0  0  0  0  0  0  0  0  0  0  0  0
   15.5833  -13.5420   18.1043 O   0  0  0  0  0  0  0  0  0  0  0  0
   13.4035  -14.4412   18.0853 C   0  0  0  0  0  0  0  0  0  0  0  0
   13.1409  -15.7915   17.5551 C   0  0  0  0  0  0  0  0  0  0  0  0
   12.0190  -16.5739   18.1306 C   0  0  2  0  0  0  0  0  0  0  0  0
   10.7345  -16.3083   17.5651 N   0  0  0  0  0  0  0  0  0  0  0  0
   12.0380  -16.3212   19.6124 C   0  0  0  0  0  0  0  0  0  0  0  0
   13.1173  -16.4889   20.2574 O   0  0  0  0  0  0  0  0  0  0  0  0
    9.3053  -15.1212   23.4688 O   0  0  0  0  0  0  0  0  0  0  0  0
    9.4076  -15.5048   22.1310 C   0  0  0  0  0  0  0  0  0  0  0  0
   10.8561  -15.6756   21.7436 C   0  0  2  0  0  0  0  0  0  0  0  0
   10.9116  -15.9080   20.3134 N   0  0  0  0  0  0  0  0  0  0  0  0
   11.4463  -16.7399   22.5348 C   0  0  0  0  0  0  0  0  0  0  0  0
   11.1488  -17.9326   22.3304 O   0  0  0  0  0  0  0  0  0  0  0  0
   15.0230  -18.0656   25.4378 O   0  0  0  0  0  0  0  0  0  0  0  0
   14.4450  -17.0314   24.7153 C   0  0  0  0  0  0  0  0  0  0  0  0
   13.0209  -17.4333   24.3729 C   0  0  2  0  0  0  0  0  0  0  0  0
   12.3726  -16.4281   23.5535 N   0  0  0  0  0  0  0  0  0  0  0  0
   12.2910  -17.6593   25.6303 C   0  0  0  0  0  0  0  0  0  0  0  0
   12.6416  -18.7454   26.4167 O   0  0  0  0  0  0  0  0  0  0  0  0
   11.3772  -16.8454   25.9280 O   0  0  0  0  0  0  0  0  0  0  0  0
  1  2  1  0
  2  3  2  0
  4  2  1  0
  4  5  1  0
  6  5  1  0
  6  8  1  0
  6  7  1  6
  8  9  2  0
  8 13  1  0
 10 11  1  0
 12 11  1  1
 12 14  1  0
 13 12  1  0
 14 19  1  0
 14 15  2  0
 16 17  1  0
 18 17  1  1
 18 20  1  0
 19 18  1  0
 20 21  1  0
 22 20  2  0
M  END
$$$$
