QSS.pdb
     RDKit          3D

 22 21  0  0  1  0  0  0  0  0999 V2000
    7.0905  -12.7782   18.8936 N   0  0  0  0  0  0  0  0  0  0  0  0
    7.9152  -13.6254   18.1014 C   0  0  0  0  0  0  0  0  0  0  0  0
    7.9413  -13.3912   16.8784 O   0  0  0  0  0  0  0  0  0  0  0  0
    8.6771  -14.7015   18.6956 C   0  0  0  0  0  0  0  0  0  0  0  0
    8.6663  -14.8722   20.1599 C   0  0  0  0  0  0  0  0  0  0  0  0
    9.4031  -16.0193   20.7458 C   0  0  2  0  0  0  0  0  0  0  0  0
    9.2253  -17.2677   20.0747 N   0  0  0  0  0  0  0  0  0  0  0  0
    8.9907  -16.0994   22.1892 C   0  0  0  0  0  0  0  0  0  0  0  0
    7.8568  -15.6499   22.5372 O   0  0  0  0  0  0  0  0  0  0  0  0
    9.0920  -19.1223   24.5071 O   0  0  0  0  0  0  0  0  0  0  0  0
    9.9099  -18.1293   25.0479 C   0  0  0  0  0  0  0  0  0  0  0  0
    9.4654  -16.7675   24.5734 C   0  0  2  0  0  0  0  0  0  0  0  0
    9.8076  -16.6501   23.1692 N   0  0  0  0  0  0  0  0  0  0  0  0
   10.0635  -15.7441   25.4112 C   0  0  0  0  0  0  0  0  0  0  0  0
   11.2336  -15.3605   25.2197 O   0  0  0  0  0  0  0  0  0  0  0  0
    8.2964  -12.6204   26.5103 O   0  0  0  0  0  0  0  0  0  0  0  0
    8.8102  -13.1153   27.7006 C   0  0  0  0  0  0  0  0  0  0  0  0
    9.8514  -14.1685   27.3634 C   0  0  2  0  0  0  0  0  0  0  0  0
    9.3155  -15.1690   26.4612 N   0  0  0  0  0  0  0  0  0  0  0  0
   10.3220  -14.7704   28.6208 C   0  0  0  0  0  0  0  0  0  0  0  0
   10.9266  -13.9539   29.5634 O   0  0  0  0  0  0  0  0  0  0  0  0
   10.1484  -16.0082   28.7750 O   0  0  0  0  0  0  0  0  0  0  0  0
  1  2  1  0
  2  3  2  0
  4  2  1  0
  4  5  1  0
  6  5  1  0
  6  8  1  0
  6  7  1  6
  8  9  2  0
  8 13  1  0
 10 11  1  0
 12 11  1  1
 12 14  1  0
 13 12  1  0
 14 19  1  0
 14 15  2  0
 16 17  1  0
 18 17  1  1
 18 20  1  0
 19 18  1  0
 20 21  1  0
 22 20  2  0
M  END
$$$$
