QSS.pdb
     RDKit          3D

 22 21  0  0  1  0  0  0  0  0999 V2000
   11.4708  -21.2531   19.0593 N   0  0  0  0  0  0  0  0  0  0  0  0
   10.2705  -21.6310   18.3948 C   0  0  0  0  0  0  0  0  0  0  0  0
   10.3874  -22.4284   17.4452 O   0  0  0  0  0  0  0  0  0  0  0  0
    8.9868  -21.1080   18.8072 C   0  0  0  0  0  0  0  0  0  0  0  0
    8.9067  -20.2467   20.0010 C   0  0  0  0  0  0  0  0  0  0  0  0
    7.5710  -19.7884   20.4569 C   0  0  2  0  0  0  0  0  0  0  0  0
    6.8676  -18.9472   19.5416 N   0  0  0  0  0  0  0  0  0  0  0  0
    7.7808  -19.1143   21.7841 C   0  0  0  0  0  0  0  0  0  0  0  0
    8.3035  -17.9591   21.8184 O   0  0  0  0  0  0  0  0  0  0  0  0
    5.6498  -20.2926   24.9756 O   0  0  0  0  0  0  0  0  0  0  0  0
    6.2668  -19.0409   24.9738 C   0  0  0  0  0  0  0  0  0  0  0  0
    7.6145  -19.1214   24.2997 C   0  0  2  0  0  0  0  0  0  0  0  0
    7.4235  -19.7092   22.9880 N   0  0  0  0  0  0  0  0  0  0  0  0
    8.5352  -19.8589   25.1454 C   0  0  0  0  0  0  0  0  0  0  0  0
    8.8337  -21.0418   24.8909 O   0  0  0  0  0  0  0  0  0  0  0  0
    9.5335  -18.2007   28.7450 O   0  0  0  0  0  0  0  0  0  0  0  0
   10.5722  -18.9568   28.2204 C   0  0  0  0  0  0  0  0  0  0  0  0
    9.9873  -19.9192   27.2012 C   0  0  2  0  0  0  0  0  0  0  0  0
    9.1062  -19.2347   26.2755 N   0  0  0  0  0  0  0  0  0  0  0  0
    9.2840  -20.9881   27.9276 C   0  0  0  0  0  0  0  0  0  0  0  0
   10.0218  -21.8433   28.7307 O   0  0  0  0  0  0  0  0  0  0  0  0
    8.0360  -21.0696   27.7793 O   0  0  0  0  0  0  0  0  0  0  0  0
  1  2  1  0
  2  3  2  0
  4  2  1  0
  4  5  1  0
  6  5  1  0
  6  8  1  0
  6  7  1  6
  8  9  2  0
  8 13  1  0
 10 11  1  0
 12 11  1  1
 12 14  1  0
 13 12  1  0
 14 19  1  0
 14 15  2  0
 16 17  1  0
 18 17  1  1
 18 20  1  0
 19 18  1  0
 20 21  1  0
 22 20  2  0
M  END
$$$$
