QSS.pdb
     RDKit          3D

 22 21  0  0  1  0  0  0  0  0999 V2000
   10.9916  -20.9953   18.4657 N   0  0  0  0  0  0  0  0  0  0  0  0
   10.4816  -20.2599   17.3592 C   0  0  0  0  0  0  0  0  0  0  0  0
   10.1244  -20.9230   16.3673 O   0  0  0  0  0  0  0  0  0  0  0  0
   10.3899  -18.8170   17.3943 C   0  0  0  0  0  0  0  0  0  0  0  0
   10.8123  -18.0950   18.6082 C   0  0  0  0  0  0  0  0  0  0  0  0
    9.8385  -17.9418   19.7175 C   0  0  2  0  0  0  0  0  0  0  0  0
    8.7930  -16.9961   19.4875 N   0  0  0  0  0  0  0  0  0  0  0  0
   10.6383  -17.6004   20.9438 C   0  0  0  0  0  0  0  0  0  0  0  0
   11.9049  -17.5912   20.8767 O   0  0  0  0  0  0  0  0  0  0  0  0
    8.6861  -16.2001   24.2860 O   0  0  0  0  0  0  0  0  0  0  0  0
   10.0166  -15.8419   24.0648 C   0  0  0  0  0  0  0  0  0  0  0  0
   10.7557  -16.9658   23.3808 C   0  0  2  0  0  0  0  0  0  0  0  0
   10.0430  -17.2919   22.1608 N   0  0  0  0  0  0  0  0  0  0  0  0
   10.8929  -18.0830   24.2973 C   0  0  0  0  0  0  0  0  0  0  0  0
    9.9988  -18.9454   24.3969 O   0  0  0  0  0  0  0  0  0  0  0  0
   13.8785  -20.5949   27.1317 O   0  0  0  0  0  0  0  0  0  0  0  0
   13.7284  -19.4268   26.3977 C   0  0  0  0  0  0  0  0  0  0  0  0
   12.2594  -19.2787   26.0414 C   0  0  2  0  0  0  0  0  0  0  0  0
   12.0537  -18.2027   25.0917 N   0  0  0  0  0  0  0  0  0  0  0  0
   11.5041  -19.0553   27.2841 C   0  0  0  0  0  0  0  0  0  0  0  0
   11.3779  -20.1026   28.1830 O   0  0  0  0  0  0  0  0  0  0  0  0
   11.0074  -17.9124   27.4666 O   0  0  0  0  0  0  0  0  0  0  0  0
  1  2  1  0
  2  3  2  0
  4  2  1  0
  4  5  1  0
  6  5  1  0
  6  8  1  0
  6  7  1  6
  8  9  2  0
  8 13  1  0
 10 11  1  0
 12 11  1  1
 12 14  1  0
 13 12  1  0
 14 19  1  0
 14 15  2  0
 16 17  1  0
 18 17  1  1
 18 20  1  0
 19 18  1  0
 20 21  1  0
 22 20  2  0
M  END
$$$$
