YFS.pdb
     RDKit          3D

 30 31  0  0  1  0  0  0  0  0999 V2000
    3.7425  -24.9779   24.4356 O   0  0  0  0  0  0  0  0  0  0  0  0
    4.5658  -23.8503   24.3712 C   0  0  0  0  0  0  0  0  0  0  0  0
    4.0391  -22.5902   24.1787 C   0  0  0  0  0  0  0  0  0  0  0  0
    4.8568  -21.4805   24.1160 C   0  0  0  0  0  0  0  0  0  0  0  0
    6.2321  -21.5728   24.2413 C   0  0  0  0  0  0  0  0  0  0  0  0
    7.0885  -20.3575   24.1694 C   0  0  0  0  0  0  0  0  0  0  0  0
    6.5978  -19.3743   23.1310 C   0  0  2  0  0  0  0  0  0  0  0  0
    6.9393  -19.7467   21.7920 N   0  0  0  0  0  0  0  0  0  0  0  0
    7.1230  -18.0368   23.5085 C   0  0  0  0  0  0  0  0  0  0  0  0
    8.2460  -17.7024   23.0559 O   0  0  0  0  0  0  0  0  0  0  0  0
    6.7503  -22.8376   24.4336 C   0  0  0  0  0  0  0  0  0  0  0  0
    5.9356  -23.9506   24.4970 C   0  0  0  0  0  0  0  0  0  0  0  0
    6.4346  -17.1254   24.3430 N   0  0  0  0  0  0  0  0  0  0  0  0
    7.1051  -15.9771   24.8563 C   0  0  1  0  0  0  0  0  0  0  0  0
    6.1523  -14.9747   25.4716 C   0  0  0  0  0  0  0  0  0  0  0  0
    6.8256  -13.7758   25.9939 C   0  0  0  0  0  0  0  0  0  0  0  0
    6.9714  -13.5297   27.3393 C   0  0  0  0  0  0  0  0  0  0  0  0
    7.6130  -12.3861   27.8088 C   0  0  0  0  0  0  0  0  0  0  0  0
    8.1285  -11.4534   26.9341 C   0  0  0  0  0  0  0  0  0  0  0  0
    7.9872  -11.6914   25.5895 C   0  0  0  0  0  0  0  0  0  0  0  0
    7.3522  -12.8234   25.1466 C   0  0  0  0  0  0  0  0  0  0  0  0
    8.2151  -16.3735   25.7221 C   0  0  0  0  0  0  0  0  0  0  0  0
    8.1030  -17.1939   26.6895 O   0  0  0  0  0  0  0  0  0  0  0  0
   11.5120  -15.5948   24.1607 O   0  0  0  0  0  0  0  0  0  0  0  0
   11.9133  -15.8870   25.4574 C   0  0  0  0  0  0  0  0  0  0  0  0
   10.6614  -16.2923   26.2317 C   0  0  2  0  0  0  0  0  0  0  0  0
    9.5062  -15.8356   25.5007 N   0  0  0  0  0  0  0  0  0  0  0  0
   10.7233  -15.5694   27.5180 C   0  0  0  0  0  0  0  0  0  0  0  0
    9.8842  -14.6976   27.8472 O   0  0  0  0  0  0  0  0  0  0  0  0
   11.7481  -15.8596   28.4051 O   0  0  0  0  0  0  0  0  0  0  0  0
  2  3  2  0
  2  1  1  0
  4  3  1  0
  5  4  2  0
  6  5  1  0
  7  6  1  0
  7  8  1  6
  9  7  1  0
  9 10  2  0
 11  5  1  0
 11 12  2  0
 12  2  1  0
 13  9  1  0
 14 13  1  0
 14 15  1  1
 16 15  1  0
 16 17  2  0
 18 17  1  0
 19 18  2  0
 20 21  2  0
 20 19  1  0
 21 16  1  0
 22 14  1  0
 23 22  2  0
 25 24  1  0
 26 25  1  6
 26 27  1  0
 27 22  1  0
 28 26  1  0
 28 30  1  0
 29 28  2  0
M  END
$$$$
