YFS.pdb
     RDKit          3D

 30 31  0  0  1  0  0  0  0  0999 V2000
    7.3383  -14.0154   14.7174 O   0  0  0  0  0  0  0  0  0  0  0  0
    7.7402  -14.0546   16.0554 C   0  0  0  0  0  0  0  0  0  0  0  0
    7.2818  -13.1272   16.9675 C   0  0  0  0  0  0  0  0  0  0  0  0
    7.6820  -13.1708   18.2872 C   0  0  0  0  0  0  0  0  0  0  0  0
    8.5542  -14.1362   18.7593 C   0  0  0  0  0  0  0  0  0  0  0  0
    8.9681  -14.1578   20.1889 C   0  0  0  0  0  0  0  0  0  0  0  0
    8.8655  -15.5404   20.7918 C   0  0  2  0  0  0  0  0  0  0  0  0
    7.6102  -16.1785   20.5361 N   0  0  0  0  0  0  0  0  0  0  0  0
    9.1610  -15.4112   22.2420 C   0  0  0  0  0  0  0  0  0  0  0  0
   10.3031  -15.0040   22.5703 O   0  0  0  0  0  0  0  0  0  0  0  0
    9.0079  -15.0602   17.8396 C   0  0  0  0  0  0  0  0  0  0  0  0
    8.6099  -15.0200   16.5181 C   0  0  0  0  0  0  0  0  0  0  0  0
    8.2353  -15.7185   23.2665 N   0  0  0  0  0  0  0  0  0  0  0  0
    8.5761  -15.4912   24.6317 C   0  0  1  0  0  0  0  0  0  0  0  0
    7.4607  -14.8210   25.4051 C   0  0  0  0  0  0  0  0  0  0  0  0
    7.9101  -14.2139   26.6672 C   0  0  0  0  0  0  0  0  0  0  0  0
    8.3743  -14.9567   27.7277 C   0  0  0  0  0  0  0  0  0  0  0  0
    8.7939  -14.3575   28.9129 C   0  0  0  0  0  0  0  0  0  0  0  0
    8.7583  -12.9879   29.0657 C   0  0  0  0  0  0  0  0  0  0  0  0
    8.2963  -12.2389   28.0119 C   0  0  0  0  0  0  0  0  0  0  0  0
    7.8875  -12.8473   26.8528 C   0  0  0  0  0  0  0  0  0  0  0  0
    9.0922  -16.7150   25.2440 C   0  0  0  0  0  0  0  0  0  0  0  0
    8.4024  -17.7729   25.4068 O   0  0  0  0  0  0  0  0  0  0  0  0
   13.0887  -17.0183   25.7946 O   0  0  0  0  0  0  0  0  0  0  0  0
   12.3680  -18.1999   25.6841 C   0  0  0  0  0  0  0  0  0  0  0  0
   10.9949  -17.9450   26.3011 C   0  0  2  0  0  0  0  0  0  0  0  0
   10.4345  -16.7647   25.6926 N   0  0  0  0  0  0  0  0  0  0  0  0
   11.2334  -17.6712   27.7326 C   0  0  0  0  0  0  0  0  0  0  0  0
   10.9907  -16.5599   28.2603 O   0  0  0  0  0  0  0  0  0  0  0  0
   11.7466  -18.6785   28.5346 O   0  0  0  0  0  0  0  0  0  0  0  0
  2  3  2  0
  2  1  1  0
  4  3  1  0
  5  4  2  0
  6  5  1  0
  7  6  1  0
  7  8  1  1
  9  7  1  0
  9 10  2  0
 11  5  1  0
 11 12  2  0
 12  2  1  0
 13  9  1  0
 14 13  1  0
 14 15  1  1
 16 15  1  0
 16 17  2  0
 18 17  1  0
 19 18  2  0
 20 21  2  0
 20 19  1  0
 21 16  1  0
 22 14  1  0
 23 22  2  0
 25 24  1  0
 26 25  1  6
 26 27  1  0
 27 22  1  0
 28 26  1  0
 28 30  1  0
 29 28  2  0
M  END
$$$$
