YFS.pdb
     RDKit          3D

 30 31  0  0  1  0  0  0  0  0999 V2000
    2.0725  -19.5856   19.1775 O   0  0  0  0  0  0  0  0  0  0  0  0
    3.2894  -19.3350   19.8176 C   0  0  0  0  0  0  0  0  0  0  0  0
    4.3834  -20.1511   19.6192 C   0  0  0  0  0  0  0  0  0  0  0  0
    5.5823  -19.8987   20.2538 C   0  0  0  0  0  0  0  0  0  0  0  0
    5.7479  -18.8260   21.1125 C   0  0  0  0  0  0  0  0  0  0  0  0
    7.0538  -18.5791   21.7829 C   0  0  0  0  0  0  0  0  0  0  0  0
    7.7396  -17.3386   21.2571 C   0  0  2  0  0  0  0  0  0  0  0  0
    8.5984  -17.5957   20.1414 N   0  0  0  0  0  0  0  0  0  0  0  0
    8.4523  -16.7119   22.4001 C   0  0  0  0  0  0  0  0  0  0  0  0
    9.6989  -16.8547   22.4589 O   0  0  0  0  0  0  0  0  0  0  0  0
    4.6479  -18.0146   21.3051 C   0  0  0  0  0  0  0  0  0  0  0  0
    3.4464  -18.2637   20.6720 C   0  0  0  0  0  0  0  0  0  0  0  0
    7.8108  -15.9688   23.4184 N   0  0  0  0  0  0  0  0  0  0  0  0
    8.5249  -15.6033   24.5966 C   0  0  1  0  0  0  0  0  0  0  0  0
    7.8533  -14.4807   25.3583 C   0  0  0  0  0  0  0  0  0  0  0  0
    8.5145  -14.1651   26.6338 C   0  0  0  0  0  0  0  0  0  0  0  0
    9.5211  -13.2340   26.7408 C   0  0  0  0  0  0  0  0  0  0  0  0
   10.1318  -12.9533   27.9608 C   0  0  0  0  0  0  0  0  0  0  0  0
    9.7453  -13.6044   29.1128 C   0  0  0  0  0  0  0  0  0  0  0  0
    8.7411  -14.5354   29.0147 C   0  0  0  0  0  0  0  0  0  0  0  0
    8.1519  -14.7979   27.8044 C   0  0  0  0  0  0  0  0  0  0  0  0
    8.8321  -16.7861   25.4001 C   0  0  0  0  0  0  0  0  0  0  0  0
    7.9478  -17.5359   25.9268 O   0  0  0  0  0  0  0  0  0  0  0  0
   12.2598  -18.6165   24.8341 O   0  0  0  0  0  0  0  0  0  0  0  0
   11.2434  -19.3082   25.4793 C   0  0  0  0  0  0  0  0  0  0  0  0
   10.5405  -18.3133   26.3998 C   0  0  2  0  0  0  0  0  0  0  0  0
   10.1814  -17.1520   25.6254 N   0  0  0  0  0  0  0  0  0  0  0  0
   11.5392  -17.9161   27.4127 C   0  0  0  0  0  0  0  0  0  0  0  0
   12.0148  -18.7210   28.2483 O   0  0  0  0  0  0  0  0  0  0  0  0
   11.9752  -16.6008   27.4490 O   0  0  0  0  0  0  0  0  0  0  0  0
  2  3  2  0
  2  1  1  0
  4  3  1  0
  5  4  2  0
  6  5  1  0
  7  6  1  0
  7  8  1  6
  9  7  1  0
  9 10  2  0
 11  5  1  0
 11 12  2  0
 12  2  1  0
 13  9  1  0
 14 13  1  0
 14 15  1  1
 16 15  1  0
 16 17  2  0
 18 17  1  0
 19 18  2  0
 20 21  2  0
 20 19  1  0
 21 16  1  0
 22 14  1  0
 23 22  2  0
 25 24  1  0
 26 25  1  6
 26 27  1  0
 27 22  1  0
 28 26  1  0
 28 30  1  0
 29 28  2  0
M  END
$$$$
