YFS.pdb
     RDKit          3D

 30 31  0  0  1  0  0  0  0  0999 V2000
    6.3173  -24.4397   29.4876 O   0  0  0  0  0  0  0  0  0  0  0  0
    6.6405  -23.4843   28.5201 C   0  0  0  0  0  0  0  0  0  0  0  0
    7.5882  -23.7398   27.5511 C   0  0  0  0  0  0  0  0  0  0  0  0
    7.9032  -22.7928   26.5984 C   0  0  0  0  0  0  0  0  0  0  0  0
    7.2919  -21.5515   26.5656 C   0  0  0  0  0  0  0  0  0  0  0  0
    7.6528  -20.5500   25.5252 C   0  0  0  0  0  0  0  0  0  0  0  0
    6.4603  -20.1370   24.6928 C   0  0  2  0  0  0  0  0  0  0  0  0
    6.2903  -20.9301   23.5136 N   0  0  0  0  0  0  0  0  0  0  0  0
    6.6108  -18.6891   24.3962 C   0  0  0  0  0  0  0  0  0  0  0  0
    7.0419  -18.3683   23.2607 O   0  0  0  0  0  0  0  0  0  0  0  0
    6.3449  -21.3045   27.5390 C   0  0  0  0  0  0  0  0  0  0  0  0
    6.0267  -22.2494   28.4941 C   0  0  0  0  0  0  0  0  0  0  0  0
    6.2984  -17.6588   25.3137 N   0  0  0  0  0  0  0  0  0  0  0  0
    6.8783  -16.3655   25.1634 C   0  0  1  0  0  0  0  0  0  0  0  0
    6.2522  -15.3377   26.0815 C   0  0  0  0  0  0  0  0  0  0  0  0
    6.8532  -14.0012   25.9556 C   0  0  0  0  0  0  0  0  0  0  0  0
    6.6422  -13.1889   24.8659 C   0  0  0  0  0  0  0  0  0  0  0  0
    7.2235  -11.9268   24.7703 C   0  0  0  0  0  0  0  0  0  0  0  0
    8.0373  -11.4439   25.7728 C   0  0  0  0  0  0  0  0  0  0  0  0
    8.2531  -12.2483   26.8642 C   0  0  0  0  0  0  0  0  0  0  0  0
    7.6718  -13.4881   26.9400 C   0  0  0  0  0  0  0  0  0  0  0  0
    8.3367  -16.4433   25.2406 C   0  0  0  0  0  0  0  0  0  0  0  0
    8.9715  -16.8877   26.2511 O   0  0  0  0  0  0  0  0  0  0  0  0
   10.3039  -15.1107   22.0438 O   0  0  0  0  0  0  0  0  0  0  0  0
   10.9277  -16.2352   22.5672 C   0  0  0  0  0  0  0  0  0  0  0  0
   10.5250  -16.3259   24.0372 C   0  0  2  0  0  0  0  0  0  0  0  0
    9.1229  -16.0101   24.1453 N   0  0  0  0  0  0  0  0  0  0  0  0
   11.3002  -15.2833   24.7394 C   0  0  0  0  0  0  0  0  0  0  0  0
   10.7586  -14.3404   25.3638 O   0  0  0  0  0  0  0  0  0  0  0  0
   12.6849  -15.3409   24.7128 O   0  0  0  0  0  0  0  0  0  0  0  0
  2  3  2  0
  2  1  1  0
  4  3  1  0
  5  4  2  0
  6  5  1  0
  7  6  1  0
  7  8  1  6
  9  7  1  0
  9 10  2  0
 11  5  1  0
 11 12  2  0
 12  2  1  0
 13  9  1  0
 14 13  1  0
 14 15  1  1
 16 15  1  0
 16 17  2  0
 18 17  1  0
 19 18  2  0
 20 21  2  0
 20 19  1  0
 21 16  1  0
 22 14  1  0
 23 22  2  0
 25 24  1  0
 26 25  1  6
 26 27  1  0
 27 22  1  0
 28 26  1  0
 28 30  1  0
 29 28  2  0
M  END
$$$$
