YFS.pdb
     RDKit          3D

 30 31  0  0  1  0  0  0  0  0999 V2000
    8.6215  -19.1187   15.8281 O   0  0  0  0  0  0  0  0  0  0  0  0
    8.8306  -18.8064   17.1742 C   0  0  0  0  0  0  0  0  0  0  0  0
    7.9912  -19.2852   18.1583 C   0  0  0  0  0  0  0  0  0  0  0  0
    8.2026  -18.9736   19.4857 C   0  0  0  0  0  0  0  0  0  0  0  0
    9.2556  -18.1736   19.8943 C   0  0  0  0  0  0  0  0  0  0  0  0
    9.4582  -17.8547   21.3341 C   0  0  0  0  0  0  0  0  0  0  0  0
    9.2370  -16.3888   21.6304 C   0  0  2  0  0  0  0  0  0  0  0  0
   10.1172  -15.5248   20.9044 N   0  0  0  0  0  0  0  0  0  0  0  0
    9.3448  -16.2161   23.1020 C   0  0  0  0  0  0  0  0  0  0  0  0
   10.4902  -16.0362   23.5855 O   0  0  0  0  0  0  0  0  0  0  0  0
   10.0905  -17.6990   18.9028 C   0  0  0  0  0  0  0  0  0  0  0  0
    9.8824  -18.0085   17.5734 C   0  0  0  0  0  0  0  0  0  0  0  0
    8.2384  -16.2425   23.9829 N   0  0  0  0  0  0  0  0  0  0  0  0
    8.4427  -16.1710   25.3918 C   0  0  1  0  0  0  0  0  0  0  0  0
    7.2355  -15.6290   26.1270 C   0  0  0  0  0  0  0  0  0  0  0  0
    7.1543  -14.1605   26.1102 C   0  0  0  0  0  0  0  0  0  0  0  0
    8.2590  -13.3516   26.2409 C   0  0  0  0  0  0  0  0  0  0  0  0
    8.1555  -11.9627   26.2222 C   0  0  0  0  0  0  0  0  0  0  0  0
    6.9322  -11.3455   26.0708 C   0  0  0  0  0  0  0  0  0  0  0  0
    5.8243  -12.1456   25.9397 C   0  0  0  0  0  0  0  0  0  0  0  0
    5.9465  -13.5114   25.9606 C   0  0  0  0  0  0  0  0  0  0  0  0
    8.9467  -17.4448   25.9041 C   0  0  0  0  0  0  0  0  0  0  0  0
    8.2948  -18.5375   25.8553 O   0  0  0  0  0  0  0  0  0  0  0  0
   12.8482  -17.9008   26.3514 O   0  0  0  0  0  0  0  0  0  0  0  0
   12.0713  -19.0512   26.3215 C   0  0  0  0  0  0  0  0  0  0  0  0
   10.7655  -18.7272   27.0433 C   0  0  2  0  0  0  0  0  0  0  0  0
   10.2326  -17.5059   26.4940 N   0  0  0  0  0  0  0  0  0  0  0  0
   11.1257  -18.4928   28.4562 C   0  0  0  0  0  0  0  0  0  0  0  0
   10.9504  -17.3901   29.0269 O   0  0  0  0  0  0  0  0  0  0  0  0
   11.6812  -19.5289   29.1905 O   0  0  0  0  0  0  0  0  0  0  0  0
  2  3  2  0
  2  1  1  0
  4  3  1  0
  5  4  2  0
  6  5  1  0
  7  6  1  0
  7  8  1  6
  9  7  1  0
  9 10  2  0
 11  5  1  0
 11 12  2  0
 12  2  1  0
 13  9  1  0
 14 13  1  0
 14 15  1  1
 16 15  1  0
 16 17  2  0
 18 17  1  0
 19 18  2  0
 20 21  2  0
 20 19  1  0
 21 16  1  0
 22 14  1  0
 23 22  2  0
 25 24  1  0
 26 25  1  6
 26 27  1  0
 27 22  1  0
 28 26  1  0
 28 30  1  0
 29 28  2  0
M  END
$$$$
