YFS.pdb
     RDKit          3D

 30 31  0  0  1  0  0  0  0  0999 V2000
    8.1548  -13.2432   15.7948 O   0  0  0  0  0  0  0  0  0  0  0  0
    8.3498  -13.4768   17.1589 C   0  0  0  0  0  0  0  0  0  0  0  0
    7.6265  -12.7915   18.1125 C   0  0  0  0  0  0  0  0  0  0  0  0
    7.8233  -13.0263   19.4578 C   0  0  0  0  0  0  0  0  0  0  0  0
    8.7461  -13.9509   19.9154 C   0  0  0  0  0  0  0  0  0  0  0  0
    8.9363  -14.1825   21.3734 C   0  0  0  0  0  0  0  0  0  0  0  0
    8.5930  -15.5988   21.7758 C   0  0  2  0  0  0  0  0  0  0  0  0
    7.2907  -16.0097   21.3473 N   0  0  0  0  0  0  0  0  0  0  0  0
    8.7716  -15.6937   23.2476 C   0  0  0  0  0  0  0  0  0  0  0  0
    9.9019  -15.4109   23.7171 O   0  0  0  0  0  0  0  0  0  0  0  0
    9.4654  -14.6320   18.9541 C   0  0  0  0  0  0  0  0  0  0  0  0
    9.2714  -14.4000   17.6069 C   0  0  0  0  0  0  0  0  0  0  0  0
    7.7481  -16.0819   24.1434 N   0  0  0  0  0  0  0  0  0  0  0  0
    8.0305  -16.2310   25.5325 C   0  0  1  0  0  0  0  0  0  0  0  0
    6.9121  -15.7131   26.4115 C   0  0  0  0  0  0  0  0  0  0  0  0
    6.8610  -14.2449   26.4847 C   0  0  0  0  0  0  0  0  0  0  0  0
    5.8008  -13.5115   26.0054 C   0  0  0  0  0  0  0  0  0  0  0  0
    5.7765  -12.1212   26.0862 C   0  0  0  0  0  0  0  0  0  0  0  0
    6.8230  -11.4263   26.6541 C   0  0  0  0  0  0  0  0  0  0  0  0
    7.8853  -12.1508   27.1350 C   0  0  0  0  0  0  0  0  0  0  0  0
    7.8908  -13.5193   27.0463 C   0  0  0  0  0  0  0  0  0  0  0  0
    8.4535  -17.5995   25.8278 C   0  0  0  0  0  0  0  0  0  0  0  0
    7.6819  -18.6105   25.7639 O   0  0  0  0  0  0  0  0  0  0  0  0
   12.2867  -18.3597   25.7941 O   0  0  0  0  0  0  0  0  0  0  0  0
   11.5025  -19.5052   25.8174 C   0  0  0  0  0  0  0  0  0  0  0  0
   10.2398  -19.1661   26.6059 C   0  0  2  0  0  0  0  0  0  0  0  0
    9.7934  -17.8546   26.2084 N   0  0  0  0  0  0  0  0  0  0  0  0
   10.6438  -19.1181   28.0256 C   0  0  0  0  0  0  0  0  0  0  0  0
   10.5194  -18.0894   28.7317 O   0  0  0  0  0  0  0  0  0  0  0  0
   11.1840  -20.2525   28.6108 O   0  0  0  0  0  0  0  0  0  0  0  0
  2  3  2  0
  2  1  1  0
  4  3  1  0
  5  4  2  0
  6  5  1  0
  7  6  1  0
  7  8  1  1
  9  7  1  0
  9 10  2  0
 11  5  1  0
 11 12  2  0
 12  2  1  0
 13  9  1  0
 14 13  1  0
 14 15  1  1
 16 15  1  0
 16 17  2  0
 18 17  1  0
 19 18  2  0
 20 21  2  0
 20 19  1  0
 21 16  1  0
 22 14  1  0
 23 22  2  0
 25 24  1  0
 26 25  1  6
 26 27  1  0
 27 22  1  0
 28 26  1  0
 28 30  1  0
 29 28  2  0
M  END
$$$$
