YFS.pdb
     RDKit          3D

 30 31  0  0  1  0  0  0  0  0999 V2000
    7.6865  -14.2967   14.1713 O   0  0  0  0  0  0  0  0  0  0  0  0
    8.1276  -14.2745   15.4973 C   0  0  0  0  0  0  0  0  0  0  0  0
    8.9315  -15.2759   16.0006 C   0  0  0  0  0  0  0  0  0  0  0  0
    9.3641  -15.2487   17.3105 C   0  0  0  0  0  0  0  0  0  0  0  0
    9.0179  -14.2272   18.1779 C   0  0  0  0  0  0  0  0  0  0  0  0
    9.5000  -14.2251   19.5861 C   0  0  0  0  0  0  0  0  0  0  0  0
    9.3293  -15.5728   20.2497 C   0  0  2  0  0  0  0  0  0  0  0  0
    8.1877  -16.2959   19.7783 N   0  0  0  0  0  0  0  0  0  0  0  0
    9.2982  -15.3402   21.7167 C   0  0  0  0  0  0  0  0  0  0  0  0
   10.3580  -14.9516   22.2679 O   0  0  0  0  0  0  0  0  0  0  0  0
    8.2132  -13.2294   17.6657 C   0  0  0  0  0  0  0  0  0  0  0  0
    7.7783  -13.2529   16.3555 C   0  0  0  0  0  0  0  0  0  0  0  0
    8.1509  -15.5304   22.5218 N   0  0  0  0  0  0  0  0  0  0  0  0
    8.1393  -15.0732   23.8718 C   0  0  1  0  0  0  0  0  0  0  0  0
    7.0832  -14.0171   24.1185 C   0  0  0  0  0  0  0  0  0  0  0  0
    7.0903  -13.4964   25.4941 C   0  0  0  0  0  0  0  0  0  0  0  0
    6.2549  -13.9752   26.4763 C   0  0  0  0  0  0  0  0  0  0  0  0
    6.2807  -13.4647   27.7720 C   0  0  0  0  0  0  0  0  0  0  0  0
    7.1518  -12.4536   28.1178 C   0  0  0  0  0  0  0  0  0  0  0  0
    7.9891  -11.9701   27.1433 C   0  0  0  0  0  0  0  0  0  0  0  0
    7.9488  -12.4856   25.8731 C   0  0  0  0  0  0  0  0  0  0  0  0
    8.0977  -16.2043   24.7979 C   0  0  0  0  0  0  0  0  0  0  0  0
    7.0993  -16.9851   24.9206 O   0  0  0  0  0  0  0  0  0  0  0  0
   11.1126  -18.1746   25.2736 O   0  0  0  0  0  0  0  0  0  0  0  0
   10.0125  -18.7343   25.9094 C   0  0  0  0  0  0  0  0  0  0  0  0
    9.2322  -17.5863   26.5454 C   0  0  2  0  0  0  0  0  0  0  0  0
    9.2161  -16.4802   25.6215 N   0  0  0  0  0  0  0  0  0  0  0  0
    9.9943  -17.1887   27.7462 C   0  0  0  0  0  0  0  0  0  0  0  0
   10.4967  -16.0481   27.8838 O   0  0  0  0  0  0  0  0  0  0  0  0
   10.1667  -18.1077   28.7694 O   0  0  0  0  0  0  0  0  0  0  0  0
  2  3  2  0
  2  1  1  0
  4  3  1  0
  5  4  2  0
  6  5  1  0
  7  6  1  0
  7  8  1  6
  9  7  1  0
  9 10  2  0
 11  5  1  0
 11 12  2  0
 12  2  1  0
 13  9  1  0
 14 13  1  0
 14 15  1  6
 16 15  1  0
 16 17  2  0
 18 17  1  0
 19 18  2  0
 20 21  2  0
 20 19  1  0
 21 16  1  0
 22 14  1  0
 23 22  2  0
 25 24  1  0
 26 25  1  6
 26 27  1  0
 27 22  1  0
 28 26  1  0
 28 30  1  0
 29 28  2  0
M  END
$$$$
