YFS.pdb
     RDKit          3D

 30 31  0  0  1  0  0  0  0  0999 V2000
    6.6917  -19.4397   14.7281 O   0  0  0  0  0  0  0  0  0  0  0  0
    7.1228  -19.0232   15.9906 C   0  0  0  0  0  0  0  0  0  0  0  0
    8.4619  -19.0088   16.3205 C   0  0  0  0  0  0  0  0  0  0  0  0
    8.8816  -18.5966   17.5686 C   0  0  0  0  0  0  0  0  0  0  0  0
    7.9913  -18.1809   18.5434 C   0  0  0  0  0  0  0  0  0  0  0  0
    8.4742  -17.7416   19.8811 C   0  0  0  0  0  0  0  0  0  0  0  0
    9.0567  -16.3469   19.8478 C   0  0  2  0  0  0  0  0  0  0  0  0
   10.3311  -16.2803   19.2000 N   0  0  0  0  0  0  0  0  0  0  0  0
    9.0960  -15.8528   21.2483 C   0  0  0  0  0  0  0  0  0  0  0  0
   10.1302  -16.0892   21.9210 O   0  0  0  0  0  0  0  0  0  0  0  0
    6.6533  -18.1985   18.2046 C   0  0  0  0  0  0  0  0  0  0  0  0
    6.2292  -18.6103   16.9568 C   0  0  0  0  0  0  0  0  0  0  0  0
    8.0422  -15.1364   21.8624 N   0  0  0  0  0  0  0  0  0  0  0  0
    8.1858  -14.6539   23.1959 C   0  0  1  0  0  0  0  0  0  0  0  0
    7.2664  -13.4889   23.4943 C   0  0  0  0  0  0  0  0  0  0  0  0
    7.3472  -13.0253   24.8879 C   0  0  0  0  0  0  0  0  0  0  0  0
    8.3224  -12.1623   25.3307 C   0  0  0  0  0  0  0  0  0  0  0  0
    8.3775  -11.7382   26.6562 C   0  0  0  0  0  0  0  0  0  0  0  0
    7.4488  -12.1723   27.5780 C   0  0  0  0  0  0  0  0  0  0  0  0
    6.4719  -13.0339   27.1443 C   0  0  0  0  0  0  0  0  0  0  0  0
    6.4343  -13.4401   25.8349 C   0  0  0  0  0  0  0  0  0  0  0  0
    8.1032  -15.7560   24.1537 C   0  0  0  0  0  0  0  0  0  0  0  0
    7.0685  -16.4806   24.3148 O   0  0  0  0  0  0  0  0  0  0  0  0
   11.1874  -17.7408   24.8915 O   0  0  0  0  0  0  0  0  0  0  0  0
   10.0300  -18.2869   25.4300 C   0  0  0  0  0  0  0  0  0  0  0  0
    9.1851  -17.1241   25.9449 C   0  0  2  0  0  0  0  0  0  0  0  0
    9.2208  -16.0669   24.9659 N   0  0  0  0  0  0  0  0  0  0  0  0
    9.8475  -16.6504   27.1769 C   0  0  0  0  0  0  0  0  0  0  0  0
   10.3452  -15.5042   27.2816 O   0  0  0  0  0  0  0  0  0  0  0  0
    9.9274  -17.5009   28.2684 O   0  0  0  0  0  0  0  0  0  0  0  0
  2  3  2  0
  2  1  1  0
  4  3  1  0
  5  4  2  0
  6  5  1  0
  7  6  1  0
  7  8  1  1
  9  7  1  0
  9 10  2  0
 11  5  1  0
 11 12  2  0
 12  2  1  0
 13  9  1  0
 14 13  1  0
 14 15  1  1
 16 15  1  0
 16 17  2  0
 18 17  1  0
 19 18  2  0
 20 21  2  0
 20 19  1  0
 21 16  1  0
 22 14  1  0
 23 22  2  0
 25 24  1  0
 26 25  1  6
 26 27  1  0
 27 22  1  0
 28 26  1  0
 28 30  1  0
 29 28  2  0
M  END
$$$$
