YFS.pdb
     RDKit          3D

 30 31  0  0  1  0  0  0  0  0999 V2000
    8.1903  -20.9945   16.1257 O   0  0  0  0  0  0  0  0  0  0  0  0
    8.4202  -20.3077   17.3209 C   0  0  0  0  0  0  0  0  0  0  0  0
    8.7575  -18.9703   17.3240 C   0  0  0  0  0  0  0  0  0  0  0  0
    8.9833  -18.2974   18.5071 C   0  0  0  0  0  0  0  0  0  0  0  0
    8.8843  -18.9217   19.7384 C   0  0  0  0  0  0  0  0  0  0  0  0
    9.1338  -18.1693   20.9982 C   0  0  0  0  0  0  0  0  0  0  0  0
    9.4089  -16.7048   20.7433 C   0  0  2  0  0  0  0  0  0  0  0  0
   10.6186  -16.4739   20.0141 N   0  0  0  0  0  0  0  0  0  0  0  0
    9.3903  -16.0177   22.0604 C   0  0  0  0  0  0  0  0  0  0  0  0
   10.4932  -15.8067   22.6234 O   0  0  0  0  0  0  0  0  0  0  0  0
    8.5464  -20.2600   19.7258 C   0  0  0  0  0  0  0  0  0  0  0  0
    8.3196  -20.9371   18.5441 C   0  0  0  0  0  0  0  0  0  0  0  0
    8.2092  -15.5909   22.7113 N   0  0  0  0  0  0  0  0  0  0  0  0
    8.2862  -14.9092   23.9607 C   0  0  1  0  0  0  0  0  0  0  0  0
    7.2426  -13.8209   24.0939 C   0  0  0  0  0  0  0  0  0  0  0  0
    7.2343  -13.1808   25.4183 C   0  0  0  0  0  0  0  0  0  0  0  0
    8.0928  -13.5475   26.4284 C   0  0  0  0  0  0  0  0  0  0  0  0
    8.0647  -12.9258   27.6745 C   0  0  0  0  0  0  0  0  0  0  0  0
    7.1681  -11.9130   27.9408 C   0  0  0  0  0  0  0  0  0  0  0  0
    6.3075  -11.5409   26.9380 C   0  0  0  0  0  0  0  0  0  0  0  0
    6.3505  -12.1651   25.7175 C   0  0  0  0  0  0  0  0  0  0  0  0
    8.3146  -15.8648   25.0675 C   0  0  0  0  0  0  0  0  0  0  0  0
    7.2921  -16.4990   25.4843 O   0  0  0  0  0  0  0  0  0  0  0  0
   11.3729  -17.9745   25.4326 O   0  0  0  0  0  0  0  0  0  0  0  0
   10.2625  -18.3842   26.1584 C   0  0  0  0  0  0  0  0  0  0  0  0
    9.6399  -17.1305   26.7681 C   0  0  2  0  0  0  0  0  0  0  0  0
    9.5338  -16.1280   25.7380 N   0  0  0  0  0  0  0  0  0  0  0  0
   10.5922  -16.6569   27.7927 C   0  0  0  0  0  0  0  0  0  0  0  0
   11.1720  -15.5475   27.7187 O   0  0  0  0  0  0  0  0  0  0  0  0
   10.8630  -17.4654   28.8855 O   0  0  0  0  0  0  0  0  0  0  0  0
  2  3  2  0
  2  1  1  0
  4  3  1  0
  5  4  2  0
  6  5  1  0
  7  6  1  0
  7  8  1  1
  9  7  1  0
  9 10  2  0
 11  5  1  0
 11 12  2  0
 12  2  1  0
 13  9  1  0
 14 13  1  0
 14 15  1  1
 16 15  1  0
 16 17  2  0
 18 17  1  0
 19 18  2  0
 20 21  2  0
 20 19  1  0
 21 16  1  0
 22 14  1  0
 23 22  2  0
 25 24  1  0
 26 25  1  6
 26 27  1  0
 27 22  1  0
 28 26  1  0
 28 30  1  0
 29 28  2  0
M  END
$$$$
