NDA.pdb
     RDKit          3D

 22 21  0  0  1  0  0  0  0  0999 V2000
   10.0732  -13.4644  -10.1287 N   0  0  0  0  0  0  0  0  0  0  0  0
   11.0381  -12.9299  -11.0292 C   0  0  0  0  0  0  0  0  0  0  0  0
   10.7411  -12.9105  -12.2543 O   0  0  0  0  0  0  0  0  0  0  0  0
   12.3447  -12.4145  -10.5462 C   0  0  0  0  0  0  0  0  0  0  0  0
   13.3113  -12.4406  -11.7003 C   0  0  2  0  0  0  0  0  0  0  0  0
   13.6979  -13.8171  -11.9251 N   0  0  0  0  0  0  0  0  0  0  0  0
   14.5028  -11.5783  -11.4411 C   0  0  0  0  0  0  0  0  0  0  0  0
   15.3787  -12.0059  -10.6485 O   0  0  0  0  0  0  0  0  0  0  0  0
   14.6759  -10.3202  -12.0460 N   0  0  0  0  0  0  0  0  0  0  0  0
   15.7648   -9.4170  -11.7952 C   0  0  1  0  0  0  0  0  0  0  0  0
   16.3896   -9.0104  -13.0967 C   0  0  0  0  0  0  0  0  0  0  0  0
   17.5362   -8.1103  -12.8544 C   0  0  0  0  0  0  0  0  0  0  0  0
   18.4217   -8.2959  -11.9855 O   0  0  0  0  0  0  0  0  0  0  0  0
   15.3265   -8.2285  -11.0079 C   0  0  0  0  0  0  0  0  0  0  0  0
   14.4550   -7.4796  -11.5017 O   0  0  0  0  0  0  0  0  0  0  0  0
   17.7048   -6.9417  -13.6208 O   0  0  0  0  0  0  0  0  0  0  0  0
   15.8684   -6.9931   -7.4830 C   0  0  0  0  0  0  0  0  0  0  0  0
   15.5144   -6.8026   -8.9432 C   0  0  2  0  0  0  0  0  0  0  0  0
   15.8844   -7.9590   -9.7368 N   0  0  0  0  0  0  0  0  0  0  0  0
   16.0935   -5.5551   -9.4672 C   0  0  0  0  0  0  0  0  0  0  0  0
   15.6515   -4.3469   -8.9705 O   0  0  0  0  0  0  0  0  0  0  0  0
   16.9747   -5.5976  -10.3515 O   0  0  0  0  0  0  0  0  0  0  0  0
  1  2  1  0
  2  3  2  0
  2  4  1  0
  5  7  1  0
  5  4  1  0
  5  6  1  1
  7  8  2  0
  9 10  1  0
  9  7  1  0
 10 14  1  0
 11 12  1  0
 10 11  1  6
 12 13  2  0
 12 16  1  0
 14 19  1  0
 14 15  2  0
 18 17  1  1
 18 20  1  0
 19 18  1  0
 20 22  2  0
 20 21  1  0
M  END
$$$$
