NDA.pdb
     RDKit          3D

 22 21  0  0  1  0  0  0  0  0999 V2000
   12.8291  -12.8198  -13.6428 N   0  0  0  0  0  0  0  0  0  0  0  0
   13.5896  -13.6520  -14.5128 C   0  0  0  0  0  0  0  0  0  0  0  0
   13.1937  -14.8379  -14.6749 O   0  0  0  0  0  0  0  0  0  0  0  0
   14.8027  -13.1447  -15.2035 C   0  0  0  0  0  0  0  0  0  0  0  0
   15.0463  -11.7329  -14.7404 C   0  0  2  0  0  0  0  0  0  0  0  0
   13.9572  -10.9121  -15.2248 N   0  0  0  0  0  0  0  0  0  0  0  0
   16.3656  -11.2174  -15.2137 C   0  0  0  0  0  0  0  0  0  0  0  0
   17.4000  -11.8429  -14.8715 O   0  0  0  0  0  0  0  0  0  0  0  0
   16.4885  -10.0706  -16.0190 N   0  0  0  0  0  0  0  0  0  0  0  0
   17.7103   -9.5856  -16.5987 C   0  0  1  0  0  0  0  0  0  0  0  0
   17.3991   -8.7806  -17.8255 C   0  0  0  0  0  0  0  0  0  0  0  0
   16.9485   -9.6673  -18.9183 C   0  0  0  0  0  0  0  0  0  0  0  0
   17.4753  -10.7672  -19.2119 O   0  0  0  0  0  0  0  0  0  0  0  0
   18.5111   -8.7957  -15.6192 C   0  0  0  0  0  0  0  0  0  0  0  0
   17.9219   -7.9338  -14.9308 O   0  0  0  0  0  0  0  0  0  0  0  0
   15.8531   -9.3092  -19.7265 O   0  0  0  0  0  0  0  0  0  0  0  0
   22.1452   -8.7962  -14.5152 C   0  0  0  0  0  0  0  0  0  0  0  0
   20.7294   -8.2600  -14.5592 C   0  0  2  0  0  0  0  0  0  0  0  0
   19.9001   -9.0189  -15.4759 N   0  0  0  0  0  0  0  0  0  0  0  0
   20.7210   -6.8189  -14.8581 C   0  0  0  0  0  0  0  0  0  0  0  0
   21.1823   -5.9316  -13.9086 O   0  0  0  0  0  0  0  0  0  0  0  0
   20.2996   -6.4113  -15.9611 O   0  0  0  0  0  0  0  0  0  0  0  0
  1  2  1  0
  2  3  2  0
  2  4  1  0
  5  7  1  0
  5  4  1  0
  5  6  1  6
  7  8  2  0
  9 10  1  0
  9  7  1  0
 10 14  1  0
 11 12  1  0
 10 11  1  6
 12 13  2  0
 12 16  1  0
 14 19  1  0
 14 15  2  0
 18 17  1  6
 18 20  1  0
 19 18  1  0
 20 22  2  0
 20 21  1  0
M  END
$$$$
