NDA.pdb
     RDKit          3D

 22 21  0  0  1  0  0  0  0  0999 V2000
   15.4949  -12.7448  -15.2905 N   0  0  0  0  0  0  0  0  0  0  0  0
   16.6487  -12.3724  -14.5434 C   0  0  0  0  0  0  0  0  0  0  0  0
   16.7819  -12.8713  -13.3934 O   0  0  0  0  0  0  0  0  0  0  0  0
   17.6575  -11.4326  -15.0959 C   0  0  0  0  0  0  0  0  0  0  0  0
   17.2095  -11.0259  -16.4746 C   0  0  2  0  0  0  0  0  0  0  0  0
   17.3781  -12.1654  -17.3509 N   0  0  0  0  0  0  0  0  0  0  0  0
   17.9691   -9.8410  -16.9740 C   0  0  0  0  0  0  0  0  0  0  0  0
   18.1888   -9.7590  -18.2082 O   0  0  0  0  0  0  0  0  0  0  0  0
   18.4410   -8.8268  -16.1211 N   0  0  0  0  0  0  0  0  0  0  0  0
   19.0531   -7.5981  -16.5454 C   0  0  1  0  0  0  0  0  0  0  0  0
   18.0776   -6.8087  -17.3668 C   0  0  0  0  0  0  0  0  0  0  0  0
   18.7044   -5.5583  -17.8433 C   0  0  0  0  0  0  0  0  0  0  0  0
   18.1501   -4.4330  -17.8414 O   0  0  0  0  0  0  0  0  0  0  0  0
   19.5570   -6.8036  -15.3881 C   0  0  0  0  0  0  0  0  0  0  0  0
   18.7276   -6.3855  -14.5507 O   0  0  0  0  0  0  0  0  0  0  0  0
   20.0182   -5.5621  -18.3485 O   0  0  0  0  0  0  0  0  0  0  0  0
   22.9659   -6.1750  -13.9146 C   0  0  0  0  0  0  0  0  0  0  0  0
   21.4931   -5.8650  -14.0834 C   0  0  2  0  0  0  0  0  0  0  0  0
   20.9375   -6.5325  -15.2452 N   0  0  0  0  0  0  0  0  0  0  0  0
   21.2601   -4.4119  -14.1073 C   0  0  0  0  0  0  0  0  0  0  0  0
   21.4524   -3.6801  -12.9543 O   0  0  0  0  0  0  0  0  0  0  0  0
   20.8925   -3.8547  -15.1630 O   0  0  0  0  0  0  0  0  0  0  0  0
  1  2  1  0
  2  3  2  0
  2  4  1  0
  5  7  1  0
  5  4  1  0
  5  6  1  6
  7  8  2  0
  9 10  1  0
  9  7  1  0
 10 14  1  0
 11 12  1  0
 10 11  1  1
 12 13  2  0
 12 16  1  0
 14 19  1  0
 14 15  2  0
 18 17  1  6
 18 20  1  0
 19 18  1  0
 20 22  2  0
 20 21  1  0
M  END
$$$$
