NDA.pdb
     RDKit          3D

 22 21  0  0  1  0  0  0  0  0999 V2000
   18.9870  -12.7068  -17.4199 N   0  0  0  0  0  0  0  0  0  0  0  0
   19.5072  -12.7998  -16.0975 C   0  0  0  0  0  0  0  0  0  0  0  0
   19.6282  -13.9521  -15.6008 O   0  0  0  0  0  0  0  0  0  0  0  0
   19.8928  -11.5873  -15.3312 C   0  0  0  0  0  0  0  0  0  0  0  0
   19.5590  -10.3812  -16.1684 C   0  0  2  0  0  0  0  0  0  0  0  0
   20.5069  -10.3222  -17.2605 N   0  0  0  0  0  0  0  0  0  0  0  0
   19.5839   -9.1254  -15.3606 C   0  0  0  0  0  0  0  0  0  0  0  0
   18.6313   -8.9148  -14.5690 O   0  0  0  0  0  0  0  0  0  0  0  0
   20.6235   -8.1824  -15.4542 N   0  0  0  0  0  0  0  0  0  0  0  0
   20.6867   -6.9371  -14.7405 C   0  0  1  0  0  0  0  0  0  0  0  0
   22.1202   -6.5373  -14.5542 C   0  0  0  0  0  0  0  0  0  0  0  0
   22.2065   -5.3062  -13.7418 C   0  0  0  0  0  0  0  0  0  0  0  0
   21.6197   -5.1272  -12.6476 O   0  0  0  0  0  0  0  0  0  0  0  0
   19.9088   -5.8662  -15.4281 C   0  0  0  0  0  0  0  0  0  0  0  0
   20.2474   -5.5395  -16.5868 O   0  0  0  0  0  0  0  0  0  0  0  0
   22.9879   -4.2169  -14.1714 O   0  0  0  0  0  0  0  0  0  0  0  0
   16.6616   -4.0717  -14.7571 C   0  0  0  0  0  0  0  0  0  0  0  0
   18.0216   -4.2020  -15.4107 C   0  0  2  0  0  0  0  0  0  0  0  0
   18.8177   -5.2394  -14.7830 N   0  0  0  0  0  0  0  0  0  0  0  0
   18.7167   -2.9051  -15.4434 C   0  0  0  0  0  0  0  0  0  0  0  0
   18.4030   -1.9978  -16.4335 O   0  0  0  0  0  0  0  0  0  0  0  0
   19.5796   -2.6359  -14.5813 O   0  0  0  0  0  0  0  0  0  0  0  0
  1  2  1  0
  2  3  2  0
  2  4  1  0
  5  7  1  0
  5  4  1  0
  5  6  1  6
  7  8  2  0
  9 10  1  0
  9  7  1  0
 10 14  1  0
 11 12  1  0
 10 11  1  6
 12 13  2  0
 12 16  1  0
 14 19  1  0
 14 15  2  0
 18 17  1  1
 18 20  1  0
 19 18  1  0
 20 22  2  0
 20 21  1  0
M  END
$$$$
