NDA.pdb
     RDKit          3D

 22 21  0  0  1  0  0  0  0  0999 V2000
   20.2730  -12.3677  -20.3785 N   0  0  0  0  0  0  0  0  0  0  0  0
   18.9254  -11.9849  -20.1231 C   0  0  0  0  0  0  0  0  0  0  0  0
   18.0237  -12.5451  -20.8032 O   0  0  0  0  0  0  0  0  0  0  0  0
   18.5926  -10.9652  -19.0958 C   0  0  0  0  0  0  0  0  0  0  0  0
   19.8741  -10.5391  -18.4300 C   0  0  2  0  0  0  0  0  0  0  0  0
   20.4612  -11.7065  -17.8078 N   0  0  0  0  0  0  0  0  0  0  0  0
   19.6422   -9.4521  -17.4326 C   0  0  0  0  0  0  0  0  0  0  0  0
   19.0597   -8.4093  -17.8218 O   0  0  0  0  0  0  0  0  0  0  0  0
   20.0482   -9.5541  -16.0897 N   0  0  0  0  0  0  0  0  0  0  0  0
   19.8954   -8.5315  -15.0921 C   0  0  1  0  0  0  0  0  0  0  0  0
   19.9324   -9.1521  -13.7271 C   0  0  0  0  0  0  0  0  0  0  0  0
   19.7699   -8.1137  -12.6886 C   0  0  0  0  0  0  0  0  0  0  0  0
   18.7585   -7.3834  -12.5576 O   0  0  0  0  0  0  0  0  0  0  0  0
   20.9280   -7.4645  -15.2321 C   0  0  0  0  0  0  0  0  0  0  0  0
   22.1243   -7.8098  -15.3488 O   0  0  0  0  0  0  0  0  0  0  0  0
   20.7884   -7.8766  -11.7463 O   0  0  0  0  0  0  0  0  0  0  0  0
   20.8973   -3.8358  -16.1130 C   0  0  0  0  0  0  0  0  0  0  0  0
   21.5179   -5.0248  -15.4095 C   0  0  2  0  0  0  0  0  0  0  0  0
   20.5597   -6.0992  -15.2323 N   0  0  0  0  0  0  0  0  0  0  0  0
   22.1447   -4.6183  -14.1414 C   0  0  0  0  0  0  0  0  0  0  0  0
   21.6736   -5.1463  -12.9578 O   0  0  0  0  0  0  0  0  0  0  0  0
   23.0919   -3.8040  -14.1447 O   0  0  0  0  0  0  0  0  0  0  0  0
  1  2  1  0
  2  3  2  0
  2  4  1  0
  5  7  1  0
  5  4  1  0
  5  6  1  1
  7  8  2  0
  9 10  1  0
  9  7  1  0
 10 14  1  0
 11 12  1  0
 10 11  1  1
 12 13  2  0
 12 16  1  0
 14 19  1  0
 14 15  2  0
 18 17  1  1
 18 20  1  0
 19 18  1  0
 20 22  2  0
 20 21  1  0
M  END
$$$$
