NDA.pdb
     RDKit          3D

 22 21  0  0  1  0  0  0  0  0999 V2000
   13.2966   -7.1194   -8.7365 N   0  0  0  0  0  0  0  0  0  0  0  0
   14.6301   -7.1334   -8.2370 C   0  0  0  0  0  0  0  0  0  0  0  0
   14.8250   -6.6516   -7.0884 O   0  0  0  0  0  0  0  0  0  0  0  0
   15.7495   -7.6934   -9.0366 C   0  0  0  0  0  0  0  0  0  0  0  0
   15.1871   -8.1890  -10.3423 C   0  0  2  0  0  0  0  0  0  0  0  0
   14.7142   -9.5415  -10.1378 N   0  0  0  0  0  0  0  0  0  0  0  0
   16.2008   -8.1290  -11.4374 C   0  0  0  0  0  0  0  0  0  0  0  0
   16.8939   -9.1537  -11.6559 O   0  0  0  0  0  0  0  0  0  0  0  0
   16.4037   -6.9796  -12.2225 N   0  0  0  0  0  0  0  0  0  0  0  0
   17.3165   -6.8744  -13.3270 C   0  0  1  0  0  0  0  0  0  0  0  0
   16.8051   -5.8599  -14.3062 C   0  0  0  0  0  0  0  0  0  0  0  0
   17.6839   -5.8061  -15.4928 C   0  0  0  0  0  0  0  0  0  0  0  0
   18.1864   -6.8067  -16.0584 O   0  0  0  0  0  0  0  0  0  0  0  0
   18.6978   -6.5428  -12.8725 C   0  0  0  0  0  0  0  0  0  0  0  0
   18.8372   -5.6631  -11.9945 O   0  0  0  0  0  0  0  0  0  0  0  0
   18.0206   -4.5719  -16.0802 O   0  0  0  0  0  0  0  0  0  0  0  0
   22.1644   -7.8999  -13.5891 C   0  0  0  0  0  0  0  0  0  0  0  0
   21.1849   -6.8613  -13.0835 C   0  0  2  0  0  0  0  0  0  0  0  0
   19.8178   -7.2081  -13.4226 N   0  0  0  0  0  0  0  0  0  0  0  0
   21.5545   -5.5162  -13.5528 C   0  0  0  0  0  0  0  0  0  0  0  0
   22.5842   -4.8444  -12.9281 O   0  0  0  0  0  0  0  0  0  0  0  0
   20.9384   -4.9952  -14.5064 O   0  0  0  0  0  0  0  0  0  0  0  0
  1  2  1  0
  2  3  2  0
  2  4  1  0
  5  7  1  0
  5  4  1  0
  5  6  1  1
  7  8  2  0
  9 10  1  0
  9  7  1  0
 10 14  1  0
 11 12  1  0
 10 11  1  6
 12 13  2  0
 12 16  1  0
 14 19  1  0
 14 15  2  0
 18 17  1  6
 18 20  1  0
 19 18  1  0
 20 22  2  0
 20 21  1  0
M  END
$$$$
