CKS.pdb
     RDKit          3D

 22 21  0  0  1  0  0  0  0  0999 V2000
   24.3751  -14.3015  -15.0842 N   0  0  0  0  0  0  0  0  0  0  0  0
   25.0242  -15.4470  -15.7602 C   0  0  1  0  0  0  0  0  0  0  0  0
   26.5121  -15.4031  -15.4730 C   0  0  0  0  0  0  0  0  0  0  0  0
   27.2444  -13.9503  -16.2503 S   0  0  0  0  0  0  0  0  0  0  0  0
   24.3615  -16.6596  -15.2492 C   0  0  0  0  0  0  0  0  0  0  0  0
   24.4123  -16.9417  -13.9985 O   0  0  0  0  0  0  0  0  0  0  0  0
   23.6401  -17.5913  -16.0206 N   0  0  0  0  0  0  0  0  0  0  0  0
   23.0194  -18.7699  -15.4547 C   0  0  1  0  0  0  0  0  0  0  0  0
   21.7389  -19.1539  -16.1615 C   0  0  0  0  0  0  0  0  0  0  0  0
   20.6008  -18.5272  -15.3878 C   0  0  0  0  0  0  0  0  0  0  0  0
   19.6071  -17.8415  -16.2929 C   0  0  0  0  0  0  0  0  0  0  0  0
   18.5064  -17.1756  -15.4769 C   0  0  0  0  0  0  0  0  0  0  0  0
   17.6744  -16.3140  -16.2924 N   0  0  0  0  0  0  0  0  0  0  0  0
   23.9769  -19.8972  -15.3466 C   0  0  0  0  0  0  0  0  0  0  0  0
   23.6056  -20.9130  -14.7036 O   0  0  0  0  0  0  0  0  0  0  0  0
   26.4374  -21.0896  -18.0394 O   0  0  0  0  0  0  0  0  0  0  0  0
   26.2563  -21.8955  -16.9137 C   0  0  0  0  0  0  0  0  0  0  0  0
   26.1727  -20.9844  -15.7088 C   0  0  2  0  0  0  0  0  0  0  0  0
   25.2609  -19.8901  -15.9177 N   0  0  0  0  0  0  0  0  0  0  0  0
   27.5486  -20.5280  -15.4075 C   0  0  0  0  0  0  0  0  0  0  0  0
   28.5005  -21.5099  -15.1586 O   0  0  0  0  0  0  0  0  0  0  0  0
   27.9135  -19.3351  -15.3612 O   0  0  0  0  0  0  0  0  0  0  0  0
  2  1  1  1
  3  2  1  0
  4  3  1  0
  5  6  2  0
  5  2  1  0
  7  5  1  0
  8  9  1  6
  8  7  1  0
 10 11  1  0
 10  9  1  0
 11 12  1  0
 12 13  1  0
 14  8  1  0
 15 14  2  0
 17 16  1  0
 18 17  1  6
 18 19  1  0
 19 14  1  0
 20 18  1  0
 20 21  1  0
 22 20  2  0
M  END
$$$$
