CKS.pdb
     RDKit          3D

 22 21  0  0  1  0  0  0  0  0999 V2000
   18.3077  -10.6024  -14.0845 N   0  0  0  0  0  0  0  0  0  0  0  0
   18.7132  -10.0593  -15.4002 C   0  0  1  0  0  0  0  0  0  0  0  0
   17.5780   -9.2196  -15.9519 C   0  0  0  0  0  0  0  0  0  0  0  0
   16.1704  -10.2748  -16.3473 S   0  0  0  0  0  0  0  0  0  0  0  0
   19.9520   -9.2957  -15.1694 C   0  0  0  0  0  0  0  0  0  0  0  0
   20.0865   -8.5955  -14.1026 O   0  0  0  0  0  0  0  0  0  0  0  0
   21.0629   -9.2472  -16.0338 N   0  0  0  0  0  0  0  0  0  0  0  0
   22.2178   -8.4109  -15.7859 C   0  0  1  0  0  0  0  0  0  0  0  0
   23.4583   -8.8992  -16.4997 C   0  0  0  0  0  0  0  0  0  0  0  0
   23.8643  -10.1996  -15.8433 C   0  0  0  0  0  0  0  0  0  0  0  0
   25.0529  -10.8334  -16.5232 C   0  0  0  0  0  0  0  0  0  0  0  0
   25.4482  -12.1262  -15.8209 C   0  0  0  0  0  0  0  0  0  0  0  0
   26.6509  -12.7032  -16.3866 N   0  0  0  0  0  0  0  0  0  0  0  0
   21.9277   -6.9808  -16.0501 C   0  0  0  0  0  0  0  0  0  0  0  0
   21.3678   -6.6950  -17.1400 O   0  0  0  0  0  0  0  0  0  0  0  0
   21.8227   -4.1843  -13.1068 O   0  0  0  0  0  0  0  0  0  0  0  0
   21.0607   -3.9909  -14.2607 C   0  0  0  0  0  0  0  0  0  0  0  0
   21.8282   -4.5876  -15.4198 C   0  0  2  0  0  0  0  0  0  0  0  0
   22.2417   -5.9414  -15.1579 N   0  0  0  0  0  0  0  0  0  0  0  0
   22.9710   -3.6884  -15.6988 C   0  0  0  0  0  0  0  0  0  0  0  0
   22.6737   -2.3708  -16.0272 O   0  0  0  0  0  0  0  0  0  0  0  0
   24.1727   -4.0243  -15.6608 O   0  0  0  0  0  0  0  0  0  0  0  0
  2  1  1  1
  3  2  1  0
  4  3  1  0
  5  6  2  0
  5  2  1  0
  7  5  1  0
  8  9  1  6
  8  7  1  0
 10 11  1  0
 10  9  1  0
 11 12  1  0
 12 13  1  0
 14  8  1  0
 15 14  2  0
 17 16  1  0
 18 17  1  1
 18 19  1  0
 19 14  1  0
 20 18  1  0
 20 21  1  0
 22 20  2  0
M  END
$$$$
