CKS.pdb
     RDKit          3D

 22 21  0  0  1  0  0  0  0  0999 V2000
   24.1406  -20.8303   -9.4953 N   0  0  0  0  0  0  0  0  0  0  0  0
   23.4365  -20.7117  -10.7917 C   0  0  1  0  0  0  0  0  0  0  0  0
   22.4322  -19.5799  -10.6992 C   0  0  0  0  0  0  0  0  0  0  0  0
   21.0853  -20.0436   -9.5937 S   0  0  0  0  0  0  0  0  0  0  0  0
   24.4781  -20.4927  -11.8105 C   0  0  0  0  0  0  0  0  0  0  0  0
   25.5416  -19.8396  -11.5127 O   0  0  0  0  0  0  0  0  0  0  0  0
   24.4345  -20.9450  -13.1435 N   0  0  0  0  0  0  0  0  0  0  0  0
   25.4993  -20.7017  -14.0931 C   0  0  1  0  0  0  0  0  0  0  0  0
   25.9143  -21.9494  -14.8399 C   0  0  0  0  0  0  0  0  0  0  0  0
   27.1411  -21.5940  -15.6493 C   0  0  0  0  0  0  0  0  0  0  0  0
   27.5869  -22.7307  -16.5359 C   0  0  0  0  0  0  0  0  0  0  0  0
   28.7808  -22.3140  -17.3854 C   0  0  0  0  0  0  0  0  0  0  0  0
   29.2344  -23.3886  -18.2451 N   0  0  0  0  0  0  0  0  0  0  0  0
   25.1820  -19.5695  -14.9967 C   0  0  0  0  0  0  0  0  0  0  0  0
   24.0157  -19.5118  -15.4654 O   0  0  0  0  0  0  0  0  0  0  0  0
   28.0293  -16.9669  -16.2846 O   0  0  0  0  0  0  0  0  0  0  0  0
   26.7542  -16.3981  -16.2809 C   0  0  0  0  0  0  0  0  0  0  0  0
   25.7498  -17.5294  -16.2812 C   0  0  2  0  0  0  0  0  0  0  0  0
   26.1041  -18.5704  -15.3521 N   0  0  0  0  0  0  0  0  0  0  0  0
   25.6445  -18.0222  -17.6736 C   0  0  0  0  0  0  0  0  0  0  0  0
   25.2389  -17.1081  -18.6391 O   0  0  0  0  0  0  0  0  0  0  0  0
   25.8915  -19.1894  -18.0409 O   0  0  0  0  0  0  0  0  0  0  0  0
  2  1  1  1
  3  2  1  0
  4  3  1  0
  5  6  2  0
  5  2  1  0
  7  5  1  0
  8  9  1  6
  8  7  1  0
 10 11  1  0
 10  9  1  0
 11 12  1  0
 12 13  1  0
 14  8  1  0
 15 14  2  0
 17 16  1  0
 18 17  1  6
 18 19  1  0
 19 14  1  0
 20 18  1  0
 20 21  1  0
 22 20  2  0
M  END
$$$$
