CKS.pdb
     RDKit          3D

 22 21  0  0  1  0  0  0  0  0999 V2000
   20.7359   -8.1938  -14.1347 N   0  0  0  0  0  0  0  0  0  0  0  0
   20.4044   -8.3593  -12.7018 C   0  0  1  0  0  0  0  0  0  0  0  0
   21.3847   -7.5479  -11.8778 C   0  0  0  0  0  0  0  0  0  0  0  0
   22.9399   -8.4458  -11.7152 S   0  0  0  0  0  0  0  0  0  0  0  0
   19.0050   -7.9252  -12.5473 C   0  0  0  0  0  0  0  0  0  0  0  0
   18.5588   -6.9369  -13.2332 O   0  0  0  0  0  0  0  0  0  0  0  0
   18.0528   -8.5052  -11.6868 N   0  0  0  0  0  0  0  0  0  0  0  0
   16.6948   -8.0181  -11.5719 C   0  0  1  0  0  0  0  0  0  0  0  0
   15.6635   -9.1040  -11.7816 C   0  0  0  0  0  0  0  0  0  0  0  0
   14.3080   -8.4339  -11.7801 C   0  0  0  0  0  0  0  0  0  0  0  0
   13.1855   -9.4201  -11.9908 C   0  0  0  0  0  0  0  0  0  0  0  0
   11.8371   -8.7114  -11.9773 C   0  0  0  0  0  0  0  0  0  0  0  0
   10.7329   -9.6485  -12.0247 N   0  0  0  0  0  0  0  0  0  0  0  0
   16.4865   -7.2625  -10.3130 C   0  0  0  0  0  0  0  0  0  0  0  0
   16.8882   -7.7937   -9.2454 O   0  0  0  0  0  0  0  0  0  0  0  0
   16.9927   -3.4994   -9.8352 O   0  0  0  0  0  0  0  0  0  0  0  0
   15.7978   -3.7987   -9.1779 C   0  0  0  0  0  0  0  0  0  0  0  0
   15.7382   -5.3000   -9.0004 C   0  0  2  0  0  0  0  0  0  0  0  0
   15.8717   -6.0004  -10.2510 N   0  0  0  0  0  0  0  0  0  0  0  0
   14.4663   -5.6099   -8.3086 C   0  0  0  0  0  0  0  0  0  0  0  0
   14.3128   -5.1194   -7.0171 O   0  0  0  0  0  0  0  0  0  0  0  0
   13.5289   -6.2742   -8.7967 O   0  0  0  0  0  0  0  0  0  0  0  0
  2  1  1  6
  3  2  1  0
  4  3  1  0
  5  6  2  0
  5  2  1  0
  7  5  1  0
  8  9  1  1
  8  7  1  0
 10 11  1  0
 10  9  1  0
 11 12  1  0
 12 13  1  0
 14  8  1  0
 15 14  2  0
 17 16  1  0
 18 17  1  6
 18 19  1  0
 19 14  1  0
 20 18  1  0
 20 21  1  0
 22 20  2  0
M  END
$$$$
