MLF.pdb
     RDKit          3D

 28 28  0  0  1  0  0  0  0  0999 V2000
   29.7542  -23.5796  -16.8929 C   0  0  0  0  0  0  0  0  0  0  0  0
   29.7773  -21.8638  -17.3640 S   0  0  0  0  0  0  0  0  0  0  0  0
   28.7760  -20.7898  -16.3609 C   0  0  0  0  0  0  0  0  0  0  0  0
   28.1073  -21.4360  -15.1970 C   0  0  0  0  0  0  0  0  0  0  0  0
   27.2605  -20.4781  -14.4340 C   0  0  2  0  0  0  0  0  0  0  0  0
   28.0322  -19.4242  -13.8002 N   0  0  0  0  0  0  0  0  0  0  0  0
   26.4257  -21.1888  -13.4013 C   0  0  0  0  0  0  0  0  0  0  0  0
   25.6209  -22.0979  -13.7048 O   0  0  0  0  0  0  0  0  0  0  0  0
   28.2994  -20.7991   -9.2614 C   0  0  0  0  0  0  0  0  0  0  0  0
   26.9082  -20.2238   -9.2044 C   0  0  2  0  0  0  0  0  0  0  0  0
   26.6456  -19.9091   -7.7201 C   0  0  0  0  0  0  0  0  0  0  0  0
   25.8469  -21.1693   -9.6267 C   0  0  0  0  0  0  0  0  0  0  0  0
   25.5433  -21.2892  -11.0717 C   0  0  2  0  0  0  0  0  0  0  0  0
   26.5171  -20.8507  -12.0036 N   0  0  0  0  0  0  0  0  0  0  0  0
   24.2055  -20.6364  -11.3045 C   0  0  0  0  0  0  0  0  0  0  0  0
   23.9879  -19.4567  -10.9297 O   0  0  0  0  0  0  0  0  0  0  0  0
   23.1532  -21.3282  -11.9509 N   0  0  0  0  0  0  0  0  0  0  0  0
   21.8311  -20.7200  -12.1716 C   0  0  1  0  0  0  0  0  0  0  0  0
   21.8050  -20.3551  -13.6345 C   0  0  0  0  0  0  0  0  0  0  0  0
   20.4774  -19.8556  -14.0648 C   0  0  0  0  0  0  0  0  0  0  0  0
   20.1294  -18.5154  -13.9482 C   0  0  0  0  0  0  0  0  0  0  0  0
   18.8934  -18.0626  -14.3609 C   0  0  0  0  0  0  0  0  0  0  0  0
   17.9452  -18.9007  -14.9047 C   0  0  0  0  0  0  0  0  0  0  0  0
   18.2871  -20.2350  -15.0223 C   0  0  0  0  0  0  0  0  0  0  0  0
   19.5195  -20.6942  -14.6124 C   0  0  0  0  0  0  0  0  0  0  0  0
   20.7495  -21.6916  -11.9125 C   0  0  0  0  0  0  0  0  0  0  0  0
   21.0077  -23.0261  -12.1931 O   0  0  0  0  0  0  0  0  0  0  0  0
   19.6259  -21.4076  -11.4629 O   0  0  0  0  0  0  0  0  0  0  0  0
  2  1  1  0
  3  4  1  0
  3  2  1  0
  5  4  1  0
  5  6  1  1
  7  8  2  0
  7  5  1  0
 10  9  1  1
 10 12  1  0
 11 10  1  0
 13 12  1  1
 13 14  1  0
 14  7  1  0
 15 13  1  0
 16 15  2  0
 17 15  1  0
 18 17  1  0
 18 19  1  6
 20 19  1  0
 20 21  2  0
 22 21  1  0
 23 22  2  0
 24 25  2  0
 24 23  1  0
 25 20  1  0
 26 27  1  0
 26 18  1  0
 28 26  2  0
M  END
$$$$
