MLF.pdb
     RDKit          3D

 28 28  0  0  1  0  0  0  0  0999 V2000
   26.8043  -19.5856  -19.1838 C   0  0  0  0  0  0  0  0  0  0  0  0
   28.1469  -18.8384  -18.2862 S   0  0  0  0  0  0  0  0  0  0  0  0
   28.8442  -19.8409  -16.9937 C   0  0  0  0  0  0  0  0  0  0  0  0
   27.8628  -20.5967  -16.1660 C   0  0  0  0  0  0  0  0  0  0  0  0
   26.9547  -19.6925  -15.4079 C   0  0  2  0  0  0  0  0  0  0  0  0
   27.6712  -18.7265  -14.5944 N   0  0  0  0  0  0  0  0  0  0  0  0
   25.9993  -20.4748  -14.5455 C   0  0  0  0  0  0  0  0  0  0  0  0
   25.3237  -21.4280  -14.9940 O   0  0  0  0  0  0  0  0  0  0  0  0
   27.0618  -21.6791  -10.3763 C   0  0  0  0  0  0  0  0  0  0  0  0
   26.1693  -20.4693  -10.2791 C   0  0  2  0  0  0  0  0  0  0  0  0
   25.9087  -20.2608   -8.7758 C   0  0  0  0  0  0  0  0  0  0  0  0
   24.8413  -20.6470  -10.9141 C   0  0  0  0  0  0  0  0  0  0  0  0
   24.7723  -20.7378  -12.3912 C   0  0  2  0  0  0  0  0  0  0  0  0
   25.8183  -20.1576  -13.1516 N   0  0  0  0  0  0  0  0  0  0  0  0
   23.4190  -20.2242  -12.8093 C   0  0  0  0  0  0  0  0  0  0  0  0
   23.1915  -18.9906  -12.8871 O   0  0  0  0  0  0  0  0  0  0  0  0
   22.3627  -21.1114  -13.1271 N   0  0  0  0  0  0  0  0  0  0  0  0
   21.1092  -20.6518  -13.7464 C   0  0  1  0  0  0  0  0  0  0  0  0
   21.4426  -20.4435  -15.2023 C   0  0  0  0  0  0  0  0  0  0  0  0
   20.2650  -20.0105  -15.9915 C   0  0  0  0  0  0  0  0  0  0  0  0
   19.8819  -18.6764  -16.0581 C   0  0  0  0  0  0  0  0  0  0  0  0
   18.7888  -18.2863  -16.8038 C   0  0  0  0  0  0  0  0  0  0  0  0
   18.0238  -19.1838  -17.5156 C   0  0  0  0  0  0  0  0  0  0  0  0
   18.4012  -20.5121  -17.4519 C   0  0  0  0  0  0  0  0  0  0  0  0
   19.4917  -20.9089  -16.7095 C   0  0  0  0  0  0  0  0  0  0  0  0
   20.0590  -21.6856  -13.6505 C   0  0  0  0  0  0  0  0  0  0  0  0
   20.4465  -23.0082  -13.8145 O   0  0  0  0  0  0  0  0  0  0  0  0
   18.8550  -21.4639  -13.4346 O   0  0  0  0  0  0  0  0  0  0  0  0
  2  1  1  0
  3  4  1  0
  3  2  1  0
  5  4  1  0
  5  6  1  1
  7  8  2  0
  7  5  1  0
 10  9  1  1
 10 12  1  0
 11 10  1  0
 13 12  1  1
 13 14  1  0
 14  7  1  0
 15 13  1  0
 16 15  2  0
 17 15  1  0
 18 17  1  0
 18 19  1  6
 20 19  1  0
 20 21  2  0
 22 21  1  0
 23 22  2  0
 24 25  2  0
 24 23  1  0
 25 20  1  0
 26 27  1  0
 26 18  1  0
 28 26  2  0
M  END
$$$$
