MLF.pdb
     RDKit          3D

 28 28  0  0  1  0  0  0  0  0999 V2000
   21.6082  -15.3939  -15.2412 C   0  0  0  0  0  0  0  0  0  0  0  0
   22.7512  -14.9736  -16.5387 S   0  0  0  0  0  0  0  0  0  0  0  0
   23.2631  -16.3316  -17.5661 C   0  0  0  0  0  0  0  0  0  0  0  0
   23.4403  -17.6353  -16.8671 C   0  0  0  0  0  0  0  0  0  0  0  0
   24.8763  -17.9910  -16.6995 C   0  0  2  0  0  0  0  0  0  0  0  0
   25.5633  -18.1742  -17.9655 N   0  0  0  0  0  0  0  0  0  0  0  0
   25.0386  -19.2239  -15.8497 C   0  0  0  0  0  0  0  0  0  0  0  0
   24.5922  -20.3392  -16.2005 O   0  0  0  0  0  0  0  0  0  0  0  0
   28.7233  -21.2987  -14.4778 C   0  0  0  0  0  0  0  0  0  0  0  0
   28.3364  -20.2534  -13.4643 C   0  0  2  0  0  0  0  0  0  0  0  0
   29.3489  -20.3920  -12.3123 C   0  0  0  0  0  0  0  0  0  0  0  0
   26.9938  -20.4581  -12.8692 C   0  0  0  0  0  0  0  0  0  0  0  0
   25.8058  -20.3130  -13.7423 C   0  0  2  0  0  0  0  0  0  0  0  0
   25.7217  -19.1741  -14.5819 N   0  0  0  0  0  0  0  0  0  0  0  0
   24.5868  -20.4615  -12.8693 C   0  0  0  0  0  0  0  0  0  0  0  0
   24.5952  -20.0691  -11.6753 O   0  0  0  0  0  0  0  0  0  0  0  0
   23.3962  -21.0460  -13.3636 N   0  0  0  0  0  0  0  0  0  0  0  0
   22.1380  -21.0332  -12.6000 C   0  0  1  0  0  0  0  0  0  0  0  0
   21.8528  -19.5762  -12.3356 C   0  0  0  0  0  0  0  0  0  0  0  0
   20.5334  -19.3702  -11.6924 C   0  0  0  0  0  0  0  0  0  0  0  0
   19.4718  -18.7892  -12.3753 C   0  0  0  0  0  0  0  0  0  0  0  0
   18.2463  -18.6116  -11.7671 C   0  0  0  0  0  0  0  0  0  0  0  0
   18.0069  -18.9940  -10.4657 C   0  0  0  0  0  0  0  0  0  0  0  0
   19.0605  -19.5722   -9.7825 C   0  0  0  0  0  0  0  0  0  0  0  0
   20.2869  -19.7528  -10.3834 C   0  0  0  0  0  0  0  0  0  0  0  0
   21.0268  -21.5900  -13.3975 C   0  0  0  0  0  0  0  0  0  0  0  0
   21.1626  -21.5792  -14.7787 O   0  0  0  0  0  0  0  0  0  0  0  0
   19.9792  -22.0674  -12.9285 O   0  0  0  0  0  0  0  0  0  0  0  0
  2  1  1  0
  3  4  1  0
  3  2  1  0
  5  4  1  0
  5  6  1  6
  7  8  2  0
  7  5  1  0
 10  9  1  6
 10 12  1  0
 11 10  1  0
 13 12  1  1
 13 14  1  0
 14  7  1  0
 15 13  1  0
 16 15  2  0
 17 15  1  0
 18 17  1  0
 18 19  1  6
 20 19  1  0
 20 21  2  0
 22 21  1  0
 23 22  2  0
 24 25  2  0
 24 23  1  0
 25 20  1  0
 26 27  1  0
 26 18  1  0
 28 26  2  0
M  END
$$$$
