MLF.pdb
     RDKit          3D

 28 28  0  0  1  0  0  0  0  0999 V2000
   28.3680  -21.8287  -19.2409 C   0  0  0  0  0  0  0  0  0  0  0  0
   28.8672  -20.1431  -18.9647 S   0  0  0  0  0  0  0  0  0  0  0  0
   27.8597  -19.2337  -17.8158 C   0  0  0  0  0  0  0  0  0  0  0  0
   26.9719  -20.0570  -16.9478 C   0  0  0  0  0  0  0  0  0  0  0  0
   25.9669  -19.2279  -16.2271 C   0  0  2  0  0  0  0  0  0  0  0  0
   26.5675  -18.1407  -15.4753 N   0  0  0  0  0  0  0  0  0  0  0  0
   25.1177  -20.0708  -15.3122 C   0  0  0  0  0  0  0  0  0  0  0  0
   24.5150  -21.0913  -15.7140 O   0  0  0  0  0  0  0  0  0  0  0  0
   26.3894  -21.9936  -11.2652 C   0  0  0  0  0  0  0  0  0  0  0  0
   25.8293  -20.6017  -11.1302 C   0  0  2  0  0  0  0  0  0  0  0  0
   25.8138  -20.3012   -9.6200 C   0  0  0  0  0  0  0  0  0  0  0  0
   24.4290  -20.4669  -11.5988 C   0  0  0  0  0  0  0  0  0  0  0  0
   24.1635  -20.5291  -13.0549 C   0  0  2  0  0  0  0  0  0  0  0  0
   24.9595  -19.7367  -13.9195 N   0  0  0  0  0  0  0  0  0  0  0  0
   22.6915  -20.2763  -13.2536 C   0  0  0  0  0  0  0  0  0  0  0  0
   22.1336  -19.2719  -12.7443 O   0  0  0  0  0  0  0  0  0  0  0  0
   21.8913  -21.1590  -14.0179 N   0  0  0  0  0  0  0  0  0  0  0  0
   20.4387  -20.9743  -14.1668 C   0  0  1  0  0  0  0  0  0  0  0  0
   20.1700  -21.1392  -15.6415 C   0  0  0  0  0  0  0  0  0  0  0  0
   20.6081  -19.9610  -16.4270 C   0  0  0  0  0  0  0  0  0  0  0  0
   21.8526  -19.9170  -17.0434 C   0  0  0  0  0  0  0  0  0  0  0  0
   22.2439  -18.8174  -17.7790 C   0  0  0  0  0  0  0  0  0  0  0  0
   21.4354  -17.7144  -17.9428 C   0  0  0  0  0  0  0  0  0  0  0  0
   20.1964  -17.7538  -17.3310 C   0  0  0  0  0  0  0  0  0  0  0  0
   19.7989  -18.8484  -16.5951 C   0  0  0  0  0  0  0  0  0  0  0  0
   19.6928  -22.0185  -13.4359 C   0  0  0  0  0  0  0  0  0  0  0  0
   20.4110  -23.1119  -12.9723 O   0  0  0  0  0  0  0  0  0  0  0  0
   18.4718  -21.9948  -13.2036 O   0  0  0  0  0  0  0  0  0  0  0  0
  2  1  1  0
  3  4  1  0
  3  2  1  0
  5  4  1  0
  5  6  1  1
  7  8  2  0
  7  5  1  0
 10  9  1  1
 10 12  1  0
 11 10  1  0
 13 12  1  1
 13 14  1  0
 14  7  1  0
 15 13  1  0
 16 15  2  0
 17 15  1  0
 18 17  1  0
 18 19  1  6
 20 19  1  0
 20 21  2  0
 22 21  1  0
 23 22  2  0
 24 25  2  0
 24 23  1  0
 25 20  1  0
 26 27  1  0
 26 18  1  0
 28 26  2  0
M  END
$$$$
