MLF.pdb
     RDKit          3D

 28 28  0  0  1  0  0  0  0  0999 V2000
   31.0971  -29.0950  -22.9080 C   0  0  0  0  0  0  0  0  0  0  0  0
   30.0488  -30.3893  -22.2816 S   0  0  0  0  0  0  0  0  0  0  0  0
   30.1866  -30.6969  -20.5356 C   0  0  0  0  0  0  0  0  0  0  0  0
   29.8486  -29.5464  -19.6516 C   0  0  0  0  0  0  0  0  0  0  0  0
   30.5251  -29.6382  -18.3284 C   0  0  2  0  0  0  0  0  0  0  0  0
   30.0371  -30.7418  -17.5210 N   0  0  0  0  0  0  0  0  0  0  0  0
   30.3981  -28.3498  -17.5589 C   0  0  0  0  0  0  0  0  0  0  0  0
   29.5584  -28.2000  -16.6431 O   0  0  0  0  0  0  0  0  0  0  0  0
   33.2547  -26.0224  -14.8357 C   0  0  0  0  0  0  0  0  0  0  0  0
   33.4943  -25.7002  -16.2877 C   0  0  2  0  0  0  0  0  0  0  0  0
   34.5688  -24.5971  -16.3001 C   0  0  0  0  0  0  0  0  0  0  0  0
   32.3112  -25.1408  -16.9847 C   0  0  0  0  0  0  0  0  0  0  0  0
   31.1132  -25.9984  -17.1397 C   0  0  2  0  0  0  0  0  0  0  0  0
   31.2460  -27.2205  -17.8453 N   0  0  0  0  0  0  0  0  0  0  0  0
   30.0149  -25.1365  -17.7061 C   0  0  0  0  0  0  0  0  0  0  0  0
   29.8389  -25.0463  -18.9472 O   0  0  0  0  0  0  0  0  0  0  0  0
   29.1480  -24.4023  -16.8615 N   0  0  0  0  0  0  0  0  0  0  0  0
   28.0199  -23.6154  -17.3855 C   0  0  1  0  0  0  0  0  0  0  0  0
   26.8622  -23.9305  -16.4720 C   0  0  0  0  0  0  0  0  0  0  0  0
   26.2512  -25.2468  -16.7738 C   0  0  0  0  0  0  0  0  0  0  0  0
   25.1165  -25.3594  -17.5679 C   0  0  0  0  0  0  0  0  0  0  0  0
   24.5634  -26.5919  -17.8481 C   0  0  0  0  0  0  0  0  0  0  0  0
   25.0959  -27.7661  -17.3636 C   0  0  0  0  0  0  0  0  0  0  0  0
   26.2247  -27.6587  -16.5728 C   0  0  0  0  0  0  0  0  0  0  0  0
   26.7825  -26.4315  -16.2890 C   0  0  0  0  0  0  0  0  0  0  0  0
   28.2990  -22.1675  -17.3043 C   0  0  0  0  0  0  0  0  0  0  0  0
   27.3956  -21.3068  -17.9120 O   0  0  0  0  0  0  0  0  0  0  0  0
   29.2800  -21.6594  -16.7344 O   0  0  0  0  0  0  0  0  0  0  0  0
  2  1  1  0
  3  4  1  0
  3  2  1  0
  5  4  1  0
  5  6  1  1
  7  8  2  0
  7  5  1  0
 10  9  1  1
 10 12  1  0
 11 10  1  0
 13 12  1  6
 13 14  1  0
 14  7  1  0
 15 13  1  0
 16 15  2  0
 17 15  1  0
 18 17  1  0
 18 19  1  1
 20 19  1  0
 20 21  2  0
 22 21  1  0
 23 22  2  0
 24 25  2  0
 24 23  1  0
 25 20  1  0
 26 27  1  0
 26 18  1  0
 28 26  2  0
M  END
$$$$
