MLF.pdb
     RDKit          3D

 28 28  0  0  1  0  0  0  0  0999 V2000
   19.3405  -13.8125  -22.3602 C   0  0  0  0  0  0  0  0  0  0  0  0
   19.8884  -12.6756  -21.1057 S   0  0  0  0  0  0  0  0  0  0  0  0
   21.5693  -12.8940  -20.5680 C   0  0  0  0  0  0  0  0  0  0  0  0
   22.0597  -11.9006  -19.5719 C   0  0  0  0  0  0  0  0  0  0  0  0
   23.4700  -12.1587  -19.1703 C   0  0  2  0  0  0  0  0  0  0  0  0
   23.6573  -13.4728  -18.5820 N   0  0  0  0  0  0  0  0  0  0  0  0
   23.9708  -11.1009  -18.2223 C   0  0  0  0  0  0  0  0  0  0  0  0
   23.7868  -11.1718  -16.9864 O   0  0  0  0  0  0  0  0  0  0  0  0
   28.1219   -9.5078  -17.1463 C   0  0  0  0  0  0  0  0  0  0  0  0
   27.5729   -8.8462  -18.3835 C   0  0  2  0  0  0  0  0  0  0  0  0
   28.6126   -7.7843  -18.7869 C   0  0  0  0  0  0  0  0  0  0  0  0
   26.2975   -8.1224  -18.1649 C   0  0  0  0  0  0  0  0  0  0  0  0
   25.0898   -8.9091  -17.8226 C   0  0  2  0  0  0  0  0  0  0  0  0
   24.6912   -9.9482  -18.7003 N   0  0  0  0  0  0  0  0  0  0  0  0
   23.9745   -7.9294  -17.5651 C   0  0  0  0  0  0  0  0  0  0  0  0
   23.2390   -7.5265  -18.5011 O   0  0  0  0  0  0  0  0  0  0  0  0
   23.7194   -7.4321  -16.2645 N   0  0  0  0  0  0  0  0  0  0  0  0
   22.6162   -6.4998  -15.9815 C   0  0  1  0  0  0  0  0  0  0  0  0
   21.4615   -7.3729  -15.5590 C   0  0  0  0  0  0  0  0  0  0  0  0
   21.7804   -8.1839  -14.3600 C   0  0  0  0  0  0  0  0  0  0  0  0
   22.5612   -9.3305  -14.4415 C   0  0  0  0  0  0  0  0  0  0  0  0
   22.8576  -10.0711  -13.3159 C   0  0  0  0  0  0  0  0  0  0  0  0
   22.4031   -9.7223  -12.0633 C   0  0  0  0  0  0  0  0  0  0  0  0
   21.6257   -8.5824  -11.9777 C   0  0  0  0  0  0  0  0  0  0  0  0
   21.3258   -7.8380  -13.0974 C   0  0  0  0  0  0  0  0  0  0  0  0
   22.9559   -5.5993  -14.8614 C   0  0  0  0  0  0  0  0  0  0  0  0
   22.0309   -4.6211  -14.5239 O   0  0  0  0  0  0  0  0  0  0  0  0
   24.0055   -5.6488  -14.1973 O   0  0  0  0  0  0  0  0  0  0  0  0
  2  1  1  0
  3  4  1  0
  3  2  1  0
  5  4  1  0
  5  6  1  1
  7  8  2  0
  7  5  1  0
 10  9  1  1
 10 12  1  0
 11 10  1  0
 13 12  1  6
 13 14  1  0
 14  7  1  0
 15 13  1  0
 16 15  2  0
 17 15  1  0
 18 17  1  0
 18 19  1  1
 20 19  1  0
 20 21  2  0
 22 21  1  0
 23 22  2  0
 24 25  2  0
 24 23  1  0
 25 20  1  0
 26 27  1  0
 26 18  1  0
 28 26  2  0
M  END
$$$$
