KRT.pdb
     RDKit          3D

 28 27  0  0  1  0  0  0  0  0999 V2000
   19.2224  -24.4104   -8.8120 N   0  0  0  0  0  0  0  0  0  0  0  0
   18.1055  -25.1436   -8.3263 C   0  0  1  0  0  0  0  0  0  0  0  0
   18.0083  -26.5718   -8.6973 C   0  0  0  0  0  0  0  0  0  0  0  0
   18.2963  -26.8290  -10.1370 C   0  0  0  0  0  0  0  0  0  0  0  0
   19.5621  -27.5609  -10.4068 C   0  0  0  0  0  0  0  0  0  0  0  0
   19.7259  -27.8626  -11.8966 C   0  0  0  0  0  0  0  0  0  0  0  0
   20.9970  -28.4470  -12.2012 N   0  0  0  0  0  0  0  0  0  0  0  0
   18.0987  -25.0058   -6.8220 C   0  0  0  0  0  0  0  0  0  0  0  0
   19.1204  -24.6163   -6.2021 O   0  0  0  0  0  0  0  0  0  0  0  0
   13.4661  -24.4490   -1.0922 N   0  0  0  0  0  0  0  0  0  0  0  0
   13.3711  -23.0199   -0.9788 C   0  0  0  0  0  0  0  0  0  0  0  0
   13.0177  -22.4618    0.1359 N   0  0  0  0  0  0  0  0  0  0  0  0
   13.6570  -22.1670   -2.0701 N   0  0  0  0  0  0  0  0  0  0  0  0
   14.0560  -22.7445   -3.3394 C   0  0  0  0  0  0  0  0  0  0  0  0
   15.2927  -23.6434   -3.1445 C   0  0  0  0  0  0  0  0  0  0  0  0
   15.6939  -24.0703   -4.5049 C   0  0  0  0  0  0  0  0  0  0  0  0
   16.8944  -24.9529   -4.6224 C   0  0  2  0  0  0  0  0  0  0  0  0
   16.9472  -25.3090   -6.0616 N   0  0  0  0  0  0  0  0  0  0  0  0
   16.7899  -26.2228   -3.8684 C   0  0  0  0  0  0  0  0  0  0  0  0
   15.9836  -27.1445   -4.2272 O   0  0  0  0  0  0  0  0  0  0  0  0
   12.9775  -21.4105    0.2192 C   0  0  0  0  0  0  0  0  0  0  0  0
   19.8129  -28.3607   -2.5364 C   0  0  2  0  0  0  0  0  0  0  0  0
   18.8666  -28.0157   -1.4301 O   0  0  0  0  0  0  0  0  0  0  0  0
   19.2637  -26.7997   -0.8396 C   0  0  2  0  0  0  0  0  0  0  0  0
   17.4811  -27.7749   -2.0329 N   0  0  0  0  0  0  0  0  0  0  0  0
   17.5625  -26.4893   -2.7302 C   0  0  0  0  0  0  0  0  0  0  0  0
   16.4429  -27.7451   -0.9878 O   0  0  0  0  0  0  0  0  0  0  0  0
   16.0074  -26.6511   -0.5602 O   0  0  0  0  0  0  0  0  0  0  0  0
  2  1  1  1
  3  2  1  0
  4  3  1  0
  4  5  1  0
  6  5  1  0
  7  6  1  0
  8  2  1  0
  8  9  2  0
 10 11  1  0
 11 12  2  0
 11 13  1  0
 13 14  1  0
 14 15  1  0
 15 16  1  0
 17 16  1  6
 17 18  1  0
 18  8  1  0
 19 17  1  0
 20 19  2  0
 22 21  1  1
 22 23  1  0
 22 24  1  0
 24 26  1  0
 24 25  1  1
 25 19  1  0
 26 28  1  0
 27 26  2  0
M  END
$$$$
