KRT.pdb
     RDKit          3D

 28 27  0  0  1  0  0  0  0  0999 V2000
   22.0180  -20.6938  -11.5432 N   0  0  0  0  0  0  0  0  0  0  0  0
   21.5234  -20.7710  -12.8738 C   0  0  1  0  0  0  0  0  0  0  0  0
   20.0730  -20.5695  -13.0796 C   0  0  0  0  0  0  0  0  0  0  0  0
   19.2329  -21.6103  -12.4218 C   0  0  0  0  0  0  0  0  0  0  0  0
   19.2834  -22.9551  -13.0541 C   0  0  0  0  0  0  0  0  0  0  0  0
   18.4498  -23.9710  -12.2730 C   0  0  0  0  0  0  0  0  0  0  0  0
   18.6373  -25.3108  -12.7419 N   0  0  0  0  0  0  0  0  0  0  0  0
   22.2994  -19.7716  -13.6991 C   0  0  0  0  0  0  0  0  0  0  0  0
   22.7140  -18.6974  -13.1950 O   0  0  0  0  0  0  0  0  0  0  0  0
   28.8084  -22.8630  -16.2642 N   0  0  0  0  0  0  0  0  0  0  0  0
   27.4012  -23.1480  -16.3189 C   0  0  0  0  0  0  0  0  0  0  0  0
   26.9684  -24.3693  -16.3259 N   0  0  0  0  0  0  0  0  0  0  0  0
   26.4351  -22.1163  -16.3670 N   0  0  0  0  0  0  0  0  0  0  0  0
   26.8601  -20.7362  -16.2303 C   0  0  0  0  0  0  0  0  0  0  0  0
   25.8129  -19.9387  -15.4287 C   0  0  0  0  0  0  0  0  0  0  0  0
   24.5974  -19.9133  -16.2749 C   0  0  0  0  0  0  0  0  0  0  0  0
   23.4547  -19.0687  -15.8116 C   0  0  2  0  0  0  0  0  0  0  0  0
   22.5854  -20.0086  -15.0622 N   0  0  0  0  0  0  0  0  0  0  0  0
   22.6343  -18.5040  -16.9071 C   0  0  0  0  0  0  0  0  0  0  0  0
   21.9290  -19.2522  -17.6629 O   0  0  0  0  0  0  0  0  0  0  0  0
   25.9324  -24.5702  -16.3109 C   0  0  0  0  0  0  0  0  0  0  0  0
   20.5267  -15.1801  -16.4510 C   0  0  2  0  0  0  0  0  0  0  0  0
   21.3584  -15.1397  -17.6939 O   0  0  0  0  0  0  0  0  0  0  0  0
   22.6120  -14.5691  -17.3973 C   0  0  2  0  0  0  0  0  0  0  0  0
   21.6297  -16.5764  -18.1444 N   0  0  0  0  0  0  0  0  0  0  0  0
   22.5797  -17.1301  -17.1766 C   0  0  0  0  0  0  0  0  0  0  0  0
   22.1838  -16.6116  -19.5092 O   0  0  0  0  0  0  0  0  0  0  0  0
   23.3874  -16.9048  -19.6955 O   0  0  0  0  0  0  0  0  0  0  0  0
  2  1  1  1
  3  2  1  0
  4  3  1  0
  4  5  1  0
  6  5  1  0
  7  6  1  0
  8  2  1  0
  8  9  2  0
 10 11  1  0
 11 12  2  0
 11 13  1  0
 13 14  1  0
 14 15  1  0
 15 16  1  0
 17 16  1  6
 17 18  1  0
 18  8  1  0
 19 17  1  0
 20 19  2  0
 22 21  1  6
 22 23  1  0
 22 24  1  0
 24 26  1  0
 24 25  1  6
 25 19  1  0
 26 28  1  0
 27 26  2  0
M  END
$$$$
