KRT.pdb
     RDKit          3D

 28 27  0  0  1  0  0  0  0  0999 V2000
   23.4423  -27.3479  -15.7269 N   0  0  0  0  0  0  0  0  0  0  0  0
   22.0255  -27.3183  -15.8396 C   0  0  1  0  0  0  0  0  0  0  0  0
   21.3012  -28.6026  -15.7273 C   0  0  0  0  0  0  0  0  0  0  0  0
   22.0164  -29.6135  -14.8976 C   0  0  0  0  0  0  0  0  0  0  0  0
   21.3957  -30.9644  -14.8741 C   0  0  0  0  0  0  0  0  0  0  0  0
   22.1929  -31.9298  -13.9968 C   0  0  0  0  0  0  0  0  0  0  0  0
   21.6074  -33.2355  -13.9458 N   0  0  0  0  0  0  0  0  0  0  0  0
   21.5131  -26.3510  -14.7984 C   0  0  0  0  0  0  0  0  0  0  0  0
   22.2357  -25.9943  -13.8337 O   0  0  0  0  0  0  0  0  0  0  0  0
   18.5073  -19.5418  -17.7535 N   0  0  0  0  0  0  0  0  0  0  0  0
   19.8866  -19.9339  -17.8433 C   0  0  0  0  0  0  0  0  0  0  0  0
   20.7099  -19.3021  -18.6192 N   0  0  0  0  0  0  0  0  0  0  0  0
   20.4016  -21.0176  -17.0947 N   0  0  0  0  0  0  0  0  0  0  0  0
   19.5161  -21.7640  -16.2214 C   0  0  0  0  0  0  0  0  0  0  0  0
   20.2897  -22.9097  -15.5400 C   0  0  0  0  0  0  0  0  0  0  0  0
   19.2830  -23.6570  -14.7512 C   0  0  0  0  0  0  0  0  0  0  0  0
   19.7744  -24.7826  -13.8995 C   0  0  2  0  0  0  0  0  0  0  0  0
   20.2080  -25.8152  -14.8723 N   0  0  0  0  0  0  0  0  0  0  0  0
   18.7309  -25.4017  -13.0511 C   0  0  0  0  0  0  0  0  0  0  0  0
   17.7752  -26.0773  -13.5596 O   0  0  0  0  0  0  0  0  0  0  0  0
   21.7181  -19.6058  -18.6908 C   0  0  0  0  0  0  0  0  0  0  0  0
   19.3972  -27.1995   -9.6089 C   0  0  2  0  0  0  0  0  0  0  0  0
   18.3296  -26.1615   -9.4640 O   0  0  0  0  0  0  0  0  0  0  0  0
   18.9162  -24.9408   -9.0758 C   0  0  2  0  0  0  0  0  0  0  0  0
   17.6944  -25.9227  -10.8352 N   0  0  0  0  0  0  0  0  0  0  0  0
   18.7298  -25.2884  -11.6545 C   0  0  0  0  0  0  0  0  0  0  0  0
   16.5033  -25.0621  -10.7284 O   0  0  0  0  0  0  0  0  0  0  0  0
   16.5483  -23.8699  -11.1104 O   0  0  0  0  0  0  0  0  0  0  0  0
  2  1  1  1
  3  2  1  0
  4  3  1  0
  4  5  1  0
  6  5  1  0
  7  6  1  0
  8  2  1  0
  8  9  2  0
 10 11  1  0
 11 12  2  0
 11 13  1  0
 13 14  1  0
 14 15  1  0
 15 16  1  0
 17 16  1  6
 17 18  1  0
 18  8  1  0
 19 17  1  0
 20 19  2  0
 22 21  1  1
 22 23  1  0
 22 24  1  0
 24 26  1  0
 24 25  1  1
 25 19  1  0
 26 28  1  0
 27 26  2  0
M  END
$$$$
