CHY.pdb
     RDKit          3D

 29 30  0  0  1  0  0  0  0  0999 V2000
    6.3451  -20.9102   21.9004 N   0  0  0  0  0  0  0  0  0  0  0  0
    6.6182  -19.6836   22.6097 C   0  0  1  0  0  0  0  0  0  0  0  0
    6.6374  -19.8785   24.1072 C   0  0  0  0  0  0  0  0  0  0  0  0
    6.7325  -18.2642   24.9242 S   0  0  0  0  0  0  0  0  0  0  0  0
    7.9631  -19.2044   22.2008 C   0  0  0  0  0  0  0  0  0  0  0  0
    8.9634  -19.9422   22.2921 O   0  0  0  0  0  0  0  0  0  0  0  0
    8.1532  -17.8883   21.6920 N   0  0  0  0  0  0  0  0  0  0  0  0
    9.4785  -17.4221   21.3708 C   0  0  1  0  0  0  0  0  0  0  0  0
    9.4645  -16.5839   20.0857 C   0  0  0  0  0  0  0  0  0  0  0  0
    9.2547  -17.4311   18.8922 C   0  0  0  0  0  0  0  0  0  0  0  0
   10.0869  -18.4604   18.5240 C   0  0  0  0  0  0  0  0  0  0  0  0
    9.5474  -18.9729   17.3915 N   0  0  0  0  0  0  0  0  0  0  0  0
    8.4314  -18.2767   17.0901 C   0  0  0  0  0  0  0  0  0  0  0  0
    8.2568  -17.3278   18.0192 N   0  0  0  0  0  0  0  0  0  0  0  0
    9.9346  -16.5011   22.4346 C   0  0  0  0  0  0  0  0  0  0  0  0
    9.3461  -15.3957   22.5543 O   0  0  0  0  0  0  0  0  0  0  0  0
   10.6149  -14.3611   30.5016 O   0  0  0  0  0  0  0  0  0  0  0  0
   10.4278  -14.8086   29.1917 C   0  0  0  0  0  0  0  0  0  0  0  0
   10.8843  -16.0936   28.9090 C   0  0  0  0  0  0  0  0  0  0  0  0
   10.7173  -16.5806   27.6119 C   0  0  0  0  0  0  0  0  0  0  0  0
   10.1195  -15.8109   26.6454 C   0  0  0  0  0  0  0  0  0  0  0  0
    9.9459  -16.3288   25.2807 C   0  0  0  0  0  0  0  0  0  0  0  0
   11.2114  -16.1847   24.5073 C   0  0  2  0  0  0  0  0  0  0  0  0
   11.0091  -16.9202   23.2561 N   0  0  0  0  0  0  0  0  0  0  0  0
   12.4364  -16.6102   25.1820 C   0  0  0  0  0  0  0  0  0  0  0  0
   13.2480  -15.7091   25.8463 O   0  0  0  0  0  0  0  0  0  0  0  0
    9.6739  -14.5265   26.9651 C   0  0  0  0  0  0  0  0  0  0  0  0
    9.8276  -14.0245   28.2379 C   0  0  0  0  0  0  0  0  0  0  0  0
   12.7788  -17.8103   25.1723 O   0  0  0  0  0  0  0  0  0  0  0  0
  2  1  1  6
  2  3  1  0
  3  4  1  0
  5  2  1  0
  6  5  2  0
  7  5  1  0
  8 15  1  0
  8  7  1  0
  9 10  1  0
  8  9  1  6
 10 11  2  0
 12 11  1  0
 13 12  1  0
 14 13  2  0
 14 10  1  0
 15 16  2  0
 18 28  2  0
 18 17  1  0
 19 18  1  0
 20 21  1  0
 20 19  2  0
 21 27  2  0
 22 21  1  0
 23 22  1  1
 24 23  1  0
 24 15  1  0
 25 26  1  0
 25 23  1  0
 27 28  1  0
 29 25  2  0
M  END
$$$$
