CHY.pdb
     RDKit          3D

 29 30  0  0  1  0  0  0  0  0999 V2000
   11.5792  -18.4659   18.6847 N   0  0  0  0  0  0  0  0  0  0  0  0
   10.2315  -18.4497   19.2003 C   0  0  1  0  0  0  0  0  0  0  0  0
    9.9534  -19.6176   20.1166 C   0  0  0  0  0  0  0  0  0  0  0  0
   11.0038  -19.4932   21.5875 S   0  0  0  0  0  0  0  0  0  0  0  0
   10.0558  -17.2052   19.9914 C   0  0  0  0  0  0  0  0  0  0  0  0
   11.0368  -16.5159   20.3316 O   0  0  0  0  0  0  0  0  0  0  0  0
    8.7625  -16.7597   20.3865 N   0  0  0  0  0  0  0  0  0  0  0  0
    8.6174  -15.5408   21.1416 C   0  0  1  0  0  0  0  0  0  0  0  0
    7.3360  -14.7993   20.7383 C   0  0  0  0  0  0  0  0  0  0  0  0
    7.4858  -14.1411   19.4228 C   0  0  0  0  0  0  0  0  0  0  0  0
    8.6196  -14.2157   18.6504 C   0  0  0  0  0  0  0  0  0  0  0  0
    8.3491  -13.4857   17.5413 N   0  0  0  0  0  0  0  0  0  0  0  0
    7.0980  -12.9903   17.6437 C   0  0  0  0  0  0  0  0  0  0  0  0
    6.5716  -13.3981   18.8058 N   0  0  0  0  0  0  0  0  0  0  0  0
    8.4412  -15.8792   22.5707 C   0  0  0  0  0  0  0  0  0  0  0  0
    8.0167  -17.0275   22.8601 O   0  0  0  0  0  0  0  0  0  0  0  0
   10.1660  -15.7074   31.0612 O   0  0  0  0  0  0  0  0  0  0  0  0
   10.0158  -15.3195   29.7278 C   0  0  0  0  0  0  0  0  0  0  0  0
   10.4933  -16.2106   28.7700 C   0  0  0  0  0  0  0  0  0  0  0  0
   10.3634  -15.8624   27.4248 C   0  0  0  0  0  0  0  0  0  0  0  0
    9.7807  -14.6740   27.0611 C   0  0  0  0  0  0  0  0  0  0  0  0
    9.6461  -14.3123   25.6428 C   0  0  0  0  0  0  0  0  0  0  0  0
    8.7983  -15.3105   24.9320 C   0  0  2  0  0  0  0  0  0  0  0  0
    8.7617  -14.8875   23.5294 N   0  0  0  0  0  0  0  0  0  0  0  0
    7.4509  -15.5122   25.4617 C   0  0  0  0  0  0  0  0  0  0  0  0
    7.1435  -16.5932   26.2674 O   0  0  0  0  0  0  0  0  0  0  0  0
    9.3132  -13.8049   28.0492 C   0  0  0  0  0  0  0  0  0  0  0  0
    9.4303  -14.1267   29.3827 C   0  0  0  0  0  0  0  0  0  0  0  0
    6.5393  -14.7027   25.1947 O   0  0  0  0  0  0  0  0  0  0  0  0
  2  1  1  1
  2  3  1  0
  3  4  1  0
  5  2  1  0
  6  5  2  0
  7  5  1  0
  8 15  1  0
  8  7  1  0
  9 10  1  0
  8  9  1  6
 10 11  2  0
 12 11  1  0
 13 12  1  0
 14 13  2  0
 14 10  1  0
 15 16  2  0
 18 28  2  0
 18 17  1  0
 19 18  1  0
 20 21  1  0
 20 19  2  0
 21 27  2  0
 22 21  1  0
 23 22  1  1
 24 23  1  0
 24 15  1  0
 25 26  1  0
 25 23  1  0
 27 28  1  0
 29 25  2  0
M  END
$$$$
