CHY.pdb
     RDKit          3D

 29 30  0  0  1  0  0  0  0  0999 V2000
    7.9877  -14.6707   16.6489 N   0  0  0  0  0  0  0  0  0  0  0  0
    9.1594  -14.6967   17.4907 C   0  0  1  0  0  0  0  0  0  0  0  0
    9.4598  -13.3471   18.0983 C   0  0  0  0  0  0  0  0  0  0  0  0
    7.9671  -12.6989   18.8947 S   0  0  0  0  0  0  0  0  0  0  0  0
    8.9056  -15.6454   18.6048 C   0  0  0  0  0  0  0  0  0  0  0  0
    7.7509  -15.8437   19.0296 O   0  0  0  0  0  0  0  0  0  0  0  0
    9.9718  -16.3583   19.2229 N   0  0  0  0  0  0  0  0  0  0  0  0
    9.7125  -17.2011   20.3629 C   0  0  1  0  0  0  0  0  0  0  0  0
   10.8702  -18.1821   20.5896 C   0  0  0  0  0  0  0  0  0  0  0  0
   10.5756  -19.1163   21.6973 C   0  0  0  0  0  0  0  0  0  0  0  0
    9.3643  -19.7396   21.8758 C   0  0  0  0  0  0  0  0  0  0  0  0
    9.5099  -20.4987   22.9887 N   0  0  0  0  0  0  0  0  0  0  0  0
   10.7634  -20.3373   23.4619 C   0  0  0  0  0  0  0  0  0  0  0  0
   11.4148  -19.4839   22.6612 N   0  0  0  0  0  0  0  0  0  0  0  0
    9.6658  -16.3618   21.5799 C   0  0  0  0  0  0  0  0  0  0  0  0
   10.5285  -15.4552   21.7084 O   0  0  0  0  0  0  0  0  0  0  0  0
    6.6433  -11.7252   28.1195 O   0  0  0  0  0  0  0  0  0  0  0  0
    6.8202  -12.5401   26.9988 C   0  0  0  0  0  0  0  0  0  0  0  0
    7.4930  -11.9682   25.9219 C   0  0  0  0  0  0  0  0  0  0  0  0
    7.6915  -12.7476   24.7814 C   0  0  0  0  0  0  0  0  0  0  0  0
    7.2347  -14.0408   24.7274 C   0  0  0  0  0  0  0  0  0  0  0  0
    7.4468  -14.8574   23.5238 C   0  0  0  0  0  0  0  0  0  0  0  0
    8.6091  -15.7699   23.7152 C   0  0  2  0  0  0  0  0  0  0  0  0
    8.6503  -16.6301   22.5296 N   0  0  0  0  0  0  0  0  0  0  0  0
    8.6186  -16.5595   24.9455 C   0  0  0  0  0  0  0  0  0  0  0  0
    8.0032  -17.7957   25.0176 O   0  0  0  0  0  0  0  0  0  0  0  0
    6.5640  -14.5812   25.8267 C   0  0  0  0  0  0  0  0  0  0  0  0
    6.3563  -13.8317   26.9629 C   0  0  0  0  0  0  0  0  0  0  0  0
    9.1897  -16.1288   25.9682 O   0  0  0  0  0  0  0  0  0  0  0  0
  2  1  1  6
  2  3  1  0
  3  4  1  0
  5  2  1  0
  6  5  2  0
  7  5  1  0
  8 15  1  0
  8  7  1  0
  9 10  1  0
  8  9  1  1
 10 11  2  0
 12 11  1  0
 13 12  1  0
 14 13  2  0
 14 10  1  0
 15 16  2  0
 18 28  2  0
 18 17  1  0
 19 18  1  0
 20 21  1  0
 20 19  2  0
 21 27  2  0
 22 21  1  0
 23 22  1  6
 24 23  1  0
 24 15  1  0
 25 26  1  0
 25 23  1  0
 27 28  1  0
 29 25  2  0
M  END
$$$$
