CHY.pdb
     RDKit          3D

 29 30  0  0  1  0  0  0  0  0999 V2000
    6.5057  -19.5697   20.7609 N   0  0  0  0  0  0  0  0  0  0  0  0
    6.0934  -18.2058   20.9892 C   0  0  1  0  0  0  0  0  0  0  0  0
    5.3899  -18.0331   22.3144 C   0  0  0  0  0  0  0  0  0  0  0  0
    6.4308  -18.6966   23.6406 S   0  0  0  0  0  0  0  0  0  0  0  0
    7.3100  -17.3543   21.0111 C   0  0  0  0  0  0  0  0  0  0  0  0
    8.4476  -17.8565   20.9296 O   0  0  0  0  0  0  0  0  0  0  0  0
    7.2161  -15.9382   21.1259 N   0  0  0  0  0  0  0  0  0  0  0  0
    8.4090  -15.1300   21.0951 C   0  0  1  0  0  0  0  0  0  0  0  0
    8.1531  -13.8089   20.3579 C   0  0  0  0  0  0  0  0  0  0  0  0
    8.1897  -13.9945   18.8915 C   0  0  0  0  0  0  0  0  0  0  0  0
    8.5137  -15.1783   18.2741 C   0  0  0  0  0  0  0  0  0  0  0  0
    8.4298  -14.9269   16.9453 N   0  0  0  0  0  0  0  0  0  0  0  0
    8.0684  -13.6385   16.7705 C   0  0  0  0  0  0  0  0  0  0  0  0
    7.9221  -13.0696   17.9741 N   0  0  0  0  0  0  0  0  0  0  0  0
    8.7639  -14.7447   22.4784 C   0  0  0  0  0  0  0  0  0  0  0  0
    8.3558  -13.6350   22.9079 O   0  0  0  0  0  0  0  0  0  0  0  0
    6.6299  -10.4814   27.1556 O   0  0  0  0  0  0  0  0  0  0  0  0
    6.9396  -11.7207   26.5905 C   0  0  0  0  0  0  0  0  0  0  0  0
    7.9200  -12.4660   27.2407 C   0  0  0  0  0  0  0  0  0  0  0  0
    8.2603  -13.7108   26.7096 C   0  0  0  0  0  0  0  0  0  0  0  0
    7.6432  -14.1831   25.5781 C   0  0  0  0  0  0  0  0  0  0  0  0
    8.0053  -15.4951   25.0231 C   0  0  0  0  0  0  0  0  0  0  0  0
    9.4585  -15.5359   24.6960 C   0  0  2  0  0  0  0  0  0  0  0  0
    9.5439  -15.6504   23.2376 N   0  0  0  0  0  0  0  0  0  0  0  0
   10.2438  -16.5763   25.3578 C   0  0  0  0  0  0  0  0  0  0  0  0
   10.9222  -16.3316   26.5376 O   0  0  0  0  0  0  0  0  0  0  0  0
    6.6642  -13.4080   24.9527 C   0  0  0  0  0  0  0  0  0  0  0  0
    6.3117  -12.1768   25.4580 C   0  0  0  0  0  0  0  0  0  0  0  0
   10.3186  -17.7207   24.8656 O   0  0  0  0  0  0  0  0  0  0  0  0
  2  1  1  1
  2  3  1  0
  3  4  1  0
  5  2  1  0
  6  5  2  0
  7  5  1  0
  8 15  1  0
  8  7  1  0
  9 10  1  0
  8  9  1  6
 10 11  2  0
 12 11  1  0
 13 12  1  0
 14 13  2  0
 14 10  1  0
 15 16  2  0
 18 28  2  0
 18 17  1  0
 19 18  1  0
 20 21  1  0
 20 19  2  0
 21 27  2  0
 22 21  1  0
 23 22  1  1
 24 23  1  0
 24 15  1  0
 25 26  1  0
 25 23  1  0
 27 28  1  0
 29 25  2  0
M  END
$$$$
