CHY.pdb
     RDKit          3D

 29 30  0  0  1  0  0  0  0  0999 V2000
    7.7078  -15.2719   17.7089 N   0  0  0  0  0  0  0  0  0  0  0  0
    8.8088  -14.7593   18.4883 C   0  0  1  0  0  0  0  0  0  0  0  0
    8.5340  -13.3764   19.0297 C   0  0  0  0  0  0  0  0  0  0  0  0
    8.4727  -12.1935   17.6587 S   0  0  0  0  0  0  0  0  0  0  0  0
    9.0132  -15.6642   19.6480 C   0  0  0  0  0  0  0  0  0  0  0  0
    8.0563  -16.2731   20.1646 O   0  0  0  0  0  0  0  0  0  0  0  0
   10.3073  -15.8654   20.2066 N   0  0  0  0  0  0  0  0  0  0  0  0
   10.4790  -16.7473   21.3334 C   0  0  1  0  0  0  0  0  0  0  0  0
   11.8370  -17.4584   21.2667 C   0  0  0  0  0  0  0  0  0  0  0  0
   11.8297  -18.5402   20.2587 C   0  0  0  0  0  0  0  0  0  0  0  0
   10.7023  -19.2245   19.8736 C   0  0  0  0  0  0  0  0  0  0  0  0
   11.1223  -20.1180   18.9453 N   0  0  0  0  0  0  0  0  0  0  0  0
   12.4538  -19.9755   18.7788 C   0  0  0  0  0  0  0  0  0  0  0  0
   12.8834  -19.0013   19.5914 N   0  0  0  0  0  0  0  0  0  0  0  0
   10.5192  -15.9409   22.5728 C   0  0  0  0  0  0  0  0  0  0  0  0
   10.8746  -14.7372   22.4856 O   0  0  0  0  0  0  0  0  0  0  0  0
    5.7945  -11.6369   27.7871 O   0  0  0  0  0  0  0  0  0  0  0  0
    6.4560  -12.4705   26.8823 C   0  0  0  0  0  0  0  0  0  0  0  0
    5.9397  -13.7559   26.7388 C   0  0  0  0  0  0  0  0  0  0  0  0
    6.5704  -14.6222   25.8448 C   0  0  0  0  0  0  0  0  0  0  0  0
    7.6684  -14.2141   25.1293 C   0  0  0  0  0  0  0  0  0  0  0  0
    8.3288  -15.1305   24.1887 C   0  0  0  0  0  0  0  0  0  0  0  0
    9.5411  -15.7297   24.8144 C   0  0  2  0  0  0  0  0  0  0  0  0
   10.1545  -16.5741   23.7857 N   0  0  0  0  0  0  0  0  0  0  0  0
    9.3310  -16.4724   26.0559 C   0  0  0  0  0  0  0  0  0  0  0  0
    9.7558  -15.9792   27.2759 O   0  0  0  0  0  0  0  0  0  0  0  0
    8.1586  -12.9175   25.2990 C   0  0  0  0  0  0  0  0  0  0  0  0
    7.5531  -12.0450   26.1752 C   0  0  0  0  0  0  0  0  0  0  0  0
    8.7566  -17.5803   26.0399 O   0  0  0  0  0  0  0  0  0  0  0  0
  2  1  1  1
  2  3  1  0
  3  4  1  0
  5  2  1  0
  6  5  2  0
  7  5  1  0
  8 15  1  0
  8  7  1  0
  9 10  1  0
  8  9  1  6
 10 11  2  0
 12 11  1  0
 13 12  1  0
 14 13  2  0
 14 10  1  0
 15 16  2  0
 18 28  2  0
 18 17  1  0
 19 18  1  0
 20 21  1  0
 20 19  2  0
 21 27  2  0
 22 21  1  0
 23 22  1  6
 24 23  1  0
 24 15  1  0
 25 26  1  0
 25 23  1  0
 27 28  1  0
 29 25  2  0
M  END
$$$$
