CHY.pdb
     RDKit          3D

 29 30  0  0  1  0  0  0  0  0999 V2000
    8.4142  -14.5732   17.7560 N   0  0  0  0  0  0  0  0  0  0  0  0
    8.6015  -14.0452   19.0859 C   0  0  1  0  0  0  0  0  0  0  0  0
    7.8676  -12.7417   19.2945 C   0  0  0  0  0  0  0  0  0  0  0  0
    8.1831  -12.1340   20.9719 S   0  0  0  0  0  0  0  0  0  0  0  0
    8.0543  -15.0296   20.0539 C   0  0  0  0  0  0  0  0  0  0  0  0
    7.1369  -15.8082   19.7296 O   0  0  0  0  0  0  0  0  0  0  0  0
    8.5596  -15.1158   21.3822 N   0  0  0  0  0  0  0  0  0  0  0  0
    8.6314  -16.3926   22.0467 C   0  0  1  0  0  0  0  0  0  0  0  0
    9.6423  -17.3131   21.3503 C   0  0  0  0  0  0  0  0  0  0  0  0
    9.6513  -18.6610   21.9580 C   0  0  0  0  0  0  0  0  0  0  0  0
   10.7887  -19.3083   22.3763 C   0  0  0  0  0  0  0  0  0  0  0  0
   10.3666  -20.4995   22.8653 N   0  0  0  0  0  0  0  0  0  0  0  0
    9.0241  -20.5656   22.7451 C   0  0  0  0  0  0  0  0  0  0  0  0
    8.5897  -19.4291   22.1851 N   0  0  0  0  0  0  0  0  0  0  0  0
    9.1596  -16.1935   23.4139 C   0  0  0  0  0  0  0  0  0  0  0  0
   10.2845  -15.6450   23.5409 O   0  0  0  0  0  0  0  0  0  0  0  0
    6.1782  -10.7811   26.0384 O   0  0  0  0  0  0  0  0  0  0  0  0
    6.5300  -12.1244   26.1891 C   0  0  0  0  0  0  0  0  0  0  0  0
    7.7626  -12.3746   26.7871 C   0  0  0  0  0  0  0  0  0  0  0  0
    8.1536  -13.7034   26.9572 C   0  0  0  0  0  0  0  0  0  0  0  0
    7.3427  -14.7314   26.5451 C   0  0  0  0  0  0  0  0  0  0  0  0
    7.7592  -16.1292   26.7270 C   0  0  0  0  0  0  0  0  0  0  0  0
    8.9178  -16.4433   25.8441 C   0  0  2  0  0  0  0  0  0  0  0  0
    8.3650  -16.6336   24.5003 N   0  0  0  0  0  0  0  0  0  0  0  0
    9.7486  -17.5781   26.2427 C   0  0  0  0  0  0  0  0  0  0  0  0
    9.8786  -18.6976   25.4415 O   0  0  0  0  0  0  0  0  0  0  0  0
    6.1131  -14.4426   25.9492 C   0  0  0  0  0  0  0  0  0  0  0  0
    5.7059  -13.1396   25.7708 C   0  0  0  0  0  0  0  0  0  0  0  0
   10.3654  -17.5593   27.3275 O   0  0  0  0  0  0  0  0  0  0  0  0
  2  1  1  6
  2  3  1  0
  3  4  1  0
  5  2  1  0
  6  5  2  0
  7  5  1  0
  8 15  1  0
  8  7  1  0
  9 10  1  0
  8  9  1  6
 10 11  2  0
 12 11  1  0
 13 12  1  0
 14 13  2  0
 14 10  1  0
 15 16  2  0
 18 28  2  0
 18 17  1  0
 19 18  1  0
 20 21  1  0
 20 19  2  0
 21 27  2  0
 22 21  1  0
 23 22  1  1
 24 23  1  0
 24 15  1  0
 25 26  1  0
 25 23  1  0
 27 28  1  0
 29 25  2  0
M  END
$$$$
