CHY.pdb
     RDKit          3D

 29 30  0  0  1  0  0  0  0  0999 V2000
    5.6623  -15.8258   21.0688 N   0  0  0  0  0  0  0  0  0  0  0  0
    6.9932  -15.3087   20.8600 C   0  0  1  0  0  0  0  0  0  0  0  0
    7.1431  -13.8913   21.3595 C   0  0  0  0  0  0  0  0  0  0  0  0
    6.6614  -13.8128   23.1043 S   0  0  0  0  0  0  0  0  0  0  0  0
    7.9426  -16.1577   21.6238 C   0  0  0  0  0  0  0  0  0  0  0  0
    7.5600  -16.8319   22.5997 O   0  0  0  0  0  0  0  0  0  0  0  0
    9.3189  -16.2291   21.2664 N   0  0  0  0  0  0  0  0  0  0  0  0
   10.2248  -17.0420   22.0382 C   0  0  1  0  0  0  0  0  0  0  0  0
   11.2169  -17.7714   21.1228 C   0  0  0  0  0  0  0  0  0  0  0  0
   10.5497  -18.8391   20.3475 C   0  0  0  0  0  0  0  0  0  0  0  0
   10.4439  -20.1428   20.7678 C   0  0  0  0  0  0  0  0  0  0  0  0
    9.7730  -20.7863   19.7819 N   0  0  0  0  0  0  0  0  0  0  0  0
    9.4860  -19.9012   18.8046 C   0  0  0  0  0  0  0  0  0  0  0  0
    9.9676  -18.7029   19.1596 N   0  0  0  0  0  0  0  0  0  0  0  0
   11.0527  -16.1614   22.8909 C   0  0  0  0  0  0  0  0  0  0  0  0
   11.4273  -15.0582   22.4164 O   0  0  0  0  0  0  0  0  0  0  0  0
    9.7573  -16.5357   30.8912 O   0  0  0  0  0  0  0  0  0  0  0  0
   10.0643  -16.0687   29.6110 C   0  0  0  0  0  0  0  0  0  0  0  0
    9.7964  -16.9392   28.5575 C   0  0  0  0  0  0  0  0  0  0  0  0
   10.0881  -16.5125   27.2612 C   0  0  0  0  0  0  0  0  0  0  0  0
   10.6239  -15.2690   27.0360 C   0  0  0  0  0  0  0  0  0  0  0  0
   10.9290  -14.8245   25.6686 C   0  0  0  0  0  0  0  0  0  0  0  0
   12.0236  -15.6517   25.0873 C   0  0  2  0  0  0  0  0  0  0  0  0
   11.3746  -16.6146   24.1933 N   0  0  0  0  0  0  0  0  0  0  0  0
   12.9063  -16.3224   26.0401 C   0  0  0  0  0  0  0  0  0  0  0  0
   12.9639  -17.7012   26.1276 O   0  0  0  0  0  0  0  0  0  0  0  0
   10.8793  -14.4227   28.1171 C   0  0  0  0  0  0  0  0  0  0  0  0
   10.5999  -14.8215   29.4049 C   0  0  0  0  0  0  0  0  0  0  0  0
   13.6351  -15.6560   26.8032 O   0  0  0  0  0  0  0  0  0  0  0  0
  2  1  1  1
  2  3  1  0
  3  4  1  0
  5  2  1  0
  6  5  2  0
  7  5  1  0
  8 15  1  0
  8  7  1  0
  9 10  1  0
  8  9  1  6
 10 11  2  0
 12 11  1  0
 13 12  1  0
 14 13  2  0
 14 10  1  0
 15 16  2  0
 18 28  2  0
 18 17  1  0
 19 18  1  0
 20 21  1  0
 20 19  2  0
 21 27  2  0
 22 21  1  0
 23 22  1  1
 24 23  1  0
 24 15  1  0
 25 26  1  0
 25 23  1  0
 27 28  1  0
 29 25  2  0
M  END
$$$$
