CHY.pdb
     RDKit          3D

 29 30  0  0  1  0  0  0  0  0999 V2000
    7.8317  -14.8710   17.9168 N   0  0  0  0  0  0  0  0  0  0  0  0
    8.7463  -14.4779   18.9615 C   0  0  1  0  0  0  0  0  0  0  0  0
    8.5053  -13.0635   19.4331 C   0  0  0  0  0  0  0  0  0  0  0  0
    9.1731  -11.9000   18.2153 S   0  0  0  0  0  0  0  0  0  0  0  0
    8.5364  -15.3810   20.1217 C   0  0  0  0  0  0  0  0  0  0  0  0
    7.3888  -15.6966   20.4911 O   0  0  0  0  0  0  0  0  0  0  0  0
    9.6380  -15.9150   20.8486 N   0  0  0  0  0  0  0  0  0  0  0  0
    9.4103  -16.8414   21.9288 C   0  0  1  0  0  0  0  0  0  0  0  0
    9.9934  -18.2209   21.5955 C   0  0  0  0  0  0  0  0  0  0  0  0
    9.2070  -18.8979   20.5421 C   0  0  0  0  0  0  0  0  0  0  0  0
    8.0253  -19.5604   20.7708 C   0  0  0  0  0  0  0  0  0  0  0  0
    7.6355  -20.0306   19.5612 N   0  0  0  0  0  0  0  0  0  0  0  0
    8.5500  -19.6639   18.6390 C   0  0  0  0  0  0  0  0  0  0  0  0
    9.5159  -18.9660   19.2504 N   0  0  0  0  0  0  0  0  0  0  0  0
   10.1528  -16.3799   23.1220 C   0  0  0  0  0  0  0  0  0  0  0  0
   11.2752  -15.8387   22.9492 O   0  0  0  0  0  0  0  0  0  0  0  0
    5.0385  -12.6348   26.7541 O   0  0  0  0  0  0  0  0  0  0  0  0
    6.3237  -13.0896   26.4499 C   0  0  0  0  0  0  0  0  0  0  0  0
    6.5265  -13.5352   25.1461 C   0  0  0  0  0  0  0  0  0  0  0  0
    7.7963  -13.9983   24.7992 C   0  0  0  0  0  0  0  0  0  0  0  0
    8.8136  -14.0124   25.7205 C   0  0  0  0  0  0  0  0  0  0  0  0
   10.1494  -14.5011   25.3498 C   0  0  0  0  0  0  0  0  0  0  0  0
   10.2329  -15.9763   25.5421 C   0  0  2  0  0  0  0  0  0  0  0  0
    9.5539  -16.5757   24.3901 N   0  0  0  0  0  0  0  0  0  0  0  0
    9.7040  -16.4977   26.8013 C   0  0  0  0  0  0  0  0  0  0  0  0
   10.3003  -16.2049   28.0140 O   0  0  0  0  0  0  0  0  0  0  0  0
    8.5736  -13.5578   27.0190 C   0  0  0  0  0  0  0  0  0  0  0  0
    7.3291  -13.0963   27.3847 C   0  0  0  0  0  0  0  0  0  0  0  0
    8.6907  -17.2263   26.8074 O   0  0  0  0  0  0  0  0  0  0  0  0
  2  1  1  6
  2  3  1  0
  3  4  1  0
  5  2  1  0
  6  5  2  0
  7  5  1  0
  8 15  1  0
  8  7  1  0
  9 10  1  0
  8  9  1  6
 10 11  2  0
 12 11  1  0
 13 12  1  0
 14 13  2  0
 14 10  1  0
 15 16  2  0
 18 28  2  0
 18 17  1  0
 19 18  1  0
 20 21  1  0
 20 19  2  0
 21 27  2  0
 22 21  1  0
 23 22  1  1
 24 23  1  0
 24 15  1  0
 25 26  1  0
 25 23  1  0
 27 28  1  0
 29 25  2  0
M  END
$$$$
