TRH.pdb
     RDKit          3D

 29 29  0  0  1  0  0  0  0  0999 V2000
    8.5209  -12.0198   20.3181 C   0  0  0  0  0  0  0  0  0  0  0  0
    9.1447  -12.6689   19.1108 C   0  0  1  0  0  0  0  0  0  0  0  0
   10.4661  -13.0347   19.3490 O   0  0  0  0  0  0  0  0  0  0  0  0
    8.2917  -13.8823   18.7635 C   0  0  2  0  0  0  0  0  0  0  0  0
    6.9551  -13.5202   18.4065 N   0  0  0  0  0  0  0  0  0  0  0  0
    8.2886  -14.8524   19.9151 C   0  0  0  0  0  0  0  0  0  0  0  0
    7.3727  -14.8589   20.7648 O   0  0  0  0  0  0  0  0  0  0  0  0
    9.9403  -23.1854   21.2720 N   0  0  0  0  0  0  0  0  0  0  0  0
    9.4963  -22.3954   20.1557 C   0  0  0  0  0  0  0  0  0  0  0  0
    8.7636  -22.9435   19.2533 N   0  0  0  0  0  0  0  0  0  0  0  0
    9.8456  -21.0309   20.0275 N   0  0  0  0  0  0  0  0  0  0  0  0
   10.7448  -20.3838   20.9444 C   0  0  0  0  0  0  0  0  0  0  0  0
   10.1523  -19.1247   21.5372 C   0  0  0  0  0  0  0  0  0  0  0  0
    9.9857  -18.0308   20.5620 C   0  0  0  0  0  0  0  0  0  0  0  0
    9.4107  -16.7630   21.1276 C   0  0  2  0  0  0  0  0  0  0  0  0
    9.3425  -15.7628   20.0244 N   0  0  0  0  0  0  0  0  0  0  0  0
   10.2672  -16.1662   22.1669 C   0  0  0  0  0  0  0  0  0  0  0  0
   11.5029  -16.5092   22.1974 O   0  0  0  0  0  0  0  0  0  0  0  0
    8.4539  -22.4499   18.4084 N   0  0  0  0  0  0  0  0  0  0  0  0
    9.8513  -15.2499   23.1272 C   0  0  2  0  0  0  0  0  0  0  0  0
    9.7042  -15.6087   24.5531 C   0  0  0  0  0  0  0  0  0  0  0  0
    8.2534  -15.9107   24.8582 C   0  0  0  0  0  0  0  0  0  0  0  0
    7.4934  -14.6582   25.0232 C   0  0  0  0  0  0  0  0  0  0  0  0
    7.9791  -13.3461   24.9760 N   0  0  0  0  0  0  0  0  0  0  0  0
    6.9342  -12.5416   25.1766 C   0  0  0  0  0  0  0  0  0  0  0  0
    5.8062  -13.2517   25.3501 N   0  0  0  0  0  0  0  0  0  0  0  0
    6.1587  -14.5312   25.2549 C   0  0  0  0  0  0  0  0  0  0  0  0
   10.6265  -16.6908   24.8935 O   0  0  0  0  0  0  0  0  0  0  0  0
   11.6195  -16.4945   25.6375 O   0  0  0  0  0  0  0  0  0  0  0  0
  2  1  1  1
  2  4  1  0
  3  2  1  0
  4  6  1  0
  4  5  1  1
  6  7  2  0
  9  8  1  0
 10  9  2  0
 11  9  1  0
 12 13  1  0
 12 11  1  0
 13 14  1  0
 15 14  1  6
 16 15  1  0
 16  6  1  0
 17 15  1  0
 18 17  2  0
 19 17  1  0
 20 27  1  0
 20 19  1  0
 20 21  1  6
 22 21  1  0
 23 22  2  0
 24 23  1  0
 25 24  1  0
 25 26  2  0
 26 22  1  0
 27 29  1  0
 28 27  2  0
M  END
$$$$
