TRH.pdb
     RDKit          3D

 29 29  0  0  1  0  0  0  0  0999 V2000
    9.8049  -12.3899   17.9483 C   0  0  0  0  0  0  0  0  0  0  0  0
    9.6510  -13.2882   19.1471 C   0  0  1  0  0  0  0  0  0  0  0  0
    9.6510  -12.5641   20.3355 O   0  0  0  0  0  0  0  0  0  0  0  0
    8.3458  -14.0535   18.9689 C   0  0  2  0  0  0  0  0  0  0  0  0
    7.2154  -13.1822   18.8782 N   0  0  0  0  0  0  0  0  0  0  0  0
    8.1697  -15.0348   20.0974 C   0  0  0  0  0  0  0  0  0  0  0  0
    7.4213  -14.7913   21.0676 O   0  0  0  0  0  0  0  0  0  0  0  0
    8.0789  -21.6926   18.0755 N   0  0  0  0  0  0  0  0  0  0  0  0
    9.3666  -22.0127   18.6294 C   0  0  0  0  0  0  0  0  0  0  0  0
   10.1381  -22.8201   17.9934 N   0  0  0  0  0  0  0  0  0  0  0  0
    9.8042  -21.4603   19.8556 N   0  0  0  0  0  0  0  0  0  0  0  0
    8.8818  -20.9842   20.8507 C   0  0  0  0  0  0  0  0  0  0  0  0
    9.3449  -19.6955   21.4932 C   0  0  0  0  0  0  0  0  0  0  0  0
    9.3803  -18.5492   20.5658 C   0  0  0  0  0  0  0  0  0  0  0  0
    8.6336  -17.3331   21.0366 C   0  0  2  0  0  0  0  0  0  0  0  0
    8.8668  -16.2443   20.0456 N   0  0  0  0  0  0  0  0  0  0  0  0
    9.1328  -16.8251   22.3260 C   0  0  0  0  0  0  0  0  0  0  0  0
   10.1906  -16.0996   22.3171 O   0  0  0  0  0  0  0  0  0  0  0  0
   11.0839  -23.0584   18.3130 N   0  0  0  0  0  0  0  0  0  0  0  0
    8.5500  -17.0615   23.5666 C   0  0  2  0  0  0  0  0  0  0  0  0
    9.0436  -16.4280   24.8071 C   0  0  0  0  0  0  0  0  0  0  0  0
    7.8838  -16.1564   25.7399 C   0  0  0  0  0  0  0  0  0  0  0  0
    7.3541  -14.7988   25.5165 C   0  0  0  0  0  0  0  0  0  0  0  0
    7.8326  -13.8247   24.6322 N   0  0  0  0  0  0  0  0  0  0  0  0
    7.0431  -12.7585   24.7704 C   0  0  0  0  0  0  0  0  0  0  0  0
    6.0863  -12.9835   25.6873 N   0  0  0  0  0  0  0  0  0  0  0  0
    6.2860  -14.2219   26.1310 C   0  0  0  0  0  0  0  0  0  0  0  0
   10.1075  -17.2412   25.3939 O   0  0  0  0  0  0  0  0  0  0  0  0
   10.1406  -18.4872   25.2376 O   0  0  0  0  0  0  0  0  0  0  0  0
  2  1  1  6
  2  4  1  0
  3  2  1  0
  4  6  1  0
  4  5  1  1
  6  7  2  0
  9  8  1  0
 10  9  2  0
 11  9  1  0
 12 13  1  0
 12 11  1  0
 13 14  1  0
 15 14  1  6
 16 15  1  0
 16  6  1  0
 17 15  1  0
 18 17  2  0
 19 17  1  0
 20 27  1  0
 20 19  1  0
 20 21  1  6
 22 21  1  0
 23 22  2  0
 24 23  1  0
 25 24  1  0
 25 26  2  0
 26 22  1  0
 27 29  1  0
 28 27  2  0
M  END
$$$$
