TRH.pdb
     RDKit          3D

 29 29  0  0  1  0  0  0  0  0999 V2000
    5.0613  -19.7783   22.9866 C   0  0  0  0  0  0  0  0  0  0  0  0
    6.1998  -18.8136   23.1898 C   0  0  1  0  0  0  0  0  0  0  0  0
    7.1445  -19.3136   24.0809 O   0  0  0  0  0  0  0  0  0  0  0  0
    6.8170  -18.5542   21.8214 C   0  0  2  0  0  0  0  0  0  0  0  0
    7.3392  -19.7461   21.2283 N   0  0  0  0  0  0  0  0  0  0  0  0
    7.8903  -17.5041   21.9347 C   0  0  0  0  0  0  0  0  0  0  0  0
    9.0883  -17.8078   22.1174 O   0  0  0  0  0  0  0  0  0  0  0  0
    7.2691  -12.7102   17.4018 N   0  0  0  0  0  0  0  0  0  0  0  0
    8.1691  -13.7556   16.9963 C   0  0  0  0  0  0  0  0  0  0  0  0
    8.8371  -13.6185   15.9069 N   0  0  0  0  0  0  0  0  0  0  0  0
    8.3372  -14.9295   17.7669 N   0  0  0  0  0  0  0  0  0  0  0  0
    7.9274  -15.0042   19.1433 C   0  0  0  0  0  0  0  0  0  0  0  0
    8.2603  -13.7439   19.9107 C   0  0  0  0  0  0  0  0  0  0  0  0
    7.9637  -13.8313   21.3528 C   0  0  0  0  0  0  0  0  0  0  0  0
    8.5039  -15.0561   22.0353 C   0  0  2  0  0  0  0  0  0  0  0  0
    7.5234  -16.1602   21.8313 N   0  0  0  0  0  0  0  0  0  0  0  0
    8.6278  -14.8848   23.4931 C   0  0  0  0  0  0  0  0  0  0  0  0
    7.8111  -14.0854   24.0758 O   0  0  0  0  0  0  0  0  0  0  0  0
    9.4966  -14.3255   15.5625 N   0  0  0  0  0  0  0  0  0  0  0  0
    9.5600  -15.5232   24.3044 C   0  0  1  0  0  0  0  0  0  0  0  0
    9.5949  -15.3358   25.7697 C   0  0  0  0  0  0  0  0  0  0  0  0
    8.2206  -15.5862   26.3509 C   0  0  0  0  0  0  0  0  0  0  0  0
    7.4852  -14.3163   26.4922 C   0  0  0  0  0  0  0  0  0  0  0  0
    7.9732  -13.0165   26.3128 N   0  0  0  0  0  0  0  0  0  0  0  0
    6.9542  -12.1876   26.5449 C   0  0  0  0  0  0  0  0  0  0  0  0
    5.8408  -12.8704   26.8625 N   0  0  0  0  0  0  0  0  0  0  0  0
    6.1760  -14.1575   26.8270 C   0  0  0  0  0  0  0  0  0  0  0  0
   10.6522  -16.1596   26.3535 O   0  0  0  0  0  0  0  0  0  0  0  0
   10.8626  -16.1732   27.5919 O   0  0  0  0  0  0  0  0  0  0  0  0
  2  1  1  6
  2  4  1  0
  3  2  1  0
  4  6  1  0
  4  5  1  1
  6  7  2  0
  9  8  1  0
 10  9  2  0
 11  9  1  0
 12 13  1  0
 12 11  1  0
 13 14  1  0
 15 14  1  6
 16 15  1  0
 16  6  1  0
 17 15  1  0
 18 17  2  0
 19 17  1  0
 20 27  1  0
 20 19  1  0
 20 21  1  1
 22 21  1  0
 23 22  2  0
 24 23  1  0
 25 24  1  0
 25 26  2  0
 26 22  1  0
 27 29  1  0
 28 27  2  0
M  END
$$$$
