QDG.pdb
     RDKit          3D

 22 21  0  0  1  0  0  0  0  0999 V2000
   18.5887  -14.1030  -15.4915 N   0  0  0  0  0  0  0  0  0  0  0  0
   19.1149  -14.6137  -16.7137 C   0  0  0  0  0  0  0  0  0  0  0  0
   18.5109  -15.5861  -17.2190 O   0  0  0  0  0  0  0  0  0  0  0  0
   20.2960  -14.0192  -17.3224 C   0  0  0  0  0  0  0  0  0  0  0  0
   20.8837  -12.8338  -16.6728 C   0  0  0  0  0  0  0  0  0  0  0  0
   20.3225  -11.4998  -17.0269 C   0  0  2  0  0  0  0  0  0  0  0  0
   19.6729  -11.3815  -18.2744 N   0  0  0  0  0  0  0  0  0  0  0  0
   21.3974  -10.4668  -16.8854 C   0  0  0  0  0  0  0  0  0  0  0  0
   22.2191  -10.5398  -15.9095 O   0  0  0  0  0  0  0  0  0  0  0  0
   21.5377   -9.4017  -17.8049 N   0  0  0  0  0  0  0  0  0  0  0  0
   22.6547   -8.4321  -17.6908 C   0  0  1  0  0  0  0  0  0  0  0  0
   22.9886   -7.9498  -19.0987 C   0  0  0  0  0  0  0  0  0  0  0  0
   23.5410   -9.0384  -19.9284 C   0  0  0  0  0  0  0  0  0  0  0  0
   22.9379   -9.4238  -20.9941 O   0  0  0  0  0  0  0  0  0  0  0  0
   22.2359   -7.3629  -16.7809 C   0  0  0  0  0  0  0  0  0  0  0  0
   21.0346   -6.9125  -16.8744 O   0  0  0  0  0  0  0  0  0  0  0  0
   24.7174   -9.7068  -19.6301 O   0  0  0  0  0  0  0  0  0  0  0  0
   23.0354   -6.7627  -15.7882 N   0  0  0  0  0  0  0  0  0  0  0  0
   22.4668   -5.8019  -14.8755 C   0  0  0  0  0  0  0  0  0  0  0  0
   21.9379   -6.4935  -13.6852 C   0  0  0  0  0  0  0  0  0  0  0  0
   21.4735   -5.7591  -12.6152 O   0  0  0  0  0  0  0  0  0  0  0  0
   21.8884   -7.7527  -13.6010 O   0  0  0  0  0  0  0  0  0  0  0  0
  2  1  1  0
  2  3  2  0
  4  2  1  0
  5  4  1  0
  6  5  1  0
  6  7  1  6
  8  6  1  0
  8 10  1  0
  9  8  2  0
 11 10  1  0
 11 15  1  0
 12 13  1  0
 11 12  1  6
 13 14  2  0
 15 18  1  0
 16 15  2  0
 17 13  1  0
 18 19  1  0
 19 20  1  0
 20 21  1  0
 22 20  2  0
M  END
$$$$
