QDG.pdb
     RDKit          3D

 22 21  0  0  1  0  0  0  0  0999 V2000
   14.7349   -7.3836   -7.1083 N   0  0  0  0  0  0  0  0  0  0  0  0
   13.8071   -6.7617   -7.9936 C   0  0  0  0  0  0  0  0  0  0  0  0
   13.0258   -5.9256   -7.4872 O   0  0  0  0  0  0  0  0  0  0  0  0
   13.7872   -7.0995   -9.4095 C   0  0  0  0  0  0  0  0  0  0  0  0
   14.6848   -8.1718   -9.8750 C   0  0  0  0  0  0  0  0  0  0  0  0
   16.1376   -8.0401   -9.5716 C   0  0  2  0  0  0  0  0  0  0  0  0
   16.5928   -6.7828   -9.1198 N   0  0  0  0  0  0  0  0  0  0  0  0
   16.9260   -8.4970  -10.7599 C   0  0  0  0  0  0  0  0  0  0  0  0
   16.5983   -9.5778  -11.3577 O   0  0  0  0  0  0  0  0  0  0  0  0
   18.0325   -7.7658  -11.2503 N   0  0  0  0  0  0  0  0  0  0  0  0
   18.7353   -8.1776  -12.4902 C   0  0  1  0  0  0  0  0  0  0  0  0
   17.6924   -8.2696  -13.5992 C   0  0  0  0  0  0  0  0  0  0  0  0
   18.3087   -8.6071  -14.8972 C   0  0  0  0  0  0  0  0  0  0  0  0
   19.2106   -9.5168  -14.9802 O   0  0  0  0  0  0  0  0  0  0  0  0
   19.7978   -7.2039  -12.7538 C   0  0  0  0  0  0  0  0  0  0  0  0
   19.5270   -5.9521  -12.6339 O   0  0  0  0  0  0  0  0  0  0  0  0
   17.9706   -7.9874  -16.0894 O   0  0  0  0  0  0  0  0  0  0  0  0
   21.1199   -7.5069  -13.1347 N   0  0  0  0  0  0  0  0  0  0  0  0
   22.0714   -6.4497  -13.3725 C   0  0  0  0  0  0  0  0  0  0  0  0
   21.6703   -5.6722  -14.5597 C   0  0  0  0  0  0  0  0  0  0  0  0
   22.4217   -4.5860  -14.9541 O   0  0  0  0  0  0  0  0  0  0  0  0
   20.6507   -5.9633  -15.2459 O   0  0  0  0  0  0  0  0  0  0  0  0
  2  1  1  0
  2  3  2  0
  4  2  1  0
  5  4  1  0
  6  5  1  0
  6  7  1  6
  8  6  1  0
  8 10  1  0
  9  8  2  0
 11 10  1  0
 11 15  1  0
 12 13  1  0
 11 12  1  6
 13 14  2  0
 15 18  1  0
 16 15  2  0
 17 13  1  0
 18 19  1  0
 19 20  1  0
 20 21  1  0
 22 20  2  0
M  END
$$$$
