QDG.pdb
     RDKit          3D

 22 21  0  0  1  0  0  0  0  0999 V2000
   16.9019  -11.5319  -16.9852 N   0  0  0  0  0  0  0  0  0  0  0  0
   18.1124  -12.2043  -16.6478 C   0  0  0  0  0  0  0  0  0  0  0  0
   17.9986  -13.3608  -16.1837 O   0  0  0  0  0  0  0  0  0  0  0  0
   19.4024  -11.5578  -16.8403 C   0  0  0  0  0  0  0  0  0  0  0  0
   19.8012  -10.5149  -15.8782 C   0  0  0  0  0  0  0  0  0  0  0  0
   21.1584   -9.9182  -16.0258 C   0  0  2  0  0  0  0  0  0  0  0  0
   22.2653  -10.7656  -15.8049 N   0  0  0  0  0  0  0  0  0  0  0  0
   21.2464   -8.6923  -15.1703 C   0  0  0  0  0  0  0  0  0  0  0  0
   21.9454   -8.7172  -14.1009 O   0  0  0  0  0  0  0  0  0  0  0  0
   20.5764   -7.4938  -15.5084 N   0  0  0  0  0  0  0  0  0  0  0  0
   20.7002   -6.2811  -14.6629 C   0  0  1  0  0  0  0  0  0  0  0  0
   22.1876   -6.0274  -14.4403 C   0  0  0  0  0  0  0  0  0  0  0  0
   22.4167   -4.8041  -13.6468 C   0  0  0  0  0  0  0  0  0  0  0  0
   23.1325   -3.8444  -14.1097 O   0  0  0  0  0  0  0  0  0  0  0  0
   20.0057   -5.1832  -15.3403 C   0  0  0  0  0  0  0  0  0  0  0  0
   20.4236   -4.8149  -16.4997 O   0  0  0  0  0  0  0  0  0  0  0  0
   21.8919   -4.6038  -12.3801 O   0  0  0  0  0  0  0  0  0  0  0  0
   18.8981   -4.4719  -14.8383 N   0  0  0  0  0  0  0  0  0  0  0  0
   18.4114   -3.3004  -15.5240 C   0  0  0  0  0  0  0  0  0  0  0  0
   17.3525   -3.6812  -16.4771 C   0  0  0  0  0  0  0  0  0  0  0  0
   16.7266   -2.7114  -17.2304 O   0  0  0  0  0  0  0  0  0  0  0  0
   16.9873   -4.8794  -16.6388 O   0  0  0  0  0  0  0  0  0  0  0  0
  2  1  1  0
  2  3  2  0
  4  2  1  0
  5  4  1  0
  6  5  1  0
  6  7  1  1
  8  6  1  0
  8 10  1  0
  9  8  2  0
 11 10  1  0
 11 15  1  0
 12 13  1  0
 11 12  1  6
 13 14  2  0
 15 18  1  0
 16 15  2  0
 17 13  1  0
 18 19  1  0
 19 20  1  0
 20 21  1  0
 22 20  2  0
M  END
$$$$
