QDG.pdb
     RDKit          3D

 22 21  0  0  1  0  0  0  0  0999 V2000
   15.8349  -12.4590  -16.3459 N   0  0  0  0  0  0  0  0  0  0  0  0
   17.1017  -13.1066  -16.4318 C   0  0  0  0  0  0  0  0  0  0  0  0
   17.1078  -14.2603  -16.9163 O   0  0  0  0  0  0  0  0  0  0  0  0
   18.3116  -12.4407  -15.9715 C   0  0  0  0  0  0  0  0  0  0  0  0
   18.1782  -11.0922  -15.3917 C   0  0  0  0  0  0  0  0  0  0  0  0
   18.1930   -9.9316  -16.3259 C   0  0  2  0  0  0  0  0  0  0  0  0
   18.9855  -10.0467  -17.4883 N   0  0  0  0  0  0  0  0  0  0  0  0
   18.5473   -8.6949  -15.5595 C   0  0  0  0  0  0  0  0  0  0  0  0
   17.9718   -8.4566  -14.4438 O   0  0  0  0  0  0  0  0  0  0  0  0
   19.5082   -7.7711  -16.0317 N   0  0  0  0  0  0  0  0  0  0  0  0
   19.8326   -6.5428  -15.2655 C   0  0  1  0  0  0  0  0  0  0  0  0
   21.3119   -6.6080  -14.9000 C   0  0  0  0  0  0  0  0  0  0  0  0
   21.5657   -7.6033  -13.8400 C   0  0  0  0  0  0  0  0  0  0  0  0
   21.0941   -7.4393  -12.6574 O   0  0  0  0  0  0  0  0  0  0  0  0
   19.4755   -5.3861  -16.0907 C   0  0  0  0  0  0  0  0  0  0  0  0
   19.8502   -5.3706  -17.3211 O   0  0  0  0  0  0  0  0  0  0  0  0
   22.3090   -8.7564  -14.0346 O   0  0  0  0  0  0  0  0  0  0  0  0
   18.7445   -4.2604  -15.6628 N   0  0  0  0  0  0  0  0  0  0  0  0
   18.3765   -3.2293  -16.6013 C   0  0  0  0  0  0  0  0  0  0  0  0
   19.5329   -2.3516  -16.8606 C   0  0  0  0  0  0  0  0  0  0  0  0
   19.3881   -1.2490  -17.6749 O   0  0  0  0  0  0  0  0  0  0  0  0
   20.6717   -2.5677  -16.3589 O   0  0  0  0  0  0  0  0  0  0  0  0
  2  1  1  0
  2  3  2  0
  4  2  1  0
  5  4  1  0
  6  5  1  0
  6  7  1  6
  8  6  1  0
  8 10  1  0
  9  8  2  0
 11 10  1  0
 11 15  1  0
 12 13  1  0
 11 12  1  6
 13 14  2  0
 15 18  1  0
 16 15  2  0
 17 13  1  0
 18 19  1  0
 19 20  1  0
 20 21  1  0
 22 20  2  0
M  END
$$$$
