QDG.pdb
     RDKit          3D

 22 21  0  0  1  0  0  0  0  0999 V2000
   19.4217  -13.7323  -19.2838 N   0  0  0  0  0  0  0  0  0  0  0  0
   19.7019  -14.5395  -18.1431 C   0  0  0  0  0  0  0  0  0  0  0  0
   19.1434  -15.6584  -18.0995 O   0  0  0  0  0  0  0  0  0  0  0  0
   20.5936  -14.0645  -17.0951 C   0  0  0  0  0  0  0  0  0  0  0  0
   21.1538  -12.7078  -17.2292 C   0  0  0  0  0  0  0  0  0  0  0  0
   20.5638  -11.6283  -16.3887 C   0  0  2  0  0  0  0  0  0  0  0  0
   19.1584  -11.4975  -16.3962 N   0  0  0  0  0  0  0  0  0  0  0  0
   21.2220  -10.3283  -16.7342 C   0  0  0  0  0  0  0  0  0  0  0  0
   22.4868  -10.2055  -16.6000 O   0  0  0  0  0  0  0  0  0  0  0  0
   20.4850   -9.2193  -17.2101 N   0  0  0  0  0  0  0  0  0  0  0  0
   21.1319   -7.9004  -17.4175 C   0  0  1  0  0  0  0  0  0  0  0  0
   20.7576   -7.4212  -18.8162 C   0  0  0  0  0  0  0  0  0  0  0  0
   21.4102   -8.2340  -19.8611 C   0  0  0  0  0  0  0  0  0  0  0  0
   20.7150   -8.9594  -20.6600 O   0  0  0  0  0  0  0  0  0  0  0  0
   20.6902   -7.0052  -16.3452 C   0  0  0  0  0  0  0  0  0  0  0  0
   19.4305   -6.9145  -16.1010 O   0  0  0  0  0  0  0  0  0  0  0  0
   22.7817   -8.2743  -20.0545 O   0  0  0  0  0  0  0  0  0  0  0  0
   21.5261   -6.2134  -15.5333 N   0  0  0  0  0  0  0  0  0  0  0  0
   20.9697   -5.4302  -14.4579 C   0  0  0  0  0  0  0  0  0  0  0  0
   22.0543   -4.7866  -13.6935 C   0  0  0  0  0  0  0  0  0  0  0  0
   21.7485   -3.9166  -12.6691 O   0  0  0  0  0  0  0  0  0  0  0  0
   23.2743   -5.0022  -13.9385 O   0  0  0  0  0  0  0  0  0  0  0  0
  2  1  1  0
  2  3  2  0
  4  2  1  0
  5  4  1  0
  6  5  1  0
  6  7  1  6
  8  6  1  0
  8 10  1  0
  9  8  2  0
 11 10  1  0
 11 15  1  0
 12 13  1  0
 11 12  1  6
 13 14  2  0
 15 18  1  0
 16 15  2  0
 17 13  1  0
 18 19  1  0
 19 20  1  0
 20 21  1  0
 22 20  2  0
M  END
$$$$
