QDG.pdb
     RDKit          3D

 22 21  0  0  1  0  0  0  0  0999 V2000
   14.6455  -13.4060  -13.6098 N   0  0  0  0  0  0  0  0  0  0  0  0
   13.4036  -12.7609  -13.8801 C   0  0  0  0  0  0  0  0  0  0  0  0
   12.3791  -13.2990  -13.4039 O   0  0  0  0  0  0  0  0  0  0  0  0
   13.3547  -11.5412  -14.6732 C   0  0  0  0  0  0  0  0  0  0  0  0
   14.6309  -10.9723  -15.1422 C   0  0  0  0  0  0  0  0  0  0  0  0
   15.4457  -10.1983  -14.1639 C   0  0  2  0  0  0  0  0  0  0  0  0
   14.8218   -9.1067  -13.5226 N   0  0  0  0  0  0  0  0  0  0  0  0
   16.7209   -9.7717  -14.8229 C   0  0  0  0  0  0  0  0  0  0  0  0
   17.4026  -10.6223  -15.4898 O   0  0  0  0  0  0  0  0  0  0  0  0
   17.2026   -8.4452  -14.7332 N   0  0  0  0  0  0  0  0  0  0  0  0
   18.4505   -8.0341  -15.4220 C   0  0  1  0  0  0  0  0  0  0  0  0
   18.0767   -6.9764  -16.4552 C   0  0  0  0  0  0  0  0  0  0  0  0
   17.2579   -7.5460  -17.5433 C   0  0  0  0  0  0  0  0  0  0  0  0
   17.6067   -8.6343  -18.1280 O   0  0  0  0  0  0  0  0  0  0  0  0
   19.3953   -7.5636  -14.4060 C   0  0  0  0  0  0  0  0  0  0  0  0
   18.9315   -6.9615  -13.3682 O   0  0  0  0  0  0  0  0  0  0  0  0
   16.0854   -6.9678  -18.0022 O   0  0  0  0  0  0  0  0  0  0  0  0
   20.7960   -7.7074  -14.4509 N   0  0  0  0  0  0  0  0  0  0  0  0
   21.6142   -7.2271  -13.3649 C   0  0  0  0  0  0  0  0  0  0  0  0
   21.6739   -5.7538  -13.3960 C   0  0  0  0  0  0  0  0  0  0  0  0
   22.4715   -5.0807  -12.4957 O   0  0  0  0  0  0  0  0  0  0  0  0
   21.0159   -5.0679  -14.2276 O   0  0  0  0  0  0  0  0  0  0  0  0
  2  1  1  0
  2  3  2  0
  4  2  1  0
  5  4  1  0
  6  5  1  0
  6  7  1  6
  8  6  1  0
  8 10  1  0
  9  8  2  0
 11 10  1  0
 11 15  1  0
 12 13  1  0
 11 12  1  6
 13 14  2  0
 15 18  1  0
 16 15  2  0
 17 13  1  0
 18 19  1  0
 19 20  1  0
 20 21  1  0
 22 20  2  0
M  END
$$$$
