QDG.pdb
     RDKit          3D

 22 21  0  0  1  0  0  0  0  0999 V2000
   15.4947  -12.4614  -11.8182 N   0  0  0  0  0  0  0  0  0  0  0  0
   14.0793  -12.3049  -11.7590 C   0  0  0  0  0  0  0  0  0  0  0  0
   13.4064  -13.3517  -11.6273 O   0  0  0  0  0  0  0  0  0  0  0  0
   13.4710  -10.9856  -11.8510 C   0  0  0  0  0  0  0  0  0  0  0  0
   14.3651   -9.8231  -11.9985 C   0  0  0  0  0  0  0  0  0  0  0  0
   13.7388   -8.4744  -12.0909 C   0  0  2  0  0  0  0  0  0  0  0  0
   12.8076   -8.2633  -13.1305 N   0  0  0  0  0  0  0  0  0  0  0  0
   14.8190   -7.4378  -12.1241 C   0  0  0  0  0  0  0  0  0  0  0  0
   15.0370   -6.7870  -13.2020 O   0  0  0  0  0  0  0  0  0  0  0  0
   15.6148   -7.1494  -10.9914 N   0  0  0  0  0  0  0  0  0  0  0  0
   16.5899   -6.0314  -11.0035 C   0  0  1  0  0  0  0  0  0  0  0  0
   16.2458   -5.1105   -9.8374 C   0  0  0  0  0  0  0  0  0  0  0  0
   17.1115   -3.9152   -9.8161 C   0  0  0  0  0  0  0  0  0  0  0  0
   16.9777   -3.0226   -8.9034 O   0  0  0  0  0  0  0  0  0  0  0  0
   17.9366   -6.6034  -10.9307 C   0  0  0  0  0  0  0  0  0  0  0  0
   18.2212   -7.3807   -9.9461 O   0  0  0  0  0  0  0  0  0  0  0  0
   18.1054   -3.6730  -10.7507 O   0  0  0  0  0  0  0  0  0  0  0  0
   18.9785   -6.3834  -11.8532 N   0  0  0  0  0  0  0  0  0  0  0  0
   20.2550   -7.0317  -11.6807 C   0  0  0  0  0  0  0  0  0  0  0  0
   20.3658   -8.1746  -12.6062 C   0  0  0  0  0  0  0  0  0  0  0  0
   21.5471   -8.8801  -12.6862 O   0  0  0  0  0  0  0  0  0  0  0  0
   19.4080   -8.5444  -13.3417 O   0  0  0  0  0  0  0  0  0  0  0  0
  2  1  1  0
  2  3  2  0
  4  2  1  0
  5  4  1  0
  6  5  1  0
  6  7  1  6
  8  6  1  0
  8 10  1  0
  9  8  2  0
 11 10  1  0
 11 15  1  0
 12 13  1  0
 11 12  1  1
 13 14  2  0
 15 18  1  0
 16 15  2  0
 17 13  1  0
 18 19  1  0
 19 20  1  0
 20 21  1  0
 22 20  2  0
M  END
$$$$
