QDG.pdb
     RDKit          3D

 22 21  0  0  1  0  0  0  0  0999 V2000
   24.9865  -20.8370   -8.3116 N   0  0  0  0  0  0  0  0  0  0  0  0
   26.2234  -20.6462   -8.9936 C   0  0  0  0  0  0  0  0  0  0  0  0
   27.2551  -20.6297   -8.2857 O   0  0  0  0  0  0  0  0  0  0  0  0
   26.2591  -20.4795  -10.4393 C   0  0  0  0  0  0  0  0  0  0  0  0
   24.9741  -20.4330  -11.1598 C   0  0  0  0  0  0  0  0  0  0  0  0
   24.8621  -21.2073  -12.4278 C   0  0  2  0  0  0  0  0  0  0  0  0
   26.0029  -21.9217  -12.8526 N   0  0  0  0  0  0  0  0  0  0  0  0
   24.3686  -20.2983  -13.5107 C   0  0  0  0  0  0  0  0  0  0  0  0
   23.5582  -19.3535  -13.2217 O   0  0  0  0  0  0  0  0  0  0  0  0
   24.7731  -20.4496  -14.8572 N   0  0  0  0  0  0  0  0  0  0  0  0
   24.1985  -19.6018  -15.9305 C   0  0  1  0  0  0  0  0  0  0  0  0
   25.1236  -19.7026  -17.1389 C   0  0  0  0  0  0  0  0  0  0  0  0
   26.4619  -19.1536  -16.8452 C   0  0  0  0  0  0  0  0  0  0  0  0
   26.5945  -17.9886  -16.3227 O   0  0  0  0  0  0  0  0  0  0  0  0
   22.8319  -20.0620  -16.1892 C   0  0  0  0  0  0  0  0  0  0  0  0
   22.6658  -21.1393  -16.8722 O   0  0  0  0  0  0  0  0  0  0  0  0
   27.6416  -19.8333  -17.1022 O   0  0  0  0  0  0  0  0  0  0  0  0
   21.6509  -19.4287  -15.7546 N   0  0  0  0  0  0  0  0  0  0  0  0
   20.3623  -19.9144  -16.1826 C   0  0  0  0  0  0  0  0  0  0  0  0
   19.2918  -19.1624  -15.5019 C   0  0  0  0  0  0  0  0  0  0  0  0
   17.9718  -19.4435  -15.7815 O   0  0  0  0  0  0  0  0  0  0  0  0
   19.5346  -18.2560  -14.6565 O   0  0  0  0  0  0  0  0  0  0  0  0
  2  1  1  0
  2  3  2  0
  4  2  1  0
  5  4  1  0
  6  5  1  0
  6  7  1  6
  8  6  1  0
  8 10  1  0
  9  8  2  0
 11 10  1  0
 11 15  1  0
 12 13  1  0
 11 12  1  6
 13 14  2  0
 15 18  1  0
 16 15  2  0
 17 13  1  0
 18 19  1  0
 19 20  1  0
 20 21  1  0
 22 20  2  0
M  END
$$$$
