QDG.pdb
     RDKit          3D

 22 21  0  0  1  0  0  0  0  0999 V2000
   27.3261  -12.7955  -15.6834 N   0  0  0  0  0  0  0  0  0  0  0  0
   26.4834  -13.6824  -16.4146 C   0  0  0  0  0  0  0  0  0  0  0  0
   27.0058  -14.7466  -16.8151 O   0  0  0  0  0  0  0  0  0  0  0  0
   25.0908  -13.3449  -16.6713 C   0  0  0  0  0  0  0  0  0  0  0  0
   24.5749  -12.0797  -16.1185 C   0  0  0  0  0  0  0  0  0  0  0  0
   23.1483  -11.7394  -16.3808 C   0  0  2  0  0  0  0  0  0  0  0  0
   22.4355  -12.5768  -17.2656 N   0  0  0  0  0  0  0  0  0  0  0  0
   23.0614  -10.3087  -16.8144 C   0  0  0  0  0  0  0  0  0  0  0  0
   23.3940   -9.9885  -18.0059 O   0  0  0  0  0  0  0  0  0  0  0  0
   22.6180   -9.2878  -15.9423 N   0  0  0  0  0  0  0  0  0  0  0  0
   22.4383   -7.8950  -16.4205 C   0  0  1  0  0  0  0  0  0  0  0  0
   21.4657   -7.9354  -17.5946 C   0  0  0  0  0  0  0  0  0  0  0  0
   21.1929   -6.5833  -18.1201 C   0  0  0  0  0  0  0  0  0  0  0  0
   20.1428   -5.9379  -17.7614 O   0  0  0  0  0  0  0  0  0  0  0  0
   21.9731   -7.0846  -15.2921 C   0  0  0  0  0  0  0  0  0  0  0  0
   21.2836   -7.6561  -14.3687 O   0  0  0  0  0  0  0  0  0  0  0  0
   22.0245   -5.9267  -19.0130 O   0  0  0  0  0  0  0  0  0  0  0  0
   22.2105   -5.7078  -15.1105 N   0  0  0  0  0  0  0  0  0  0  0  0
   21.7026   -5.0271  -13.9451 C   0  0  0  0  0  0  0  0  0  0  0  0
   22.0995   -3.6072  -13.9813 C   0  0  0  0  0  0  0  0  0  0  0  0
   22.8770   -3.1388  -15.0185 O   0  0  0  0  0  0  0  0  0  0  0  0
   21.7508   -2.7847  -13.0886 O   0  0  0  0  0  0  0  0  0  0  0  0
  2  1  1  0
  2  3  2  0
  4  2  1  0
  5  4  1  0
  6  5  1  0
  6  7  1  6
  8  6  1  0
  8 10  1  0
  9  8  2  0
 11 10  1  0
 11 15  1  0
 12 13  1  0
 11 12  1  6
 13 14  2  0
 15 18  1  0
 16 15  2  0
 17 13  1  0
 18 19  1  0
 19 20  1  0
 20 21  1  0
 22 20  2  0
M  END
$$$$
