LYN.pdb
     RDKit          3D

 29 29  0  0  1  0  0  0  0  0999 V2000
   28.0879  -19.8495  -19.1429 C   0  0  0  0  0  0  0  0  0  0  0  0
   27.2277  -21.0597  -19.4458 C   0  0  2  0  0  0  0  0  0  0  0  0
   26.4427  -20.9238  -20.7084 C   0  0  0  0  0  0  0  0  0  0  0  0
   26.3593  -21.2949  -18.2232 C   0  0  0  0  0  0  0  0  0  0  0  0
   27.2767  -21.8058  -17.1344 C   0  0  2  0  0  0  0  0  0  0  0  0
   27.8201  -23.0732  -17.6241 N   0  0  0  0  0  0  0  0  0  0  0  0
   26.5974  -21.9912  -15.8510 C   0  0  0  0  0  0  0  0  0  0  0  0
   25.8084  -22.9560  -15.7133 O   0  0  0  0  0  0  0  0  0  0  0  0
   24.8571  -20.1188   -7.2254 O   0  0  0  0  0  0  0  0  0  0  0  0
   25.3789  -20.2262   -8.5061 C   0  0  0  0  0  0  0  0  0  0  0  0
   26.3406  -21.1742   -8.8024 C   0  0  0  0  0  0  0  0  0  0  0  0
   26.8406  -21.2568  -10.0854 C   0  0  0  0  0  0  0  0  0  0  0  0
   26.4352  -20.4412  -11.1047 C   0  0  0  0  0  0  0  0  0  0  0  0
   26.9471  -20.5100  -12.4562 C   0  0  0  0  0  0  0  0  0  0  0  0
   26.1716  -21.2399  -13.4821 C   0  0  2  0  0  0  0  0  0  0  0  0
   26.8422  -21.0843  -14.7966 N   0  0  0  0  0  0  0  0  0  0  0  0
   24.7698  -20.8735  -13.7022 C   0  0  0  0  0  0  0  0  0  0  0  0
   24.4602  -19.8680  -14.4519 O   0  0  0  0  0  0  0  0  0  0  0  0
   25.4603  -19.4892  -10.7797 C   0  0  0  0  0  0  0  0  0  0  0  0
   24.9420  -19.3803   -9.5136 C   0  0  0  0  0  0  0  0  0  0  0  0
   19.5624  -20.5487  -13.8661 N   0  0  0  0  0  0  0  0  0  0  0  0
   20.0635  -21.8530  -14.1629 C   0  0  0  0  0  0  0  0  0  0  0  0
   19.2558  -22.6676  -14.6264 O   0  0  0  0  0  0  0  0  0  0  0  0
   21.4712  -22.1807  -13.9195 C   0  0  0  0  0  0  0  0  0  0  0  0
   22.2768  -21.0445  -13.3678 C   0  0  2  0  0  0  0  0  0  0  0  0
   23.6435  -21.5431  -13.1583 N   0  0  0  0  0  0  0  0  0  0  0  0
   21.7482  -20.4186  -12.1597 C   0  0  0  0  0  0  0  0  0  0  0  0
   22.1402  -20.6525  -10.9752 O   0  0  0  0  0  0  0  0  0  0  0  0
   20.7223  -19.4767  -12.2859 O   0  0  0  0  0  0  0  0  0  0  0  0
  2  1  1  1
  2  3  1  0
  2  4  1  0
  5  4  1  0
  5  7  1  0
  5  6  1  6
  7  8  2  0
  9 10  1  0
 10 11  2  0
 10 20  1  0
 11 12  1  0
 12 13  2  0
 13 14  1  0
 15 14  1  1
 15 17  1  0
 16 15  1  0
 16  7  1  0
 17 18  2  0
 17 26  1  0
 19 13  1  0
 20 19  2  0
 21 22  1  0
 22 24  1  0
 23 22  2  0
 25 24  1  1
 25 27  1  0
 26 25  1  0
 27 28  2  0
 27 29  1  0
M  END
$$$$
