LYN.pdb
     RDKit          3D

 29 29  0  0  1  0  0  0  0  0999 V2000
   28.1286  -21.6016   -9.8214 C   0  0  0  0  0  0  0  0  0  0  0  0
   28.5461  -21.4515  -11.2703 C   0  0  2  0  0  0  0  0  0  0  0  0
   29.9266  -20.9067  -11.4326 C   0  0  0  0  0  0  0  0  0  0  0  0
   27.4840  -20.6023  -11.9447 C   0  0  0  0  0  0  0  0  0  0  0  0
   26.1667  -21.3175  -11.7417 C   0  0  2  0  0  0  0  0  0  0  0  0
   26.3329  -22.6472  -12.3296 N   0  0  0  0  0  0  0  0  0  0  0  0
   25.0334  -20.6174  -12.3485 C   0  0  0  0  0  0  0  0  0  0  0  0
   24.7328  -19.4723  -11.9353 O   0  0  0  0  0  0  0  0  0  0  0  0
   19.7072  -18.0438  -18.9496 O   0  0  0  0  0  0  0  0  0  0  0  0
   20.6317  -18.6391  -18.1042 C   0  0  0  0  0  0  0  0  0  0  0  0
   20.5394  -19.9813  -17.7856 C   0  0  0  0  0  0  0  0  0  0  0  0
   21.4739  -20.5451  -16.9420 C   0  0  0  0  0  0  0  0  0  0  0  0
   22.5086  -19.8436  -16.3891 C   0  0  0  0  0  0  0  0  0  0  0  0
   23.4982  -20.4147  -15.5015 C   0  0  0  0  0  0  0  0  0  0  0  0
   23.1851  -20.5403  -14.0618 C   0  0  2  0  0  0  0  0  0  0  0  0
   24.3028  -21.2416  -13.3833 N   0  0  0  0  0  0  0  0  0  0  0  0
   21.9664  -21.2495  -13.6625 C   0  0  0  0  0  0  0  0  0  0  0  0
   22.0252  -22.4549  -13.2014 O   0  0  0  0  0  0  0  0  0  0  0  0
   22.5807  -18.4860  -16.7269 C   0  0  0  0  0  0  0  0  0  0  0  0
   21.6676  -17.8938  -17.5631 C   0  0  0  0  0  0  0  0  0  0  0  0
   17.4449  -22.8061  -11.8363 N   0  0  0  0  0  0  0  0  0  0  0  0
   18.6338  -22.4793  -11.1150 C   0  0  0  0  0  0  0  0  0  0  0  0
   18.6675  -22.8024   -9.9213 O   0  0  0  0  0  0  0  0  0  0  0  0
   19.7433  -21.7940  -11.7841 C   0  0  0  0  0  0  0  0  0  0  0  0
   19.4948  -21.4971  -13.2314 C   0  0  2  0  0  0  0  0  0  0  0  0
   20.6481  -20.7286  -13.7210 N   0  0  0  0  0  0  0  0  0  0  0  0
   18.2375  -20.8201  -13.5343 C   0  0  0  0  0  0  0  0  0  0  0  0
   18.0059  -19.5835  -13.3659 O   0  0  0  0  0  0  0  0  0  0  0  0
   17.1797  -21.5715  -14.0559 O   0  0  0  0  0  0  0  0  0  0  0  0
  2  1  1  1
  2  3  1  0
  2  4  1  0
  5  4  1  0
  5  7  1  0
  5  6  1  6
  7  8  2  0
  9 10  1  0
 10 11  2  0
 10 20  1  0
 11 12  1  0
 12 13  2  0
 13 14  1  0
 15 14  1  6
 15 17  1  0
 16 15  1  0
 16  7  1  0
 17 18  2  0
 17 26  1  0
 19 13  1  0
 20 19  2  0
 21 22  1  0
 22 24  1  0
 23 22  2  0
 25 24  1  1
 25 27  1  0
 26 25  1  0
 27 28  2  0
 27 29  1  0
M  END
$$$$
