LYN.pdb
     RDKit          3D

 29 29  0  0  1  0  0  0  0  0999 V2000
   24.4157  -21.1212   -9.4921 C   0  0  0  0  0  0  0  0  0  0  0  0
   25.9198  -20.9456   -9.4364 C   0  0  2  0  0  0  0  0  0  0  0  0
   26.3784  -20.1637   -8.2502 C   0  0  0  0  0  0  0  0  0  0  0  0
   26.3361  -20.3272  -10.7587 C   0  0  0  0  0  0  0  0  0  0  0  0
   25.7393  -21.1923  -11.8464 C   0  0  2  0  0  0  0  0  0  0  0  0
   26.8561  -21.9348  -12.4320 N   0  0  0  0  0  0  0  0  0  0  0  0
   25.0321  -20.4215  -12.8704 C   0  0  0  0  0  0  0  0  0  0  0  0
   25.4762  -19.2965  -13.2010 O   0  0  0  0  0  0  0  0  0  0  0  0
   20.6499  -19.1215  -20.4362 O   0  0  0  0  0  0  0  0  0  0  0  0
   21.3156  -19.5638  -19.3027 C   0  0  0  0  0  0  0  0  0  0  0  0
   22.5195  -19.0001  -18.9225 C   0  0  0  0  0  0  0  0  0  0  0  0
   23.1581  -19.4613  -17.7901 C   0  0  0  0  0  0  0  0  0  0  0  0
   22.6635  -20.4633  -17.0028 C   0  0  0  0  0  0  0  0  0  0  0  0
   23.3172  -20.9626  -15.8126 C   0  0  0  0  0  0  0  0  0  0  0  0
   23.1530  -20.2271  -14.5403 C   0  0  2  0  0  0  0  0  0  0  0  0
   23.8680  -20.9568  -13.4643 N   0  0  0  0  0  0  0  0  0  0  0  0
   21.7997  -19.9885  -14.0312 C   0  0  0  0  0  0  0  0  0  0  0  0
   21.2542  -20.8097  -13.1964 O   0  0  0  0  0  0  0  0  0  0  0  0
   21.4429  -21.0182  -17.4086 C   0  0  0  0  0  0  0  0  0  0  0  0
   20.7816  -20.5829  -18.5296 C   0  0  0  0  0  0  0  0  0  0  0  0
   17.8641  -16.5691  -11.8608 N   0  0  0  0  0  0  0  0  0  0  0  0
   18.0049  -16.9237  -13.2374 C   0  0  0  0  0  0  0  0  0  0  0  0
   16.9725  -16.9306  -13.9191 O   0  0  0  0  0  0  0  0  0  0  0  0
   19.3219  -17.2583  -13.7869 C   0  0  0  0  0  0  0  0  0  0  0  0
   19.6334  -18.7237  -13.7789 C   0  0  2  0  0  0  0  0  0  0  0  0
   20.9715  -18.8861  -14.3652 N   0  0  0  0  0  0  0  0  0  0  0  0
   18.6561  -19.5845  -14.4382 C   0  0  0  0  0  0  0  0  0  0  0  0
   18.5983  -19.8156  -15.6850 O   0  0  0  0  0  0  0  0  0  0  0  0
   17.6888  -20.2231  -13.6558 O   0  0  0  0  0  0  0  0  0  0  0  0
  2  1  1  6
  2  3  1  0
  2  4  1  0
  5  4  1  0
  5  7  1  0
  5  6  1  6
  7  8  2  0
  9 10  1  0
 10 11  2  0
 10 20  1  0
 11 12  1  0
 12 13  2  0
 13 14  1  0
 15 14  1  6
 15 17  1  0
 16 15  1  0
 16  7  1  0
 17 18  2  0
 17 26  1  0
 19 13  1  0
 20 19  2  0
 21 22  1  0
 22 24  1  0
 23 22  2  0
 25 24  1  6
 25 27  1  0
 26 25  1  0
 27 28  2  0
 27 29  1  0
M  END
$$$$
