LYN.pdb
     RDKit          3D

 29 29  0  0  1  0  0  0  0  0999 V2000
   22.9989  -29.4824  -23.2528 C   0  0  0  0  0  0  0  0  0  0  0  0
   24.0708  -29.2266  -22.2127 C   0  0  2  0  0  0  0  0  0  0  0  0
   25.1363  -28.2920  -22.6818 C   0  0  0  0  0  0  0  0  0  0  0  0
   24.6064  -30.5841  -21.7951 C   0  0  0  0  0  0  0  0  0  0  0  0
   25.8119  -30.3216  -20.9200 C   0  0  2  0  0  0  0  0  0  0  0  0
   26.9012  -31.1224  -21.4802 N   0  0  0  0  0  0  0  0  0  0  0  0
   25.5859  -30.6603  -19.5140 C   0  0  0  0  0  0  0  0  0  0  0  0
   25.5352  -31.8675  -19.1788 O   0  0  0  0  0  0  0  0  0  0  0  0
   30.7190  -33.2544  -16.5462 O   0  0  0  0  0  0  0  0  0  0  0  0
   29.6461  -32.3771  -16.4884 C   0  0  0  0  0  0  0  0  0  0  0  0
   28.5240  -32.6782  -15.7390 C   0  0  0  0  0  0  0  0  0  0  0  0
   27.4728  -31.7858  -15.7010 C   0  0  0  0  0  0  0  0  0  0  0  0
   27.4717  -30.5956  -16.3734 C   0  0  0  0  0  0  0  0  0  0  0  0
   26.3801  -29.6465  -16.3483 C   0  0  0  0  0  0  0  0  0  0  0  0
   25.1625  -29.9304  -17.1379 C   0  0  2  0  0  0  0  0  0  0  0  0
   25.4300  -29.6259  -18.5653 N   0  0  0  0  0  0  0  0  0  0  0  0
   23.9225  -29.2246  -16.8036 C   0  0  0  0  0  0  0  0  0  0  0  0
   23.9138  -27.9418  -16.6509 O   0  0  0  0  0  0  0  0  0  0  0  0
   28.6194  -30.3133  -17.1254 C   0  0  0  0  0  0  0  0  0  0  0  0
   29.6827  -31.1791  -17.1847 C   0  0  0  0  0  0  0  0  0  0  0  0
   18.1589  -28.6903  -17.1027 N   0  0  0  0  0  0  0  0  0  0  0  0
   19.4252  -28.0352  -17.1908 C   0  0  0  0  0  0  0  0  0  0  0  0
   19.4271  -26.8059  -17.0517 O   0  0  0  0  0  0  0  0  0  0  0  0
   20.6459  -28.8089  -17.4351 C   0  0  0  0  0  0  0  0  0  0  0  0
   21.4790  -29.0390  -16.2113 C   0  0  2  0  0  0  0  0  0  0  0  0
   22.6498  -29.8254  -16.6250 N   0  0  0  0  0  0  0  0  0  0  0  0
   20.7925  -29.6608  -15.0831 C   0  0  0  0  0  0  0  0  0  0  0  0
   20.7110  -29.1783  -13.9119 O   0  0  0  0  0  0  0  0  0  0  0  0
   20.1609  -30.8931  -15.2785 O   0  0  0  0  0  0  0  0  0  0  0  0
  2  1  1  6
  2  3  1  0
  2  4  1  0
  5  4  1  0
  5  7  1  0
  5  6  1  6
  7  8  2  0
  9 10  1  0
 10 11  2  0
 10 20  1  0
 11 12  1  0
 12 13  2  0
 13 14  1  0
 15 14  1  1
 15 17  1  0
 16 15  1  0
 16  7  1  0
 17 18  2  0
 17 26  1  0
 19 13  1  0
 20 19  2  0
 21 22  1  0
 22 24  1  0
 23 22  2  0
 25 24  1  6
 25 27  1  0
 26 25  1  0
 27 28  2  0
 27 29  1  0
M  END
$$$$
