LYN.pdb
     RDKit          3D

 29 29  0  0  1  0  0  0  0  0999 V2000
   21.5987  -14.7364  -18.9832 C   0  0  0  0  0  0  0  0  0  0  0  0
   21.5357  -15.7078  -20.1446 C   0  0  2  0  0  0  0  0  0  0  0  0
   20.3293  -15.5214  -21.0041 C   0  0  0  0  0  0  0  0  0  0  0  0
   21.6401  -17.1020  -19.5534 C   0  0  0  0  0  0  0  0  0  0  0  0
   22.9187  -17.1333  -18.7458 C   0  0  2  0  0  0  0  0  0  0  0  0
   24.0120  -17.1476  -19.7183 N   0  0  0  0  0  0  0  0  0  0  0  0
   23.0038  -18.2873  -17.8492 C   0  0  0  0  0  0  0  0  0  0  0  0
   23.0368  -19.4400  -18.3416 O   0  0  0  0  0  0  0  0  0  0  0  0
   25.0444  -22.4579  -10.1997 O   0  0  0  0  0  0  0  0  0  0  0  0
   24.7949  -21.5526  -11.2206 C   0  0  0  0  0  0  0  0  0  0  0  0
   23.8437  -20.5605  -11.0714 C   0  0  0  0  0  0  0  0  0  0  0  0
   23.6179  -19.6748  -12.1046 C   0  0  0  0  0  0  0  0  0  0  0  0
   24.2914  -19.7181  -13.2933 C   0  0  0  0  0  0  0  0  0  0  0  0
   24.0695  -18.8005  -14.3896 C   0  0  0  0  0  0  0  0  0  0  0  0
   23.2093  -19.2215  -15.5163 C   0  0  2  0  0  0  0  0  0  0  0  0
   23.0469  -18.0821  -16.4527 N   0  0  0  0  0  0  0  0  0  0  0  0
   21.8542  -19.7009  -15.2305 C   0  0  0  0  0  0  0  0  0  0  0  0
   20.9175  -18.8745  -14.9009 O   0  0  0  0  0  0  0  0  0  0  0  0
   25.2498  -20.7319  -13.4203 C   0  0  0  0  0  0  0  0  0  0  0  0
   25.4991  -21.6292  -12.4121 C   0  0  0  0  0  0  0  0  0  0  0  0
   17.4445  -22.3668  -14.5394 N   0  0  0  0  0  0  0  0  0  0  0  0
   18.2436  -22.9821  -15.5510 C   0  0  0  0  0  0  0  0  0  0  0  0
   17.7186  -23.8993  -16.1942 O   0  0  0  0  0  0  0  0  0  0  0  0
   19.6159  -22.5270  -15.7921 C   0  0  0  0  0  0  0  0  0  0  0  0
   20.0749  -21.4481  -14.8596 C   0  0  2  0  0  0  0  0  0  0  0  0
   21.4249  -21.0520  -15.2851 N   0  0  0  0  0  0  0  0  0  0  0  0
   20.0414  -21.7799  -13.4384 C   0  0  0  0  0  0  0  0  0  0  0  0
   19.0175  -21.7199  -12.6905 O   0  0  0  0  0  0  0  0  0  0  0  0
   21.2221  -22.2034  -12.8204 O   0  0  0  0  0  0  0  0  0  0  0  0
  2  1  1  1
  2  3  1  0
  2  4  1  0
  5  4  1  0
  5  7  1  0
  5  6  1  6
  7  8  2  0
  9 10  1  0
 10 11  2  0
 10 20  1  0
 11 12  1  0
 12 13  2  0
 13 14  1  0
 15 14  1  1
 15 17  1  0
 16 15  1  0
 16  7  1  0
 17 18  2  0
 17 26  1  0
 19 13  1  0
 20 19  2  0
 21 22  1  0
 22 24  1  0
 23 22  2  0
 25 24  1  6
 25 27  1  0
 26 25  1  0
 27 28  2  0
 27 29  1  0
M  END
$$$$
