LYN.pdb
     RDKit          3D

 29 29  0  0  1  0  0  0  0  0999 V2000
   27.5516  -20.1688   -4.1828 C   0  0  0  0  0  0  0  0  0  0  0  0
   28.0375  -20.5346   -5.5708 C   0  0  2  0  0  0  0  0  0  0  0  0
   29.4649  -20.1690   -5.8110 C   0  0  0  0  0  0  0  0  0  0  0  0
   27.0796  -19.8859   -6.5535 C   0  0  0  0  0  0  0  0  0  0  0  0
   26.9951  -20.8105   -7.7477 C   0  0  2  0  0  0  0  0  0  0  0  0
   28.3721  -21.1931   -8.0620 N   0  0  0  0  0  0  0  0  0  0  0  0
   26.3481  -20.1939   -8.9070 C   0  0  0  0  0  0  0  0  0  0  0  0
   26.0655  -18.9729   -8.8690 O   0  0  0  0  0  0  0  0  0  0  0  0
   27.4330  -19.1103  -17.5830 O   0  0  0  0  0  0  0  0  0  0  0  0
   27.3719  -19.4749  -16.2461 C   0  0  0  0  0  0  0  0  0  0  0  0
   27.7353  -18.5858  -15.2517 C   0  0  0  0  0  0  0  0  0  0  0  0
   27.6639  -18.9775  -13.9309 C   0  0  0  0  0  0  0  0  0  0  0  0
   27.2469  -20.2177  -13.5354 C   0  0  0  0  0  0  0  0  0  0  0  0
   27.1658  -20.6490  -12.1568 C   0  0  0  0  0  0  0  0  0  0  0  0
   25.9339  -20.3702  -11.3879 C   0  0  2  0  0  0  0  0  0  0  0  0
   26.0553  -20.9821  -10.0416 N   0  0  0  0  0  0  0  0  0  0  0  0
   24.6484  -20.8290  -11.9215 C   0  0  0  0  0  0  0  0  0  0  0  0
   24.2183  -22.0216  -11.6731 O   0  0  0  0  0  0  0  0  0  0  0  0
   26.8841  -21.1003  -14.5611 C   0  0  0  0  0  0  0  0  0  0  0  0
   26.9434  -20.7427  -15.8848 C   0  0  0  0  0  0  0  0  0  0  0  0
   19.6729  -21.7882  -12.9645 N   0  0  0  0  0  0  0  0  0  0  0  0
   20.0613  -20.4147  -13.0195 C   0  0  0  0  0  0  0  0  0  0  0  0
   19.2340  -19.6202  -13.4832 O   0  0  0  0  0  0  0  0  0  0  0  0
   21.3827  -19.9971  -12.5422 C   0  0  0  0  0  0  0  0  0  0  0  0
   22.5257  -20.6382  -13.2683 C   0  0  2  0  0  0  0  0  0  0  0  0
   23.7635  -20.0628  -12.7232 N   0  0  0  0  0  0  0  0  0  0  0  0
   22.4893  -20.5389  -14.7242 C   0  0  0  0  0  0  0  0  0  0  0  0
   22.9776  -19.5901  -15.4116 O   0  0  0  0  0  0  0  0  0  0  0  0
   21.8710  -21.5611  -15.4511 O   0  0  0  0  0  0  0  0  0  0  0  0
  2  1  1  1
  2  3  1  0
  2  4  1  0
  5  4  1  0
  5  7  1  0
  5  6  1  6
  7  8  2  0
  9 10  1  0
 10 11  2  0
 10 20  1  0
 11 12  1  0
 12 13  2  0
 13 14  1  0
 15 14  1  6
 15 17  1  0
 16 15  1  0
 16  7  1  0
 17 18  2  0
 17 26  1  0
 19 13  1  0
 20 19  2  0
 21 22  1  0
 22 24  1  0
 23 22  2  0
 25 24  1  1
 25 27  1  0
 26 25  1  0
 27 28  2  0
 27 29  1  0
M  END
$$$$
