LYN.pdb
     RDKit          3D

 29 29  0  0  1  0  0  0  0  0999 V2000
   20.4627  -12.3779  -19.3643 C   0  0  0  0  0  0  0  0  0  0  0  0
   20.3345  -12.9852  -17.9819 C   0  0  2  0  0  0  0  0  0  0  0  0
   19.5211  -14.2369  -17.9612 C   0  0  0  0  0  0  0  0  0  0  0  0
   19.7837  -11.8981  -17.0771 C   0  0  0  0  0  0  0  0  0  0  0  0
   20.7405  -10.7305  -17.1740 C   0  0  2  0  0  0  0  0  0  0  0  0
   22.0294  -11.2212  -16.6849 N   0  0  0  0  0  0  0  0  0  0  0  0
   20.3021   -9.5634  -16.4068 C   0  0  0  0  0  0  0  0  0  0  0  0
   19.0959   -9.2240  -16.4501 O   0  0  0  0  0  0  0  0  0  0  0  0
   19.3723   -5.1320   -8.9747 O   0  0  0  0  0  0  0  0  0  0  0  0
   19.8960   -5.7919  -10.0765 C   0  0  0  0  0  0  0  0  0  0  0  0
   20.6720   -5.1196  -11.0024 C   0  0  0  0  0  0  0  0  0  0  0  0
   21.1790   -5.8030  -12.0882 C   0  0  0  0  0  0  0  0  0  0  0  0
   20.9568   -7.1333  -12.3104 C   0  0  0  0  0  0  0  0  0  0  0  0
   21.4776   -7.8686  -13.4424 C   0  0  0  0  0  0  0  0  0  0  0  0
   20.8161   -7.7269  -14.7573 C   0  0  2  0  0  0  0  0  0  0  0  0
   21.2417   -8.8445  -15.6356 N   0  0  0  0  0  0  0  0  0  0  0  0
   21.0373   -6.5026  -15.5318 C   0  0  0  0  0  0  0  0  0  0  0  0
   22.0515   -6.3976  -16.3251 O   0  0  0  0  0  0  0  0  0  0  0  0
   20.1680   -7.7922  -11.3586 C   0  0  0  0  0  0  0  0  0  0  0  0
   19.6482   -7.1423  -10.2673 C   0  0  0  0  0  0  0  0  0  0  0  0
   20.6290   -2.8672  -19.5539 N   0  0  0  0  0  0  0  0  0  0  0  0
   19.9452   -2.8895  -18.2999 C   0  0  0  0  0  0  0  0  0  0  0  0
   19.4648   -1.8187  -17.9085 O   0  0  0  0  0  0  0  0  0  0  0  0
   19.8342   -4.1360  -17.5368 C   0  0  0  0  0  0  0  0  0  0  0  0
   20.5802   -4.1258  -16.2376 C   0  0  2  0  0  0  0  0  0  0  0  0
   20.2093   -5.3507  -15.5147 N   0  0  0  0  0  0  0  0  0  0  0  0
   20.3926   -2.9405  -15.4065 C   0  0  0  0  0  0  0  0  0  0  0  0
   21.0360   -1.8520  -15.5175 O   0  0  0  0  0  0  0  0  0  0  0  0
   19.4289   -2.9769  -14.3938 O   0  0  0  0  0  0  0  0  0  0  0  0
  2  1  1  6
  2  3  1  0
  2  4  1  0
  5  4  1  0
  5  7  1  0
  5  6  1  1
  7  8  2  0
  9 10  1  0
 10 11  2  0
 10 20  1  0
 11 12  1  0
 12 13  2  0
 13 14  1  0
 15 14  1  1
 15 17  1  0
 16 15  1  0
 16  7  1  0
 17 18  2  0
 17 26  1  0
 19 13  1  0
 20 19  2  0
 21 22  1  0
 22 24  1  0
 23 22  2  0
 25 24  1  6
 25 27  1  0
 26 25  1  0
 27 28  2  0
 27 29  1  0
M  END
$$$$
