LYN.pdb
     RDKit          3D

 29 29  0  0  1  0  0  0  0  0999 V2000
   25.3475  -21.7525  -20.6776 C   0  0  0  0  0  0  0  0  0  0  0  0
   26.2721  -22.6902  -19.9279 C   0  0  2  0  0  0  0  0  0  0  0  0
   26.7368  -23.8443  -20.7532 C   0  0  0  0  0  0  0  0  0  0  0  0
   25.5380  -23.1121  -18.6681 C   0  0  0  0  0  0  0  0  0  0  0  0
   25.3489  -21.8607  -17.8396 C   0  0  2  0  0  0  0  0  0  0  0  0
   26.6609  -21.2159  -17.7745 N   0  0  0  0  0  0  0  0  0  0  0  0
   24.8350  -22.1333  -16.4963 C   0  0  0  0  0  0  0  0  0  0  0  0
   24.1935  -23.1912  -16.2927 O   0  0  0  0  0  0  0  0  0  0  0  0
   23.7815  -20.8465   -7.6896 O   0  0  0  0  0  0  0  0  0  0  0  0
   24.1563  -20.7879   -9.0238 C   0  0  0  0  0  0  0  0  0  0  0  0
   25.4272  -21.1610   -9.4200 C   0  0  0  0  0  0  0  0  0  0  0  0
   25.7706  -21.0918  -10.7543 C   0  0  0  0  0  0  0  0  0  0  0  0
   24.9132  -20.6680  -11.7308 C   0  0  0  0  0  0  0  0  0  0  0  0
   25.2531  -20.5867  -13.1347 C   0  0  0  0  0  0  0  0  0  0  0  0
   24.4967  -21.4061  -14.1059 C   0  0  2  0  0  0  0  0  0  0  0  0
   25.0704  -21.2041  -15.4593 N   0  0  0  0  0  0  0  0  0  0  0  0
   23.0547  -21.1855  -14.2454 C   0  0  0  0  0  0  0  0  0  0  0  0
   22.6024  -20.2091  -14.9603 O   0  0  0  0  0  0  0  0  0  0  0  0
   23.6317  -20.2956  -11.3045 C   0  0  0  0  0  0  0  0  0  0  0  0
   23.2577  -20.3524   -9.9852 C   0  0  0  0  0  0  0  0  0  0  0  0
   17.6168  -23.3303  -14.7615 N   0  0  0  0  0  0  0  0  0  0  0  0
   18.5477  -22.2633  -14.9497 C   0  0  0  0  0  0  0  0  0  0  0  0
   18.0779  -21.1644  -15.2698 O   0  0  0  0  0  0  0  0  0  0  0  0
   19.9840  -22.4899  -14.7653 C   0  0  0  0  0  0  0  0  0  0  0  0
   20.6180  -21.5951  -13.7446 C   0  0  2  0  0  0  0  0  0  0  0  0
   22.0350  -21.9753  -13.6545 N   0  0  0  0  0  0  0  0  0  0  0  0
   19.9858  -21.5843  -12.4289 C   0  0  0  0  0  0  0  0  0  0  0  0
   19.0186  -20.8395  -12.0809 O   0  0  0  0  0  0  0  0  0  0  0  0
   20.4642  -22.4580  -11.4474 O   0  0  0  0  0  0  0  0  0  0  0  0
  2  1  1  6
  2  3  1  0
  2  4  1  0
  5  4  1  0
  5  7  1  0
  5  6  1  1
  7  8  2  0
  9 10  1  0
 10 11  2  0
 10 20  1  0
 11 12  1  0
 12 13  2  0
 13 14  1  0
 15 14  1  1
 15 17  1  0
 16 15  1  0
 16  7  1  0
 17 18  2  0
 17 26  1  0
 19 13  1  0
 20 19  2  0
 21 22  1  0
 22 24  1  0
 23 22  2  0
 25 24  1  6
 25 27  1  0
 26 25  1  0
 27 28  2  0
 27 29  1  0
M  END
$$$$
