LYN.pdb
     RDKit          3D

 29 29  0  0  1  0  0  0  0  0999 V2000
   29.0499  -21.0472  -20.3879 C   0  0  0  0  0  0  0  0  0  0  0  0
   29.9924  -20.2511  -19.5080 C   0  0  2  0  0  0  0  0  0  0  0  0
   31.4051  -20.2685  -19.9904 C   0  0  0  0  0  0  0  0  0  0  0  0
   29.8344  -20.7915  -18.0983 C   0  0  0  0  0  0  0  0  0  0  0  0
   28.3481  -20.8527  -17.8240 C   0  0  2  0  0  0  0  0  0  0  0  0
   27.8451  -19.4914  -18.0114 N   0  0  0  0  0  0  0  0  0  0  0  0
   28.0313  -21.3452  -16.4824 C   0  0  0  0  0  0  0  0  0  0  0  0
   28.4967  -22.4494  -16.1133 O   0  0  0  0  0  0  0  0  0  0  0  0
   24.0216  -21.0023   -8.4280 O   0  0  0  0  0  0  0  0  0  0  0  0
   24.6391  -20.7583   -9.6457 C   0  0  0  0  0  0  0  0  0  0  0  0
   25.9917  -20.9905   -9.8137 C   0  0  0  0  0  0  0  0  0  0  0  0
   26.5776  -20.7382  -11.0367 C   0  0  0  0  0  0  0  0  0  0  0  0
   25.8886  -20.2622  -12.1171 C   0  0  0  0  0  0  0  0  0  0  0  0
   26.4835  -19.9897  -13.4075 C   0  0  0  0  0  0  0  0  0  0  0  0
   26.7217  -21.1120  -14.3404 C   0  0  2  0  0  0  0  0  0  0  0  0
   27.2110  -20.5711  -15.6325 N   0  0  0  0  0  0  0  0  0  0  0  0
   25.6064  -22.0017  -14.6756 C   0  0  0  0  0  0  0  0  0  0  0  0
   25.8244  -23.1862  -15.1427 O   0  0  0  0  0  0  0  0  0  0  0  0
   24.5202  -20.0349  -11.9221 C   0  0  0  0  0  0  0  0  0  0  0  0
   23.9061  -20.2754  -10.7185 C   0  0  0  0  0  0  0  0  0  0  0  0
   22.8447  -26.1236  -14.4586 N   0  0  0  0  0  0  0  0  0  0  0  0
   22.4961  -24.9138  -13.7838 C   0  0  0  0  0  0  0  0  0  0  0  0
   21.3707  -24.8659  -13.2722 O   0  0  0  0  0  0  0  0  0  0  0  0
   23.4470  -23.8003  -13.7175 C   0  0  0  0  0  0  0  0  0  0  0  0
   23.1889  -22.7156  -14.7182 C   0  0  2  0  0  0  0  0  0  0  0  0
   24.2291  -21.6945  -14.5294 N   0  0  0  0  0  0  0  0  0  0  0  0
   21.8537  -22.1266  -14.6865 C   0  0  0  0  0  0  0  0  0  0  0  0
   20.8892  -22.4429  -15.4487 O   0  0  0  0  0  0  0  0  0  0  0  0
   21.5837  -21.1265  -13.7471 O   0  0  0  0  0  0  0  0  0  0  0  0
  2  1  1  6
  2  3  1  0
  2  4  1  0
  5  4  1  0
  5  7  1  0
  5  6  1  1
  7  8  2  0
  9 10  1  0
 10 11  2  0
 10 20  1  0
 11 12  1  0
 12 13  2  0
 13 14  1  0
 15 14  1  1
 15 17  1  0
 16 15  1  0
 16  7  1  0
 17 18  2  0
 17 26  1  0
 19 13  1  0
 20 19  2  0
 21 22  1  0
 22 24  1  0
 23 22  2  0
 25 24  1  1
 25 27  1  0
 26 25  1  0
 27 28  2  0
 27 29  1  0
M  END
$$$$
