LYN.pdb
     RDKit          3D

 29 29  0  0  1  0  0  0  0  0999 V2000
   28.0748  -19.0186  -12.6506 C   0  0  0  0  0  0  0  0  0  0  0  0
   28.6804  -20.3294  -12.1908 C   0  0  2  0  0  0  0  0  0  0  0  0
   29.9139  -20.7049  -12.9433 C   0  0  0  0  0  0  0  0  0  0  0  0
   27.5821  -21.3732  -12.2821 C   0  0  0  0  0  0  0  0  0  0  0  0
   26.3833  -20.8025  -11.5573 C   0  0  2  0  0  0  0  0  0  0  0  0
   26.5939  -21.0892  -10.1378 N   0  0  0  0  0  0  0  0  0  0  0  0
   25.1124  -21.3630  -12.0192 C   0  0  0  0  0  0  0  0  0  0  0  0
   24.9402  -22.6040  -11.9698 O   0  0  0  0  0  0  0  0  0  0  0  0
   19.0153  -22.1981   -7.8958 O   0  0  0  0  0  0  0  0  0  0  0  0
   19.6711  -21.7326   -9.0258 C   0  0  0  0  0  0  0  0  0  0  0  0
   19.5566  -22.3938  -10.2346 C   0  0  0  0  0  0  0  0  0  0  0  0
   20.2209  -21.9067  -11.3411 C   0  0  0  0  0  0  0  0  0  0  0  0
   21.0028  -20.7857  -11.3161 C   0  0  0  0  0  0  0  0  0  0  0  0
   21.7087  -20.2587  -12.4638 C   0  0  0  0  0  0  0  0  0  0  0  0
   22.8290  -21.0351  -13.0371 C   0  0  2  0  0  0  0  0  0  0  0  0
   24.1083  -20.4995  -12.5096 N   0  0  0  0  0  0  0  0  0  0  0  0
   22.9847  -21.0813  -14.4936 C   0  0  0  0  0  0  0  0  0  0  0  0
   23.2668  -20.0121  -15.1615 O   0  0  0  0  0  0  0  0  0  0  0  0
   21.1030  -20.1336  -10.0804 C   0  0  0  0  0  0  0  0  0  0  0  0
   20.4554  -20.5915   -8.9603 C   0  0  0  0  0  0  0  0  0  0  0  0
   25.2880  -24.9404  -15.8198 N   0  0  0  0  0  0  0  0  0  0  0  0
   25.0306  -23.7509  -16.5677 C   0  0  0  0  0  0  0  0  0  0  0  0
   25.9725  -22.9590  -16.6959 O   0  0  0  0  0  0  0  0  0  0  0  0
   23.7046  -23.5080  -17.1432 C   0  0  0  0  0  0  0  0  0  0  0  0
   23.1002  -22.1939  -16.7530 C   0  0  2  0  0  0  0  0  0  0  0  0
   22.8611  -22.2395  -15.3035 N   0  0  0  0  0  0  0  0  0  0  0  0
   21.8938  -21.8089  -17.4790 C   0  0  0  0  0  0  0  0  0  0  0  0
   20.7137  -22.1852  -17.2015 O   0  0  0  0  0  0  0  0  0  0  0  0
   22.0166  -20.9532  -18.5783 O   0  0  0  0  0  0  0  0  0  0  0  0
  2  1  1  6
  2  3  1  0
  2  4  1  0
  5  4  1  0
  5  7  1  0
  5  6  1  1
  7  8  2  0
  9 10  1  0
 10 11  2  0
 10 20  1  0
 11 12  1  0
 12 13  2  0
 13 14  1  0
 15 14  1  6
 15 17  1  0
 16 15  1  0
 16  7  1  0
 17 18  2  0
 17 26  1  0
 19 13  1  0
 20 19  2  0
 21 22  1  0
 22 24  1  0
 23 22  2  0
 25 24  1  6
 25 27  1  0
 26 25  1  0
 27 28  2  0
 27 29  1  0
M  END
$$$$
