LYN.pdb
     RDKit          3D

 29 29  0  0  1  0  0  0  0  0999 V2000
   26.4287  -19.5612  -20.7669 C   0  0  0  0  0  0  0  0  0  0  0  0
   27.1052  -20.9037  -20.5764 C   0  0  2  0  0  0  0  0  0  0  0  0
   27.0723  -21.7592  -21.7995 C   0  0  0  0  0  0  0  0  0  0  0  0
   26.4503  -21.5554  -19.3720 C   0  0  0  0  0  0  0  0  0  0  0  0
   26.5852  -20.5775  -18.2259 C   0  0  2  0  0  0  0  0  0  0  0  0
   28.0217  -20.4135  -18.0002 N   0  0  0  0  0  0  0  0  0  0  0  0
   25.9139  -21.0269  -17.0052 C   0  0  0  0  0  0  0  0  0  0  0  0
   25.0447  -21.9271  -17.0843 O   0  0  0  0  0  0  0  0  0  0  0  0
   24.4157  -21.1726   -8.1187 O   0  0  0  0  0  0  0  0  0  0  0  0
   24.8850  -20.9703   -9.4082 C   0  0  0  0  0  0  0  0  0  0  0  0
   24.2346  -20.1088  -10.2721 C   0  0  0  0  0  0  0  0  0  0  0  0
   24.7252  -19.9283  -11.5486 C   0  0  0  0  0  0  0  0  0  0  0  0
   25.8393  -20.5624  -12.0231 C   0  0  0  0  0  0  0  0  0  0  0  0
   26.3697  -20.3884  -13.3579 C   0  0  0  0  0  0  0  0  0  0  0  0
   25.5672  -20.8404  -14.5147 C   0  0  2  0  0  0  0  0  0  0  0  0
   26.2560  -20.4409  -15.7667 N   0  0  0  0  0  0  0  0  0  0  0  0
   24.1876  -20.3642  -14.6474 C   0  0  0  0  0  0  0  0  0  0  0  0
   23.9316  -19.2329  -15.2163 O   0  0  0  0  0  0  0  0  0  0  0  0
   26.4805  -21.4298  -11.1293 C   0  0  0  0  0  0  0  0  0  0  0  0
   26.0188  -21.6322   -9.8528 C   0  0  0  0  0  0  0  0  0  0  0  0
   19.4329  -19.4561  -16.9522 N   0  0  0  0  0  0  0  0  0  0  0  0
   19.7685  -20.3024  -15.8516 C   0  0  0  0  0  0  0  0  0  0  0  0
   18.8423  -20.6336  -15.1012 O   0  0  0  0  0  0  0  0  0  0  0  0
   21.1520  -20.7410  -15.6471 C   0  0  0  0  0  0  0  0  0  0  0  0
   21.6940  -20.4387  -14.2835 C   0  0  2  0  0  0  0  0  0  0  0  0
   23.0283  -21.0497  -14.2015 N   0  0  0  0  0  0  0  0  0  0  0  0
   20.8534  -20.8448  -13.1613 C   0  0  0  0  0  0  0  0  0  0  0  0
   20.8917  -21.9730  -12.5808 O   0  0  0  0  0  0  0  0  0  0  0  0
   19.9169  -19.9348  -12.6608 O   0  0  0  0  0  0  0  0  0  0  0  0
  2  1  1  6
  2  3  1  0
  2  4  1  0
  5  4  1  0
  5  7  1  0
  5  6  1  1
  7  8  2  0
  9 10  1  0
 10 11  2  0
 10 20  1  0
 11 12  1  0
 12 13  2  0
 13 14  1  0
 15 14  1  1
 15 17  1  0
 16 15  1  0
 16  7  1  0
 17 18  2  0
 17 26  1  0
 19 13  1  0
 20 19  2  0
 21 22  1  0
 22 24  1  0
 23 22  2  0
 25 24  1  6
 25 27  1  0
 26 25  1  0
 27 28  2  0
 27 29  1  0
M  END
$$$$
