HAR.pdb
     RDKit          3D

 27 27  0  0  1  0  0  0  0  0999 V2000
   29.1290  -18.2159  -18.2200 N   0  0  0  0  0  0  0  0  0  0  0  0
   28.6230  -16.9175  -18.6118 C   0  0  1  0  0  0  0  0  0  0  0  0
   28.0613  -16.9817  -20.0072 C   0  0  0  0  0  0  0  0  0  0  0  0
   29.1396  -17.3418  -20.9527 C   0  0  0  0  0  0  0  0  0  0  0  0
   29.3798  -18.5401  -21.5844 C   0  0  0  0  0  0  0  0  0  0  0  0
   30.4798  -18.4334  -22.3725 N   0  0  0  0  0  0  0  0  0  0  0  0
   30.9166  -17.1747  -22.2277 C   0  0  0  0  0  0  0  0  0  0  0  0
   30.1062  -16.5102  -21.3677 N   0  0  0  0  0  0  0  0  0  0  0  0
   27.6457  -16.3840  -17.6318 C   0  0  0  0  0  0  0  0  0  0  0  0
   26.7420  -17.1192  -17.1549 O   0  0  0  0  0  0  0  0  0  0  0  0
   27.0622  -13.0749  -15.8314 C   0  0  0  0  0  0  0  0  0  0  0  0
   26.6858  -14.4358  -16.3203 C   0  0  2  0  0  0  0  0  0  0  0  0
   27.6631  -15.0369  -17.1748 N   0  0  0  0  0  0  0  0  0  0  0  0
   25.3100  -14.4855  -16.9047 C   0  0  0  0  0  0  0  0  0  0  0  0
   25.1472  -14.2542  -18.1244 O   0  0  0  0  0  0  0  0  0  0  0  0
   17.6960  -18.4485  -14.6514 N   0  0  0  0  0  0  0  0  0  0  0  0
   17.3606  -17.6131  -15.7359 C   0  0  0  0  0  0  0  0  0  0  0  0
   16.1369  -17.6300  -16.2075 N   0  0  0  0  0  0  0  0  0  0  0  0
   18.3321  -16.7447  -16.3344 N   0  0  0  0  0  0  0  0  0  0  0  0
   19.6504  -16.7522  -15.7538 C   0  0  0  0  0  0  0  0  0  0  0  0
   20.5423  -15.7228  -16.4355 C   0  0  0  0  0  0  0  0  0  0  0  0
   21.9103  -15.6809  -15.8526 C   0  0  0  0  0  0  0  0  0  0  0  0
   22.8087  -14.7869  -16.6214 C   0  0  2  0  0  0  0  0  0  0  0  0
   24.1714  -14.7877  -16.1214 N   0  0  0  0  0  0  0  0  0  0  0  0
   22.2510  -13.4488  -16.7549 C   0  0  0  0  0  0  0  0  0  0  0  0
   22.5140  -12.6204  -15.8142 O   0  0  0  0  0  0  0  0  0  0  0  0
   21.4708  -12.9543  -17.7719 O   0  0  0  0  0  0  0  0  0  0  0  0
  2  1  1  1
  2  9  1  0
  3  2  1  0
  3  4  1  0
  4  5  2  0
  4  8  1  0
  5  6  1  0
  6  7  1  0
  8  7  2  0
  9 10  2  0
 12 11  1  6
 12 14  1  0
 13 12  1  0
 13  9  1  0
 14 15  2  0
 17 18  2  0
 17 16  1  0
 19 20  1  0
 19 17  1  0
 20 21  1  0
 21 22  1  0
 23 22  1  1
 23 25  1  0
 24 23  1  0
 24 14  1  0
 25 26  2  0
 25 27  1  0
M  END
$$$$
