HAR.pdb
     RDKit          3D

 27 27  0  0  1  0  0  0  0  0999 V2000
   26.9411  -22.2508  -13.2648 N   0  0  0  0  0  0  0  0  0  0  0  0
   26.1543  -21.3342  -12.4671 C   0  0  1  0  0  0  0  0  0  0  0  0
   26.9522  -20.0925  -12.1699 C   0  0  0  0  0  0  0  0  0  0  0  0
   28.1618  -20.4598  -11.4030 C   0  0  0  0  0  0  0  0  0  0  0  0
   28.4159  -21.5951  -10.6685 C   0  0  0  0  0  0  0  0  0  0  0  0
   29.6580  -21.5244  -10.1257 N   0  0  0  0  0  0  0  0  0  0  0  0
   30.1682  -20.3508  -10.5235 C   0  0  0  0  0  0  0  0  0  0  0  0
   29.2636  -19.7030  -11.2981 N   0  0  0  0  0  0  0  0  0  0  0  0
   24.8472  -21.0299  -13.0990 C   0  0  0  0  0  0  0  0  0  0  0  0
   24.7814  -20.6547  -14.2987 O   0  0  0  0  0  0  0  0  0  0  0  0
   21.1911  -21.3961  -12.0829 C   0  0  0  0  0  0  0  0  0  0  0  0
   22.3119  -21.0397  -13.0046 C   0  0  2  0  0  0  0  0  0  0  0  0
   23.6085  -21.1392  -12.4081 N   0  0  0  0  0  0  0  0  0  0  0  0
   22.1027  -19.7313  -13.6984 C   0  0  0  0  0  0  0  0  0  0  0  0
   22.3460  -18.6635  -13.0918 O   0  0  0  0  0  0  0  0  0  0  0  0
   23.9725  -16.1707  -21.3601 N   0  0  0  0  0  0  0  0  0  0  0  0
   23.1988  -15.1911  -20.7056 C   0  0  0  0  0  0  0  0  0  0  0  0
   23.1135  -13.9879  -21.2205 N   0  0  0  0  0  0  0  0  0  0  0  0
   22.5028  -15.4846  -19.4868 N   0  0  0  0  0  0  0  0  0  0  0  0
   22.7196  -16.7897  -18.9168 C   0  0  0  0  0  0  0  0  0  0  0  0
   21.9081  -16.9581  -17.6390 C   0  0  0  0  0  0  0  0  0  0  0  0
   22.1538  -18.2681  -16.9782 C   0  0  0  0  0  0  0  0  0  0  0  0
   21.3618  -18.4134  -15.7335 C   0  0  2  0  0  0  0  0  0  0  0  0
   21.6341  -19.6541  -15.0310 N   0  0  0  0  0  0  0  0  0  0  0  0
   19.9426  -18.1912  -15.9696 C   0  0  0  0  0  0  0  0  0  0  0  0
   19.2508  -19.2124  -16.3142 O   0  0  0  0  0  0  0  0  0  0  0  0
   19.2416  -17.0140  -15.8681 O   0  0  0  0  0  0  0  0  0  0  0  0
  2  1  1  6
  2  9  1  0
  3  2  1  0
  3  4  1  0
  4  5  2  0
  4  8  1  0
  5  6  1  0
  6  7  1  0
  8  7  2  0
  9 10  2  0
 12 11  1  1
 12 14  1  0
 13 12  1  0
 13  9  1  0
 14 15  2  0
 17 18  2  0
 17 16  1  0
 19 20  1  0
 19 17  1  0
 20 21  1  0
 21 22  1  0
 23 22  1  6
 23 25  1  0
 24 23  1  0
 24 14  1  0
 25 26  2  0
 25 27  1  0
M  END
$$$$
