HAR.pdb
     RDKit          3D

 27 27  0  0  1  0  0  0  0  0999 V2000
   28.2924  -21.4152  -15.8727 N   0  0  0  0  0  0  0  0  0  0  0  0
   27.7082  -20.4451  -14.9710 C   0  0  1  0  0  0  0  0  0  0  0  0
   27.0278  -19.3550  -15.7556 C   0  0  0  0  0  0  0  0  0  0  0  0
   28.0329  -18.6362  -16.5676 C   0  0  0  0  0  0  0  0  0  0  0  0
   29.2796  -18.1801  -16.2066 C   0  0  0  0  0  0  0  0  0  0  0  0
   29.8729  -17.5730  -17.2657 N   0  0  0  0  0  0  0  0  0  0  0  0
   28.9961  -17.6540  -18.2760 C   0  0  0  0  0  0  0  0  0  0  0  0
   27.8796  -18.2981  -17.8561 N   0  0  0  0  0  0  0  0  0  0  0  0
   26.8033  -21.0808  -13.9825 C   0  0  0  0  0  0  0  0  0  0  0  0
   25.9323  -21.9137  -14.3460 O   0  0  0  0  0  0  0  0  0  0  0  0
   26.1555  -20.6820  -10.2419 C   0  0  0  0  0  0  0  0  0  0  0  0
   25.8290  -21.0963  -11.6399 C   0  0  2  0  0  0  0  0  0  0  0  0
   26.8574  -20.7991  -12.5891 N   0  0  0  0  0  0  0  0  0  0  0  0
   24.4839  -20.6215  -12.0897 C   0  0  0  0  0  0  0  0  0  0  0  0
   24.3598  -19.4666  -12.5566 O   0  0  0  0  0  0  0  0  0  0  0  0
   18.4682  -23.7579  -17.3527 N   0  0  0  0  0  0  0  0  0  0  0  0
   17.9283  -22.5297  -16.9206 C   0  0  0  0  0  0  0  0  0  0  0  0
   16.8300  -22.0776  -17.4768 N   0  0  0  0  0  0  0  0  0  0  0  0
   18.5572  -21.7641  -15.8840 N   0  0  0  0  0  0  0  0  0  0  0  0
   19.7674  -22.3077  -15.3226 C   0  0  0  0  0  0  0  0  0  0  0  0
   20.2458  -21.4563  -14.1539 C   0  0  0  0  0  0  0  0  0  0  0  0
   21.5411  -21.9313  -13.5974 C   0  0  0  0  0  0  0  0  0  0  0  0
   22.0205  -21.0594  -12.4985 C   0  0  2  0  0  0  0  0  0  0  0  0
   23.3322  -21.4387  -12.0060 N   0  0  0  0  0  0  0  0  0  0  0  0
   21.0287  -20.9327  -11.4403 C   0  0  0  0  0  0  0  0  0  0  0  0
   21.1647  -21.7078  -10.4298 O   0  0  0  0  0  0  0  0  0  0  0  0
   19.9540  -20.0785  -11.3850 O   0  0  0  0  0  0  0  0  0  0  0  0
  2  1  1  6
  2  9  1  0
  3  2  1  0
  3  4  1  0
  4  5  2  0
  4  8  1  0
  5  6  1  0
  6  7  1  0
  8  7  2  0
  9 10  2  0
 12 11  1  1
 12 14  1  0
 13 12  1  0
 13  9  1  0
 14 15  2  0
 17 18  2  0
 17 16  1  0
 19 20  1  0
 19 17  1  0
 20 21  1  0
 21 22  1  0
 23 22  1  6
 23 25  1  0
 24 23  1  0
 24 14  1  0
 25 26  2  0
 25 27  1  0
M  END
$$$$
