HAR.pdb
     RDKit          3D

 27 27  0  0  1  0  0  0  0  0999 V2000
   23.4972  -14.8254  -18.2796 N   0  0  0  0  0  0  0  0  0  0  0  0
   24.0686  -13.5242  -18.5551 C   0  0  1  0  0  0  0  0  0  0  0  0
   23.5106  -12.9772  -19.8420 C   0  0  0  0  0  0  0  0  0  0  0  0
   23.8768  -13.8777  -20.9561 C   0  0  0  0  0  0  0  0  0  0  0  0
   23.1830  -14.9457  -21.4767 C   0  0  0  0  0  0  0  0  0  0  0  0
   23.8847  -15.4966  -22.4997 N   0  0  0  0  0  0  0  0  0  0  0  0
   25.0066  -14.7719  -22.6099 C   0  0  0  0  0  0  0  0  0  0  0  0
   25.0048  -13.7896  -21.6756 N   0  0  0  0  0  0  0  0  0  0  0  0
   23.8916  -12.5885  -17.4179 C   0  0  0  0  0  0  0  0  0  0  0  0
   22.7528  -12.3809  -16.9232 O   0  0  0  0  0  0  0  0  0  0  0  0
   26.1574  -10.3448  -15.3210 C   0  0  0  0  0  0  0  0  0  0  0  0
   24.8489  -10.8639  -15.8221 C   0  0  2  0  0  0  0  0  0  0  0  0
   24.9715  -11.8789  -16.8229 N   0  0  0  0  0  0  0  0  0  0  0  0
   23.9062   -9.7755  -16.2267 C   0  0  0  0  0  0  0  0  0  0  0  0
   23.9807   -9.2887  -17.3778 O   0  0  0  0  0  0  0  0  0  0  0  0
   15.4347   -8.4621  -16.4939 N   0  0  0  0  0  0  0  0  0  0  0  0
   16.0186   -7.3748  -17.1747 C   0  0  0  0  0  0  0  0  0  0  0  0
   15.2697   -6.6160  -17.9386 N   0  0  0  0  0  0  0  0  0  0  0  0
   17.4166   -7.0821  -17.0484 N   0  0  0  0  0  0  0  0  0  0  0  0
   18.2453   -8.1168  -16.4847 C   0  0  0  0  0  0  0  0  0  0  0  0
   19.6861   -7.6398  -16.3572 C   0  0  0  0  0  0  0  0  0  0  0  0
   20.6075   -8.7239  -15.9228 C   0  0  0  0  0  0  0  0  0  0  0  0
   21.9806   -8.2174  -15.6871 C   0  0  2  0  0  0  0  0  0  0  0  0
   22.9213   -9.2691  -15.3466 N   0  0  0  0  0  0  0  0  0  0  0  0
   21.9914   -7.1133  -14.7382 C   0  0  0  0  0  0  0  0  0  0  0  0
   22.2868   -7.4009  -13.5257 O   0  0  0  0  0  0  0  0  0  0  0  0
   21.7236   -5.7874  -14.9789 O   0  0  0  0  0  0  0  0  0  0  0  0
  2  1  1  1
  2  9  1  0
  3  2  1  0
  3  4  1  0
  4  5  2  0
  4  8  1  0
  5  6  1  0
  6  7  1  0
  8  7  2  0
  9 10  2  0
 12 11  1  6
 12 14  1  0
 13 12  1  0
 13  9  1  0
 14 15  2  0
 17 18  2  0
 17 16  1  0
 19 20  1  0
 19 17  1  0
 20 21  1  0
 21 22  1  0
 23 22  1  1
 23 25  1  0
 24 23  1  0
 24 14  1  0
 25 26  2  0
 25 27  1  0
M  END
$$$$
