HAR.pdb
     RDKit          3D

 27 27  0  0  1  0  0  0  0  0999 V2000
   21.7303  -15.3614  -18.4621 N   0  0  0  0  0  0  0  0  0  0  0  0
   21.5224  -13.9451  -18.2474 C   0  0  1  0  0  0  0  0  0  0  0  0
   21.8682  -13.1774  -19.4956 C   0  0  0  0  0  0  0  0  0  0  0  0
   23.2562  -13.4932  -19.8955 C   0  0  0  0  0  0  0  0  0  0  0  0
   23.7076  -14.3534  -20.8697 C   0  0  0  0  0  0  0  0  0  0  0  0
   25.0644  -14.3399  -20.9040 N   0  0  0  0  0  0  0  0  0  0  0  0
   25.4488  -13.4751  -19.9551 C   0  0  0  0  0  0  0  0  0  0  0  0
   24.3549  -12.9600  -19.3419 N   0  0  0  0  0  0  0  0  0  0  0  0
   20.1508  -13.6525  -17.7643 C   0  0  0  0  0  0  0  0  0  0  0  0
   19.7644  -12.4664  -17.5961 O   0  0  0  0  0  0  0  0  0  0  0  0
   16.8373  -15.1126  -17.9453 C   0  0  0  0  0  0  0  0  0  0  0  0
   17.8456  -14.4486  -17.0648 C   0  0  2  0  0  0  0  0  0  0  0  0
   19.2013  -14.6688  -17.4654 N   0  0  0  0  0  0  0  0  0  0  0  0
   17.6274  -14.7311  -15.6124 C   0  0  0  0  0  0  0  0  0  0  0  0
   18.3378  -15.5850  -15.0347 O   0  0  0  0  0  0  0  0  0  0  0  0
   12.4941  -10.7155   -9.7411 N   0  0  0  0  0  0  0  0  0  0  0  0
   12.1655  -11.9905  -10.2441 C   0  0  0  0  0  0  0  0  0  0  0  0
   10.9177  -12.3929  -10.2138 N   0  0  0  0  0  0  0  0  0  0  0  0
   13.1700  -12.8569  -10.7887 N   0  0  0  0  0  0  0  0  0  0  0  0
   14.5331  -12.3983  -10.7061 C   0  0  0  0  0  0  0  0  0  0  0  0
   15.4767  -13.4021  -11.3555 C   0  0  0  0  0  0  0  0  0  0  0  0
   15.4843  -13.2972  -12.8395 C   0  0  0  0  0  0  0  0  0  0  0  0
   16.3513  -14.3276  -13.4593 C   0  0  2  0  0  0  0  0  0  0  0  0
   16.6359  -14.0615  -14.8575 N   0  0  0  0  0  0  0  0  0  0  0  0
   15.8411  -15.6711  -13.2267 C   0  0  0  0  0  0  0  0  0  0  0  0
   15.0249  -16.1344  -14.0982 O   0  0  0  0  0  0  0  0  0  0  0  0
   16.1264  -16.5160  -12.1816 O   0  0  0  0  0  0  0  0  0  0  0  0
  2  1  1  6
  2  9  1  0
  3  2  1  0
  3  4  1  0
  4  5  2  0
  4  8  1  0
  5  6  1  0
  6  7  1  0
  8  7  2  0
  9 10  2  0
 12 11  1  6
 12 14  1  0
 13 12  1  0
 13  9  1  0
 14 15  2  0
 17 18  2  0
 17 16  1  0
 19 20  1  0
 19 17  1  0
 20 21  1  0
 21 22  1  0
 23 22  1  6
 23 25  1  0
 24 23  1  0
 24 14  1  0
 25 26  2  0
 25 27  1  0
M  END
$$$$
