HAR.pdb
     RDKit          3D

 27 27  0  0  1  0  0  0  0  0999 V2000
   18.4697  -19.1620  -16.3470 N   0  0  0  0  0  0  0  0  0  0  0  0
   19.2872  -18.1429  -15.7237 C   0  0  1  0  0  0  0  0  0  0  0  0
   19.1137  -18.1845  -14.2288 C   0  0  0  0  0  0  0  0  0  0  0  0
   18.5754  -19.5042  -13.8351 C   0  0  0  0  0  0  0  0  0  0  0  0
   19.2502  -20.6582  -13.5098 C   0  0  0  0  0  0  0  0  0  0  0  0
   18.3639  -21.6406  -13.2071 N   0  0  0  0  0  0  0  0  0  0  0  0
   17.1475  -21.0954  -13.3450 C   0  0  0  0  0  0  0  0  0  0  0  0
   17.2722  -19.8002  -13.7255 N   0  0  0  0  0  0  0  0  0  0  0  0
   20.7095  -18.2459  -16.1320 C   0  0  0  0  0  0  0  0  0  0  0  0
   21.3306  -19.3369  -16.0399 O   0  0  0  0  0  0  0  0  0  0  0  0
   23.2910  -15.9569  -17.7470 C   0  0  0  0  0  0  0  0  0  0  0  0
   22.8362  -17.1677  -16.9988 C   0  0  2  0  0  0  0  0  0  0  0  0
   21.4505  -17.1447  -16.6436 N   0  0  0  0  0  0  0  0  0  0  0  0
   23.7169  -17.4998  -15.8365 C   0  0  0  0  0  0  0  0  0  0  0  0
   23.4398  -17.0495  -14.7016 O   0  0  0  0  0  0  0  0  0  0  0  0
   27.7171  -21.6488   -9.9981 N   0  0  0  0  0  0  0  0  0  0  0  0
   26.4780  -21.0362   -9.7224 C   0  0  0  0  0  0  0  0  0  0  0  0
   26.2038  -20.6608   -8.4961 N   0  0  0  0  0  0  0  0  0  0  0  0
   25.5105  -20.8154  -10.7575 N   0  0  0  0  0  0  0  0  0  0  0  0
   25.8899  -21.2069  -12.0910 C   0  0  0  0  0  0  0  0  0  0  0  0
   26.2800  -19.9882  -12.9169 C   0  0  0  0  0  0  0  0  0  0  0  0
   25.3608  -19.7612  -14.0643 C   0  0  0  0  0  0  0  0  0  0  0  0
   25.7918  -18.6120  -14.8956 C   0  0  2  0  0  0  0  0  0  0  0  0
   24.8659  -18.3138  -15.9729 N   0  0  0  0  0  0  0  0  0  0  0  0
   27.1666  -18.7623  -15.3503 C   0  0  0  0  0  0  0  0  0  0  0  0
   27.3326  -19.1342  -16.5645 O   0  0  0  0  0  0  0  0  0  0  0  0
   28.3220  -18.5532  -14.6368 O   0  0  0  0  0  0  0  0  0  0  0  0
  2  1  1  6
  2  9  1  0
  3  2  1  0
  3  4  1  0
  4  5  2  0
  4  8  1  0
  5  6  1  0
  6  7  1  0
  8  7  2  0
  9 10  2  0
 12 11  1  1
 12 14  1  0
 13 12  1  0
 13  9  1  0
 14 15  2  0
 17 18  2  0
 17 16  1  0
 19 20  1  0
 19 17  1  0
 20 21  1  0
 21 22  1  0
 23 22  1  6
 23 25  1  0
 24 23  1  0
 24 14  1  0
 25 26  2  0
 25 27  1  0
M  END
$$$$
