HAR.pdb
     RDKit          3D

 27 27  0  0  1  0  0  0  0  0999 V2000
   20.5812  -13.9873  -16.4952 N   0  0  0  0  0  0  0  0  0  0  0  0
   19.4505  -13.1240  -16.7625 C   0  0  1  0  0  0  0  0  0  0  0  0
   18.1731  -13.8008  -16.3418 C   0  0  0  0  0  0  0  0  0  0  0  0
   17.9710  -15.0161  -17.1593 C   0  0  0  0  0  0  0  0  0  0  0  0
   18.0389  -15.1684  -18.5250 C   0  0  0  0  0  0  0  0  0  0  0  0
   17.7863  -16.4598  -18.8579 N   0  0  0  0  0  0  0  0  0  0  0  0
   17.5634  -17.1017  -17.7028 C   0  0  0  0  0  0  0  0  0  0  0  0
   17.6748  -16.2293  -16.6711 N   0  0  0  0  0  0  0  0  0  0  0  0
   19.6143  -11.7869  -16.1414 C   0  0  0  0  0  0  0  0  0  0  0  0
   19.6895  -11.6601  -14.8913 O   0  0  0  0  0  0  0  0  0  0  0  0
   20.0961   -8.2080  -17.3497 C   0  0  0  0  0  0  0  0  0  0  0  0
   19.7231   -9.2614  -16.3576 C   0  0  2  0  0  0  0  0  0  0  0  0
   19.6958  -10.5854  -16.8988 N   0  0  0  0  0  0  0  0  0  0  0  0
   18.4787   -8.9310  -15.5965 C   0  0  0  0  0  0  0  0  0  0  0  0
   17.5522   -9.7705  -15.5312 O   0  0  0  0  0  0  0  0  0  0  0  0
   14.2382   -9.7747   -8.7517 N   0  0  0  0  0  0  0  0  0  0  0  0
   13.3457   -9.2058   -9.6825 C   0  0  0  0  0  0  0  0  0  0  0  0
   12.0574   -9.4105   -9.5476 N   0  0  0  0  0  0  0  0  0  0  0  0
   13.8194   -8.4071  -10.7751 N   0  0  0  0  0  0  0  0  0  0  0  0
   15.1134   -8.7458  -11.3100 C   0  0  0  0  0  0  0  0  0  0  0  0
   15.4624   -7.8397  -12.4834 C   0  0  0  0  0  0  0  0  0  0  0  0
   16.7306   -8.2378  -13.1514 C   0  0  0  0  0  0  0  0  0  0  0  0
   17.1012   -7.2957  -14.2343 C   0  0  2  0  0  0  0  0  0  0  0  0
   18.3071   -7.6899  -14.9395 N   0  0  0  0  0  0  0  0  0  0  0  0
   17.1417   -5.9198  -13.7602 C   0  0  0  0  0  0  0  0  0  0  0  0
   18.2668   -5.4978  -13.3174 O   0  0  0  0  0  0  0  0  0  0  0  0
   16.1171   -5.0052  -13.7273 O   0  0  0  0  0  0  0  0  0  0  0  0
  2  1  1  1
  2  9  1  0
  3  2  1  0
  3  4  1  0
  4  5  2  0
  4  8  1  0
  5  6  1  0
  6  7  1  0
  8  7  2  0
  9 10  2  0
 12 11  1  6
 12 14  1  0
 13 12  1  0
 13  9  1  0
 14 15  2  0
 17 18  2  0
 17 16  1  0
 19 20  1  0
 19 17  1  0
 20 21  1  0
 21 22  1  0
 23 22  1  1
 23 25  1  0
 24 23  1  0
 24 14  1  0
 25 26  2  0
 25 27  1  0
M  END
$$$$
