HAR.pdb
     RDKit          3D

 27 27  0  0  1  0  0  0  0  0999 V2000
   18.5957  -14.1270  -15.9307 N   0  0  0  0  0  0  0  0  0  0  0  0
   17.9721  -12.9014  -16.3828 C   0  0  1  0  0  0  0  0  0  0  0  0
   16.4755  -13.0066  -16.2569 C   0  0  0  0  0  0  0  0  0  0  0  0
   15.9803  -14.0587  -17.1701 C   0  0  0  0  0  0  0  0  0  0  0  0
   15.6086  -15.3529  -16.8877 C   0  0  0  0  0  0  0  0  0  0  0  0
   15.2123  -15.9775  -18.0257 N   0  0  0  0  0  0  0  0  0  0  0  0
   15.3388  -15.0728  -19.0063 C   0  0  0  0  0  0  0  0  0  0  0  0
   15.8041  -13.9085  -18.4909 N   0  0  0  0  0  0  0  0  0  0  0  0
   18.5170  -11.7113  -15.6849 C   0  0  0  0  0  0  0  0  0  0  0  0
   18.4750  -11.6227  -14.4300 O   0  0  0  0  0  0  0  0  0  0  0  0
   20.4061   -8.5510  -16.6462 C   0  0  0  0  0  0  0  0  0  0  0  0
   19.5333   -9.3882  -15.7686 C   0  0  2  0  0  0  0  0  0  0  0  0
   19.1104  -10.6152  -16.3706 N   0  0  0  0  0  0  0  0  0  0  0  0
   18.3937   -8.6209  -15.1775 C   0  0  0  0  0  0  0  0  0  0  0  0
   17.3113   -8.5415  -15.8018 O   0  0  0  0  0  0  0  0  0  0  0  0
   14.8729   -7.1039   -7.2743 N   0  0  0  0  0  0  0  0  0  0  0  0
   14.0395   -6.4883   -8.2299 C   0  0  0  0  0  0  0  0  0  0  0  0
   12.8279   -6.1216   -7.8870 N   0  0  0  0  0  0  0  0  0  0  0  0
   14.4909   -6.2552   -9.5709 N   0  0  0  0  0  0  0  0  0  0  0  0
   15.6732   -6.9650   -9.9874 C   0  0  0  0  0  0  0  0  0  0  0  0
   16.0135   -6.6364  -11.4351 C   0  0  0  0  0  0  0  0  0  0  0  0
   17.1576   -7.4384  -11.9462 C   0  0  0  0  0  0  0  0  0  0  0  0
   17.4676   -7.1160  -13.3595 C   0  0  2  0  0  0  0  0  0  0  0  0
   18.4940   -7.9733  -13.9237 N   0  0  0  0  0  0  0  0  0  0  0  0
   17.7461   -5.6984  -13.5395 C   0  0  0  0  0  0  0  0  0  0  0  0
   16.7902   -4.9788  -13.9964 O   0  0  0  0  0  0  0  0  0  0  0  0
   18.9150   -5.0254  -13.2785 O   0  0  0  0  0  0  0  0  0  0  0  0
  2  1  1  1
  2  9  1  0
  3  2  1  0
  3  4  1  0
  4  5  2  0
  4  8  1  0
  5  6  1  0
  6  7  1  0
  8  7  2  0
  9 10  2  0
 12 11  1  6
 12 14  1  0
 13 12  1  0
 13  9  1  0
 14 15  2  0
 17 18  2  0
 17 16  1  0
 19 20  1  0
 19 17  1  0
 20 21  1  0
 21 22  1  0
 23 22  1  1
 23 25  1  0
 24 23  1  0
 24 14  1  0
 25 26  2  0
 25 27  1  0
M  END
$$$$
