HAR.pdb
     RDKit          3D

 27 27  0  0  1  0  0  0  0  0999 V2000
   21.9658  -32.6637   -8.9762 N   0  0  0  0  0  0  0  0  0  0  0  0
   22.1938  -32.1691   -7.6350 C   0  0  1  0  0  0  0  0  0  0  0  0
   23.3135  -31.1626   -7.6392 C   0  0  0  0  0  0  0  0  0  0  0  0
   24.5914  -31.8533   -7.9149 C   0  0  0  0  0  0  0  0  0  0  0  0
   25.2875  -31.9578   -9.0970 C   0  0  0  0  0  0  0  0  0  0  0  0
   26.4187  -32.6826   -8.9033 N   0  0  0  0  0  0  0  0  0  0  0  0
   26.4207  -33.0239   -7.6073 C   0  0  0  0  0  0  0  0  0  0  0  0
   25.3143  -32.5226   -7.0053 N   0  0  0  0  0  0  0  0  0  0  0  0
   20.9533  -31.6340   -7.0226 C   0  0  0  0  0  0  0  0  0  0  0  0
   20.2210  -30.8241   -7.6489 O   0  0  0  0  0  0  0  0  0  0  0  0
   18.7521  -32.4044   -4.0645 C   0  0  0  0  0  0  0  0  0  0  0  0
   19.3659  -31.4645   -5.0507 C   0  0  2  0  0  0  0  0  0  0  0  0
   20.5173  -31.9916   -5.7165 N   0  0  0  0  0  0  0  0  0  0  0  0
   19.6094  -30.1020   -4.4839 C   0  0  0  0  0  0  0  0  0  0  0  0
   20.6875  -29.8604   -3.8950 O   0  0  0  0  0  0  0  0  0  0  0  0
   16.6029  -23.3242   -8.4284 N   0  0  0  0  0  0  0  0  0  0  0  0
   17.7134  -24.0395   -8.9200 C   0  0  0  0  0  0  0  0  0  0  0  0
   18.1799  -23.7635  -10.1143 N   0  0  0  0  0  0  0  0  0  0  0  0
   18.3436  -25.0639   -8.1392 N   0  0  0  0  0  0  0  0  0  0  0  0
   17.7640  -25.3427   -6.8502 C   0  0  0  0  0  0  0  0  0  0  0  0
   18.5536  -26.4284   -6.1309 C   0  0  0  0  0  0  0  0  0  0  0  0
   18.0266  -26.7058   -4.7676 C   0  0  0  0  0  0  0  0  0  0  0  0
   18.8394  -27.7239   -4.0603 C   0  0  2  0  0  0  0  0  0  0  0  0
   18.6551  -29.0629   -4.5895 N   0  0  0  0  0  0  0  0  0  0  0  0
   18.6574  -27.6507   -2.6177 C   0  0  0  0  0  0  0  0  0  0  0  0
   17.7343  -28.3840   -2.1173 O   0  0  0  0  0  0  0  0  0  0  0  0
   19.3569  -26.8884   -1.7138 O   0  0  0  0  0  0  0  0  0  0  0  0
  2  1  1  6
  2  9  1  0
  3  2  1  0
  3  4  1  0
  4  5  2  0
  4  8  1  0
  5  6  1  0
  6  7  1  0
  8  7  2  0
  9 10  2  0
 12 11  1  1
 12 14  1  0
 13 12  1  0
 13  9  1  0
 14 15  2  0
 17 18  2  0
 17 16  1  0
 19 20  1  0
 19 17  1  0
 20 21  1  0
 21 22  1  0
 23 22  1  6
 23 25  1  0
 24 23  1  0
 24 14  1  0
 25 26  2  0
 25 27  1  0
M  END
$$$$
