CPL.pdb
     RDKit          3D

 22 22  0  0  1  0  0  0  0  0999 V2000
   22.0387  -12.7760  -18.9085 N   0  0  0  0  0  0  0  0  0  0  0  0
   21.9119  -11.4172  -19.3179 C   0  0  1  0  0  0  0  0  0  0  0  0
   20.4264  -11.0945  -19.4671 C   0  0  0  0  0  0  0  0  0  0  0  0
   19.7986  -12.0420  -20.8990 S   0  0  0  0  0  0  0  0  0  0  0  0
   22.5496  -10.4222  -18.4515 C   0  0  0  0  0  0  0  0  0  0  0  0
   22.5555  -10.6465  -17.1909 O   0  0  0  0  0  0  0  0  0  0  0  0
   23.1691   -9.2167  -18.8832 N   0  0  0  0  0  0  0  0  0  0  0  0
   23.3207   -8.8430  -20.2783 C   0  0  0  0  0  0  0  0  0  0  0  0
   24.2824   -7.6758  -20.2216 C   0  0  0  0  0  0  0  0  0  0  0  0
   23.9208   -7.0002  -18.9443 C   0  0  0  0  0  0  0  0  0  0  0  0
   23.7210   -8.2008  -18.0063 C   0  0  1  0  0  0  0  0  0  0  0  0
   22.6849   -7.7144  -17.0293 C   0  0  0  0  0  0  0  0  0  0  0  0
   21.5720   -8.2880  -17.0355 O   0  0  0  0  0  0  0  0  0  0  0  0
   20.8218   -7.9764  -11.9185 C   0  0  0  0  0  0  0  0  0  0  0  0
   20.6306   -7.0850  -13.1179 C   0  0  2  0  0  0  0  0  0  0  0  0
   19.1745   -6.9326  -13.5032 C   0  0  0  0  0  0  0  0  0  0  0  0
   21.5518   -7.3521  -14.2420 C   0  0  0  0  0  0  0  0  0  0  0  0
   21.9657   -6.2375  -15.1144 C   0  0  2  0  0  0  0  0  0  0  0  0
   22.9060   -6.6694  -16.1315 N   0  0  0  0  0  0  0  0  0  0  0  0
   22.4499   -5.0309  -14.4544 C   0  0  0  0  0  0  0  0  0  0  0  0
   23.7826   -4.7615  -14.1853 O   0  0  0  0  0  0  0  0  0  0  0  0
   21.6354   -4.1486  -14.0877 O   0  0  0  0  0  0  0  0  0  0  0  0
  2  1  1  1
  3  4  1  0
  3  2  1  0
  5  6  2  0
  5  2  1  0
  7  5  1  0
  8  7  1  0
  9 10  1  0
  9  8  1  0
 10 11  1  0
 11  7  1  0
 11 12  1  1
 12 19  1  0
 13 12  2  0
 15 14  1  1
 16 15  1  0
 17 15  1  0
 18 20  1  0
 18 17  1  1
 19 18  1  0
 20 21  1  0
 22 20  2  0
M  END
$$$$
