CPL.pdb
     RDKit          3D

 22 22  0  0  1  0  0  0  0  0999 V2000
   21.6918  -19.6046  -16.8338 N   0  0  0  0  0  0  0  0  0  0  0  0
   22.2619  -18.7857  -15.8169 C   0  0  1  0  0  0  0  0  0  0  0  0
   21.9356  -19.4047  -14.4591 C   0  0  0  0  0  0  0  0  0  0  0  0
   20.2933  -18.7827  -13.9511 S   0  0  0  0  0  0  0  0  0  0  0  0
   23.7039  -18.5456  -15.9173 C   0  0  0  0  0  0  0  0  0  0  0  0
   24.4573  -19.5465  -16.1820 O   0  0  0  0  0  0  0  0  0  0  0  0
   24.3535  -17.2918  -15.7459 N   0  0  0  0  0  0  0  0  0  0  0  0
   23.6481  -16.0281  -15.6267 C   0  0  0  0  0  0  0  0  0  0  0  0
   24.7501  -15.0012  -15.7730 C   0  0  0  0  0  0  0  0  0  0  0  0
   25.9184  -15.6634  -15.1288 C   0  0  0  0  0  0  0  0  0  0  0  0
   25.7892  -17.1001  -15.6584 C   0  0  1  0  0  0  0  0  0  0  0  0
   26.3760  -17.9358  -14.5530 C   0  0  0  0  0  0  0  0  0  0  0  0
   26.3074  -17.4818  -13.3881 O   0  0  0  0  0  0  0  0  0  0  0  0
   25.4654  -21.3443  -10.6044 C   0  0  0  0  0  0  0  0  0  0  0  0
   26.6454  -20.8571  -11.4043 C   0  0  2  0  0  0  0  0  0  0  0  0
   27.5900  -20.0027  -10.5859 C   0  0  0  0  0  0  0  0  0  0  0  0
   26.3100  -20.3186  -12.7389 C   0  0  0  0  0  0  0  0  0  0  0  0
   27.3911  -20.0882  -13.7150 C   0  0  2  0  0  0  0  0  0  0  0  0
   26.9833  -19.1739  -14.7653 N   0  0  0  0  0  0  0  0  0  0  0  0
   28.0226  -21.2709  -14.2879 C   0  0  0  0  0  0  0  0  0  0  0  0
   29.2967  -21.7150  -13.9706 O   0  0  0  0  0  0  0  0  0  0  0  0
   27.4032  -21.9641  -15.1318 O   0  0  0  0  0  0  0  0  0  0  0  0
  2  1  1  6
  3  4  1  0
  3  2  1  0
  5  6  2  0
  5  2  1  0
  7  5  1  0
  8  7  1  0
  9 10  1  0
  9  8  1  0
 10 11  1  0
 11  7  1  0
 11 12  1  1
 12 19  1  0
 13 12  2  0
 15 14  1  1
 16 15  1  0
 17 15  1  0
 18 20  1  0
 18 17  1  6
 19 18  1  0
 20 21  1  0
 22 20  2  0
M  END
$$$$
