CPL.pdb
     RDKit          3D

 22 22  0  0  1  0  0  0  0  0999 V2000
   23.7109  -21.1822  -17.5644 N   0  0  0  0  0  0  0  0  0  0  0  0
   24.3023  -20.1619  -16.7649 C   0  0  1  0  0  0  0  0  0  0  0  0
   23.2362  -19.1129  -16.4547 C   0  0  0  0  0  0  0  0  0  0  0  0
   24.0609  -17.7290  -15.5905 S   0  0  0  0  0  0  0  0  0  0  0  0
   24.9361  -20.6060  -15.5206 C   0  0  0  0  0  0  0  0  0  0  0  0
   24.2062  -21.2204  -14.6667 O   0  0  0  0  0  0  0  0  0  0  0  0
   26.3008  -20.4164  -15.1672 N   0  0  0  0  0  0  0  0  0  0  0  0
   27.2728  -19.7636  -16.0263 C   0  0  0  0  0  0  0  0  0  0  0  0
   28.5933  -20.0800  -15.3581 C   0  0  0  0  0  0  0  0  0  0  0  0
   28.2476  -20.0856  -13.9093 C   0  0  0  0  0  0  0  0  0  0  0  0
   26.9052  -20.8334  -13.9156 C   0  0  1  0  0  0  0  0  0  0  0  0
   26.1698  -20.2445  -12.7420 C   0  0  0  0  0  0  0  0  0  0  0  0
   25.8619  -19.0324  -12.8036 O   0  0  0  0  0  0  0  0  0  0  0  0
   22.5811  -19.6396  -11.7682 C   0  0  0  0  0  0  0  0  0  0  0  0
   22.8885  -20.9897  -11.1747 C   0  0  2  0  0  0  0  0  0  0  0  0
   21.6390  -21.7821  -10.8538 C   0  0  0  0  0  0  0  0  0  0  0  0
   23.9152  -20.9807  -10.1119 C   0  0  0  0  0  0  0  0  0  0  0  0
   25.2455  -20.4135  -10.4006 C   0  0  2  0  0  0  0  0  0  0  0  0
   25.8217  -20.9774  -11.6069 N   0  0  0  0  0  0  0  0  0  0  0  0
   26.2187  -20.4343   -9.3150 C   0  0  0  0  0  0  0  0  0  0  0  0
   27.4456  -21.0768   -9.3696 O   0  0  0  0  0  0  0  0  0  0  0  0
   25.9668  -19.8408   -8.2377 O   0  0  0  0  0  0  0  0  0  0  0  0
  2  1  1  1
  3  4  1  0
  3  2  1  0
  5  6  2  0
  5  2  1  0
  7  5  1  0
  8  7  1  0
  9 10  1  0
  9  8  1  0
 10 11  1  0
 11  7  1  0
 11 12  1  1
 12 19  1  0
 13 12  2  0
 15 14  1  1
 16 15  1  0
 17 15  1  0
 18 20  1  0
 18 17  1  1
 19 18  1  0
 20 21  1  0
 22 20  2  0
M  END
$$$$
