CPL.pdb
     RDKit          3D

 22 22  0  0  1  0  0  0  0  0999 V2000
   27.1325  -18.9894  -16.6474 N   0  0  0  0  0  0  0  0  0  0  0  0
   26.9109  -20.0602  -15.7340 C   0  0  1  0  0  0  0  0  0  0  0  0
   28.2621  -20.6743  -15.3730 C   0  0  0  0  0  0  0  0  0  0  0  0
   27.9522  -22.3751  -14.7785 S   0  0  0  0  0  0  0  0  0  0  0  0
   26.1790  -19.7211  -14.5106 C   0  0  0  0  0  0  0  0  0  0  0  0
   26.7423  -18.9250  -13.6809 O   0  0  0  0  0  0  0  0  0  0  0  0
   24.8876  -20.1985  -14.1533 N   0  0  0  0  0  0  0  0  0  0  0  0
   24.0358  -20.9646  -15.0457 C   0  0  0  0  0  0  0  0  0  0  0  0
   22.6990  -20.9612  -14.3363 C   0  0  0  0  0  0  0  0  0  0  0  0
   23.0791  -20.9931  -12.8965 C   0  0  0  0  0  0  0  0  0  0  0  0
   24.2506  -19.9992  -12.8647 C   0  0  1  0  0  0  0  0  0  0  0  0
   25.1198  -20.5166  -11.7505 C   0  0  0  0  0  0  0  0  0  0  0  0
   25.7462  -21.5813  -11.9546 O   0  0  0  0  0  0  0  0  0  0  0  0
   26.7823  -20.4033   -6.4840 C   0  0  0  0  0  0  0  0  0  0  0  0
   27.6086  -19.7213   -7.5432 C   0  0  2  0  0  0  0  0  0  0  0  0
   28.4606  -18.6014   -6.9847 C   0  0  0  0  0  0  0  0  0  0  0  0
   26.8771  -19.3931   -8.7845 C   0  0  0  0  0  0  0  0  0  0  0  0
   25.9851  -20.4034   -9.3833 C   0  0  2  0  0  0  0  0  0  0  0  0
   25.2562  -19.8728  -10.5201 N   0  0  0  0  0  0  0  0  0  0  0  0
   25.0782  -21.0989   -8.4780 C   0  0  0  0  0  0  0  0  0  0  0  0
   25.3972  -22.2499   -7.7746 O   0  0  0  0  0  0  0  0  0  0  0  0
   23.9173  -20.6575   -8.2942 O   0  0  0  0  0  0  0  0  0  0  0  0
  2  1  1  6
  3  4  1  0
  3  2  1  0
  5  6  2  0
  5  2  1  0
  7  5  1  0
  8  7  1  0
  9 10  1  0
  9  8  1  0
 10 11  1  0
 11  7  1  0
 11 12  1  1
 12 19  1  0
 13 12  2  0
 15 14  1  1
 16 15  1  0
 17 15  1  0
 18 20  1  0
 18 17  1  1
 19 18  1  0
 20 21  1  0
 22 20  2  0
M  END
$$$$
