CPL.pdb
     RDKit          3D

 22 22  0  0  1  0  0  0  0  0999 V2000
   25.5053  -19.8124  -16.8657 N   0  0  0  0  0  0  0  0  0  0  0  0
   26.2043  -19.2277  -15.7705 C   0  0  1  0  0  0  0  0  0  0  0  0
   25.6089  -17.8475  -15.4993 C   0  0  0  0  0  0  0  0  0  0  0  0
   26.6651  -17.0279  -14.2524 S   0  0  0  0  0  0  0  0  0  0  0  0
   26.2268  -20.0089  -14.5310 C   0  0  0  0  0  0  0  0  0  0  0  0
   25.1065  -20.4141  -14.0618 O   0  0  0  0  0  0  0  0  0  0  0  0
   27.3887  -20.3633  -13.7908 N   0  0  0  0  0  0  0  0  0  0  0  0
   28.7381  -19.9998  -14.1857 C   0  0  0  0  0  0  0  0  0  0  0  0
   29.6044  -20.8456  -13.2777 C   0  0  0  0  0  0  0  0  0  0  0  0
   28.8157  -20.9052  -12.0155 C   0  0  0  0  0  0  0  0  0  0  0  0
   27.3915  -21.1184  -12.5517 C   0  0  1  0  0  0  0  0  0  0  0  0
   26.5238  -20.4548  -11.5166 C   0  0  0  0  0  0  0  0  0  0  0  0
   26.4279  -19.2071  -11.5584 O   0  0  0  0  0  0  0  0  0  0  0  0
   22.6621  -19.3935   -8.0490 C   0  0  0  0  0  0  0  0  0  0  0  0
   22.6097  -20.6286   -8.9101 C   0  0  2  0  0  0  0  0  0  0  0  0
   21.4360  -21.5234   -8.5729 C   0  0  0  0  0  0  0  0  0  0  0  0
   23.9024  -21.3254   -9.0741 C   0  0  0  0  0  0  0  0  0  0  0  0
   25.1004  -20.5452   -9.4355 C   0  0  2  0  0  0  0  0  0  0  0  0
   25.8327  -21.1569  -10.5286 N   0  0  0  0  0  0  0  0  0  0  0  0
   26.0081  -20.1935   -8.3499 C   0  0  0  0  0  0  0  0  0  0  0  0
   25.8838  -19.0656   -7.5538 O   0  0  0  0  0  0  0  0  0  0  0  0
   26.9839  -20.9376   -8.0845 O   0  0  0  0  0  0  0  0  0  0  0  0
  2  1  1  6
  3  4  1  0
  3  2  1  0
  5  6  2  0
  5  2  1  0
  7  5  1  0
  8  7  1  0
  9 10  1  0
  9  8  1  0
 10 11  1  0
 11  7  1  0
 11 12  1  1
 12 19  1  0
 13 12  2  0
 15 14  1  1
 16 15  1  0
 17 15  1  0
 18 20  1  0
 18 17  1  1
 19 18  1  0
 20 21  1  0
 22 20  2  0
M  END
$$$$
