CPL.pdb
     RDKit          3D

 22 22  0  0  1  0  0  0  0  0999 V2000
   24.5446  -21.5334  -11.9227 N   0  0  0  0  0  0  0  0  0  0  0  0
   25.7603  -20.7977  -11.8185 C   0  0  1  0  0  0  0  0  0  0  0  0
   25.4165  -19.3237  -11.6126 C   0  0  0  0  0  0  0  0  0  0  0  0
   25.6103  -18.4831  -13.2244 S   0  0  0  0  0  0  0  0  0  0  0  0
   26.6917  -21.2386  -10.7767 C   0  0  0  0  0  0  0  0  0  0  0  0
   26.2052  -21.5395   -9.6313 O   0  0  0  0  0  0  0  0  0  0  0  0
   28.1014  -21.3647  -10.9190 N   0  0  0  0  0  0  0  0  0  0  0  0
   28.8089  -21.1419  -12.1675 C   0  0  0  0  0  0  0  0  0  0  0  0
   30.1922  -21.6862  -11.8836 C   0  0  0  0  0  0  0  0  0  0  0  0
   30.3939  -21.3652  -10.4432 C   0  0  0  0  0  0  0  0  0  0  0  0
   29.0200  -21.7195   -9.8531 C   0  0  1  0  0  0  0  0  0  0  0  0
   28.8833  -20.7744   -8.6899 C   0  0  0  0  0  0  0  0  0  0  0  0
   28.0819  -19.8203   -8.8131 O   0  0  0  0  0  0  0  0  0  0  0  0
   26.2279  -19.6589   -4.1583 C   0  0  0  0  0  0  0  0  0  0  0  0
   27.5904  -19.3127   -4.6999 C   0  0  2  0  0  0  0  0  0  0  0  0
   27.8390  -17.8198   -4.7382 C   0  0  0  0  0  0  0  0  0  0  0  0
   27.9747  -20.0438   -5.9252 C   0  0  0  0  0  0  0  0  0  0  0  0
   29.3964  -20.1025   -6.3128 C   0  0  2  0  0  0  0  0  0  0  0  0
   29.5985  -20.9121   -7.4998 N   0  0  0  0  0  0  0  0  0  0  0  0
   30.3462  -20.4796   -5.2729 C   0  0  0  0  0  0  0  0  0  0  0  0
   30.6823  -21.7847   -4.9491 O   0  0  0  0  0  0  0  0  0  0  0  0
   30.9225  -19.5902   -4.5997 O   0  0  0  0  0  0  0  0  0  0  0  0
  2  1  1  1
  3  4  1  0
  3  2  1  0
  5  6  2  0
  5  2  1  0
  7  5  1  0
  8  7  1  0
  9 10  1  0
  9  8  1  0
 10 11  1  0
 11  7  1  0
 11 12  1  1
 12 19  1  0
 13 12  2  0
 15 14  1  6
 16 15  1  0
 17 15  1  0
 18 20  1  0
 18 17  1  1
 19 18  1  0
 20 21  1  0
 22 20  2  0
M  END
$$$$
