CPL.pdb
     RDKit          3D

 22 22  0  0  1  0  0  0  0  0999 V2000
   15.8934  -13.3525  -14.3080 N   0  0  0  0  0  0  0  0  0  0  0  0
   15.9924  -12.0475  -14.8711 C   0  0  1  0  0  0  0  0  0  0  0  0
   14.5968  -11.6005  -15.3021 C   0  0  0  0  0  0  0  0  0  0  0  0
   14.2751  -12.3162  -16.9532 S   0  0  0  0  0  0  0  0  0  0  0  0
   16.5983  -11.0225  -14.0170 C   0  0  0  0  0  0  0  0  0  0  0  0
   16.2322  -10.9763  -12.7909 O   0  0  0  0  0  0  0  0  0  0  0  0
   17.5653  -10.0627  -14.4258 N   0  0  0  0  0  0  0  0  0  0  0  0
   18.2236  -10.0824  -15.7201 C   0  0  0  0  0  0  0  0  0  0  0  0
   19.3455   -9.0806  -15.5533 C   0  0  0  0  0  0  0  0  0  0  0  0
   18.7550   -8.0582  -14.6452 C   0  0  0  0  0  0  0  0  0  0  0  0
   18.0184   -8.9405  -13.6252 C   0  0  1  0  0  0  0  0  0  0  0  0
   16.8577   -8.0849  -13.1946 C   0  0  0  0  0  0  0  0  0  0  0  0
   15.8233   -8.1190  -13.8993 O   0  0  0  0  0  0  0  0  0  0  0  0
   15.1752   -8.0211   -8.1950 C   0  0  0  0  0  0  0  0  0  0  0  0
   15.6453   -6.9471   -9.1411 C   0  0  2  0  0  0  0  0  0  0  0  0
   15.6483   -5.5729   -8.5057 C   0  0  0  0  0  0  0  0  0  0  0  0
   15.0549   -7.0107  -10.4942 C   0  0  0  0  0  0  0  0  0  0  0  0
   15.7889   -6.4202  -11.6287 C   0  0  2  0  0  0  0  0  0  0  0  0
   16.8828   -7.2687  -12.0632 N   0  0  0  0  0  0  0  0  0  0  0  0
   16.2446   -5.0441  -11.4722 C   0  0  0  0  0  0  0  0  0  0  0  0
   15.4161   -3.9331  -11.4938 O   0  0  0  0  0  0  0  0  0  0  0  0
   17.4655   -4.8046  -11.3039 O   0  0  0  0  0  0  0  0  0  0  0  0
  2  1  1  1
  3  4  1  0
  3  2  1  0
  5  6  2  0
  5  2  1  0
  7  5  1  0
  8  7  1  0
  9 10  1  0
  9  8  1  0
 10 11  1  0
 11  7  1  0
 11 12  1  6
 12 19  1  0
 13 12  2  0
 15 14  1  1
 16 15  1  0
 17 15  1  0
 18 20  1  0
 18 17  1  1
 19 18  1  0
 20 21  1  0
 22 20  2  0
M  END
$$$$
