CPL.pdb
     RDKit          3D

 22 22  0  0  1  0  0  0  0  0999 V2000
   14.0608  -20.0268    2.0826 N   0  0  0  0  0  0  0  0  0  0  0  0
   15.3583  -19.8166    2.6323 C   0  0  1  0  0  0  0  0  0  0  0  0
   16.2364  -19.1691    1.5631 C   0  0  0  0  0  0  0  0  0  0  0  0
   17.9546  -19.7219    1.8533 S   0  0  0  0  0  0  0  0  0  0  0  0
   15.4146  -19.0253    3.8643 C   0  0  0  0  0  0  0  0  0  0  0  0
   14.8724  -17.8654    3.8525 O   0  0  0  0  0  0  0  0  0  0  0  0
   16.0219  -19.4281    5.0859 N   0  0  0  0  0  0  0  0  0  0  0  0
   16.5251  -20.7678    5.3327 C   0  0  0  0  0  0  0  0  0  0  0  0
   16.7771  -20.7737    6.8249 C   0  0  0  0  0  0  0  0  0  0  0  0
   17.2132  -19.3765    7.1007 C   0  0  0  0  0  0  0  0  0  0  0  0
   16.2299  -18.5705    6.2378 C   0  0  1  0  0  0  0  0  0  0  0  0
   17.0176  -17.3452    5.8595 C   0  0  0  0  0  0  0  0  0  0  0  0
   17.5051  -17.3061    4.7069 O   0  0  0  0  0  0  0  0  0  0  0  0
   17.0002  -12.4189    3.6766 C   0  0  0  0  0  0  0  0  0  0  0  0
   17.8888  -13.1601    4.6413 C   0  0  2  0  0  0  0  0  0  0  0  0
   19.3265  -13.2296    4.1719 C   0  0  0  0  0  0  0  0  0  0  0  0
   17.3317  -14.4327    5.1449 C   0  0  0  0  0  0  0  0  0  0  0  0
   17.9028  -15.0369    6.3629 C   0  0  2  0  0  0  0  0  0  0  0  0
   17.2253  -16.2686    6.7224 N   0  0  0  0  0  0  0  0  0  0  0  0
   18.0329  -14.1699    7.5279 C   0  0  0  0  0  0  0  0  0  0  0  0
   19.0276  -13.2191    7.6947 O   0  0  0  0  0  0  0  0  0  0  0  0
   17.2067  -14.2586    8.4691 O   0  0  0  0  0  0  0  0  0  0  0  0
  2  1  1  6
  3  4  1  0
  3  2  1  0
  5  6  2  0
  5  2  1  0
  7  5  1  0
  8  7  1  0
  9 10  1  0
  9  8  1  0
 10 11  1  0
 11  7  1  0
 11 12  1  6
 12 19  1  0
 13 12  2  0
 15 14  1  6
 16 15  1  0
 17 15  1  0
 18 20  1  0
 18 17  1  6
 19 18  1  0
 20 21  1  0
 22 20  2  0
M  END
$$$$
