LRF.pdb
     RDKit          3D

 31 31  0  0  1  0  0  0  0  0999 V2000
   32.5577  -24.1386  -11.3608 C   0  0  0  0  0  0  0  0  0  0  0  0
   32.8677  -22.6755  -11.2693 C   0  0  2  0  0  0  0  0  0  0  0  0
   33.9714  -22.4158  -10.2893 C   0  0  0  0  0  0  0  0  0  0  0  0
   31.6704  -21.8054  -10.9918 C   0  0  0  0  0  0  0  0  0  0  0  0
   30.5391  -22.0204  -11.9746 C   0  0  2  0  0  0  0  0  0  0  0  0
   30.9335  -21.8611  -13.3423 N   0  0  0  0  0  0  0  0  0  0  0  0
   29.4274  -21.1370  -11.5864 C   0  0  0  0  0  0  0  0  0  0  0  0
   29.7324  -20.0022  -11.0924 O   0  0  0  0  0  0  0  0  0  0  0  0
   26.8537  -22.8342  -16.1527 N   0  0  0  0  0  0  0  0  0  0  0  0
   25.5549  -22.9996  -15.6028 C   0  0  0  0  0  0  0  0  0  0  0  0
   25.0089  -24.1855  -15.6346 N   0  0  0  0  0  0  0  0  0  0  0  0
   24.8390  -21.9394  -15.0292 N   0  0  0  0  0  0  0  0  0  0  0  0
   25.4918  -20.6989  -14.7063 C   0  0  0  0  0  0  0  0  0  0  0  0
   26.5132  -20.8492  -13.6006 C   0  0  0  0  0  0  0  0  0  0  0  0
   25.9614  -20.3413  -12.2763 C   0  0  0  0  0  0  0  0  0  0  0  0
   27.0623  -20.5068  -11.2475 C   0  0  2  0  0  0  0  0  0  0  0  0
   28.0506  -21.4321  -11.7115 N   0  0  0  0  0  0  0  0  0  0  0  0
   26.4984  -20.9713   -9.9388 C   0  0  0  0  0  0  0  0  0  0  0  0
   26.3640  -22.1991   -9.7475 O   0  0  0  0  0  0  0  0  0  0  0  0
   24.0520  -24.3404  -15.2692 N   0  0  0  0  0  0  0  0  0  0  0  0
   26.1226  -20.0637   -8.9347 C   0  0  1  0  0  0  0  0  0  0  0  0
   25.3507  -20.3600   -7.7490 C   0  0  0  0  0  0  0  0  0  0  0  0
   25.6288  -19.3269   -6.7217 C   0  0  0  0  0  0  0  0  0  0  0  0
   26.9125  -19.4534   -6.0186 C   0  0  0  0  0  0  0  0  0  0  0  0
   27.0957  -20.4265   -5.0709 C   0  0  0  0  0  0  0  0  0  0  0  0
   28.3188  -20.5446   -4.4048 C   0  0  0  0  0  0  0  0  0  0  0  0
   29.3202  -19.6535   -4.7359 C   0  0  0  0  0  0  0  0  0  0  0  0
   29.1727  -18.6577   -5.6875 C   0  0  0  0  0  0  0  0  0  0  0  0
   27.9331  -18.5828   -6.3230 C   0  0  0  0  0  0  0  0  0  0  0  0
   23.9231  -20.6367   -8.0042 O   0  0  0  0  0  0  0  0  0  0  0  0
   23.1098  -21.3000   -7.0960 O   0  0  0  0  0  0  0  0  0  0  0  0
  2  1  1  1
  3  2  1  0
  4  5  1  0
  4  2  1  0
  5  6  1  6
  7  5  1  0
  7  8  2  0
  9 10  1  0
 10 12  1  0
 11 10  2  0
 12 13  1  0
 13 14  1  0
 14 15  1  0
 16 15  1  6
 16 17  1  0
 17  7  1  0
 18 16  1  0
 19 18  2  0
 20 18  1  0
 21 20  1  0
 21 22  1  1
 22 23  1  0
 23 28  2  0
 24 25  2  0
 24 23  1  0
 25 26  1  0
 26 27  2  0
 28 27  1  0
 29 21  1  0
 30 29  1  0
 31 29  2  0
M  END
$$$$
