LRF.pdb
     RDKit          3D

 31 31  0  0  1  0  0  0  0  0999 V2000
   29.3276  -18.8068  -17.5496 C   0  0  0  0  0  0  0  0  0  0  0  0
   28.7113  -17.5279  -17.0704 C   0  0  2  0  0  0  0  0  0  0  0  0
   29.7373  -16.6334  -16.4435 C   0  0  0  0  0  0  0  0  0  0  0  0
   27.5204  -17.7150  -16.1679 C   0  0  0  0  0  0  0  0  0  0  0  0
   26.5577  -18.7720  -16.6659 C   0  0  2  0  0  0  0  0  0  0  0  0
   25.7773  -18.3487  -17.7899 N   0  0  0  0  0  0  0  0  0  0  0  0
   25.7379  -19.2120  -15.5251 C   0  0  0  0  0  0  0  0  0  0  0  0
   25.1169  -18.3094  -14.8735 O   0  0  0  0  0  0  0  0  0  0  0  0
   20.9834  -22.2942  -16.2528 N   0  0  0  0  0  0  0  0  0  0  0  0
   20.1024  -22.3905  -15.1432 C   0  0  0  0  0  0  0  0  0  0  0  0
   18.8938  -21.9096  -15.2610 N   0  0  0  0  0  0  0  0  0  0  0  0
   20.4814  -22.9806  -13.9293 N   0  0  0  0  0  0  0  0  0  0  0  0
   21.8322  -23.4270  -13.7170 C   0  0  0  0  0  0  0  0  0  0  0  0
   22.7715  -22.2941  -13.3667 C   0  0  0  0  0  0  0  0  0  0  0  0
   23.7038  -21.9804  -14.5280 C   0  0  0  0  0  0  0  0  0  0  0  0
   24.6223  -20.8661  -14.0673 C   0  0  2  0  0  0  0  0  0  0  0  0
   25.5758  -20.5456  -15.0855 N   0  0  0  0  0  0  0  0  0  0  0  0
   25.3305  -21.2520  -12.8040 C   0  0  0  0  0  0  0  0  0  0  0  0
   26.4043  -21.8858  -12.8899 O   0  0  0  0  0  0  0  0  0  0  0  0
   18.1785  -22.0848  -14.5325 N   0  0  0  0  0  0  0  0  0  0  0  0
   24.8166  -20.9186  -11.5399 C   0  0  1  0  0  0  0  0  0  0  0  0
   25.5120  -21.0058  -10.2756 C   0  0  0  0  0  0  0  0  0  0  0  0
   26.5750  -19.9720  -10.2374 C   0  0  0  0  0  0  0  0  0  0  0  0
   27.3444  -19.8916   -8.9885 C   0  0  0  0  0  0  0  0  0  0  0  0
   26.9135  -19.1032   -7.9534 C   0  0  0  0  0  0  0  0  0  0  0  0
   27.6475  -19.0301   -6.7662 C   0  0  0  0  0  0  0  0  0  0  0  0
   28.8076  -19.7738   -6.6804 C   0  0  0  0  0  0  0  0  0  0  0  0
   29.2747  -20.5815   -7.7043 C   0  0  0  0  0  0  0  0  0  0  0  0
   28.5054  -20.6193   -8.8675 C   0  0  0  0  0  0  0  0  0  0  0  0
   24.6269  -21.0535   -9.0949 O   0  0  0  0  0  0  0  0  0  0  0  0
   24.9384  -21.7700   -7.9478 O   0  0  0  0  0  0  0  0  0  0  0  0
  2  1  1  1
  3  2  1  0
  4  5  1  0
  4  2  1  0
  5  6  1  6
  7  5  1  0
  7  8  2  0
  9 10  1  0
 10 12  1  0
 11 10  2  0
 12 13  1  0
 13 14  1  0
 14 15  1  0
 16 15  1  6
 16 17  1  0
 17  7  1  0
 18 16  1  0
 19 18  2  0
 20 18  1  0
 21 20  1  0
 21 22  1  1
 22 23  1  0
 23 28  2  0
 24 25  2  0
 24 23  1  0
 25 26  1  0
 26 27  2  0
 28 27  1  0
 29 21  1  0
 30 29  1  0
 31 29  2  0
M  END
$$$$
