LRF.pdb
     RDKit          3D

 31 31  0  0  1  0  0  0  0  0999 V2000
   28.9753  -15.9477  -18.2203 C   0  0  0  0  0  0  0  0  0  0  0  0
   28.0851  -15.1778  -17.2930 C   0  0  2  0  0  0  0  0  0  0  0  0
   28.8857  -14.4211  -16.2770 C   0  0  0  0  0  0  0  0  0  0  0  0
   27.0090  -16.0043  -16.6399 C   0  0  0  0  0  0  0  0  0  0  0  0
   26.2145  -16.8327  -17.6271 C   0  0  2  0  0  0  0  0  0  0  0  0
   25.3136  -16.0578  -18.4269 N   0  0  0  0  0  0  0  0  0  0  0  0
   25.5447  -17.9096  -16.8797 C   0  0  0  0  0  0  0  0  0  0  0  0
   24.5528  -17.5803  -16.1499 O   0  0  0  0  0  0  0  0  0  0  0  0
   25.2284  -25.7214  -14.8429 N   0  0  0  0  0  0  0  0  0  0  0  0
   23.8269  -25.5005  -14.9051 C   0  0  0  0  0  0  0  0  0  0  0  0
   23.0676  -26.0425  -13.9911 N   0  0  0  0  0  0  0  0  0  0  0  0
   23.2303  -24.7249  -15.9089 N   0  0  0  0  0  0  0  0  0  0  0  0
   24.0135  -23.8129  -16.6989 C   0  0  0  0  0  0  0  0  0  0  0  0
   24.2481  -22.4915  -16.0009 C   0  0  0  0  0  0  0  0  0  0  0  0
   24.9325  -21.4987  -16.9295 C   0  0  0  0  0  0  0  0  0  0  0  0
   25.1624  -20.2324  -16.1287 C   0  0  2  0  0  0  0  0  0  0  0  0
   25.9011  -19.2774  -16.8972 N   0  0  0  0  0  0  0  0  0  0  0  0
   25.8884  -20.5370  -14.8534 C   0  0  0  0  0  0  0  0  0  0  0  0
   27.0736  -20.9287  -14.9186 O   0  0  0  0  0  0  0  0  0  0  0  0
   22.0532  -25.8361  -13.9517 N   0  0  0  0  0  0  0  0  0  0  0  0
   25.2697  -20.3922  -13.6006 C   0  0  2  0  0  0  0  0  0  0  0  0
   25.8528  -20.6873  -12.3112 C   0  0  0  0  0  0  0  0  0  0  0  0
   25.4221  -19.6532  -11.3389 C   0  0  0  0  0  0  0  0  0  0  0  0
   24.0151  -19.7153  -10.9206 C   0  0  0  0  0  0  0  0  0  0  0  0
   23.6812  -20.1206   -9.6546 C   0  0  0  0  0  0  0  0  0  0  0  0
   22.3416  -20.1773   -9.2597 C   0  0  0  0  0  0  0  0  0  0  0  0
   21.3826  -19.8137  -10.1841 C   0  0  0  0  0  0  0  0  0  0  0  0
   21.6812  -19.3991  -11.4717 C   0  0  0  0  0  0  0  0  0  0  0  0
   23.0326  -19.3601  -11.8154 C   0  0  0  0  0  0  0  0  0  0  0  0
   25.6826  -22.0861  -11.8709 O   0  0  0  0  0  0  0  0  0  0  0  0
   24.8284  -22.9774  -12.5052 O   0  0  0  0  0  0  0  0  0  0  0  0
  2  1  1  1
  3  2  1  0
  4  5  1  0
  4  2  1  0
  5  6  1  1
  7  5  1  0
  7  8  2  0
  9 10  1  0
 10 12  1  0
 11 10  2  0
 12 13  1  0
 13 14  1  0
 14 15  1  0
 16 15  1  6
 16 17  1  0
 17  7  1  0
 18 16  1  0
 19 18  2  0
 20 18  1  0
 21 20  1  0
 21 22  1  6
 22 23  1  0
 23 28  2  0
 24 25  2  0
 24 23  1  0
 25 26  1  0
 26 27  2  0
 28 27  1  0
 29 21  1  0
 30 29  1  0
 31 29  2  0
M  END
$$$$
