LRF.pdb
     RDKit          3D

 31 31  0  0  1  0  0  0  0  0999 V2000
   28.6949  -19.8447  -14.4115 C   0  0  0  0  0  0  0  0  0  0  0  0
   27.9578  -19.5050  -15.6710 C   0  0  2  0  0  0  0  0  0  0  0  0
   28.1733  -18.0727  -16.0555 C   0  0  0  0  0  0  0  0  0  0  0  0
   26.4927  -19.8521  -15.6433 C   0  0  0  0  0  0  0  0  0  0  0  0
   26.2298  -21.2892  -15.2463 C   0  0  2  0  0  0  0  0  0  0  0  0
   26.8918  -22.2430  -16.0851 N   0  0  0  0  0  0  0  0  0  0  0  0
   24.7719  -21.4838  -15.1875 C   0  0  0  0  0  0  0  0  0  0  0  0
   24.0792  -20.9730  -16.1279 O   0  0  0  0  0  0  0  0  0  0  0  0
   20.1921  -26.5643  -12.3400 N   0  0  0  0  0  0  0  0  0  0  0  0
   21.5793  -26.8636  -12.2879 C   0  0  0  0  0  0  0  0  0  0  0  0
   22.0336  -27.5476  -11.2723 N   0  0  0  0  0  0  0  0  0  0  0  0
   22.4767  -26.4524  -13.2835 N   0  0  0  0  0  0  0  0  0  0  0  0
   22.0014  -26.0136  -14.5683 C   0  0  0  0  0  0  0  0  0  0  0  0
   22.4621  -24.6145  -14.9127 C   0  0  0  0  0  0  0  0  0  0  0  0
   22.1833  -23.6517  -13.7674 C   0  0  0  0  0  0  0  0  0  0  0  0
   22.6409  -22.2804  -14.2230 C   0  0  2  0  0  0  0  0  0  0  0  0
   24.0685  -22.1864  -14.1826 N   0  0  0  0  0  0  0  0  0  0  0  0
   22.0316  -21.2087  -13.3706 C   0  0  0  0  0  0  0  0  0  0  0  0
   22.3542  -21.1479  -12.1646 O   0  0  0  0  0  0  0  0  0  0  0  0
   23.0259  -27.8419  -11.2305 N   0  0  0  0  0  0  0  0  0  0  0  0
   21.1156  -20.2817  -13.8951 C   0  0  1  0  0  0  0  0  0  0  0  0
   20.5074  -19.1763  -13.1896 C   0  0  0  0  0  0  0  0  0  0  0  0
   21.1499  -17.9129  -13.6269 C   0  0  0  0  0  0  0  0  0  0  0  0
   20.9558  -17.5517  -15.0376 C   0  0  0  0  0  0  0  0  0  0  0  0
   19.9095  -16.7505  -15.4148 C   0  0  0  0  0  0  0  0  0  0  0  0
   19.7288  -16.4079  -16.7577 C   0  0  0  0  0  0  0  0  0  0  0  0
   20.6341  -16.9027  -17.6753 C   0  0  0  0  0  0  0  0  0  0  0  0
   21.7030  -17.7143  -17.3324 C   0  0  0  0  0  0  0  0  0  0  0  0
   21.8387  -18.0264  -15.9795 C   0  0  0  0  0  0  0  0  0  0  0  0
   19.0311  -19.1799  -13.2077 O   0  0  0  0  0  0  0  0  0  0  0  0
   18.2891  -20.0447  -13.9999 O   0  0  0  0  0  0  0  0  0  0  0  0
  2  1  1  1
  3  2  1  0
  4  5  1  0
  4  2  1  0
  5  6  1  6
  7  5  1  0
  7  8  2  0
  9 10  1  0
 10 12  1  0
 11 10  2  0
 12 13  1  0
 13 14  1  0
 14 15  1  0
 16 15  1  1
 16 17  1  0
 17  7  1  0
 18 16  1  0
 19 18  2  0
 20 18  1  0
 21 20  1  0
 21 22  1  1
 22 23  1  0
 23 28  2  0
 24 25  2  0
 24 23  1  0
 25 26  1  0
 26 27  2  0
 28 27  1  0
 29 21  1  0
 30 29  1  0
 31 29  2  0
M  END
$$$$
