LRF.pdb
     RDKit          3D

 31 31  0  0  1  0  0  0  0  0999 V2000
   14.0947  -21.2236    4.3362 C   0  0  0  0  0  0  0  0  0  0  0  0
   15.4217  -21.8114    3.9636 C   0  0  2  0  0  0  0  0  0  0  0  0
   15.6785  -23.0857    4.7092 C   0  0  0  0  0  0  0  0  0  0  0  0
   16.5792  -20.8568    4.0918 C   0  0  0  0  0  0  0  0  0  0  0  0
   16.3271  -19.5234    3.4207 C   0  0  2  0  0  0  0  0  0  0  0  0
   16.3724  -19.5869    1.9905 N   0  0  0  0  0  0  0  0  0  0  0  0
   17.2706  -18.5454    3.9867 C   0  0  0  0  0  0  0  0  0  0  0  0
   18.5064  -18.8579    3.9775 O   0  0  0  0  0  0  0  0  0  0  0  0
   20.2271  -12.0658    7.6297 N   0  0  0  0  0  0  0  0  0  0  0  0
   20.3024  -11.5809    6.2971 C   0  0  0  0  0  0  0  0  0  0  0  0
   21.3647  -10.9137    5.9338 N   0  0  0  0  0  0  0  0  0  0  0  0
   19.2810  -11.7909    5.3601 N   0  0  0  0  0  0  0  0  0  0  0  0
   18.1767  -12.6637    5.6570 C   0  0  0  0  0  0  0  0  0  0  0  0
   18.5664  -14.1252    5.6302 C   0  0  0  0  0  0  0  0  0  0  0  0
   17.4450  -14.9776    5.0537 C   0  0  0  0  0  0  0  0  0  0  0  0
   17.9499  -16.4064    5.0205 C   0  0  2  0  0  0  0  0  0  0  0  0
   16.9314  -17.2897    4.5401 N   0  0  0  0  0  0  0  0  0  0  0  0
   18.4046  -16.8390    6.3816 C   0  0  0  0  0  0  0  0  0  0  0  0
   17.5410  -17.0719    7.2547 O   0  0  0  0  0  0  0  0  0  0  0  0
   21.4772  -10.5829    4.9585 N   0  0  0  0  0  0  0  0  0  0  0  0
   19.7668  -16.9865    6.6912 C   0  0  2  0  0  0  0  0  0  0  0  0
   20.3244  -17.3725    7.9677 C   0  0  0  0  0  0  0  0  0  0  0  0
   21.6762  -17.9433    7.7508 C   0  0  0  0  0  0  0  0  0  0  0  0
   22.3652  -18.4305    8.9533 C   0  0  0  0  0  0  0  0  0  0  0  0
   23.2737  -17.6383    9.6059 C   0  0  0  0  0  0  0  0  0  0  0  0
   23.9264  -18.1049   10.7503 C   0  0  0  0  0  0  0  0  0  0  0  0
   23.6229  -19.3781   11.1899 C   0  0  0  0  0  0  0  0  0  0  0  0
   22.7113  -20.2075   10.5576 C   0  0  0  0  0  0  0  0  0  0  0  0
   22.0876  -19.6943    9.4202 C   0  0  0  0  0  0  0  0  0  0  0  0
   20.2316  -16.3339    9.0128 O   0  0  0  0  0  0  0  0  0  0  0  0
   19.9498  -16.6236   10.3405 O   0  0  0  0  0  0  0  0  0  0  0  0
  2  1  1  1
  3  2  1  0
  4  5  1  0
  4  2  1  0
  5  6  1  6
  7  5  1  0
  7  8  2  0
  9 10  1  0
 10 12  1  0
 11 10  2  0
 12 13  1  0
 13 14  1  0
 14 15  1  0
 16 15  1  1
 16 17  1  0
 17  7  1  0
 18 16  1  0
 19 18  2  0
 20 18  1  0
 21 20  1  0
 21 22  1  6
 22 23  1  0
 23 28  2  0
 24 25  2  0
 24 23  1  0
 25 26  1  0
 26 27  2  0
 28 27  1  0
 29 21  1  0
 30 29  1  0
 31 29  2  0
M  END
$$$$
