LRF.pdb
     RDKit          3D

 31 31  0  0  1  0  0  0  0  0999 V2000
   28.7282  -18.6450  -17.1797 C   0  0  0  0  0  0  0  0  0  0  0  0
   27.5327  -17.8232  -16.8049 C   0  0  2  0  0  0  0  0  0  0  0  0
   27.6809  -16.4069  -17.2716 C   0  0  0  0  0  0  0  0  0  0  0  0
   27.1720  -17.8857  -15.3442 C   0  0  0  0  0  0  0  0  0  0  0  0
   27.2524  -19.2848  -14.7715 C   0  0  2  0  0  0  0  0  0  0  0  0
   26.5845  -20.2677  -15.5712 N   0  0  0  0  0  0  0  0  0  0  0  0
   26.7611  -19.2359  -13.3848 C   0  0  0  0  0  0  0  0  0  0  0  0
   27.1607  -18.2659  -12.6607 O   0  0  0  0  0  0  0  0  0  0  0  0
   21.3277  -23.5004  -13.8726 N   0  0  0  0  0  0  0  0  0  0  0  0
   20.6625  -22.8196  -12.8187 C   0  0  0  0  0  0  0  0  0  0  0  0
   19.6595  -23.4111  -12.2273 N   0  0  0  0  0  0  0  0  0  0  0  0
   21.0414  -21.5392  -12.3914 N   0  0  0  0  0  0  0  0  0  0  0  0
   22.1014  -20.8255  -13.0521 C   0  0  0  0  0  0  0  0  0  0  0  0
   23.4576  -21.1009  -12.4411 C   0  0  0  0  0  0  0  0  0  0  0  0
   23.8532  -19.9959  -11.4723 C   0  0  0  0  0  0  0  0  0  0  0  0
   25.3678  -19.9350  -11.4676 C   0  0  2  0  0  0  0  0  0  0  0  0
   25.8855  -20.1673  -12.7815 N   0  0  0  0  0  0  0  0  0  0  0  0
   25.9349  -20.9369  -10.5078 C   0  0  0  0  0  0  0  0  0  0  0  0
   25.4011  -22.0648  -10.4358 O   0  0  0  0  0  0  0  0  0  0  0  0
   19.1914  -22.9762  -11.4118 N   0  0  0  0  0  0  0  0  0  0  0  0
   27.0421  -20.6362   -9.6974 C   0  0  2  0  0  0  0  0  0  0  0  0
   27.1062  -20.7269   -8.2561 C   0  0  0  0  0  0  0  0  0  0  0  0
   27.9345  -19.6105   -7.7389 C   0  0  0  0  0  0  0  0  0  0  0  0
   28.1798  -19.6139   -6.2904 C   0  0  0  0  0  0  0  0  0  0  0  0
   28.7824  -20.6873   -5.6876 C   0  0  0  0  0  0  0  0  0  0  0  0
   29.0153  -20.6865   -4.3095 C   0  0  0  0  0  0  0  0  0  0  0  0
   28.6188  -19.5762   -3.5908 C   0  0  0  0  0  0  0  0  0  0  0  0
   28.0075  -18.4734   -4.1642 C   0  0  0  0  0  0  0  0  0  0  0  0
   27.7982  -18.5243   -5.5425 C   0  0  0  0  0  0  0  0  0  0  0  0
   25.7971  -20.9071   -7.5977 O   0  0  0  0  0  0  0  0  0  0  0  0
   24.7516  -20.0054   -7.7396 O   0  0  0  0  0  0  0  0  0  0  0  0
  2  1  1  1
  3  2  1  0
  4  5  1  0
  4  2  1  0
  5  6  1  6
  7  5  1  0
  7  8  2  0
  9 10  1  0
 10 12  1  0
 11 10  2  0
 12 13  1  0
 13 14  1  0
 14 15  1  0
 16 15  1  6
 16 17  1  0
 17  7  1  0
 18 16  1  0
 19 18  2  0
 20 18  1  0
 21 20  1  0
 21 22  1  6
 22 23  1  0
 23 28  2  0
 24 25  2  0
 24 23  1  0
 25 26  1  0
 26 27  2  0
 28 27  1  0
 29 21  1  0
 30 29  1  0
 31 29  2  0
M  END
$$$$
