LRF.pdb
     RDKit          3D

 31 31  0  0  1  0  0  0  0  0999 V2000
   19.1111  -17.6321  -11.7209 C   0  0  0  0  0  0  0  0  0  0  0  0
   18.9666  -19.1079  -11.9362 C   0  0  2  0  0  0  0  0  0  0  0  0
   17.7258  -19.6323  -11.2796 C   0  0  0  0  0  0  0  0  0  0  0  0
   20.1778  -19.9120  -11.5438 C   0  0  0  0  0  0  0  0  0  0  0  0
   21.4755  -19.3153  -12.0459 C   0  0  2  0  0  0  0  0  0  0  0  0
   21.5464  -19.2236  -13.4736 N   0  0  0  0  0  0  0  0  0  0  0  0
   22.5850  -20.0848  -11.4597 C   0  0  0  0  0  0  0  0  0  0  0  0
   22.4774  -20.4177  -10.2339 O   0  0  0  0  0  0  0  0  0  0  0  0
   27.6017  -22.0814  -17.0707 N   0  0  0  0  0  0  0  0  0  0  0  0
   27.9647  -22.9019  -15.9699 C   0  0  0  0  0  0  0  0  0  0  0  0
   29.1711  -23.4007  -15.9330 N   0  0  0  0  0  0  0  0  0  0  0  0
   27.0778  -23.1957  -14.9246 N   0  0  0  0  0  0  0  0  0  0  0  0
   25.7343  -22.6819  -14.9317 C   0  0  0  0  0  0  0  0  0  0  0  0
   25.4768  -21.7096  -13.8017 C   0  0  0  0  0  0  0  0  0  0  0  0
   25.1363  -22.4476  -12.5150 C   0  0  0  0  0  0  0  0  0  0  0  0
   24.6736  -21.4041  -11.5176 C   0  0  2  0  0  0  0  0  0  0  0  0
   23.7606  -20.4893  -12.1325 N   0  0  0  0  0  0  0  0  0  0  0  0
   25.8435  -20.6585  -10.9503 C   0  0  0  0  0  0  0  0  0  0  0  0
   26.1763  -19.5760  -11.4791 O   0  0  0  0  0  0  0  0  0  0  0  0
   29.4491  -24.0655  -15.1887 N   0  0  0  0  0  0  0  0  0  0  0  0
   26.5646  -21.1472   -9.8483 C   0  0  1  0  0  0  0  0  0  0  0  0
   27.9434  -20.8594   -9.5234 C   0  0  0  0  0  0  0  0  0  0  0  0
   28.2346  -21.3695   -8.1613 C   0  0  0  0  0  0  0  0  0  0  0  0
   28.1065  -20.3926   -7.0716 C   0  0  0  0  0  0  0  0  0  0  0  0
   27.2269  -20.6071   -6.0425 C   0  0  0  0  0  0  0  0  0  0  0  0
   27.1086  -19.6760   -5.0068 C   0  0  0  0  0  0  0  0  0  0  0  0
   27.9025  -18.5477   -5.0624 C   0  0  0  0  0  0  0  0  0  0  0  0
   28.8023  -18.2964   -6.0852 C   0  0  0  0  0  0  0  0  0  0  0  0
   28.8820  -19.2567   -7.0940 C   0  0  0  0  0  0  0  0  0  0  0  0
   28.9103  -21.2478  -10.5693 O   0  0  0  0  0  0  0  0  0  0  0  0
   28.5863  -22.0988  -11.6167 O   0  0  0  0  0  0  0  0  0  0  0  0
  2  1  1  1
  3  2  1  0
  4  5  1  0
  4  2  1  0
  5  6  1  6
  7  5  1  0
  7  8  2  0
  9 10  1  0
 10 12  1  0
 11 10  2  0
 12 13  1  0
 13 14  1  0
 14 15  1  0
 16 15  1  6
 16 17  1  0
 17  7  1  0
 18 16  1  0
 19 18  2  0
 20 18  1  0
 21 20  1  0
 21 22  1  1
 22 23  1  0
 23 28  2  0
 24 25  2  0
 24 23  1  0
 25 26  1  0
 26 27  2  0
 28 27  1  0
 29 21  1  0
 30 29  1  0
 31 29  2  0
M  END
$$$$
