TKG.pdb
     RDKit          3D

 21 20  0  0  1  0  0  0  0  0999 V2000
   11.0698  -14.5708   19.5913 C   0  0  0  0  0  0  0  0  0  0  0  0
   10.2030  -13.3501   19.4103 C   0  0  1  0  0  0  0  0  0  0  0  0
   10.6113  -12.6063   18.3068 O   0  0  0  0  0  0  0  0  0  0  0  0
    8.7641  -13.8037   19.2749 C   0  0  2  0  0  0  0  0  0  0  0  0
    7.8735  -12.6971   19.0333 N   0  0  0  0  0  0  0  0  0  0  0  0
    8.3556  -14.4607   20.5235 C   0  0  0  0  0  0  0  0  0  0  0  0
    7.9611  -13.8078   21.5265 O   0  0  0  0  0  0  0  0  0  0  0  0
    8.3771  -15.8930   20.6885 N   0  0  0  0  0  0  0  0  0  0  0  0
    7.9833  -16.5224   21.9331 C   0  0  1  0  0  0  0  0  0  0  0  0
    7.4776  -17.9283   21.7144 C   0  0  0  0  0  0  0  0  0  0  0  0
    6.1243  -18.1716   22.2932 C   0  0  0  0  0  0  0  0  0  0  0  0
    5.6699  -19.5474   21.8688 C   0  0  0  0  0  0  0  0  0  0  0  0
    4.3169  -19.9065   22.4086 C   0  0  0  0  0  0  0  0  0  0  0  0
    3.9605  -21.2065   21.8681 N   0  0  0  0  0  0  0  0  0  0  0  0
    9.0997  -16.4909   22.9268 C   0  0  0  0  0  0  0  0  0  0  0  0
   10.2624  -16.1168   22.6250 O   0  0  0  0  0  0  0  0  0  0  0  0
    8.8853  -16.8895   24.2738 N   0  0  0  0  0  0  0  0  0  0  0  0
    9.9483  -16.7760   25.2439 C   0  0  0  0  0  0  0  0  0  0  0  0
    9.4972  -17.0390   26.6204 C   0  0  0  0  0  0  0  0  0  0  0  0
   10.2959  -16.9315   27.5670 O   0  0  0  0  0  0  0  0  0  0  0  0
    8.1948  -17.4028   26.8583 O   0  0  0  0  0  0  0  0  0  0  0  0
  2  1  1  6
  3  2  1  0
  4  5  1  1
  4  2  1  0
  6  4  1  0
  7  6  2  0
  8  6  1  0
  9 10  1  6
  9  8  1  0
 10 11  1  0
 11 12  1  0
 12 13  1  0
 13 14  1  0
 15  9  1  0
 16 15  2  0
 17 15  1  0
 18 17  1  0
 19 21  1  0
 19 18  1  0
 20 19  2  0
M  END
$$$$
