TKG.pdb
     RDKit          3D

 21 20  0  0  1  0  0  0  0  0999 V2000
   10.8725  -15.2751   19.4595 C   0  0  0  0  0  0  0  0  0  0  0  0
   10.2120  -13.9540   19.1549 C   0  0  1  0  0  0  0  0  0  0  0  0
   10.7788  -13.3590   18.0313 O   0  0  0  0  0  0  0  0  0  0  0  0
    8.7282  -14.1952   18.9689 C   0  0  2  0  0  0  0  0  0  0  0  0
    8.0359  -12.9962   18.5697 N   0  0  0  0  0  0  0  0  0  0  0  0
    8.1598  -14.6535   20.2434 C   0  0  0  0  0  0  0  0  0  0  0  0
    7.8506  -13.8527   21.1660 O   0  0  0  0  0  0  0  0  0  0  0  0
    7.9168  -16.0462   20.5272 N   0  0  0  0  0  0  0  0  0  0  0  0
    7.3457  -16.4784   21.7872 C   0  0  1  0  0  0  0  0  0  0  0  0
    6.3061  -17.5557   21.5907 C   0  0  0  0  0  0  0  0  0  0  0  0
    5.4652  -17.3578   20.3744 C   0  0  0  0  0  0  0  0  0  0  0  0
    4.5092  -18.5214   20.2672 C   0  0  0  0  0  0  0  0  0  0  0  0
    3.5326  -18.3711   19.1382 C   0  0  0  0  0  0  0  0  0  0  0  0
    2.7727  -19.6055   19.0489 N   0  0  0  0  0  0  0  0  0  0  0  0
    8.4133  -16.9152   22.7382 C   0  0  0  0  0  0  0  0  0  0  0  0
    8.1577  -17.3159   23.9031 O   0  0  0  0  0  0  0  0  0  0  0  0
    9.7815  -16.8937   22.3548 N   0  0  0  0  0  0  0  0  0  0  0  0
   10.8007  -17.3474   23.2708 C   0  0  0  0  0  0  0  0  0  0  0  0
   11.4938  -16.2401   23.9499 C   0  0  0  0  0  0  0  0  0  0  0  0
   10.8679  -15.4995   24.7278 O   0  0  0  0  0  0  0  0  0  0  0  0
   12.8311  -16.0259   23.7238 O   0  0  0  0  0  0  0  0  0  0  0  0
  2  1  1  6
  3  2  1  0
  4  5  1  1
  4  2  1  0
  6  4  1  0
  7  6  2  0
  8  6  1  0
  9 10  1  6
  9  8  1  0
 10 11  1  0
 11 12  1  0
 12 13  1  0
 13 14  1  0
 15  9  1  0
 16 15  2  0
 17 15  1  0
 18 17  1  0
 19 21  1  0
 19 18  1  0
 20 19  2  0
M  END
$$$$
