TKG.pdb
     RDKit          3D

 21 20  0  0  1  0  0  0  0  0999 V2000
    6.3622  -23.4908   18.7959 C   0  0  0  0  0  0  0  0  0  0  0  0
    6.0417  -22.3875   19.7729 C   0  0  1  0  0  0  0  0  0  0  0  0
    7.1831  -21.9777   20.4562 O   0  0  0  0  0  0  0  0  0  0  0  0
    5.4093  -21.2432   19.0080 C   0  0  2  0  0  0  0  0  0  0  0  0
    6.2779  -20.7465   17.9711 N   0  0  0  0  0  0  0  0  0  0  0  0
    5.1322  -20.1449   19.9430 C   0  0  0  0  0  0  0  0  0  0  0  0
    5.4195  -18.9476   19.6748 O   0  0  0  0  0  0  0  0  0  0  0  0
    4.5144  -20.3586   21.2283 N   0  0  0  0  0  0  0  0  0  0  0  0
    4.0967  -19.2523   22.0660 C   0  0  1  0  0  0  0  0  0  0  0  0
    2.6755  -19.4200   22.5479 C   0  0  0  0  0  0  0  0  0  0  0  0
    1.6773  -19.5025   21.4424 C   0  0  0  0  0  0  0  0  0  0  0  0
    0.3233  -19.7825   22.0491 C   0  0  0  0  0  0  0  0  0  0  0  0
   -0.7653  -19.8862   21.0220 C   0  0  0  0  0  0  0  0  0  0  0  0
   -1.9886  -20.2498   21.7152 N   0  0  0  0  0  0  0  0  0  0  0  0
    5.0421  -19.0573   23.2076 C   0  0  0  0  0  0  0  0  0  0  0  0
    4.8676  -18.1734   24.0858 O   0  0  0  0  0  0  0  0  0  0  0  0
    6.1939  -19.8779   23.3458 N   0  0  0  0  0  0  0  0  0  0  0  0
    7.0463  -19.7459   24.5033 C   0  0  0  0  0  0  0  0  0  0  0  0
    8.0683  -20.8026   24.5848 C   0  0  0  0  0  0  0  0  0  0  0  0
    8.1620  -21.6475   23.6778 O   0  0  0  0  0  0  0  0  0  0  0  0
    8.9175  -20.8544   25.6626 O   0  0  0  0  0  0  0  0  0  0  0  0
  2  1  1  6
  3  2  1  0
  4  5  1  6
  4  2  1  0
  6  4  1  0
  7  6  2  0
  8  6  1  0
  9 10  1  1
  9  8  1  0
 10 11  1  0
 11 12  1  0
 12 13  1  0
 13 14  1  0
 15  9  1  0
 16 15  2  0
 17 15  1  0
 18 17  1  0
 19 21  1  0
 19 18  1  0
 20 19  2  0
M  END
$$$$
