TKG.pdb
     RDKit          3D

 21 20  0  0  1  0  0  0  0  0999 V2000
    7.5413  -16.1112   19.4176 C   0  0  0  0  0  0  0  0  0  0  0  0
    8.2812  -15.0226   18.6815 C   0  0  1  0  0  0  0  0  0  0  0  0
    8.0647  -15.1108   17.3092 O   0  0  0  0  0  0  0  0  0  0  0  0
    7.8309  -13.6851   19.2317 C   0  0  2  0  0  0  0  0  0  0  0  0
    8.4002  -12.5840   18.4970 N   0  0  0  0  0  0  0  0  0  0  0  0
    8.2640  -13.5790   20.6311 C   0  0  0  0  0  0  0  0  0  0  0  0
    9.4640  -13.3588   20.9466 O   0  0  0  0  0  0  0  0  0  0  0  0
    7.3503  -13.7189   21.7378 N   0  0  0  0  0  0  0  0  0  0  0  0
    7.8147  -13.7455   23.1104 C   0  0  1  0  0  0  0  0  0  0  0  0
    6.8675  -13.0208   24.0364 C   0  0  0  0  0  0  0  0  0  0  0  0
    7.2876  -13.0585   25.4674 C   0  0  0  0  0  0  0  0  0  0  0  0
    6.2433  -12.3371   26.2850 C   0  0  0  0  0  0  0  0  0  0  0  0
    6.5471  -12.3429   27.7542 C   0  0  0  0  0  0  0  0  0  0  0  0
    5.4426  -11.6879   28.4326 N   0  0  0  0  0  0  0  0  0  0  0  0
    8.0598  -15.1480   23.5665 C   0  0  0  0  0  0  0  0  0  0  0  0
    7.1932  -16.0540   23.4606 O   0  0  0  0  0  0  0  0  0  0  0  0
    9.3032  -15.5166   24.1472 N   0  0  0  0  0  0  0  0  0  0  0  0
    9.4960  -16.8489   24.6684 C   0  0  0  0  0  0  0  0  0  0  0  0
   10.8423  -17.0556   25.2271 C   0  0  0  0  0  0  0  0  0  0  0  0
   11.7003  -16.1616   25.1273 O   0  0  0  0  0  0  0  0  0  0  0  0
   11.1498  -18.2356   25.8583 O   0  0  0  0  0  0  0  0  0  0  0  0
  2  1  1  1
  3  2  1  0
  4  5  1  6
  4  2  1  0
  6  4  1  0
  7  6  2  0
  8  6  1  0
  9 10  1  1
  9  8  1  0
 10 11  1  0
 11 12  1  0
 12 13  1  0
 13 14  1  0
 15  9  1  0
 16 15  2  0
 17 15  1  0
 18 17  1  0
 19 21  1  0
 19 18  1  0
 20 19  2  0
M  END
$$$$
