TKG.pdb
     RDKit          3D

 21 20  0  0  1  0  0  0  0  0999 V2000
    6.7686  -14.0481   18.1364 C   0  0  0  0  0  0  0  0  0  0  0  0
    7.9646  -14.4462   18.9643 C   0  0  1  0  0  0  0  0  0  0  0  0
    9.0572  -14.7419   18.1542 O   0  0  0  0  0  0  0  0  0  0  0  0
    8.2739  -13.3185   19.9271 C   0  0  2  0  0  0  0  0  0  0  0  0
    8.7716  -12.1515   19.2439 N   0  0  0  0  0  0  0  0  0  0  0  0
    9.3014  -13.7724   20.8733 C   0  0  0  0  0  0  0  0  0  0  0  0
   10.5206  -13.4904   20.7252 O   0  0  0  0  0  0  0  0  0  0  0  0
    8.9885  -14.5695   22.0335 N   0  0  0  0  0  0  0  0  0  0  0  0
   10.0264  -15.1130   22.8867 C   0  0  1  0  0  0  0  0  0  0  0  0
    9.4586  -15.6904   24.1612 C   0  0  0  0  0  0  0  0  0  0  0  0
   10.4919  -16.2838   25.0587 C   0  0  0  0  0  0  0  0  0  0  0  0
    9.7865  -16.9402   26.2212 C   0  0  0  0  0  0  0  0  0  0  0  0
   10.7330  -17.4175   27.2829 C   0  0  0  0  0  0  0  0  0  0  0  0
    9.9375  -17.8302   28.4257 N   0  0  0  0  0  0  0  0  0  0  0  0
   10.8533  -16.1182   22.1515 C   0  0  0  0  0  0  0  0  0  0  0  0
   10.3667  -17.1783   21.6799 O   0  0  0  0  0  0  0  0  0  0  0  0
   12.2451  -15.9101   21.9543 N   0  0  0  0  0  0  0  0  0  0  0  0
   13.0454  -16.9170   21.2990 C   0  0  0  0  0  0  0  0  0  0  0  0
   14.1847  -17.3644   22.1171 C   0  0  0  0  0  0  0  0  0  0  0  0
   13.9897  -18.0778   23.1164 O   0  0  0  0  0  0  0  0  0  0  0  0
   15.4621  -16.9937   21.7762 O   0  0  0  0  0  0  0  0  0  0  0  0
  2  1  1  6
  3  2  1  0
  4  5  1  6
  4  2  1  0
  6  4  1  0
  7  6  2  0
  8  6  1  0
  9 10  1  1
  9  8  1  0
 10 11  1  0
 11 12  1  0
 12 13  1  0
 13 14  1  0
 15  9  1  0
 16 15  2  0
 17 15  1  0
 18 17  1  0
 19 21  1  0
 19 18  1  0
 20 19  2  0
M  END
$$$$
