TKG.pdb
     RDKit          3D

 21 20  0  0  1  0  0  0  0  0999 V2000
    9.0267  -16.2862   17.1154 C   0  0  0  0  0  0  0  0  0  0  0  0
    9.0057  -14.7782   17.1119 C   0  0  1  0  0  0  0  0  0  0  0  0
    8.8445  -14.2836   15.8208 O   0  0  0  0  0  0  0  0  0  0  0  0
    7.8924  -14.3154   18.0289 C   0  0  2  0  0  0  0  0  0  0  0  0
    7.7491  -12.8817   18.0171 N   0  0  0  0  0  0  0  0  0  0  0  0
    8.2035  -14.7368   19.4011 C   0  0  0  0  0  0  0  0  0  0  0  0
    9.0979  -14.1748   20.0883 O   0  0  0  0  0  0  0  0  0  0  0  0
    7.5103  -15.8186   20.0556 N   0  0  0  0  0  0  0  0  0  0  0  0
    7.8609  -16.2485   21.3944 C   0  0  1  0  0  0  0  0  0  0  0  0
    6.7706  -17.0875   22.0169 C   0  0  0  0  0  0  0  0  0  0  0  0
    5.5435  -17.1901   21.1748 C   0  0  0  0  0  0  0  0  0  0  0  0
    4.5742  -18.1198   21.8645 C   0  0  0  0  0  0  0  0  0  0  0  0
    3.3099  -18.3272   21.0838 C   0  0  0  0  0  0  0  0  0  0  0  0
    2.4705  -19.2373   21.8429 N   0  0  0  0  0  0  0  0  0  0  0  0
    9.1734  -16.9642   21.4015 C   0  0  0  0  0  0  0  0  0  0  0  0
    9.2948  -18.1566   21.0188 O   0  0  0  0  0  0  0  0  0  0  0  0
   10.3543  -16.3125   21.8487 N   0  0  0  0  0  0  0  0  0  0  0  0
   11.3214  -17.0272   22.6473 C   0  0  0  0  0  0  0  0  0  0  0  0
   12.3996  -16.1607   23.1515 C   0  0  0  0  0  0  0  0  0  0  0  0
   12.4459  -14.9656   22.8125 O   0  0  0  0  0  0  0  0  0  0  0  0
   13.3535  -16.6728   23.9960 O   0  0  0  0  0  0  0  0  0  0  0  0
  2  1  1  6
  3  2  1  0
  4  5  1  1
  4  2  1  0
  6  4  1  0
  7  6  2  0
  8  6  1  0
  9 10  1  6
  9  8  1  0
 10 11  1  0
 11 12  1  0
 12 13  1  0
 13 14  1  0
 15  9  1  0
 16 15  2  0
 17 15  1  0
 18 17  1  0
 19 21  1  0
 19 18  1  0
 20 19  2  0
M  END
$$$$
