TKG.pdb
     RDKit          3D

 21 20  0  0  1  0  0  0  0  0999 V2000
    7.7789  -19.9308   19.7931 C   0  0  0  0  0  0  0  0  0  0  0  0
    7.4732  -19.0055   18.6420 C   0  0  1  0  0  0  0  0  0  0  0  0
    8.3258  -19.2452   17.5681 O   0  0  0  0  0  0  0  0  0  0  0  0
    6.0213  -19.1928   18.2533 C   0  0  2  0  0  0  0  0  0  0  0  0
    5.6922  -18.4758   17.0475 N   0  0  0  0  0  0  0  0  0  0  0  0
    5.1716  -18.6850   19.3385 C   0  0  0  0  0  0  0  0  0  0  0  0
    4.9583  -17.4539   19.5027 O   0  0  0  0  0  0  0  0  0  0  0  0
    4.5244  -19.5559   20.2882 N   0  0  0  0  0  0  0  0  0  0  0  0
    3.6387  -19.0411   21.3132 C   0  0  1  0  0  0  0  0  0  0  0  0
    2.3314  -19.7957   21.3545 C   0  0  0  0  0  0  0  0  0  0  0  0
    1.3926  -19.3043   22.4047 C   0  0  0  0  0  0  0  0  0  0  0  0
    0.1496  -20.1605   22.3646 C   0  0  0  0  0  0  0  0  0  0  0  0
   -0.8696  -19.7563   23.3886 C   0  0  0  0  0  0  0  0  0  0  0  0
   -2.0717  -20.5326   23.1403 N   0  0  0  0  0  0  0  0  0  0  0  0
    4.3099  -19.0360   22.6490 C   0  0  0  0  0  0  0  0  0  0  0  0
    3.7617  -18.5646   23.6788 O   0  0  0  0  0  0  0  0  0  0  0  0
    5.6158  -19.5732   22.8084 N   0  0  0  0  0  0  0  0  0  0  0  0
    6.2348  -19.6056   24.1120 C   0  0  0  0  0  0  0  0  0  0  0  0
    6.9580  -20.8615   24.3711 C   0  0  0  0  0  0  0  0  0  0  0  0
    7.5197  -21.0406   25.4655 O   0  0  0  0  0  0  0  0  0  0  0  0
    7.0118  -21.8347   23.4038 O   0  0  0  0  0  0  0  0  0  0  0  0
  2  1  1  1
  3  2  1  0
  4  5  1  6
  4  2  1  0
  6  4  1  0
  7  6  2  0
  8  6  1  0
  9 10  1  1
  9  8  1  0
 10 11  1  0
 11 12  1  0
 12 13  1  0
 13 14  1  0
 15  9  1  0
 16 15  2  0
 17 15  1  0
 18 17  1  0
 19 21  1  0
 19 18  1  0
 20 19  2  0
M  END
$$$$
