TKG.pdb
     RDKit          3D

 21 20  0  0  1  0  0  0  0  0999 V2000
    7.6169  -14.2690   16.7847 C   0  0  0  0  0  0  0  0  0  0  0  0
    8.2614  -14.5651   18.1156 C   0  0  1  0  0  0  0  0  0  0  0  0
    9.6244  -14.2842   18.0846 O   0  0  0  0  0  0  0  0  0  0  0  0
    7.5498  -13.7555   19.1798 C   0  0  2  0  0  0  0  0  0  0  0  0
    7.7698  -12.3411   19.0140 N   0  0  0  0  0  0  0  0  0  0  0  0
    8.0634  -14.1509   20.4978 C   0  0  0  0  0  0  0  0  0  0  0  0
    8.9235  -13.4672   21.1148 O   0  0  0  0  0  0  0  0  0  0  0  0
    7.6213  -15.3445   21.1755 N   0  0  0  0  0  0  0  0  0  0  0  0
    8.1556  -15.7296   22.4665 C   0  0  1  0  0  0  0  0  0  0  0  0
    7.4188  -16.9127   23.0473 C   0  0  0  0  0  0  0  0  0  0  0  0
    8.0418  -17.4504   24.2916 C   0  0  0  0  0  0  0  0  0  0  0  0
    7.3486  -18.7441   24.6456 C   0  0  0  0  0  0  0  0  0  0  0  0
    7.8480  -19.3409   25.9282 C   0  0  0  0  0  0  0  0  0  0  0  0
    7.1842  -20.6206   26.1037 N   0  0  0  0  0  0  0  0  0  0  0  0
    9.6257  -15.9878   22.3831 C   0  0  0  0  0  0  0  0  0  0  0  0
   10.1389  -16.6821   21.4679 O   0  0  0  0  0  0  0  0  0  0  0  0
   10.5145  -15.4489   23.3521 N   0  0  0  0  0  0  0  0  0  0  0  0
   11.9420  -15.5229   23.1505 C   0  0  0  0  0  0  0  0  0  0  0  0
   12.5354  -16.7506   23.7055 C   0  0  0  0  0  0  0  0  0  0  0  0
   11.8016  -17.6412   24.1678 O   0  0  0  0  0  0  0  0  0  0  0  0
   13.8990  -16.9115   23.7123 O   0  0  0  0  0  0  0  0  0  0  0  0
  2  1  1  6
  3  2  1  0
  4  5  1  6
  4  2  1  0
  6  4  1  0
  7  6  2  0
  8  6  1  0
  9 10  1  6
  9  8  1  0
 10 11  1  0
 11 12  1  0
 12 13  1  0
 13 14  1  0
 15  9  1  0
 16 15  2  0
 17 15  1  0
 18 17  1  0
 19 21  1  0
 19 18  1  0
 20 19  2  0
M  END
$$$$
