TKG.pdb
     RDKit          3D

 21 20  0  0  1  0  0  0  0  0999 V2000
   12.3897  -19.0670   19.3980 C   0  0  0  0  0  0  0  0  0  0  0  0
   11.0759  -18.4341   19.0138 C   0  0  1  0  0  0  0  0  0  0  0  0
   10.5562  -19.0206   17.8633 O   0  0  0  0  0  0  0  0  0  0  0  0
   10.1239  -18.5650   20.1846 C   0  0  2  0  0  0  0  0  0  0  0  0
    8.7950  -18.1216   19.8474 N   0  0  0  0  0  0  0  0  0  0  0  0
   10.6193  -17.7372   21.2922 C   0  0  0  0  0  0  0  0  0  0  0  0
   10.6490  -16.4790   21.2275 O   0  0  0  0  0  0  0  0  0  0  0  0
   11.1044  -18.3037   22.5263 N   0  0  0  0  0  0  0  0  0  0  0  0
   11.6397  -17.4736   23.5868 C   0  0  1  0  0  0  0  0  0  0  0  0
   11.4879  -18.1265   24.9399 C   0  0  0  0  0  0  0  0  0  0  0  0
   12.1060  -17.3460   26.0509 C   0  0  0  0  0  0  0  0  0  0  0  0
   11.8051  -18.0545   27.3498 C   0  0  0  0  0  0  0  0  0  0  0  0
   12.3571  -17.3372   28.5463 C   0  0  0  0  0  0  0  0  0  0  0  0
   12.1378  -18.1849   29.7050 N   0  0  0  0  0  0  0  0  0  0  0  0
   13.0627  -17.1057   23.3135 C   0  0  0  0  0  0  0  0  0  0  0  0
   13.9301  -17.9569   22.9880 O   0  0  0  0  0  0  0  0  0  0  0  0
   13.4965  -15.7561   23.4131 N   0  0  0  0  0  0  0  0  0  0  0  0
   14.7791  -15.3633   22.8800 C   0  0  0  0  0  0  0  0  0  0  0  0
   15.8854  -15.5913   23.8243 C   0  0  0  0  0  0  0  0  0  0  0  0
   15.6778  -16.1967   24.8900 O   0  0  0  0  0  0  0  0  0  0  0  0
   17.1461  -15.1351   23.5276 O   0  0  0  0  0  0  0  0  0  0  0  0
  2  1  1  1
  3  2  1  0
  4  5  1  6
  4  2  1  0
  6  4  1  0
  7  6  2  0
  8  6  1  0
  9 10  1  1
  9  8  1  0
 10 11  1  0
 11 12  1  0
 12 13  1  0
 13 14  1  0
 15  9  1  0
 16 15  2  0
 17 15  1  0
 18 17  1  0
 19 21  1  0
 19 18  1  0
 20 19  2  0
M  END
$$$$
