TIT.pdb
     RDKit          3D

 23 22  0  0  1  0  0  0  0  0999 V2000
    8.6478  -19.3465   18.2106 C   0  0  0  0  0  0  0  0  0  0  0  0
    9.4966  -18.8738   17.0656 C   0  0  1  0  0  0  0  0  0  0  0  0
    9.1691  -19.5404   15.8670 O   0  0  0  0  0  0  0  0  0  0  0  0
    9.3094  -17.3872   16.7913 C   0  0  2  0  0  0  0  0  0  0  0  0
   10.1169  -17.0727   15.6361 N   0  0  0  0  0  0  0  0  0  0  0  0
    9.8161  -16.5953   17.9915 C   0  0  0  0  0  0  0  0  0  0  0  0
   11.0410  -16.5746   18.1630 O   0  0  0  0  0  0  0  0  0  0  0  0
    6.7825  -12.2631   19.4829 C   0  0  0  0  0  0  0  0  0  0  0  0
    7.9164  -13.2048   19.2960 C   0  0  0  0  0  0  0  0  0  0  0  0
    8.0498  -14.2494   20.3978 C   0  0  2  0  0  0  0  0  0  0  0  0
    8.1986  -13.4989   21.6888 C   0  0  0  0  0  0  0  0  0  0  0  0
    9.1534  -15.2006   20.0518 C   0  0  2  0  0  0  0  0  0  0  0  0
    8.9090  -15.9447   18.8245 N   0  0  0  0  0  0  0  0  0  0  0  0
    9.5209  -16.0839   21.1497 C   0  0  0  0  0  0  0  0  0  0  0  0
    8.5653  -16.7541   21.7213 O   0  0  0  0  0  0  0  0  0  0  0  0
   11.3041  -19.2612   21.1130 C   0  0  0  0  0  0  0  0  0  0  0  0
   11.9293  -18.4479   22.1972 C   0  0  1  0  0  0  0  0  0  0  0  0
   13.1072  -17.8705   21.6840 O   0  0  0  0  0  0  0  0  0  0  0  0
   11.0149  -17.3559   22.7275 C   0  0  2  0  0  0  0  0  0  0  0  0
   10.7807  -16.3423   21.7064 N   0  0  0  0  0  0  0  0  0  0  0  0
   11.6954  -16.6955   23.8661 C   0  0  0  0  0  0  0  0  0  0  0  0
   11.8785  -17.3671   25.0906 O   0  0  0  0  0  0  0  0  0  0  0  0
   12.1514  -15.5246   23.8419 O   0  0  0  0  0  0  0  0  0  0  0  0
  2  1  1  1
  2  4  1  0
  3  2  1  0
  4  5  1  6
  6  4  1  0
  6  7  2  0
  8  9  1  0
  9 10  1  0
 10 11  1  1
 12 13  1  6
 12 10  1  0
 13  6  1  0
 14 12  1  0
 15 14  2  0
 17 16  1  6
 18 17  1  0
 19 17  1  0
 19 20  1  6
 20 14  1  0
 21 22  1  0
 21 19  1  0
 23 21  2  0
M  END
$$$$
