TIT.pdb
     RDKit          3D

 23 22  0  0  1  0  0  0  0  0999 V2000
    6.8219  -16.1546   20.3097 C   0  0  0  0  0  0  0  0  0  0  0  0
    7.5254  -15.0752   19.5384 C   0  0  1  0  0  0  0  0  0  0  0  0
    7.0016  -14.9427   18.2358 O   0  0  0  0  0  0  0  0  0  0  0  0
    7.3754  -13.7108   20.1986 C   0  0  2  0  0  0  0  0  0  0  0  0
    7.9504  -12.7447   19.2922 N   0  0  0  0  0  0  0  0  0  0  0  0
    8.1600  -13.7051   21.5058 C   0  0  0  0  0  0  0  0  0  0  0  0
    9.3922  -13.7595   21.4112 O   0  0  0  0  0  0  0  0  0  0  0  0
    7.1161  -12.0363   27.4237 C   0  0  0  0  0  0  0  0  0  0  0  0
    7.8304  -12.8529   26.4084 C   0  0  0  0  0  0  0  0  0  0  0  0
    7.1390  -12.9080   25.0513 C   0  0  2  0  0  0  0  0  0  0  0  0
    5.7763  -13.4919   25.2842 C   0  0  0  0  0  0  0  0  0  0  0  0
    8.0138  -13.6324   24.0753 C   0  0  2  0  0  0  0  0  0  0  0  0
    7.4812  -13.6409   22.7204 N   0  0  0  0  0  0  0  0  0  0  0  0
    8.3844  -14.9707   24.5137 C   0  0  0  0  0  0  0  0  0  0  0  0
    7.4487  -15.8725   24.5327 O   0  0  0  0  0  0  0  0  0  0  0  0
   11.5440  -18.7321   24.9748 C   0  0  0  0  0  0  0  0  0  0  0  0
   11.2263  -17.3030   24.6835 C   0  0  1  0  0  0  0  0  0  0  0  0
   11.2490  -17.1283   23.2859 O   0  0  0  0  0  0  0  0  0  0  0  0
    9.8767  -16.8679   25.2302 C   0  0  2  0  0  0  0  0  0  0  0  0
    9.6292  -15.4636   24.9276 N   0  0  0  0  0  0  0  0  0  0  0  0
    9.9077  -17.0093   26.7049 C   0  0  0  0  0  0  0  0  0  0  0  0
    9.6950  -18.2591   27.3186 O   0  0  0  0  0  0  0  0  0  0  0  0
   10.1181  -16.0651   27.5071 O   0  0  0  0  0  0  0  0  0  0  0  0
  2  1  1  1
  2  4  1  0
  3  2  1  0
  4  5  1  6
  6  4  1  0
  6  7  2  0
  8  9  1  0
  9 10  1  0
 10 11  1  1
 12 13  1  6
 12 10  1  0
 13  6  1  0
 14 12  1  0
 15 14  2  0
 17 16  1  6
 18 17  1  0
 19 17  1  0
 19 20  1  1
 20 14  1  0
 21 22  1  0
 21 19  1  0
 23 21  2  0
M  END
$$$$
