HDC.pdb
     RDKit          3D

 25 25  0  0  1  0  0  0  0  0999 V2000
   17.9998  -11.8434  -18.2012 N   0  0  0  0  0  0  0  0  0  0  0  0
   18.5543  -11.4125  -16.9121 C   0  0  1  0  0  0  0  0  0  0  0  0
   19.8319  -12.1148  -16.6150 C   0  0  0  0  0  0  0  0  0  0  0  0
   19.6305  -13.5559  -16.4489 C   0  0  0  0  0  0  0  0  0  0  0  0
   20.1015  -14.5863  -17.2216 C   0  0  0  0  0  0  0  0  0  0  0  0
   19.6258  -15.7356  -16.6762 N   0  0  0  0  0  0  0  0  0  0  0  0
   18.8818  -15.4347  -15.5984 C   0  0  0  0  0  0  0  0  0  0  0  0
   18.8831  -14.1117  -15.4582 N   0  0  0  0  0  0  0  0  0  0  0  0
   18.7822   -9.9487  -16.9465 C   0  0  0  0  0  0  0  0  0  0  0  0
   19.2615   -9.3269  -17.9245 O   0  0  0  0  0  0  0  0  0  0  0  0
   18.4424   -9.1749  -15.8038 N   0  0  0  0  0  0  0  0  0  0  0  0
   18.6636   -7.7514  -15.8270 C   0  0  1  0  0  0  0  0  0  0  0  0
   17.3671   -7.0830  -15.4482 C   0  0  0  0  0  0  0  0  0  0  0  0
   17.5496   -5.6153  -15.5325 C   0  0  0  0  0  0  0  0  0  0  0  0
   18.1970   -5.0240  -16.4348 O   0  0  0  0  0  0  0  0  0  0  0  0
   19.6576   -7.3362  -14.7927 C   0  0  0  0  0  0  0  0  0  0  0  0
   19.6600   -7.7692  -13.6151 O   0  0  0  0  0  0  0  0  0  0  0  0
   16.9677   -4.8180  -14.5476 O   0  0  0  0  0  0  0  0  0  0  0  0
   20.6451   -6.4048  -15.1705 N   0  0  0  0  0  0  0  0  0  0  0  0
   21.6988   -6.0181  -14.2563 C   0  0  1  0  0  0  0  0  0  0  0  0
   23.0073   -6.4834  -14.8571 C   0  0  0  0  0  0  0  0  0  0  0  0
   23.2059   -8.2820  -14.5910 S   0  0  0  0  0  0  0  0  0  0  0  0
   21.6500   -4.5649  -14.0615 C   0  0  0  0  0  0  0  0  0  0  0  0
   20.9997   -3.8478  -14.8510 O   0  0  0  0  0  0  0  0  0  0  0  0
   22.3191   -3.9823  -13.0097 O   0  0  0  0  0  0  0  0  0  0  0  0
  2  1  1  6
  2  9  1  0
  2  3  1  0
  4  3  1  0
  4  8  1  0
  5  6  1  0
  5  4  2  0
  6  7  1  0
  7  8  2  0
  9 10  2  0
 11 12  1  0
 11  9  1  0
 12 13  1  1
 13 14  1  0
 14 15  2  0
 14 18  1  0
 16 17  2  0
 16 12  1  0
 19 16  1  0
 20 19  1  0
 20 21  1  6
 21 22  1  0
 23 25  1  0
 23 20  1  0
 24 23  2  0
M  END
$$$$
