HDC.pdb
     RDKit          3D

 25 25  0  0  1  0  0  0  0  0999 V2000
   30.6684  -26.4073  -17.5967 N   0  0  0  0  0  0  0  0  0  0  0  0
   30.6879  -27.8652  -17.7677 C   0  0  1  0  0  0  0  0  0  0  0  0
   29.4908  -28.3344  -18.5164 C   0  0  0  0  0  0  0  0  0  0  0  0
   28.2538  -28.0706  -17.7780 C   0  0  0  0  0  0  0  0  0  0  0  0
   27.7694  -28.6955  -16.6575 C   0  0  0  0  0  0  0  0  0  0  0  0
   26.5782  -28.1117  -16.3662 N   0  0  0  0  0  0  0  0  0  0  0  0
   26.3253  -27.1538  -17.2740 C   0  0  0  0  0  0  0  0  0  0  0  0
   27.3413  -27.1269  -18.1325 N   0  0  0  0  0  0  0  0  0  0  0  0
   31.9191  -28.2524  -18.4957 C   0  0  0  0  0  0  0  0  0  0  0  0
   32.7762  -27.4427  -18.9232 O   0  0  0  0  0  0  0  0  0  0  0  0
   32.1673  -29.6306  -18.7385 N   0  0  0  0  0  0  0  0  0  0  0  0
   33.4321  -30.0290  -19.3020 C   0  0  1  0  0  0  0  0  0  0  0  0
   33.6958  -31.4485  -18.8703 C   0  0  0  0  0  0  0  0  0  0  0  0
   34.4562  -31.4226  -17.5993 C   0  0  0  0  0  0  0  0  0  0  0  0
   34.9667  -30.3916  -17.0901 O   0  0  0  0  0  0  0  0  0  0  0  0
   33.3809  -30.0559  -20.7943 C   0  0  0  0  0  0  0  0  0  0  0  0
   32.3349  -30.2750  -21.4517 O   0  0  0  0  0  0  0  0  0  0  0  0
   34.6271  -32.6199  -16.9052 O   0  0  0  0  0  0  0  0  0  0  0  0
   34.5806  -29.8207  -21.4948 N   0  0  0  0  0  0  0  0  0  0  0  0
   34.6028  -29.7530  -22.9406 C   0  0  1  0  0  0  0  0  0  0  0  0
   34.3330  -28.3151  -23.3267 C   0  0  0  0  0  0  0  0  0  0  0  0
   34.2342  -28.1708  -25.1473 S   0  0  0  0  0  0  0  0  0  0  0  0
   35.9035  -30.2335  -23.4194 C   0  0  0  0  0  0  0  0  0  0  0  0
   36.9446  -29.9635  -22.7840 O   0  0  0  0  0  0  0  0  0  0  0  0
   35.9861  -30.9838  -24.5699 O   0  0  0  0  0  0  0  0  0  0  0  0
  2  1  1  6
  2  9  1  0
  2  3  1  0
  4  3  1  0
  4  8  1  0
  5  6  1  0
  5  4  2  0
  6  7  1  0
  7  8  2  0
  9 10  2  0
 11 12  1  0
 11  9  1  0
 12 13  1  1
 13 14  1  0
 14 15  2  0
 14 18  1  0
 16 17  2  0
 16 12  1  0
 19 16  1  0
 20 19  1  0
 20 21  1  1
 21 22  1  0
 23 25  1  0
 23 20  1  0
 24 23  2  0
M  END
$$$$
