HDC.pdb
     RDKit          3D

 25 25  0  0  1  0  0  0  0  0999 V2000
   19.3100  -17.3072  -18.1044 N   0  0  0  0  0  0  0  0  0  0  0  0
   19.7308  -16.0171  -17.5446 C   0  0  1  0  0  0  0  0  0  0  0  0
   20.4904  -15.2195  -18.5448 C   0  0  0  0  0  0  0  0  0  0  0  0
   21.7188  -15.9009  -18.9592 C   0  0  0  0  0  0  0  0  0  0  0  0
   22.7466  -16.3717  -18.1830 C   0  0  0  0  0  0  0  0  0  0  0  0
   23.6672  -16.9016  -19.0294 N   0  0  0  0  0  0  0  0  0  0  0  0
   23.2304  -16.7667  -20.2930 C   0  0  0  0  0  0  0  0  0  0  0  0
   22.0474  -16.1592  -20.2531 N   0  0  0  0  0  0  0  0  0  0  0  0
   18.5323  -15.2635  -17.1070 C   0  0  0  0  0  0  0  0  0  0  0  0
   17.5001  -15.1043  -17.8016 O   0  0  0  0  0  0  0  0  0  0  0  0
   18.5288  -14.6709  -15.8152 N   0  0  0  0  0  0  0  0  0  0  0  0
   17.3758  -13.9190  -15.3892 C   0  0  1  0  0  0  0  0  0  0  0  0
   17.2306  -14.1122  -13.9018 C   0  0  0  0  0  0  0  0  0  0  0  0
   16.6993  -15.4722  -13.6514 C   0  0  0  0  0  0  0  0  0  0  0  0
   17.4031  -16.5107  -13.5568 O   0  0  0  0  0  0  0  0  0  0  0  0
   17.5728  -12.4532  -15.5961 C   0  0  0  0  0  0  0  0  0  0  0  0
   18.6450  -11.8519  -15.3447 O   0  0  0  0  0  0  0  0  0  0  0  0
   15.3212  -15.6288  -13.5077 O   0  0  0  0  0  0  0  0  0  0  0  0
   16.4870  -11.7119  -16.1029 N   0  0  0  0  0  0  0  0  0  0  0  0
   16.6026  -10.2910  -16.3546 C   0  0  1  0  0  0  0  0  0  0  0  0
   15.5575   -9.9318  -17.3880 C   0  0  0  0  0  0  0  0  0  0  0  0
   15.8905  -10.8327  -18.9445 S   0  0  0  0  0  0  0  0  0  0  0  0
   16.4217   -9.5679  -15.0911 C   0  0  0  0  0  0  0  0  0  0  0  0
   15.7984  -10.0993  -14.1479 O   0  0  0  0  0  0  0  0  0  0  0  0
   16.9365   -8.3013  -14.9359 O   0  0  0  0  0  0  0  0  0  0  0  0
  2  1  1  6
  2  9  1  0
  2  3  1  0
  4  3  1  0
  4  8  1  0
  5  6  1  0
  5  4  2  0
  6  7  1  0
  7  8  2  0
  9 10  2  0
 11 12  1  0
 11  9  1  0
 12 13  1  1
 13 14  1  0
 14 15  2  0
 14 18  1  0
 16 17  2  0
 16 12  1  0
 19 16  1  0
 20 19  1  0
 20 21  1  6
 21 22  1  0
 23 25  1  0
 23 20  1  0
 24 23  2  0
M  END
$$$$
