HDC.pdb
     RDKit          3D

 25 25  0  0  1  0  0  0  0  0999 V2000
   17.7891  -12.2431  -18.1641 N   0  0  0  0  0  0  0  0  0  0  0  0
   17.9354  -11.4781  -16.9197 C   0  0  1  0  0  0  0  0  0  0  0  0
   18.7388  -12.2299  -15.9181 C   0  0  0  0  0  0  0  0  0  0  0  0
   18.0906  -13.4874  -15.5391 C   0  0  0  0  0  0  0  0  0  0  0  0
   17.0567  -13.6934  -14.6620 C   0  0  0  0  0  0  0  0  0  0  0  0
   16.8287  -15.0319  -14.6310 N   0  0  0  0  0  0  0  0  0  0  0  0
   17.6911  -15.6433  -15.4606 C   0  0  0  0  0  0  0  0  0  0  0  0
   18.4585  -14.7074  -16.0133 N   0  0  0  0  0  0  0  0  0  0  0  0
   18.5909  -10.1835  -17.2196 C   0  0  0  0  0  0  0  0  0  0  0  0
   19.5858  -10.0479  -17.9711 O   0  0  0  0  0  0  0  0  0  0  0  0
   18.0745   -8.9998  -16.6261 N   0  0  0  0  0  0  0  0  0  0  0  0
   18.7017   -7.7357  -16.9169 C   0  0  1  0  0  0  0  0  0  0  0  0
   17.6189   -6.7770  -17.3402 C   0  0  0  0  0  0  0  0  0  0  0  0
   18.2517   -5.5071  -17.7659 C   0  0  0  0  0  0  0  0  0  0  0  0
   19.2699   -5.4243  -18.5002 O   0  0  0  0  0  0  0  0  0  0  0  0
   19.3233   -7.1408  -15.6962 C   0  0  0  0  0  0  0  0  0  0  0  0
   18.7465   -7.0709  -14.5842 O   0  0  0  0  0  0  0  0  0  0  0  0
   17.6896   -4.3080  -17.3292 O   0  0  0  0  0  0  0  0  0  0  0  0
   20.6322   -6.6317  -15.8100 N   0  0  0  0  0  0  0  0  0  0  0  0
   21.3478   -6.1399  -14.6517 C   0  0  1  0  0  0  0  0  0  0  0  0
   22.7623   -6.6701  -14.7396 C   0  0  0  0  0  0  0  0  0  0  0  0
   22.7712   -8.4685  -14.4068 S   0  0  0  0  0  0  0  0  0  0  0  0
   21.2918   -4.6740  -14.6451 C   0  0  0  0  0  0  0  0  0  0  0  0
   20.9604   -4.0543  -15.6779 O   0  0  0  0  0  0  0  0  0  0  0  0
   21.6034   -3.9722  -13.5032 O   0  0  0  0  0  0  0  0  0  0  0  0
  2  1  1  6
  2  9  1  0
  2  3  1  0
  4  3  1  0
  4  8  1  0
  5  6  1  0
  5  4  2  0
  6  7  1  0
  7  8  2  0
  9 10  2  0
 11 12  1  0
 11  9  1  0
 12 13  1  1
 13 14  1  0
 14 15  2  0
 14 18  1  0
 16 17  2  0
 16 12  1  0
 19 16  1  0
 20 19  1  0
 20 21  1  6
 21 22  1  0
 23 25  1  0
 23 20  1  0
 24 23  2  0
M  END
$$$$
