HDC.pdb
     RDKit          3D

 25 25  0  0  1  0  0  0  0  0999 V2000
   24.0023  -12.2857  -18.3852 N   0  0  0  0  0  0  0  0  0  0  0  0
   23.4649  -11.9257  -17.0674 C   0  0  1  0  0  0  0  0  0  0  0  0
   24.5523  -11.8002  -16.0597 C   0  0  0  0  0  0  0  0  0  0  0  0
   25.1950  -13.0892  -15.7945 C   0  0  0  0  0  0  0  0  0  0  0  0
   26.4126  -13.5496  -16.2259 C   0  0  0  0  0  0  0  0  0  0  0  0
   26.5519  -14.8092  -15.7372 N   0  0  0  0  0  0  0  0  0  0  0  0
   25.4580  -15.1267  -15.0242 C   0  0  0  0  0  0  0  0  0  0  0  0
   24.6325  -14.0838  -15.0575 N   0  0  0  0  0  0  0  0  0  0  0  0
   22.7307  -10.6432  -17.1761 C   0  0  0  0  0  0  0  0  0  0  0  0
   23.0538   -9.7018  -17.9392 O   0  0  0  0  0  0  0  0  0  0  0  0
   21.5776  -10.4428  -16.3698 N   0  0  0  0  0  0  0  0  0  0  0  0
   20.9015   -9.1711  -16.4127 C   0  0  1  0  0  0  0  0  0  0  0  0
   19.5462   -9.3546  -15.7800 C   0  0  0  0  0  0  0  0  0  0  0  0
   18.7732   -8.1019  -15.9466 C   0  0  0  0  0  0  0  0  0  0  0  0
   18.2955   -7.4231  -15.0012 O   0  0  0  0  0  0  0  0  0  0  0  0
   21.6072   -8.1491  -15.5834 C   0  0  0  0  0  0  0  0  0  0  0  0
   22.3841   -8.4329  -14.6400 O   0  0  0  0  0  0  0  0  0  0  0  0
   18.5506   -7.6280  -17.2390 O   0  0  0  0  0  0  0  0  0  0  0  0
   21.3813   -6.7915  -15.8856 N   0  0  0  0  0  0  0  0  0  0  0  0
   22.1606   -5.7450  -15.2585 C   0  0  1  0  0  0  0  0  0  0  0  0
   23.3601   -5.4869  -16.1439 C   0  0  0  0  0  0  0  0  0  0  0  0
   24.2656   -4.0145  -15.5462 S   0  0  0  0  0  0  0  0  0  0  0  0
   21.3149   -4.5581  -15.0903 C   0  0  0  0  0  0  0  0  0  0  0  0
   20.3924   -4.3255  -15.8998 O   0  0  0  0  0  0  0  0  0  0  0  0
   21.5313   -3.6940  -14.0416 O   0  0  0  0  0  0  0  0  0  0  0  0
  2  1  1  6
  2  9  1  0
  2  3  1  0
  4  3  1  0
  4  8  1  0
  5  6  1  0
  5  4  2  0
  6  7  1  0
  7  8  2  0
  9 10  2  0
 11 12  1  0
 11  9  1  0
 12 13  1  1
 13 14  1  0
 14 15  2  0
 14 18  1  0
 16 17  2  0
 16 12  1  0
 19 16  1  0
 20 19  1  0
 20 21  1  6
 21 22  1  0
 23 25  1  0
 23 20  1  0
 24 23  2  0
M  END
$$$$
