HDC.pdb
     RDKit          3D

 25 25  0  0  1  0  0  0  0  0999 V2000
   17.5679  -14.0952  -17.2644 N   0  0  0  0  0  0  0  0  0  0  0  0
   19.0307  -14.0089  -17.3518 C   0  0  1  0  0  0  0  0  0  0  0  0
   19.5476  -14.7968  -18.5032 C   0  0  0  0  0  0  0  0  0  0  0  0
   19.1623  -16.2068  -18.4098 C   0  0  0  0  0  0  0  0  0  0  0  0
   19.4178  -17.1049  -17.4056 C   0  0  0  0  0  0  0  0  0  0  0  0
   18.8771  -18.2897  -17.7912 N   0  0  0  0  0  0  0  0  0  0  0  0
   18.3026  -18.1382  -18.9965 C   0  0  0  0  0  0  0  0  0  0  0  0
   18.4745  -16.8742  -19.3744 N   0  0  0  0  0  0  0  0  0  0  0  0
   19.4256  -12.5882  -17.4980 C   0  0  0  0  0  0  0  0  0  0  0  0
   20.6047  -12.1909  -17.6560 O   0  0  0  0  0  0  0  0  0  0  0  0
   18.4161  -11.5885  -17.4593 N   0  0  0  0  0  0  0  0  0  0  0  0
   18.7940  -10.2025  -17.5689 C   0  0  1  0  0  0  0  0  0  0  0  0
   17.6331   -9.4611  -18.1800 C   0  0  0  0  0  0  0  0  0  0  0  0
   18.0394   -8.0556  -18.4125 C   0  0  0  0  0  0  0  0  0  0  0  0
   17.6264   -7.0706  -17.7477 O   0  0  0  0  0  0  0  0  0  0  0  0
   19.0127   -9.5881  -16.2253 C   0  0  0  0  0  0  0  0  0  0  0  0
   18.1888   -9.6641  -15.2821 O   0  0  0  0  0  0  0  0  0  0  0  0
   18.9447   -7.7891  -19.4390 O   0  0  0  0  0  0  0  0  0  0  0  0
   20.2156   -8.8853  -16.0149 N   0  0  0  0  0  0  0  0  0  0  0  0
   20.4957   -8.2425  -14.7484 C   0  0  1  0  0  0  0  0  0  0  0  0
   21.4612   -9.1328  -13.9971 C   0  0  0  0  0  0  0  0  0  0  0  0
   21.9340   -8.3400  -12.4181 S   0  0  0  0  0  0  0  0  0  0  0  0
   21.0408   -6.9048  -15.0043 C   0  0  0  0  0  0  0  0  0  0  0  0
   21.7297   -6.6928  -16.0245 O   0  0  0  0  0  0  0  0  0  0  0  0
   20.7976   -5.8757  -14.1238 O   0  0  0  0  0  0  0  0  0  0  0  0
  2  1  1  6
  2  9  1  0
  2  3  1  0
  4  3  1  0
  4  8  1  0
  5  6  1  0
  5  4  2  0
  6  7  1  0
  7  8  2  0
  9 10  2  0
 11 12  1  0
 11  9  1  0
 12 13  1  1
 13 14  1  0
 14 15  2  0
 14 18  1  0
 16 17  2  0
 16 12  1  0
 19 16  1  0
 20 19  1  0
 20 21  1  6
 21 22  1  0
 23 25  1  0
 23 20  1  0
 24 23  2  0
M  END
$$$$
