HDC.pdb
     RDKit          3D

 25 25  0  0  1  0  0  0  0  0999 V2000
   23.5485  -21.8515  -14.9126 N   0  0  0  0  0  0  0  0  0  0  0  0
   22.8075  -23.1117  -14.7791 C   0  0  1  0  0  0  0  0  0  0  0  0
   23.6820  -24.1966  -14.2579 C   0  0  0  0  0  0  0  0  0  0  0  0
   24.8129  -24.4558  -15.1518 C   0  0  0  0  0  0  0  0  0  0  0  0
   25.1413  -23.8326  -16.3284 C   0  0  0  0  0  0  0  0  0  0  0  0
   26.2603  -24.4431  -16.7972 N   0  0  0  0  0  0  0  0  0  0  0  0
   26.6201  -25.4160  -15.9429 C   0  0  0  0  0  0  0  0  0  0  0  0
   25.7426  -25.4257  -14.9428 N   0  0  0  0  0  0  0  0  0  0  0  0
   21.6615  -22.9065  -13.8624 C   0  0  0  0  0  0  0  0  0  0  0  0
   21.6227  -22.0404  -12.9561 O   0  0  0  0  0  0  0  0  0  0  0  0
   20.5161  -23.7365  -14.0002 N   0  0  0  0  0  0  0  0  0  0  0  0
   19.3936  -23.5385  -13.1188 C   0  0  1  0  0  0  0  0  0  0  0  0
   18.1495  -23.9378  -13.8695 C   0  0  0  0  0  0  0  0  0  0  0  0
   17.9118  -22.9517  -14.9491 C   0  0  0  0  0  0  0  0  0  0  0  0
   17.8463  -21.7066  -14.7812 O   0  0  0  0  0  0  0  0  0  0  0  0
   19.4653  -24.4418  -11.9318 C   0  0  0  0  0  0  0  0  0  0  0  0
   20.0018  -25.5759  -11.9506 O   0  0  0  0  0  0  0  0  0  0  0  0
   17.7468  -23.4223  -16.2513 O   0  0  0  0  0  0  0  0  0  0  0  0
   18.8952  -23.9857  -10.7267 N   0  0  0  0  0  0  0  0  0  0  0  0
   18.9816  -24.7703   -9.5132 C   0  0  1  0  0  0  0  0  0  0  0  0
   18.7109  -23.8358   -8.3544 C   0  0  0  0  0  0  0  0  0  0  0  0
   18.7593  -24.7690   -6.7821 S   0  0  0  0  0  0  0  0  0  0  0  0
   18.0161  -25.8722   -9.5896 C   0  0  0  0  0  0  0  0  0  0  0  0
   16.8809  -25.6791  -10.0737 O   0  0  0  0  0  0  0  0  0  0  0  0
   18.3535  -27.1243   -9.1294 O   0  0  0  0  0  0  0  0  0  0  0  0
  2  1  1  1
  2  9  1  0
  2  3  1  0
  4  3  1  0
  4  8  1  0
  5  6  1  0
  5  4  2  0
  6  7  1  0
  7  8  2  0
  9 10  2  0
 11 12  1  0
 11  9  1  0
 12 13  1  6
 13 14  1  0
 14 15  2  0
 14 18  1  0
 16 17  2  0
 16 12  1  0
 19 16  1  0
 20 19  1  0
 20 21  1  1
 21 22  1  0
 23 25  1  0
 23 20  1  0
 24 23  2  0
M  END
$$$$
