HDC.pdb
     RDKit          3D

 25 25  0  0  1  0  0  0  0  0999 V2000
   20.6055  -11.1319  -19.9005 N   0  0  0  0  0  0  0  0  0  0  0  0
   21.1810  -11.0550  -18.5523 C   0  0  1  0  0  0  0  0  0  0  0  0
   22.6674  -11.0144  -18.6041 C   0  0  0  0  0  0  0  0  0  0  0  0
   23.2243  -12.2624  -19.1308 C   0  0  0  0  0  0  0  0  0  0  0  0
   22.5704  -13.4120  -19.4935 C   0  0  0  0  0  0  0  0  0  0  0  0
   23.5211  -14.2938  -19.8974 N   0  0  0  0  0  0  0  0  0  0  0  0
   24.7295  -13.7157  -19.7909 C   0  0  0  0  0  0  0  0  0  0  0  0
   24.5519  -12.4820  -19.3255 N   0  0  0  0  0  0  0  0  0  0  0  0
   20.6688   -9.8412  -17.8740 C   0  0  0  0  0  0  0  0  0  0  0  0
   20.4181   -8.7566  -18.4518 O   0  0  0  0  0  0  0  0  0  0  0  0
   20.4384   -9.8847  -16.4723 N   0  0  0  0  0  0  0  0  0  0  0  0
   19.9498   -8.7061  -15.8028 C   0  0  1  0  0  0  0  0  0  0  0  0
   19.0716   -9.1599  -14.6653 C   0  0  0  0  0  0  0  0  0  0  0  0
   17.8015   -9.6768  -15.2260 C   0  0  0  0  0  0  0  0  0  0  0  0
   17.2090   -9.1927  -16.2246 O   0  0  0  0  0  0  0  0  0  0  0  0
   21.0635   -7.9315  -15.1784 C   0  0  0  0  0  0  0  0  0  0  0  0
   21.9066   -8.4316  -14.3952 O   0  0  0  0  0  0  0  0  0  0  0  0
   17.2074  -10.7796  -14.6132 O   0  0  0  0  0  0  0  0  0  0  0  0
   21.1649   -6.5617  -15.4929 N   0  0  0  0  0  0  0  0  0  0  0  0
   22.2478   -5.7525  -14.9749 C   0  0  1  0  0  0  0  0  0  0  0  0
   23.1566   -5.4212  -16.1384 C   0  0  0  0  0  0  0  0  0  0  0  0
   24.4367   -4.2291  -15.6042 S   0  0  0  0  0  0  0  0  0  0  0  0
   21.6852   -4.5571  -14.3373 C   0  0  0  0  0  0  0  0  0  0  0  0
   22.1357   -4.1595  -13.2421 O   0  0  0  0  0  0  0  0  0  0  0  0
   20.6591   -3.8663  -14.9400 O   0  0  0  0  0  0  0  0  0  0  0  0
  2  1  1  6
  2  9  1  0
  2  3  1  0
  4  3  1  0
  4  8  1  0
  5  6  1  0
  5  4  2  0
  6  7  1  0
  7  8  2  0
  9 10  2  0
 11 12  1  0
 11  9  1  0
 12 13  1  1
 13 14  1  0
 14 15  2  0
 14 18  1  0
 16 17  2  0
 16 12  1  0
 19 16  1  0
 20 19  1  0
 20 21  1  6
 21 22  1  0
 23 25  1  0
 23 20  1  0
 24 23  2  0
M  END
$$$$
