HDC.pdb
     RDKit          3D

 25 25  0  0  1  0  0  0  0  0999 V2000
   24.7356  -21.5232  -14.9724 N   0  0  0  0  0  0  0  0  0  0  0  0
   24.2340  -20.2697  -14.3959 C   0  0  1  0  0  0  0  0  0  0  0  0
   25.1491  -19.7603  -13.3392 C   0  0  0  0  0  0  0  0  0  0  0  0
   25.3953  -20.7681  -12.3054 C   0  0  0  0  0  0  0  0  0  0  0  0
   24.9494  -22.0634  -12.2416 C   0  0  0  0  0  0  0  0  0  0  0  0
   25.4234  -22.5852  -11.0807 N   0  0  0  0  0  0  0  0  0  0  0  0
   26.1417  -21.6480  -10.4393 C   0  0  0  0  0  0  0  0  0  0  0  0
   26.1261  -20.5435  -11.1810 N   0  0  0  0  0  0  0  0  0  0  0  0
   24.0984  -19.2603  -15.4722 C   0  0  0  0  0  0  0  0  0  0  0  0
   24.9405  -19.0750  -16.3830 O   0  0  0  0  0  0  0  0  0  0  0  0
   22.9431  -18.4329  -15.4945 N   0  0  0  0  0  0  0  0  0  0  0  0
   22.7721  -17.4923  -16.5725 C   0  0  1  0  0  0  0  0  0  0  0  0
   21.3367  -17.5733  -17.0240 C   0  0  0  0  0  0  0  0  0  0  0  0
   21.1069  -18.9044  -17.6323 C   0  0  0  0  0  0  0  0  0  0  0  0
   21.8294  -19.4194  -18.5243 O   0  0  0  0  0  0  0  0  0  0  0  0
   22.9787  -16.0876  -16.1096 C   0  0  0  0  0  0  0  0  0  0  0  0
   22.2589  -15.5242  -15.2500 O   0  0  0  0  0  0  0  0  0  0  0  0
   20.0147  -19.6528  -17.1950 O   0  0  0  0  0  0  0  0  0  0  0  0
   24.0453  -15.3618  -16.6762 N   0  0  0  0  0  0  0  0  0  0  0  0
   24.3179  -13.9971  -16.2774 C   0  0  1  0  0  0  0  0  0  0  0  0
   25.8008  -13.9005  -15.9929 C   0  0  0  0  0  0  0  0  0  0  0  0
   26.2273  -12.1906  -15.5035 S   0  0  0  0  0  0  0  0  0  0  0  0
   23.8868  -13.0932  -17.3494 C   0  0  0  0  0  0  0  0  0  0  0  0
   24.1183  -13.3803  -18.5429 O   0  0  0  0  0  0  0  0  0  0  0  0
   23.2256  -11.9246  -17.0485 O   0  0  0  0  0  0  0  0  0  0  0  0
  2  1  1  6
  2  9  1  0
  2  3  1  0
  4  3  1  0
  4  8  1  0
  5  6  1  0
  5  4  2  0
  6  7  1  0
  7  8  2  0
  9 10  2  0
 11 12  1  0
 11  9  1  0
 12 13  1  1
 13 14  1  0
 14 15  2  0
 14 18  1  0
 16 17  2  0
 16 12  1  0
 19 16  1  0
 20 19  1  0
 20 21  1  6
 21 22  1  0
 23 25  1  0
 23 20  1  0
 24 23  2  0
M  END
$$$$
