HDC.pdb
     RDKit          3D

 25 25  0  0  1  0  0  0  0  0999 V2000
   26.5154  -19.9564  -16.4610 N   0  0  0  0  0  0  0  0  0  0  0  0
   25.9141  -21.0292  -15.6594 C   0  0  1  0  0  0  0  0  0  0  0  0
   26.9585  -21.8390  -14.9758 C   0  0  0  0  0  0  0  0  0  0  0  0
   27.8054  -22.5503  -15.9358 C   0  0  0  0  0  0  0  0  0  0  0  0
   27.7300  -22.5658  -17.3050 C   0  0  0  0  0  0  0  0  0  0  0  0
   28.7169  -23.3895  -17.7435 N   0  0  0  0  0  0  0  0  0  0  0  0
   29.3874  -23.8735  -16.6843 C   0  0  0  0  0  0  0  0  0  0  0  0
   28.8358  -23.3654  -15.5853 N   0  0  0  0  0  0  0  0  0  0  0  0
   25.0036  -20.4323  -14.6542 C   0  0  0  0  0  0  0  0  0  0  0  0
   25.3082  -19.4813  -13.8953 O   0  0  0  0  0  0  0  0  0  0  0  0
   23.6894  -20.9572  -14.5222 N   0  0  0  0  0  0  0  0  0  0  0  0
   22.7945  -20.3778  -13.5530 C   0  0  1  0  0  0  0  0  0  0  0  0
   21.3949  -20.4934  -14.0995 C   0  0  0  0  0  0  0  0  0  0  0  0
   21.2143  -19.4715  -15.1567 C   0  0  0  0  0  0  0  0  0  0  0  0
   21.1026  -19.7221  -16.3845 O   0  0  0  0  0  0  0  0  0  0  0  0
   22.8014  -21.1487  -12.2739 C   0  0  0  0  0  0  0  0  0  0  0  0
   22.7087  -22.3985  -12.2131 O   0  0  0  0  0  0  0  0  0  0  0  0
   21.1625  -18.1301  -14.7792 O   0  0  0  0  0  0  0  0  0  0  0  0
   22.9190  -20.4222  -11.0724 N   0  0  0  0  0  0  0  0  0  0  0  0
   22.8791  -21.0880   -9.7876 C   0  0  1  0  0  0  0  0  0  0  0  0
   23.8978  -20.4090   -8.8984 C   0  0  0  0  0  0  0  0  0  0  0  0
   23.8218  -21.1198   -7.2149 S   0  0  0  0  0  0  0  0  0  0  0  0
   21.5159  -21.0066   -9.2518 C   0  0  0  0  0  0  0  0  0  0  0  0
   20.7678  -20.0619   -9.5813 O   0  0  0  0  0  0  0  0  0  0  0  0
   21.0521  -21.9684   -8.3840 O   0  0  0  0  0  0  0  0  0  0  0  0
  2  1  1  1
  2  9  1  0
  2  3  1  0
  4  3  1  0
  4  8  1  0
  5  6  1  0
  5  4  2  0
  6  7  1  0
  7  8  2  0
  9 10  2  0
 11 12  1  0
 11  9  1  0
 12 13  1  6
 13 14  1  0
 14 15  2  0
 14 18  1  0
 16 17  2  0
 16 12  1  0
 19 16  1  0
 20 19  1  0
 20 21  1  1
 21 22  1  0
 23 25  1  0
 23 20  1  0
 24 23  2  0
M  END
$$$$
