MFC.pdb
     RDKit          3D

 26 26  0  0  1  0  0  0  0  0999 V2000
   20.7511  -27.8419  -18.8392 C   0  0  0  0  0  0  0  0  0  0  0  0
   21.3087  -26.3979  -19.7010 S   0  0  0  0  0  0  0  0  0  0  0  0
   22.8150  -25.6395  -19.1643 C   0  0  0  0  0  0  0  0  0  0  0  0
   22.7610  -25.1362  -17.7601 C   0  0  0  0  0  0  0  0  0  0  0  0
   21.8759  -23.9562  -17.6084 C   0  0  2  0  0  0  0  0  0  0  0  0
   22.5027  -22.7846  -18.1327 N   0  0  0  0  0  0  0  0  0  0  0  0
   21.5400  -23.6989  -16.1630 C   0  0  0  0  0  0  0  0  0  0  0  0
   21.2304  -24.6665  -15.4462 O   0  0  0  0  0  0  0  0  0  0  0  0
   21.5903  -22.3768  -15.6843 N   0  0  0  0  0  0  0  0  0  0  0  0
   21.2171  -22.0524  -14.2920 C   0  0  1  0  0  0  0  0  0  0  0  0
   21.7556  -20.6780  -13.9608 C   0  0  0  0  0  0  0  0  0  0  0  0
   21.4715  -20.1923  -12.6106 C   0  0  0  0  0  0  0  0  0  0  0  0
   22.1056  -20.6587  -11.4738 C   0  0  0  0  0  0  0  0  0  0  0  0
   21.8458  -20.1649  -10.2076 C   0  0  0  0  0  0  0  0  0  0  0  0
   20.9146  -19.1648  -10.0743 C   0  0  0  0  0  0  0  0  0  0  0  0
   20.2568  -18.6647  -11.1607 C   0  0  0  0  0  0  0  0  0  0  0  0
   20.5332  -19.1720  -12.4038 C   0  0  0  0  0  0  0  0  0  0  0  0
   19.7420  -22.0654  -14.2031 C   0  0  0  0  0  0  0  0  0  0  0  0
   19.0776  -21.5419  -15.1351 O   0  0  0  0  0  0  0  0  0  0  0  0
   19.0290  -22.6411  -13.1236 N   0  0  0  0  0  0  0  0  0  0  0  0
   17.5953  -22.7069  -13.0112 C   0  0  1  0  0  0  0  0  0  0  0  0
   17.1820  -23.9067  -12.2248 C   0  0  0  0  0  0  0  0  0  0  0  0
   17.9696  -23.9335  -10.5782 S   0  0  0  0  0  0  0  0  0  0  0  0
   17.0075  -21.4356  -12.4680 C   0  0  0  0  0  0  0  0  0  0  0  0
   17.8462  -20.4919  -11.9241 O   0  0  0  0  0  0  0  0  0  0  0  0
   15.7624  -21.2421  -12.5146 O   0  0  0  0  0  0  0  0  0  0  0  0
  2  1  1  0
  3  2  1  0
  3  4  1  0
  4  5  1  0
  5  7  1  0
  5  6  1  1
  7  8  2  0
  9  7  1  0
  9 10  1  0
 10 11  1  6
 11 12  1  0
 12 17  2  0
 13 12  1  0
 13 14  2  0
 14 15  1  0
 15 16  2  0
 17 16  1  0
 18 20  1  0
 18 10  1  0
 19 18  2  0
 21 22  1  1
 21 20  1  0
 23 22  1  0
 24 21  1  0
 24 25  1  0
 26 24  2  0
M  END
$$$$
