MFC.pdb
     RDKit          3D

 26 26  0  0  1  0  0  0  0  0999 V2000
   28.8807  -35.9738  -20.1037 C   0  0  0  0  0  0  0  0  0  0  0  0
   28.0464  -34.9016  -18.9665 S   0  0  0  0  0  0  0  0  0  0  0  0
   28.6553  -34.8145  -17.3071 C   0  0  0  0  0  0  0  0  0  0  0  0
   27.8849  -33.8762  -16.4385 C   0  0  0  0  0  0  0  0  0  0  0  0
   28.3671  -32.4774  -16.5380 C   0  0  2  0  0  0  0  0  0  0  0  0
   29.5480  -32.2939  -15.7556 N   0  0  0  0  0  0  0  0  0  0  0  0
   27.3295  -31.4990  -16.0540 C   0  0  0  0  0  0  0  0  0  0  0  0
   27.3594  -31.1462  -14.8621 O   0  0  0  0  0  0  0  0  0  0  0  0
   26.3711  -31.0253  -16.9687 N   0  0  0  0  0  0  0  0  0  0  0  0
   25.4285  -29.9487  -16.6005 C   0  0  1  0  0  0  0  0  0  0  0  0
   25.6102  -28.8022  -17.5706 C   0  0  0  0  0  0  0  0  0  0  0  0
   26.6033  -27.7981  -17.1892 C   0  0  0  0  0  0  0  0  0  0  0  0
   27.9533  -28.0626  -17.0503 C   0  0  0  0  0  0  0  0  0  0  0  0
   28.8828  -27.0926  -16.7192 C   0  0  0  0  0  0  0  0  0  0  0  0
   28.4434  -25.8073  -16.5193 C   0  0  0  0  0  0  0  0  0  0  0  0
   27.1224  -25.4867  -16.6426 C   0  0  0  0  0  0  0  0  0  0  0  0
   26.2226  -26.4670  -16.9715 C   0  0  0  0  0  0  0  0  0  0  0  0
   24.0581  -30.4939  -16.6944 C   0  0  0  0  0  0  0  0  0  0  0  0
   23.7633  -31.2156  -17.6825 O   0  0  0  0  0  0  0  0  0  0  0  0
   23.0527  -30.2521  -15.7271 N   0  0  0  0  0  0  0  0  0  0  0  0
   21.6992  -30.7385  -15.7910 C   0  0  1  0  0  0  0  0  0  0  0  0
   21.2101  -31.1183  -14.4326 C   0  0  0  0  0  0  0  0  0  0  0  0
   19.5896  -31.9549  -14.5127 S   0  0  0  0  0  0  0  0  0  0  0  0
   20.7788  -29.7730  -16.4820 C   0  0  0  0  0  0  0  0  0  0  0  0
   19.8972  -30.2492  -17.4234 O   0  0  0  0  0  0  0  0  0  0  0  0
   20.8178  -28.5453  -16.1973 O   0  0  0  0  0  0  0  0  0  0  0  0
  2  1  1  0
  3  2  1  0
  3  4  1  0
  4  5  1  0
  5  7  1  0
  5  6  1  1
  7  8  2  0
  9  7  1  0
  9 10  1  0
 10 11  1  6
 11 12  1  0
 12 17  2  0
 13 12  1  0
 13 14  2  0
 14 15  1  0
 15 16  2  0
 17 16  1  0
 18 20  1  0
 18 10  1  0
 19 18  2  0
 21 22  1  1
 21 20  1  0
 23 22  1  0
 24 21  1  0
 24 25  1  0
 26 24  2  0
M  END
$$$$
