MFC.pdb
     RDKit          3D

 26 26  0  0  1  0  0  0  0  0999 V2000
   26.6141  -16.9889  -14.0871 C   0  0  0  0  0  0  0  0  0  0  0  0
   25.8564  -17.4328  -15.6258 S   0  0  0  0  0  0  0  0  0  0  0  0
   24.4265  -16.5257  -16.1403 C   0  0  0  0  0  0  0  0  0  0  0  0
   24.4393  -15.0975  -15.7067 C   0  0  0  0  0  0  0  0  0  0  0  0
   23.1974  -14.3760  -16.0756 C   0  0  2  0  0  0  0  0  0  0  0  0
   23.0488  -14.3206  -17.4951 N   0  0  0  0  0  0  0  0  0  0  0  0
   23.2014  -12.9643  -15.5510 C   0  0  0  0  0  0  0  0  0  0  0  0
   23.3671  -12.7865  -14.3317 O   0  0  0  0  0  0  0  0  0  0  0  0
   23.0178  -11.9067  -16.4607 N   0  0  0  0  0  0  0  0  0  0  0  0
   23.1091  -10.4978  -16.0248 C   0  0  1  0  0  0  0  0  0  0  0  0
   24.1519   -9.8023  -16.8717 C   0  0  0  0  0  0  0  0  0  0  0  0
   25.5326  -10.2399  -16.6667 C   0  0  0  0  0  0  0  0  0  0  0  0
   26.3069   -9.8671  -15.5836 C   0  0  0  0  0  0  0  0  0  0  0  0
   27.6013  -10.3163  -15.3902 C   0  0  0  0  0  0  0  0  0  0  0  0
   28.1416  -11.1725  -16.3177 C   0  0  0  0  0  0  0  0  0  0  0  0
   27.4247  -11.5751  -17.4072 C   0  0  0  0  0  0  0  0  0  0  0  0
   26.1444  -11.1148  -17.5746 C   0  0  0  0  0  0  0  0  0  0  0  0
   21.7833   -9.8754  -16.2216 C   0  0  0  0  0  0  0  0  0  0  0  0
   21.1546  -10.1201  -17.2841 O   0  0  0  0  0  0  0  0  0  0  0  0
   21.1744   -9.0170  -15.2742 N   0  0  0  0  0  0  0  0  0  0  0  0
   19.9546   -8.2803  -15.4787 C   0  0  1  0  0  0  0  0  0  0  0  0
   18.8850   -8.7636  -14.5561 C   0  0  0  0  0  0  0  0  0  0  0  0
   17.4588   -7.6245  -14.5272 S   0  0  0  0  0  0  0  0  0  0  0  0
   20.1634   -6.7955  -15.3857 C   0  0  0  0  0  0  0  0  0  0  0  0
   19.4482   -5.9678  -16.2186 O   0  0  0  0  0  0  0  0  0  0  0  0
   20.9827   -6.3212  -14.5529 O   0  0  0  0  0  0  0  0  0  0  0  0
  2  1  1  0
  3  2  1  0
  3  4  1  0
  4  5  1  0
  5  7  1  0
  5  6  1  6
  7  8  2  0
  9  7  1  0
  9 10  1  0
 10 11  1  6
 11 12  1  0
 12 17  2  0
 13 12  1  0
 13 14  2  0
 14 15  1  0
 15 16  2  0
 17 16  1  0
 18 20  1  0
 18 10  1  0
 19 18  2  0
 21 22  1  1
 21 20  1  0
 23 22  1  0
 24 21  1  0
 24 25  1  0
 26 24  2  0
M  END
$$$$
