MFC.pdb
     RDKit          3D

 26 26  0  0  1  0  0  0  0  0999 V2000
   24.1921  -13.1003  -25.1747 C   0  0  0  0  0  0  0  0  0  0  0  0
   22.4261  -12.9596  -25.1868 S   0  0  0  0  0  0  0  0  0  0  0  0
   21.4976  -14.0594  -24.1571 C   0  0  0  0  0  0  0  0  0  0  0  0
   21.3767  -13.5930  -22.7443 C   0  0  0  0  0  0  0  0  0  0  0  0
   22.3213  -14.2810  -21.8315 C   0  0  2  0  0  0  0  0  0  0  0  0
   21.8546  -15.5942  -21.5187 N   0  0  0  0  0  0  0  0  0  0  0  0
   22.4911  -13.5257  -20.5396 C   0  0  0  0  0  0  0  0  0  0  0  0
   21.5855  -13.5946  -19.6905 O   0  0  0  0  0  0  0  0  0  0  0  0
   23.6654  -12.7749  -20.3471 N   0  0  0  0  0  0  0  0  0  0  0  0
   23.8944  -12.0193  -19.0982 C   0  0  1  0  0  0  0  0  0  0  0  0
   25.3640  -12.1061  -18.7500 C   0  0  0  0  0  0  0  0  0  0  0  0
   25.7843  -11.3464  -17.5727 C   0  0  0  0  0  0  0  0  0  0  0  0
   25.6649  -11.8071  -16.2745 C   0  0  0  0  0  0  0  0  0  0  0  0
   26.0969  -11.0871  -15.1748 C   0  0  0  0  0  0  0  0  0  0  0  0
   26.6710   -9.8574  -15.3830 C   0  0  0  0  0  0  0  0  0  0  0  0
   26.8154   -9.3509  -16.6422 C   0  0  0  0  0  0  0  0  0  0  0  0
   26.3787  -10.0851  -17.7142 C   0  0  0  0  0  0  0  0  0  0  0  0
   23.5017  -10.6151  -19.3392 C   0  0  0  0  0  0  0  0  0  0  0  0
   23.8473  -10.0698  -20.4196 O   0  0  0  0  0  0  0  0  0  0  0  0
   22.7501   -9.8448  -18.4190 N   0  0  0  0  0  0  0  0  0  0  0  0
   22.4404   -8.4458  -18.5592 C   0  0  1  0  0  0  0  0  0  0  0  0
   20.9807   -8.2056  -18.3582 C   0  0  0  0  0  0  0  0  0  0  0  0
   20.5750   -6.4280  -18.4470 S   0  0  0  0  0  0  0  0  0  0  0  0
   23.2907   -7.5824  -17.6713 C   0  0  0  0  0  0  0  0  0  0  0  0
   23.4312   -7.9222  -16.3466 O   0  0  0  0  0  0  0  0  0  0  0  0
   23.8658   -6.5631  -18.1404 O   0  0  0  0  0  0  0  0  0  0  0  0
  2  1  1  0
  3  2  1  0
  3  4  1  0
  4  5  1  0
  5  7  1  0
  5  6  1  1
  7  8  2  0
  9  7  1  0
  9 10  1  0
 10 11  1  6
 11 12  1  0
 12 17  2  0
 13 12  1  0
 13 14  2  0
 14 15  1  0
 15 16  2  0
 17 16  1  0
 18 20  1  0
 18 10  1  0
 19 18  2  0
 21 22  1  1
 21 20  1  0
 23 22  1  0
 24 21  1  0
 24 25  1  0
 26 24  2  0
M  END
$$$$
