MFC.pdb
     RDKit          3D

 26 26  0  0  1  0  0  0  0  0999 V2000
   22.6810  -20.6254  -16.0925 C   0  0  0  0  0  0  0  0  0  0  0  0
   24.2344  -20.1004  -16.7635 S   0  0  0  0  0  0  0  0  0  0  0  0
   25.6655  -20.2059  -15.7277 C   0  0  0  0  0  0  0  0  0  0  0  0
   25.3879  -20.8012  -14.3873 C   0  0  0  0  0  0  0  0  0  0  0  0
   26.4945  -20.5843  -13.4243 C   0  0  2  0  0  0  0  0  0  0  0  0
   27.6698  -21.2810  -13.8408 N   0  0  0  0  0  0  0  0  0  0  0  0
   26.1298  -21.0668  -12.0450 C   0  0  0  0  0  0  0  0  0  0  0  0
   26.3223  -22.2631  -11.7665 O   0  0  0  0  0  0  0  0  0  0  0  0
   25.5875  -20.1455  -11.1301 N   0  0  0  0  0  0  0  0  0  0  0  0
   25.1823  -20.5639   -9.7722 C   0  0  1  0  0  0  0  0  0  0  0  0
   25.3894  -19.3976   -8.8313 C   0  0  0  0  0  0  0  0  0  0  0  0
   26.5505  -19.4929   -7.9466 C   0  0  0  0  0  0  0  0  0  0  0  0
   27.3140  -18.4081   -7.5567 C   0  0  0  0  0  0  0  0  0  0  0  0
   28.3906  -18.5132   -6.6939 C   0  0  0  0  0  0  0  0  0  0  0  0
   28.7155  -19.7533   -6.2021 C   0  0  0  0  0  0  0  0  0  0  0  0
   27.9980  -20.8605   -6.5518 C   0  0  0  0  0  0  0  0  0  0  0  0
   26.9361  -20.7281   -7.4085 C   0  0  0  0  0  0  0  0  0  0  0  0
   23.7546  -20.9422   -9.8213 C   0  0  0  0  0  0  0  0  0  0  0  0
   23.0700  -20.5830  -10.8145 O   0  0  0  0  0  0  0  0  0  0  0  0
   23.1100  -21.6942   -8.8094 N   0  0  0  0  0  0  0  0  0  0  0  0
   21.7169  -22.0571   -8.7990 C   0  0  1  0  0  0  0  0  0  0  0  0
   21.2895  -22.4714   -7.4298 C   0  0  0  0  0  0  0  0  0  0  0  0
   19.5308  -22.9594   -7.3951 S   0  0  0  0  0  0  0  0  0  0  0  0
   20.8426  -20.9770   -9.3697 C   0  0  0  0  0  0  0  0  0  0  0  0
   20.9882  -19.6891   -8.9114 O   0  0  0  0  0  0  0  0  0  0  0  0
   19.9905  -21.2536  -10.2570 O   0  0  0  0  0  0  0  0  0  0  0  0
  2  1  1  0
  3  2  1  0
  3  4  1  0
  4  5  1  0
  5  7  1  0
  5  6  1  6
  7  8  2  0
  9  7  1  0
  9 10  1  0
 10 11  1  1
 11 12  1  0
 12 17  2  0
 13 12  1  0
 13 14  2  0
 14 15  1  0
 15 16  2  0
 17 16  1  0
 18 20  1  0
 18 10  1  0
 19 18  2  0
 21 22  1  1
 21 20  1  0
 23 22  1  0
 24 21  1  0
 24 25  1  0
 26 24  2  0
M  END
$$$$
