MFC.pdb
     RDKit          3D

 26 26  0  0  1  0  0  0  0  0999 V2000
   21.5166  -18.7777  -12.7718 C   0  0  0  0  0  0  0  0  0  0  0  0
   22.3118  -19.5683  -14.1434 S   0  0  0  0  0  0  0  0  0  0  0  0
   23.9780  -20.1253  -13.9300 C   0  0  0  0  0  0  0  0  0  0  0  0
   24.2968  -20.5269  -12.5282 C   0  0  0  0  0  0  0  0  0  0  0  0
   25.7466  -20.7517  -12.3127 C   0  0  2  0  0  0  0  0  0  0  0  0
   26.2213  -21.8137  -13.1416 N   0  0  0  0  0  0  0  0  0  0  0  0
   26.0440  -21.1089  -10.8802 C   0  0  0  0  0  0  0  0  0  0  0  0
   25.8389  -22.2769  -10.5068 O   0  0  0  0  0  0  0  0  0  0  0  0
   26.5408  -20.1080  -10.0250 N   0  0  0  0  0  0  0  0  0  0  0  0
   26.8494  -20.3954   -8.6089 C   0  0  1  0  0  0  0  0  0  0  0  0
   27.7421  -19.2938   -8.0815 C   0  0  0  0  0  0  0  0  0  0  0  0
   28.1430  -19.4167   -6.6801 C   0  0  0  0  0  0  0  0  0  0  0  0
   28.8736  -20.4774   -6.1771 C   0  0  0  0  0  0  0  0  0  0  0  0
   29.2707  -20.5612   -4.8543 C   0  0  0  0  0  0  0  0  0  0  0  0
   28.9226  -19.5429   -4.0015 C   0  0  0  0  0  0  0  0  0  0  0  0
   28.2020  -18.4704   -4.4413 C   0  0  0  0  0  0  0  0  0  0  0  0
   27.8214  -18.4125   -5.7569 C   0  0  0  0  0  0  0  0  0  0  0  0
   25.5733  -20.4285   -7.8644 C   0  0  0  0  0  0  0  0  0  0  0  0
   24.7044  -19.5542   -8.1189 O   0  0  0  0  0  0  0  0  0  0  0  0
   25.2692  -21.3970   -6.8772 N   0  0  0  0  0  0  0  0  0  0  0  0
   24.0653  -21.4353   -6.0888 C   0  0  1  0  0  0  0  0  0  0  0  0
   23.4089  -22.7722   -6.1920 C   0  0  0  0  0  0  0  0  0  0  0  0
   21.9706  -22.9013   -5.0753 S   0  0  0  0  0  0  0  0  0  0  0  0
   24.3039  -21.0227   -4.6641 C   0  0  0  0  0  0  0  0  0  0  0  0
   23.3706  -20.2355   -4.0323 O   0  0  0  0  0  0  0  0  0  0  0  0
   25.3461  -21.3976   -4.0615 O   0  0  0  0  0  0  0  0  0  0  0  0
  2  1  1  0
  3  2  1  0
  3  4  1  0
  4  5  1  0
  5  7  1  0
  5  6  1  6
  7  8  2  0
  9  7  1  0
  9 10  1  0
 10 11  1  1
 11 12  1  0
 12 17  2  0
 13 12  1  0
 13 14  2  0
 14 15  1  0
 15 16  2  0
 17 16  1  0
 18 20  1  0
 18 10  1  0
 19 18  2  0
 21 22  1  1
 21 20  1  0
 23 22  1  0
 24 21  1  0
 24 25  1  0
 26 24  2  0
M  END
$$$$
