MFC.pdb
     RDKit          3D

 26 26  0  0  1  0  0  0  0  0999 V2000
   24.1581  -26.2989  -19.8654 C   0  0  0  0  0  0  0  0  0  0  0  0
   23.4402  -27.9141  -19.9857 S   0  0  0  0  0  0  0  0  0  0  0  0
   23.2637  -28.8581  -18.4992 C   0  0  0  0  0  0  0  0  0  0  0  0
   22.1330  -28.4049  -17.6365 C   0  0  0  0  0  0  0  0  0  0  0  0
   22.4196  -28.5580  -16.1897 C   0  0  2  0  0  0  0  0  0  0  0  0
   22.4768  -29.9392  -15.8301 N   0  0  0  0  0  0  0  0  0  0  0  0
   21.3625  -27.8986  -15.3437 C   0  0  0  0  0  0  0  0  0  0  0  0
   20.3849  -28.5770  -14.9831 O   0  0  0  0  0  0  0  0  0  0  0  0
   21.5244  -26.5447  -14.9967 N   0  0  0  0  0  0  0  0  0  0  0  0
   20.5272  -25.8444  -14.1610 C   0  0  1  0  0  0  0  0  0  0  0  0
   21.2072  -25.3844  -12.8904 C   0  0  0  0  0  0  0  0  0  0  0  0
   20.3416  -25.2503  -11.7188 C   0  0  0  0  0  0  0  0  0  0  0  0
   20.0391  -26.2910  -10.8603 C   0  0  0  0  0  0  0  0  0  0  0  0
   19.2431  -26.1379   -9.7389 C   0  0  0  0  0  0  0  0  0  0  0  0
   18.7298  -24.8940   -9.4664 C   0  0  0  0  0  0  0  0  0  0  0  0
   18.9942  -23.8290  -10.2781 C   0  0  0  0  0  0  0  0  0  0  0  0
   19.7858  -24.0084  -11.3827 C   0  0  0  0  0  0  0  0  0  0  0  0
   20.0260  -24.6852  -14.9286 C   0  0  0  0  0  0  0  0  0  0  0  0
   20.8586  -23.9455  -15.5150 O   0  0  0  0  0  0  0  0  0  0  0  0
   18.6529  -24.3600  -15.0458 N   0  0  0  0  0  0  0  0  0  0  0  0
   18.1231  -23.2128  -15.7355 C   0  0  1  0  0  0  0  0  0  0  0  0
   16.9282  -23.5901  -16.5471 C   0  0  0  0  0  0  0  0  0  0  0  0
   17.3208  -24.9102  -17.7454 S   0  0  0  0  0  0  0  0  0  0  0  0
   17.8448  -22.0668  -14.8050 C   0  0  0  0  0  0  0  0  0  0  0  0
   18.0314  -20.7813  -15.2553 O   0  0  0  0  0  0  0  0  0  0  0  0
   17.4447  -22.2870  -13.6297 O   0  0  0  0  0  0  0  0  0  0  0  0
  2  1  1  0
  3  2  1  0
  3  4  1  0
  4  5  1  0
  5  7  1  0
  5  6  1  1
  7  8  2  0
  9  7  1  0
  9 10  1  0
 10 11  1  1
 11 12  1  0
 12 17  2  0
 13 12  1  0
 13 14  2  0
 14 15  1  0
 15 16  2  0
 17 16  1  0
 18 20  1  0
 18 10  1  0
 19 18  2  0
 21 22  1  1
 21 20  1  0
 23 22  1  0
 24 21  1  0
 24 25  1  0
 26 24  2  0
M  END
$$$$
