IHN.pdb
     RDKit          3D

 27 27  0  0  1  0  0  0  0  0999 V2000
    7.1810  -11.8917   20.3510 C   0  0  0  0  0  0  0  0  0  0  0  0
    7.4941  -12.7617   19.1657 C   0  0  0  0  0  0  0  0  0  0  0  0
    8.7690  -13.5431   19.3960 C   0  0  2  0  0  0  0  0  0  0  0  0
    9.9079  -12.5305   19.5205 C   0  0  0  0  0  0  0  0  0  0  0  0
    8.9965  -14.4232   18.2015 C   0  0  2  0  0  0  0  0  0  0  0  0
    7.8209  -15.2044   17.9214 N   0  0  0  0  0  0  0  0  0  0  0  0
   10.2031  -15.2586   18.3858 C   0  0  0  0  0  0  0  0  0  0  0  0
   10.1489  -16.3806   18.9624 O   0  0  0  0  0  0  0  0  0  0  0  0
   11.4466  -14.8239   17.9241 N   0  0  0  0  0  0  0  0  0  0  0  0
   12.6626  -15.7280   17.9327 C   0  0  1  0  0  0  0  0  0  0  0  0
   13.2304  -15.5020   16.5801 C   0  0  0  0  0  0  0  0  0  0  0  0
   12.6617  -16.1968   15.4363 C   0  0  0  0  0  0  0  0  0  0  0  0
   12.0299  -17.3718   15.2158 C   0  0  0  0  0  0  0  0  0  0  0  0
   11.6564  -17.4734   13.9134 N   0  0  0  0  0  0  0  0  0  0  0  0
   12.0596  -16.3514   13.3244 C   0  0  0  0  0  0  0  0  0  0  0  0
   12.6606  -15.5739   14.2077 N   0  0  0  0  0  0  0  0  0  0  0  0
   13.5243  -15.0145   18.9411 C   0  0  0  0  0  0  0  0  0  0  0  0
   13.1632  -13.8315   19.2958 O   0  0  0  0  0  0  0  0  0  0  0  0
   14.2031  -15.3467   23.9197 N   0  0  0  0  0  0  0  0  0  0  0  0
   13.8555  -16.4257   23.0574 C   0  0  0  0  0  0  0  0  0  0  0  0
   13.6297  -17.5417   23.5871 O   0  0  0  0  0  0  0  0  0  0  0  0
   13.7537  -16.2784   21.6053 C   0  0  0  0  0  0  0  0  0  0  0  0
   14.8750  -15.4611   20.9970 C   0  0  2  0  0  0  0  0  0  0  0  0
   14.6833  -15.5130   19.5382 N   0  0  0  0  0  0  0  0  0  0  0  0
   16.1968  -16.0021   21.3405 C   0  0  0  0  0  0  0  0  0  0  0  0
   17.0273  -15.2817   21.9258 O   0  0  0  0  0  0  0  0  0  0  0  0
   16.5290  -17.2978   21.0220 O   0  0  0  0  0  0  0  0  0  0  0  0
  2  1  1  0
  3  2  1  0
  3  4  1  6
  5  6  1  1
  5  3  1  0
  7  5  1  0
  8  7  2  0
  9  7  1  0
 10  9  1  0
 11 12  1  0
 10 11  1  6
 12 16  1  0
 13 14  1  0
 13 12  2  0
 14 15  1  0
 15 16  2  0
 17 10  1  0
 17 18  2  0
 20 22  1  0
 20 19  1  0
 21 20  2  0
 23 22  1  1
 23 24  1  0
 24 17  1  0
 25 23  1  0
 26 25  2  0
 27 25  1  0
M  END
$$$$
