IHN.pdb
     RDKit          3D

 27 27  0  0  1  0  0  0  0  0999 V2000
    7.0282  -11.6772   27.4986 C   0  0  0  0  0  0  0  0  0  0  0  0
    6.2625  -12.7589   26.7892 C   0  0  0  0  0  0  0  0  0  0  0  0
    7.1918  -13.6182   25.9603 C   0  0  2  0  0  0  0  0  0  0  0  0
    7.7633  -12.7333   24.8519 C   0  0  0  0  0  0  0  0  0  0  0  0
    6.3831  -14.7309   25.3595 C   0  0  2  0  0  0  0  0  0  0  0  0
    5.6420  -15.4222   26.3810 N   0  0  0  0  0  0  0  0  0  0  0  0
    7.2429  -15.6384   24.5689 C   0  0  0  0  0  0  0  0  0  0  0  0
    7.8395  -16.6152   25.1018 O   0  0  0  0  0  0  0  0  0  0  0  0
    7.4206  -15.4362   23.1992 N   0  0  0  0  0  0  0  0  0  0  0  0
    8.2221  -16.3992   22.3469 C   0  0  1  0  0  0  0  0  0  0  0  0
    7.6803  -16.1415   20.9893 C   0  0  0  0  0  0  0  0  0  0  0  0
    7.8451  -14.8284   20.3867 C   0  0  0  0  0  0  0  0  0  0  0  0
    7.4842  -13.5595   20.6835 C   0  0  0  0  0  0  0  0  0  0  0  0
    7.9794  -12.6961   19.7587 N   0  0  0  0  0  0  0  0  0  0  0  0
    8.6529  -13.4373   18.8838 C   0  0  0  0  0  0  0  0  0  0  0  0
    8.5894  -14.7099   19.2337 N   0  0  0  0  0  0  0  0  0  0  0  0
    9.5894  -15.7753   22.4452 C   0  0  0  0  0  0  0  0  0  0  0  0
    9.7165  -14.7464   23.2073 O   0  0  0  0  0  0  0  0  0  0  0  0
   12.3647  -16.0649   25.3222 N   0  0  0  0  0  0  0  0  0  0  0  0
   11.8746  -17.3287   24.8850 C   0  0  0  0  0  0  0  0  0  0  0  0
   11.6329  -18.1926   25.7638 O   0  0  0  0  0  0  0  0  0  0  0  0
   11.6469  -17.6454   23.4748 C   0  0  0  0  0  0  0  0  0  0  0  0
   11.9789  -16.5052   22.5342 C   0  0  2  0  0  0  0  0  0  0  0  0
   10.7441  -16.2068   21.7902 N   0  0  0  0  0  0  0  0  0  0  0  0
   13.0477  -16.8645   21.5926 C   0  0  0  0  0  0  0  0  0  0  0  0
   12.8630  -17.7774   20.7657 O   0  0  0  0  0  0  0  0  0  0  0  0
   14.2531  -16.2033   21.6139 O   0  0  0  0  0  0  0  0  0  0  0  0
  2  1  1  0
  3  2  1  0
  3  4  1  6
  5  6  1  1
  5  3  1  0
  7  5  1  0
  8  7  2  0
  9  7  1  0
 10  9  1  0
 11 12  1  0
 10 11  1  6
 12 16  1  0
 13 14  1  0
 13 12  2  0
 14 15  1  0
 15 16  2  0
 17 10  1  0
 17 18  2  0
 20 22  1  0
 20 19  1  0
 21 20  2  0
 23 22  1  1
 23 24  1  0
 24 17  1  0
 25 23  1  0
 26 25  2  0
 27 25  1  0
M  END
$$$$
