IHN.pdb
     RDKit          3D

 27 27  0  0  1  0  0  0  0  0999 V2000
    8.4538  -12.5789   27.7573 C   0  0  0  0  0  0  0  0  0  0  0  0
    7.4449  -13.4952   27.1230 C   0  0  0  0  0  0  0  0  0  0  0  0
    7.9279  -13.9701   25.7702 C   0  0  2  0  0  0  0  0  0  0  0  0
    8.0958  -12.7335   24.8865 C   0  0  0  0  0  0  0  0  0  0  0  0
    6.8765  -14.8720   25.1920 C   0  0  2  0  0  0  0  0  0  0  0  0
    6.5514  -15.9237   26.1186 N   0  0  0  0  0  0  0  0  0  0  0  0
    7.2951  -15.3883   23.8706 C   0  0  0  0  0  0  0  0  0  0  0  0
    7.3876  -16.6269   23.6437 O   0  0  0  0  0  0  0  0  0  0  0  0
    7.6037  -14.5113   22.8294 N   0  0  0  0  0  0  0  0  0  0  0  0
    7.8353  -15.0013   21.4143 C   0  0  1  0  0  0  0  0  0  0  0  0
    7.8621  -13.7329   20.6441 C   0  0  0  0  0  0  0  0  0  0  0  0
    8.1997  -13.7575   19.2299 C   0  0  0  0  0  0  0  0  0  0  0  0
    8.9554  -13.0170   18.3877 C   0  0  0  0  0  0  0  0  0  0  0  0
    8.9498  -13.5601   17.1423 N   0  0  0  0  0  0  0  0  0  0  0  0
    8.1854  -14.6458   17.2156 C   0  0  0  0  0  0  0  0  0  0  0  0
    7.7264  -14.7870   18.4466 N   0  0  0  0  0  0  0  0  0  0  0  0
    9.2439  -15.5208   21.5341 C   0  0  0  0  0  0  0  0  0  0  0  0
    9.6876  -16.2535   20.5740 O   0  0  0  0  0  0  0  0  0  0  0  0
   13.0130  -15.2904   19.9977 N   0  0  0  0  0  0  0  0  0  0  0  0
   12.6475  -14.3235   20.9776 C   0  0  0  0  0  0  0  0  0  0  0  0
   12.5121  -13.1345   20.5969 O   0  0  0  0  0  0  0  0  0  0  0  0
   12.4279  -14.6642   22.3835 C   0  0  0  0  0  0  0  0  0  0  0  0
   11.4899  -15.8366   22.5858 C   0  0  2  0  0  0  0  0  0  0  0  0
   10.1261  -15.2822   22.5893 N   0  0  0  0  0  0  0  0  0  0  0  0
   11.7441  -16.5296   23.8558 C   0  0  0  0  0  0  0  0  0  0  0  0
   10.8401  -16.6098   24.7088 O   0  0  0  0  0  0  0  0  0  0  0  0
   12.9719  -17.0916   24.1150 O   0  0  0  0  0  0  0  0  0  0  0  0
  2  1  1  0
  3  2  1  0
  3  4  1  6
  5  6  1  1
  5  3  1  0
  7  5  1  0
  8  7  2  0
  9  7  1  0
 10  9  1  0
 11 12  1  0
 10 11  1  6
 12 16  1  0
 13 14  1  0
 13 12  2  0
 14 15  1  0
 15 16  2  0
 17 10  1  0
 17 18  2  0
 20 22  1  0
 20 19  1  0
 21 20  2  0
 23 22  1  1
 23 24  1  0
 24 17  1  0
 25 23  1  0
 26 25  2  0
 27 25  1  0
M  END
$$$$
