IHN.pdb
     RDKit          3D

 27 27  0  0  1  0  0  0  0  0999 V2000
   11.0384  -22.4794   21.6197 C   0  0  0  0  0  0  0  0  0  0  0  0
   10.1657  -21.7441   20.6411 C   0  0  0  0  0  0  0  0  0  0  0  0
    8.8727  -21.3107   21.2963 C   0  0  2  0  0  0  0  0  0  0  0  0
    8.1544  -22.5756   21.7677 C   0  0  0  0  0  0  0  0  0  0  0  0
    8.0418  -20.6067   20.2631 C   0  0  2  0  0  0  0  0  0  0  0  0
    7.7093  -21.5041   19.1886 N   0  0  0  0  0  0  0  0  0  0  0  0
    8.7194  -19.3801   19.7898 C   0  0  0  0  0  0  0  0  0  0  0  0
    9.4538  -19.3847   18.7627 O   0  0  0  0  0  0  0  0  0  0  0  0
    8.5650  -18.1730   20.4737 N   0  0  0  0  0  0  0  0  0  0  0  0
    9.2568  -16.9036   20.0199 C   0  0  1  0  0  0  0  0  0  0  0  0
    8.1895  -15.8866   20.1916 C   0  0  0  0  0  0  0  0  0  0  0  0
    8.4971  -14.4800   19.9882 C   0  0  0  0  0  0  0  0  0  0  0  0
    9.5938  -13.7481   19.6879 C   0  0  0  0  0  0  0  0  0  0  0  0
    9.2685  -12.4352   19.5602 N   0  0  0  0  0  0  0  0  0  0  0  0
    7.9598  -12.3551   19.7822 C   0  0  0  0  0  0  0  0  0  0  0  0
    7.4756  -13.5574   20.0390 N   0  0  0  0  0  0  0  0  0  0  0  0
   10.2650  -16.7337   21.1259 C   0  0  0  0  0  0  0  0  0  0  0  0
    9.9639  -17.2167   22.2798 O   0  0  0  0  0  0  0  0  0  0  0  0
   14.5709  -17.0669   23.8910 N   0  0  0  0  0  0  0  0  0  0  0  0
   13.9696  -18.0397   23.0420 C   0  0  0  0  0  0  0  0  0  0  0  0
   14.4285  -19.2079   23.0826 O   0  0  0  0  0  0  0  0  0  0  0  0
   12.8568  -17.7285   22.1444 C   0  0  0  0  0  0  0  0  0  0  0  0
   12.5279  -16.2514   22.0729 C   0  0  2  0  0  0  0  0  0  0  0  0
   11.5061  -16.1031   21.0235 N   0  0  0  0  0  0  0  0  0  0  0  0
   13.7062  -15.4430   21.7320 C   0  0  0  0  0  0  0  0  0  0  0  0
   14.4426  -15.0095   22.6382 O   0  0  0  0  0  0  0  0  0  0  0  0
   14.0060  -15.1580   20.4208 O   0  0  0  0  0  0  0  0  0  0  0  0
  2  1  1  0
  3  2  1  0
  3  4  1  6
  5  6  1  6
  5  3  1  0
  7  5  1  0
  8  7  2  0
  9  7  1  0
 10  9  1  0
 11 12  1  0
 10 11  1  1
 12 16  1  0
 13 14  1  0
 13 12  2  0
 14 15  1  0
 15 16  2  0
 17 10  1  0
 17 18  2  0
 20 22  1  0
 20 19  1  0
 21 20  2  0
 23 22  1  6
 23 24  1  0
 24 17  1  0
 25 23  1  0
 26 25  2  0
 27 25  1  0
M  END
$$$$
