VGH.pdb
     RDKit          3D

 22 22  0  0  1  0  0  0  0  0999 V2000
   13.2437  -21.9351   18.3911 C   0  0  0  0  0  0  0  0  0  0  0  0
   12.7948  -20.5140   18.1347 C   0  0  2  0  0  0  0  0  0  0  0  0
   13.7909  -19.5981   18.8171 C   0  0  0  0  0  0  0  0  0  0  0  0
   11.4440  -20.2269   18.7415 C   0  0  2  0  0  0  0  0  0  0  0  0
   10.4772  -21.0569   18.0535 N   0  0  0  0  0  0  0  0  0  0  0  0
   11.0343  -18.8301   18.6440 C   0  0  0  0  0  0  0  0  0  0  0  0
   10.7859  -18.3228   17.5222 O   0  0  0  0  0  0  0  0  0  0  0  0
   10.8863  -17.9548   19.7699 N   0  0  0  0  0  0  0  0  0  0  0  0
   10.4773  -16.5951   19.6799 C   0  0  0  0  0  0  0  0  0  0  0  0
   10.3311  -15.9332   20.9999 C   0  0  0  0  0  0  0  0  0  0  0  0
   11.2675  -15.1877   21.3816 O   0  0  0  0  0  0  0  0  0  0  0  0
    9.2055  -16.0955   21.8420 N   0  0  0  0  0  0  0  0  0  0  0  0
    8.9611  -15.2666   23.0178 C   0  0  1  0  0  0  0  0  0  0  0  0
    7.6748  -14.5491   22.9700 C   0  0  0  0  0  0  0  0  0  0  0  0
    7.5091  -13.7812   21.7279 C   0  0  0  0  0  0  0  0  0  0  0  0
    7.7624  -12.4221   21.5556 C   0  0  0  0  0  0  0  0  0  0  0  0
    7.4961  -12.0748   20.2830 N   0  0  0  0  0  0  0  0  0  0  0  0
    7.0805  -13.1769   19.6428 C   0  0  0  0  0  0  0  0  0  0  0  0
    7.0917  -14.2076   20.5279 N   0  0  0  0  0  0  0  0  0  0  0  0
    9.1070  -16.0491   24.2615 C   0  0  0  0  0  0  0  0  0  0  0  0
    8.9858  -15.4857   25.3659 O   0  0  0  0  0  0  0  0  0  0  0  0
    9.3782  -17.4095   24.2467 O   0  0  0  0  0  0  0  0  0  0  0  0
  2  1  1  1
  2  3  1  0
  4  6  1  0
  4  2  1  0
  4  5  1  6
  6  8  1  0
  7  6  2  0
  8  9  1  0
  9 10  1  0
 10 12  1  0
 10 11  2  0
 12 13  1  0
 13 14  1  6
 14 15  1  0
 15 19  1  0
 16 17  1  0
 16 15  2  0
 17 18  1  0
 18 19  2  0
 20 13  1  0
 20 22  1  0
 21 20  2  0
M  END
$$$$
