VGH.pdb
     RDKit          3D

 22 22  0  0  1  0  0  0  0  0999 V2000
    6.7467  -13.5228   18.8423 C   0  0  0  0  0  0  0  0  0  0  0  0
    7.6536  -13.4199   20.0480 C   0  0  2  0  0  0  0  0  0  0  0  0
    9.0141  -12.9751   19.5503 C   0  0  0  0  0  0  0  0  0  0  0  0
    7.8468  -14.7521   20.7287 C   0  0  2  0  0  0  0  0  0  0  0  0
    6.5319  -15.2677   21.0482 N   0  0  0  0  0  0  0  0  0  0  0  0
    8.6463  -14.6857   21.9472 C   0  0  0  0  0  0  0  0  0  0  0  0
    8.2291  -14.0400   22.9405 O   0  0  0  0  0  0  0  0  0  0  0  0
    9.9205  -15.3230   22.1091 N   0  0  0  0  0  0  0  0  0  0  0  0
   10.8393  -15.0242   23.1534 C   0  0  0  0  0  0  0  0  0  0  0  0
   10.4157  -15.5400   24.4788 C   0  0  0  0  0  0  0  0  0  0  0  0
   11.2349  -15.4453   25.4266 O   0  0  0  0  0  0  0  0  0  0  0  0
    9.1523  -16.1263   24.7287 N   0  0  0  0  0  0  0  0  0  0  0  0
    8.7116  -16.5390   26.0571 C   0  0  1  0  0  0  0  0  0  0  0  0
    7.3251  -16.1435   26.3619 C   0  0  0  0  0  0  0  0  0  0  0  0
    7.1466  -14.6847   26.3591 C   0  0  0  0  0  0  0  0  0  0  0  0
    8.1517  -13.7280   26.4844 C   0  0  0  0  0  0  0  0  0  0  0  0
    7.6077  -12.4981   26.4370 N   0  0  0  0  0  0  0  0  0  0  0  0
    6.2842  -12.6482   26.2850 C   0  0  0  0  0  0  0  0  0  0  0  0
    6.0139  -13.9789   26.2387 N   0  0  0  0  0  0  0  0  0  0  0  0
    8.9283  -17.9846   26.2657 C   0  0  0  0  0  0  0  0  0  0  0  0
    9.0281  -18.7444   25.2835 O   0  0  0  0  0  0  0  0  0  0  0  0
    9.0265  -18.5378   27.5341 O   0  0  0  0  0  0  0  0  0  0  0  0
  2  1  1  6
  2  3  1  0
  4  6  1  0
  4  2  1  0
  4  5  1  1
  6  8  1  0
  7  6  2  0
  8  9  1  0
  9 10  1  0
 10 12  1  0
 10 11  2  0
 12 13  1  0
 13 14  1  6
 14 15  1  0
 15 19  1  0
 16 17  1  0
 16 15  2  0
 17 18  1  0
 18 19  2  0
 20 13  1  0
 20 22  1  0
 21 20  2  0
M  END
$$$$
