VGH.pdb
     RDKit          3D

 22 22  0  0  1  0  0  0  0  0999 V2000
    6.2524  -21.0657   22.4389 C   0  0  0  0  0  0  0  0  0  0  0  0
    6.4895  -19.6030   22.7403 C   0  0  2  0  0  0  0  0  0  0  0  0
    5.3850  -19.1520   23.6748 C   0  0  0  0  0  0  0  0  0  0  0  0
    6.3976  -18.7458   21.5026 C   0  0  2  0  0  0  0  0  0  0  0  0
    7.3537  -19.2647   20.5468 N   0  0  0  0  0  0  0  0  0  0  0  0
    6.6716  -17.3323   21.7376 C   0  0  0  0  0  0  0  0  0  0  0  0
    5.8416  -16.6243   22.3601 O   0  0  0  0  0  0  0  0  0  0  0  0
    7.8588  -16.6591   21.2982 N   0  0  0  0  0  0  0  0  0  0  0  0
    8.1065  -15.2699   21.4800 C   0  0  0  0  0  0  0  0  0  0  0  0
    8.5900  -14.9290   22.8409 C   0  0  0  0  0  0  0  0  0  0  0  0
    9.0440  -13.7716   23.0218 O   0  0  0  0  0  0  0  0  0  0  0  0
    8.5672  -15.8283   23.9332 N   0  0  0  0  0  0  0  0  0  0  0  0
    9.0833  -15.4921   25.2559 C   0  0  1  0  0  0  0  0  0  0  0  0
    8.0303  -15.3642   26.2790 C   0  0  0  0  0  0  0  0  0  0  0  0
    7.2686  -14.1146   26.1437 C   0  0  0  0  0  0  0  0  0  0  0  0
    7.7513  -12.8995   25.6624 C   0  0  0  0  0  0  0  0  0  0  0  0
    6.7644  -11.9848   25.6857 N   0  0  0  0  0  0  0  0  0  0  0  0
    5.6682  -12.5866   26.1688 C   0  0  0  0  0  0  0  0  0  0  0  0
    5.9840  -13.8791   26.4439 N   0  0  0  0  0  0  0  0  0  0  0  0
   10.1403  -16.4356   25.6716 C   0  0  0  0  0  0  0  0  0  0  0  0
   10.4454  -17.3899   24.9313 O   0  0  0  0  0  0  0  0  0  0  0  0
   10.8175  -16.2975   26.8745 O   0  0  0  0  0  0  0  0  0  0  0  0
  2  1  1  6
  2  3  1  0
  4  6  1  0
  4  2  1  0
  4  5  1  6
  6  8  1  0
  7  6  2  0
  8  9  1  0
  9 10  1  0
 10 12  1  0
 10 11  2  0
 12 13  1  0
 13 14  1  1
 14 15  1  0
 15 19  1  0
 16 17  1  0
 16 15  2  0
 17 18  1  0
 18 19  2  0
 20 13  1  0
 20 22  1  0
 21 20  2  0
M  END
$$$$
