VGH.pdb
     RDKit          3D

 22 22  0  0  1  0  0  0  0  0999 V2000
    8.7608  -20.0168   18.4651 C   0  0  0  0  0  0  0  0  0  0  0  0
    8.2552  -18.8583   19.2951 C   0  0  2  0  0  0  0  0  0  0  0  0
    8.3282  -17.6181   18.4272 C   0  0  0  0  0  0  0  0  0  0  0  0
    9.1226  -18.6034   20.5026 C   0  0  2  0  0  0  0  0  0  0  0  0
    9.2431  -19.8561   21.2190 N   0  0  0  0  0  0  0  0  0  0  0  0
    8.6000  -17.5823   21.4040 C   0  0  0  0  0  0  0  0  0  0  0  0
    7.6701  -17.8611   22.2009 O   0  0  0  0  0  0  0  0  0  0  0  0
    9.0812  -16.2326   21.4560 N   0  0  0  0  0  0  0  0  0  0  0  0
    8.5691  -15.2322   22.3284 C   0  0  0  0  0  0  0  0  0  0  0  0
    9.1050  -15.3216   23.7093 C   0  0  0  0  0  0  0  0  0  0  0  0
   10.2951  -14.9636   23.8937 O   0  0  0  0  0  0  0  0  0  0  0  0
    8.3550  -15.7835   24.8168 N   0  0  0  0  0  0  0  0  0  0  0  0
    8.8511  -15.7478   26.1886 C   0  0  1  0  0  0  0  0  0  0  0  0
    7.8473  -15.2806   27.1611 C   0  0  0  0  0  0  0  0  0  0  0  0
    7.2760  -13.9777   26.7923 C   0  0  0  0  0  0  0  0  0  0  0  0
    7.9475  -12.7572   26.7670 C   0  0  0  0  0  0  0  0  0  0  0  0
    7.0990  -11.7872   26.3798 N   0  0  0  0  0  0  0  0  0  0  0  0
    5.9068  -12.3591   26.1585 C   0  0  0  0  0  0  0  0  0  0  0  0
    6.0241  -13.6888   26.4116 N   0  0  0  0  0  0  0  0  0  0  0  0
    9.4306  -17.0483   26.5801 C   0  0  0  0  0  0  0  0  0  0  0  0
    9.3391  -18.0242   25.8112 O   0  0  0  0  0  0  0  0  0  0  0  0
   10.0836  -17.2276   27.7909 O   0  0  0  0  0  0  0  0  0  0  0  0
  2  1  1  6
  2  3  1  0
  4  6  1  0
  4  2  1  0
  4  5  1  1
  6  8  1  0
  7  6  2  0
  8  9  1  0
  9 10  1  0
 10 12  1  0
 10 11  2  0
 12 13  1  0
 13 14  1  1
 14 15  1  0
 15 19  1  0
 16 17  1  0
 16 15  2  0
 17 18  1  0
 18 19  2  0
 20 13  1  0
 20 22  1  0
 21 20  2  0
M  END
$$$$
