VGH.pdb
     RDKit          3D

 22 22  0  0  1  0  0  0  0  0999 V2000
    1.9342  -19.0497   21.9546 C   0  0  0  0  0  0  0  0  0  0  0  0
    2.9710  -19.0147   20.8543 C   0  0  2  0  0  0  0  0  0  0  0  0
    2.7305  -20.2228   19.9716 C   0  0  0  0  0  0  0  0  0  0  0  0
    4.3749  -19.1343   21.3928 C   0  0  2  0  0  0  0  0  0  0  0  0
    4.4599  -20.3960   22.0984 N   0  0  0  0  0  0  0  0  0  0  0  0
    4.7595  -18.0529   22.2933 C   0  0  0  0  0  0  0  0  0  0  0  0
    5.0086  -16.9100   21.8358 O   0  0  0  0  0  0  0  0  0  0  0  0
    4.8810  -18.1948   23.7149 N   0  0  0  0  0  0  0  0  0  0  0  0
    5.1805  -17.1256   24.6045 C   0  0  0  0  0  0  0  0  0  0  0  0
    6.6003  -16.6967   24.5563 C   0  0  0  0  0  0  0  0  0  0  0  0
    7.0861  -16.4256   23.4298 O   0  0  0  0  0  0  0  0  0  0  0  0
    7.4265  -16.5782   25.6989 N   0  0  0  0  0  0  0  0  0  0  0  0
    8.8417  -16.2296   25.6290 C   0  0  1  0  0  0  0  0  0  0  0  0
    9.0809  -14.8397   25.2018 C   0  0  0  0  0  0  0  0  0  0  0  0
    8.1303  -13.8971   25.8085 C   0  0  0  0  0  0  0  0  0  0  0  0
    7.4858  -14.0465   27.0346 C   0  0  0  0  0  0  0  0  0  0  0  0
    6.6921  -12.9824   27.2558 N   0  0  0  0  0  0  0  0  0  0  0  0
    6.8154  -12.1616   26.2030 C   0  0  0  0  0  0  0  0  0  0  0  0
    7.6905  -12.7253   25.3298 N   0  0  0  0  0  0  0  0  0  0  0  0
    9.5307  -16.5401   26.8976 C   0  0  0  0  0  0  0  0  0  0  0  0
    8.8803  -16.9806   27.8644 O   0  0  0  0  0  0  0  0  0  0  0  0
   10.8966  -16.3569   27.0563 O   0  0  0  0  0  0  0  0  0  0  0  0
  2  1  1  1
  2  3  1  0
  4  6  1  0
  4  2  1  0
  4  5  1  1
  6  8  1  0
  7  6  2  0
  8  9  1  0
  9 10  1  0
 10 12  1  0
 10 11  2  0
 12 13  1  0
 13 14  1  1
 14 15  1  0
 15 19  1  0
 16 17  1  0
 16 15  2  0
 17 18  1  0
 18 19  2  0
 20 13  1  0
 20 22  1  0
 21 20  2  0
M  END
$$$$
