VGH.pdb
     RDKit          3D

 22 22  0  0  1  0  0  0  0  0999 V2000
    6.3811  -13.3366   19.3160 C   0  0  0  0  0  0  0  0  0  0  0  0
    7.5027  -13.3443   20.3302 C   0  0  2  0  0  0  0  0  0  0  0  0
    8.7725  -12.9577   19.5988 C   0  0  0  0  0  0  0  0  0  0  0  0
    7.7306  -14.7161   20.9147 C   0  0  2  0  0  0  0  0  0  0  0  0
    6.4570  -15.1874   21.4174 N   0  0  0  0  0  0  0  0  0  0  0  0
    8.7138  -14.7465   21.9921 C   0  0  0  0  0  0  0  0  0  0  0  0
    8.5307  -14.0662   23.0320 O   0  0  0  0  0  0  0  0  0  0  0  0
    9.9201  -15.5208   21.9587 N   0  0  0  0  0  0  0  0  0  0  0  0
   11.0277  -15.3171   22.8282 C   0  0  0  0  0  0  0  0  0  0  0  0
   10.7493  -15.6899   24.2372 C   0  0  0  0  0  0  0  0  0  0  0  0
   11.6944  -15.5953   25.0596 O   0  0  0  0  0  0  0  0  0  0  0  0
    9.4900  -16.1414   24.6985 N   0  0  0  0  0  0  0  0  0  0  0  0
    9.1830  -16.3475   26.1100 C   0  0  1  0  0  0  0  0  0  0  0  0
    7.7674  -16.1064   26.4415 C   0  0  0  0  0  0  0  0  0  0  0  0
    7.3416  -14.7387   26.1128 C   0  0  0  0  0  0  0  0  0  0  0  0
    7.7192  -13.5729   26.7758 C   0  0  0  0  0  0  0  0  0  0  0  0
    7.1301  -12.5140   26.1903 N   0  0  0  0  0  0  0  0  0  0  0  0
    6.3887  -12.9763   25.1735 C   0  0  0  0  0  0  0  0  0  0  0  0
    6.5235  -14.3276   25.1344 N   0  0  0  0  0  0  0  0  0  0  0  0
    9.6342  -17.6778   26.5652 C   0  0  0  0  0  0  0  0  0  0  0  0
   10.0082  -18.5242   25.7312 O   0  0  0  0  0  0  0  0  0  0  0  0
    9.6579  -18.0264   27.9077 O   0  0  0  0  0  0  0  0  0  0  0  0
  2  1  1  6
  2  3  1  0
  4  6  1  0
  4  2  1  0
  4  5  1  1
  6  8  1  0
  7  6  2  0
  8  9  1  0
  9 10  1  0
 10 12  1  0
 10 11  2  0
 12 13  1  0
 13 14  1  6
 14 15  1  0
 15 19  1  0
 16 17  1  0
 16 15  2  0
 17 18  1  0
 18 19  2  0
 20 13  1  0
 20 22  1  0
 21 20  2  0
M  END
$$$$
