VGH.pdb
     RDKit          3D

 22 22  0  0  1  0  0  0  0  0999 V2000
    8.6148  -13.3919   18.9710 C   0  0  0  0  0  0  0  0  0  0  0  0
    7.8520  -13.9446   20.1539 C   0  0  2  0  0  0  0  0  0  0  0  0
    6.7437  -12.9615   20.4730 C   0  0  0  0  0  0  0  0  0  0  0  0
    8.7150  -14.0517   21.3864 C   0  0  2  0  0  0  0  0  0  0  0  0
    9.7517  -15.0225   21.1037 N   0  0  0  0  0  0  0  0  0  0  0  0
    7.9899  -14.4581   22.5854 C   0  0  0  0  0  0  0  0  0  0  0  0
    6.9600  -13.8334   22.9412 O   0  0  0  0  0  0  0  0  0  0  0  0
    8.3730  -15.5564   23.4237 N   0  0  0  0  0  0  0  0  0  0  0  0
    7.6798  -15.9435   24.6043 C   0  0  0  0  0  0  0  0  0  0  0  0
    8.2157  -17.1798   25.2258 C   0  0  0  0  0  0  0  0  0  0  0  0
    7.3861  -18.0090   25.6759 O   0  0  0  0  0  0  0  0  0  0  0  0
    9.5960  -17.4710   25.3370 N   0  0  0  0  0  0  0  0  0  0  0  0
   10.1078  -18.6986   25.9371 C   0  0  1  0  0  0  0  0  0  0  0  0
   11.3160  -19.2156   25.2702 C   0  0  0  0  0  0  0  0  0  0  0  0
   11.1803  -19.2379   23.8069 C   0  0  0  0  0  0  0  0  0  0  0  0
   10.1699  -19.8629   23.0792 C   0  0  0  0  0  0  0  0  0  0  0  0
   10.3785  -19.6672   21.7642 N   0  0  0  0  0  0  0  0  0  0  0  0
   11.4942  -18.9348   21.6376 C   0  0  0  0  0  0  0  0  0  0  0  0
   11.9737  -18.6791   22.8828 N   0  0  0  0  0  0  0  0  0  0  0  0
   10.3102  -18.5374   27.3909 C   0  0  0  0  0  0  0  0  0  0  0  0
   10.0965  -17.4338   27.9278 O   0  0  0  0  0  0  0  0  0  0  0  0
   10.7359  -19.5850   28.1946 O   0  0  0  0  0  0  0  0  0  0  0  0
  2  1  1  6
  2  3  1  0
  4  6  1  0
  4  2  1  0
  4  5  1  6
  6  8  1  0
  7  6  2  0
  8  9  1  0
  9 10  1  0
 10 12  1  0
 10 11  2  0
 12 13  1  0
 13 14  1  6
 14 15  1  0
 15 19  1  0
 16 17  1  0
 16 15  2  0
 17 18  1  0
 18 19  2  0
 20 13  1  0
 20 22  1  0
 21 20  2  0
M  END
$$$$
