VGH.pdb
     RDKit          3D

 22 22  0  0  1  0  0  0  0  0999 V2000
    7.5215  -12.1535   19.5652 C   0  0  0  0  0  0  0  0  0  0  0  0
    8.2601  -13.4235   19.9233 C   0  0  2  0  0  0  0  0  0  0  0  0
    8.3219  -14.2756   18.6716 C   0  0  0  0  0  0  0  0  0  0  0  0
    7.5308  -14.2290   20.9696 C   0  0  2  0  0  0  0  0  0  0  0  0
    7.4201  -13.4002   22.1519 N   0  0  0  0  0  0  0  0  0  0  0  0
    8.1905  -15.4819   21.3207 C   0  0  0  0  0  0  0  0  0  0  0  0
    8.2012  -16.4384   20.5067 O   0  0  0  0  0  0  0  0  0  0  0  0
    8.8539  -15.7193   22.5695 N   0  0  0  0  0  0  0  0  0  0  0  0
    9.4826  -16.9457   22.9227 C   0  0  0  0  0  0  0  0  0  0  0  0
   10.1493  -16.9079   24.2479 C   0  0  0  0  0  0  0  0  0  0  0  0
   10.9186  -17.8581   24.5372 O   0  0  0  0  0  0  0  0  0  0  0  0
    9.9665  -15.8700   25.1922 N   0  0  0  0  0  0  0  0  0  0  0  0
    9.4417  -16.0948   26.5350 C   0  0  1  0  0  0  0  0  0  0  0  0
    7.9841  -15.9013   26.6328 C   0  0  0  0  0  0  0  0  0  0  0  0
    7.5759  -14.5366   26.2709 C   0  0  0  0  0  0  0  0  0  0  0  0
    8.4223  -13.4788   25.9458 C   0  0  0  0  0  0  0  0  0  0  0  0
    7.6874  -12.3854   25.6711 N   0  0  0  0  0  0  0  0  0  0  0  0
    6.3971  -12.7207   25.8131 C   0  0  0  0  0  0  0  0  0  0  0  0
    6.3395  -14.0284   26.1773 N   0  0  0  0  0  0  0  0  0  0  0  0
    9.8565  -17.4127   27.0561 C   0  0  0  0  0  0  0  0  0  0  0  0
    9.5570  -18.4481   26.4316 O   0  0  0  0  0  0  0  0  0  0  0  0
   10.5786  -17.5437   28.2334 O   0  0  0  0  0  0  0  0  0  0  0  0
  2  1  1  6
  2  3  1  0
  4  6  1  0
  4  2  1  0
  4  5  1  1
  6  8  1  0
  7  6  2  0
  8  9  1  0
  9 10  1  0
 10 12  1  0
 10 11  2  0
 12 13  1  0
 13 14  1  6
 14 15  1  0
 15 19  1  0
 16 17  1  0
 16 15  2  0
 17 18  1  0
 18 19  2  0
 20 13  1  0
 20 22  1  0
 21 20  2  0
M  END
$$$$
