VGH.pdb
     RDKit          3D

 22 22  0  0  1  0  0  0  0  0999 V2000
    6.6307  -14.1446   18.3377 C   0  0  0  0  0  0  0  0  0  0  0  0
    7.8895  -13.9631   19.1557 C   0  0  2  0  0  0  0  0  0  0  0  0
    9.0594  -14.3435   18.2706 C   0  0  0  0  0  0  0  0  0  0  0  0
    7.9260  -14.8798   20.3531 C   0  0  2  0  0  0  0  0  0  0  0  0
    6.6140  -14.8424   20.9647 N   0  0  0  0  0  0  0  0  0  0  0  0
    8.9305  -14.5181   21.3473 C   0  0  0  0  0  0  0  0  0  0  0  0
    9.4304  -13.3659   21.3480 O   0  0  0  0  0  0  0  0  0  0  0  0
    9.4124  -15.4067   22.3642 N   0  0  0  0  0  0  0  0  0  0  0  0
   10.6485  -15.2454   23.0496 C   0  0  0  0  0  0  0  0  0  0  0  0
   10.8368  -16.2078   24.1633 C   0  0  0  0  0  0  0  0  0  0  0  0
   11.4305  -17.2845   23.9050 O   0  0  0  0  0  0  0  0  0  0  0  0
   10.3881  -15.9798   25.4858 N   0  0  0  0  0  0  0  0  0  0  0  0
    9.3600  -16.7892   26.1315 C   0  0  1  0  0  0  0  0  0  0  0  0
    8.0233  -16.6217   25.5340 C   0  0  0  0  0  0  0  0  0  0  0  0
    7.5210  -15.2467   25.6648 C   0  0  0  0  0  0  0  0  0  0  0  0
    8.1471  -14.1974   26.3342 C   0  0  0  0  0  0  0  0  0  0  0  0
    7.3886  -13.0898   26.2394 N   0  0  0  0  0  0  0  0  0  0  0  0
    6.2978  -13.4078   25.5279 C   0  0  0  0  0  0  0  0  0  0  0  0
    6.3871  -14.7190   25.1835 N   0  0  0  0  0  0  0  0  0  0  0  0
    9.7595  -18.2094   26.1927 C   0  0  0  0  0  0  0  0  0  0  0  0
   10.7541  -18.6014   25.5531 O   0  0  0  0  0  0  0  0  0  0  0  0
    9.0584  -19.1386   26.9474 O   0  0  0  0  0  0  0  0  0  0  0  0
  2  1  1  6
  2  3  1  0
  4  6  1  0
  4  2  1  0
  4  5  1  1
  6  8  1  0
  7  6  2  0
  8  9  1  0
  9 10  1  0
 10 12  1  0
 10 11  2  0
 12 13  1  0
 13 14  1  6
 14 15  1  0
 15 19  1  0
 16 17  1  0
 16 15  2  0
 17 18  1  0
 18 19  2  0
 20 13  1  0
 20 22  1  0
 21 20  2  0
M  END
$$$$
