SYG.pdb
     RDKit          3D

 23 23  0  0  1  0  0  0  0  0999 V2000
   26.5377  -25.2679  -16.7661 O   0  0  0  0  0  0  0  0  0  0  0  0
   25.1728  -25.1169  -16.6741 C   0  0  0  0  0  0  0  0  0  0  0  0
   24.8291  -24.6417  -15.2864 C   0  0  2  0  0  0  0  0  0  0  0  0
   23.5387  -25.2026  -14.8783 N   0  0  0  0  0  0  0  0  0  0  0  0
   24.7310  -23.1865  -15.1522 C   0  0  0  0  0  0  0  0  0  0  0  0
   23.6227  -22.5666  -15.3225 O   0  0  0  0  0  0  0  0  0  0  0  0
   23.3498  -20.9286   -8.6869 O   0  0  0  0  0  0  0  0  0  0  0  0
   24.0708  -20.8129   -9.8786 C   0  0  0  0  0  0  0  0  0  0  0  0
   25.4257  -21.0274   -9.8788 C   0  0  0  0  0  0  0  0  0  0  0  0
   26.1301  -20.9102  -11.0651 C   0  0  0  0  0  0  0  0  0  0  0  0
   25.5205  -20.5836  -12.2567 C   0  0  0  0  0  0  0  0  0  0  0  0
   26.3461  -20.4758  -13.4593 C   0  0  0  0  0  0  0  0  0  0  0  0
   25.6622  -20.8801  -14.7420 C   0  0  2  0  0  0  0  0  0  0  0  0
   25.8198  -22.3199  -14.8267 N   0  0  0  0  0  0  0  0  0  0  0  0
   26.3550  -20.2756  -15.8999 C   0  0  0  0  0  0  0  0  0  0  0  0
   26.3237  -19.0011  -16.0027 O   0  0  0  0  0  0  0  0  0  0  0  0
   24.1583  -20.3744  -12.2238 C   0  0  0  0  0  0  0  0  0  0  0  0
   23.4387  -20.4856  -11.0567 C   0  0  0  0  0  0  0  0  0  0  0  0
   27.0448  -21.0267  -16.8915 N   0  0  0  0  0  0  0  0  0  0  0  0
   27.6521  -20.3063  -17.9740 C   0  0  0  0  0  0  0  0  0  0  0  0
   26.8970  -20.3823  -19.2289 C   0  0  0  0  0  0  0  0  0  0  0  0
   27.4849  -19.8723  -20.3777 O   0  0  0  0  0  0  0  0  0  0  0  0
   25.7653  -20.8808  -19.2961 O   0  0  0  0  0  0  0  0  0  0  0  0
  2  1  1  0
  3  2  1  0
  3  4  1  6
  5  3  1  0
  5  6  2  0
  7  8  1  0
  8 18  2  0
  9 10  2  0
  9  8  1  0
 10 11  1  0
 11 12  1  0
 11 17  2  0
 13 12  1  1
 13 14  1  0
 14  5  1  0
 15 13  1  0
 16 15  2  0
 18 17  1  0
 19 15  1  0
 20 19  1  0
 21 20  1  0
 22 21  1  0
 23 21  2  0
M  END
$$$$
