SYG.pdb
     RDKit          3D

 23 23  0  0  1  0  0  0  0  0999 V2000
   25.1558  -21.7974  -18.8935 O   0  0  0  0  0  0  0  0  0  0  0  0
   25.7114  -20.9688  -17.9454 C   0  0  0  0  0  0  0  0  0  0  0  0
   26.6809  -21.7656  -17.1120 C   0  0  2  0  0  0  0  0  0  0  0  0
   26.8339  -23.1071  -17.6806 N   0  0  0  0  0  0  0  0  0  0  0  0
   26.2821  -21.9311  -15.7125 C   0  0  0  0  0  0  0  0  0  0  0  0
   25.6943  -22.9921  -15.2995 O   0  0  0  0  0  0  0  0  0  0  0  0
   25.5680  -20.3454   -6.9545 O   0  0  0  0  0  0  0  0  0  0  0  0
   25.8704  -20.3114   -8.3186 C   0  0  0  0  0  0  0  0  0  0  0  0
   26.7779  -21.1995   -8.8377 C   0  0  0  0  0  0  0  0  0  0  0  0
   27.0700  -21.1569  -10.1905 C   0  0  0  0  0  0  0  0  0  0  0  0
   26.4814  -20.2505  -11.0449 C   0  0  0  0  0  0  0  0  0  0  0  0
   26.8561  -20.2750  -12.4586 C   0  0  0  0  0  0  0  0  0  0  0  0
   25.9924  -21.1500  -13.3333 C   0  0  2  0  0  0  0  0  0  0  0  0
   26.4947  -20.9644  -14.6816 N   0  0  0  0  0  0  0  0  0  0  0  0
   24.5915  -20.6784  -13.2985 C   0  0  0  0  0  0  0  0  0  0  0  0
   24.2975  -19.6587  -14.0125 O   0  0  0  0  0  0  0  0  0  0  0  0
   25.5739  -19.3715  -10.4932 C   0  0  0  0  0  0  0  0  0  0  0  0
   25.2686  -19.3961   -9.1521 C   0  0  0  0  0  0  0  0  0  0  0  0
   23.5680  -21.2908  -12.5235 N   0  0  0  0  0  0  0  0  0  0  0  0
   22.2725  -20.6731  -12.5189 C   0  0  0  0  0  0  0  0  0  0  0  0
   21.3500  -21.2323  -13.5121 C   0  0  0  0  0  0  0  0  0  0  0  0
   20.0345  -20.7908  -13.5045 O   0  0  0  0  0  0  0  0  0  0  0  0
   21.7022  -22.0759  -14.3478 O   0  0  0  0  0  0  0  0  0  0  0  0
  2  1  1  0
  3  2  1  0
  3  4  1  6
  5  3  1  0
  5  6  2  0
  7  8  1  0
  8 18  2  0
  9 10  2  0
  9  8  1  0
 10 11  1  0
 11 12  1  0
 11 17  2  0
 13 12  1  1
 13 14  1  0
 14  5  1  0
 15 13  1  0
 16 15  2  0
 18 17  1  0
 19 15  1  0
 20 19  1  0
 21 20  1  0
 22 21  1  0
 23 21  2  0
M  END
$$$$
