SYG.pdb
     RDKit          3D

 23 23  0  0  1  0  0  0  0  0999 V2000
   22.2471   -9.9654    8.0829 O   0  0  0  0  0  0  0  0  0  0  0  0
   21.2849  -10.9342    8.2558 C   0  0  0  0  0  0  0  0  0  0  0  0
   19.9790  -10.4260    7.7029 C   0  0  2  0  0  0  0  0  0  0  0  0
   19.2522   -9.6969    8.7453 N   0  0  0  0  0  0  0  0  0  0  0  0
   19.0851  -11.4731    7.2031 C   0  0  0  0  0  0  0  0  0  0  0  0
   18.1585  -11.9739    7.9327 O   0  0  0  0  0  0  0  0  0  0  0  0
   16.0731  -17.7449    1.5466 O   0  0  0  0  0  0  0  0  0  0  0  0
   16.6315  -16.6161    2.1529 C   0  0  0  0  0  0  0  0  0  0  0  0
   17.9940  -16.4592    2.1766 C   0  0  0  0  0  0  0  0  0  0  0  0
   18.5365  -15.3372    2.7798 C   0  0  0  0  0  0  0  0  0  0  0  0
   17.7568  -14.3625    3.3632 C   0  0  0  0  0  0  0  0  0  0  0  0
   18.4179  -13.2144    3.9830 C   0  0  0  0  0  0  0  0  0  0  0  0
   18.2717  -13.1257    5.4821 C   0  0  2  0  0  0  0  0  0  0  0  0
   19.1395  -12.0374    5.8912 N   0  0  0  0  0  0  0  0  0  0  0  0
   18.7658  -14.3671    6.1153 C   0  0  0  0  0  0  0  0  0  0  0  0
   20.0294  -14.4803    6.2780 O   0  0  0  0  0  0  0  0  0  0  0  0
   16.3914  -14.5490    3.3230 C   0  0  0  0  0  0  0  0  0  0  0  0
   15.8310  -15.6559    2.7289 C   0  0  0  0  0  0  0  0  0  0  0  0
   17.9213  -15.4271    6.5470 N   0  0  0  0  0  0  0  0  0  0  0  0
   18.5397  -16.5660    7.1636 C   0  0  0  0  0  0  0  0  0  0  0  0
   17.5830  -17.5737    7.6324 C   0  0  0  0  0  0  0  0  0  0  0  0
   18.0823  -18.7157    8.2423 O   0  0  0  0  0  0  0  0  0  0  0  0
   16.3584  -17.4404    7.5034 O   0  0  0  0  0  0  0  0  0  0  0  0
  2  1  1  0
  3  2  1  0
  3  4  1  1
  5  3  1  0
  5  6  2  0
  7  8  1  0
  8 18  2  0
  9 10  2  0
  9  8  1  0
 10 11  1  0
 11 12  1  0
 11 17  2  0
 13 12  1  6
 13 14  1  0
 14  5  1  0
 15 13  1  0
 16 15  2  0
 18 17  1  0
 19 15  1  0
 20 19  1  0
 21 20  1  0
 22 21  1  0
 23 21  2  0
M  END
$$$$
