SYG.pdb
     RDKit          3D

 23 23  0  0  1  0  0  0  0  0999 V2000
   16.9358   -9.2071  -17.3584 O   0  0  0  0  0  0  0  0  0  0  0  0
   18.2296   -9.0813  -17.8105 C   0  0  0  0  0  0  0  0  0  0  0  0
   18.9781   -8.1537  -16.8892 C   0  0  2  0  0  0  0  0  0  0  0  0
   18.6056   -6.7662  -17.1766 N   0  0  0  0  0  0  0  0  0  0  0  0
   20.4362   -8.2418  -16.9957 C   0  0  0  0  0  0  0  0  0  0  0  0
   21.0832   -7.6317  -17.9182 O   0  0  0  0  0  0  0  0  0  0  0  0
   22.7490   -2.9936  -14.3253 O   0  0  0  0  0  0  0  0  0  0  0  0
   22.8794   -4.3755  -14.4887 C   0  0  0  0  0  0  0  0  0  0  0  0
   23.7835   -4.8725  -15.3928 C   0  0  0  0  0  0  0  0  0  0  0  0
   23.9044   -6.2431  -15.5466 C   0  0  0  0  0  0  0  0  0  0  0  0
   23.1467   -7.1372  -14.8223 C   0  0  0  0  0  0  0  0  0  0  0  0
   23.3381   -8.5683  -15.0563 C   0  0  0  0  0  0  0  0  0  0  0  0
   22.7090   -9.0986  -16.3210 C   0  0  2  0  0  0  0  0  0  0  0  0
   21.2769   -8.9903  -16.1152 N   0  0  0  0  0  0  0  0  0  0  0  0
   23.0392  -10.5296  -16.4917 C   0  0  0  0  0  0  0  0  0  0  0  0
   22.4111  -11.3685  -15.7585 O   0  0  0  0  0  0  0  0  0  0  0  0
   22.2474   -6.6070  -13.9220 C   0  0  0  0  0  0  0  0  0  0  0  0
   22.1108   -5.2487  -13.7528 C   0  0  0  0  0  0  0  0  0  0  0  0
   24.0053  -11.0154  -17.4158 N   0  0  0  0  0  0  0  0  0  0  0  0
   24.1947  -12.4355  -17.5007 C   0  0  0  0  0  0  0  0  0  0  0  0
   23.2833  -13.0960  -18.4408 C   0  0  0  0  0  0  0  0  0  0  0  0
   22.0006  -13.3971  -18.0058 O   0  0  0  0  0  0  0  0  0  0  0  0
   23.6171  -13.3902  -19.5966 O   0  0  0  0  0  0  0  0  0  0  0  0
  2  1  1  0
  3  2  1  0
  3  4  1  6
  5  3  1  0
  5  6  2  0
  7  8  1  0
  8 18  2  0
  9 10  2  0
  9  8  1  0
 10 11  1  0
 11 12  1  0
 11 17  2  0
 13 12  1  1
 13 14  1  0
 14  5  1  0
 15 13  1  0
 16 15  2  0
 18 17  1  0
 19 15  1  0
 20 19  1  0
 21 20  1  0
 22 21  1  0
 23 21  2  0
M  END
$$$$
