SYG.pdb
     RDKit          3D

 23 23  0  0  1  0  0  0  0  0999 V2000
   27.1557  -20.9757  -19.1821 O   0  0  0  0  0  0  0  0  0  0  0  0
   28.2423  -20.2824  -18.6996 C   0  0  0  0  0  0  0  0  0  0  0  0
   28.9272  -21.1206  -17.6518 C   0  0  2  0  0  0  0  0  0  0  0  0
   29.3875  -22.3771  -18.2484 N   0  0  0  0  0  0  0  0  0  0  0  0
   28.0817  -21.4685  -16.5076 C   0  0  0  0  0  0  0  0  0  0  0  0
   27.7053  -22.6736  -16.2886 O   0  0  0  0  0  0  0  0  0  0  0  0
   24.2613  -20.7533   -8.4943 O   0  0  0  0  0  0  0  0  0  0  0  0
   25.0100  -20.5951   -9.6639 C   0  0  0  0  0  0  0  0  0  0  0  0
   24.5446  -19.7821  -10.6660 C   0  0  0  0  0  0  0  0  0  0  0  0
   25.2943  -19.6326  -11.8204 C   0  0  0  0  0  0  0  0  0  0  0  0
   26.5000  -20.2730  -12.0061 C   0  0  0  0  0  0  0  0  0  0  0  0
   27.2200  -20.0604  -13.2613 C   0  0  0  0  0  0  0  0  0  0  0  0
   26.7976  -20.9562  -14.3996 C   0  0  2  0  0  0  0  0  0  0  0  0
   27.5962  -20.5389  -15.5367 N   0  0  0  0  0  0  0  0  0  0  0  0
   25.3754  -20.7224  -14.7296 C   0  0  0  0  0  0  0  0  0  0  0  0
   25.0862  -19.6397  -15.3461 O   0  0  0  0  0  0  0  0  0  0  0  0
   26.9406  -21.0827  -10.9810 C   0  0  0  0  0  0  0  0  0  0  0  0
   26.2122  -21.2457   -9.8255 C   0  0  0  0  0  0  0  0  0  0  0  0
   24.3268  -21.6259  -14.4019 N   0  0  0  0  0  0  0  0  0  0  0  0
   22.9858  -21.2469  -14.7454 C   0  0  0  0  0  0  0  0  0  0  0  0
   22.1875  -20.8023  -13.5985 C   0  0  0  0  0  0  0  0  0  0  0  0
   21.4861  -19.6105  -13.7125 O   0  0  0  0  0  0  0  0  0  0  0  0
   22.1194  -21.4481  -12.5439 O   0  0  0  0  0  0  0  0  0  0  0  0
  2  1  1  0
  3  2  1  0
  3  4  1  6
  5  3  1  0
  5  6  2  0
  7  8  1  0
  8 18  2  0
  9 10  2  0
  9  8  1  0
 10 11  1  0
 11 12  1  0
 11 17  2  0
 13 12  1  1
 13 14  1  0
 14  5  1  0
 15 13  1  0
 16 15  2  0
 18 17  1  0
 19 15  1  0
 20 19  1  0
 21 20  1  0
 22 21  1  0
 23 21  2  0
M  END
$$$$
