SYG.pdb
     RDKit          3D

 23 23  0  0  1  0  0  0  0  0999 V2000
   25.8602  -20.9093  -20.1072 O   0  0  0  0  0  0  0  0  0  0  0  0
   25.2670  -21.3659  -18.9522 C   0  0  0  0  0  0  0  0  0  0  0  0
   26.3367  -21.8968  -18.0339 C   0  0  2  0  0  0  0  0  0  0  0  0
   26.8489  -23.1667  -18.5551 N   0  0  0  0  0  0  0  0  0  0  0  0
   25.8890  -22.1411  -16.6609 C   0  0  0  0  0  0  0  0  0  0  0  0
   25.7158  -23.3274  -16.2089 O   0  0  0  0  0  0  0  0  0  0  0  0
   24.3630  -21.0638   -8.0059 O   0  0  0  0  0  0  0  0  0  0  0  0
   24.7460  -20.9371   -9.3441 C   0  0  0  0  0  0  0  0  0  0  0  0
   23.9352  -20.2668  -10.2243 C   0  0  0  0  0  0  0  0  0  0  0  0
   24.3244  -20.1472  -11.5477 C   0  0  0  0  0  0  0  0  0  0  0  0
   25.5037  -20.6790  -12.0216 C   0  0  0  0  0  0  0  0  0  0  0  0
   25.8299  -20.5089  -13.4372 C   0  0  0  0  0  0  0  0  0  0  0  0
   25.0918  -21.4292  -14.3779 C   0  0  2  0  0  0  0  0  0  0  0  0
   25.6042  -21.1223  -15.7000 N   0  0  0  0  0  0  0  0  0  0  0  0
   23.6466  -21.1176  -14.3640 C   0  0  0  0  0  0  0  0  0  0  0  0
   23.2796  -20.0112  -14.8905 O   0  0  0  0  0  0  0  0  0  0  0  0
   26.2967  -21.3465  -11.1126 C   0  0  0  0  0  0  0  0  0  0  0  0
   25.9297  -21.4772   -9.7933 C   0  0  0  0  0  0  0  0  0  0  0  0
   22.6568  -21.9719  -13.8038 N   0  0  0  0  0  0  0  0  0  0  0  0
   21.3262  -21.4524  -13.6646 C   0  0  0  0  0  0  0  0  0  0  0  0
   20.5036  -21.6101  -14.8684 C   0  0  0  0  0  0  0  0  0  0  0  0
   19.1853  -21.1797  -14.8206 O   0  0  0  0  0  0  0  0  0  0  0  0
   20.9417  -22.1090  -15.9139 O   0  0  0  0  0  0  0  0  0  0  0  0
  2  1  1  0
  3  2  1  0
  3  4  1  6
  5  3  1  0
  5  6  2  0
  7  8  1  0
  8 18  2  0
  9 10  2  0
  9  8  1  0
 10 11  1  0
 11 12  1  0
 11 17  2  0
 13 12  1  1
 13 14  1  0
 14  5  1  0
 15 13  1  0
 16 15  2  0
 18 17  1  0
 19 15  1  0
 20 19  1  0
 21 20  1  0
 22 21  1  0
 23 21  2  0
M  END
$$$$
