SYG.pdb
     RDKit          3D

 23 23  0  0  1  0  0  0  0  0999 V2000
   20.9146  -19.0189  -17.2546 O   0  0  0  0  0  0  0  0  0  0  0  0
   22.2511  -19.2903  -17.0695 C   0  0  0  0  0  0  0  0  0  0  0  0
   22.6155  -18.9844  -15.6401 C   0  0  2  0  0  0  0  0  0  0  0  0
   22.4214  -17.5565  -15.3761 N   0  0  0  0  0  0  0  0  0  0  0  0
   23.9999  -19.3061  -15.2865 C   0  0  0  0  0  0  0  0  0  0  0  0
   24.8829  -18.3930  -15.1184 O   0  0  0  0  0  0  0  0  0  0  0  0
   23.4539  -20.3286   -8.7006 O   0  0  0  0  0  0  0  0  0  0  0  0
   24.0019  -20.7345   -9.9205 C   0  0  0  0  0  0  0  0  0  0  0  0
   25.3639  -20.8147  -10.0626 C   0  0  0  0  0  0  0  0  0  0  0  0
   25.8961  -21.2178  -11.2755 C   0  0  0  0  0  0  0  0  0  0  0  0
   25.1066  -21.5447  -12.3563 C   0  0  0  0  0  0  0  0  0  0  0  0
   25.7572  -21.9542  -13.6007 C   0  0  0  0  0  0  0  0  0  0  0  0
   25.8676  -20.8746  -14.6490 C   0  0  2  0  0  0  0  0  0  0  0  0
   24.5090  -20.6276  -15.0939 N   0  0  0  0  0  0  0  0  0  0  0  0
   26.6450  -21.3674  -15.8061 C   0  0  0  0  0  0  0  0  0  0  0  0
   26.0609  -22.1801  -16.6025 O   0  0  0  0  0  0  0  0  0  0  0  0
   23.7421  -21.4542  -12.1820 C   0  0  0  0  0  0  0  0  0  0  0  0
   23.1918  -21.0561  -10.9858 C   0  0  0  0  0  0  0  0  0  0  0  0
   27.9897  -20.9902  -16.0762 N   0  0  0  0  0  0  0  0  0  0  0  0
   28.5683  -21.4199  -17.3173 C   0  0  0  0  0  0  0  0  0  0  0  0
   29.2116  -22.7356  -17.2428 C   0  0  0  0  0  0  0  0  0  0  0  0
   30.3575  -22.9468  -17.9963 O   0  0  0  0  0  0  0  0  0  0  0  0
   28.7709  -23.6535  -16.5378 O   0  0  0  0  0  0  0  0  0  0  0  0
  2  1  1  0
  3  2  1  0
  3  4  1  6
  5  3  1  0
  5  6  2  0
  7  8  1  0
  8 18  2  0
  9 10  2  0
  9  8  1  0
 10 11  1  0
 11 12  1  0
 11 17  2  0
 13 12  1  1
 13 14  1  0
 14  5  1  0
 15 13  1  0
 16 15  2  0
 18 17  1  0
 19 15  1  0
 20 19  1  0
 21 20  1  0
 22 21  1  0
 23 21  2  0
M  END
$$$$
