SYG.pdb
     RDKit          3D

 23 23  0  0  1  0  0  0  0  0999 V2000
   24.3221  -18.0551  -19.8890 O   0  0  0  0  0  0  0  0  0  0  0  0
   23.8913  -18.1348  -18.5843 C   0  0  0  0  0  0  0  0  0  0  0  0
   24.6758  -17.1534  -17.7530 C   0  0  2  0  0  0  0  0  0  0  0  0
   25.3993  -16.2304  -18.6312 N   0  0  0  0  0  0  0  0  0  0  0  0
   25.6630  -17.7679  -16.8626 C   0  0  0  0  0  0  0  0  0  0  0  0
   26.5794  -17.0773  -16.2924 O   0  0  0  0  0  0  0  0  0  0  0  0
   25.7769  -20.7442   -8.8982 O   0  0  0  0  0  0  0  0  0  0  0  0
   25.6280  -20.3142  -10.2197 C   0  0  0  0  0  0  0  0  0  0  0  0
   24.7796  -20.9853  -11.0632 C   0  0  0  0  0  0  0  0  0  0  0  0
   24.6398  -20.5507  -12.3703 C   0  0  0  0  0  0  0  0  0  0  0  0
   25.3244  -19.4617  -12.8637 C   0  0  0  0  0  0  0  0  0  0  0  0
   25.1186  -19.0789  -14.2603 C   0  0  0  0  0  0  0  0  0  0  0  0
   26.1349  -19.6298  -15.2300 C   0  0  2  0  0  0  0  0  0  0  0  0
   25.7172  -19.1584  -16.5370 N   0  0  0  0  0  0  0  0  0  0  0  0
   26.0807  -21.1073  -15.2383 C   0  0  0  0  0  0  0  0  0  0  0  0
   24.9892  -21.6526  -15.6222 O   0  0  0  0  0  0  0  0  0  0  0  0
   26.1691  -18.8085  -11.9917 C   0  0  0  0  0  0  0  0  0  0  0  0
   26.3232  -19.2228  -10.6891 C   0  0  0  0  0  0  0  0  0  0  0  0
   27.1637  -21.9425  -14.8473 N   0  0  0  0  0  0  0  0  0  0  0  0
   28.4474  -21.6939  -15.4390 C   0  0  0  0  0  0  0  0  0  0  0  0
   28.6688  -22.4216  -16.6928 C   0  0  0  0  0  0  0  0  0  0  0  0
   29.7366  -23.3054  -16.7561 O   0  0  0  0  0  0  0  0  0  0  0  0
   27.9424  -22.2750  -17.6852 O   0  0  0  0  0  0  0  0  0  0  0  0
  2  1  1  0
  3  2  1  0
  3  4  1  6
  5  3  1  0
  5  6  2  0
  7  8  1  0
  8 18  2  0
  9 10  2  0
  9  8  1  0
 10 11  1  0
 11 12  1  0
 11 17  2  0
 13 12  1  1
 13 14  1  0
 14  5  1  0
 15 13  1  0
 16 15  2  0
 18 17  1  0
 19 15  1  0
 20 19  1  0
 21 20  1  0
 22 21  1  0
 23 21  2  0
M  END
$$$$
