SYG.pdb
     RDKit          3D

 23 23  0  0  1  0  0  0  0  0999 V2000
   27.2348  -17.9208  -17.2410 O   0  0  0  0  0  0  0  0  0  0  0  0
   28.5116  -18.4172  -17.3738 C   0  0  0  0  0  0  0  0  0  0  0  0
   28.4515  -19.9224  -17.3586 C   0  0  2  0  0  0  0  0  0  0  0  0
   27.7695  -20.4012  -18.5636 N   0  0  0  0  0  0  0  0  0  0  0  0
   27.7450  -20.4882  -16.2071 C   0  0  0  0  0  0  0  0  0  0  0  0
   27.6831  -21.7524  -16.0082 O   0  0  0  0  0  0  0  0  0  0  0  0
   24.9554  -20.7354   -7.7709 O   0  0  0  0  0  0  0  0  0  0  0  0
   25.5203  -20.5121   -9.0297 C   0  0  0  0  0  0  0  0  0  0  0  0
   25.5609  -19.2404   -9.5424 C   0  0  0  0  0  0  0  0  0  0  0  0
   26.1228  -19.0306  -10.7903 C   0  0  0  0  0  0  0  0  0  0  0  0
   26.6478  -20.0562  -11.5458 C   0  0  0  0  0  0  0  0  0  0  0  0
   27.2155  -19.7412  -12.8565 C   0  0  0  0  0  0  0  0  0  0  0  0
   26.4811  -20.3391  -14.0311 C   0  0  2  0  0  0  0  0  0  0  0  0
   27.0676  -19.7243  -15.2071 N   0  0  0  0  0  0  0  0  0  0  0  0
   25.0523  -19.9619  -13.9827 C   0  0  0  0  0  0  0  0  0  0  0  0
   24.3765  -20.3508  -12.9688 O   0  0  0  0  0  0  0  0  0  0  0  0
   26.5921  -21.3223  -11.0032 C   0  0  0  0  0  0  0  0  0  0  0  0
   26.0386  -21.5537   -9.7653 C   0  0  0  0  0  0  0  0  0  0  0  0
   24.3990  -19.1998  -14.9906 N   0  0  0  0  0  0  0  0  0  0  0  0
   23.0324  -18.8241  -14.7646 C   0  0  0  0  0  0  0  0  0  0  0  0
   22.0671  -19.8650  -15.1322 C   0  0  0  0  0  0  0  0  0  0  0  0
   20.7178  -19.5417  -15.1130 O   0  0  0  0  0  0  0  0  0  0  0  0
   22.4125  -21.0096  -15.4553 O   0  0  0  0  0  0  0  0  0  0  0  0
  2  1  1  0
  3  2  1  0
  3  4  1  6
  5  3  1  0
  5  6  2  0
  7  8  1  0
  8 18  2  0
  9 10  2  0
  9  8  1  0
 10 11  1  0
 11 12  1  0
 11 17  2  0
 13 12  1  1
 13 14  1  0
 14  5  1  0
 15 13  1  0
 16 15  2  0
 18 17  1  0
 19 15  1  0
 20 19  1  0
 21 20  1  0
 22 21  1  0
 23 21  2  0
M  END
$$$$
