SYG.pdb
     RDKit          3D

 23 23  0  0  1  0  0  0  0  0999 V2000
   14.5516   -4.7498  -10.8440 O   0  0  0  0  0  0  0  0  0  0  0  0
   15.6334   -4.0328  -11.3022 C   0  0  0  0  0  0  0  0  0  0  0  0
   16.8500   -4.9208  -11.2785 C   0  0  2  0  0  0  0  0  0  0  0  0
   17.2028   -5.2377   -9.8923 N   0  0  0  0  0  0  0  0  0  0  0  0
   18.0379   -4.3365  -11.9051 C   0  0  0  0  0  0  0  0  0  0  0  0
   19.0629   -3.9921  -11.2176 O   0  0  0  0  0  0  0  0  0  0  0  0
   21.9954   -9.3842  -13.6966 O   0  0  0  0  0  0  0  0  0  0  0  0
   21.4197   -8.1561  -14.0339 C   0  0  0  0  0  0  0  0  0  0  0  0
   22.1992   -7.0283  -14.0815 C   0  0  0  0  0  0  0  0  0  0  0  0
   21.6185   -5.8170  -14.4168 C   0  0  0  0  0  0  0  0  0  0  0  0
   20.2771   -5.6962  -14.7072 C   0  0  0  0  0  0  0  0  0  0  0  0
   19.7497   -4.3745  -15.0451 C   0  0  0  0  0  0  0  0  0  0  0  0
   19.3929   -3.5078  -13.8627 C   0  0  2  0  0  0  0  0  0  0  0  0
   18.1875   -4.0918  -13.3052 N   0  0  0  0  0  0  0  0  0  0  0  0
   19.0697   -2.1379  -14.3156 C   0  0  0  0  0  0  0  0  0  0  0  0
   20.0239   -1.4414  -14.8059 O   0  0  0  0  0  0  0  0  0  0  0  0
   19.5206   -6.8474  -14.6509 C   0  0  0  0  0  0  0  0  0  0  0  0
   20.0767   -8.0613  -14.3202 C   0  0  0  0  0  0  0  0  0  0  0  0
   17.7714   -1.5623  -14.2359 N   0  0  0  0  0  0  0  0  0  0  0  0
   17.5978   -0.2311  -14.7435 C   0  0  0  0  0  0  0  0  0  0  0  0
   17.5706    0.7983  -13.6994 C   0  0  0  0  0  0  0  0  0  0  0  0
   17.3065    2.1069  -14.0780 O   0  0  0  0  0  0  0  0  0  0  0  0
   17.7733    0.5411  -12.5050 O   0  0  0  0  0  0  0  0  0  0  0  0
  2  1  1  0
  3  2  1  0
  3  4  1  1
  5  3  1  0
  5  6  2  0
  7  8  1  0
  8 18  2  0
  9 10  2  0
  9  8  1  0
 10 11  1  0
 11 12  1  0
 11 17  2  0
 13 12  1  6
 13 14  1  0
 14  5  1  0
 15 13  1  0
 16 15  2  0
 18 17  1  0
 19 15  1  0
 20 19  1  0
 21 20  1  0
 22 21  1  0
 23 21  2  0
M  END
$$$$
