CKV.pdb
     RDKit          3D

 23 22  0  0  1  0  0  0  0  0999 V2000
   28.5993  -21.2453  -16.2946 N   0  0  0  0  0  0  0  0  0  0  0  0
   27.5607  -20.5914  -15.5577 C   0  0  1  0  0  0  0  0  0  0  0  0
   27.4334  -19.1214  -15.9629 C   0  0  0  0  0  0  0  0  0  0  0  0
   28.8360  -18.1528  -15.3917 S   0  0  0  0  0  0  0  0  0  0  0  0
   26.2659  -21.2844  -15.7833 C   0  0  0  0  0  0  0  0  0  0  0  0
   25.8322  -21.3620  -16.9793 O   0  0  0  0  0  0  0  0  0  0  0  0
   25.4997  -21.8577  -14.7334 N   0  0  0  0  0  0  0  0  0  0  0  0
   24.2278  -22.4788  -15.0059 C   0  0  1  0  0  0  0  0  0  0  0  0
   24.1016  -23.8371  -14.3554 C   0  0  0  0  0  0  0  0  0  0  0  0
   22.7577  -24.4743  -14.6168 C   0  0  0  0  0  0  0  0  0  0  0  0
   22.7194  -25.7745  -13.8414 C   0  0  0  0  0  0  0  0  0  0  0  0
   21.4879  -26.5869  -14.1804 C   0  0  0  0  0  0  0  0  0  0  0  0
   21.4926  -27.8120  -13.4081 N   0  0  0  0  0  0  0  0  0  0  0  0
   23.0982  -21.5881  -14.6469 C   0  0  0  0  0  0  0  0  0  0  0  0
   23.1744  -20.9664  -13.5592 O   0  0  0  0  0  0  0  0  0  0  0  0
   19.2336  -18.8341  -15.8405 C   0  0  0  0  0  0  0  0  0  0  0  0
   20.5106  -19.5606  -16.1785 C   0  0  1  0  0  0  0  0  0  0  0  0
   21.5838  -18.5425  -16.3961 C   0  0  0  0  0  0  0  0  0  0  0  0
   20.8398  -20.5434  -15.0818 C   0  0  2  0  0  0  0  0  0  0  0  0
   21.9581  -21.3981  -15.4407 N   0  0  0  0  0  0  0  0  0  0  0  0
   19.6328  -21.3347  -14.7589 C   0  0  0  0  0  0  0  0  0  0  0  0
   19.3066  -22.2754  -15.5161 O   0  0  0  0  0  0  0  0  0  0  0  0
   18.8461  -21.0822  -13.6558 O   0  0  0  0  0  0  0  0  0  0  0  0
  2  1  1  6
  2  5  1  0
  3  2  1  0
  4  3  1  0
  5  6  2  0
  5  7  1  0
  7  8  1  0
  8  9  1  1
  9 10  1  0
 10 11  1  0
 11 12  1  0
 13 12  1  0
 14 15  2  0
 14  8  1  0
 17 16  1  1
 17 18  1  0
 19 17  1  0
 19 20  1  6
 20 14  1  0
 21 19  1  0
 22 21  2  0
 23 21  1  0
M  END
$$$$
