CKV.pdb
     RDKit          3D

 23 22  0  0  1  0  0  0  0  0999 V2000
   29.5953  -22.0941  -17.3463 N   0  0  0  0  0  0  0  0  0  0  0  0
   28.1983  -22.2451  -17.6197 C   0  0  1  0  0  0  0  0  0  0  0  0
   27.7420  -23.6887  -17.3978 C   0  0  0  0  0  0  0  0  0  0  0  0
   27.9929  -24.2088  -15.6954 S   0  0  0  0  0  0  0  0  0  0  0  0
   27.4102  -21.3342  -16.7498 C   0  0  0  0  0  0  0  0  0  0  0  0
   27.9672  -20.8901  -15.6929 O   0  0  0  0  0  0  0  0  0  0  0  0
   26.0769  -20.9419  -17.0436 N   0  0  0  0  0  0  0  0  0  0  0  0
   25.3704  -20.0316  -16.1775 C   0  0  1  0  0  0  0  0  0  0  0  0
   24.2599  -19.3009  -16.8966 C   0  0  0  0  0  0  0  0  0  0  0  0
   23.5660  -18.2967  -16.0074 C   0  0  0  0  0  0  0  0  0  0  0  0
   22.4066  -17.7251  -16.7962 C   0  0  0  0  0  0  0  0  0  0  0  0
   21.7432  -16.5820  -16.0583 C   0  0  0  0  0  0  0  0  0  0  0  0
   22.1867  -15.3239  -16.6223 N   0  0  0  0  0  0  0  0  0  0  0  0
   24.8816  -20.7118  -14.9541 C   0  0  0  0  0  0  0  0  0  0  0  0
   24.2781  -21.8026  -15.1003 O   0  0  0  0  0  0  0  0  0  0  0  0
   24.9702  -21.2308  -10.0266 C   0  0  0  0  0  0  0  0  0  0  0  0
   25.4821  -20.5302  -11.2594 C   0  0  1  0  0  0  0  0  0  0  0  0
   26.9259  -20.8796  -11.4299 C   0  0  0  0  0  0  0  0  0  0  0  0
   24.6354  -20.9135  -12.4482 C   0  0  2  0  0  0  0  0  0  0  0  0
   25.0499  -20.2163  -13.6533 N   0  0  0  0  0  0  0  0  0  0  0  0
   23.2127  -20.6585  -12.1349 C   0  0  0  0  0  0  0  0  0  0  0  0
   22.6398  -21.3852  -11.2932 O   0  0  0  0  0  0  0  0  0  0  0  0
   22.4845  -19.6514  -12.7308 O   0  0  0  0  0  0  0  0  0  0  0  0
  2  1  1  1
  2  5  1  0
  3  2  1  0
  4  3  1  0
  5  6  2  0
  5  7  1  0
  7  8  1  0
  8  9  1  6
  9 10  1  0
 10 11  1  0
 11 12  1  0
 13 12  1  0
 14 15  2  0
 14  8  1  0
 17 16  1  1
 17 18  1  0
 19 17  1  0
 19 20  1  6
 20 14  1  0
 21 19  1  0
 22 21  2  0
 23 21  1  0
M  END
$$$$
