CKV.pdb
     RDKit          3D

 23 22  0  0  1  0  0  0  0  0999 V2000
   19.3793  -14.5604  -19.1477 N   0  0  0  0  0  0  0  0  0  0  0  0
   20.2935  -13.6059  -18.5978 C   0  0  1  0  0  0  0  0  0  0  0  0
   21.3269  -13.1647  -19.6365 C   0  0  0  0  0  0  0  0  0  0  0  0
   22.4029  -14.5217  -20.1184 S   0  0  0  0  0  0  0  0  0  0  0  0
   19.5495  -12.4199  -18.1001 C   0  0  0  0  0  0  0  0  0  0  0  0
   18.7064  -11.8735  -18.8844 O   0  0  0  0  0  0  0  0  0  0  0  0
   19.7365  -11.8758  -16.8013 N   0  0  0  0  0  0  0  0  0  0  0  0
   19.0094  -10.7035  -16.3835 C   0  0  1  0  0  0  0  0  0  0  0  0
   18.2853  -10.9141  -15.0738 C   0  0  0  0  0  0  0  0  0  0  0  0
   16.8918  -11.4614  -15.2717 C   0  0  0  0  0  0  0  0  0  0  0  0
   16.9329  -12.9325  -14.9146 C   0  0  0  0  0  0  0  0  0  0  0  0
   15.5626  -13.5673  -15.0184 C   0  0  0  0  0  0  0  0  0  0  0  0
   15.6414  -14.9519  -14.6010 N   0  0  0  0  0  0  0  0  0  0  0  0
   19.8822   -9.5056  -16.3450 C   0  0  0  0  0  0  0  0  0  0  0  0
   21.0899   -9.6787  -16.0503 O   0  0  0  0  0  0  0  0  0  0  0  0
   21.1175   -4.9949  -17.6715 C   0  0  0  0  0  0  0  0  0  0  0  0
   20.2984   -6.2501  -17.8338 C   0  0  1  0  0  0  0  0  0  0  0  0
   20.8634   -7.0324  -18.9759 C   0  0  0  0  0  0  0  0  0  0  0  0
   20.2882   -7.0198  -16.5359 C   0  0  2  0  0  0  0  0  0  0  0  0
   19.4462   -8.2007  -16.6152 N   0  0  0  0  0  0  0  0  0  0  0  0
   19.8629   -6.1215  -15.4406 C   0  0  0  0  0  0  0  0  0  0  0  0
   18.6433   -6.0200  -15.1818 O   0  0  0  0  0  0  0  0  0  0  0  0
   20.7531   -5.3868  -14.6876 O   0  0  0  0  0  0  0  0  0  0  0  0
  2  1  1  6
  2  5  1  0
  3  2  1  0
  4  3  1  0
  5  6  2  0
  5  7  1  0
  7  8  1  0
  8  9  1  1
  9 10  1  0
 10 11  1  0
 11 12  1  0
 13 12  1  0
 14 15  2  0
 14  8  1  0
 17 16  1  1
 17 18  1  0
 19 17  1  0
 19 20  1  6
 20 14  1  0
 21 19  1  0
 22 21  2  0
 23 21  1  0
M  END
$$$$
