CKV.pdb
     RDKit          3D

 23 22  0  0  1  0  0  0  0  0999 V2000
   17.9939  -15.4413  -17.1638 N   0  0  0  0  0  0  0  0  0  0  0  0
   17.3682  -14.2482  -16.6798 C   0  0  1  0  0  0  0  0  0  0  0  0
   16.9349  -14.4014  -15.2203 C   0  0  0  0  0  0  0  0  0  0  0  0
   15.6044  -15.5977  -15.0461 S   0  0  0  0  0  0  0  0  0  0  0  0
   18.3025  -13.0996  -16.8044 C   0  0  0  0  0  0  0  0  0  0  0  0
   19.5321  -13.3001  -16.5355 O   0  0  0  0  0  0  0  0  0  0  0  0
   17.8871  -11.8020  -17.2062 N   0  0  0  0  0  0  0  0  0  0  0  0
   18.8547  -10.7588  -17.4371 C   0  0  1  0  0  0  0  0  0  0  0  0
   18.2991   -9.6388  -18.2863 C   0  0  0  0  0  0  0  0  0  0  0  0
   19.3444   -8.6015  -18.6206 C   0  0  0  0  0  0  0  0  0  0  0  0
   18.6564   -7.5114  -19.4153 C   0  0  0  0  0  0  0  0  0  0  0  0
   19.6431   -6.4708  -19.9001 C   0  0  0  0  0  0  0  0  0  0  0  0
   18.9367   -5.4475  -20.6425 N   0  0  0  0  0  0  0  0  0  0  0  0
   19.4274  -10.2553  -16.1656 C   0  0  0  0  0  0  0  0  0  0  0  0
   18.6563  -10.1643  -15.1795 O   0  0  0  0  0  0  0  0  0  0  0  0
   23.2248   -9.6334  -13.1523 C   0  0  0  0  0  0  0  0  0  0  0  0
   22.6778  -10.1038  -14.4760 C   0  0  1  0  0  0  0  0  0  0  0  0
   22.5968  -11.5965  -14.4442 C   0  0  0  0  0  0  0  0  0  0  0  0
   21.3462   -9.4437  -14.7373 C   0  0  2  0  0  0  0  0  0  0  0  0
   20.7669   -9.8769  -15.9969 N   0  0  0  0  0  0  0  0  0  0  0  0
   21.5141   -7.9750  -14.6929 C   0  0  0  0  0  0  0  0  0  0  0  0
   21.7403   -7.4258  -13.5920 O   0  0  0  0  0  0  0  0  0  0  0  0
   21.4324   -7.1787  -15.8148 O   0  0  0  0  0  0  0  0  0  0  0  0
  2  1  1  1
  2  5  1  0
  3  2  1  0
  4  3  1  0
  5  6  2  0
  5  7  1  0
  7  8  1  0
  8  9  1  1
  9 10  1  0
 10 11  1  0
 11 12  1  0
 13 12  1  0
 14 15  2  0
 14  8  1  0
 17 16  1  1
 17 18  1  0
 19 17  1  0
 19 20  1  6
 20 14  1  0
 21 19  1  0
 22 21  2  0
 23 21  1  0
M  END
$$$$
