CKV.pdb
     RDKit          3D

 23 22  0  0  1  0  0  0  0  0999 V2000
   24.8583  -11.8459  -18.6213 N   0  0  0  0  0  0  0  0  0  0  0  0
   24.5329  -11.5509  -17.2588 C   0  0  1  0  0  0  0  0  0  0  0  0
   25.7922  -11.2750  -16.4346 C   0  0  0  0  0  0  0  0  0  0  0  0
   26.7170  -12.7826  -16.1127 S   0  0  0  0  0  0  0  0  0  0  0  0
   23.6290  -10.3733  -17.1972 C   0  0  0  0  0  0  0  0  0  0  0  0
   23.9570   -9.3353  -17.8601 O   0  0  0  0  0  0  0  0  0  0  0  0
   22.4280  -10.3563  -16.4388 N   0  0  0  0  0  0  0  0  0  0  0  0
   21.5218   -9.2384  -16.5218 C   0  0  1  0  0  0  0  0  0  0  0  0
   20.0829   -9.6494  -16.3096 C   0  0  0  0  0  0  0  0  0  0  0  0
   19.1238   -8.5005  -16.5111 C   0  0  0  0  0  0  0  0  0  0  0  0
   17.7239   -9.0472  -16.3255 C   0  0  0  0  0  0  0  0  0  0  0  0
   16.6760   -7.9788  -16.5533 C   0  0  0  0  0  0  0  0  0  0  0  0
   15.3798   -8.4828  -16.1492 N   0  0  0  0  0  0  0  0  0  0  0  0
   21.9230   -8.1423  -15.6075 C   0  0  0  0  0  0  0  0  0  0  0  0
   22.2624   -8.4568  -14.4408 O   0  0  0  0  0  0  0  0  0  0  0  0
   24.5539   -5.4665  -16.2135 C   0  0  0  0  0  0  0  0  0  0  0  0
   23.2999   -4.7480  -15.7846 C   0  0  1  0  0  0  0  0  0  0  0  0
   22.6831   -4.1219  -16.9942 C   0  0  0  0  0  0  0  0  0  0  0  0
   22.3778   -5.7138  -15.0819 C   0  0  2  0  0  0  0  0  0  0  0  0
   21.9467   -6.7860  -15.9621 N   0  0  0  0  0  0  0  0  0  0  0  0
   21.2261   -4.9705  -14.5265 C   0  0  0  0  0  0  0  0  0  0  0  0
   21.4154   -4.1945  -13.5639 O   0  0  0  0  0  0  0  0  0  0  0  0
   19.9465   -5.0939  -15.0233 O   0  0  0  0  0  0  0  0  0  0  0  0
  2  1  1  6
  2  5  1  0
  3  2  1  0
  4  3  1  0
  5  6  2  0
  5  7  1  0
  7  8  1  0
  8  9  1  1
  9 10  1  0
 10 11  1  0
 11 12  1  0
 13 12  1  0
 14 15  2  0
 14  8  1  0
 17 16  1  6
 17 18  1  0
 19 17  1  0
 19 20  1  6
 20 14  1  0
 21 19  1  0
 22 21  2  0
 23 21  1  0
M  END
$$$$
