CKV.pdb
     RDKit          3D

 23 22  0  0  1  0  0  0  0  0999 V2000
   17.0101  -13.9535  -15.3312 N   0  0  0  0  0  0  0  0  0  0  0  0
   17.9528  -13.7019  -16.3787 C   0  0  1  0  0  0  0  0  0  0  0  0
   17.4869  -14.3106  -17.7030 C   0  0  0  0  0  0  0  0  0  0  0  0
   16.5493  -15.8223  -17.4439 S   0  0  0  0  0  0  0  0  0  0  0  0
   18.1478  -12.2383  -16.5443 C   0  0  0  0  0  0  0  0  0  0  0  0
   19.1079  -11.8453  -17.2848 O   0  0  0  0  0  0  0  0  0  0  0  0
   17.3184  -11.2695  -15.9186 N   0  0  0  0  0  0  0  0  0  0  0  0
   17.5073   -9.8638  -16.1753 C   0  0  1  0  0  0  0  0  0  0  0  0
   16.2080   -9.0930  -16.1323 C   0  0  0  0  0  0  0  0  0  0  0  0
   15.2661   -9.4969  -17.2415 C   0  0  0  0  0  0  0  0  0  0  0  0
   13.8595   -9.1995  -16.7659 C   0  0  0  0  0  0  0  0  0  0  0  0
   12.8316   -9.5455  -17.8219 C   0  0  0  0  0  0  0  0  0  0  0  0
   11.5029   -9.4105  -17.2620 N   0  0  0  0  0  0  0  0  0  0  0  0
   18.5268   -9.2771  -15.2726 C   0  0  0  0  0  0  0  0  0  0  0  0
   18.4759   -9.5931  -14.0590 O   0  0  0  0  0  0  0  0  0  0  0  0
   22.9487   -7.8170  -14.1980 C   0  0  0  0  0  0  0  0  0  0  0  0
   21.9274   -8.4074  -15.1366 C   0  0  1  0  0  0  0  0  0  0  0  0
   21.9974   -9.8969  -15.0263 C   0  0  0  0  0  0  0  0  0  0  0  0
   20.5618   -7.8529  -14.8132 C   0  0  2  0  0  0  0  0  0  0  0  0
   19.5372   -8.3976  -15.6869 N   0  0  0  0  0  0  0  0  0  0  0  0
   20.6070   -6.3762  -14.8834 C   0  0  0  0  0  0  0  0  0  0  0  0
   20.4091   -5.8174  -15.9849 O   0  0  0  0  0  0  0  0  0  0  0  0
   20.8586   -5.5827  -13.7850 O   0  0  0  0  0  0  0  0  0  0  0  0
  2  1  1  1
  2  5  1  0
  3  2  1  0
  4  3  1  0
  5  6  2  0
  5  7  1  0
  7  8  1  0
  8  9  1  1
  9 10  1  0
 10 11  1  0
 11 12  1  0
 13 12  1  0
 14 15  2  0
 14  8  1  0
 17 16  1  1
 17 18  1  0
 19 17  1  0
 19 20  1  6
 20 14  1  0
 21 19  1  0
 22 21  2  0
 23 21  1  0
M  END
$$$$
