CWQ.pdb
     RDKit          3D

 30 31  0  0  1  0  0  0  0  0999 V2000
   29.6688  -21.7509  -14.0316 N   0  0  0  0  0  0  0  0  0  0  0  0
   29.0214  -20.7156  -13.2605 C   0  0  1  0  0  0  0  0  0  0  0  0
   28.7581  -19.5158  -14.1076 C   0  0  0  0  0  0  0  0  0  0  0  0
   27.9384  -18.2714  -13.0483 S   0  0  0  0  0  0  0  0  0  0  0  0
   27.8158  -21.2229  -12.5549 C   0  0  0  0  0  0  0  0  0  0  0  0
   26.9556  -21.8855  -13.1907 O   0  0  0  0  0  0  0  0  0  0  0  0
   27.5729  -20.9994  -11.1782 N   0  0  0  0  0  0  0  0  0  0  0  0
   26.4460  -21.4671  -10.4348 C   0  0  1  0  0  0  0  0  0  0  0  0
   26.7398  -21.6947   -8.9765 C   0  0  0  0  0  0  0  0  0  0  0  0
   26.9249  -20.4556   -8.2106 C   0  0  0  0  0  0  0  0  0  0  0  0
   26.4716  -19.1942   -8.5209 C   0  0  0  0  0  0  0  0  0  0  0  0
   26.8489  -18.3373   -7.5685 N   0  0  0  0  0  0  0  0  0  0  0  0
   27.5445  -19.0176   -6.6355 C   0  0  0  0  0  0  0  0  0  0  0  0
   28.1575  -18.6501   -5.4602 C   0  0  0  0  0  0  0  0  0  0  0  0
   28.8233  -19.5696   -4.6638 C   0  0  0  0  0  0  0  0  0  0  0  0
   28.8856  -20.8883   -5.0380 C   0  0  0  0  0  0  0  0  0  0  0  0
   28.2661  -21.2535   -6.2234 C   0  0  0  0  0  0  0  0  0  0  0  0
   27.6023  -20.3400   -7.0186 C   0  0  0  0  0  0  0  0  0  0  0  0
   25.3624  -20.4546  -10.5225 C   0  0  0  0  0  0  0  0  0  0  0  0
   25.6450  -19.2511  -10.6907 O   0  0  0  0  0  0  0  0  0  0  0  0
   23.5538  -23.9354  -14.6591 N   0  0  0  0  0  0  0  0  0  0  0  0
   23.3184  -22.5626  -14.8884 C   0  0  0  0  0  0  0  0  0  0  0  0
   23.5442  -22.0568  -16.0477 O   0  0  0  0  0  0  0  0  0  0  0  0
   22.8114  -21.6271  -13.8790 C   0  0  0  0  0  0  0  0  0  0  0  0
   23.6071  -21.4809  -12.6429 C   0  0  0  0  0  0  0  0  0  0  0  0
   23.0785  -20.5874  -11.5707 C   0  0  2  0  0  0  0  0  0  0  0  0
   23.9920  -20.7946  -10.4225 N   0  0  0  0  0  0  0  0  0  0  0  0
   21.6939  -20.7875  -11.1426 C   0  0  0  0  0  0  0  0  0  0  0  0
   20.5827  -20.1223  -11.6397 O   0  0  0  0  0  0  0  0  0  0  0  0
   21.4634  -21.6355  -10.2321 O   0  0  0  0  0  0  0  0  0  0  0  0
  2  1  1  6
  2  5  1  0
  3  2  1  0
  4  3  1  0
  5  7  1  0
  6  5  2  0
  7  8  1  0
  8 19  1  0
  8  9  1  1
  9 10  1  0
 10 18  1  0
 11 10  2  0
 11 12  1  0
 12 13  1  0
 13 14  1  0
 14 15  2  0
 16 15  1  0
 17 16  2  0
 18 13  2  0
 18 17  1  0
 19 27  1  0
 20 19  2  0
 21 22  1  0
 22 24  1  0
 22 23  2  0
 24 25  1  0
 26 25  1  6
 26 28  1  0
 27 26  1  0
 28 30  2  0
 28 29  1  0
M  END
$$$$
