CWQ.pdb
     RDKit          3D

 30 31  0  0  1  0  0  0  0  0999 V2000
   28.8854  -22.0421  -15.7117 N   0  0  0  0  0  0  0  0  0  0  0  0
   28.0746  -20.9675  -15.1891 C   0  0  1  0  0  0  0  0  0  0  0  0
   27.4339  -20.2040  -16.2995 C   0  0  0  0  0  0  0  0  0  0  0  0
   28.7680  -19.3519  -17.2142 S   0  0  0  0  0  0  0  0  0  0  0  0
   27.1121  -21.4483  -14.1638 C   0  0  0  0  0  0  0  0  0  0  0  0
   26.7349  -22.6486  -14.1792 O   0  0  0  0  0  0  0  0  0  0  0  0
   26.5827  -20.6165  -13.1480 N   0  0  0  0  0  0  0  0  0  0  0  0
   25.6728  -21.0155  -12.1214 C   0  0  1  0  0  0  0  0  0  0  0  0
   25.8667  -20.2763  -10.8249 C   0  0  0  0  0  0  0  0  0  0  0  0
   27.0990  -20.6420  -10.1149 C   0  0  0  0  0  0  0  0  0  0  0  0
   28.2047  -21.2880  -10.6179 C   0  0  0  0  0  0  0  0  0  0  0  0
   29.1143  -21.4350   -9.6511 N   0  0  0  0  0  0  0  0  0  0  0  0
   28.6223  -20.8944   -8.5184 C   0  0  0  0  0  0  0  0  0  0  0  0
   29.1171  -20.7647   -7.2415 C   0  0  0  0  0  0  0  0  0  0  0  0
   28.3892  -20.1504   -6.2338 C   0  0  0  0  0  0  0  0  0  0  0  0
   27.1380  -19.6503   -6.4938 C   0  0  0  0  0  0  0  0  0  0  0  0
   26.6439  -19.7836   -7.7824 C   0  0  0  0  0  0  0  0  0  0  0  0
   27.3667  -20.3949   -8.7881 C   0  0  0  0  0  0  0  0  0  0  0  0
   24.2856  -20.7544  -12.5847 C   0  0  0  0  0  0  0  0  0  0  0  0
   23.9819  -19.6356  -13.0459 O   0  0  0  0  0  0  0  0  0  0  0  0
   19.6522  -25.2340  -12.9418 N   0  0  0  0  0  0  0  0  0  0  0  0
   19.0251  -23.9969  -13.2044 C   0  0  0  0  0  0  0  0  0  0  0  0
   17.7533  -23.9455  -13.3795 O   0  0  0  0  0  0  0  0  0  0  0  0
   19.7270  -22.7120  -13.2913 C   0  0  0  0  0  0  0  0  0  0  0  0
   21.1657  -22.7118  -12.9558 C   0  0  0  0  0  0  0  0  0  0  0  0
   21.8762  -21.3998  -12.9174 C   0  0  2  0  0  0  0  0  0  0  0  0
   23.2662  -21.7347  -12.5282 N   0  0  0  0  0  0  0  0  0  0  0  0
   21.3481  -20.3685  -12.0243 C   0  0  0  0  0  0  0  0  0  0  0  0
   21.4081  -20.3814  -10.6384 O   0  0  0  0  0  0  0  0  0  0  0  0
   20.7737  -19.3651  -12.5389 O   0  0  0  0  0  0  0  0  0  0  0  0
  2  1  1  6
  2  5  1  0
  3  2  1  0
  4  3  1  0
  5  7  1  0
  6  5  2  0
  7  8  1  0
  8 19  1  0
  8  9  1  1
  9 10  1  0
 10 18  1  0
 11 10  2  0
 11 12  1  0
 12 13  1  0
 13 14  1  0
 14 15  2  0
 16 15  1  0
 17 16  2  0
 18 13  2  0
 18 17  1  0
 19 27  1  0
 20 19  2  0
 21 22  1  0
 22 24  1  0
 22 23  2  0
 24 25  1  0
 26 25  1  1
 26 28  1  0
 27 26  1  0
 28 30  2  0
 28 29  1  0
M  END
$$$$
