CWQ.pdb
     RDKit          3D

 30 31  0  0  1  0  0  0  0  0999 V2000
   26.3722  -19.9347  -15.2511 N   0  0  0  0  0  0  0  0  0  0  0  0
   26.6574  -21.3184  -14.9519 C   0  0  1  0  0  0  0  0  0  0  0  0
   28.1187  -21.5931  -15.0766 C   0  0  0  0  0  0  0  0  0  0  0  0
   28.6018  -21.1976  -16.7950 S   0  0  0  0  0  0  0  0  0  0  0  0
   26.0828  -21.7321  -13.6452 C   0  0  0  0  0  0  0  0  0  0  0  0
   26.2248  -22.9185  -13.2509 O   0  0  0  0  0  0  0  0  0  0  0  0
   25.3690  -20.8498  -12.7990 N   0  0  0  0  0  0  0  0  0  0  0  0
   24.8655  -21.1542  -11.4970 C   0  0  1  0  0  0  0  0  0  0  0  0
   25.4060  -20.2554  -10.4177 C   0  0  0  0  0  0  0  0  0  0  0  0
   26.7613  -20.6098   -9.9774 C   0  0  0  0  0  0  0  0  0  0  0  0
   27.7113  -21.3313  -10.6627 C   0  0  0  0  0  0  0  0  0  0  0  0
   28.8151  -21.4367   -9.9181 N   0  0  0  0  0  0  0  0  0  0  0  0
   28.6044  -20.7943   -8.7519 C   0  0  0  0  0  0  0  0  0  0  0  0
   29.3801  -20.5855   -7.6353 C   0  0  0  0  0  0  0  0  0  0  0  0
   28.9124  -19.8707   -6.5430 C   0  0  0  0  0  0  0  0  0  0  0  0
   27.6439  -19.3474   -6.5533 C   0  0  0  0  0  0  0  0  0  0  0  0
   26.8662  -19.5607   -7.6811 C   0  0  0  0  0  0  0  0  0  0  0  0
   27.3293  -20.2722   -8.7705 C   0  0  0  0  0  0  0  0  0  0  0  0
   23.3876  -21.0037  -11.5093 C   0  0  0  0  0  0  0  0  0  0  0  0
   22.8663  -20.0063  -12.0480 O   0  0  0  0  0  0  0  0  0  0  0  0
   19.4069  -24.2256   -7.6682 N   0  0  0  0  0  0  0  0  0  0  0  0
   18.5888  -23.3958   -8.4649 C   0  0  0  0  0  0  0  0  0  0  0  0
   17.3258  -23.3303   -8.2384 O   0  0  0  0  0  0  0  0  0  0  0  0
   19.0764  -22.5628   -9.5693 C   0  0  0  0  0  0  0  0  0  0  0  0
   20.5343  -22.5546   -9.8076 C   0  0  0  0  0  0  0  0  0  0  0  0
   21.0513  -21.7618  -10.9616 C   0  0  2  0  0  0  0  0  0  0  0  0
   22.5197  -21.9580  -10.9265 N   0  0  0  0  0  0  0  0  0  0  0  0
   20.7447  -20.3317  -10.9937 C   0  0  0  0  0  0  0  0  0  0  0  0
   21.2206  -19.3758  -10.1081 O   0  0  0  0  0  0  0  0  0  0  0  0
   19.9716  -19.9034  -11.8993 O   0  0  0  0  0  0  0  0  0  0  0  0
  2  1  1  1
  2  5  1  0
  3  2  1  0
  4  3  1  0
  5  7  1  0
  6  5  2  0
  7  8  1  0
  8 19  1  0
  8  9  1  1
  9 10  1  0
 10 18  1  0
 11 10  2  0
 11 12  1  0
 12 13  1  0
 13 14  1  0
 14 15  2  0
 16 15  1  0
 17 16  2  0
 18 13  2  0
 18 17  1  0
 19 27  1  0
 20 19  2  0
 21 22  1  0
 22 24  1  0
 22 23  2  0
 24 25  1  0
 26 25  1  1
 26 28  1  0
 27 26  1  0
 28 30  2  0
 28 29  1  0
M  END
$$$$
