CWQ.pdb
     RDKit          3D

 30 31  0  0  1  0  0  0  0  0999 V2000
   28.9699  -20.9953  -13.9705 N   0  0  0  0  0  0  0  0  0  0  0  0
   28.6510  -20.2233  -12.7925 C   0  0  1  0  0  0  0  0  0  0  0  0
   28.4113  -18.7944  -13.1491 C   0  0  0  0  0  0  0  0  0  0  0  0
   27.1418  -18.7676  -14.4644 S   0  0  0  0  0  0  0  0  0  0  0  0
   27.5449  -20.8361  -12.0117 C   0  0  0  0  0  0  0  0  0  0  0  0
   27.1400  -21.9902  -12.3072 O   0  0  0  0  0  0  0  0  0  0  0  0
   26.9055  -20.1830  -10.9306 N   0  0  0  0  0  0  0  0  0  0  0  0
   25.8348  -20.7077  -10.1436 C   0  0  1  0  0  0  0  0  0  0  0  0
   25.6306  -19.9784   -8.8431 C   0  0  0  0  0  0  0  0  0  0  0  0
   26.8732  -19.7406   -8.0977 C   0  0  0  0  0  0  0  0  0  0  0  0
   27.8997  -18.8820   -8.4171 C   0  0  0  0  0  0  0  0  0  0  0  0
   28.8516  -18.9571   -7.4833 N   0  0  0  0  0  0  0  0  0  0  0  0
   28.4656  -19.8537   -6.5535 C   0  0  0  0  0  0  0  0  0  0  0  0
   29.0415  -20.3194   -5.3944 C   0  0  0  0  0  0  0  0  0  0  0  0
   28.4180  -21.2675   -4.5975 C   0  0  0  0  0  0  0  0  0  0  0  0
   27.1919  -21.7697   -4.9547 C   0  0  0  0  0  0  0  0  0  0  0  0
   26.6158  -21.2970   -6.1238 C   0  0  0  0  0  0  0  0  0  0  0  0
   27.2345  -20.3527   -6.9195 C   0  0  0  0  0  0  0  0  0  0  0  0
   24.5737  -20.6015  -10.9216 C   0  0  0  0  0  0  0  0  0  0  0  0
   24.5402  -19.9198  -11.9660 O   0  0  0  0  0  0  0  0  0  0  0  0
   22.5149  -18.5931  -14.5211 N   0  0  0  0  0  0  0  0  0  0  0  0
   21.2189  -18.8294  -14.0141 C   0  0  0  0  0  0  0  0  0  0  0  0
   20.1881  -18.5318  -14.7210 O   0  0  0  0  0  0  0  0  0  0  0  0
   20.9354  -19.4152  -12.6996 C   0  0  0  0  0  0  0  0  0  0  0  0
   22.0985  -19.8030  -11.8754 C   0  0  0  0  0  0  0  0  0  0  0  0
   22.1802  -21.2149  -11.3987 C   0  0  2  0  0  0  0  0  0  0  0  0
   23.3788  -21.2505  -10.5283 N   0  0  0  0  0  0  0  0  0  0  0  0
   22.2727  -22.2679  -12.4101 C   0  0  0  0  0  0  0  0  0  0  0  0
   23.3574  -22.5070  -13.2411 O   0  0  0  0  0  0  0  0  0  0  0  0
   21.2828  -23.0409  -12.5646 O   0  0  0  0  0  0  0  0  0  0  0  0
  2  1  1  6
  2  5  1  0
  3  2  1  0
  4  3  1  0
  5  7  1  0
  6  5  2  0
  7  8  1  0
  8 19  1  0
  8  9  1  1
  9 10  1  0
 10 18  1  0
 11 10  2  0
 11 12  1  0
 12 13  1  0
 13 14  1  0
 14 15  2  0
 16 15  1  0
 17 16  2  0
 18 13  2  0
 18 17  1  0
 19 27  1  0
 20 19  2  0
 21 22  1  0
 22 24  1  0
 22 23  2  0
 24 25  1  0
 26 25  1  6
 26 28  1  0
 27 26  1  0
 28 30  2  0
 28 29  1  0
M  END
$$$$
