CWQ.pdb
     RDKit          3D

 30 31  0  0  1  0  0  0  0  0999 V2000
   24.9159  -12.2788  -16.2403 N   0  0  0  0  0  0  0  0  0  0  0  0
   25.0490  -10.9188  -15.7732 C   0  0  1  0  0  0  0  0  0  0  0  0
   26.3232  -10.3167  -16.2633 C   0  0  0  0  0  0  0  0  0  0  0  0
   27.6960  -11.2580  -15.5070 S   0  0  0  0  0  0  0  0  0  0  0  0
   23.8458  -10.1052  -16.0877 C   0  0  0  0  0  0  0  0  0  0  0  0
   23.2588  -10.2629  -17.1894 O   0  0  0  0  0  0  0  0  0  0  0  0
   23.3091   -9.1412  -15.2006 N   0  0  0  0  0  0  0  0  0  0  0  0
   22.1213   -8.3748  -15.4076 C   0  0  1  0  0  0  0  0  0  0  0  0
   20.9712   -8.8003  -14.5351 C   0  0  0  0  0  0  0  0  0  0  0  0
   20.3907  -10.0952  -14.9127 C   0  0  0  0  0  0  0  0  0  0  0  0
   20.5668  -11.3126  -14.2964 C   0  0  0  0  0  0  0  0  0  0  0  0
   19.8681  -12.2472  -14.9461 N   0  0  0  0  0  0  0  0  0  0  0  0
   19.2344  -11.6614  -15.9817 C   0  0  0  0  0  0  0  0  0  0  0  0
   18.3950  -12.1330  -16.9641 C   0  0  0  0  0  0  0  0  0  0  0  0
   17.8653  -11.2984  -17.9365 C   0  0  0  0  0  0  0  0  0  0  0  0
   18.1728   -9.9610  -17.9392 C   0  0  0  0  0  0  0  0  0  0  0  0
   19.0192   -9.4907  -16.9469 C   0  0  0  0  0  0  0  0  0  0  0  0
   19.5482  -10.3196  -15.9771 C   0  0  0  0  0  0  0  0  0  0  0  0
   22.4131   -6.9502  -15.1038 C   0  0  0  0  0  0  0  0  0  0  0  0
   23.0730   -6.6512  -14.0881 O   0  0  0  0  0  0  0  0  0  0  0  0
   23.2220   -2.4258  -19.3642 N   0  0  0  0  0  0  0  0  0  0  0  0
   23.0391   -1.7152  -18.1583 C   0  0  0  0  0  0  0  0  0  0  0  0
   23.2334   -0.4455  -18.1248 O   0  0  0  0  0  0  0  0  0  0  0  0
   22.6229   -2.3241  -16.8905 C   0  0  0  0  0  0  0  0  0  0  0  0
   22.3736   -3.7802  -16.8980 C   0  0  0  0  0  0  0  0  0  0  0  0
   22.2875   -4.4832  -15.5843 C   0  0  2  0  0  0  0  0  0  0  0  0
   21.9696   -5.8889  -15.9287 N   0  0  0  0  0  0  0  0  0  0  0  0
   21.3187   -3.9823  -14.6092 C   0  0  0  0  0  0  0  0  0  0  0  0
   21.6019   -3.1653  -13.5244 O   0  0  0  0  0  0  0  0  0  0  0  0
   20.1053   -4.3159  -14.7424 O   0  0  0  0  0  0  0  0  0  0  0  0
  2  1  1  6
  2  5  1  0
  3  2  1  0
  4  3  1  0
  5  7  1  0
  6  5  2  0
  7  8  1  0
  8 19  1  0
  8  9  1  1
  9 10  1  0
 10 18  1  0
 11 10  2  0
 11 12  1  0
 12 13  1  0
 13 14  1  0
 14 15  2  0
 16 15  1  0
 17 16  2  0
 18 13  2  0
 18 17  1  0
 19 27  1  0
 20 19  2  0
 21 22  1  0
 22 24  1  0
 22 23  2  0
 24 25  1  0
 26 25  1  6
 26 28  1  0
 27 26  1  0
 28 30  2  0
 28 29  1  0
M  END
$$$$
