CWQ.pdb
     RDKit          3D

 30 31  0  0  1  0  0  0  0  0999 V2000
   28.9383  -22.9930  -16.1877 N   0  0  0  0  0  0  0  0  0  0  0  0
   27.9574  -21.9397  -16.0695 C   0  0  1  0  0  0  0  0  0  0  0  0
   27.1559  -21.8245  -17.3228 C   0  0  0  0  0  0  0  0  0  0  0  0
   28.2570  -21.1399  -18.6117 S   0  0  0  0  0  0  0  0  0  0  0  0
   27.1295  -22.0892  -14.8444 C   0  0  0  0  0  0  0  0  0  0  0  0
   26.7049  -23.2271  -14.5156 O   0  0  0  0  0  0  0  0  0  0  0  0
   26.7827  -21.0020  -14.0067 N   0  0  0  0  0  0  0  0  0  0  0  0
   25.9620  -21.0666  -12.8389 C   0  0  1  0  0  0  0  0  0  0  0  0
   26.3282  -20.0521  -11.7894 C   0  0  0  0  0  0  0  0  0  0  0  0
   27.4887  -20.4363  -10.9758 C   0  0  0  0  0  0  0  0  0  0  0  0
   28.7018  -20.9200  -11.4084 C   0  0  0  0  0  0  0  0  0  0  0  0
   29.4917  -21.1500  -10.3563 N   0  0  0  0  0  0  0  0  0  0  0  0
   28.8149  -20.8243   -9.2369 C   0  0  0  0  0  0  0  0  0  0  0  0
   29.1314  -20.8576   -7.8987 C   0  0  0  0  0  0  0  0  0  0  0  0
   28.2306  -20.4564   -6.9238 C   0  0  0  0  0  0  0  0  0  0  0  0
   26.9828  -20.0099   -7.2799 C   0  0  0  0  0  0  0  0  0  0  0  0
   26.6688  -19.9783   -8.6300 C   0  0  0  0  0  0  0  0  0  0  0  0
   27.5640  -20.3772   -9.6032 C   0  0  0  0  0  0  0  0  0  0  0  0
   24.5513  -20.8175  -13.2323 C   0  0  0  0  0  0  0  0  0  0  0  0
   24.2846  -19.9381  -14.0762 O   0  0  0  0  0  0  0  0  0  0  0  0
   20.3308  -25.2295  -14.1328 N   0  0  0  0  0  0  0  0  0  0  0  0
   19.5614  -24.0461  -14.1158 C   0  0  0  0  0  0  0  0  0  0  0  0
   18.2946  -24.1002  -14.3234 O   0  0  0  0  0  0  0  0  0  0  0  0
   20.1036  -22.7066  -13.8647 C   0  0  0  0  0  0  0  0  0  0  0  0
   21.5208  -22.6247  -13.4557 C   0  0  0  0  0  0  0  0  0  0  0  0
   22.0797  -21.2796  -13.1302 C   0  0  2  0  0  0  0  0  0  0  0  0
   23.4677  -21.5454  -12.6848 N   0  0  0  0  0  0  0  0  0  0  0  0
   21.3819  -20.4811  -12.1224 C   0  0  0  0  0  0  0  0  0  0  0  0
   20.2160  -19.7559  -12.3207 O   0  0  0  0  0  0  0  0  0  0  0  0
   21.8702  -20.4258  -10.9563 O   0  0  0  0  0  0  0  0  0  0  0  0
  2  1  1  6
  2  5  1  0
  3  2  1  0
  4  3  1  0
  5  7  1  0
  6  5  2  0
  7  8  1  0
  8 19  1  0
  8  9  1  1
  9 10  1  0
 10 18  1  0
 11 10  2  0
 11 12  1  0
 12 13  1  0
 13 14  1  0
 14 15  2  0
 16 15  1  0
 17 16  2  0
 18 13  2  0
 18 17  1  0
 19 27  1  0
 20 19  2  0
 21 22  1  0
 22 24  1  0
 22 23  2  0
 24 25  1  0
 26 25  1  1
 26 28  1  0
 27 26  1  0
 28 30  2  0
 28 29  1  0
M  END
$$$$
