CWQ.pdb
     RDKit          3D

 30 31  0  0  1  0  0  0  0  0999 V2000
   28.9448  -23.2029  -16.3585 N   0  0  0  0  0  0  0  0  0  0  0  0
   28.4337  -21.9439  -15.8693 C   0  0  1  0  0  0  0  0  0  0  0  0
   27.9120  -21.1151  -16.9950 C   0  0  0  0  0  0  0  0  0  0  0  0
   28.0761  -22.1067  -18.5222 S   0  0  0  0  0  0  0  0  0  0  0  0
   27.4559  -22.1343  -14.7665 C   0  0  0  0  0  0  0  0  0  0  0  0
   26.8559  -23.2342  -14.6501 O   0  0  0  0  0  0  0  0  0  0  0  0
   27.1529  -21.1282  -13.8178 N   0  0  0  0  0  0  0  0  0  0  0  0
   26.2683  -21.2598  -12.7036 C   0  0  1  0  0  0  0  0  0  0  0  0
   26.5909  -20.3289  -11.5660 C   0  0  0  0  0  0  0  0  0  0  0  0
   27.7695  -20.7323  -10.7885 C   0  0  0  0  0  0  0  0  0  0  0  0
   28.9180  -21.3360  -11.2459 C   0  0  0  0  0  0  0  0  0  0  0  0
   29.7526  -21.5404  -10.2235 N   0  0  0  0  0  0  0  0  0  0  0  0
   29.1690  -21.0794   -9.0992 C   0  0  0  0  0  0  0  0  0  0  0  0
   29.5630  -21.0310   -7.7822 C   0  0  0  0  0  0  0  0  0  0  0  0
   28.7528  -20.4898   -6.7956 C   0  0  0  0  0  0  0  0  0  0  0  0
   27.5193  -19.9822   -7.1181 C   0  0  0  0  0  0  0  0  0  0  0  0
   27.1269  -20.0333   -8.4469 C   0  0  0  0  0  0  0  0  0  0  0  0
   27.9318  -20.5718   -9.4316 C   0  0  0  0  0  0  0  0  0  0  0  0
   24.8851  -20.9575  -13.1537 C   0  0  0  0  0  0  0  0  0  0  0  0
   24.6640  -19.9524  -13.8591 O   0  0  0  0  0  0  0  0  0  0  0  0
   20.8074  -25.3819  -14.7054 N   0  0  0  0  0  0  0  0  0  0  0  0
   20.0491  -24.1928  -14.7650 C   0  0  0  0  0  0  0  0  0  0  0  0
   18.8440  -24.2207  -15.2097 O   0  0  0  0  0  0  0  0  0  0  0  0
   20.5350  -22.8759  -14.3395 C   0  0  0  0  0  0  0  0  0  0  0  0
   21.8804  -22.8238  -13.7316 C   0  0  0  0  0  0  0  0  0  0  0  0
   22.4342  -21.4862  -13.3689 C   0  0  2  0  0  0  0  0  0  0  0  0
   23.7783  -21.7720  -12.8144 N   0  0  0  0  0  0  0  0  0  0  0  0
   21.6728  -20.6708  -12.4226 C   0  0  0  0  0  0  0  0  0  0  0  0
   21.8283  -20.6625  -11.0442 O   0  0  0  0  0  0  0  0  0  0  0  0
   20.7800  -19.8983  -12.8782 O   0  0  0  0  0  0  0  0  0  0  0  0
  2  1  1  6
  2  5  1  0
  3  2  1  0
  4  3  1  0
  5  7  1  0
  6  5  2  0
  7  8  1  0
  8 19  1  0
  8  9  1  1
  9 10  1  0
 10 18  1  0
 11 10  2  0
 11 12  1  0
 12 13  1  0
 13 14  1  0
 14 15  2  0
 16 15  1  0
 17 16  2  0
 18 13  2  0
 18 17  1  0
 19 27  1  0
 20 19  2  0
 21 22  1  0
 22 24  1  0
 22 23  2  0
 24 25  1  0
 26 25  1  1
 26 28  1  0
 27 26  1  0
 28 30  2  0
 28 29  1  0
M  END
$$$$
