CWQ.pdb
     RDKit          3D

 30 31  0  0  1  0  0  0  0  0999 V2000
   22.3706  -28.7968  -18.5729 N   0  0  0  0  0  0  0  0  0  0  0  0
   21.1951  -28.2393  -17.9462 C   0  0  1  0  0  0  0  0  0  0  0  0
   20.1319  -29.2768  -17.8056 C   0  0  0  0  0  0  0  0  0  0  0  0
   19.5471  -29.6878  -19.4884 S   0  0  0  0  0  0  0  0  0  0  0  0
   21.5226  -27.5456  -16.6733 C   0  0  0  0  0  0  0  0  0  0  0  0
   22.5844  -27.8343  -16.0629 O   0  0  0  0  0  0  0  0  0  0  0  0
   20.6914  -26.5569  -16.0940 N   0  0  0  0  0  0  0  0  0  0  0  0
   20.9905  -25.7791  -14.9335 C   0  0  1  0  0  0  0  0  0  0  0  0
   20.9589  -24.2947  -15.1796 C   0  0  0  0  0  0  0  0  0  0  0  0
   21.9940  -23.8280  -16.1107 C   0  0  0  0  0  0  0  0  0  0  0  0
   21.8207  -23.1813  -17.3126 C   0  0  0  0  0  0  0  0  0  0  0  0
   23.0127  -22.9256  -17.8580 N   0  0  0  0  0  0  0  0  0  0  0  0
   23.9684  -23.3953  -17.0314 C   0  0  0  0  0  0  0  0  0  0  0  0
   25.3428  -23.4062  -17.0865 C   0  0  0  0  0  0  0  0  0  0  0  0
   26.1109  -23.9672  -16.0775 C   0  0  0  0  0  0  0  0  0  0  0  0
   25.5054  -24.5331  -14.9838 C   0  0  0  0  0  0  0  0  0  0  0  0
   24.1200  -24.5195  -14.9330 C   0  0  0  0  0  0  0  0  0  0  0  0
   23.3523  -23.9615  -15.9365 C   0  0  0  0  0  0  0  0  0  0  0  0
   19.9847  -26.0823  -13.8831 C   0  0  0  0  0  0  0  0  0  0  0  0
   18.7854  -26.2329  -14.1923 O   0  0  0  0  0  0  0  0  0  0  0  0
   20.7474  -29.9957   -9.9002 N   0  0  0  0  0  0  0  0  0  0  0  0
   19.7384  -29.3388   -9.1634 C   0  0  0  0  0  0  0  0  0  0  0  0
   19.0823  -29.9769   -8.2616 O   0  0  0  0  0  0  0  0  0  0  0  0
   19.3635  -27.9319   -9.3403 C   0  0  0  0  0  0  0  0  0  0  0  0
   20.0912  -27.1711  -10.3768 C   0  0  0  0  0  0  0  0  0  0  0  0
   19.3070  -26.6165  -11.5192 C   0  0  2  0  0  0  0  0  0  0  0  0
   20.3265  -26.2123  -12.5157 N   0  0  0  0  0  0  0  0  0  0  0  0
   18.4115  -25.4926  -11.2449 C   0  0  0  0  0  0  0  0  0  0  0  0
   17.0456  -25.5753  -11.0174 O   0  0  0  0  0  0  0  0  0  0  0  0
   18.9030  -24.3270  -11.2131 O   0  0  0  0  0  0  0  0  0  0  0  0
  2  1  1  1
  2  5  1  0
  3  2  1  0
  4  3  1  0
  5  7  1  0
  6  5  2  0
  7  8  1  0
  8 19  1  0
  8  9  1  6
  9 10  1  0
 10 18  1  0
 11 10  2  0
 11 12  1  0
 12 13  1  0
 13 14  1  0
 14 15  2  0
 16 15  1  0
 17 16  2  0
 18 13  2  0
 18 17  1  0
 19 27  1  0
 20 19  2  0
 21 22  1  0
 22 24  1  0
 22 23  2  0
 24 25  1  0
 26 25  1  1
 26 28  1  0
 27 26  1  0
 28 30  2  0
 28 29  1  0
M  END
$$$$
