QSE.pdb
     RDKit          3D

 25 24  0  0  1  0  0  0  0  0999 V2000
   28.5378  -38.4177   -1.9560 N   0  0  0  0  0  0  0  0  0  0  0  0
   29.6117  -37.5301   -2.3276 C   0  0  0  0  0  0  0  0  0  0  0  0
   30.7998  -37.8993   -2.3114 O   0  0  0  0  0  0  0  0  0  0  0  0
   29.2134  -36.1713   -2.7183 C   0  0  0  0  0  0  0  0  0  0  0  0
   27.7552  -35.9570   -2.6989 C   0  0  0  0  0  0  0  0  0  0  0  0
   27.2596  -34.6150   -3.0828 C   0  0  2  0  0  0  0  0  0  0  0  0
   28.1981  -33.9466   -3.9370 N   0  0  0  0  0  0  0  0  0  0  0  0
   26.9865  -33.7369   -1.9171 C   0  0  0  0  0  0  0  0  0  0  0  0
   27.8763  -32.9595   -1.4846 O   0  0  0  0  0  0  0  0  0  0  0  0
   23.3959  -33.8231    0.2916 O   0  0  0  0  0  0  0  0  0  0  0  0
   23.9944  -32.5803    0.0737 C   0  0  0  0  0  0  0  0  0  0  0  0
   25.4803  -32.8251   -0.1185 C   0  0  2  0  0  0  0  0  0  0  0  0
   25.7422  -33.7059   -1.2232 N   0  0  0  0  0  0  0  0  0  0  0  0
   26.1169  -33.2412    1.1398 C   0  0  0  0  0  0  0  0  0  0  0  0
   26.3616  -34.4772    1.3621 O   0  0  0  0  0  0  0  0  0  0  0  0
   26.5067  -32.3624    2.1852 N   0  0  0  0  0  0  0  0  0  0  0  0
   27.1389  -32.8708    3.4035 C   0  0  1  0  0  0  0  0  0  0  0  0
   27.7653  -31.7909    4.1956 C   0  0  0  0  0  0  0  0  0  0  0  0
   28.3800  -32.3019    5.4631 C   0  0  0  0  0  0  0  0  0  0  0  0
   28.9060  -31.2481    6.3613 C   0  0  0  0  0  0  0  0  0  0  0  0
   28.3440  -31.0593    7.4470 O   0  0  0  0  0  0  0  0  0  0  0  0
   26.0588  -33.5198    4.1800 C   0  0  0  0  0  0  0  0  0  0  0  0
   26.3670  -34.2970    5.1453 O   0  0  0  0  0  0  0  0  0  0  0  0
   29.9963  -30.4917    5.9974 O   0  0  0  0  0  0  0  0  0  0  0  0
   24.6983  -33.3524    3.9476 O   0  0  0  0  0  0  0  0  0  0  0  0
  2  4  1  0
  2  1  1  0
  3  2  2  0
  5  6  1  0
  5  4  1  0
  6  7  1  6
  6  8  1  0
  8  9  2  0
 10 11  1  0
 12 11  1  1
 12 14  1  0
 13  8  1  0
 13 12  1  0
 14 15  2  0
 16 17  1  0
 16 14  1  0
 17 22  1  0
 18 19  1  0
 17 18  1  1
 20 19  1  0
 21 20  2  0
 22 23  2  0
 22 25  1  0
 24 20  1  0
M  END
$$$$
