QSE.pdb
     RDKit          3D

 25 24  0  0  1  0  0  0  0  0999 V2000
   27.4469  -15.5810  -14.9978 N   0  0  0  0  0  0  0  0  0  0  0  0
   26.5677  -16.3701  -15.8245 C   0  0  0  0  0  0  0  0  0  0  0  0
   25.8117  -15.8448  -16.6617 O   0  0  0  0  0  0  0  0  0  0  0  0
   26.6198  -17.8224  -15.6108 C   0  0  0  0  0  0  0  0  0  0  0  0
   27.6115  -18.2333  -14.6006 C   0  0  0  0  0  0  0  0  0  0  0  0
   27.8081  -19.6866  -14.3920 C   0  0  2  0  0  0  0  0  0  0  0  0
   28.0681  -20.3527  -15.6353 N   0  0  0  0  0  0  0  0  0  0  0  0
   26.6457  -20.3471  -13.7461 C   0  0  0  0  0  0  0  0  0  0  0  0
   25.7757  -20.9282  -14.4450 O   0  0  0  0  0  0  0  0  0  0  0  0
   26.3364  -21.7069   -9.7478 O   0  0  0  0  0  0  0  0  0  0  0  0
   25.3160  -20.8756  -10.2146 C   0  0  0  0  0  0  0  0  0  0  0  0
   25.2920  -21.0006  -11.7274 C   0  0  2  0  0  0  0  0  0  0  0  0
   26.4326  -20.3749  -12.3374 N   0  0  0  0  0  0  0  0  0  0  0  0
   24.0028  -20.5551  -12.2765 C   0  0  0  0  0  0  0  0  0  0  0  0
   23.8143  -19.3228  -12.5640 O   0  0  0  0  0  0  0  0  0  0  0  0
   22.8905  -21.4003  -12.5323 N   0  0  0  0  0  0  0  0  0  0  0  0
   21.6522  -20.8680  -13.1029 C   0  0  1  0  0  0  0  0  0  0  0  0
   21.3085  -21.5173  -14.3859 C   0  0  0  0  0  0  0  0  0  0  0  0
   19.8301  -21.6992  -14.5503 C   0  0  0  0  0  0  0  0  0  0  0  0
   19.4279  -22.3694  -15.8085 C   0  0  0  0  0  0  0  0  0  0  0  0
   20.3103  -22.7255  -16.5990 O   0  0  0  0  0  0  0  0  0  0  0  0
   20.5985  -21.1254  -12.0960 C   0  0  0  0  0  0  0  0  0  0  0  0
   19.5934  -20.3400  -12.0321 O   0  0  0  0  0  0  0  0  0  0  0  0
   18.1007  -22.5911  -16.0957 O   0  0  0  0  0  0  0  0  0  0  0  0
   20.6032  -22.1783  -11.1880 O   0  0  0  0  0  0  0  0  0  0  0  0
  2  4  1  0
  2  1  1  0
  3  2  2  0
  5  6  1  0
  5  4  1  0
  6  7  1  6
  6  8  1  0
  8  9  2  0
 10 11  1  0
 12 11  1  1
 12 14  1  0
 13  8  1  0
 13 12  1  0
 14 15  2  0
 16 17  1  0
 16 14  1  0
 17 22  1  0
 18 19  1  0
 17 18  1  6
 20 19  1  0
 21 20  2  0
 22 23  2  0
 22 25  1  0
 24 20  1  0
M  END
$$$$
