QSE.pdb
     RDKit          3D

 25 24  0  0  1  0  0  0  0  0999 V2000
   15.3248  -12.8715  -14.8419 N   0  0  0  0  0  0  0  0  0  0  0  0
   16.2245  -13.6168  -15.6870 C   0  0  0  0  0  0  0  0  0  0  0  0
   16.1807  -14.8585  -15.7534 O   0  0  0  0  0  0  0  0  0  0  0  0
   17.1911  -12.8196  -16.4538 C   0  0  0  0  0  0  0  0  0  0  0  0
   17.1632  -11.3834  -16.1231 C   0  0  0  0  0  0  0  0  0  0  0  0
   18.1738  -10.5162  -16.7717 C   0  0  2  0  0  0  0  0  0  0  0  0
   19.1023  -11.2956  -17.5383 N   0  0  0  0  0  0  0  0  0  0  0  0
   18.9451   -9.6936  -15.8059 C   0  0  0  0  0  0  0  0  0  0  0  0
   18.3651   -8.8222  -15.1078 O   0  0  0  0  0  0  0  0  0  0  0  0
   23.1049   -9.7319  -15.6177 O   0  0  0  0  0  0  0  0  0  0  0  0
   22.4640   -9.5844  -14.3858 C   0  0  0  0  0  0  0  0  0  0  0  0
   21.0832   -9.0174  -14.6631 C   0  0  2  0  0  0  0  0  0  0  0  0
   20.3493   -9.8220  -15.6005 N   0  0  0  0  0  0  0  0  0  0  0  0
   21.1567   -7.5949  -15.0275 C   0  0  0  0  0  0  0  0  0  0  0  0
   21.4125   -7.2491  -16.2325 O   0  0  0  0  0  0  0  0  0  0  0  0
   20.9618   -6.5125  -14.1289 N   0  0  0  0  0  0  0  0  0  0  0  0
   21.1396   -5.1267  -14.5652 C   0  0  1  0  0  0  0  0  0  0  0  0
   19.8953   -4.3393  -14.4325 C   0  0  0  0  0  0  0  0  0  0  0  0
   18.8914   -4.6842  -15.4903 C   0  0  0  0  0  0  0  0  0  0  0  0
   17.6179   -3.9332  -15.3994 C   0  0  0  0  0  0  0  0  0  0  0  0
   16.6247   -4.5043  -14.9325 O   0  0  0  0  0  0  0  0  0  0  0  0
   22.2012   -4.5630  -13.7015 C   0  0  0  0  0  0  0  0  0  0  0  0
   22.6322   -5.2511  -12.7157 O   0  0  0  0  0  0  0  0  0  0  0  0
   17.5376   -2.6277  -15.8263 O   0  0  0  0  0  0  0  0  0  0  0  0
   22.7907   -3.3157  -13.8735 O   0  0  0  0  0  0  0  0  0  0  0  0
  2  4  1  0
  2  1  1  0
  3  2  2  0
  5  6  1  0
  5  4  1  0
  6  7  1  1
  6  8  1  0
  8  9  2  0
 10 11  1  0
 12 11  1  6
 12 14  1  0
 13  8  1  0
 13 12  1  0
 14 15  2  0
 16 17  1  0
 16 14  1  0
 17 22  1  0
 18 19  1  0
 17 18  1  1
 20 19  1  0
 21 20  2  0
 22 23  2  0
 22 25  1  0
 24 20  1  0
M  END
$$$$
