QSE.pdb
     RDKit          3D

 25 24  0  0  1  0  0  0  0  0999 V2000
   17.8642  -14.7488  -14.5320 N   0  0  0  0  0  0  0  0  0  0  0  0
   16.9455  -14.4348  -15.5981 C   0  0  0  0  0  0  0  0  0  0  0  0
   15.9711  -15.1640  -15.8570 O   0  0  0  0  0  0  0  0  0  0  0  0
   17.2370  -13.2101  -16.3549 C   0  0  0  0  0  0  0  0  0  0  0  0
   18.3934  -12.4583  -15.8350 C   0  0  0  0  0  0  0  0  0  0  0  0
   19.0340  -11.4804  -16.7447 C   0  0  2  0  0  0  0  0  0  0  0  0
   19.9330  -12.1351  -17.6504 N   0  0  0  0  0  0  0  0  0  0  0  0
   19.7877  -10.4211  -16.0276 C   0  0  0  0  0  0  0  0  0  0  0  0
   19.2138   -9.7042  -15.1675 O   0  0  0  0  0  0  0  0  0  0  0  0
   23.7663   -9.3372  -16.9419 O   0  0  0  0  0  0  0  0  0  0  0  0
   23.3779   -9.3066  -15.6008 C   0  0  0  0  0  0  0  0  0  0  0  0
   21.8754   -9.0907  -15.5735 C   0  0  2  0  0  0  0  0  0  0  0  0
   21.1679  -10.1439  -16.2480 N   0  0  0  0  0  0  0  0  0  0  0  0
   21.5242   -7.7417  -16.0412 C   0  0  0  0  0  0  0  0  0  0  0  0
   21.2043   -7.5450  -17.2642 O   0  0  0  0  0  0  0  0  0  0  0  0
   21.5040   -6.5772  -15.2284 N   0  0  0  0  0  0  0  0  0  0  0  0
   21.0908   -5.2829  -15.7728 C   0  0  1  0  0  0  0  0  0  0  0  0
   19.6465   -5.2486  -16.0868 C   0  0  0  0  0  0  0  0  0  0  0  0
   18.7970   -5.4357  -14.8666 C   0  0  0  0  0  0  0  0  0  0  0  0
   17.3399   -5.3216  -15.1068 C   0  0  0  0  0  0  0  0  0  0  0  0
   16.6006   -6.2309  -14.7105 O   0  0  0  0  0  0  0  0  0  0  0  0
   21.4159   -4.2828  -14.7312 C   0  0  0  0  0  0  0  0  0  0  0  0
   21.2485   -3.0425  -14.9853 O   0  0  0  0  0  0  0  0  0  0  0  0
   16.8166   -4.2288  -15.7586 O   0  0  0  0  0  0  0  0  0  0  0  0
   21.8993   -4.5813  -13.4622 O   0  0  0  0  0  0  0  0  0  0  0  0
  2  4  1  0
  2  1  1  0
  3  2  2  0
  5  6  1  0
  5  4  1  0
  6  7  1  6
  6  8  1  0
  8  9  2  0
 10 11  1  0
 12 11  1  6
 12 14  1  0
 13  8  1  0
 13 12  1  0
 14 15  2  0
 16 17  1  0
 16 14  1  0
 17 22  1  0
 18 19  1  0
 17 18  1  1
 20 19  1  0
 21 20  2  0
 22 23  2  0
 22 25  1  0
 24 20  1  0
M  END
$$$$
