QSE.pdb
     RDKit          3D

 25 24  0  0  1  0  0  0  0  0999 V2000
   15.7875  -13.2509  -16.6297 N   0  0  0  0  0  0  0  0  0  0  0  0
   16.8841  -13.8662  -17.3355 C   0  0  0  0  0  0  0  0  0  0  0  0
   16.9124  -15.0898  -17.5597 O   0  0  0  0  0  0  0  0  0  0  0  0
   17.9586  -12.9609  -17.7637 C   0  0  0  0  0  0  0  0  0  0  0  0
   17.7258  -11.5537  -17.3917 C   0  0  0  0  0  0  0  0  0  0  0  0
   18.8027  -10.5828  -17.6945 C   0  0  2  0  0  0  0  0  0  0  0  0
   20.0275  -11.2580  -18.0123 N   0  0  0  0  0  0  0  0  0  0  0  0
   19.0692   -9.6385  -16.5801 C   0  0  0  0  0  0  0  0  0  0  0  0
   18.1353   -8.9498  -16.0936 O   0  0  0  0  0  0  0  0  0  0  0  0
   22.6347   -9.6960  -14.4769 O   0  0  0  0  0  0  0  0  0  0  0  0
   21.4646   -9.3181  -13.8150 C   0  0  0  0  0  0  0  0  0  0  0  0
   20.5748   -8.6292  -14.8340 C   0  0  2  0  0  0  0  0  0  0  0  0
   20.3543   -9.4459  -15.9955 N   0  0  0  0  0  0  0  0  0  0  0  0
   21.0659   -7.2775  -15.1400 C   0  0  0  0  0  0  0  0  0  0  0  0
   21.8480   -7.0839  -16.1338 O   0  0  0  0  0  0  0  0  0  0  0  0
   20.7412   -6.1068  -14.4044 N   0  0  0  0  0  0  0  0  0  0  0  0
   21.2968   -4.8039  -14.7736 C   0  0  1  0  0  0  0  0  0  0  0  0
   20.2555   -3.7568  -14.8449 C   0  0  0  0  0  0  0  0  0  0  0  0
   19.3690   -3.9204  -16.0420 C   0  0  0  0  0  0  0  0  0  0  0  0
   18.0524   -4.5352  -15.7543 C   0  0  0  0  0  0  0  0  0  0  0  0
   17.3872   -4.0966  -14.8080 O   0  0  0  0  0  0  0  0  0  0  0  0
   22.2885   -4.4746  -13.7254 C   0  0  0  0  0  0  0  0  0  0  0  0
   22.3503   -5.2010  -12.6768 O   0  0  0  0  0  0  0  0  0  0  0  0
   17.5772   -5.5742  -16.5211 O   0  0  0  0  0  0  0  0  0  0  0  0
   23.1873   -3.4154  -13.7824 O   0  0  0  0  0  0  0  0  0  0  0  0
  2  4  1  0
  2  1  1  0
  3  2  2  0
  5  6  1  0
  5  4  1  0
  6  7  1  1
  6  8  1  0
  8  9  2  0
 10 11  1  0
 12 11  1  1
 12 14  1  0
 13  8  1  0
 13 12  1  0
 14 15  2  0
 16 17  1  0
 16 14  1  0
 17 22  1  0
 18 19  1  0
 17 18  1  1
 20 19  1  0
 21 20  2  0
 22 23  2  0
 22 25  1  0
 24 20  1  0
M  END
$$$$
