QSE.pdb
     RDKit          3D

 25 24  0  0  1  0  0  0  0  0999 V2000
   19.6823  -12.2362  -20.6806 N   0  0  0  0  0  0  0  0  0  0  0  0
   19.4158  -12.1739  -19.2648 C   0  0  0  0  0  0  0  0  0  0  0  0
   20.1309  -12.7689  -18.4386 O   0  0  0  0  0  0  0  0  0  0  0  0
   18.2510  -11.3724  -18.8671 C   0  0  0  0  0  0  0  0  0  0  0  0
   18.5905  -10.2329  -17.9958 C   0  0  0  0  0  0  0  0  0  0  0  0
   19.0755  -10.5412  -16.6306 C   0  0  2  0  0  0  0  0  0  0  0  0
   18.0744  -11.2376  -15.8757 N   0  0  0  0  0  0  0  0  0  0  0  0
   19.4766   -9.3334  -15.8657 C   0  0  0  0  0  0  0  0  0  0  0  0
   18.6120   -8.4937  -15.5046 O   0  0  0  0  0  0  0  0  0  0  0  0
   22.2915   -8.4993  -12.8257 O   0  0  0  0  0  0  0  0  0  0  0  0
   22.5425   -7.9915  -14.1021 C   0  0  0  0  0  0  0  0  0  0  0  0
   21.2014   -7.8435  -14.7981 C   0  0  2  0  0  0  0  0  0  0  0  0
   20.8209   -9.0417  -15.4939 N   0  0  0  0  0  0  0  0  0  0  0  0
   21.1668   -6.6331  -15.6322 C   0  0  0  0  0  0  0  0  0  0  0  0
   21.5158   -6.6858  -16.8619 O   0  0  0  0  0  0  0  0  0  0  0  0
   20.7637   -5.3468  -15.1850 N   0  0  0  0  0  0  0  0  0  0  0  0
   20.7696   -4.1961  -16.0896 C   0  0  1  0  0  0  0  0  0  0  0  0
   19.4199   -3.6169  -16.2593 C   0  0  0  0  0  0  0  0  0  0  0  0
   19.4347   -2.3885  -17.1175 C   0  0  0  0  0  0  0  0  0  0  0  0
   18.1086   -1.7589  -17.3151 C   0  0  0  0  0  0  0  0  0  0  0  0
   17.0989   -2.4710  -17.2533 O   0  0  0  0  0  0  0  0  0  0  0  0
   21.6830   -3.2048  -15.4783 C   0  0  0  0  0  0  0  0  0  0  0  0
   21.7793   -3.1488  -14.2060 O   0  0  0  0  0  0  0  0  0  0  0  0
   17.9990   -0.4102  -17.5642 O   0  0  0  0  0  0  0  0  0  0  0  0
   22.4711   -2.3040  -16.1856 O   0  0  0  0  0  0  0  0  0  0  0  0
  2  4  1  0
  2  1  1  0
  3  2  2  0
  5  6  1  0
  5  4  1  0
  6  7  1  1
  6  8  1  0
  8  9  2  0
 10 11  1  0
 12 11  1  6
 12 14  1  0
 13  8  1  0
 13 12  1  0
 14 15  2  0
 16 17  1  0
 16 14  1  0
 17 22  1  0
 18 19  1  0
 17 18  1  1
 20 19  1  0
 21 20  2  0
 22 23  2  0
 22 25  1  0
 24 20  1  0
M  END
$$$$
