QSE.pdb
     RDKit          3D

 25 24  0  0  1  0  0  0  0  0999 V2000
   19.2653  -15.8743  -17.6540 N   0  0  0  0  0  0  0  0  0  0  0  0
   18.3406  -15.9383  -16.5494 C   0  0  0  0  0  0  0  0  0  0  0  0
   17.5239  -16.8699  -16.4341 O   0  0  0  0  0  0  0  0  0  0  0  0
   18.4229  -14.8373  -15.5807 C   0  0  0  0  0  0  0  0  0  0  0  0
   19.4469  -13.8320  -15.9179 C   0  0  0  0  0  0  0  0  0  0  0  0
   18.9731  -12.4954  -16.3458 C   0  0  2  0  0  0  0  0  0  0  0  0
   18.0923  -12.6000  -17.4729 N   0  0  0  0  0  0  0  0  0  0  0  0
   20.0778  -11.5706  -16.7047 C   0  0  0  0  0  0  0  0  0  0  0  0
   20.8874  -11.1762  -15.8260 O   0  0  0  0  0  0  0  0  0  0  0  0
   20.2970   -9.6227  -20.3961 O   0  0  0  0  0  0  0  0  0  0  0  0
   21.5266   -9.9752  -19.8358 C   0  0  0  0  0  0  0  0  0  0  0  0
   21.3156  -10.1098  -18.3384 C   0  0  2  0  0  0  0  0  0  0  0  0
   20.3004  -11.0764  -18.0226 N   0  0  0  0  0  0  0  0  0  0  0  0
   21.1040   -8.7965  -17.7119 C   0  0  0  0  0  0  0  0  0  0  0  0
   19.9195   -8.3858  -17.4566 O   0  0  0  0  0  0  0  0  0  0  0  0
   22.1367   -7.8937  -17.3435 N   0  0  0  0  0  0  0  0  0  0  0  0
   21.8259   -6.5841  -16.7684 C   0  0  1  0  0  0  0  0  0  0  0  0
   22.2393   -6.4878  -15.3522 C   0  0  0  0  0  0  0  0  0  0  0  0
   22.0114   -5.1186  -14.7876 C   0  0  0  0  0  0  0  0  0  0  0  0
   22.3451   -4.9810  -13.3510 C   0  0  0  0  0  0  0  0  0  0  0  0
   22.2887   -5.9850  -12.6304 O   0  0  0  0  0  0  0  0  0  0  0  0
   22.5621   -5.5963  -17.5888 C   0  0  0  0  0  0  0  0  0  0  0  0
   23.4965   -6.0006  -18.3599 O   0  0  0  0  0  0  0  0  0  0  0  0
   22.7090   -3.7626  -12.8257 O   0  0  0  0  0  0  0  0  0  0  0  0
   22.3190   -4.2275  -17.5977 O   0  0  0  0  0  0  0  0  0  0  0  0
  2  4  1  0
  2  1  1  0
  3  2  2  0
  5  6  1  0
  5  4  1  0
  6  7  1  6
  6  8  1  0
  8  9  2  0
 10 11  1  0
 12 11  1  6
 12 14  1  0
 13  8  1  0
 13 12  1  0
 14 15  2  0
 16 17  1  0
 16 14  1  0
 17 22  1  0
 18 19  1  0
 17 18  1  1
 20 19  1  0
 21 20  2  0
 22 23  2  0
 22 25  1  0
 24 20  1  0
M  END
$$$$
