EFG.pdb
     RDKit          3D

 25 25  0  0  1  0  0  0  0  0999 V2000
   13.8803  -28.4247    4.6634 N   0  0  0  0  0  0  0  0  0  0  0  0
   14.5770  -27.2090    5.0372 C   0  0  1  0  0  0  0  0  0  0  0  0
   14.6079  -27.0718    6.5430 C   0  0  0  0  0  0  0  0  0  0  0  0
   13.2700  -26.7006    7.1057 C   0  0  0  0  0  0  0  0  0  0  0  0
   13.0436  -25.2438    6.9857 C   0  0  0  0  0  0  0  0  0  0  0  0
   12.4240  -24.7808    5.9897 O   0  0  0  0  0  0  0  0  0  0  0  0
   15.9624  -27.2618    4.4740 C   0  0  0  0  0  0  0  0  0  0  0  0
   16.5282  -28.3706    4.3097 O   0  0  0  0  0  0  0  0  0  0  0  0
   13.4962  -24.3547    7.9458 O   0  0  0  0  0  0  0  0  0  0  0  0
   16.6714  -26.0856    4.1132 N   0  0  0  0  0  0  0  0  0  0  0  0
   17.9881  -26.0409    3.5319 C   0  0  1  0  0  0  0  0  0  0  0  0
   18.0974  -25.1267    2.3114 C   0  0  0  0  0  0  0  0  0  0  0  0
   19.4007  -25.2769    1.6099 C   0  0  0  0  0  0  0  0  0  0  0  0
   19.6360  -26.1139    0.5508 C   0  0  0  0  0  0  0  0  0  0  0  0
   20.8853  -26.2118   -0.0496 C   0  0  0  0  0  0  0  0  0  0  0  0
   21.9436  -25.4622    0.4032 C   0  0  0  0  0  0  0  0  0  0  0  0
   21.7123  -24.6272    1.4577 C   0  0  0  0  0  0  0  0  0  0  0  0
   20.4948  -24.5183    2.0586 C   0  0  0  0  0  0  0  0  0  0  0  0
   19.0565  -25.7773    4.5152 C   0  0  0  0  0  0  0  0  0  0  0  0
   20.2571  -25.7638    4.1259 O   0  0  0  0  0  0  0  0  0  0  0  0
   18.8214  -25.5347    5.8870 N   0  0  0  0  0  0  0  0  0  0  0  0
   19.9282  -25.2968    6.8275 C   0  0  0  0  0  0  0  0  0  0  0  0
   20.4480  -26.5855    7.3455 C   0  0  0  0  0  0  0  0  0  0  0  0
   21.3491  -26.5895    8.2113 O   0  0  0  0  0  0  0  0  0  0  0  0
   19.9446  -27.7841    6.8791 O   0  0  0  0  0  0  0  0  0  0  0  0
  2  1  1  1
  2  7  1  0
  3  2  1  0
  4  3  1  0
  5  4  1  0
  6  5  2  0
  7 10  1  0
  7  8  2  0
  9  5  1  0
 10 11  1  0
 11 12  1  6
 13 12  1  0
 14 13  2  0
 15 14  1  0
 16 17  1  0
 16 15  2  0
 17 18  2  0
 18 13  1  0
 19 21  1  0
 19 11  1  0
 20 19  2  0
 22 21  1  0
 23 22  1  0
 24 23  2  0
 25 23  1  0
M  END
$$$$
