EFG.pdb
     RDKit          3D

 25 25  0  0  1  0  0  0  0  0999 V2000
   22.8879  -21.9650  -14.5174 N   0  0  0  0  0  0  0  0  0  0  0  0
   22.7719  -20.5409  -14.2695 C   0  0  1  0  0  0  0  0  0  0  0  0
   21.7584  -20.2862  -13.1763 C   0  0  0  0  0  0  0  0  0  0  0  0
   20.6682  -21.3136  -13.1638 C   0  0  0  0  0  0  0  0  0  0  0  0
   19.6575  -20.9840  -12.1353 C   0  0  0  0  0  0  0  0  0  0  0  0
   18.6623  -21.7391  -11.9629 O   0  0  0  0  0  0  0  0  0  0  0  0
   24.1188  -20.0128  -13.8870 C   0  0  0  0  0  0  0  0  0  0  0  0
   24.2596  -18.7935  -13.6218 O   0  0  0  0  0  0  0  0  0  0  0  0
   19.7678  -19.8553  -11.3409 O   0  0  0  0  0  0  0  0  0  0  0  0
   25.2610  -20.8531  -13.8118 N   0  0  0  0  0  0  0  0  0  0  0  0
   26.5789  -20.4477  -13.3963 C   0  0  1  0  0  0  0  0  0  0  0  0
   27.1105  -21.2126  -12.1840 C   0  0  0  0  0  0  0  0  0  0  0  0
   26.2941  -20.9720  -10.9639 C   0  0  0  0  0  0  0  0  0  0  0  0
   26.5308  -19.9926  -10.0353 C   0  0  0  0  0  0  0  0  0  0  0  0
   25.7313  -19.8332   -8.9100 C   0  0  0  0  0  0  0  0  0  0  0  0
   24.6599  -20.6631   -8.6855 C   0  0  0  0  0  0  0  0  0  0  0  0
   24.4212  -21.6395   -9.6088 C   0  0  0  0  0  0  0  0  0  0  0  0
   25.1941  -21.8106  -10.7173 C   0  0  0  0  0  0  0  0  0  0  0  0
   27.5587  -20.4134  -14.4993 C   0  0  0  0  0  0  0  0  0  0  0  0
   28.7585  -20.1165  -14.2434 O   0  0  0  0  0  0  0  0  0  0  0  0
   27.2382  -20.6957  -15.8460 N   0  0  0  0  0  0  0  0  0  0  0  0
   28.2672  -20.6969  -16.8983 C   0  0  0  0  0  0  0  0  0  0  0  0
   27.9791  -19.6416  -17.8996 C   0  0  0  0  0  0  0  0  0  0  0  0
   26.8542  -19.0982  -17.9240 O   0  0  0  0  0  0  0  0  0  0  0  0
   28.9445  -19.2527  -18.8077 O   0  0  0  0  0  0  0  0  0  0  0  0
  2  1  1  1
  2  7  1  0
  3  2  1  0
  4  3  1  0
  5  4  1  0
  6  5  2  0
  7 10  1  0
  7  8  2  0
  9  5  1  0
 10 11  1  0
 11 12  1  1
 13 12  1  0
 14 13  2  0
 15 14  1  0
 16 17  1  0
 16 15  2  0
 17 18  2  0
 18 13  1  0
 19 21  1  0
 19 11  1  0
 20 19  2  0
 22 21  1  0
 23 22  1  0
 24 23  2  0
 25 23  1  0
M  END
$$$$
