EFG.pdb
     RDKit          3D

 25 25  0  0  1  0  0  0  0  0999 V2000
   23.5180  -11.9649  -19.3041 N   0  0  0  0  0  0  0  0  0  0  0  0
   23.2797  -10.5346  -19.3253 C   0  0  1  0  0  0  0  0  0  0  0  0
   21.9935  -10.2346  -20.0620 C   0  0  0  0  0  0  0  0  0  0  0  0
   22.1149  -10.4766  -21.5355 C   0  0  0  0  0  0  0  0  0  0  0  0
   20.9138   -9.9812  -22.2425 C   0  0  0  0  0  0  0  0  0  0  0  0
   19.9487  -10.7603  -22.4705 O   0  0  0  0  0  0  0  0  0  0  0  0
   23.2180  -10.0411  -17.9139 C   0  0  0  0  0  0  0  0  0  0  0  0
   22.7453  -10.7786  -17.0143 O   0  0  0  0  0  0  0  0  0  0  0  0
   20.8100   -8.6684  -22.6704 O   0  0  0  0  0  0  0  0  0  0  0  0
   23.6817   -8.7495  -17.5493 N   0  0  0  0  0  0  0  0  0  0  0  0
   23.6846   -8.2004  -16.2181 C   0  0  1  0  0  0  0  0  0  0  0  0
   25.0740   -7.8199  -15.7063 C   0  0  0  0  0  0  0  0  0  0  0  0
   26.0500   -8.9341  -15.8445 C   0  0  0  0  0  0  0  0  0  0  0  0
   27.0088   -9.0284  -16.8189 C   0  0  0  0  0  0  0  0  0  0  0  0
   27.8815  -10.1070  -16.8941 C   0  0  0  0  0  0  0  0  0  0  0  0
   27.8136  -11.1314  -15.9814 C   0  0  0  0  0  0  0  0  0  0  0  0
   26.8598  -11.0403  -15.0094 C   0  0  0  0  0  0  0  0  0  0  0  0
   25.9960   -9.9909  -14.9202 C   0  0  0  0  0  0  0  0  0  0  0  0
   22.7100   -7.1084  -16.0302 C   0  0  0  0  0  0  0  0  0  0  0  0
   22.7135   -6.1388  -16.8383 O   0  0  0  0  0  0  0  0  0  0  0  0
   21.7566   -7.0748  -14.9880 N   0  0  0  0  0  0  0  0  0  0  0  0
   20.7468   -6.0074  -14.9024 C   0  0  0  0  0  0  0  0  0  0  0  0
   19.4482   -6.4848  -15.4362 C   0  0  0  0  0  0  0  0  0  0  0  0
   19.3994   -7.0240  -16.5623 O   0  0  0  0  0  0  0  0  0  0  0  0
   18.2895   -6.3389  -14.6987 O   0  0  0  0  0  0  0  0  0  0  0  0
  2  1  1  1
  2  7  1  0
  3  2  1  0
  4  3  1  0
  5  4  1  0
  6  5  2  0
  7 10  1  0
  7  8  2  0
  9  5  1  0
 10 11  1  0
 11 12  1  6
 13 12  1  0
 14 13  2  0
 15 14  1  0
 16 17  1  0
 16 15  2  0
 17 18  2  0
 18 13  1  0
 19 21  1  0
 19 11  1  0
 20 19  2  0
 22 21  1  0
 23 22  1  0
 24 23  2  0
 25 23  1  0
M  END
$$$$
