EFG.pdb
     RDKit          3D

 25 25  0  0  1  0  0  0  0  0999 V2000
   20.7377  -10.3678  -17.9596 N   0  0  0  0  0  0  0  0  0  0  0  0
   20.6564   -8.9204  -17.9958 C   0  0  1  0  0  0  0  0  0  0  0  0
   19.4621   -8.4890  -18.8172 C   0  0  0  0  0  0  0  0  0  0  0  0
   19.6822   -8.6891  -20.2854 C   0  0  0  0  0  0  0  0  0  0  0  0
   20.6713   -7.7163  -20.7984 C   0  0  0  0  0  0  0  0  0  0  0  0
   20.4447   -6.4788  -20.7098 O   0  0  0  0  0  0  0  0  0  0  0  0
   20.5537   -8.4139  -16.5914 C   0  0  0  0  0  0  0  0  0  0  0  0
   20.0364   -9.1353  -15.7034 O   0  0  0  0  0  0  0  0  0  0  0  0
   21.8585   -8.1238  -21.3828 O   0  0  0  0  0  0  0  0  0  0  0  0
   21.0272   -7.1276  -16.2208 N   0  0  0  0  0  0  0  0  0  0  0  0
   21.0384   -6.5866  -14.8863 C   0  0  1  0  0  0  0  0  0  0  0  0
   22.4403   -6.3623  -14.3190 C   0  0  0  0  0  0  0  0  0  0  0  0
   23.3131   -7.5553  -14.4860 C   0  0  0  0  0  0  0  0  0  0  0  0
   23.2946   -8.6663  -13.6841 C   0  0  0  0  0  0  0  0  0  0  0  0
   24.1493   -9.7418  -13.8927 C   0  0  0  0  0  0  0  0  0  0  0  0
   25.0558   -9.7296  -14.9247 C   0  0  0  0  0  0  0  0  0  0  0  0
   25.0765   -8.6246  -15.7255 C   0  0  0  0  0  0  0  0  0  0  0  0
   24.2465   -7.5613  -15.5361 C   0  0  0  0  0  0  0  0  0  0  0  0
   20.1826   -5.3949  -14.7276 C   0  0  0  0  0  0  0  0  0  0  0  0
   20.6417   -4.2641  -15.0497 O   0  0  0  0  0  0  0  0  0  0  0  0
   18.8607   -5.4356  -14.2305 N   0  0  0  0  0  0  0  0  0  0  0  0
   18.0470   -4.2155  -14.1062 C   0  0  0  0  0  0  0  0  0  0  0  0
   17.6778   -3.7054  -15.4489 C   0  0  0  0  0  0  0  0  0  0  0  0
   18.2053   -2.6592  -15.8832 O   0  0  0  0  0  0  0  0  0  0  0  0
   16.7544   -4.3772  -16.2258 O   0  0  0  0  0  0  0  0  0  0  0  0
  2  1  1  1
  2  7  1  0
  3  2  1  0
  4  3  1  0
  5  4  1  0
  6  5  2  0
  7 10  1  0
  7  8  2  0
  9  5  1  0
 10 11  1  0
 11 12  1  6
 13 12  1  0
 14 13  2  0
 15 14  1  0
 16 17  1  0
 16 15  2  0
 17 18  2  0
 18 13  1  0
 19 21  1  0
 19 11  1  0
 20 19  2  0
 22 21  1  0
 23 22  1  0
 24 23  2  0
 25 23  1  0
M  END
$$$$
