EFG.pdb
     RDKit          3D

 25 25  0  0  1  0  0  0  0  0999 V2000
   26.7632  -19.3540  -16.7300 N   0  0  0  0  0  0  0  0  0  0  0  0
   25.9384  -18.7830  -15.6828 C   0  0  1  0  0  0  0  0  0  0  0  0
   24.6616  -18.2282  -16.2735 C   0  0  0  0  0  0  0  0  0  0  0  0
   24.7333  -18.1068  -17.7650 C   0  0  0  0  0  0  0  0  0  0  0  0
   23.6980  -17.1729  -18.2591 C   0  0  0  0  0  0  0  0  0  0  0  0
   24.0130  -15.9965  -18.5866 O   0  0  0  0  0  0  0  0  0  0  0  0
   25.6449  -19.8483  -14.6737 C   0  0  0  0  0  0  0  0  0  0  0  0
   25.6490  -21.0552  -15.0201 O   0  0  0  0  0  0  0  0  0  0  0  0
   22.3714  -17.5518  -18.3766 O   0  0  0  0  0  0  0  0  0  0  0  0
   25.3574  -19.5393  -13.3179 N   0  0  0  0  0  0  0  0  0  0  0  0
   25.0031  -20.4886  -12.2946 C   0  0  1  0  0  0  0  0  0  0  0  0
   25.8484  -20.3780  -11.0255 C   0  0  0  0  0  0  0  0  0  0  0  0
   27.2924  -20.6222  -11.2874 C   0  0  0  0  0  0  0  0  0  0  0  0
   28.0227  -21.6637  -10.7780 C   0  0  0  0  0  0  0  0  0  0  0  0
   29.3746  -21.8233  -11.0563 C   0  0  0  0  0  0  0  0  0  0  0  0
   30.0364  -20.9304  -11.8637 C   0  0  0  0  0  0  0  0  0  0  0  0
   29.3117  -19.8921  -12.3730 C   0  0  0  0  0  0  0  0  0  0  0  0
   27.9862  -19.7197  -12.1109 C   0  0  0  0  0  0  0  0  0  0  0  0
   23.5587  -20.5173  -11.9937 C   0  0  0  0  0  0  0  0  0  0  0  0
   23.1244  -19.8536  -11.0119 O   0  0  0  0  0  0  0  0  0  0  0  0
   22.6128  -21.2510  -12.7442 N   0  0  0  0  0  0  0  0  0  0  0  0
   21.1867  -21.2672  -12.3803 C   0  0  0  0  0  0  0  0  0  0  0  0
   20.4013  -21.9859  -13.4126 C   0  0  0  0  0  0  0  0  0  0  0  0
   20.9813  -22.4789  -14.4036 O   0  0  0  0  0  0  0  0  0  0  0  0
   19.0318  -22.1160  -13.2890 O   0  0  0  0  0  0  0  0  0  0  0  0
  2  1  1  6
  2  7  1  0
  3  2  1  0
  4  3  1  0
  5  4  1  0
  6  5  2  0
  7 10  1  0
  7  8  2  0
  9  5  1  0
 10 11  1  0
 11 12  1  1
 13 12  1  0
 14 13  2  0
 15 14  1  0
 16 17  1  0
 16 15  2  0
 17 18  2  0
 18 13  1  0
 19 21  1  0
 19 11  1  0
 20 19  2  0
 22 21  1  0
 23 22  1  0
 24 23  2  0
 25 23  1  0
M  END
$$$$
