EFG.pdb
     RDKit          3D

 25 25  0  0  1  0  0  0  0  0999 V2000
   26.6696  -23.7808  -17.1511 N   0  0  0  0  0  0  0  0  0  0  0  0
   27.0283  -22.5130  -16.5452 C   0  0  1  0  0  0  0  0  0  0  0  0
   26.6599  -21.3744  -17.4698 C   0  0  0  0  0  0  0  0  0  0  0  0
   25.5823  -21.7564  -18.4377 C   0  0  0  0  0  0  0  0  0  0  0  0
   24.3721  -20.9352  -18.2163 C   0  0  0  0  0  0  0  0  0  0  0  0
   24.4824  -19.7110  -17.9342 O   0  0  0  0  0  0  0  0  0  0  0  0
   26.3159  -22.3929  -15.2347 C   0  0  0  0  0  0  0  0  0  0  0  0
   25.3216  -23.1213  -14.9951 O   0  0  0  0  0  0  0  0  0  0  0  0
   23.0996  -21.4730  -18.3096 O   0  0  0  0  0  0  0  0  0  0  0  0
   26.7297  -21.4711  -14.2370 N   0  0  0  0  0  0  0  0  0  0  0  0
   26.1044  -21.2822  -12.9537 C   0  0  1  0  0  0  0  0  0  0  0  0
   27.0741  -20.8734  -11.8446 C   0  0  0  0  0  0  0  0  0  0  0  0
   26.3839  -20.6552  -10.5450 C   0  0  0  0  0  0  0  0  0  0  0  0
   26.2385  -19.4439   -9.9212 C   0  0  0  0  0  0  0  0  0  0  0  0
   25.5902  -19.3160   -8.6988 C   0  0  0  0  0  0  0  0  0  0  0  0
   25.0644  -20.4145   -8.0635 C   0  0  0  0  0  0  0  0  0  0  0  0
   25.2072  -21.6225   -8.6824 C   0  0  0  0  0  0  0  0  0  0  0  0
   25.8395  -21.7669   -9.8802 C   0  0  0  0  0  0  0  0  0  0  0  0
   24.9192  -20.4042  -13.0005 C   0  0  0  0  0  0  0  0  0  0  0  0
   25.0610  -19.2030  -13.3611 O   0  0  0  0  0  0  0  0  0  0  0  0
   23.6136  -20.8256  -12.6628 N   0  0  0  0  0  0  0  0  0  0  0  0
   22.4789  -19.8882  -12.6592 C   0  0  0  0  0  0  0  0  0  0  0  0
   21.2368  -20.5869  -12.2489 C   0  0  0  0  0  0  0  0  0  0  0  0
   21.2529  -21.8213  -12.0552 O   0  0  0  0  0  0  0  0  0  0  0  0
   20.0597  -19.8848  -12.0784 O   0  0  0  0  0  0  0  0  0  0  0  0
  2  1  1  6
  2  7  1  0
  3  2  1  0
  4  3  1  0
  5  4  1  0
  6  5  2  0
  7 10  1  0
  7  8  2  0
  9  5  1  0
 10 11  1  0
 11 12  1  1
 13 12  1  0
 14 13  2  0
 15 14  1  0
 16 17  1  0
 16 15  2  0
 17 18  2  0
 18 13  1  0
 19 21  1  0
 19 11  1  0
 20 19  2  0
 22 21  1  0
 23 22  1  0
 24 23  2  0
 25 23  1  0
M  END
$$$$
