EFG.pdb
     RDKit          3D

 25 25  0  0  1  0  0  0  0  0999 V2000
   20.9594  -10.6866  -17.7100 N   0  0  0  0  0  0  0  0  0  0  0  0
   20.7329   -9.2941  -18.0453 C   0  0  1  0  0  0  0  0  0  0  0  0
   19.4314   -9.1484  -18.8016 C   0  0  0  0  0  0  0  0  0  0  0  0
   19.5330   -9.6562  -20.2074 C   0  0  0  0  0  0  0  0  0  0  0  0
   19.9250   -8.5646  -21.1254 C   0  0  0  0  0  0  0  0  0  0  0  0
   19.2789   -8.3731  -22.1914 O   0  0  0  0  0  0  0  0  0  0  0  0
   20.7107   -8.4968  -16.7792 C   0  0  0  0  0  0  0  0  0  0  0  0
   20.1067   -8.9408  -15.7719 O   0  0  0  0  0  0  0  0  0  0  0  0
   20.9956   -7.7306  -20.8505 O   0  0  0  0  0  0  0  0  0  0  0  0
   21.3575   -7.2371  -16.6738 N   0  0  0  0  0  0  0  0  0  0  0  0
   21.3937   -6.4047  -15.4993 C   0  0  1  0  0  0  0  0  0  0  0  0
   22.7907   -6.2338  -14.9022 C   0  0  0  0  0  0  0  0  0  0  0  0
   23.4768   -7.5370  -14.6920 C   0  0  0  0  0  0  0  0  0  0  0  0
   23.1442   -8.4597  -13.7351 C   0  0  0  0  0  0  0  0  0  0  0  0
   23.8385   -9.6543  -13.5883 C   0  0  0  0  0  0  0  0  0  0  0  0
   24.8976   -9.9573  -14.4089 C   0  0  0  0  0  0  0  0  0  0  0  0
   25.2312   -9.0405  -15.3633 C   0  0  0  0  0  0  0  0  0  0  0  0
   24.5622   -7.8646  -15.5217 C   0  0  0  0  0  0  0  0  0  0  0  0
   20.7073   -5.1101  -15.6745 C   0  0  0  0  0  0  0  0  0  0  0  0
   21.2678   -4.2072  -16.3555 O   0  0  0  0  0  0  0  0  0  0  0  0
   19.4427   -4.8085  -15.1214 N   0  0  0  0  0  0  0  0  0  0  0  0
   18.7889   -3.5111  -15.3572 C   0  0  0  0  0  0  0  0  0  0  0  0
   17.5168   -3.4318  -14.5993 C   0  0  0  0  0  0  0  0  0  0  0  0
   17.0145   -4.4694  -14.1173 O   0  0  0  0  0  0  0  0  0  0  0  0
   16.8802   -2.2191  -14.4206 O   0  0  0  0  0  0  0  0  0  0  0  0
  2  1  1  1
  2  7  1  0
  3  2  1  0
  4  3  1  0
  5  4  1  0
  6  5  2  0
  7 10  1  0
  7  8  2  0
  9  5  1  0
 10 11  1  0
 11 12  1  6
 13 12  1  0
 14 13  2  0
 15 14  1  0
 16 17  1  0
 16 15  2  0
 17 18  2  0
 18 13  1  0
 19 21  1  0
 19 11  1  0
 20 19  2  0
 22 21  1  0
 23 22  1  0
 24 23  2  0
 25 23  1  0
M  END
$$$$
