EFG.pdb
     RDKit          3D

 25 25  0  0  1  0  0  0  0  0999 V2000
   20.3187  -11.9501  -16.7082 N   0  0  0  0  0  0  0  0  0  0  0  0
   20.0650  -10.5954  -17.1591 C   0  0  1  0  0  0  0  0  0  0  0  0
   19.0227  -10.6008  -18.2548 C   0  0  0  0  0  0  0  0  0  0  0  0
   19.5336  -11.2193  -19.5200 C   0  0  0  0  0  0  0  0  0  0  0  0
   18.5133  -11.1336  -20.5874 C   0  0  0  0  0  0  0  0  0  0  0  0
   18.3280  -10.0459  -21.1981 O   0  0  0  0  0  0  0  0  0  0  0  0
   19.6101   -9.7812  -15.9889 C   0  0  0  0  0  0  0  0  0  0  0  0
   18.9667  -10.3282  -15.0596 O   0  0  0  0  0  0  0  0  0  0  0  0
   17.7407  -12.2251  -20.9461 O   0  0  0  0  0  0  0  0  0  0  0  0
   19.8837   -8.3914  -15.8894 N   0  0  0  0  0  0  0  0  0  0  0  0
   19.6702   -7.5724  -14.7244 C   0  0  1  0  0  0  0  0  0  0  0  0
   20.8569   -7.5417  -13.7610 C   0  0  0  0  0  0  0  0  0  0  0  0
   22.1234   -7.1558  -14.4394 C   0  0  0  0  0  0  0  0  0  0  0  0
   22.5043   -5.8721  -14.7307 C   0  0  0  0  0  0  0  0  0  0  0  0
   23.6996   -5.5857  -15.3787 C   0  0  0  0  0  0  0  0  0  0  0  0
   24.5542   -6.5930  -15.7553 C   0  0  0  0  0  0  0  0  0  0  0  0
   24.1779   -7.8727  -15.4662 C   0  0  0  0  0  0  0  0  0  0  0  0
   23.0102   -8.1723  -14.8320 C   0  0  0  0  0  0  0  0  0  0  0  0
   19.1819   -6.2161  -15.0405 C   0  0  0  0  0  0  0  0  0  0  0  0
   19.6893   -5.5942  -16.0145 O   0  0  0  0  0  0  0  0  0  0  0  0
   18.1667   -5.5556  -14.3130 N   0  0  0  0  0  0  0  0  0  0  0  0
   17.7742   -4.1712  -14.6224 C   0  0  0  0  0  0  0  0  0  0  0  0
   18.9082   -3.2482  -14.3742 C   0  0  0  0  0  0  0  0  0  0  0  0
   19.4349   -3.2009  -13.2421 O   0  0  0  0  0  0  0  0  0  0  0  0
   19.3888   -2.4386  -15.3847 O   0  0  0  0  0  0  0  0  0  0  0  0
  2  1  1  1
  2  7  1  0
  3  2  1  0
  4  3  1  0
  5  4  1  0
  6  5  2  0
  7 10  1  0
  7  8  2  0
  9  5  1  0
 10 11  1  0
 11 12  1  6
 13 12  1  0
 14 13  2  0
 15 14  1  0
 16 17  1  0
 16 15  2  0
 17 18  2  0
 18 13  1  0
 19 21  1  0
 19 11  1  0
 20 19  2  0
 22 21  1  0
 23 22  1  0
 24 23  2  0
 25 23  1  0
M  END
$$$$
