EFG.pdb
     RDKit          3D

 25 25  0  0  1  0  0  0  0  0999 V2000
   28.4905  -21.7267  -14.8932 N   0  0  0  0  0  0  0  0  0  0  0  0
   27.6510  -20.6432  -14.4196 C   0  0  1  0  0  0  0  0  0  0  0  0
   26.9362  -19.9947  -15.5840 C   0  0  0  0  0  0  0  0  0  0  0  0
   27.8751  -19.2447  -16.4786 C   0  0  0  0  0  0  0  0  0  0  0  0
   27.8592  -17.8018  -16.1532 C   0  0  0  0  0  0  0  0  0  0  0  0
   28.8408  -17.2772  -15.5602 O   0  0  0  0  0  0  0  0  0  0  0  0
   26.6741  -21.1954  -13.4297 C   0  0  0  0  0  0  0  0  0  0  0  0
   26.2331  -22.3625  -13.5714 O   0  0  0  0  0  0  0  0  0  0  0  0
   26.7851  -16.9926  -16.4826 O   0  0  0  0  0  0  0  0  0  0  0  0
   26.2206  -20.4360  -12.3188 N   0  0  0  0  0  0  0  0  0  0  0  0
   25.2062  -20.8403  -11.3800 C   0  0  1  0  0  0  0  0  0  0  0  0
   25.3908  -20.2594   -9.9780 C   0  0  0  0  0  0  0  0  0  0  0  0
   26.7437  -20.5389   -9.4260 C   0  0  0  0  0  0  0  0  0  0  0  0
   27.6631  -21.3899   -9.9810 C   0  0  0  0  0  0  0  0  0  0  0  0
   28.9068  -21.6124   -9.4026 C   0  0  0  0  0  0  0  0  0  0  0  0
   29.2641  -20.9779   -8.2378 C   0  0  0  0  0  0  0  0  0  0  0  0
   28.3506  -20.1293   -7.6827 C   0  0  0  0  0  0  0  0  0  0  0  0
   27.1271  -19.8992   -8.2353 C   0  0  0  0  0  0  0  0  0  0  0  0
   23.8313  -20.6468  -11.8801 C   0  0  0  0  0  0  0  0  0  0  0  0
   23.1951  -19.6121  -11.5369 O   0  0  0  0  0  0  0  0  0  0  0  0
   23.1680  -21.5580  -12.7320 N   0  0  0  0  0  0  0  0  0  0  0  0
   21.9041  -21.2072  -13.3998 C   0  0  0  0  0  0  0  0  0  0  0  0
   20.7558  -21.7911  -12.6652 C   0  0  0  0  0  0  0  0  0  0  0  0
   20.5692  -23.0265  -12.6838 O   0  0  0  0  0  0  0  0  0  0  0  0
   19.8886  -20.9806  -11.9589 O   0  0  0  0  0  0  0  0  0  0  0  0
  2  1  1  6
  2  7  1  0
  3  2  1  0
  4  3  1  0
  5  4  1  0
  6  5  2  0
  7 10  1  0
  7  8  2  0
  9  5  1  0
 10 11  1  0
 11 12  1  1
 13 12  1  0
 14 13  2  0
 15 14  1  0
 16 17  1  0
 16 15  2  0
 17 18  2  0
 18 13  1  0
 19 21  1  0
 19 11  1  0
 20 19  2  0
 22 21  1  0
 23 22  1  0
 24 23  2  0
 25 23  1  0
M  END
$$$$
