FWW.pdb
     RDKit          3D

 40 44  0  0  1  0  0  0  0  0999 V2000
    6.6288  -20.0070   21.7600 N   0  0  0  0  0  0  0  0  0  0  0  0
    6.3100  -18.5957   21.8353 C   0  0  1  0  0  0  0  0  0  0  0  0
    5.4017  -18.3367   23.0448 C   0  0  0  0  0  0  0  0  0  0  0  0
    6.1415  -18.6141   24.2956 C   0  0  0  0  0  0  0  0  0  0  0  0
    6.1881  -17.6757   25.2985 C   0  0  0  0  0  0  0  0  0  0  0  0
    6.9003  -17.9819   26.4578 C   0  0  0  0  0  0  0  0  0  0  0  0
    7.5168  -19.2027   26.5367 C   0  0  0  0  0  0  0  0  0  0  0  0
    7.4711  -20.1342   25.5424 C   0  0  0  0  0  0  0  0  0  0  0  0
    6.7680  -19.8446   24.3855 C   0  0  0  0  0  0  0  0  0  0  0  0
    7.5314  -17.7737   22.0355 C   0  0  0  0  0  0  0  0  0  0  0  0
    8.6867  -18.2472   21.8302 O   0  0  0  0  0  0  0  0  0  0  0  0
    7.4623  -16.4192   22.4620 N   0  0  0  0  0  0  0  0  0  0  0  0
    8.6291  -15.5316   22.4433 C   0  0  1  0  0  0  0  0  0  0  0  0
    8.2203  -14.1708   21.9641 C   0  0  0  0  0  0  0  0  0  0  0  0
    7.7450  -14.0798   20.5907 C   0  0  0  0  0  0  0  0  0  0  0  0
    6.4706  -14.2968   20.0872 C   0  0  0  0  0  0  0  0  0  0  0  0
    6.4479  -14.0477   18.7803 N   0  0  0  0  0  0  0  0  0  0  0  0
    7.6767  -13.6691   18.3898 C   0  0  0  0  0  0  0  0  0  0  0  0
    8.1708  -13.3243   17.1600 C   0  0  0  0  0  0  0  0  0  0  0  0
    9.4828  -12.9860   16.9820 C   0  0  0  0  0  0  0  0  0  0  0  0
   10.3418  -12.9904   18.0724 C   0  0  0  0  0  0  0  0  0  0  0  0
    9.8242  -13.3373   19.2881 C   0  0  0  0  0  0  0  0  0  0  0  0
    8.4891  -13.6865   19.5051 C   0  0  0  0  0  0  0  0  0  0  0  0
    9.3241  -15.6116   23.7283 C   0  0  0  0  0  0  0  0  0  0  0  0
    8.8828  -14.9064   24.7156 O   0  0  0  0  0  0  0  0  0  0  0  0
   10.4488  -16.3853   24.0494 N   0  0  0  0  0  0  0  0  0  0  0  0
   10.9218  -16.7374   25.3632 C   0  0  1  0  0  0  0  0  0  0  0  0
    9.8676  -17.1163   26.3173 C   0  0  0  0  0  0  0  0  0  0  0  0
    8.9545  -15.9837   26.5832 C   0  0  0  0  0  0  0  0  0  0  0  0
    7.6770  -15.7731   26.0451 C   0  0  0  0  0  0  0  0  0  0  0  0
    7.1869  -14.6232   26.5142 N   0  0  0  0  0  0  0  0  0  0  0  0
    8.0625  -14.0334   27.3467 C   0  0  0  0  0  0  0  0  0  0  0  0
    8.0460  -12.8630   28.0761 C   0  0  0  0  0  0  0  0  0  0  0  0
    9.1143  -12.4812   28.8770 C   0  0  0  0  0  0  0  0  0  0  0  0
   10.2198  -13.3143   28.9315 C   0  0  0  0  0  0  0  0  0  0  0  0
   10.2157  -14.4802   28.1941 C   0  0  0  0  0  0  0  0  0  0  0  0
    9.1616  -14.8784   27.3902 C   0  0  0  0  0  0  0  0  0  0  0  0
   12.0081  -17.7621   25.3493 C   0  0  0  0  0  0  0  0  0  0  0  0
   12.3007  -18.3650   24.2894 O   0  0  0  0  0  0  0  0  0  0  0  0
   12.7526  -18.1200   26.4654 O   0  0  0  0  0  0  0  0  0  0  0  0
  2  1  1  1
  3  4  1  0
  3  2  1  0
  4  5  2  0
  5  6  1  0
  7  6  2  0
  8  7  1  0
  9  8  2  0
  9  4  1  0
 10 11  2  0
 10  2  1  0
 12 10  1  0
 13 12  1  0
 13 14  1  1
 15 23  1  0
 15 14  1  0
 16 15  2  0
 17 16  1  0
 17 18  1  0
 18 19  1  0
 18 23  2  0
 19 20  2  0
 20 21  1  0
 22 21  2  0
 23 22  1  0
 24 13  1  0
 25 24  2  0
 26 24  1  0
 27 38  1  0
 27 26  1  0
 28 29  1  0
 27 28  1  1
 29 30  2  0
 31 30  1  0
 32 31  1  0
 33 32  2  0
 34 33  1  0
 35 34  2  0
 35 36  1  0
 36 37  2  0
 37 32  1  0
 37 29  1  0
 38 40  1  0
 39 38  2  0
M  END
$$$$
