FWW.pdb
     RDKit          3D

 40 44  0  0  1  0  0  0  0  0999 V2000
    6.7961  -17.9836   21.0309 N   0  0  0  0  0  0  0  0  0  0  0  0
    7.5422  -16.7469   21.1458 C   0  0  1  0  0  0  0  0  0  0  0  0
    6.5921  -15.5542   20.9737 C   0  0  0  0  0  0  0  0  0  0  0  0
    7.3529  -14.3686   20.5220 C   0  0  0  0  0  0  0  0  0  0  0  0
    8.7160  -14.4373   20.3606 C   0  0  0  0  0  0  0  0  0  0  0  0
    9.3898  -13.2926   19.9355 C   0  0  0  0  0  0  0  0  0  0  0  0
    8.6579  -12.1588   19.7009 C   0  0  0  0  0  0  0  0  0  0  0  0
    7.3058  -12.0896   19.8608 C   0  0  0  0  0  0  0  0  0  0  0  0
    6.6229  -13.2178   20.2822 C   0  0  0  0  0  0  0  0  0  0  0  0
    8.1603  -16.6093   22.4899 C   0  0  0  0  0  0  0  0  0  0  0  0
    7.7429  -15.7542   23.3240 O   0  0  0  0  0  0  0  0  0  0  0  0
    9.2439  -17.4309   22.9047 N   0  0  0  0  0  0  0  0  0  0  0  0
    9.8247  -17.3422   24.2480 C   0  0  1  0  0  0  0  0  0  0  0  0
    8.7462  -17.5106   25.2761 C   0  0  0  0  0  0  0  0  0  0  0  0
    7.6527  -16.5499   25.2361 C   0  0  0  0  0  0  0  0  0  0  0  0
    6.2907  -16.7762   25.1002 C   0  0  0  0  0  0  0  0  0  0  0  0
    5.6274  -15.6250   25.1731 N   0  0  0  0  0  0  0  0  0  0  0  0
    6.5095  -14.6273   25.3537 C   0  0  0  0  0  0  0  0  0  0  0  0
    6.3354  -13.2741   25.4724 C   0  0  0  0  0  0  0  0  0  0  0  0
    7.3941  -12.4250   25.6322 C   0  0  0  0  0  0  0  0  0  0  0  0
    8.6817  -12.9417   25.6760 C   0  0  0  0  0  0  0  0  0  0  0  0
    8.8283  -14.2945   25.5560 C   0  0  0  0  0  0  0  0  0  0  0  0
    7.7688  -15.1903   25.3933 C   0  0  0  0  0  0  0  0  0  0  0  0
   10.9845  -18.2295   24.3381 C   0  0  0  0  0  0  0  0  0  0  0  0
   10.8949  -19.4177   23.8412 O   0  0  0  0  0  0  0  0  0  0  0  0
   12.2345  -17.9531   24.9106 N   0  0  0  0  0  0  0  0  0  0  0  0
   12.7565  -18.4549   26.1554 C   0  0  1  0  0  0  0  0  0  0  0  0
   12.2502  -17.7721   27.3565 C   0  0  0  0  0  0  0  0  0  0  0  0
   11.7535  -16.4173   27.0323 C   0  0  0  0  0  0  0  0  0  0  0  0
   11.9572  -15.6945   25.8482 C   0  0  0  0  0  0  0  0  0  0  0  0
   11.3678  -14.5013   25.9551 N   0  0  0  0  0  0  0  0  0  0  0  0
   10.7700  -14.3677   27.1519 C   0  0  0  0  0  0  0  0  0  0  0  0
   10.0450  -13.3579   27.7491 C   0  0  0  0  0  0  0  0  0  0  0  0
    9.5279  -13.4842   29.0317 C   0  0  0  0  0  0  0  0  0  0  0  0
    9.7580  -14.6672   29.7149 C   0  0  0  0  0  0  0  0  0  0  0  0
   10.4856  -15.6644   29.0991 C   0  0  0  0  0  0  0  0  0  0  0  0
   11.0093  -15.5583   27.8222 C   0  0  0  0  0  0  0  0  0  0  0  0
   12.6264  -19.9355   26.3010 C   0  0  0  0  0  0  0  0  0  0  0  0
   13.1224  -20.5235   27.2913 O   0  0  0  0  0  0  0  0  0  0  0  0
   11.9738  -20.7516   25.3865 O   0  0  0  0  0  0  0  0  0  0  0  0
  2  1  1  1
  3  4  1  0
  3  2  1  0
  4  5  2  0
  5  6  1  0
  7  6  2  0
  8  7  1  0
  9  8  2  0
  9  4  1  0
 10 11  2  0
 10  2  1  0
 12 10  1  0
 13 12  1  0
 13 14  1  1
 15 23  1  0
 15 14  1  0
 16 15  2  0
 17 16  1  0
 17 18  1  0
 18 19  1  0
 18 23  2  0
 19 20  2  0
 20 21  1  0
 22 21  2  0
 23 22  1  0
 24 13  1  0
 25 24  2  0
 26 24  1  0
 27 38  1  0
 27 26  1  0
 28 29  1  0
 27 28  1  1
 29 30  2  0
 31 30  1  0
 32 31  1  0
 33 32  2  0
 34 33  1  0
 35 34  2  0
 35 36  1  0
 36 37  2  0
 37 32  1  0
 37 29  1  0
 38 40  1  0
 39 38  2  0
M  END
$$$$
