FWW.pdb
     RDKit          3D

 40 44  0  0  1  0  0  0  0  0999 V2000
   10.0644  -17.6380   17.6823 N   0  0  0  0  0  0  0  0  0  0  0  0
   10.1216  -18.4144   18.9043 C   0  0  1  0  0  0  0  0  0  0  0  0
   11.4896  -19.1008   19.0148 C   0  0  0  0  0  0  0  0  0  0  0  0
   11.6133  -20.1425   17.9715 C   0  0  0  0  0  0  0  0  0  0  0  0
   10.8526  -21.2852   18.0364 C   0  0  0  0  0  0  0  0  0  0  0  0
   11.0063  -22.2396   17.0312 C   0  0  0  0  0  0  0  0  0  0  0  0
   11.9079  -21.9885   16.0310 C   0  0  0  0  0  0  0  0  0  0  0  0
   12.6629  -20.8554   15.9658 C   0  0  0  0  0  0  0  0  0  0  0  0
   12.5214  -19.8987   16.9564 C   0  0  0  0  0  0  0  0  0  0  0  0
    9.9806  -17.5489   20.1037 C   0  0  0  0  0  0  0  0  0  0  0  0
   10.7114  -16.5297   20.2720 O   0  0  0  0  0  0  0  0  0  0  0  0
    9.0190  -17.8199   21.1152 N   0  0  0  0  0  0  0  0  0  0  0  0
    8.8364  -16.9446   22.2772 C   0  0  1  0  0  0  0  0  0  0  0  0
    7.4255  -17.0526   22.7735 C   0  0  0  0  0  0  0  0  0  0  0  0
    7.0900  -16.2724   23.9563 C   0  0  0  0  0  0  0  0  0  0  0  0
    6.7253  -16.7098   25.2214 C   0  0  0  0  0  0  0  0  0  0  0  0
    6.5619  -15.6692   26.0344 N   0  0  0  0  0  0  0  0  0  0  0  0
    6.8064  -14.5402   25.3478 C   0  0  0  0  0  0  0  0  0  0  0  0
    6.7594  -13.2236   25.7221 C   0  0  0  0  0  0  0  0  0  0  0  0
    7.0310  -12.2160   24.8399 C   0  0  0  0  0  0  0  0  0  0  0  0
    7.3634  -12.5288   23.5290 C   0  0  0  0  0  0  0  0  0  0  0  0
    7.4040  -13.8492   23.1812 C   0  0  0  0  0  0  0  0  0  0  0  0
    7.1340  -14.9032   24.0574 C   0  0  0  0  0  0  0  0  0  0  0  0
    9.9094  -17.1843   23.2425 C   0  0  0  0  0  0  0  0  0  0  0  0
   10.1984  -18.4027   23.5568 O   0  0  0  0  0  0  0  0  0  0  0  0
   10.7035  -16.2319   23.8976 N   0  0  0  0  0  0  0  0  0  0  0  0
   11.7429  -16.4757   24.8640 C   0  0  1  0  0  0  0  0  0  0  0  0
   11.9881  -15.3664   25.7992 C   0  0  0  0  0  0  0  0  0  0  0  0
   11.0927  -15.4488   26.9734 C   0  0  0  0  0  0  0  0  0  0  0  0
   10.9544  -16.5200   27.8675 C   0  0  0  0  0  0  0  0  0  0  0  0
   10.0267  -16.2152   28.7780 N   0  0  0  0  0  0  0  0  0  0  0  0
    9.5207  -14.9897   28.5548 C   0  0  0  0  0  0  0  0  0  0  0  0
    8.5633  -14.2231   29.1854 C   0  0  0  0  0  0  0  0  0  0  0  0
    8.2222  -12.9552   28.7331 C   0  0  0  0  0  0  0  0  0  0  0  0
    8.8743  -12.4639   27.6139 C   0  0  0  0  0  0  0  0  0  0  0  0
    9.8286  -13.2471   26.9982 C   0  0  0  0  0  0  0  0  0  0  0  0
   10.1828  -14.5126   27.4331 C   0  0  0  0  0  0  0  0  0  0  0  0
   11.5742  -17.7597   25.6077 C   0  0  0  0  0  0  0  0  0  0  0  0
   10.4354  -18.2620   25.7601 O   0  0  0  0  0  0  0  0  0  0  0  0
   12.6228  -18.4739   26.1722 O   0  0  0  0  0  0  0  0  0  0  0  0
  2  1  1  6
  3  4  1  0
  3  2  1  0
  4  5  2  0
  5  6  1  0
  7  6  2  0
  8  7  1  0
  9  8  2  0
  9  4  1  0
 10 11  2  0
 10  2  1  0
 12 10  1  0
 13 12  1  0
 13 14  1  1
 15 23  1  0
 15 14  1  0
 16 15  2  0
 17 16  1  0
 17 18  1  0
 18 19  1  0
 18 23  2  0
 19 20  2  0
 20 21  1  0
 22 21  2  0
 23 22  1  0
 24 13  1  0
 25 24  2  0
 26 24  1  0
 27 38  1  0
 27 26  1  0
 28 29  1  0
 27 28  1  1
 29 30  2  0
 31 30  1  0
 32 31  1  0
 33 32  2  0
 34 33  1  0
 35 34  2  0
 35 36  1  0
 36 37  2  0
 37 32  1  0
 37 29  1  0
 38 40  1  0
 39 38  2  0
M  END
$$$$
