FWW.pdb
     RDKit          3D

 40 44  0  0  1  0  0  0  0  0999 V2000
   11.4806  -18.3144   19.6019 N   0  0  0  0  0  0  0  0  0  0  0  0
   10.8956  -18.4804   20.9170 C   0  0  1  0  0  0  0  0  0  0  0  0
   11.9283  -19.1047   21.8650 C   0  0  0  0  0  0  0  0  0  0  0  0
   12.3101  -20.4477   21.3757 C   0  0  0  0  0  0  0  0  0  0  0  0
   13.4311  -20.6113   20.5976 C   0  0  0  0  0  0  0  0  0  0  0  0
   13.7488  -21.8961   20.1579 C   0  0  0  0  0  0  0  0  0  0  0  0
   12.9268  -22.9287   20.5246 C   0  0  0  0  0  0  0  0  0  0  0  0
   11.8147  -22.7674   21.2963 C   0  0  0  0  0  0  0  0  0  0  0  0
   11.4863  -21.4979   21.7404 C   0  0  0  0  0  0  0  0  0  0  0  0
   10.5098  -17.1730   21.5079 C   0  0  0  0  0  0  0  0  0  0  0  0
   11.1724  -16.1209   21.2728 O   0  0  0  0  0  0  0  0  0  0  0  0
    9.3795  -17.0393   22.3600 N   0  0  0  0  0  0  0  0  0  0  0  0
    8.9203  -15.7374   22.8537 C   0  0  1  0  0  0  0  0  0  0  0  0
    7.4936  -15.5183   22.4476 C   0  0  0  0  0  0  0  0  0  0  0  0
    7.2574  -15.1957   21.0474 C   0  0  0  0  0  0  0  0  0  0  0  0
    6.5482  -15.9074   20.0907 C   0  0  0  0  0  0  0  0  0  0  0  0
    6.5224  -15.2310   18.9451 N   0  0  0  0  0  0  0  0  0  0  0  0
    7.1982  -14.0806   19.1057 C   0  0  0  0  0  0  0  0  0  0  0  0
    7.4702  -13.0600   18.2339 C   0  0  0  0  0  0  0  0  0  0  0  0
    8.2073  -11.9722   18.6090 C   0  0  0  0  0  0  0  0  0  0  0  0
    8.6959  -11.8942   19.9059 C   0  0  0  0  0  0  0  0  0  0  0  0
    8.4101  -12.9247   20.7560 C   0  0  0  0  0  0  0  0  0  0  0  0
    7.6590  -14.0493   20.4061 C   0  0  0  0  0  0  0  0  0  0  0  0
    9.2416  -15.6134   24.2757 C   0  0  0  0  0  0  0  0  0  0  0  0
    8.6289  -14.7159   24.9727 O   0  0  0  0  0  0  0  0  0  0  0  0
   10.1595  -16.3708   25.0177 N   0  0  0  0  0  0  0  0  0  0  0  0
   10.4662  -16.2452   26.4191 C   0  0  1  0  0  0  0  0  0  0  0  0
    9.3133  -16.4044   27.3195 C   0  0  0  0  0  0  0  0  0  0  0  0
    8.1520  -15.6209   26.8454 C   0  0  0  0  0  0  0  0  0  0  0  0
    7.0038  -16.1024   26.2005 C   0  0  0  0  0  0  0  0  0  0  0  0
    6.1995  -15.0766   25.9117 N   0  0  0  0  0  0  0  0  0  0  0  0
    6.7366  -13.9155   26.3251 C   0  0  0  0  0  0  0  0  0  0  0  0
    6.3247  -12.6004   26.2704 C   0  0  0  0  0  0  0  0  0  0  0  0
    7.0953  -11.5670   26.7868 C   0  0  0  0  0  0  0  0  0  0  0  0
    8.3104  -11.8872   27.3701 C   0  0  0  0  0  0  0  0  0  0  0  0
    8.7035  -13.2088   27.4143 C   0  0  0  0  0  0  0  0  0  0  0  0
    7.9504  -14.2529   26.9057 C   0  0  0  0  0  0  0  0  0  0  0  0
   11.5986  -17.1132   26.8602 C   0  0  0  0  0  0  0  0  0  0  0  0
   11.9556  -17.1316   28.0621 O   0  0  0  0  0  0  0  0  0  0  0  0
   12.3231  -17.9370   26.0089 O   0  0  0  0  0  0  0  0  0  0  0  0
  2  1  1  6
  3  4  1  0
  3  2  1  0
  4  5  2  0
  5  6  1  0
  7  6  2  0
  8  7  1  0
  9  8  2  0
  9  4  1  0
 10 11  2  0
 10  2  1  0
 12 10  1  0
 13 12  1  0
 13 14  1  1
 15 23  1  0
 15 14  1  0
 16 15  2  0
 17 16  1  0
 17 18  1  0
 18 19  1  0
 18 23  2  0
 19 20  2  0
 20 21  1  0
 22 21  2  0
 23 22  1  0
 24 13  1  0
 25 24  2  0
 26 24  1  0
 27 38  1  0
 27 26  1  0
 28 29  1  0
 27 28  1  1
 29 30  2  0
 31 30  1  0
 32 31  1  0
 33 32  2  0
 34 33  1  0
 35 34  2  0
 35 36  1  0
 36 37  2  0
 37 32  1  0
 37 29  1  0
 38 40  1  0
 39 38  2  0
M  END
$$$$
