FWW.pdb
     RDKit          3D

 40 44  0  0  1  0  0  0  0  0999 V2000
    8.2103  -17.2479   19.4298 N   0  0  0  0  0  0  0  0  0  0  0  0
    9.5121  -16.6455   19.6337 C   0  0  1  0  0  0  0  0  0  0  0  0
    9.5652  -15.2832   18.9294 C   0  0  0  0  0  0  0  0  0  0  0  0
    8.4766  -14.4165   19.4320 C   0  0  0  0  0  0  0  0  0  0  0  0
    7.5593  -14.9038   20.3318 C   0  0  0  0  0  0  0  0  0  0  0  0
    6.5496  -14.0497   20.7747 C   0  0  0  0  0  0  0  0  0  0  0  0
    6.5247  -12.7689   20.2896 C   0  0  0  0  0  0  0  0  0  0  0  0
    7.4341  -12.2846   19.3971 C   0  0  0  0  0  0  0  0  0  0  0  0
    8.4423  -13.1205   18.9483 C   0  0  0  0  0  0  0  0  0  0  0  0
    9.7723  -16.3912   21.0743 C   0  0  0  0  0  0  0  0  0  0  0  0
   10.6874  -15.6026   21.4507 O   0  0  0  0  0  0  0  0  0  0  0  0
    9.0065  -17.0159   22.0963 N   0  0  0  0  0  0  0  0  0  0  0  0
    9.3004  -16.8289   23.5205 C   0  0  1  0  0  0  0  0  0  0  0  0
    8.1911  -17.4100   24.3453 C   0  0  0  0  0  0  0  0  0  0  0  0
    7.3091  -16.4616   25.0108 C   0  0  0  0  0  0  0  0  0  0  0  0
    6.0867  -16.6845   25.6279 C   0  0  0  0  0  0  0  0  0  0  0  0
    5.6357  -15.5554   26.1683 N   0  0  0  0  0  0  0  0  0  0  0  0
    6.5241  -14.5757   25.9296 C   0  0  0  0  0  0  0  0  0  0  0  0
    6.5170  -13.2461   26.2579 C   0  0  0  0  0  0  0  0  0  0  0  0
    7.5333  -12.4099   25.8898 C   0  0  0  0  0  0  0  0  0  0  0  0
    8.6030  -12.9156   25.1640 C   0  0  0  0  0  0  0  0  0  0  0  0
    8.5865  -14.2450   24.8499 C   0  0  0  0  0  0  0  0  0  0  0  0
    7.5655  -15.1271   25.2115 C   0  0  0  0  0  0  0  0  0  0  0  0
   10.6604  -17.2886   23.8029 C   0  0  0  0  0  0  0  0  0  0  0  0
   11.0797  -18.3683   23.2326 O   0  0  0  0  0  0  0  0  0  0  0  0
   11.6128  -16.6895   24.6400 N   0  0  0  0  0  0  0  0  0  0  0  0
   12.8234  -17.2796   25.1499 C   0  0  1  0  0  0  0  0  0  0  0  0
   13.3414  -16.6595   26.3797 C   0  0  0  0  0  0  0  0  0  0  0  0
   12.2530  -16.3974   27.3461 C   0  0  0  0  0  0  0  0  0  0  0  0
   11.6509  -17.3121   28.2218 C   0  0  0  0  0  0  0  0  0  0  0  0
   10.6915  -16.6922   28.9130 N   0  0  0  0  0  0  0  0  0  0  0  0
   10.6038  -15.3988   28.5566 C   0  0  0  0  0  0  0  0  0  0  0  0
    9.7999  -14.3514   28.9552 C   0  0  0  0  0  0  0  0  0  0  0  0
    9.9226  -13.0812   28.4074 C   0  0  0  0  0  0  0  0  0  0  0  0
   10.8871  -12.8806   27.4334 C   0  0  0  0  0  0  0  0  0  0  0  0
   11.6806  -13.9417   27.0493 C   0  0  0  0  0  0  0  0  0  0  0  0
   11.5741  -15.2146   27.5826 C   0  0  0  0  0  0  0  0  0  0  0  0
   12.7423  -18.7627   25.3057 C   0  0  0  0  0  0  0  0  0  0  0  0
   13.6626  -19.4988   24.8773 O   0  0  0  0  0  0  0  0  0  0  0  0
   11.6815  -19.4232   25.9114 O   0  0  0  0  0  0  0  0  0  0  0  0
  2  1  1  1
  3  4  1  0
  3  2  1  0
  4  5  2  0
  5  6  1  0
  7  6  2  0
  8  7  1  0
  9  8  2  0
  9  4  1  0
 10 11  2  0
 10  2  1  0
 12 10  1  0
 13 12  1  0
 13 14  1  1
 15 23  1  0
 15 14  1  0
 16 15  2  0
 17 16  1  0
 17 18  1  0
 18 19  1  0
 18 23  2  0
 19 20  2  0
 20 21  1  0
 22 21  2  0
 23 22  1  0
 24 13  1  0
 25 24  2  0
 26 24  1  0
 27 38  1  0
 27 26  1  0
 28 29  1  0
 27 28  1  1
 29 30  2  0
 31 30  1  0
 32 31  1  0
 33 32  2  0
 34 33  1  0
 35 34  2  0
 35 36  1  0
 36 37  2  0
 37 32  1  0
 37 29  1  0
 38 40  1  0
 39 38  2  0
M  END
$$$$
