FWW.pdb
     RDKit          3D

 40 44  0  0  1  0  0  0  0  0999 V2000
    8.5879  -17.9642   18.8079 N   0  0  0  0  0  0  0  0  0  0  0  0
    8.6452  -16.7230   19.5533 C   0  0  1  0  0  0  0  0  0  0  0  0
    7.4085  -15.8726   19.2333 C   0  0  0  0  0  0  0  0  0  0  0  0
    7.4914  -14.5794   19.9471 C   0  0  0  0  0  0  0  0  0  0  0  0
    6.6915  -14.3348   21.0376 C   0  0  0  0  0  0  0  0  0  0  0  0
    6.8036  -13.0999   21.6759 C   0  0  0  0  0  0  0  0  0  0  0  0
    7.7055  -12.1945   21.1826 C   0  0  0  0  0  0  0  0  0  0  0  0
    8.4993  -12.4362   20.1010 C   0  0  0  0  0  0  0  0  0  0  0  0
    8.3994  -13.6576   19.4569 C   0  0  0  0  0  0  0  0  0  0  0  0
    8.6262  -16.9690   21.0184 C   0  0  0  0  0  0  0  0  0  0  0  0
    8.1893  -18.0545   21.5000 O   0  0  0  0  0  0  0  0  0  0  0  0
    9.0996  -16.0024   21.9473 N   0  0  0  0  0  0  0  0  0  0  0  0
    9.3654  -16.3298   23.3515 C   0  0  1  0  0  0  0  0  0  0  0  0
    9.8995  -15.1205   24.0593 C   0  0  0  0  0  0  0  0  0  0  0  0
   10.0357  -15.2199   25.5057 C   0  0  0  0  0  0  0  0  0  0  0  0
   10.7342  -16.1523   26.2590 C   0  0  0  0  0  0  0  0  0  0  0  0
   10.6525  -15.8479   27.5517 N   0  0  0  0  0  0  0  0  0  0  0  0
    9.9147  -14.7331   27.6886 C   0  0  0  0  0  0  0  0  0  0  0  0
    9.5296  -14.0320   28.8003 C   0  0  0  0  0  0  0  0  0  0  0  0
    8.7467  -12.9156   28.7099 C   0  0  0  0  0  0  0  0  0  0  0  0
    8.3276  -12.4762   27.4617 C   0  0  0  0  0  0  0  0  0  0  0  0
    8.7258  -13.1925   26.3688 C   0  0  0  0  0  0  0  0  0  0  0  0
    9.5265  -14.3359   26.4254 C   0  0  0  0  0  0  0  0  0  0  0  0
    8.1924  -16.9850   23.9307 C   0  0  0  0  0  0  0  0  0  0  0  0
    7.0821  -16.3288   23.9876 O   0  0  0  0  0  0  0  0  0  0  0  0
    8.1040  -18.2845   24.4505 N   0  0  0  0  0  0  0  0  0  0  0  0
    7.1654  -18.7737   25.4269 C   0  0  1  0  0  0  0  0  0  0  0  0
    5.7505  -18.6215   25.0528 C   0  0  0  0  0  0  0  0  0  0  0  0
    5.4578  -19.3089   23.7764 C   0  0  0  0  0  0  0  0  0  0  0  0
    5.6946  -20.6536   23.4576 C   0  0  0  0  0  0  0  0  0  0  0  0
    5.3138  -20.8800   22.1981 N   0  0  0  0  0  0  0  0  0  0  0  0
    4.8277  -19.7597   21.6358 C   0  0  0  0  0  0  0  0  0  0  0  0
    4.3170  -19.4613   20.3899 C   0  0  0  0  0  0  0  0  0  0  0  0
    3.8744  -18.1862   20.0633 C   0  0  0  0  0  0  0  0  0  0  0  0
    3.9565  -17.1987   21.0315 C   0  0  0  0  0  0  0  0  0  0  0  0
    4.4706  -17.5185   22.2710 C   0  0  0  0  0  0  0  0  0  0  0  0
    4.9169  -18.7825   22.6162 C   0  0  0  0  0  0  0  0  0  0  0  0
    7.4423  -20.1730   25.8691 C   0  0  0  0  0  0  0  0  0  0  0  0
    6.7166  -20.7234   26.7309 O   0  0  0  0  0  0  0  0  0  0  0  0
    8.4868  -20.9487   25.3836 O   0  0  0  0  0  0  0  0  0  0  0  0
  2  1  1  6
  3  4  1  0
  3  2  1  0
  4  5  2  0
  5  6  1  0
  7  6  2  0
  8  7  1  0
  9  8  2  0
  9  4  1  0
 10 11  2  0
 10  2  1  0
 12 10  1  0
 13 12  1  0
 13 14  1  1
 15 23  1  0
 15 14  1  0
 16 15  2  0
 17 16  1  0
 17 18  1  0
 18 19  1  0
 18 23  2  0
 19 20  2  0
 20 21  1  0
 22 21  2  0
 23 22  1  0
 24 13  1  0
 25 24  2  0
 26 24  1  0
 27 38  1  0
 27 26  1  0
 28 29  1  0
 27 28  1  6
 29 30  2  0
 31 30  1  0
 32 31  1  0
 33 32  2  0
 34 33  1  0
 35 34  2  0
 35 36  1  0
 36 37  2  0
 37 32  1  0
 37 29  1  0
 38 40  1  0
 39 38  2  0
M  END
$$$$
