FWW.pdb
     RDKit          3D

 40 44  0  0  1  0  0  0  0  0999 V2000
    9.5258  -19.1910   19.2668 N   0  0  0  0  0  0  0  0  0  0  0  0
    9.5478  -19.1617   20.7153 C   0  0  1  0  0  0  0  0  0  0  0  0
   10.6376  -20.1098   21.2331 C   0  0  0  0  0  0  0  0  0  0  0  0
   10.0314  -21.3981   21.6351 C   0  0  0  0  0  0  0  0  0  0  0  0
   10.8023  -22.3797   22.2103 C   0  0  0  0  0  0  0  0  0  0  0  0
   10.1863  -23.5782   22.5699 C   0  0  0  0  0  0  0  0  0  0  0  0
    8.8444  -23.7148   22.3310 C   0  0  0  0  0  0  0  0  0  0  0  0
    8.0790  -22.7417   21.7605 C   0  0  0  0  0  0  0  0  0  0  0  0
    8.6762  -21.5464   21.3982 C   0  0  0  0  0  0  0  0  0  0  0  0
    9.8834  -17.8072   21.2252 C   0  0  0  0  0  0  0  0  0  0  0  0
   10.6733  -17.0428   20.5985 O   0  0  0  0  0  0  0  0  0  0  0  0
    9.3326  -17.3038   22.4354 N   0  0  0  0  0  0  0  0  0  0  0  0
    9.6849  -15.9835   22.9669 C   0  0  1  0  0  0  0  0  0  0  0  0
    8.4488  -15.1441   23.0932 C   0  0  0  0  0  0  0  0  0  0  0  0
    7.6488  -14.9778   21.8880 C   0  0  0  0  0  0  0  0  0  0  0  0
    6.4651  -15.6051   21.5273 C   0  0  0  0  0  0  0  0  0  0  0  0
    6.0272  -15.1212   20.3677 N   0  0  0  0  0  0  0  0  0  0  0  0
    6.8878  -14.1833   19.9369 C   0  0  0  0  0  0  0  0  0  0  0  0
    6.8954  -13.4114   18.8056 C   0  0  0  0  0  0  0  0  0  0  0  0
    7.8981  -12.5182   18.5522 C   0  0  0  0  0  0  0  0  0  0  0  0
    8.9387  -12.3857   19.4613 C   0  0  0  0  0  0  0  0  0  0  0  0
    8.9073  -13.1664   20.5819 C   0  0  0  0  0  0  0  0  0  0  0  0
    7.8978  -14.0872   20.8723 C   0  0  0  0  0  0  0  0  0  0  0  0
   10.5146  -16.1434   24.1614 C   0  0  0  0  0  0  0  0  0  0  0  0
   11.1599  -15.1184   24.6084 O   0  0  0  0  0  0  0  0  0  0  0  0
   10.7097  -17.3053   24.9220 N   0  0  0  0  0  0  0  0  0  0  0  0
   11.5784  -17.4708   26.0585 C   0  0  1  0  0  0  0  0  0  0  0  0
   10.8879  -17.5610   27.3547 C   0  0  0  0  0  0  0  0  0  0  0  0
    9.8494  -16.5156   27.4815 C   0  0  0  0  0  0  0  0  0  0  0  0
    8.4582  -16.6856   27.4412 C   0  0  0  0  0  0  0  0  0  0  0  0
    7.8664  -15.4956   27.5679 N   0  0  0  0  0  0  0  0  0  0  0  0
    8.7800  -14.5171   27.6930 C   0  0  0  0  0  0  0  0  0  0  0  0
    8.6982  -13.1490   27.8466 C   0  0  0  0  0  0  0  0  0  0  0  0
    9.8308  -12.3525   27.9533 C   0  0  0  0  0  0  0  0  0  0  0  0
   11.0701  -12.9696   27.9017 C   0  0  0  0  0  0  0  0  0  0  0  0
   11.1294  -14.3391   27.7476 C   0  0  0  0  0  0  0  0  0  0  0  0
   10.0130  -15.1503   27.6395 C   0  0  0  0  0  0  0  0  0  0  0  0
   12.5516  -18.5931   25.9047 C   0  0  0  0  0  0  0  0  0  0  0  0
   12.4645  -19.3824   24.9342 O   0  0  0  0  0  0  0  0  0  0  0  0
   13.5906  -18.8471   26.7903 O   0  0  0  0  0  0  0  0  0  0  0  0
  2  1  1  6
  3  4  1  0
  3  2  1  0
  4  5  2  0
  5  6  1  0
  7  6  2  0
  8  7  1  0
  9  8  2  0
  9  4  1  0
 10 11  2  0
 10  2  1  0
 12 10  1  0
 13 12  1  0
 13 14  1  1
 15 23  1  0
 15 14  1  0
 16 15  2  0
 17 16  1  0
 17 18  1  0
 18 19  1  0
 18 23  2  0
 19 20  2  0
 20 21  1  0
 22 21  2  0
 23 22  1  0
 24 13  1  0
 25 24  2  0
 26 24  1  0
 27 38  1  0
 27 26  1  0
 28 29  1  0
 27 28  1  1
 29 30  2  0
 31 30  1  0
 32 31  1  0
 33 32  2  0
 34 33  1  0
 35 34  2  0
 35 36  1  0
 36 37  2  0
 37 32  1  0
 37 29  1  0
 38 40  1  0
 39 38  2  0
M  END
$$$$
