FWW.pdb
     RDKit          3D

 40 44  0  0  1  0  0  0  0  0999 V2000
   12.1667  -16.1756   18.9425 N   0  0  0  0  0  0  0  0  0  0  0  0
   11.4922  -17.2477   19.6461 C   0  0  1  0  0  0  0  0  0  0  0  0
   12.4673  -18.4117   19.8678 C   0  0  0  0  0  0  0  0  0  0  0  0
   12.8085  -19.0338   18.5696 C   0  0  0  0  0  0  0  0  0  0  0  0
   11.9256  -19.8893   17.9553 C   0  0  0  0  0  0  0  0  0  0  0  0
   12.2930  -20.4533   16.7338 C   0  0  0  0  0  0  0  0  0  0  0  0
   13.5152  -20.1253   16.2097 C   0  0  0  0  0  0  0  0  0  0  0  0
   14.3917  -19.2768   16.8183 C   0  0  0  0  0  0  0  0  0  0  0  0
   14.0411  -18.7091   18.0312 C   0  0  0  0  0  0  0  0  0  0  0  0
   11.0364  -16.8111   20.9911 C   0  0  0  0  0  0  0  0  0  0  0  0
   11.7637  -16.0881   21.7322 O   0  0  0  0  0  0  0  0  0  0  0  0
    9.7641  -17.1794   21.5079 N   0  0  0  0  0  0  0  0  0  0  0  0
    9.2921  -16.7300   22.8212 C   0  0  1  0  0  0  0  0  0  0  0  0
    7.8121  -16.4940   22.7718 C   0  0  0  0  0  0  0  0  0  0  0  0
    7.2093  -15.8907   23.9521 C   0  0  0  0  0  0  0  0  0  0  0  0
    6.5922  -16.5040   25.0327 C   0  0  0  0  0  0  0  0  0  0  0  0
    6.2303  -15.5907   25.9301 N   0  0  0  0  0  0  0  0  0  0  0  0
    6.5874  -14.3758   25.4803 C   0  0  0  0  0  0  0  0  0  0  0  0
    6.4264  -13.1267   26.0183 C   0  0  0  0  0  0  0  0  0  0  0  0
    6.8552  -12.0038   25.3682 C   0  0  0  0  0  0  0  0  0  0  0  0
    7.4704  -12.1261   24.1299 C   0  0  0  0  0  0  0  0  0  0  0  0
    7.6195  -13.3828   23.6154 C   0  0  0  0  0  0  0  0  0  0  0  0
    7.1947  -14.5507   24.2535 C   0  0  0  0  0  0  0  0  0  0  0  0
    9.7952  -17.6333   23.8563 C   0  0  0  0  0  0  0  0  0  0  0  0
   10.0932  -18.8458   23.5281 O   0  0  0  0  0  0  0  0  0  0  0  0
   10.0113  -17.3494   25.2126 N   0  0  0  0  0  0  0  0  0  0  0  0
   10.4273  -18.2660   26.2423 C   0  0  1  0  0  0  0  0  0  0  0  0
   10.0175  -17.8904   27.6048 C   0  0  0  0  0  0  0  0  0  0  0  0
   10.5884  -16.5827   27.9936 C   0  0  0  0  0  0  0  0  0  0  0  0
   11.7756  -16.3463   28.7013 C   0  0  0  0  0  0  0  0  0  0  0  0
   11.9295  -15.0315   28.8742 N   0  0  0  0  0  0  0  0  0  0  0  0
   10.9088  -14.3528   28.3217 C   0  0  0  0  0  0  0  0  0  0  0  0
   10.5949  -13.0134   28.2244 C   0  0  0  0  0  0  0  0  0  0  0  0
    9.4449  -12.5730   27.5826 C   0  0  0  0  0  0  0  0  0  0  0  0
    8.6010  -13.5227   27.0302 C   0  0  0  0  0  0  0  0  0  0  0  0
    8.9338  -14.8571   27.1388 C   0  0  0  0  0  0  0  0  0  0  0  0
   10.0747  -15.3163   27.7740 C   0  0  0  0  0  0  0  0  0  0  0  0
   10.0609  -19.6857   25.9583 C   0  0  0  0  0  0  0  0  0  0  0  0
    9.2684  -19.9643   25.0273 O   0  0  0  0  0  0  0  0  0  0  0  0
   10.5461  -20.7714   26.6752 O   0  0  0  0  0  0  0  0  0  0  0  0
  2  1  1  1
  3  4  1  0
  3  2  1  0
  4  5  2  0
  5  6  1  0
  7  6  2  0
  8  7  1  0
  9  8  2  0
  9  4  1  0
 10 11  2  0
 10  2  1  0
 12 10  1  0
 13 12  1  0
 13 14  1  6
 15 23  1  0
 15 14  1  0
 16 15  2  0
 17 16  1  0
 17 18  1  0
 18 19  1  0
 18 23  2  0
 19 20  2  0
 20 21  1  0
 22 21  2  0
 23 22  1  0
 24 13  1  0
 25 24  2  0
 26 24  1  0
 27 38  1  0
 27 26  1  0
 28 29  1  0
 27 28  1  1
 29 30  2  0
 31 30  1  0
 32 31  1  0
 33 32  2  0
 34 33  1  0
 35 34  2  0
 35 36  1  0
 36 37  2  0
 37 32  1  0
 37 29  1  0
 38 40  1  0
 39 38  2  0
M  END
$$$$
