FWW.pdb
     RDKit          3D

 40 44  0  0  1  0  0  0  0  0999 V2000
   12.7628  -17.5122   19.0292 N   0  0  0  0  0  0  0  0  0  0  0  0
   11.5555  -18.0878   19.5865 C   0  0  1  0  0  0  0  0  0  0  0  0
   11.7884  -19.5726   19.8963 C   0  0  0  0  0  0  0  0  0  0  0  0
   11.5302  -20.3835   18.6861 C   0  0  0  0  0  0  0  0  0  0  0  0
   11.2970  -19.7731   17.4771 C   0  0  0  0  0  0  0  0  0  0  0  0
   11.0559  -20.5796   16.3651 C   0  0  0  0  0  0  0  0  0  0  0  0
   11.0639  -21.9387   16.5358 C   0  0  0  0  0  0  0  0  0  0  0  0
   11.2950  -22.5450   17.7347 C   0  0  0  0  0  0  0  0  0  0  0  0
   11.5360  -21.7577   18.8476 C   0  0  0  0  0  0  0  0  0  0  0  0
   11.1870  -17.4369   20.8702 C   0  0  0  0  0  0  0  0  0  0  0  0
   12.0686  -17.0530   21.6927 O   0  0  0  0  0  0  0  0  0  0  0  0
    9.8314  -17.2107   21.2344 N   0  0  0  0  0  0  0  0  0  0  0  0
    9.4581  -16.4780   22.4482 C   0  0  1  0  0  0  0  0  0  0  0  0
    8.1713  -15.7432   22.2184 C   0  0  0  0  0  0  0  0  0  0  0  0
    7.7615  -14.8077   23.2564 C   0  0  0  0  0  0  0  0  0  0  0  0
    7.9657  -13.4376   23.3328 C   0  0  0  0  0  0  0  0  0  0  0  0
    7.3754  -12.9484   24.4203 N   0  0  0  0  0  0  0  0  0  0  0  0
    6.7789  -13.9557   25.0800 C   0  0  0  0  0  0  0  0  0  0  0  0
    6.0639  -13.9766   26.2479 C   0  0  0  0  0  0  0  0  0  0  0  0
    5.5548  -15.1377   26.7578 C   0  0  0  0  0  0  0  0  0  0  0  0
    5.7650  -16.3301   26.0791 C   0  0  0  0  0  0  0  0  0  0  0  0
    6.4807  -16.2823   24.9165 C   0  0  0  0  0  0  0  0  0  0  0  0
    7.0131  -15.1137   24.3668 C   0  0  0  0  0  0  0  0  0  0  0  0
    9.5229  -17.3770   23.6007 C   0  0  0  0  0  0  0  0  0  0  0  0
    9.3318  -18.6398   23.4121 O   0  0  0  0  0  0  0  0  0  0  0  0
    9.7794  -17.0414   24.9379 N   0  0  0  0  0  0  0  0  0  0  0  0
   10.0705  -17.9404   26.0247 C   0  0  1  0  0  0  0  0  0  0  0  0
   10.3728  -17.2822   27.3055 C   0  0  0  0  0  0  0  0  0  0  0  0
   10.8427  -15.8955   27.0966 C   0  0  0  0  0  0  0  0  0  0  0  0
   12.1319  -15.4763   26.7384 C   0  0  0  0  0  0  0  0  0  0  0  0
   12.1578  -14.1431   26.6728 N   0  0  0  0  0  0  0  0  0  0  0  0
   10.9526  -13.6253   26.9677 C   0  0  0  0  0  0  0  0  0  0  0  0
   10.4584  -12.3399   27.0424 C   0  0  0  0  0  0  0  0  0  0  0  0
    9.1369  -12.0792   27.3803 C   0  0  0  0  0  0  0  0  0  0  0  0
    8.3065  -13.1557   27.6466 C   0  0  0  0  0  0  0  0  0  0  0  0
    8.8210  -14.4332   27.5662 C   0  0  0  0  0  0  0  0  0  0  0  0
   10.1344  -14.7140   27.2313 C   0  0  0  0  0  0  0  0  0  0  0  0
    9.0359  -19.0009   26.2126 C   0  0  0  0  0  0  0  0  0  0  0  0
    9.2094  -19.9178   27.0501 O   0  0  0  0  0  0  0  0  0  0  0  0
    7.8447  -19.0587   25.5013 O   0  0  0  0  0  0  0  0  0  0  0  0
  2  1  1  1
  3  4  1  0
  3  2  1  0
  4  5  2  0
  5  6  1  0
  7  6  2  0
  8  7  1  0
  9  8  2  0
  9  4  1  0
 10 11  2  0
 10  2  1  0
 12 10  1  0
 13 12  1  0
 13 14  1  6
 15 23  1  0
 15 14  1  0
 16 15  2  0
 17 16  1  0
 17 18  1  0
 18 19  1  0
 18 23  2  0
 19 20  2  0
 20 21  1  0
 22 21  2  0
 23 22  1  0
 24 13  1  0
 25 24  2  0
 26 24  1  0
 27 38  1  0
 27 26  1  0
 28 29  1  0
 27 28  1  1
 29 30  2  0
 31 30  1  0
 32 31  1  0
 33 32  2  0
 34 33  1  0
 35 34  2  0
 35 36  1  0
 36 37  2  0
 37 32  1  0
 37 29  1  0
 38 40  1  0
 39 38  2  0
M  END
$$$$
