EMP.pdb
     RDKit          3D

 25 25  0  0  1  0  0  0  0  0999 V2000
   18.0674  -14.7392  -17.7924 N   0  0  0  0  0  0  0  0  0  0  0  0
   17.4780  -13.4143  -17.6632 C   0  0  1  0  0  0  0  0  0  0  0  0
   16.4530  -13.4575  -16.5823 C   0  0  0  0  0  0  0  0  0  0  0  0
   16.1452  -14.8079  -16.0425 C   0  0  0  0  0  0  0  0  0  0  0  0
   15.7620  -14.7686  -14.6238 C   0  0  0  0  0  0  0  0  0  0  0  0
   15.4595  -15.7866  -13.9705 O   0  0  0  0  0  0  0  0  0  0  0  0
   18.6149  -12.4818  -17.3519 C   0  0  0  0  0  0  0  0  0  0  0  0
   19.6665  -12.9607  -16.8285 O   0  0  0  0  0  0  0  0  0  0  0  0
   15.7159  -13.5534  -13.9149 O   0  0  0  0  0  0  0  0  0  0  0  0
   22.4684   -6.3474  -20.2262 C   0  0  0  0  0  0  0  0  0  0  0  0
   21.0210   -7.4425  -20.1808 S   0  0  0  0  0  0  0  0  0  0  0  0
   21.0691   -8.4904  -18.6803 C   0  0  0  0  0  0  0  0  0  0  0  0
   19.9180   -9.4459  -18.7546 C   0  0  0  0  0  0  0  0  0  0  0  0
   19.7529  -10.2542  -17.4777 C   0  0  2  0  0  0  0  0  0  0  0  0
   18.5492  -11.0962  -17.6227 N   0  0  0  0  0  0  0  0  0  0  0  0
   19.6067   -9.4033  -16.2817 C   0  0  0  0  0  0  0  0  0  0  0  0
   18.4239   -8.9178  -16.1127 O   0  0  0  0  0  0  0  0  0  0  0  0
   20.5962   -9.0845  -15.3391 N   0  0  0  0  0  0  0  0  0  0  0  0
   21.9528   -9.5959  -15.4098 C   0  0  0  0  0  0  0  0  0  0  0  0
   22.2671   -9.8252  -13.9486 C   0  0  0  0  0  0  0  0  0  0  0  0
   21.8398   -8.4502  -13.4043 C   0  0  0  0  0  0  0  0  0  0  0  0
   20.5301   -8.2244  -14.1968 C   0  0  1  0  0  0  0  0  0  0  0  0
   20.5122   -6.7954  -14.6832 C   0  0  0  0  0  0  0  0  0  0  0  0
   20.8715   -6.6186  -16.0188 O   0  0  0  0  0  0  0  0  0  0  0  0
   20.1940   -5.8817  -13.9123 O   0  0  0  0  0  0  0  0  0  0  0  0
  2  1  1  1
  2  7  1  0
  3  2  1  0
  4  3  1  0
  5  4  1  0
  6  5  2  0
  7  8  2  0
  9  5  1  0
 11 10  1  0
 11 12  1  0
 13 12  1  0
 14 13  1  6
 14 16  1  0
 15 14  1  0
 15  7  1  0
 16 17  2  0
 18 19  1  0
 18 16  1  0
 20 21  1  0
 20 19  1  0
 22 21  1  0
 22 18  1  0
 22 23  1  6
 24 23  1  0
 25 23  2  0
M  END
$$$$
