EMP.pdb
     RDKit          3D

 25 25  0  0  1  0  0  0  0  0999 V2000
   28.2044  -18.0178  -16.4548 N   0  0  0  0  0  0  0  0  0  0  0  0
   27.6890  -17.6558  -15.1422 C   0  0  1  0  0  0  0  0  0  0  0  0
   26.7023  -16.5519  -15.3110 C   0  0  0  0  0  0  0  0  0  0  0  0
   26.3649  -16.2009  -16.7157 C   0  0  0  0  0  0  0  0  0  0  0  0
   25.1115  -16.8260  -17.1621 C   0  0  0  0  0  0  0  0  0  0  0  0
   25.0685  -17.7354  -18.0141 O   0  0  0  0  0  0  0  0  0  0  0  0
   27.0745  -18.9059  -14.5776 C   0  0  0  0  0  0  0  0  0  0  0  0
   26.7384  -19.8315  -15.3772 O   0  0  0  0  0  0  0  0  0  0  0  0
   23.8688  -16.4212  -16.6395 O   0  0  0  0  0  0  0  0  0  0  0  0
   26.3587  -19.6773   -8.2713 C   0  0  0  0  0  0  0  0  0  0  0  0
   25.8342  -21.3522   -8.7363 S   0  0  0  0  0  0  0  0  0  0  0  0
   25.5948  -21.4585  -10.5482 C   0  0  0  0  0  0  0  0  0  0  0  0
   26.3466  -20.3245  -11.1746 C   0  0  0  0  0  0  0  0  0  0  0  0
   26.2209  -20.3130  -12.6895 C   0  0  2  0  0  0  0  0  0  0  0  0
   26.8609  -19.0812  -13.1915 N   0  0  0  0  0  0  0  0  0  0  0  0
   24.8178  -20.3485  -13.1433 C   0  0  0  0  0  0  0  0  0  0  0  0
   24.2245  -19.2034  -13.1355 O   0  0  0  0  0  0  0  0  0  0  0  0
   24.0912  -21.4699  -13.5721 N   0  0  0  0  0  0  0  0  0  0  0  0
   24.6340  -22.8161  -13.5666 C   0  0  0  0  0  0  0  0  0  0  0  0
   24.0414  -23.3873  -14.8350 C   0  0  0  0  0  0  0  0  0  0  0  0
   22.5715  -22.9976  -14.5963 C   0  0  0  0  0  0  0  0  0  0  0  0
   22.7432  -21.5620  -14.0448 C   0  0  1  0  0  0  0  0  0  0  0  0
   21.8173  -21.3951  -12.8642 C   0  0  0  0  0  0  0  0  0  0  0  0
   20.4866  -21.1310  -13.1864 O   0  0  0  0  0  0  0  0  0  0  0  0
   22.2569  -21.4950  -11.7122 O   0  0  0  0  0  0  0  0  0  0  0  0
  2  1  1  6
  2  7  1  0
  3  2  1  0
  4  3  1  0
  5  4  1  0
  6  5  2  0
  7  8  2  0
  9  5  1  0
 11 10  1  0
 11 12  1  0
 13 12  1  0
 14 13  1  1
 14 16  1  0
 15 14  1  0
 15  7  1  0
 16 17  2  0
 18 19  1  0
 18 16  1  0
 20 21  1  0
 20 19  1  0
 22 21  1  0
 22 18  1  0
 22 23  1  1
 24 23  1  0
 25 23  2  0
M  END
$$$$
