EMP.pdb
     RDKit          3D

 25 25  0  0  1  0  0  0  0  0999 V2000
   16.2616  -11.1065  -17.8034 N   0  0  0  0  0  0  0  0  0  0  0  0
   16.3400  -10.4151  -16.5246 C   0  0  1  0  0  0  0  0  0  0  0  0
   16.7607  -11.3950  -15.4837 C   0  0  0  0  0  0  0  0  0  0  0  0
   15.7136  -12.3544  -15.0440 C   0  0  0  0  0  0  0  0  0  0  0  0
   16.2185  -13.3183  -14.0555 C   0  0  0  0  0  0  0  0  0  0  0  0
   16.1510  -13.1316  -12.8246 O   0  0  0  0  0  0  0  0  0  0  0  0
   17.3329   -9.3026  -16.7135 C   0  0  0  0  0  0  0  0  0  0  0  0
   18.2467   -9.4458  -17.5816 O   0  0  0  0  0  0  0  0  0  0  0  0
   16.8170  -14.5276  -14.4567 O   0  0  0  0  0  0  0  0  0  0  0  0
   18.0626   -1.6374  -17.4528 C   0  0  0  0  0  0  0  0  0  0  0  0
   17.1004   -3.1437  -17.1341 S   0  0  0  0  0  0  0  0  0  0  0  0
   18.2227   -4.5489  -16.7910 C   0  0  0  0  0  0  0  0  0  0  0  0
   17.3763   -5.7644  -16.5685 C   0  0  0  0  0  0  0  0  0  0  0  0
   18.2066   -6.9996  -16.2592 C   0  0  2  0  0  0  0  0  0  0  0  0
   17.2803   -8.1090  -15.9585 N   0  0  0  0  0  0  0  0  0  0  0  0
   19.1130   -6.8022  -15.1124 C   0  0  0  0  0  0  0  0  0  0  0  0
   18.5187   -6.7050  -13.9719 O   0  0  0  0  0  0  0  0  0  0  0  0
   20.5135   -6.7164  -15.1407 N   0  0  0  0  0  0  0  0  0  0  0  0
   21.2918   -6.8523  -16.3583 C   0  0  0  0  0  0  0  0  0  0  0  0
   22.5017   -7.6113  -15.8619 C   0  0  0  0  0  0  0  0  0  0  0  0
   22.8491   -6.7229  -14.6538 C   0  0  0  0  0  0  0  0  0  0  0  0
   21.4372   -6.4605  -14.0775 C   0  0  1  0  0  0  0  0  0  0  0  0
   21.3404   -4.9993  -13.7105 C   0  0  0  0  0  0  0  0  0  0  0  0
   22.0322   -4.6300  -12.5575 O   0  0  0  0  0  0  0  0  0  0  0  0
   20.6815   -4.2250  -14.4154 O   0  0  0  0  0  0  0  0  0  0  0  0
  2  1  1  6
  2  7  1  0
  3  2  1  0
  4  3  1  0
  5  4  1  0
  6  5  2  0
  7  8  2  0
  9  5  1  0
 11 10  1  0
 11 12  1  0
 13 12  1  0
 14 13  1  1
 14 16  1  0
 15 14  1  0
 15  7  1  0
 16 17  2  0
 18 19  1  0
 18 16  1  0
 20 21  1  0
 20 19  1  0
 22 21  1  0
 22 18  1  0
 22 23  1  6
 24 23  1  0
 25 23  2  0
M  END
$$$$
