EMP.pdb
     RDKit          3D

 25 25  0  0  1  0  0  0  0  0999 V2000
   20.2335  -14.2276  -19.2832 N   0  0  0  0  0  0  0  0  0  0  0  0
   19.4523  -14.0459  -18.0682 C   0  0  1  0  0  0  0  0  0  0  0  0
   19.0499  -15.3881  -17.5610 C   0  0  0  0  0  0  0  0  0  0  0  0
   19.9022  -16.5235  -18.0019 C   0  0  0  0  0  0  0  0  0  0  0  0
   20.1387  -17.4959  -16.9251 C   0  0  0  0  0  0  0  0  0  0  0  0
   19.3681  -18.4456  -16.6823 O   0  0  0  0  0  0  0  0  0  0  0  0
   20.3403  -13.3024  -17.1102 C   0  0  0  0  0  0  0  0  0  0  0  0
   19.9083  -13.0660  -15.9412 O   0  0  0  0  0  0  0  0  0  0  0  0
   21.2716  -17.4026  -16.0949 O   0  0  0  0  0  0  0  0  0  0  0  0
   27.7777  -11.4758  -15.2162 C   0  0  0  0  0  0  0  0  0  0  0  0
   26.5752  -12.2365  -16.3439 S   0  0  0  0  0  0  0  0  0  0  0  0
   24.8701  -11.8233  -15.8208 C   0  0  0  0  0  0  0  0  0  0  0  0
   23.9265  -12.4991  -16.7676 C   0  0  0  0  0  0  0  0  0  0  0  0
   22.4742  -12.1489  -16.4865 C   0  0  2  0  0  0  0  0  0  0  0  0
   21.6342  -12.8614  -17.4692 N   0  0  0  0  0  0  0  0  0  0  0  0
   22.2100  -10.7010  -16.5839 C   0  0  0  0  0  0  0  0  0  0  0  0
   22.1806  -10.2430  -17.7892 O   0  0  0  0  0  0  0  0  0  0  0  0
   21.9910   -9.8038  -15.5273 N   0  0  0  0  0  0  0  0  0  0  0  0
   21.9910  -10.2061  -14.1326 C   0  0  0  0  0  0  0  0  0  0  0  0
   20.8872   -9.3409  -13.5674 C   0  0  0  0  0  0  0  0  0  0  0  0
   21.3535   -7.9833  -14.1231 C   0  0  0  0  0  0  0  0  0  0  0  0
   21.7694   -8.3899  -15.5571 C   0  0  1  0  0  0  0  0  0  0  0  0
   23.0803   -7.7140  -15.8788 C   0  0  0  0  0  0  0  0  0  0  0  0
   24.1937   -8.5534  -15.8898 O   0  0  0  0  0  0  0  0  0  0  0  0
   23.1116   -6.4989  -16.1090 O   0  0  0  0  0  0  0  0  0  0  0  0
  2  1  1  6
  2  7  1  0
  3  2  1  0
  4  3  1  0
  5  4  1  0
  6  5  2  0
  7  8  2  0
  9  5  1  0
 11 10  1  0
 11 12  1  0
 13 12  1  0
 14 13  1  6
 14 16  1  0
 15 14  1  0
 15  7  1  0
 16 17  2  0
 18 19  1  0
 18 16  1  0
 20 21  1  0
 20 19  1  0
 22 21  1  0
 22 18  1  0
 22 23  1  1
 24 23  1  0
 25 23  2  0
M  END
$$$$
