EMP.pdb
     RDKit          3D

 25 25  0  0  1  0  0  0  0  0999 V2000
   28.4110  -21.7907  -17.5820 N   0  0  0  0  0  0  0  0  0  0  0  0
   28.2820  -20.6405  -16.6990 C   0  0  1  0  0  0  0  0  0  0  0  0
   27.8763  -19.4620  -17.5158 C   0  0  0  0  0  0  0  0  0  0  0  0
   26.9182  -19.7428  -18.6172 C   0  0  0  0  0  0  0  0  0  0  0  0
   25.6038  -19.1267  -18.3851 C   0  0  0  0  0  0  0  0  0  0  0  0
   24.5272  -19.6927  -18.6594 O   0  0  0  0  0  0  0  0  0  0  0  0
   27.2536  -21.0191  -15.6704 C   0  0  0  0  0  0  0  0  0  0  0  0
   26.4320  -21.9454  -15.9461 O   0  0  0  0  0  0  0  0  0  0  0  0
   25.4908  -17.8384  -17.8294 O   0  0  0  0  0  0  0  0  0  0  0  0
   24.9978  -21.0753   -8.2121 C   0  0  0  0  0  0  0  0  0  0  0  0
   26.2235  -20.8944   -9.5392 S   0  0  0  0  0  0  0  0  0  0  0  0
   25.4076  -20.3367  -11.0803 C   0  0  0  0  0  0  0  0  0  0  0  0
   26.4757  -20.1130  -12.1063 C   0  0  0  0  0  0  0  0  0  0  0  0
   26.1742  -20.8174  -13.4192 C   0  0  2  0  0  0  0  0  0  0  0  0
   27.1739  -20.3789  -14.4128 N   0  0  0  0  0  0  0  0  0  0  0  0
   24.8227  -20.5167  -13.9279 C   0  0  0  0  0  0  0  0  0  0  0  0
   24.7048  -19.3563  -14.4782 O   0  0  0  0  0  0  0  0  0  0  0  0
   23.6910  -21.3450  -13.8760 N   0  0  0  0  0  0  0  0  0  0  0  0
   23.7332  -22.7165  -13.4025 C   0  0  0  0  0  0  0  0  0  0  0  0
   22.7568  -23.3911  -14.3394 C   0  0  0  0  0  0  0  0  0  0  0  0
   21.5795  -22.4113  -14.1871 C   0  0  0  0  0  0  0  0  0  0  0  0
   22.3296  -21.0581  -14.2126 C   0  0  1  0  0  0  0  0  0  0  0  0
   21.7524  -20.1769  -13.1313 C   0  0  0  0  0  0  0  0  0  0  0  0
   20.5931  -19.4870  -13.4840 O   0  0  0  0  0  0  0  0  0  0  0  0
   22.3060  -20.1064  -12.0273 O   0  0  0  0  0  0  0  0  0  0  0  0
  2  1  1  6
  2  7  1  0
  3  2  1  0
  4  3  1  0
  5  4  1  0
  6  5  2  0
  7  8  2  0
  9  5  1  0
 11 10  1  0
 11 12  1  0
 13 12  1  0
 14 13  1  1
 14 16  1  0
 15 14  1  0
 15  7  1  0
 16 17  2  0
 18 19  1  0
 18 16  1  0
 20 21  1  0
 20 19  1  0
 22 21  1  0
 22 18  1  0
 22 23  1  1
 24 23  1  0
 25 23  2  0
M  END
$$$$
