EMP.pdb
     RDKit          3D

 25 25  0  0  1  0  0  0  0  0999 V2000
   20.2348  -20.1175  -13.5872 N   0  0  0  0  0  0  0  0  0  0  0  0
   21.1370  -21.2284  -13.3198 C   0  0  1  0  0  0  0  0  0  0  0  0
   21.1473  -22.1246  -14.5103 C   0  0  0  0  0  0  0  0  0  0  0  0
   19.8868  -22.1616  -15.2976 C   0  0  0  0  0  0  0  0  0  0  0  0
   20.0422  -21.5599  -16.6298 C   0  0  0  0  0  0  0  0  0  0  0  0
   20.7989  -22.0257  -17.5045 O   0  0  0  0  0  0  0  0  0  0  0  0
   22.4803  -20.6151  -13.0398 C   0  0  0  0  0  0  0  0  0  0  0  0
   22.7876  -19.5333  -13.6266 O   0  0  0  0  0  0  0  0  0  0  0  0
   19.3293  -20.4022  -16.9942 O   0  0  0  0  0  0  0  0  0  0  0  0
   28.3271  -19.7622   -7.8801 C   0  0  0  0  0  0  0  0  0  0  0  0
   26.8307  -20.6392   -8.4168 S   0  0  0  0  0  0  0  0  0  0  0  0
   26.5091  -20.3124  -10.1893 C   0  0  0  0  0  0  0  0  0  0  0  0
   25.2095  -20.9666  -10.5448 C   0  0  0  0  0  0  0  0  0  0  0  0
   24.7272  -20.5798  -11.9336 C   0  0  2  0  0  0  0  0  0  0  0  0
   23.4062  -21.2027  -12.1482 N   0  0  0  0  0  0  0  0  0  0  0  0
   25.6484  -21.0205  -12.9980 C   0  0  0  0  0  0  0  0  0  0  0  0
   25.5733  -22.2759  -13.2837 O   0  0  0  0  0  0  0  0  0  0  0  0
   26.5655  -20.2314  -13.7090 N   0  0  0  0  0  0  0  0  0  0  0  0
   26.9046  -18.8723  -13.3284 C   0  0  0  0  0  0  0  0  0  0  0  0
   27.0455  -18.2055  -14.6781 C   0  0  0  0  0  0  0  0  0  0  0  0
   27.9873  -19.2271  -15.3407 C   0  0  0  0  0  0  0  0  0  0  0  0
   27.3512  -20.5538  -14.8613 C   0  0  1  0  0  0  0  0  0  0  0  0
   28.4612  -21.4817  -14.4303 C   0  0  0  0  0  0  0  0  0  0  0  0
   29.1340  -22.1246  -15.4688 O   0  0  0  0  0  0  0  0  0  0  0  0
   28.7168  -21.6270  -13.2286 O   0  0  0  0  0  0  0  0  0  0  0  0
  2  1  1  6
  2  7  1  0
  3  2  1  0
  4  3  1  0
  5  4  1  0
  6  5  2  0
  7  8  2  0
  9  5  1  0
 11 10  1  0
 11 12  1  0
 13 12  1  0
 14 13  1  1
 14 16  1  0
 15 14  1  0
 15  7  1  0
 16 17  2  0
 18 19  1  0
 18 16  1  0
 20 21  1  0
 20 19  1  0
 22 21  1  0
 22 18  1  0
 22 23  1  1
 24 23  1  0
 25 23  2  0
M  END
$$$$
