EMP.pdb
     RDKit          3D

 25 25  0  0  1  0  0  0  0  0999 V2000
   20.2347  -20.2632  -13.2747 N   0  0  0  0  0  0  0  0  0  0  0  0
   21.1928  -21.1302  -13.9454 C   0  0  1  0  0  0  0  0  0  0  0  0
   20.8438  -21.1878  -15.3930 C   0  0  0  0  0  0  0  0  0  0  0  0
   19.8015  -22.1809  -15.7636 C   0  0  0  0  0  0  0  0  0  0  0  0
   18.4427  -21.6978  -15.4782 C   0  0  0  0  0  0  0  0  0  0  0  0
   17.5350  -22.4329  -15.0421 O   0  0  0  0  0  0  0  0  0  0  0  0
   22.5462  -20.5262  -13.6953 C   0  0  0  0  0  0  0  0  0  0  0  0
   22.7085  -19.2878  -13.9170 O   0  0  0  0  0  0  0  0  0  0  0  0
   18.0892  -20.3514  -15.6871 O   0  0  0  0  0  0  0  0  0  0  0  0
   26.4688  -20.7483   -8.6505 C   0  0  0  0  0  0  0  0  0  0  0  0
   27.5658  -21.3599   -9.9616 S   0  0  0  0  0  0  0  0  0  0  0  0
   27.0000  -20.7513  -11.5930 C   0  0  0  0  0  0  0  0  0  0  0  0
   25.6058  -21.2544  -11.8086 C   0  0  0  0  0  0  0  0  0  0  0  0
   24.9634  -20.6648  -13.0538 C   0  0  2  0  0  0  0  0  0  0  0  0
   23.6373  -21.2908  -13.2236 N   0  0  0  0  0  0  0  0  0  0  0  0
   25.7659  -20.8946  -14.2700 C   0  0  0  0  0  0  0  0  0  0  0  0
   25.6215  -22.0649  -14.7923 O   0  0  0  0  0  0  0  0  0  0  0  0
   26.6395  -19.9916  -14.8951 N   0  0  0  0  0  0  0  0  0  0  0  0
   26.9713  -18.6935  -14.3367 C   0  0  0  0  0  0  0  0  0  0  0  0
   27.0451  -17.8378  -15.5810 C   0  0  0  0  0  0  0  0  0  0  0  0
   27.9755  -18.7329  -16.4193 C   0  0  0  0  0  0  0  0  0  0  0  0
   27.3821  -20.1284  -16.1112 C   0  0  1  0  0  0  0  0  0  0  0  0
   28.5243  -21.0832  -15.8611 C   0  0  0  0  0  0  0  0  0  0  0  0
   29.2421  -21.4600  -16.9957 O   0  0  0  0  0  0  0  0  0  0  0  0
   28.7658  -21.4742  -14.7125 O   0  0  0  0  0  0  0  0  0  0  0  0
  2  1  1  1
  2  7  1  0
  3  2  1  0
  4  3  1  0
  5  4  1  0
  6  5  2  0
  7  8  2  0
  9  5  1  0
 11 10  1  0
 11 12  1  0
 13 12  1  0
 14 13  1  1
 14 16  1  0
 15 14  1  0
 15  7  1  0
 16 17  2  0
 18 19  1  0
 18 16  1  0
 20 21  1  0
 20 19  1  0
 22 21  1  0
 22 18  1  0
 22 23  1  1
 24 23  1  0
 25 23  2  0
M  END
$$$$
