DSY.pdb
     RDKit          3D

 27 27  0  0  1  0  0  0  0  0999 V2000
   17.5654  -11.0635  -15.2942 N   0  0  0  0  0  0  0  0  0  0  0  0
   16.6789  -10.7466  -14.2023 C   0  0  1  0  0  0  0  0  0  0  0  0
   16.1335  -11.9977  -13.5261 C   0  0  0  0  0  0  0  0  0  0  0  0
   15.1809  -12.6765  -14.4408 C   0  0  0  0  0  0  0  0  0  0  0  0
   14.8828  -12.2046  -15.5863 O   0  0  0  0  0  0  0  0  0  0  0  0
   17.2887   -9.7937  -13.2708 C   0  0  0  0  0  0  0  0  0  0  0  0
   18.5331   -9.9255  -13.0109 O   0  0  0  0  0  0  0  0  0  0  0  0
   14.5539  -13.8762  -14.0959 O   0  0  0  0  0  0  0  0  0  0  0  0
   18.9420   -6.0870  -12.1128 O   0  0  0  0  0  0  0  0  0  0  0  0
   18.2194   -7.0271  -12.8675 C   0  0  0  0  0  0  0  0  0  0  0  0
   17.2902   -7.7454  -11.9297 C   0  0  2  0  0  0  0  0  0  0  0  0
   16.5654   -8.7376  -12.6475 N   0  0  0  0  0  0  0  0  0  0  0  0
   16.4256   -6.7493  -11.2528 C   0  0  0  0  0  0  0  0  0  0  0  0
   15.5876   -6.1458  -11.9687 O   0  0  0  0  0  0  0  0  0  0  0  0
   10.7314   -9.7333   -8.1269 O   0  0  0  0  0  0  0  0  0  0  0  0
   11.7857   -8.8319   -8.0780 C   0  0  0  0  0  0  0  0  0  0  0  0
   11.6175   -7.4862   -7.9002 C   0  0  0  0  0  0  0  0  0  0  0  0
   12.6862   -6.6112   -7.8554 C   0  0  0  0  0  0  0  0  0  0  0  0
   13.9868   -7.0972   -7.9942 C   0  0  0  0  0  0  0  0  0  0  0  0
   15.0811   -6.1485   -7.9433 C   0  0  0  0  0  0  0  0  0  0  0  0
   15.5051   -5.5254   -9.2325 C   0  0  2  0  0  0  0  0  0  0  0  0
   16.4747   -6.4306   -9.8753 N   0  0  0  0  0  0  0  0  0  0  0  0
   16.2100   -4.2566   -8.9370 C   0  0  0  0  0  0  0  0  0  0  0  0
   15.4979   -3.1634   -8.4770 O   0  0  0  0  0  0  0  0  0  0  0  0
   14.1170   -8.4562   -8.1711 C   0  0  0  0  0  0  0  0  0  0  0  0
   13.0579   -9.3335   -8.2167 C   0  0  0  0  0  0  0  0  0  0  0  0
   17.4494   -4.1064   -9.0821 O   0  0  0  0  0  0  0  0  0  0  0  0
  2  3  1  0
  2  1  1  6
  4  3  1  0
  4  8  1  0
  5  4  2  0
  6  2  1  0
  7  6  2  0
 10  9  1  0
 11 10  1  6
 11 12  1  0
 12  6  1  0
 13 22  1  0
 13 11  1  0
 14 13  2  0
 16 15  1  0
 17 16  2  0
 18 17  1  0
 19 25  1  0
 19 18  2  0
 20 19  1  0
 21 20  1  1
 21 23  1  0
 21 22  1  0
 23 24  1  0
 25 26  2  0
 26 16  1  0
 27 23  2  0
M  END
$$$$
