DSY.pdb
     RDKit          3D

 27 27  0  0  1  0  0  0  0  0999 V2000
   23.8792  -14.7829  -16.9740 N   0  0  0  0  0  0  0  0  0  0  0  0
   23.9753  -13.7032  -16.0234 C   0  0  1  0  0  0  0  0  0  0  0  0
   25.4202  -13.3884  -15.6585 C   0  0  0  0  0  0  0  0  0  0  0  0
   26.0971  -14.6319  -15.2104 C   0  0  0  0  0  0  0  0  0  0  0  0
   25.4790  -15.7401  -15.0947 O   0  0  0  0  0  0  0  0  0  0  0  0
   23.2106  -12.5311  -16.4584 C   0  0  0  0  0  0  0  0  0  0  0  0
   22.3694  -12.6856  -17.4082 O   0  0  0  0  0  0  0  0  0  0  0  0
   27.4560  -14.6576  -14.8882 O   0  0  0  0  0  0  0  0  0  0  0  0
   21.1609  -10.2076  -14.3867 O   0  0  0  0  0  0  0  0  0  0  0  0
   21.1177  -10.4210  -15.7752 C   0  0  0  0  0  0  0  0  0  0  0  0
   22.5022  -10.1920  -16.3136 C   0  0  2  0  0  0  0  0  0  0  0  0
   23.3602  -11.2401  -15.8772 N   0  0  0  0  0  0  0  0  0  0  0  0
   22.9585   -8.8410  -15.9082 C   0  0  0  0  0  0  0  0  0  0  0  0
   23.3520   -8.7072  -14.7224 O   0  0  0  0  0  0  0  0  0  0  0  0
   25.7485   -0.3598  -16.7373 O   0  0  0  0  0  0  0  0  0  0  0  0
   25.2359   -1.6359  -16.9251 C   0  0  0  0  0  0  0  0  0  0  0  0
   26.0136   -2.7601  -16.9705 C   0  0  0  0  0  0  0  0  0  0  0  0
   25.4759   -4.0192  -17.1589 C   0  0  0  0  0  0  0  0  0  0  0  0
   24.0968   -4.1688  -17.3097 C   0  0  0  0  0  0  0  0  0  0  0  0
   23.5708   -5.5047  -17.5067 C   0  0  0  0  0  0  0  0  0  0  0  0
   23.5307   -6.4052  -16.3161 C   0  0  2  0  0  0  0  0  0  0  0  0
   22.9820   -7.7031  -16.7485 N   0  0  0  0  0  0  0  0  0  0  0  0
   22.5927   -5.8353  -15.3214 C   0  0  0  0  0  0  0  0  0  0  0  0
   23.0804   -5.0975  -14.2577 O   0  0  0  0  0  0  0  0  0  0  0  0
   23.3465   -3.0158  -17.2583 C   0  0  0  0  0  0  0  0  0  0  0  0
   23.8746   -1.7591  -17.0710 C   0  0  0  0  0  0  0  0  0  0  0  0
   21.3462   -5.9840  -15.3850 O   0  0  0  0  0  0  0  0  0  0  0  0
  2  3  1  0
  2  1  1  6
  4  3  1  0
  4  8  1  0
  5  4  2  0
  6  2  1  0
  7  6  2  0
 10  9  1  0
 11 10  1  1
 11 12  1  0
 12  6  1  0
 13 22  1  0
 13 11  1  0
 14 13  2  0
 16 15  1  0
 17 16  2  0
 18 17  1  0
 19 25  1  0
 19 18  2  0
 20 19  1  0
 21 20  1  6
 21 23  1  0
 21 22  1  0
 23 24  1  0
 25 26  2  0
 26 16  1  0
 27 23  2  0
M  END
$$$$
