DSY.pdb
     RDKit          3D

 27 27  0  0  1  0  0  0  0  0999 V2000
   32.1655  -36.4304   -4.9428 N   0  0  0  0  0  0  0  0  0  0  0  0
   31.5906  -36.1695   -3.6466 C   0  0  1  0  0  0  0  0  0  0  0  0
   32.1925  -34.9330   -2.9917 C   0  0  0  0  0  0  0  0  0  0  0  0
   33.5666  -35.2438   -2.5223 C   0  0  0  0  0  0  0  0  0  0  0  0
   34.5679  -35.2611   -3.3101 O   0  0  0  0  0  0  0  0  0  0  0  0
   30.1262  -36.1527   -3.6988 C   0  0  0  0  0  0  0  0  0  0  0  0
   29.5716  -35.8040   -4.7963 O   0  0  0  0  0  0  0  0  0  0  0  0
   33.8411  -35.5366   -1.1843 O   0  0  0  0  0  0  0  0  0  0  0  0
   27.7514  -36.8002   -0.4445 O   0  0  0  0  0  0  0  0  0  0  0  0
   27.2435  -37.2856   -1.6618 C   0  0  0  0  0  0  0  0  0  0  0  0
   27.8881  -36.4997   -2.7690 C   0  0  2  0  0  0  0  0  0  0  0  0
   29.3002  -36.5035   -2.5935 N   0  0  0  0  0  0  0  0  0  0  0  0
   27.2956  -35.1411   -2.8024 C   0  0  0  0  0  0  0  0  0  0  0  0
   27.9822  -34.2106   -2.3107 O   0  0  0  0  0  0  0  0  0  0  0  0
   26.8775  -32.6564   -9.5511 O   0  0  0  0  0  0  0  0  0  0  0  0
   26.2978  -32.7899   -8.2970 C   0  0  0  0  0  0  0  0  0  0  0  0
   25.7555  -31.7432   -7.6035 C   0  0  0  0  0  0  0  0  0  0  0  0
   25.1845  -31.9051   -6.3554 C   0  0  0  0  0  0  0  0  0  0  0  0
   25.1505  -33.1699   -5.7671 C   0  0  0  0  0  0  0  0  0  0  0  0
   24.5447  -33.2993   -4.4570 C   0  0  0  0  0  0  0  0  0  0  0  0
   25.4651  -33.4569   -3.2917 C   0  0  2  0  0  0  0  0  0  0  0  0
   26.0274  -34.8186   -3.3399 N   0  0  0  0  0  0  0  0  0  0  0  0
   24.6743  -33.3465   -2.0441 C   0  0  0  0  0  0  0  0  0  0  0  0
   24.5491  -34.4416   -1.2081 O   0  0  0  0  0  0  0  0  0  0  0  0
   25.7053  -34.1986   -6.4945 C   0  0  0  0  0  0  0  0  0  0  0  0
   26.2755  -34.0452   -7.7373 C   0  0  0  0  0  0  0  0  0  0  0  0
   24.0934  -32.2905   -1.6871 O   0  0  0  0  0  0  0  0  0  0  0  0
  2  3  1  0
  2  1  1  6
  4  3  1  0
  4  8  1  0
  5  4  2  0
  6  2  1  0
  7  6  2  0
 10  9  1  0
 11 10  1  1
 11 12  1  0
 12  6  1  0
 13 22  1  0
 13 11  1  0
 14 13  2  0
 16 15  1  0
 17 16  2  0
 18 17  1  0
 19 25  1  0
 19 18  2  0
 20 19  1  0
 21 20  1  6
 21 23  1  0
 21 22  1  0
 23 24  1  0
 25 26  2  0
 26 16  1  0
 27 23  2  0
M  END
$$$$
