DSY.pdb
     RDKit          3D

 27 27  0  0  1  0  0  0  0  0999 V2000
   22.4776  -12.6732  -18.7450 N   0  0  0  0  0  0  0  0  0  0  0  0
   22.4511  -12.1355  -17.4076 C   0  0  1  0  0  0  0  0  0  0  0  0
   23.7449  -12.4131  -16.6531 C   0  0  0  0  0  0  0  0  0  0  0  0
   23.9502  -13.8802  -16.5506 C   0  0  0  0  0  0  0  0  0  0  0  0
   23.0292  -14.6716  -16.1646 O   0  0  0  0  0  0  0  0  0  0  0  0
   22.0585  -10.7236  -17.4009 C   0  0  0  0  0  0  0  0  0  0  0  0
   22.4727   -9.9839  -18.3574 O   0  0  0  0  0  0  0  0  0  0  0  0
   25.1704  -14.4790  -16.8725 O   0  0  0  0  0  0  0  0  0  0  0  0
   20.0004   -8.9165  -14.3422 O   0  0  0  0  0  0  0  0  0  0  0  0
   19.6558   -8.5195  -15.6457 C   0  0  0  0  0  0  0  0  0  0  0  0
   20.8413   -8.7859  -16.5303 C   0  0  2  0  0  0  0  0  0  0  0  0
   21.2445  -10.1431  -16.3873 N   0  0  0  0  0  0  0  0  0  0  0  0
   21.9101   -7.8100  -16.2090 C   0  0  0  0  0  0  0  0  0  0  0  0
   22.6856   -8.1079  -15.2662 O   0  0  0  0  0  0  0  0  0  0  0  0
   27.0702   -0.4952  -16.7532 O   0  0  0  0  0  0  0  0  0  0  0  0
   26.1373   -1.5055  -16.9418 C   0  0  0  0  0  0  0  0  0  0  0  0
   26.4719   -2.7797  -17.3095 C   0  0  0  0  0  0  0  0  0  0  0  0
   25.5214   -3.7665  -17.4904 C   0  0  0  0  0  0  0  0  0  0  0  0
   24.1712   -3.4728  -17.2963 C   0  0  0  0  0  0  0  0  0  0  0  0
   23.2043   -4.5334  -17.4969 C   0  0  0  0  0  0  0  0  0  0  0  0
   23.1677   -5.6254  -16.4789 C   0  0  2  0  0  0  0  0  0  0  0  0
   22.1182   -6.5806  -16.8774 N   0  0  0  0  0  0  0  0  0  0  0  0
   22.7694   -5.0457  -15.1753 C   0  0  0  0  0  0  0  0  0  0  0  0
   21.4300   -4.8562  -14.8856 O   0  0  0  0  0  0  0  0  0  0  0  0
   23.8726   -2.1807  -16.9266 C   0  0  0  0  0  0  0  0  0  0  0  0
   24.8132   -1.1931  -16.7447 C   0  0  0  0  0  0  0  0  0  0  0  0
   23.5951   -4.7057  -14.2907 O   0  0  0  0  0  0  0  0  0  0  0  0
  2  3  1  0
  2  1  1  6
  4  3  1  0
  4  8  1  0
  5  4  2  0
  6  2  1  0
  7  6  2  0
 10  9  1  0
 11 10  1  1
 11 12  1  0
 12  6  1  0
 13 22  1  0
 13 11  1  0
 14 13  2  0
 16 15  1  0
 17 16  2  0
 18 17  1  0
 19 25  1  0
 19 18  2  0
 20 19  1  0
 21 20  1  6
 21 23  1  0
 21 22  1  0
 23 24  1  0
 25 26  2  0
 26 16  1  0
 27 23  2  0
M  END
$$$$
