DSY.pdb
     RDKit          3D

 27 27  0  0  1  0  0  0  0  0999 V2000
   18.4307  -11.3207  -18.4251 N   0  0  0  0  0  0  0  0  0  0  0  0
   19.6643  -11.2683  -17.6807 C   0  0  1  0  0  0  0  0  0  0  0  0
   20.5110  -12.5176  -17.8869 C   0  0  0  0  0  0  0  0  0  0  0  0
   19.7534  -13.7080  -17.4244 C   0  0  0  0  0  0  0  0  0  0  0  0
   19.9241  -14.2174  -16.2690 O   0  0  0  0  0  0  0  0  0  0  0  0
   20.3905  -10.0194  -17.9261 C   0  0  0  0  0  0  0  0  0  0  0  0
   21.4299   -9.7842  -17.2204 O   0  0  0  0  0  0  0  0  0  0  0  0
   18.8064  -14.3404  -18.2333 O   0  0  0  0  0  0  0  0  0  0  0  0
   21.3079   -6.1693  -20.5894 O   0  0  0  0  0  0  0  0  0  0  0  0
   20.3997   -7.2189  -20.3683 C   0  0  0  0  0  0  0  0  0  0  0  0
   20.8021   -7.9076  -19.0945 C   0  0  2  0  0  0  0  0  0  0  0  0
   19.9953   -9.0644  -18.9053 N   0  0  0  0  0  0  0  0  0  0  0  0
   20.7224   -6.9366  -17.9770 C   0  0  0  0  0  0  0  0  0  0  0  0
   19.5823   -6.7167  -17.4967 O   0  0  0  0  0  0  0  0  0  0  0  0
   19.0269   -9.3600  -12.0699 O   0  0  0  0  0  0  0  0  0  0  0  0
   19.8187   -8.4864  -12.8023 C   0  0  0  0  0  0  0  0  0  0  0  0
   19.7352   -7.1254  -12.6952 C   0  0  0  0  0  0  0  0  0  0  0  0
   20.5367   -6.2789  -13.4374 C   0  0  0  0  0  0  0  0  0  0  0  0
   21.4676   -6.8109  -14.3305 C   0  0  0  0  0  0  0  0  0  0  0  0
   22.2888   -5.8912  -15.0918 C   0  0  0  0  0  0  0  0  0  0  0  0
   21.6804   -5.2822  -16.3120 C   0  0  2  0  0  0  0  0  0  0  0  0
   21.8233   -6.2458  -17.4182 N   0  0  0  0  0  0  0  0  0  0  0  0
   22.4537   -4.0718  -16.6742 C   0  0  0  0  0  0  0  0  0  0  0  0
   22.4252   -2.9627  -15.8479 O   0  0  0  0  0  0  0  0  0  0  0  0
   21.5232   -8.1841  -14.4111 C   0  0  0  0  0  0  0  0  0  0  0  0
   20.7286   -9.0332  -13.6755 C   0  0  0  0  0  0  0  0  0  0  0  0
   23.1539   -3.9868  -17.7146 O   0  0  0  0  0  0  0  0  0  0  0  0
  2  3  1  0
  2  1  1  6
  4  3  1  0
  4  8  1  0
  5  4  2  0
  6  2  1  0
  7  6  2  0
 10  9  1  0
 11 10  1  6
 11 12  1  0
 12  6  1  0
 13 22  1  0
 13 11  1  0
 14 13  2  0
 16 15  1  0
 17 16  2  0
 18 17  1  0
 19 25  1  0
 19 18  2  0
 20 19  1  0
 21 20  1  1
 21 23  1  0
 21 22  1  0
 23 24  1  0
 25 26  2  0
 26 16  1  0
 27 23  2  0
M  END
$$$$
