DSY.pdb
     RDKit          3D

 27 27  0  0  1  0  0  0  0  0999 V2000
   19.0912  -11.9520  -16.5912 N   0  0  0  0  0  0  0  0  0  0  0  0
   19.2991  -10.9768  -17.6325 C   0  0  1  0  0  0  0  0  0  0  0  0
   18.4491  -11.2635  -18.8635 C   0  0  0  0  0  0  0  0  0  0  0  0
   18.9187  -12.5176  -19.5051 C   0  0  0  0  0  0  0  0  0  0  0  0
   20.1449  -12.8643  -19.5065 O   0  0  0  0  0  0  0  0  0  0  0  0
   19.1581   -9.6085  -17.1270 C   0  0  0  0  0  0  0  0  0  0  0  0
   18.9462   -8.6769  -17.9760 O   0  0  0  0  0  0  0  0  0  0  0  0
   18.0392  -13.3926  -20.1471 O   0  0  0  0  0  0  0  0  0  0  0  0
   18.2897   -8.6980  -13.3066 O   0  0  0  0  0  0  0  0  0  0  0  0
   18.0018   -7.7920  -14.3418 C   0  0  0  0  0  0  0  0  0  0  0  0
   19.0959   -7.9091  -15.3657 C   0  0  2  0  0  0  0  0  0  0  0  0
   19.2455   -9.2721  -15.7464 N   0  0  0  0  0  0  0  0  0  0  0  0
   20.3338   -7.3043  -14.8180 C   0  0  0  0  0  0  0  0  0  0  0  0
   21.1020   -8.0655  -14.1781 O   0  0  0  0  0  0  0  0  0  0  0  0
   24.4600   -9.1000  -19.0591 O   0  0  0  0  0  0  0  0  0  0  0  0
   24.0434   -8.0895  -18.2035 C   0  0  0  0  0  0  0  0  0  0  0  0
   22.9463   -7.3079  -18.4401 C   0  0  0  0  0  0  0  0  0  0  0  0
   22.5542   -6.3081  -17.5702 C   0  0  0  0  0  0  0  0  0  0  0  0
   23.2887   -6.0733  -16.4073 C   0  0  0  0  0  0  0  0  0  0  0  0
   22.8471   -5.0154  -15.5207 C   0  0  0  0  0  0  0  0  0  0  0  0
   21.9535   -5.4020  -14.3885 C   0  0  2  0  0  0  0  0  0  0  0  0
   20.7092   -5.9477  -14.9599 N   0  0  0  0  0  0  0  0  0  0  0  0
   21.5958   -4.1820  -13.6284 C   0  0  0  0  0  0  0  0  0  0  0  0
   20.2776   -3.7663  -13.5726 O   0  0  0  0  0  0  0  0  0  0  0  0
   24.3857   -6.8795  -16.2026 C   0  0  0  0  0  0  0  0  0  0  0  0
   24.7821   -7.8765  -17.0640 C   0  0  0  0  0  0  0  0  0  0  0  0
   22.4386   -3.4810  -13.0134 O   0  0  0  0  0  0  0  0  0  0  0  0
  2  3  1  0
  2  1  1  1
  4  3  1  0
  4  8  1  0
  5  4  2  0
  6  2  1  0
  7  6  2  0
 10  9  1  0
 11 10  1  1
 11 12  1  0
 12  6  1  0
 13 22  1  0
 13 11  1  0
 14 13  2  0
 16 15  1  0
 17 16  2  0
 18 17  1  0
 19 25  1  0
 19 18  2  0
 20 19  1  0
 21 20  1  6
 21 23  1  0
 21 22  1  0
 23 24  1  0
 25 26  2  0
 26 16  1  0
 27 23  2  0
M  END
$$$$
