HHQ.pdb
     RDKit          3D

 30 31  0  0  1  0  0  0  0  0999 V2000
   24.2600   -6.4933  -21.4443 N   0  0  0  0  0  0  0  0  0  0  0  0
   24.4936   -7.9082  -21.2719 C   0  0  1  0  0  0  0  0  0  0  0  0
   25.9943   -8.1554  -21.0674 C   0  0  0  0  0  0  0  0  0  0  0  0
   26.6560   -7.9875  -22.3955 C   0  0  0  0  0  0  0  0  0  0  0  0
   26.3457   -8.7011  -23.5434 C   0  0  0  0  0  0  0  0  0  0  0  0
   27.1407   -8.2869  -24.5466 N   0  0  0  0  0  0  0  0  0  0  0  0
   27.9501   -7.3213  -24.0509 C   0  0  0  0  0  0  0  0  0  0  0  0
   27.6486   -7.1461  -22.7436 N   0  0  0  0  0  0  0  0  0  0  0  0
   23.8236   -8.4378  -20.0580 C   0  0  0  0  0  0  0  0  0  0  0  0
   23.9087   -9.6600  -19.8192 O   0  0  0  0  0  0  0  0  0  0  0  0
   23.1067   -7.5648  -19.1978 N   0  0  0  0  0  0  0  0  0  0  0  0
   22.3400   -8.0546  -18.0590 C   0  0  1  0  0  0  0  0  0  0  0  0
   23.0717   -7.7895  -16.7651 C   0  0  0  0  0  0  0  0  0  0  0  0
   22.3442   -8.4557  -15.6635 C   0  0  0  0  0  0  0  0  0  0  0  0
   21.2257   -9.2812  -15.7999 C   0  0  0  0  0  0  0  0  0  0  0  0
   20.8341   -9.7061  -14.5970 N   0  0  0  0  0  0  0  0  0  0  0  0
   21.6664   -9.1785  -13.6975 C   0  0  0  0  0  0  0  0  0  0  0  0
   22.5795   -8.4227  -14.3400 N   0  0  0  0  0  0  0  0  0  0  0  0
   20.9597   -7.4857  -18.0825 C   0  0  0  0  0  0  0  0  0  0  0  0
   20.7263   -6.2670  -18.2709 O   0  0  0  0  0  0  0  0  0  0  0  0
   16.0386  -11.2052  -18.1652 N   0  0  0  0  0  0  0  0  0  0  0  0
   15.3432   -9.9800  -18.0985 C   0  0  0  0  0  0  0  0  0  0  0  0
   14.0728   -9.9395  -18.0386 O   0  0  0  0  0  0  0  0  0  0  0  0
   16.0791   -8.7189  -18.0902 C   0  0  0  0  0  0  0  0  0  0  0  0
   17.5543   -8.9401  -18.0427 C   0  0  0  0  0  0  0  0  0  0  0  0
   18.4345   -7.7413  -17.9627 C   0  0  2  0  0  0  0  0  0  0  0  0
   19.8105   -8.3007  -17.8905 N   0  0  0  0  0  0  0  0  0  0  0  0
   18.2375   -6.7593  -16.9350 C   0  0  0  0  0  0  0  0  0  0  0  0
   17.4217   -5.6450  -17.1820 O   0  0  0  0  0  0  0  0  0  0  0  0
   18.7529   -6.8177  -15.7944 O   0  0  0  0  0  0  0  0  0  0  0  0
  2  3  1  0
  2  1  1  1
  3  4  1  0
  4  8  1  0
  5  6  1  0
  5  4  2  0
  6  7  1  0
  7  8  2  0
  9  2  1  0
 10  9  2  0
 11  9  1  0
 12 11  1  0
 13 14  1  0
 12 13  1  1
 14 18  1  0
 15 14  2  0
 15 16  1  0
 16 17  1  0
 18 17  2  0
 19 12  1  0
 19 27  1  0
 20 19  2  0
 22 21  1  0
 23 22  2  0
 24 22  1  0
 25 24  1  0
 26 27  1  0
 26 25  1  1
 28 29  1  0
 28 26  1  0
 30 28  2  0
M  END
$$$$
