HHQ.pdb
     RDKit          3D

 30 31  0  0  1  0  0  0  0  0999 V2000
   18.9090  -12.0513  -17.1409 N   0  0  0  0  0  0  0  0  0  0  0  0
   19.4035  -10.8423  -17.7574 C   0  0  1  0  0  0  0  0  0  0  0  0
   18.2178   -9.9677  -18.1864 C   0  0  0  0  0  0  0  0  0  0  0  0
   17.5499  -10.6569  -19.3305 C   0  0  0  0  0  0  0  0  0  0  0  0
   16.2914  -11.2383  -19.2940 C   0  0  0  0  0  0  0  0  0  0  0  0
   16.0149  -11.7637  -20.5012 N   0  0  0  0  0  0  0  0  0  0  0  0
   17.0799  -11.5235  -21.3020 C   0  0  0  0  0  0  0  0  0  0  0  0
   18.0074  -10.8507  -20.5825 N   0  0  0  0  0  0  0  0  0  0  0  0
   20.1957  -10.0195  -16.8096 C   0  0  0  0  0  0  0  0  0  0  0  0
   19.7645   -9.8733  -15.6474 O   0  0  0  0  0  0  0  0  0  0  0  0
   21.4125   -9.4188  -17.2276 N   0  0  0  0  0  0  0  0  0  0  0  0
   22.2631   -8.6701  -16.3109 C   0  0  1  0  0  0  0  0  0  0  0  0
   23.7222   -8.8955  -16.6269 C   0  0  0  0  0  0  0  0  0  0  0  0
   24.0923  -10.2649  -16.2091 C   0  0  0  0  0  0  0  0  0  0  0  0
   23.2704  -11.1648  -15.5266 C   0  0  0  0  0  0  0  0  0  0  0  0
   23.9331  -12.3036  -15.3151 N   0  0  0  0  0  0  0  0  0  0  0  0
   25.1511  -12.1596  -15.8403 C   0  0  0  0  0  0  0  0  0  0  0  0
   25.2491  -10.9283  -16.3810 N   0  0  0  0  0  0  0  0  0  0  0  0
   21.8767   -7.2278  -16.3089 C   0  0  0  0  0  0  0  0  0  0  0  0
   21.7482   -6.5537  -17.3599 O   0  0  0  0  0  0  0  0  0  0  0  0
   17.1632   -2.4719  -15.3611 N   0  0  0  0  0  0  0  0  0  0  0  0
   17.9326   -3.6533  -15.4001 C   0  0  0  0  0  0  0  0  0  0  0  0
   17.6368   -4.6133  -16.1811 O   0  0  0  0  0  0  0  0  0  0  0  0
   19.1025   -3.7950  -14.5378 C   0  0  0  0  0  0  0  0  0  0  0  0
   19.7855   -5.1059  -14.7439 C   0  0  0  0  0  0  0  0  0  0  0  0
   21.2313   -5.0875  -15.1011 C   0  0  2  0  0  0  0  0  0  0  0  0
   21.6274   -6.5209  -15.1007 N   0  0  0  0  0  0  0  0  0  0  0  0
   22.1620   -4.3096  -14.3344 C   0  0  0  0  0  0  0  0  0  0  0  0
   22.3549   -2.9537  -14.6386 O   0  0  0  0  0  0  0  0  0  0  0  0
   22.8407   -4.7582  -13.3814 O   0  0  0  0  0  0  0  0  0  0  0  0
  2  3  1  0
  2  1  1  1
  3  4  1  0
  4  8  1  0
  5  6  1  0
  5  4  2  0
  6  7  1  0
  7  8  2  0
  9  2  1  0
 10  9  2  0
 11  9  1  0
 12 11  1  0
 13 14  1  0
 12 13  1  6
 14 18  1  0
 15 14  2  0
 15 16  1  0
 16 17  1  0
 18 17  2  0
 19 12  1  0
 19 27  1  0
 20 19  2  0
 22 21  1  0
 23 22  2  0
 24 22  1  0
 25 24  1  0
 26 27  1  0
 26 25  1  1
 28 29  1  0
 28 26  1  0
 30 28  2  0
M  END
$$$$
