HHQ.pdb
     RDKit          3D

 30 31  0  0  1  0  0  0  0  0999 V2000
   22.5544  -21.7931  -14.1099 N   0  0  0  0  0  0  0  0  0  0  0  0
   21.4044  -21.2457  -13.4287 C   0  0  1  0  0  0  0  0  0  0  0  0
   20.9068  -20.0064  -14.1848 C   0  0  0  0  0  0  0  0  0  0  0  0
   22.0942  -19.3798  -14.8386 C   0  0  0  0  0  0  0  0  0  0  0  0
   23.4086  -19.7936  -14.6825 C   0  0  0  0  0  0  0  0  0  0  0  0
   24.2091  -19.0008  -15.4177 N   0  0  0  0  0  0  0  0  0  0  0  0
   23.4209  -18.0907  -16.0373 C   0  0  0  0  0  0  0  0  0  0  0  0
   22.1379  -18.3286  -15.6796 N   0  0  0  0  0  0  0  0  0  0  0  0
   20.2652  -22.1968  -13.4099 C   0  0  0  0  0  0  0  0  0  0  0  0
   19.1725  -21.8044  -12.9517 O   0  0  0  0  0  0  0  0  0  0  0  0
   20.4279  -23.5181  -13.9039 N   0  0  0  0  0  0  0  0  0  0  0  0
   19.3528  -24.5012  -13.8584 C   0  0  1  0  0  0  0  0  0  0  0  0
   19.3736  -25.3769  -15.0882 C   0  0  0  0  0  0  0  0  0  0  0  0
   18.7049  -24.6580  -16.1941 C   0  0  0  0  0  0  0  0  0  0  0  0
   18.0166  -23.4473  -16.0880 C   0  0  0  0  0  0  0  0  0  0  0  0
   17.5436  -23.0955  -17.2853 N   0  0  0  0  0  0  0  0  0  0  0  0
   17.9077  -24.0425  -18.1517 C   0  0  0  0  0  0  0  0  0  0  0  0
   18.6095  -24.9875  -17.4942 N   0  0  0  0  0  0  0  0  0  0  0  0
   19.4142  -25.2751  -12.5830 C   0  0  0  0  0  0  0  0  0  0  0  0
   20.4807  -25.7522  -12.1242 O   0  0  0  0  0  0  0  0  0  0  0  0
   19.3994  -23.4312   -7.6728 N   0  0  0  0  0  0  0  0  0  0  0  0
   19.1350  -24.7232   -7.1727 C   0  0  0  0  0  0  0  0  0  0  0  0
   19.2303  -24.9875   -5.9317 O   0  0  0  0  0  0  0  0  0  0  0  0
   18.7352  -25.7935   -8.0819 C   0  0  0  0  0  0  0  0  0  0  0  0
   18.6741  -25.3229   -9.4968 C   0  0  0  0  0  0  0  0  0  0  0  0
   18.3114  -26.3171  -10.5448 C   0  0  2  0  0  0  0  0  0  0  0  0
   18.2532  -25.5221  -11.8002 N   0  0  0  0  0  0  0  0  0  0  0  0
   17.1331  -27.1246  -10.4072 C   0  0  0  0  0  0  0  0  0  0  0  0
   17.2059  -28.3571   -9.7410 O   0  0  0  0  0  0  0  0  0  0  0  0
   16.0043  -26.8077  -10.8492 O   0  0  0  0  0  0  0  0  0  0  0  0
  2  3  1  0
  2  1  1  6
  3  4  1  0
  4  8  1  0
  5  6  1  0
  5  4  2  0
  6  7  1  0
  7  8  2  0
  9  2  1  0
 10  9  2  0
 11  9  1  0
 12 11  1  0
 13 14  1  0
 12 13  1  6
 14 18  1  0
 15 14  2  0
 15 16  1  0
 16 17  1  0
 18 17  2  0
 19 12  1  0
 19 27  1  0
 20 19  2  0
 22 21  1  0
 23 22  2  0
 24 22  1  0
 25 24  1  0
 26 27  1  0
 26 25  1  1
 28 29  1  0
 28 26  1  0
 30 28  2  0
M  END
$$$$
