HHQ.pdb
     RDKit          3D

 30 31  0  0  1  0  0  0  0  0999 V2000
   24.5348  -14.1178  -19.5143 N   0  0  0  0  0  0  0  0  0  0  0  0
   23.7706  -12.9027  -19.6750 C   0  0  1  0  0  0  0  0  0  0  0  0
   22.2759  -13.2451  -19.7346 C   0  0  0  0  0  0  0  0  0  0  0  0
   22.0324  -13.9420  -21.0327 C   0  0  0  0  0  0  0  0  0  0  0  0
   21.7243  -15.2864  -21.1771 C   0  0  0  0  0  0  0  0  0  0  0  0
   21.5730  -15.5645  -22.4847 N   0  0  0  0  0  0  0  0  0  0  0  0
   21.7808  -14.4158  -23.1707 C   0  0  0  0  0  0  0  0  0  0  0  0
   22.0592  -13.4356  -22.2806 N   0  0  0  0  0  0  0  0  0  0  0  0
   23.9337  -11.9869  -18.5184 C   0  0  0  0  0  0  0  0  0  0  0  0
   23.9891  -12.4815  -17.3737 O   0  0  0  0  0  0  0  0  0  0  0  0
   24.0232  -10.5847  -18.7230 N   0  0  0  0  0  0  0  0  0  0  0  0
   24.2180   -9.6508  -17.6210 C   0  0  1  0  0  0  0  0  0  0  0  0
   25.3142   -8.6632  -17.9416 C   0  0  0  0  0  0  0  0  0  0  0  0
   26.6132   -9.3692  -17.9099 C   0  0  0  0  0  0  0  0  0  0  0  0
   26.8061  -10.7194  -17.6087 C   0  0  0  0  0  0  0  0  0  0  0  0
   28.1066  -11.0111  -17.6758 N   0  0  0  0  0  0  0  0  0  0  0  0
   28.7497   -9.8909  -18.0102 C   0  0  0  0  0  0  0  0  0  0  0  0
   27.8489   -8.8977  -18.1521 N   0  0  0  0  0  0  0  0  0  0  0  0
   22.9238   -8.9984  -17.2619 C   0  0  0  0  0  0  0  0  0  0  0  0
   22.0078   -8.7936  -18.0951 O   0  0  0  0  0  0  0  0  0  0  0  0
   18.3627  -10.6260  -16.8492 N   0  0  0  0  0  0  0  0  0  0  0  0
   18.6988  -10.6891  -15.4809 C   0  0  0  0  0  0  0  0  0  0  0  0
   18.1160  -11.4980  -14.6903 O   0  0  0  0  0  0  0  0  0  0  0  0
   19.7406   -9.8200  -14.9411 C   0  0  0  0  0  0  0  0  0  0  0  0
   20.3278   -8.9409  -15.9946 C   0  0  0  0  0  0  0  0  0  0  0  0
   21.3466   -7.9388  -15.5749 C   0  0  2  0  0  0  0  0  0  0  0  0
   22.6466   -8.5638  -15.9368 N   0  0  0  0  0  0  0  0  0  0  0  0
   21.3810   -7.4558  -14.2241 C   0  0  0  0  0  0  0  0  0  0  0  0
   20.3451   -6.6374  -13.7493 O   0  0  0  0  0  0  0  0  0  0  0  0
   22.2931   -7.7142  -13.4047 O   0  0  0  0  0  0  0  0  0  0  0  0
  2  3  1  0
  2  1  1  1
  3  4  1  0
  4  8  1  0
  5  6  1  0
  5  4  2  0
  6  7  1  0
  7  8  2  0
  9  2  1  0
 10  9  2  0
 11  9  1  0
 12 11  1  0
 13 14  1  0
 12 13  1  6
 14 18  1  0
 15 14  2  0
 15 16  1  0
 16 17  1  0
 18 17  2  0
 19 12  1  0
 19 27  1  0
 20 19  2  0
 22 21  1  0
 23 22  2  0
 24 22  1  0
 25 24  1  0
 26 27  1  0
 26 25  1  1
 28 29  1  0
 28 26  1  0
 30 28  2  0
M  END
$$$$
