HHQ.pdb
     RDKit          3D

 30 31  0  0  1  0  0  0  0  0999 V2000
   28.8065  -20.6072  -17.3850 N   0  0  0  0  0  0  0  0  0  0  0  0
   28.4567  -19.6982  -16.3184 C   0  0  1  0  0  0  0  0  0  0  0  0
   27.2934  -18.8055  -16.7710 C   0  0  0  0  0  0  0  0  0  0  0  0
   27.8383  -17.8420  -17.7734 C   0  0  0  0  0  0  0  0  0  0  0  0
   29.1614  -17.7713  -18.1828 C   0  0  0  0  0  0  0  0  0  0  0  0
   29.2878  -16.7885  -19.0928 N   0  0  0  0  0  0  0  0  0  0  0  0
   28.0641  -16.2356  -19.2658 C   0  0  0  0  0  0  0  0  0  0  0  0
   27.1898  -16.8819  -18.4603 N   0  0  0  0  0  0  0  0  0  0  0  0
   27.9747  -20.4164  -15.1123 C   0  0  0  0  0  0  0  0  0  0  0  0
   27.3068  -21.4589  -15.2702 O   0  0  0  0  0  0  0  0  0  0  0  0
   28.2731  -19.9189  -13.8163 N   0  0  0  0  0  0  0  0  0  0  0  0
   27.7942  -20.5730  -12.6050 C   0  0  1  0  0  0  0  0  0  0  0  0
   28.6997  -20.2676  -11.4359 C   0  0  0  0  0  0  0  0  0  0  0  0
   29.8691  -21.1709  -11.4928 C   0  0  0  0  0  0  0  0  0  0  0  0
   30.0782  -22.1845  -12.4308 C   0  0  0  0  0  0  0  0  0  0  0  0
   31.2371  -22.7957  -12.1778 N   0  0  0  0  0  0  0  0  0  0  0  0
   31.7744  -22.2051  -11.1089 C   0  0  0  0  0  0  0  0  0  0  0  0
   30.9492  -21.2230  -10.6936 N   0  0  0  0  0  0  0  0  0  0  0  0
   26.3667  -20.2142  -12.3540 C   0  0  0  0  0  0  0  0  0  0  0  0
   25.9402  -19.0348  -12.4023 O   0  0  0  0  0  0  0  0  0  0  0  0
   21.9311  -23.4178  -14.4542 N   0  0  0  0  0  0  0  0  0  0  0  0
   21.1141  -22.6042  -13.6419 C   0  0  0  0  0  0  0  0  0  0  0  0
   19.8447  -22.6691  -13.7002 O   0  0  0  0  0  0  0  0  0  0  0  0
   21.7188  -21.6647  -12.7019 C   0  0  0  0  0  0  0  0  0  0  0  0
   23.2092  -21.7380  -12.7289 C   0  0  0  0  0  0  0  0  0  0  0  0
   23.9657  -20.8428  -11.8098 C   0  0  2  0  0  0  0  0  0  0  0  0
   25.3908  -21.1997  -12.0408 N   0  0  0  0  0  0  0  0  0  0  0  0
   23.6742  -20.8259  -10.4048 C   0  0  0  0  0  0  0  0  0  0  0  0
   22.5175  -20.1822   -9.9400 O   0  0  0  0  0  0  0  0  0  0  0  0
   24.3938  -21.3580   -9.5278 O   0  0  0  0  0  0  0  0  0  0  0  0
  2  3  1  0
  2  1  1  6
  3  4  1  0
  4  8  1  0
  5  6  1  0
  5  4  2  0
  6  7  1  0
  7  8  2  0
  9  2  1  0
 10  9  2  0
 11  9  1  0
 12 11  1  0
 13 14  1  0
 12 13  1  1
 14 18  1  0
 15 14  2  0
 15 16  1  0
 16 17  1  0
 18 17  2  0
 19 12  1  0
 19 27  1  0
 20 19  2  0
 22 21  1  0
 23 22  2  0
 24 22  1  0
 25 24  1  0
 26 27  1  0
 26 25  1  6
 28 29  1  0
 28 26  1  0
 30 28  2  0
M  END
$$$$
