HHQ.pdb
     RDKit          3D

 30 31  0  0  1  0  0  0  0  0999 V2000
   32.6914  -28.7724  -20.2185 N   0  0  0  0  0  0  0  0  0  0  0  0
   31.5260  -27.9201  -20.2576 C   0  0  1  0  0  0  0  0  0  0  0  0
   30.6496  -28.3104  -21.4553 C   0  0  0  0  0  0  0  0  0  0  0  0
   31.0624  -27.4514  -22.6050 C   0  0  0  0  0  0  0  0  0  0  0  0
   32.1463  -27.6892  -23.4367 C   0  0  0  0  0  0  0  0  0  0  0  0
   32.2149  -26.7125  -24.3593 N   0  0  0  0  0  0  0  0  0  0  0  0
   31.1901  -25.8593  -24.1241 C   0  0  0  0  0  0  0  0  0  0  0  0
   30.4955  -26.3162  -23.0567 N   0  0  0  0  0  0  0  0  0  0  0  0
   30.6729  -28.0903  -19.0551 C   0  0  0  0  0  0  0  0  0  0  0  0
   30.6892  -29.1914  -18.4673 O   0  0  0  0  0  0  0  0  0  0  0  0
   29.8627  -27.0188  -18.5950 N   0  0  0  0  0  0  0  0  0  0  0  0
   29.1051  -27.0972  -17.3523 C   0  0  1  0  0  0  0  0  0  0  0  0
   29.3092  -25.8543  -16.5197 C   0  0  0  0  0  0  0  0  0  0  0  0
   30.7141  -25.8167  -16.0597 C   0  0  0  0  0  0  0  0  0  0  0  0
   31.6770  -26.8039  -16.2820 C   0  0  0  0  0  0  0  0  0  0  0  0
   32.8321  -26.4354  -15.7245 N   0  0  0  0  0  0  0  0  0  0  0  0
   32.6375  -25.2452  -15.1538 C   0  0  0  0  0  0  0  0  0  0  0  0
   31.3583  -24.8697  -15.3552 N   0  0  0  0  0  0  0  0  0  0  0  0
   27.6683  -27.3838  -17.6405 C   0  0  0  0  0  0  0  0  0  0  0  0
   27.0709  -26.9339  -18.6485 O   0  0  0  0  0  0  0  0  0  0  0  0
   24.7059  -31.8821  -14.6984 N   0  0  0  0  0  0  0  0  0  0  0  0
   23.5983  -31.3812  -15.4135 C   0  0  0  0  0  0  0  0  0  0  0  0
   22.4442  -31.9058  -15.3035 O   0  0  0  0  0  0  0  0  0  0  0  0
   23.7569  -30.2318  -16.2998 C   0  0  0  0  0  0  0  0  0  0  0  0
   25.1600  -29.7234  -16.3000 C   0  0  0  0  0  0  0  0  0  0  0  0
   25.4489  -28.4812  -17.0694 C   0  0  2  0  0  0  0  0  0  0  0  0
   26.8790  -28.1944  -16.7794 N   0  0  0  0  0  0  0  0  0  0  0  0
   24.6522  -27.3032  -16.8781 C   0  0  0  0  0  0  0  0  0  0  0  0
   23.4233  -27.1766  -17.5430 O   0  0  0  0  0  0  0  0  0  0  0  0
   24.9757  -26.3441  -16.1395 O   0  0  0  0  0  0  0  0  0  0  0  0
  2  3  1  0
  2  1  1  1
  3  4  1  0
  4  8  1  0
  5  6  1  0
  5  4  2  0
  6  7  1  0
  7  8  2  0
  9  2  1  0
 10  9  2  0
 11  9  1  0
 12 11  1  0
 13 14  1  0
 12 13  1  6
 14 18  1  0
 15 14  2  0
 15 16  1  0
 16 17  1  0
 18 17  2  0
 19 12  1  0
 19 27  1  0
 20 19  2  0
 22 21  1  0
 23 22  2  0
 24 22  1  0
 25 24  1  0
 26 27  1  0
 26 25  1  1
 28 29  1  0
 28 26  1  0
 30 28  2  0
M  END
$$$$
