HHQ.pdb
     RDKit          3D

 30 31  0  0  1  0  0  0  0  0999 V2000
   28.5736  -27.2994  -15.9957 N   0  0  0  0  0  0  0  0  0  0  0  0
   29.1648  -26.3751  -16.9349 C   0  0  1  0  0  0  0  0  0  0  0  0
   28.8642  -26.8410  -18.3659 C   0  0  0  0  0  0  0  0  0  0  0  0
   29.6513  -28.0883  -18.6003 C   0  0  0  0  0  0  0  0  0  0  0  0
   29.1139  -29.3479  -18.8188 C   0  0  0  0  0  0  0  0  0  0  0  0
   30.1158  -30.2292  -18.9906 N   0  0  0  0  0  0  0  0  0  0  0  0
   31.2800  -29.5462  -18.8841 C   0  0  0  0  0  0  0  0  0  0  0  0
   30.9880  -28.2464  -18.6470 N   0  0  0  0  0  0  0  0  0  0  0  0
   28.5819  -25.0152  -16.8177 C   0  0  0  0  0  0  0  0  0  0  0  0
   27.4999  -24.8842  -16.2094 O   0  0  0  0  0  0  0  0  0  0  0  0
   29.2490  -23.8990  -17.3881 N   0  0  0  0  0  0  0  0  0  0  0  0
   28.6972  -22.5514  -17.3276 C   0  0  1  0  0  0  0  0  0  0  0  0
   29.6863  -21.5418  -17.8589 C   0  0  0  0  0  0  0  0  0  0  0  0
   29.1229  -20.1862  -17.6805 C   0  0  0  0  0  0  0  0  0  0  0  0
   27.8476  -19.8847  -17.1972 C   0  0  0  0  0  0  0  0  0  0  0  0
   27.6807  -18.5610  -17.1709 N   0  0  0  0  0  0  0  0  0  0  0  0
   28.8082  -18.0081  -17.6217 C   0  0  0  0  0  0  0  0  0  0  0  0
   29.6808  -18.9886  -17.9301 N   0  0  0  0  0  0  0  0  0  0  0  0
   27.3757  -22.5027  -18.0211 C   0  0  0  0  0  0  0  0  0  0  0  0
   27.1241  -23.1628  -19.0585 O   0  0  0  0  0  0  0  0  0  0  0  0
   24.2299  -25.1483  -19.7504 N   0  0  0  0  0  0  0  0  0  0  0  0
   23.0739  -24.3717  -19.5274 C   0  0  0  0  0  0  0  0  0  0  0  0
   22.0173  -24.5404  -20.2160 O   0  0  0  0  0  0  0  0  0  0  0  0
   23.0667  -23.3507  -18.4836 C   0  0  0  0  0  0  0  0  0  0  0  0
   24.4440  -23.0538  -17.9913 C   0  0  0  0  0  0  0  0  0  0  0  0
   24.9788  -21.6809  -18.2088 C   0  0  2  0  0  0  0  0  0  0  0  0
   26.3080  -21.6951  -17.5422 N   0  0  0  0  0  0  0  0  0  0  0  0
   24.2243  -20.5311  -17.7990 C   0  0  0  0  0  0  0  0  0  0  0  0
   23.2680  -19.9793  -18.6647 O   0  0  0  0  0  0  0  0  0  0  0  0
   24.3543  -19.9591  -16.6918 O   0  0  0  0  0  0  0  0  0  0  0  0
  2  3  1  0
  2  1  1  1
  3  4  1  0
  4  8  1  0
  5  6  1  0
  5  4  2  0
  6  7  1  0
  7  8  2  0
  9  2  1  0
 10  9  2  0
 11  9  1  0
 12 11  1  0
 13 14  1  0
 12 13  1  6
 14 18  1  0
 15 14  2  0
 15 16  1  0
 16 17  1  0
 18 17  2  0
 19 12  1  0
 19 27  1  0
 20 19  2  0
 22 21  1  0
 23 22  2  0
 24 22  1  0
 25 24  1  0
 26 27  1  0
 26 25  1  1
 28 29  1  0
 28 26  1  0
 30 28  2  0
M  END
$$$$
