HHQ.pdb
     RDKit          3D

 30 31  0  0  1  0  0  0  0  0999 V2000
   15.6798  -19.9825    3.0475 N   0  0  0  0  0  0  0  0  0  0  0  0
   16.7326  -20.9537    3.2332 C   0  0  1  0  0  0  0  0  0  0  0  0
   17.3881  -21.2593    1.8796 C   0  0  0  0  0  0  0  0  0  0  0  0
   16.3113  -21.7430    0.9650 C   0  0  0  0  0  0  0  0  0  0  0  0
   16.0297  -23.0724    0.6883 C   0  0  0  0  0  0  0  0  0  0  0  0
   14.9992  -23.1328   -0.1745 N   0  0  0  0  0  0  0  0  0  0  0  0
   14.6239  -21.8611   -0.4484 C   0  0  0  0  0  0  0  0  0  0  0  0
   15.4265  -21.0236    0.2482 N   0  0  0  0  0  0  0  0  0  0  0  0
   17.8174  -20.4373    4.1046 C   0  0  0  0  0  0  0  0  0  0  0  0
   18.8469  -21.1293    4.2432 O   0  0  0  0  0  0  0  0  0  0  0  0
   17.6749  -19.1851    4.7587 N   0  0  0  0  0  0  0  0  0  0  0  0
   18.7005  -18.6526    5.6469 C   0  0  1  0  0  0  0  0  0  0  0  0
   18.7459  -17.1452    5.5720 C   0  0  0  0  0  0  0  0  0  0  0  0
   19.8658  -16.6621    6.4082 C   0  0  0  0  0  0  0  0  0  0  0  0
   21.1741  -17.1507    6.3894 C   0  0  0  0  0  0  0  0  0  0  0  0
   21.9147  -16.4802    7.2742 N   0  0  0  0  0  0  0  0  0  0  0  0
   21.1213  -15.5796    7.8569 C   0  0  0  0  0  0  0  0  0  0  0  0
   19.8828  -15.6880    7.3350 N   0  0  0  0  0  0  0  0  0  0  0  0
   18.5007  -19.1678    7.0341 C   0  0  0  0  0  0  0  0  0  0  0  0
   17.3769  -19.2109    7.5914 O   0  0  0  0  0  0  0  0  0  0  0  0
   21.8981  -23.6814    9.6830 N   0  0  0  0  0  0  0  0  0  0  0  0
   21.2051  -23.0674   10.7470 C   0  0  0  0  0  0  0  0  0  0  0  0
   21.5825  -23.2072   11.9541 O   0  0  0  0  0  0  0  0  0  0  0  0
   20.0300  -22.2435   10.4780 C   0  0  0  0  0  0  0  0  0  0  0  0
   20.2480  -21.3322    9.3164 C   0  0  0  0  0  0  0  0  0  0  0  0
   19.3918  -20.1177    9.2158 C   0  0  2  0  0  0  0  0  0  0  0  0
   19.5854  -19.6471    7.8184 N   0  0  0  0  0  0  0  0  0  0  0  0
   19.5565  -19.0310   10.1384 C   0  0  0  0  0  0  0  0  0  0  0  0
   18.7700  -18.9759   11.2989 O   0  0  0  0  0  0  0  0  0  0  0  0
   20.3743  -18.0938    9.9870 O   0  0  0  0  0  0  0  0  0  0  0  0
  2  3  1  0
  2  1  1  6
  3  4  1  0
  4  8  1  0
  5  6  1  0
  5  4  2  0
  6  7  1  0
  7  8  2  0
  9  2  1  0
 10  9  2  0
 11  9  1  0
 12 11  1  0
 13 14  1  0
 12 13  1  1
 14 18  1  0
 15 14  2  0
 15 16  1  0
 16 17  1  0
 18 17  2  0
 19 12  1  0
 19 27  1  0
 20 19  2  0
 22 21  1  0
 23 22  2  0
 24 22  1  0
 25 24  1  0
 26 27  1  0
 26 25  1  1
 28 29  1  0
 28 26  1  0
 30 28  2  0
M  END
$$$$
