HHQ.pdb
     RDKit          3D

 30 31  0  0  1  0  0  0  0  0999 V2000
   27.1118  -33.2250  -16.2582 N   0  0  0  0  0  0  0  0  0  0  0  0
   25.8146  -33.6917  -15.8271 C   0  0  1  0  0  0  0  0  0  0  0  0
   25.9456  -35.1143  -15.2666 C   0  0  0  0  0  0  0  0  0  0  0  0
   25.9864  -36.0476  -16.4316 C   0  0  0  0  0  0  0  0  0  0  0  0
   24.8956  -36.7230  -16.9581 C   0  0  0  0  0  0  0  0  0  0  0  0
   25.3031  -37.4719  -17.9988 N   0  0  0  0  0  0  0  0  0  0  0  0
   26.6361  -37.2806  -18.1393 C   0  0  0  0  0  0  0  0  0  0  0  0
   27.0425  -36.4139  -17.1830 N   0  0  0  0  0  0  0  0  0  0  0  0
   25.2666  -32.8664  -14.7219 C   0  0  0  0  0  0  0  0  0  0  0  0
   26.0258  -32.0527  -14.1567 O   0  0  0  0  0  0  0  0  0  0  0  0
   23.9102  -33.0090  -14.3270 N   0  0  0  0  0  0  0  0  0  0  0  0
   23.3153  -32.1841  -13.2830 C   0  0  1  0  0  0  0  0  0  0  0  0
   21.8733  -31.8706  -13.6028 C   0  0  0  0  0  0  0  0  0  0  0  0
   21.8312  -30.9870  -14.7878 C   0  0  0  0  0  0  0  0  0  0  0  0
   21.5706  -31.3867  -16.1005 C   0  0  0  0  0  0  0  0  0  0  0  0
   21.6133  -30.3251  -16.9080 N   0  0  0  0  0  0  0  0  0  0  0  0
   21.8925  -29.2611  -16.1531 C   0  0  0  0  0  0  0  0  0  0  0  0
   22.0246  -29.6591  -14.8716 N   0  0  0  0  0  0  0  0  0  0  0  0
   23.4960  -32.8295  -11.9487 C   0  0  0  0  0  0  0  0  0  0  0  0
   23.8137  -34.0359  -11.8110 O   0  0  0  0  0  0  0  0  0  0  0  0
   26.8965  -33.4827   -8.7745 N   0  0  0  0  0  0  0  0  0  0  0  0
   26.2960  -33.2347   -7.5227 C   0  0  0  0  0  0  0  0  0  0  0  0
   26.7825  -33.7092   -6.4469 O   0  0  0  0  0  0  0  0  0  0  0  0
   25.0927  -32.4121   -7.4369 C   0  0  0  0  0  0  0  0  0  0  0  0
   24.6201  -31.9818   -8.7855 C   0  0  0  0  0  0  0  0  0  0  0  0
   23.5064  -32.7494   -9.4091 C   0  0  2  0  0  0  0  0  0  0  0  0
   23.3170  -32.1074  -10.7371 N   0  0  0  0  0  0  0  0  0  0  0  0
   22.2476  -32.8864   -8.7340 C   0  0  0  0  0  0  0  0  0  0  0  0
   22.0713  -33.9062   -7.7868 O   0  0  0  0  0  0  0  0  0  0  0  0
   21.2576  -32.1432   -8.9281 O   0  0  0  0  0  0  0  0  0  0  0  0
  2  3  1  0
  2  1  1  1
  3  4  1  0
  4  8  1  0
  5  6  1  0
  5  4  2  0
  6  7  1  0
  7  8  2  0
  9  2  1  0
 10  9  2  0
 11  9  1  0
 12 11  1  0
 13 14  1  0
 12 13  1  6
 14 18  1  0
 15 14  2  0
 15 16  1  0
 16 17  1  0
 18 17  2  0
 19 12  1  0
 19 27  1  0
 20 19  2  0
 22 21  1  0
 23 22  2  0
 24 22  1  0
 25 24  1  0
 26 27  1  0
 26 25  1  1
 28 29  1  0
 28 26  1  0
 30 28  2  0
M  END
$$$$
