HHQ.pdb
     RDKit          3D

 30 31  0  0  1  0  0  0  0  0999 V2000
   26.4098  -14.2806  -19.0930 N   0  0  0  0  0  0  0  0  0  0  0  0
   25.9710  -15.2572  -18.1236 C   0  0  1  0  0  0  0  0  0  0  0  0
   27.1561  -15.6632  -17.2373 C   0  0  0  0  0  0  0  0  0  0  0  0
   28.1647  -16.3213  -18.1202 C   0  0  0  0  0  0  0  0  0  0  0  0
   27.8773  -17.0429  -19.2691 C   0  0  0  0  0  0  0  0  0  0  0  0
   29.0270  -17.4889  -19.8070 N   0  0  0  0  0  0  0  0  0  0  0  0
   30.0385  -17.0603  -19.0155 C   0  0  0  0  0  0  0  0  0  0  0  0
   29.5053  -16.3519  -17.9935 N   0  0  0  0  0  0  0  0  0  0  0  0
   24.9444  -14.7052  -17.2047 C   0  0  0  0  0  0  0  0  0  0  0  0
   25.2910  -13.8290  -16.3860 O   0  0  0  0  0  0  0  0  0  0  0  0
   23.6046  -15.1712  -17.2657 N   0  0  0  0  0  0  0  0  0  0  0  0
   22.5054  -14.4585  -16.6267 C   0  0  1  0  0  0  0  0  0  0  0  0
   22.4002  -13.0483  -17.1559 C   0  0  0  0  0  0  0  0  0  0  0  0
   21.2640  -12.3753  -16.4903 C   0  0  0  0  0  0  0  0  0  0  0  0
   20.4876  -12.9049  -15.4570 C   0  0  0  0  0  0  0  0  0  0  0  0
   19.5527  -12.0212  -15.1022 N   0  0  0  0  0  0  0  0  0  0  0  0
   19.7074  -10.9450  -15.8755 C   0  0  0  0  0  0  0  0  0  0  0  0
   20.7409  -11.1571  -16.7149 N   0  0  0  0  0  0  0  0  0  0  0  0
   21.2374  -15.2352  -16.7633 C   0  0  0  0  0  0  0  0  0  0  0  0
   20.7844  -15.6139  -17.8708 O   0  0  0  0  0  0  0  0  0  0  0  0
   20.2634  -17.7705  -11.9934 N   0  0  0  0  0  0  0  0  0  0  0  0
   20.5759  -18.6862  -13.0196 C   0  0  0  0  0  0  0  0  0  0  0  0
   21.3165  -19.6982  -12.8040 O   0  0  0  0  0  0  0  0  0  0  0  0
   20.0421  -18.4903  -14.3645 C   0  0  0  0  0  0  0  0  0  0  0  0
   19.2409  -17.2351  -14.4638 C   0  0  0  0  0  0  0  0  0  0  0  0
   19.2727  -16.4906  -15.7533 C   0  0  2  0  0  0  0  0  0  0  0  0
   20.4558  -15.5977  -15.6323 N   0  0  0  0  0  0  0  0  0  0  0  0
   18.1270  -15.7481  -16.1951 C   0  0  0  0  0  0  0  0  0  0  0  0
   17.0397  -16.4211  -16.7723 O   0  0  0  0  0  0  0  0  0  0  0  0
   18.0141  -14.5035  -16.1043 O   0  0  0  0  0  0  0  0  0  0  0  0
  2  3  1  0
  2  1  1  6
  3  4  1  0
  4  8  1  0
  5  6  1  0
  5  4  2  0
  6  7  1  0
  7  8  2  0
  9  2  1  0
 10  9  2  0
 11  9  1  0
 12 11  1  0
 13 14  1  0
 12 13  1  6
 14 18  1  0
 15 14  2  0
 15 16  1  0
 16 17  1  0
 18 17  2  0
 19 12  1  0
 19 27  1  0
 20 19  2  0
 22 21  1  0
 23 22  2  0
 24 22  1  0
 25 24  1  0
 26 27  1  0
 26 25  1  1
 28 29  1  0
 28 26  1  0
 30 28  2  0
M  END
$$$$
