HHQ.pdb
     RDKit          3D

 30 31  0  0  1  0  0  0  0  0999 V2000
   22.2897  -11.7673  -19.8340 N   0  0  0  0  0  0  0  0  0  0  0  0
   22.8520  -10.5386  -19.3237 C   0  0  1  0  0  0  0  0  0  0  0  0
   23.1065   -9.5725  -20.4886 C   0  0  0  0  0  0  0  0  0  0  0  0
   24.1824  -10.1712  -21.3337 C   0  0  0  0  0  0  0  0  0  0  0  0
   25.5225   -9.8164  -21.2981 C   0  0  0  0  0  0  0  0  0  0  0  0
   26.1979  -10.5603  -22.1927 N   0  0  0  0  0  0  0  0  0  0  0  0
   25.3050  -11.3813  -22.7945 C   0  0  0  0  0  0  0  0  0  0  0  0
   24.0833  -11.1378  -22.2664 N   0  0  0  0  0  0  0  0  0  0  0  0
   21.9167   -9.8375  -18.4090 C   0  0  0  0  0  0  0  0  0  0  0  0
   20.7552   -9.6126  -18.8068 O   0  0  0  0  0  0  0  0  0  0  0  0
   22.3456   -9.4377  -17.1158 N   0  0  0  0  0  0  0  0  0  0  0  0
   21.4359   -8.8379  -16.1477 C   0  0  1  0  0  0  0  0  0  0  0  0
   21.2586   -9.7378  -14.9483 C   0  0  0  0  0  0  0  0  0  0  0  0
   20.4301  -10.8972  -15.3432 C   0  0  0  0  0  0  0  0  0  0  0  0
   20.8804  -12.2090  -15.5090 C   0  0  0  0  0  0  0  0  0  0  0  0
   19.8598  -12.9900  -15.8687 N   0  0  0  0  0  0  0  0  0  0  0  0
   18.7730  -12.2192  -15.9378 C   0  0  0  0  0  0  0  0  0  0  0  0
   19.1157  -10.9543  -15.6206 N   0  0  0  0  0  0  0  0  0  0  0  0
   21.8954   -7.4630  -15.7900 C   0  0  0  0  0  0  0  0  0  0  0  0
   23.0899   -7.1918  -15.5161 O   0  0  0  0  0  0  0  0  0  0  0  0
   18.2291   -2.5601  -16.5293 N   0  0  0  0  0  0  0  0  0  0  0  0
   19.2297   -1.9264  -15.7635 C   0  0  0  0  0  0  0  0  0  0  0  0
   19.1271   -0.7069  -15.4151 O   0  0  0  0  0  0  0  0  0  0  0  0
   20.4143   -2.6705  -15.3453 C   0  0  0  0  0  0  0  0  0  0  0  0
   20.3254   -4.1107  -15.7261 C   0  0  0  0  0  0  0  0  0  0  0  0
   21.4432   -5.0073  -15.3199 C   0  0  2  0  0  0  0  0  0  0  0  0
   20.9962   -6.3629  -15.7370 N   0  0  0  0  0  0  0  0  0  0  0  0
   21.9049   -5.0273  -13.9614 C   0  0  0  0  0  0  0  0  0  0  0  0
   22.9186   -4.1461  -13.5561 O   0  0  0  0  0  0  0  0  0  0  0  0
   21.4611   -5.7947  -13.0758 O   0  0  0  0  0  0  0  0  0  0  0  0
  2  3  1  0
  2  1  1  6
  3  4  1  0
  4  8  1  0
  5  6  1  0
  5  4  2  0
  6  7  1  0
  7  8  2  0
  9  2  1  0
 10  9  2  0
 11  9  1  0
 12 11  1  0
 13 14  1  0
 12 13  1  1
 14 18  1  0
 15 14  2  0
 15 16  1  0
 16 17  1  0
 18 17  2  0
 19 12  1  0
 19 27  1  0
 20 19  2  0
 22 21  1  0
 23 22  2  0
 24 22  1  0
 25 24  1  0
 26 27  1  0
 26 25  1  1
 28 29  1  0
 28 26  1  0
 30 28  2  0
M  END
$$$$
