KHA.pdb
     RDKit          3D

 25 25  0  0  1  0  0  0  0  0999 V2000
    2.9436  -23.6526   21.9476 N   0  0  0  0  0  0  0  0  0  0  0  0
    3.0281  -22.4948   22.8038 C   0  0  1  0  0  0  0  0  0  0  0  0
    2.3118  -22.6223   24.0976 C   0  0  0  0  0  0  0  0  0  0  0  0
    1.2019  -23.6249   24.1489 C   0  0  0  0  0  0  0  0  0  0  0  0
    0.5944  -23.8537   25.4922 C   0  0  0  0  0  0  0  0  0  0  0  0
   -0.4876  -24.9365   25.3060 C   0  0  0  0  0  0  0  0  0  0  0  0
   -1.0599  -25.2095   26.6075 N   0  0  0  0  0  0  0  0  0  0  0  0
    4.4562  -22.1329   22.9614 C   0  0  0  0  0  0  0  0  0  0  0  0
    5.3684  -22.9877   23.1066 O   0  0  0  0  0  0  0  0  0  0  0  0
    4.8510  -20.7754   22.9534 N   0  0  0  0  0  0  0  0  0  0  0  0
    6.2729  -20.3791   23.0694 C   0  0  1  0  0  0  0  0  0  0  0  0
    6.6265  -19.4602   21.9616 C   0  0  0  0  0  0  0  0  0  0  0  0
    7.9999  -18.9567   21.9830 C   0  0  0  0  0  0  0  0  0  0  0  0
    8.9421  -19.1921   22.9935 C   0  0  0  0  0  0  0  0  0  0  0  0
   10.0871  -18.5887   22.6981 N   0  0  0  0  0  0  0  0  0  0  0  0
    9.9358  -17.9578   21.5201 C   0  0  0  0  0  0  0  0  0  0  0  0
    8.6872  -18.1862   21.1066 N   0  0  0  0  0  0  0  0  0  0  0  0
    6.5649  -19.9521   24.4398 C   0  0  0  0  0  0  0  0  0  0  0  0
    5.6483  -19.2910   25.0494 O   0  0  0  0  0  0  0  0  0  0  0  0
    6.7211  -20.3136   27.4044 C   0  0  0  0  0  0  0  0  0  0  0  0
    7.8764  -19.8009   26.5794 C   0  0  2  0  0  0  0  0  0  0  0  0
    7.7436  -20.1886   25.1815 N   0  0  0  0  0  0  0  0  0  0  0  0
    9.1536  -20.1606   27.1970 C   0  0  0  0  0  0  0  0  0  0  0  0
    9.4905  -19.7103   28.4483 O   0  0  0  0  0  0  0  0  0  0  0  0
    9.9478  -20.8920   26.5673 O   0  0  0  0  0  0  0  0  0  0  0  0
  2  1  1  1
  3  2  1  0
  4  3  1  0
  5  4  1  0
  6  5  1  0
  6  7  1  0
  8  2  1  0
  9  8  2  0
 10  8  1  0
 11 10  1  0
 11 12  1  6
 12 13  1  0
 13 17  1  0
 14 13  2  0
 14 15  1  0
 15 16  1  0
 17 16  2  0
 18 19  2  0
 18 11  1  0
 21 20  1  1
 21 22  1  0
 22 18  1  0
 23 21  1  0
 24 23  1  0
 25 23  2  0
M  END
$$$$
