KHA.pdb
     RDKit          3D

 25 25  0  0  1  0  0  0  0  0999 V2000
   11.7760  -16.1609   16.8226 N   0  0  0  0  0  0  0  0  0  0  0  0
   12.2464  -17.0846   17.8257 C   0  0  1  0  0  0  0  0  0  0  0  0
   13.6717  -17.4771   17.6927 C   0  0  0  0  0  0  0  0  0  0  0  0
   13.9481  -18.7359   16.9319 C   0  0  0  0  0  0  0  0  0  0  0  0
   15.3643  -19.2050   16.9443 C   0  0  0  0  0  0  0  0  0  0  0  0
   15.4126  -20.4783   16.0757 C   0  0  0  0  0  0  0  0  0  0  0  0
   16.7532  -21.0173   16.1662 N   0  0  0  0  0  0  0  0  0  0  0  0
   11.9158  -16.5336   19.1607 C   0  0  0  0  0  0  0  0  0  0  0  0
   12.7457  -15.9054   19.8682 O   0  0  0  0  0  0  0  0  0  0  0  0
   10.6189  -16.7011   19.6981 N   0  0  0  0  0  0  0  0  0  0  0  0
   10.2148  -16.0563   20.9683 C   0  0  1  0  0  0  0  0  0  0  0  0
    8.7766  -15.7026   20.9125 C   0  0  0  0  0  0  0  0  0  0  0  0
    8.4413  -14.5931   20.0199 C   0  0  0  0  0  0  0  0  0  0  0  0
    9.3483  -13.8805   19.2237 C   0  0  0  0  0  0  0  0  0  0  0  0
    8.7107  -12.9395   18.5378 N   0  0  0  0  0  0  0  0  0  0  0  0
    7.4051  -13.0039   18.8534 C   0  0  0  0  0  0  0  0  0  0  0  0
    7.2601  -13.9938   19.7374 N   0  0  0  0  0  0  0  0  0  0  0  0
   10.6867  -16.8489   22.1060 C   0  0  0  0  0  0  0  0  0  0  0  0
   10.4503  -18.1105   22.0723 O   0  0  0  0  0  0  0  0  0  0  0  0
   13.2979  -17.0957   24.6007 C   0  0  0  0  0  0  0  0  0  0  0  0
   11.8307  -17.2856   24.3018 C   0  0  2  0  0  0  0  0  0  0  0  0
   11.3840  -16.3882   23.2448 N   0  0  0  0  0  0  0  0  0  0  0  0
   11.0397  -17.2263   25.5318 C   0  0  0  0  0  0  0  0  0  0  0  0
   11.2558  -18.1087   26.5597 O   0  0  0  0  0  0  0  0  0  0  0  0
   10.1522  -16.3532   25.6414 O   0  0  0  0  0  0  0  0  0  0  0  0
  2  1  1  6
  3  2  1  0
  4  3  1  0
  5  4  1  0
  6  5  1  0
  6  7  1  0
  8  2  1  0
  9  8  2  0
 10  8  1  0
 11 10  1  0
 11 12  1  6
 12 13  1  0
 13 17  1  0
 14 13  2  0
 14 15  1  0
 15 16  1  0
 17 16  2  0
 18 19  2  0
 18 11  1  0
 21 20  1  1
 21 22  1  0
 22 18  1  0
 23 21  1  0
 24 23  1  0
 25 23  2  0
M  END
$$$$
