KHA.pdb
     RDKit          3D

 25 25  0  0  1  0  0  0  0  0999 V2000
   12.0967  -20.0651   12.6315 N   0  0  0  0  0  0  0  0  0  0  0  0
   11.7911  -21.4236   13.0081 C   0  0  1  0  0  0  0  0  0  0  0  0
   12.7935  -22.4305   12.5784 C   0  0  0  0  0  0  0  0  0  0  0  0
   13.9234  -21.9282   11.7353 C   0  0  0  0  0  0  0  0  0  0  0  0
   14.9248  -22.9510   11.3146 C   0  0  0  0  0  0  0  0  0  0  0  0
   15.9735  -22.2125   10.4587 C   0  0  0  0  0  0  0  0  0  0  0  0
   16.9708  -23.1824   10.0580 N   0  0  0  0  0  0  0  0  0  0  0  0
   11.5203  -21.4555   14.4645 C   0  0  0  0  0  0  0  0  0  0  0  0
   11.3571  -20.4159   15.1547 O   0  0  0  0  0  0  0  0  0  0  0  0
   11.4342  -22.6917   15.1450 N   0  0  0  0  0  0  0  0  0  0  0  0
   11.0851  -22.7649   16.5821 C   0  0  1  0  0  0  0  0  0  0  0  0
    9.8177  -23.5146   16.7499 C   0  0  0  0  0  0  0  0  0  0  0  0
    8.6199  -22.8327   16.2597 C   0  0  0  0  0  0  0  0  0  0  0  0
    8.0066  -21.7239   16.8587 C   0  0  0  0  0  0  0  0  0  0  0  0
    6.9416  -21.3576   16.1557 N   0  0  0  0  0  0  0  0  0  0  0  0
    6.8269  -22.1898   15.1056 C   0  0  0  0  0  0  0  0  0  0  0  0
    7.8339  -23.0631   15.1812 N   0  0  0  0  0  0  0  0  0  0  0  0
   12.2492  -23.1947   17.3603 C   0  0  0  0  0  0  0  0  0  0  0  0
   12.8592  -24.2501   16.9570 O   0  0  0  0  0  0  0  0  0  0  0  0
   14.7113  -21.9519   19.8965 C   0  0  0  0  0  0  0  0  0  0  0  0
   14.0036  -23.0605   19.1561 C   0  0  2  0  0  0  0  0  0  0  0  0
   12.7911  -22.5772   18.5093 N   0  0  0  0  0  0  0  0  0  0  0  0
   13.8140  -24.2239   20.0236 C   0  0  0  0  0  0  0  0  0  0  0  0
   14.8403  -25.0991   20.2745 O   0  0  0  0  0  0  0  0  0  0  0  0
   12.6937  -24.4181   20.5425 O   0  0  0  0  0  0  0  0  0  0  0  0
  2  1  1  1
  3  2  1  0
  4  3  1  0
  5  4  1  0
  6  5  1  0
  6  7  1  0
  8  2  1  0
  9  8  2  0
 10  8  1  0
 11 10  1  0
 11 12  1  6
 12 13  1  0
 13 17  1  0
 14 13  2  0
 14 15  1  0
 15 16  1  0
 17 16  2  0
 18 19  2  0
 18 11  1  0
 21 20  1  1
 21 22  1  0
 22 18  1  0
 23 21  1  0
 24 23  1  0
 25 23  2  0
M  END
$$$$
