KHA.pdb
     RDKit          3D

 25 25  0  0  1  0  0  0  0  0999 V2000
    6.5354  -19.7614   20.4094 N   0  0  0  0  0  0  0  0  0  0  0  0
    5.9359  -18.9047   21.4032 C   0  0  1  0  0  0  0  0  0  0  0  0
    5.1807  -19.6151   22.4654 C   0  0  0  0  0  0  0  0  0  0  0  0
    5.9165  -20.6918   23.1996 C   0  0  0  0  0  0  0  0  0  0  0  0
    5.1412  -21.4038   24.2570 C   0  0  0  0  0  0  0  0  0  0  0  0
    6.1099  -22.4115   24.9081 C   0  0  0  0  0  0  0  0  0  0  0  0
    5.3732  -23.1281   25.9278 N   0  0  0  0  0  0  0  0  0  0  0  0
    6.9836  -18.0030   21.9367 C   0  0  0  0  0  0  0  0  0  0  0  0
    8.1690  -18.3735   22.1400 O   0  0  0  0  0  0  0  0  0  0  0  0
    6.6755  -16.6578   22.2434 N   0  0  0  0  0  0  0  0  0  0  0  0
    7.6644  -15.7605   22.8834 C   0  0  1  0  0  0  0  0  0  0  0  0
    7.3536  -14.3520   22.5427 C   0  0  0  0  0  0  0  0  0  0  0  0
    7.7272  -13.9405   21.1895 C   0  0  0  0  0  0  0  0  0  0  0  0
    8.3560  -14.7489   20.2327 C   0  0  0  0  0  0  0  0  0  0  0  0
    8.5509  -14.0621   19.1134 N   0  0  0  0  0  0  0  0  0  0  0  0
    8.0705  -12.8194   19.2961 C   0  0  0  0  0  0  0  0  0  0  0  0
    7.5831  -12.7622   20.5376 N   0  0  0  0  0  0  0  0  0  0  0  0
    7.8185  -16.1105   24.2973 C   0  0  0  0  0  0  0  0  0  0  0  0
    6.7644  -16.0508   25.0281 O   0  0  0  0  0  0  0  0  0  0  0  0
    8.0452  -18.1992   26.4631 C   0  0  0  0  0  0  0  0  0  0  0  0
    8.9909  -17.0314   26.3217 C   0  0  2  0  0  0  0  0  0  0  0  0
    8.9985  -16.5166   24.9590 N   0  0  0  0  0  0  0  0  0  0  0  0
   10.3108  -17.3660   26.8584 C   0  0  0  0  0  0  0  0  0  0  0  0
   11.4502  -17.1660   26.1209 O   0  0  0  0  0  0  0  0  0  0  0  0
   10.3946  -17.8426   28.0107 O   0  0  0  0  0  0  0  0  0  0  0  0
  2  1  1  6
  3  2  1  0
  4  3  1  0
  5  4  1  0
  6  5  1  0
  6  7  1  0
  8  2  1  0
  9  8  2  0
 10  8  1  0
 11 10  1  0
 11 12  1  1
 12 13  1  0
 13 17  1  0
 14 13  2  0
 14 15  1  0
 15 16  1  0
 17 16  2  0
 18 19  2  0
 18 11  1  0
 21 20  1  6
 21 22  1  0
 22 18  1  0
 23 21  1  0
 24 23  1  0
 25 23  2  0
M  END
$$$$
