KHA.pdb
     RDKit          3D

 25 25  0  0  1  0  0  0  0  0999 V2000
    7.2956  -16.0241   20.1725 N   0  0  0  0  0  0  0  0  0  0  0  0
    8.3338  -15.0310   20.3012 C   0  0  1  0  0  0  0  0  0  0  0  0
    8.0177  -13.7156   19.6904 C   0  0  0  0  0  0  0  0  0  0  0  0
    7.4188  -13.7442   18.3192 C   0  0  0  0  0  0  0  0  0  0  0  0
    8.2861  -13.2281   17.2204 C   0  0  0  0  0  0  0  0  0  0  0  0
    7.4118  -13.1930   15.9507 C   0  0  0  0  0  0  0  0  0  0  0  0
    8.2202  -12.6503   14.8793 N   0  0  0  0  0  0  0  0  0  0  0  0
    8.7137  -14.9340   21.7300 C   0  0  0  0  0  0  0  0  0  0  0  0
    9.6403  -14.1899   22.1444 O   0  0  0  0  0  0  0  0  0  0  0  0
    8.0269  -15.6970   22.7020 N   0  0  0  0  0  0  0  0  0  0  0  0
    8.3627  -15.6056   24.1412 C   0  0  1  0  0  0  0  0  0  0  0  0
    7.1287  -15.3691   24.9273 C   0  0  0  0  0  0  0  0  0  0  0  0
    6.9799  -14.0158   25.4625 C   0  0  0  0  0  0  0  0  0  0  0  0
    7.9111  -12.9766   25.3305 C   0  0  0  0  0  0  0  0  0  0  0  0
    7.4620  -11.8832   25.9349 N   0  0  0  0  0  0  0  0  0  0  0  0
    6.2586  -12.1630   26.4660 C   0  0  0  0  0  0  0  0  0  0  0  0
    5.9850  -13.4372   26.1764 N   0  0  0  0  0  0  0  0  0  0  0  0
    9.2229  -16.7262   24.5282 C   0  0  0  0  0  0  0  0  0  0  0  0
    8.7268  -17.9050   24.4139 O   0  0  0  0  0  0  0  0  0  0  0  0
   12.7687  -17.6997   24.9286 C   0  0  0  0  0  0  0  0  0  0  0  0
   11.3208  -17.8610   25.3232 C   0  0  2  0  0  0  0  0  0  0  0  0
   10.5492  -16.6656   25.0105 N   0  0  0  0  0  0  0  0  0  0  0  0
   11.2096  -18.3177   26.7093 C   0  0  0  0  0  0  0  0  0  0  0  0
   11.8181  -19.4736   27.1284 O   0  0  0  0  0  0  0  0  0  0  0  0
   10.5462  -17.6375   27.5212 O   0  0  0  0  0  0  0  0  0  0  0  0
  2  1  1  1
  3  2  1  0
  4  3  1  0
  5  4  1  0
  6  5  1  0
  6  7  1  0
  8  2  1  0
  9  8  2  0
 10  8  1  0
 11 10  1  0
 11 12  1  1
 12 13  1  0
 13 17  1  0
 14 13  2  0
 14 15  1  0
 15 16  1  0
 17 16  2  0
 18 19  2  0
 18 11  1  0
 21 20  1  1
 21 22  1  0
 22 18  1  0
 23 21  1  0
 24 23  1  0
 25 23  2  0
M  END
$$$$
