KHA.pdb
     RDKit          3D

 25 25  0  0  1  0  0  0  0  0999 V2000
    7.5920  -13.2629   19.1289 N   0  0  0  0  0  0  0  0  0  0  0  0
    7.2056  -14.3256   20.0245 C   0  0  1  0  0  0  0  0  0  0  0  0
    7.4268  -15.6959   19.4985 C   0  0  0  0  0  0  0  0  0  0  0  0
    8.7205  -15.9351   18.7852 C   0  0  0  0  0  0  0  0  0  0  0  0
    8.9011  -17.2983   18.2064 C   0  0  0  0  0  0  0  0  0  0  0  0
   10.3140  -17.3296   17.5894 C   0  0  0  0  0  0  0  0  0  0  0  0
   10.5371  -18.6656   17.0783 N   0  0  0  0  0  0  0  0  0  0  0  0
    7.8560  -14.0924   21.3352 C   0  0  0  0  0  0  0  0  0  0  0  0
    9.0071  -13.5971   21.4512 O   0  0  0  0  0  0  0  0  0  0  0  0
    7.1840  -14.4288   22.5326 N   0  0  0  0  0  0  0  0  0  0  0  0
    7.8067  -14.2165   23.8592 C   0  0  1  0  0  0  0  0  0  0  0  0
    6.7905  -13.7097   24.8117 C   0  0  0  0  0  0  0  0  0  0  0  0
    7.2647  -13.5082   26.1809 C   0  0  0  0  0  0  0  0  0  0  0  0
    7.6695  -12.2862   26.7352 C   0  0  0  0  0  0  0  0  0  0  0  0
    8.0406  -12.4596   27.9980 N   0  0  0  0  0  0  0  0  0  0  0  0
    7.8951  -13.7615   28.3018 C   0  0  0  0  0  0  0  0  0  0  0  0
    7.4321  -14.3734   27.2093 N   0  0  0  0  0  0  0  0  0  0  0  0
    8.5845  -15.3967   24.2434 C   0  0  0  0  0  0  0  0  0  0  0  0
    8.0404  -16.5418   24.0399 O   0  0  0  0  0  0  0  0  0  0  0  0
   12.0086  -16.6332   24.8948 C   0  0  0  0  0  0  0  0  0  0  0  0
   10.5305  -16.6702   25.1984 C   0  0  2  0  0  0  0  0  0  0  0  0
    9.8778  -15.4269   24.8105 N   0  0  0  0  0  0  0  0  0  0  0  0
   10.2966  -17.0794   26.5840 C   0  0  0  0  0  0  0  0  0  0  0  0
   10.8164  -18.2491   27.0777 O   0  0  0  0  0  0  0  0  0  0  0  0
    9.6094  -16.3452   27.3261 O   0  0  0  0  0  0  0  0  0  0  0  0
  2  1  1  6
  3  2  1  0
  4  3  1  0
  5  4  1  0
  6  5  1  0
  6  7  1  0
  8  2  1  0
  9  8  2  0
 10  8  1  0
 11 10  1  0
 11 12  1  1
 12 13  1  0
 13 17  1  0
 14 13  2  0
 14 15  1  0
 15 16  1  0
 17 16  2  0
 18 19  2  0
 18 11  1  0
 21 20  1  1
 21 22  1  0
 22 18  1  0
 23 21  1  0
 24 23  1  0
 25 23  2  0
M  END
$$$$
