VIG.pdb
     RDKit          3D

 20 19  0  0  1  0  0  0  0  0999 V2000
   13.4129  -22.4730    0.8271 C   0  0  0  0  0  0  0  0  0  0  0  0
   14.6055  -21.8408    1.5128 C   0  0  1  0  0  0  0  0  0  0  0  0
   15.6409  -22.9312    1.6905 C   0  0  0  0  0  0  0  0  0  0  0  0
   15.2379  -20.7656    0.6662 C   0  0  2  0  0  0  0  0  0  0  0  0
   15.5263  -21.2905   -0.6309 N   0  0  0  0  0  0  0  0  0  0  0  0
   16.4981  -20.2444    1.3368 C   0  0  0  0  0  0  0  0  0  0  0  0
   17.5749  -20.6651    0.8789 O   0  0  0  0  0  0  0  0  0  0  0  0
   17.9173  -15.0969    1.7063 C   0  0  0  0  0  0  0  0  0  0  0  0
   18.0039  -16.6365    1.7157 C   0  0  0  0  0  0  0  0  0  0  0  0
   17.5278  -17.1872    3.0121 C   0  0  2  0  0  0  0  0  0  0  0  0
   18.0910  -16.4540    4.2030 C   0  0  0  0  0  0  0  0  0  0  0  0
   17.4725  -18.6641    3.1212 C   0  0  2  0  0  0  0  0  0  0  0  0
   16.4320  -19.3452    2.4044 N   0  0  0  0  0  0  0  0  0  0  0  0
   17.7722  -19.2200    4.4364 C   0  0  0  0  0  0  0  0  0  0  0  0
   18.7743  -18.8468    5.0927 O   0  0  0  0  0  0  0  0  0  0  0  0
   16.9423  -20.2068    5.0293 N   0  0  0  0  0  0  0  0  0  0  0  0
   17.2718  -20.8311    6.3033 C   0  0  0  0  0  0  0  0  0  0  0  0
   16.6374  -20.0481    7.3878 C   0  0  0  0  0  0  0  0  0  0  0  0
   16.0002  -18.9868    7.1579 O   0  0  0  0  0  0  0  0  0  0  0  0
   16.7745  -20.5395    8.6993 O   0  0  0  0  0  0  0  0  0  0  0  0
  2  4  1  0
  2  1  1  6
  3  2  1  0
  4  5  1  6
  6  4  1  0
  6  7  2  0
  8  9  1  0
  9 10  1  0
 10 11  1  1
 10 12  1  0
 12 13  1  1
 12 14  1  0
 13  6  1  0
 14 15  2  0
 14 16  1  0
 16 17  1  0
 17 18  1  0
 18 20  1  0
 19 18  2  0
M  END
$$$$
