VIG.pdb
     RDKit          3D

 20 19  0  0  1  0  0  0  0  0999 V2000
   25.1443   -9.6783  -22.1489 C   0  0  0  0  0  0  0  0  0  0  0  0
   24.1583   -9.5547  -21.0066 C   0  0  1  0  0  0  0  0  0  0  0  0
   22.7733   -9.6894  -21.6032 C   0  0  0  0  0  0  0  0  0  0  0  0
   24.3165  -10.6680  -20.0025 C   0  0  2  0  0  0  0  0  0  0  0  0
   24.2123  -11.9273  -20.6691 N   0  0  0  0  0  0  0  0  0  0  0  0
   23.2683  -10.5405  -18.9096 C   0  0  0  0  0  0  0  0  0  0  0  0
   22.1445  -11.0029  -19.1735 O   0  0  0  0  0  0  0  0  0  0  0  0
   24.5527  -12.1550  -14.6526 C   0  0  0  0  0  0  0  0  0  0  0  0
   23.2650  -11.7993  -15.4228 C   0  0  0  0  0  0  0  0  0  0  0  0
   22.9570  -10.3498  -15.3017 C   0  0  2  0  0  0  0  0  0  0  0  0
   22.0043  -10.0449  -14.1735 C   0  0  0  0  0  0  0  0  0  0  0  0
   22.7247   -9.6165  -16.5683 C   0  0  2  0  0  0  0  0  0  0  0  0
   23.5672   -9.9361  -17.6857 N   0  0  0  0  0  0  0  0  0  0  0  0
   22.3962   -8.2010  -16.4370 C   0  0  0  0  0  0  0  0  0  0  0  0
   23.2496   -7.3627  -16.0587 O   0  0  0  0  0  0  0  0  0  0  0  0
   21.0968   -7.7125  -16.7317 N   0  0  0  0  0  0  0  0  0  0  0  0
   20.7626   -6.2979  -16.6392 C   0  0  0  0  0  0  0  0  0  0  0  0
   20.3316   -6.0071  -15.2530 C   0  0  0  0  0  0  0  0  0  0  0  0
   20.2436   -6.9098  -14.3797 O   0  0  0  0  0  0  0  0  0  0  0  0
   20.0205   -4.6698  -14.9445 O   0  0  0  0  0  0  0  0  0  0  0  0
  2  4  1  0
  2  1  1  6
  3  2  1  0
  4  5  1  6
  6  4  1  0
  6  7  2  0
  8  9  1  0
  9 10  1  0
 10 11  1  1
 10 12  1  0
 12 13  1  6
 12 14  1  0
 13  6  1  0
 14 15  2  0
 14 16  1  0
 16 17  1  0
 17 18  1  0
 18 20  1  0
 19 18  2  0
M  END
$$$$
