VIG.pdb
     RDKit          3D

 20 19  0  0  1  0  0  0  0  0999 V2000
   13.0868  -12.2805  -15.7521 C   0  0  0  0  0  0  0  0  0  0  0  0
   13.0084  -13.6833  -15.1879 C   0  0  1  0  0  0  0  0  0  0  0  0
   11.8151  -14.3530  -15.8360 C   0  0  0  0  0  0  0  0  0  0  0  0
   14.2222  -14.5031  -15.5447 C   0  0  2  0  0  0  0  0  0  0  0  0
   14.0805  -15.8199  -15.0089 N   0  0  0  0  0  0  0  0  0  0  0  0
   15.4803  -13.8323  -15.0189 C   0  0  0  0  0  0  0  0  0  0  0  0
   15.6713  -13.9133  -13.7928 O   0  0  0  0  0  0  0  0  0  0  0  0
   19.4940  -14.8177  -17.5469 C   0  0  0  0  0  0  0  0  0  0  0  0
   19.0759  -14.3045  -16.1542 C   0  0  0  0  0  0  0  0  0  0  0  0
   18.8150  -12.8411  -16.1839 C   0  0  2  0  0  0  0  0  0  0  0  0
   20.0313  -12.0212  -15.8354 C   0  0  0  0  0  0  0  0  0  0  0  0
   17.5320  -12.3875  -15.5971 C   0  0  2  0  0  0  0  0  0  0  0  0
   16.3601  -13.1675  -15.8773 N   0  0  0  0  0  0  0  0  0  0  0  0
   17.3137  -10.9451  -15.5736 C   0  0  0  0  0  0  0  0  0  0  0  0
   16.9372  -10.3227  -16.5959 O   0  0  0  0  0  0  0  0  0  0  0  0
   17.5181  -10.1848  -14.3929 N   0  0  0  0  0  0  0  0  0  0  0  0
   17.1933   -8.7669  -14.3197 C   0  0  0  0  0  0  0  0  0  0  0  0
   18.3216   -7.9967  -14.8903 C   0  0  0  0  0  0  0  0  0  0  0  0
   18.3269   -6.7378  -14.9086 O   0  0  0  0  0  0  0  0  0  0  0  0
   19.3996   -8.7320  -15.4171 O   0  0  0  0  0  0  0  0  0  0  0  0
  2  4  1  0
  2  1  1  6
  3  2  1  0
  4  5  1  1
  6  4  1  0
  6  7  2  0
  8  9  1  0
  9 10  1  0
 10 11  1  1
 10 12  1  0
 12 13  1  6
 12 14  1  0
 13  6  1  0
 14 15  2  0
 14 16  1  0
 16 17  1  0
 17 18  1  0
 18 20  1  0
 19 18  2  0
M  END
$$$$
