VIG.pdb
     RDKit          3D

 20 19  0  0  1  0  0  0  0  0999 V2000
   19.0418  -12.1814  -20.9055 C   0  0  0  0  0  0  0  0  0  0  0  0
   19.2443  -12.0217  -19.4136 C   0  0  1  0  0  0  0  0  0  0  0  0
   20.5620  -12.6856  -19.0740 C   0  0  0  0  0  0  0  0  0  0  0  0
   19.3637  -10.5732  -19.0129 C   0  0  2  0  0  0  0  0  0  0  0  0
   20.3968   -9.9519  -19.7796 N   0  0  0  0  0  0  0  0  0  0  0  0
   19.6476  -10.4634  -17.5240 C   0  0  0  0  0  0  0  0  0  0  0  0
   18.7647  -10.9009  -16.7655 O   0  0  0  0  0  0  0  0  0  0  0  0
   24.2295  -12.0785  -15.2423 C   0  0  0  0  0  0  0  0  0  0  0  0
   22.7939  -11.6471  -15.6041 C   0  0  0  0  0  0  0  0  0  0  0  0
   22.5762  -10.2102  -15.2904 C   0  0  2  0  0  0  0  0  0  0  0  0
   23.0532   -9.8323  -13.9109 C   0  0  0  0  0  0  0  0  0  0  0  0
   21.2794   -9.6315  -15.7140 C   0  0  2  0  0  0  0  0  0  0  0  0
   20.8367   -9.9007  -17.0526 N   0  0  0  0  0  0  0  0  0  0  0  0
   20.9946   -8.2824  -15.2368 C   0  0  0  0  0  0  0  0  0  0  0  0
   21.0555   -7.9921  -14.0177 O   0  0  0  0  0  0  0  0  0  0  0  0
   20.6366   -7.2410  -16.1320 N   0  0  0  0  0  0  0  0  0  0  0  0
   20.4258   -5.8721  -15.6817 C   0  0  0  0  0  0  0  0  0  0  0  0
   19.0032   -5.7166  -15.3018 C   0  0  0  0  0  0  0  0  0  0  0  0
   18.1958   -6.6822  -15.3348 O   0  0  0  0  0  0  0  0  0  0  0  0
   18.5827   -4.4359  -14.8982 O   0  0  0  0  0  0  0  0  0  0  0  0
  2  4  1  0
  2  1  1  6
  3  2  1  0
  4  5  1  6
  6  4  1  0
  6  7  2  0
  8  9  1  0
  9 10  1  0
 10 11  1  1
 10 12  1  0
 12 13  1  6
 12 14  1  0
 13  6  1  0
 14 15  2  0
 14 16  1  0
 16 17  1  0
 17 18  1  0
 18 20  1  0
 19 18  2  0
M  END
$$$$
