VIG.pdb
     RDKit          3D

 20 19  0  0  1  0  0  0  0  0999 V2000
   24.6768  -12.9978  -15.3711 C   0  0  0  0  0  0  0  0  0  0  0  0
   24.0413  -11.6527  -15.6528 C   0  0  1  0  0  0  0  0  0  0  0  0
   24.8719  -10.9900  -16.7313 C   0  0  0  0  0  0  0  0  0  0  0  0
   22.6424  -11.7932  -16.1970 C   0  0  2  0  0  0  0  0  0  0  0  0
   22.6663  -12.6217  -17.3606 N   0  0  0  0  0  0  0  0  0  0  0  0
   22.0636  -10.4241  -16.5134 C   0  0  0  0  0  0  0  0  0  0  0  0
   22.2883   -9.9864  -17.6554 O   0  0  0  0  0  0  0  0  0  0  0  0
   17.6687  -10.3091  -16.1039 C   0  0  0  0  0  0  0  0  0  0  0  0
   18.6166   -9.2934  -16.7730 C   0  0  0  0  0  0  0  0  0  0  0  0
   19.2209   -8.3854  -15.7626 C   0  0  2  0  0  0  0  0  0  0  0  0
   18.5892   -7.0164  -15.7520 C   0  0  0  0  0  0  0  0  0  0  0  0
   20.6972   -8.4240  -15.6398 C   0  0  2  0  0  0  0  0  0  0  0  0
   21.3246   -9.7128  -15.5644 N   0  0  0  0  0  0  0  0  0  0  0  0
   21.2949   -7.4034  -14.7855 C   0  0  0  0  0  0  0  0  0  0  0  0
   21.2697   -7.4989  -13.5347 O   0  0  0  0  0  0  0  0  0  0  0  0
   21.9306   -6.2590  -15.3336 N   0  0  0  0  0  0  0  0  0  0  0  0
   22.5814   -5.2603  -14.4967 C   0  0  0  0  0  0  0  0  0  0  0  0
   21.6002   -4.1957  -14.1871 C   0  0  0  0  0  0  0  0  0  0  0  0
   21.9206   -3.1610  -13.5453 O   0  0  0  0  0  0  0  0  0  0  0  0
   20.2821   -4.3854  -14.6418 O   0  0  0  0  0  0  0  0  0  0  0  0
  2  4  1  0
  2  1  1  6
  3  2  1  0
  4  5  1  6
  6  4  1  0
  6  7  2  0
  8  9  1  0
  9 10  1  0
 10 11  1  6
 10 12  1  0
 12 13  1  1
 12 14  1  0
 13  6  1  0
 14 15  2  0
 14 16  1  0
 16 17  1  0
 17 18  1  0
 18 20  1  0
 19 18  2  0
M  END
$$$$
