VIG.pdb
     RDKit          3D

 20 19  0  0  1  0  0  0  0  0999 V2000
   25.7623  -18.8880  -15.1486 C   0  0  0  0  0  0  0  0  0  0  0  0
   26.7159  -20.0275  -15.4391 C   0  0  1  0  0  0  0  0  0  0  0  0
   27.8411  -19.4579  -16.2769 C   0  0  0  0  0  0  0  0  0  0  0  0
   27.3375  -20.5770  -14.1803 C   0  0  2  0  0  0  0  0  0  0  0  0
   28.2989  -21.5769  -14.5226 N   0  0  0  0  0  0  0  0  0  0  0  0
   26.2615  -21.1435  -13.2690 C   0  0  0  0  0  0  0  0  0  0  0  0
   25.7649  -22.2287  -13.6184 O   0  0  0  0  0  0  0  0  0  0  0  0
   26.7201  -20.1159   -7.8977 C   0  0  0  0  0  0  0  0  0  0  0  0
   26.4565  -20.7897   -9.2595 C   0  0  0  0  0  0  0  0  0  0  0  0
   25.0814  -20.4937   -9.7411 C   0  0  2  0  0  0  0  0  0  0  0  0
   24.0131  -20.9386   -8.7746 C   0  0  0  0  0  0  0  0  0  0  0  0
   24.8139  -20.7548  -11.1751 C   0  0  2  0  0  0  0  0  0  0  0  0
   25.8654  -20.4708  -12.1100 N   0  0  0  0  0  0  0  0  0  0  0  0
   23.4730  -20.4249  -11.6461 C   0  0  0  0  0  0  0  0  0  0  0  0
   23.0932  -19.2346  -11.7608 O   0  0  0  0  0  0  0  0  0  0  0  0
   22.5413  -21.4371  -11.9947 N   0  0  0  0  0  0  0  0  0  0  0  0
   21.2250  -21.1244  -12.5340 C   0  0  0  0  0  0  0  0  0  0  0  0
   20.2184  -21.3394  -11.4698 C   0  0  0  0  0  0  0  0  0  0  0  0
   20.5422  -21.7192  -10.3139 O   0  0  0  0  0  0  0  0  0  0  0  0
   18.8719  -21.1010  -11.8020 O   0  0  0  0  0  0  0  0  0  0  0  0
  2  4  1  0
  2  1  1  1
  3  2  1  0
  4  5  1  6
  6  4  1  0
  6  7  2  0
  8  9  1  0
  9 10  1  0
 10 11  1  1
 10 12  1  0
 12 13  1  6
 12 14  1  0
 13  6  1  0
 14 15  2  0
 14 16  1  0
 16 17  1  0
 17 18  1  0
 18 20  1  0
 19 18  2  0
M  END
$$$$
