VIG.pdb
     RDKit          3D

 20 19  0  0  1  0  0  0  0  0999 V2000
   22.6654  -13.6559  -21.0476 C   0  0  0  0  0  0  0  0  0  0  0  0
   21.8869  -12.5041  -20.4480 C   0  0  1  0  0  0  0  0  0  0  0  0
   20.5905  -13.0776  -19.9163 C   0  0  0  0  0  0  0  0  0  0  0  0
   22.6083  -11.8848  -19.2779 C   0  0  2  0  0  0  0  0  0  0  0  0
   22.9463  -12.9037  -18.3351 N   0  0  0  0  0  0  0  0  0  0  0  0
   21.7426  -10.8130  -18.6367 C   0  0  0  0  0  0  0  0  0  0  0  0
   21.4731   -9.8297  -19.3486 O   0  0  0  0  0  0  0  0  0  0  0  0
   18.4522  -12.8930  -15.8737 C   0  0  0  0  0  0  0  0  0  0  0  0
   18.4729  -11.4848  -16.5017 C   0  0  0  0  0  0  0  0  0  0  0  0
   19.3822  -10.5809  -15.7489 C   0  0  2  0  0  0  0  0  0  0  0  0
   18.6428   -9.6077  -14.8660 C   0  0  0  0  0  0  0  0  0  0  0  0
   20.5381  -10.0344  -16.4980 C   0  0  2  0  0  0  0  0  0  0  0  0
   21.2850  -10.9414  -17.3226 N   0  0  0  0  0  0  0  0  0  0  0  0
   21.3455   -9.0433  -15.7946 C   0  0  0  0  0  0  0  0  0  0  0  0
   22.2552   -9.3836  -15.0003 O   0  0  0  0  0  0  0  0  0  0  0  0
   21.1358   -7.6520  -15.9793 N   0  0  0  0  0  0  0  0  0  0  0  0
   22.0162   -6.6520  -15.3909 C   0  0  0  0  0  0  0  0  0  0  0  0
   21.5432   -6.3592  -14.0188 C   0  0  0  0  0  0  0  0  0  0  0  0
   20.5190   -6.9097  -13.5358 O   0  0  0  0  0  0  0  0  0  0  0  0
   22.2889   -5.4327  -13.2667 O   0  0  0  0  0  0  0  0  0  0  0  0
  2  4  1  0
  2  1  1  1
  3  2  1  0
  4  5  1  1
  6  4  1  0
  6  7  2  0
  8  9  1  0
  9 10  1  0
 10 11  1  6
 10 12  1  0
 12 13  1  1
 12 14  1  0
 13  6  1  0
 14 15  2  0
 14 16  1  0
 16 17  1  0
 17 18  1  0
 18 20  1  0
 19 18  2  0
M  END
$$$$
