VIG.pdb
     RDKit          3D

 20 19  0  0  1  0  0  0  0  0999 V2000
   18.8810   -9.2453  -19.4554 C   0  0  0  0  0  0  0  0  0  0  0  0
   18.6709  -10.7446  -19.4462 C   0  0  1  0  0  0  0  0  0  0  0  0
   18.6625  -11.1975  -20.8910 C   0  0  0  0  0  0  0  0  0  0  0  0
   19.8036  -11.4683  -18.7635 C   0  0  2  0  0  0  0  0  0  0  0  0
   19.5925  -12.8781  -18.8587 N   0  0  0  0  0  0  0  0  0  0  0  0
   19.9071  -11.0285  -17.3126 C   0  0  0  0  0  0  0  0  0  0  0  0
   19.0346  -11.4696  -16.5441 O   0  0  0  0  0  0  0  0  0  0  0  0
   24.2329  -11.5214  -14.4200 C   0  0  0  0  0  0  0  0  0  0  0  0
   22.7668  -11.3375  -14.8613 C   0  0  0  0  0  0  0  0  0  0  0  0
   22.3958   -9.8980  -14.8846 C   0  0  2  0  0  0  0  0  0  0  0  0
   22.5979   -9.2186  -13.5538 C   0  0  0  0  0  0  0  0  0  0  0  0
   21.1541   -9.5483  -15.6141 C   0  0  2  0  0  0  0  0  0  0  0  0
   20.9296  -10.1777  -16.8844 N   0  0  0  0  0  0  0  0  0  0  0  0
   20.7439   -8.1498  -15.5450 C   0  0  0  0  0  0  0  0  0  0  0  0
   21.4072   -7.2440  -16.1052 O   0  0  0  0  0  0  0  0  0  0  0  0
   19.5767   -7.7549  -14.8410 N   0  0  0  0  0  0  0  0  0  0  0  0
   19.1692   -6.3603  -14.7393 C   0  0  0  0  0  0  0  0  0  0  0  0
   18.2888   -6.0436  -15.8867 C   0  0  0  0  0  0  0  0  0  0  0  0
   17.9999   -6.9020  -16.7613 O   0  0  0  0  0  0  0  0  0  0  0  0
   17.7815   -4.7333  -15.9642 O   0  0  0  0  0  0  0  0  0  0  0  0
  2  4  1  0
  2  1  1  6
  3  2  1  0
  4  5  1  1
  6  4  1  0
  6  7  2  0
  8  9  1  0
  9 10  1  0
 10 11  1  1
 10 12  1  0
 12 13  1  6
 12 14  1  0
 13  6  1  0
 14 15  2  0
 14 16  1  0
 16 17  1  0
 17 18  1  0
 18 20  1  0
 19 18  2  0
M  END
$$$$
