VIG.pdb
     RDKit          3D

 20 19  0  0  1  0  0  0  0  0999 V2000
   17.3021  -10.7084  -19.3215 C   0  0  0  0  0  0  0  0  0  0  0  0
   18.0974  -10.3909  -18.0728 C   0  0  1  0  0  0  0  0  0  0  0  0
   17.0965  -10.1306  -16.9670 C   0  0  0  0  0  0  0  0  0  0  0  0
   18.9467  -11.5566  -17.6339 C   0  0  2  0  0  0  0  0  0  0  0  0
   18.1261  -12.7184  -17.5001 N   0  0  0  0  0  0  0  0  0  0  0  0
   19.6484  -11.2302  -16.3261 C   0  0  0  0  0  0  0  0  0  0  0  0
   19.0770  -11.6110  -15.2893 O   0  0  0  0  0  0  0  0  0  0  0  0
   24.8074  -12.4394  -15.5589 C   0  0  0  0  0  0  0  0  0  0  0  0
   23.3085  -12.0993  -15.4342 C   0  0  0  0  0  0  0  0  0  0  0  0
   23.1105  -10.6405  -15.2257 C   0  0  2  0  0  0  0  0  0  0  0  0
   24.0181  -10.0712  -14.1648 C   0  0  0  0  0  0  0  0  0  0  0  0
   21.7087  -10.1602  -15.2119 C   0  0  2  0  0  0  0  0  0  0  0  0
   20.8643  -10.5417  -16.3082 N   0  0  0  0  0  0  0  0  0  0  0  0
   21.5037   -8.7988  -14.7289 C   0  0  0  0  0  0  0  0  0  0  0  0
   22.0366   -8.3928  -13.6680 O   0  0  0  0  0  0  0  0  0  0  0  0
   20.6925   -7.8759  -15.4390 N   0  0  0  0  0  0  0  0  0  0  0  0
   20.5022   -6.5049  -14.9859 C   0  0  0  0  0  0  0  0  0  0  0  0
   19.6055   -5.8150  -15.9409 C   0  0  0  0  0  0  0  0  0  0  0  0
   18.6944   -5.0362  -15.5552 O   0  0  0  0  0  0  0  0  0  0  0  0
   19.8116   -6.0648  -17.3103 O   0  0  0  0  0  0  0  0  0  0  0  0
  2  4  1  0
  2  1  1  6
  3  2  1  0
  4  5  1  1
  6  4  1  0
  6  7  2  0
  8  9  1  0
  9 10  1  0
 10 11  1  1
 10 12  1  0
 12 13  1  6
 12 14  1  0
 13  6  1  0
 14 15  2  0
 14 16  1  0
 16 17  1  0
 17 18  1  0
 18 20  1  0
 19 18  2  0
M  END
$$$$
