VIG.pdb
     RDKit          3D

 20 19  0  0  1  0  0  0  0  0999 V2000
   23.6525  -17.6460  -18.0286 C   0  0  0  0  0  0  0  0  0  0  0  0
   23.5714  -18.5370  -16.8072 C   0  0  1  0  0  0  0  0  0  0  0  0
   22.2847  -19.3267  -16.9222 C   0  0  0  0  0  0  0  0  0  0  0  0
   24.6997  -19.5359  -16.7623 C   0  0  2  0  0  0  0  0  0  0  0  0
   24.7299  -20.2737  -17.9853 N   0  0  0  0  0  0  0  0  0  0  0  0
   24.5317  -20.4625  -15.5696 C   0  0  0  0  0  0  0  0  0  0  0  0
   23.9036  -21.5151  -15.7794 O   0  0  0  0  0  0  0  0  0  0  0  0
   28.6663  -20.7548  -12.0655 C   0  0  0  0  0  0  0  0  0  0  0  0
   27.4470  -21.2247  -12.8843 C   0  0  0  0  0  0  0  0  0  0  0  0
   26.1770  -20.8542  -12.2058 C   0  0  2  0  0  0  0  0  0  0  0  0
   26.0205  -21.5082  -10.8563 C   0  0  0  0  0  0  0  0  0  0  0  0
   24.9633  -20.8114  -13.0550 C   0  0  2  0  0  0  0  0  0  0  0  0
   25.0587  -20.1351  -14.3175 N   0  0  0  0  0  0  0  0  0  0  0  0
   23.6984  -20.6190  -12.3538 C   0  0  0  0  0  0  0  0  0  0  0  0
   23.3024  -19.4768  -12.0181 O   0  0  0  0  0  0  0  0  0  0  0  0
   22.8620  -21.7164  -12.0219 N   0  0  0  0  0  0  0  0  0  0  0  0
   21.5933  -21.5403  -11.3285 C   0  0  0  0  0  0  0  0  0  0  0  0
   20.5349  -21.3093  -12.3377 C   0  0  0  0  0  0  0  0  0  0  0  0
   20.7295  -21.5116  -13.5651 O   0  0  0  0  0  0  0  0  0  0  0  0
   19.2900  -20.8504  -11.8690 O   0  0  0  0  0  0  0  0  0  0  0  0
  2  4  1  0
  2  1  1  6
  3  2  1  0
  4  5  1  6
  6  4  1  0
  6  7  2  0
  8  9  1  0
  9 10  1  0
 10 11  1  1
 10 12  1  0
 12 13  1  6
 12 14  1  0
 13  6  1  0
 14 15  2  0
 14 16  1  0
 16 17  1  0
 17 18  1  0
 18 20  1  0
 19 18  2  0
M  END
$$$$
