VIG.pdb
     RDKit          3D

 20 19  0  0  1  0  0  0  0  0999 V2000
   18.6788  -24.9363   -9.7703 C   0  0  0  0  0  0  0  0  0  0  0  0
   19.3718  -23.5984   -9.9184 C   0  0  1  0  0  0  0  0  0  0  0  0
   18.2861  -22.5534  -10.0652 C   0  0  0  0  0  0  0  0  0  0  0  0
   20.1686  -23.2374   -8.6905 C   0  0  2  0  0  0  0  0  0  0  0  0
   19.2960  -23.1678   -7.5615 N   0  0  0  0  0  0  0  0  0  0  0  0
   20.8911  -21.9177   -8.9043 C   0  0  0  0  0  0  0  0  0  0  0  0
   20.3553  -20.9137   -8.4029 O   0  0  0  0  0  0  0  0  0  0  0  0
   26.1718  -19.4985   -8.0627 C   0  0  0  0  0  0  0  0  0  0  0  0
   25.0299  -19.4749   -9.0989 C   0  0  0  0  0  0  0  0  0  0  0  0
   24.2399  -20.7333   -9.0472 C   0  0  2  0  0  0  0  0  0  0  0  0
   25.1006  -21.9694   -9.1167 C   0  0  0  0  0  0  0  0  0  0  0  0
   22.9912  -20.7618   -9.8447 C   0  0  2  0  0  0  0  0  0  0  0  0
   22.0867  -21.8544   -9.6249 N   0  0  0  0  0  0  0  0  0  0  0  0
   23.1110  -20.3392  -11.2360 C   0  0  0  0  0  0  0  0  0  0  0  0
   23.9119  -19.4368  -11.5801 O   0  0  0  0  0  0  0  0  0  0  0  0
   22.3262  -20.9314  -12.2594 N   0  0  0  0  0  0  0  0  0  0  0  0
   22.4873  -20.5745  -13.6623 C   0  0  0  0  0  0  0  0  0  0  0  0
   21.2635  -19.8729  -14.1118 C   0  0  0  0  0  0  0  0  0  0  0  0
   20.3028  -19.6432  -13.3310 O   0  0  0  0  0  0  0  0  0  0  0  0
   21.2134  -19.4682  -15.4585 O   0  0  0  0  0  0  0  0  0  0  0  0
  2  4  1  0
  2  1  1  1
  3  2  1  0
  4  5  1  1
  6  4  1  0
  6  7  2  0
  8  9  1  0
  9 10  1  0
 10 11  1  6
 10 12  1  0
 12 13  1  6
 12 14  1  0
 13  6  1  0
 14 15  2  0
 14 16  1  0
 16 17  1  0
 17 18  1  0
 18 20  1  0
 19 18  2  0
M  END
$$$$
