VIG.pdb
     RDKit          3D

 20 19  0  0  1  0  0  0  0  0999 V2000
   25.7544  -14.0366  -15.8142 C   0  0  0  0  0  0  0  0  0  0  0  0
   24.8485  -12.8535  -16.0827 C   0  0  1  0  0  0  0  0  0  0  0  0
   25.5163  -12.0219  -17.1573 C   0  0  0  0  0  0  0  0  0  0  0  0
   23.5084  -13.2814  -16.6248 C   0  0  2  0  0  0  0  0  0  0  0  0
   23.7005  -14.0507  -17.8133 N   0  0  0  0  0  0  0  0  0  0  0  0
   22.6405  -12.0640  -16.8968 C   0  0  0  0  0  0  0  0  0  0  0  0
   22.9011  -11.4273  -17.9327 O   0  0  0  0  0  0  0  0  0  0  0  0
   18.3191  -13.1720  -16.1273 C   0  0  0  0  0  0  0  0  0  0  0  0
   18.7730  -11.9329  -16.9252 C   0  0  0  0  0  0  0  0  0  0  0  0
   19.2613  -10.8642  -16.0141 C   0  0  2  0  0  0  0  0  0  0  0  0
   18.3487   -9.6647  -15.9748 C   0  0  0  0  0  0  0  0  0  0  0  0
   20.7147  -10.5776  -16.0525 C   0  0  2  0  0  0  0  0  0  0  0  0
   21.6140  -11.6960  -16.0231 N   0  0  0  0  0  0  0  0  0  0  0  0
   21.1584   -9.4176  -15.2868 C   0  0  0  0  0  0  0  0  0  0  0  0
   21.2528   -9.4550  -14.0363 O   0  0  0  0  0  0  0  0  0  0  0  0
   21.5022   -8.1973  -15.9247 N   0  0  0  0  0  0  0  0  0  0  0  0
   22.0294   -7.0592  -15.1844 C   0  0  0  0  0  0  0  0  0  0  0  0
   20.8953   -6.2025  -14.7701 C   0  0  0  0  0  0  0  0  0  0  0  0
   19.7082   -6.4646  -15.0979 O   0  0  0  0  0  0  0  0  0  0  0  0
   21.1966   -5.0723  -13.9878 O   0  0  0  0  0  0  0  0  0  0  0  0
  2  4  1  0
  2  1  1  6
  3  2  1  0
  4  5  1  6
  6  4  1  0
  6  7  2  0
  8  9  1  0
  9 10  1  0
 10 11  1  6
 10 12  1  0
 12 13  1  1
 12 14  1  0
 13  6  1  0
 14 15  2  0
 14 16  1  0
 16 17  1  0
 17 18  1  0
 18 20  1  0
 19 18  2  0
M  END
$$$$
