MHM.pdb
     RDKit          3D

 27 27  0  0  1  0  0  0  0  0999 V2000
    8.1203  -11.9594   26.2482 C   0  0  0  0  0  0  0  0  0  0  0  0
    6.4841  -12.7650   26.1858 S   0  0  0  0  0  0  0  0  0  0  0  0
    6.5958  -14.3670   25.3737 C   0  0  0  0  0  0  0  0  0  0  0  0
    7.0213  -14.2818   23.9472 C   0  0  0  0  0  0  0  0  0  0  0  0
    6.8474  -15.6104   23.2722 C   0  0  2  0  0  0  0  0  0  0  0  0
    5.6896  -16.3211   23.7133 N   0  0  0  0  0  0  0  0  0  0  0  0
    8.0996  -16.3704   23.4501 C   0  0  0  0  0  0  0  0  0  0  0  0
    8.1633  -17.2321   24.3713 O   0  0  0  0  0  0  0  0  0  0  0  0
    9.2080  -16.1552   22.6266 N   0  0  0  0  0  0  0  0  0  0  0  0
   10.3951  -16.9977   22.7709 C   0  0  1  0  0  0  0  0  0  0  0  0
   11.3361  -16.8175   21.6354 C   0  0  0  0  0  0  0  0  0  0  0  0
   10.8206  -17.4309   20.3989 C   0  0  0  0  0  0  0  0  0  0  0  0
   10.2269  -18.6783   20.2835 C   0  0  0  0  0  0  0  0  0  0  0  0
    9.9203  -18.9026   19.0105 N   0  0  0  0  0  0  0  0  0  0  0  0
   10.3142  -17.8159   18.3328 C   0  0  0  0  0  0  0  0  0  0  0  0
   10.8555  -16.9228   19.1434 N   0  0  0  0  0  0  0  0  0  0  0  0
   11.0531  -16.6017   24.0389 C   0  0  0  0  0  0  0  0  0  0  0  0
   11.6401  -15.4809   24.1465 O   0  0  0  0  0  0  0  0  0  0  0  0
    9.0068  -13.4892   28.5174 C   0  0  0  0  0  0  0  0  0  0  0  0
   10.4781  -14.2965   29.1298 S   0  0  0  0  0  0  0  0  0  0  0  0
   10.7782  -15.9210   28.5754 C   0  0  0  0  0  0  0  0  0  0  0  0
   10.6058  -16.4140   27.2174 C   0  0  0  0  0  0  0  0  0  0  0  0
   11.6084  -17.1085   26.4213 C   0  0  2  0  0  0  0  0  0  0  0  0
   11.0092  -17.5076   25.1263 N   0  0  0  0  0  0  0  0  0  0  0  0
   12.2952  -18.2775   26.9634 C   0  0  0  0  0  0  0  0  0  0  0  0
   12.1097  -19.4623   26.6814 O   0  0  0  0  0  0  0  0  0  0  0  0
   13.3037  -18.0351   27.9362 O   0  0  0  0  0  0  0  0  0  0  0  0
  2  1  1  0
  3  2  1  0
  4  3  1  0
  4  5  1  0
  5  6  1  1
  7  5  1  0
  7  8  2  0
  9  7  1  0
 10  9  1  0
 10 11  1  6
 11 12  1  0
 12 13  2  0
 13 14  1  0
 15 14  1  0
 16 12  1  0
 16 15  2  0
 17 10  1  0
 18 17  2  0
 20 19  1  0
 21 20  1  0
 21 22  1  0
 23 22  1  1
 23 25  1  0
 23 24  1  0
 24 17  1  0
 25 27  1  0
 26 25  2  0
M  END
$$$$
