MHM.pdb
     RDKit          3D

 27 27  0  0  1  0  0  0  0  0999 V2000
    3.4410  -22.2070   19.4181 C   0  0  0  0  0  0  0  0  0  0  0  0
    5.0212  -21.5396   18.7959 S   0  0  0  0  0  0  0  0  0  0  0  0
    6.0588  -20.9891   20.1594 C   0  0  0  0  0  0  0  0  0  0  0  0
    5.2997  -20.7272   21.4156 C   0  0  0  0  0  0  0  0  0  0  0  0
    6.2392  -20.3447   22.5211 C   0  0  2  0  0  0  0  0  0  0  0  0
    5.6025  -20.2493   23.7962 N   0  0  0  0  0  0  0  0  0  0  0  0
    6.9228  -19.1009   22.1175 C   0  0  0  0  0  0  0  0  0  0  0  0
    8.1288  -19.1614   21.7473 O   0  0  0  0  0  0  0  0  0  0  0  0
    6.2670  -17.8671   22.1388 N   0  0  0  0  0  0  0  0  0  0  0  0
    7.0292  -16.6353   21.9340 C   0  0  1  0  0  0  0  0  0  0  0  0
    6.2974  -15.6761   21.0670 C   0  0  0  0  0  0  0  0  0  0  0  0
    7.1854  -14.6164   20.5574 C   0  0  0  0  0  0  0  0  0  0  0  0
    8.5164  -14.4245   20.8940 C   0  0  0  0  0  0  0  0  0  0  0  0
    8.9787  -13.3512   20.2621 N   0  0  0  0  0  0  0  0  0  0  0  0
    7.9571  -12.8727   19.5391 C   0  0  0  0  0  0  0  0  0  0  0  0
    6.8745  -13.6139   19.7007 N   0  0  0  0  0  0  0  0  0  0  0  0
    7.2504  -16.0378   23.2725 C   0  0  0  0  0  0  0  0  0  0  0  0
    6.3346  -16.0513   24.1520 O   0  0  0  0  0  0  0  0  0  0  0  0
    5.7506  -10.6894   26.7039 C   0  0  0  0  0  0  0  0  0  0  0  0
    6.7604  -12.1497   26.9025 S   0  0  0  0  0  0  0  0  0  0  0  0
    6.9068  -13.2040   25.5228 C   0  0  0  0  0  0  0  0  0  0  0  0
    7.5057  -14.5298   25.5108 C   0  0  0  0  0  0  0  0  0  0  0  0
    8.7722  -14.8956   24.8913 C   0  0  2  0  0  0  0  0  0  0  0  0
    8.5106  -15.4516   23.5431 N   0  0  0  0  0  0  0  0  0  0  0  0
    9.6847  -15.8103   25.5714 C   0  0  0  0  0  0  0  0  0  0  0  0
    9.9600  -16.9713   25.2648 O   0  0  0  0  0  0  0  0  0  0  0  0
   10.3436  -15.3153   26.7303 O   0  0  0  0  0  0  0  0  0  0  0  0
  2  1  1  0
  3  2  1  0
  4  3  1  0
  4  5  1  0
  5  6  1  1
  7  5  1  0
  7  8  2  0
  9  7  1  0
 10  9  1  0
 10 11  1  6
 11 12  1  0
 12 13  2  0
 13 14  1  0
 15 14  1  0
 16 12  1  0
 16 15  2  0
 17 10  1  0
 18 17  2  0
 20 19  1  0
 21 20  1  0
 21 22  1  0
 23 22  1  1
 23 25  1  0
 23 24  1  0
 24 17  1  0
 25 27  1  0
 26 25  2  0
M  END
$$$$
