MHM.pdb
     RDKit          3D

 27 27  0  0  1  0  0  0  0  0999 V2000
    8.3402  -11.3974   20.2182 C   0  0  0  0  0  0  0  0  0  0  0  0
    7.9822  -12.1950   18.6164 S   0  0  0  0  0  0  0  0  0  0  0  0
    8.5586  -13.8997   18.6131 C   0  0  0  0  0  0  0  0  0  0  0  0
    8.5236  -14.5414   19.9585 C   0  0  0  0  0  0  0  0  0  0  0  0
    9.1564  -15.9007   19.9032 C   0  0  2  0  0  0  0  0  0  0  0  0
    8.6596  -16.7124   18.8380 N   0  0  0  0  0  0  0  0  0  0  0  0
    8.9977  -16.5230   21.2317 C   0  0  0  0  0  0  0  0  0  0  0  0
    7.8734  -16.4592   21.8036 O   0  0  0  0  0  0  0  0  0  0  0  0
   10.0597  -17.1744   21.8647 N   0  0  0  0  0  0  0  0  0  0  0  0
    9.8993  -17.6647   23.2336 C   0  0  1  0  0  0  0  0  0  0  0  0
   10.8093  -18.8042   23.5175 C   0  0  0  0  0  0  0  0  0  0  0  0
   10.3502  -20.0429   22.8648 C   0  0  0  0  0  0  0  0  0  0  0  0
    9.1890  -20.2025   22.1247 C   0  0  0  0  0  0  0  0  0  0  0  0
    9.0947  -21.4651   21.7223 N   0  0  0  0  0  0  0  0  0  0  0  0
   10.1776  -22.0928   22.2006 C   0  0  0  0  0  0  0  0  0  0  0  0
   10.9423  -21.2613   22.8871 N   0  0  0  0  0  0  0  0  0  0  0  0
   10.2130  -16.5317   24.1366 C   0  0  0  0  0  0  0  0  0  0  0  0
   11.2194  -15.7874   23.9235 O   0  0  0  0  0  0  0  0  0  0  0  0
    5.7550  -12.1481   26.7254 C   0  0  0  0  0  0  0  0  0  0  0  0
    7.4790  -11.6862   26.8036 S   0  0  0  0  0  0  0  0  0  0  0  0
    8.6389  -12.9790   26.9436 C   0  0  0  0  0  0  0  0  0  0  0  0
    8.7207  -14.1591   26.0965 C   0  0  0  0  0  0  0  0  0  0  0  0
    9.7015  -15.2302   26.2068 C   0  0  2  0  0  0  0  0  0  0  0  0
    9.3598  -16.3027   25.2433 N   0  0  0  0  0  0  0  0  0  0  0  0
    9.9518  -15.8659   27.4973 C   0  0  0  0  0  0  0  0  0  0  0  0
    9.6356  -17.0015   27.8552 O   0  0  0  0  0  0  0  0  0  0  0  0
   10.6441  -15.0929   28.4696 O   0  0  0  0  0  0  0  0  0  0  0  0
  2  1  1  0
  3  2  1  0
  4  3  1  0
  4  5  1  0
  5  6  1  6
  7  5  1  0
  7  8  2  0
  9  7  1  0
 10  9  1  0
 10 11  1  1
 11 12  1  0
 12 13  2  0
 13 14  1  0
 15 14  1  0
 16 12  1  0
 16 15  2  0
 17 10  1  0
 18 17  2  0
 20 19  1  0
 21 20  1  0
 21 22  1  0
 23 22  1  1
 23 25  1  0
 23 24  1  0
 24 17  1  0
 25 27  1  0
 26 25  2  0
M  END
$$$$
