MHM.pdb
     RDKit          3D

 27 27  0  0  1  0  0  0  0  0999 V2000
    8.0577  -11.6166   19.0627 C   0  0  0  0  0  0  0  0  0  0  0  0
    8.4221  -13.0080   20.1857 S   0  0  0  0  0  0  0  0  0  0  0  0
    6.9009  -13.8049   20.7236 C   0  0  0  0  0  0  0  0  0  0  0  0
    7.1068  -14.8088   21.8066 C   0  0  0  0  0  0  0  0  0  0  0  0
    7.9451  -15.9485   21.3071 C   0  0  2  0  0  0  0  0  0  0  0  0
    7.2175  -16.8722   20.4962 N   0  0  0  0  0  0  0  0  0  0  0  0
    8.5852  -16.5800   22.4771 C   0  0  0  0  0  0  0  0  0  0  0  0
    7.8570  -16.9742   23.4307 O   0  0  0  0  0  0  0  0  0  0  0  0
    9.9707  -16.7469   22.5502 N   0  0  0  0  0  0  0  0  0  0  0  0
   10.5751  -17.2803   23.7710 C   0  0  1  0  0  0  0  0  0  0  0  0
   11.9312  -17.8307   23.5157 C   0  0  0  0  0  0  0  0  0  0  0  0
   11.8706  -19.1146   22.7952 C   0  0  0  0  0  0  0  0  0  0  0  0
   10.8148  -20.0129   22.8000 C   0  0  0  0  0  0  0  0  0  0  0  0
   11.1351  -21.0707   22.0629 N   0  0  0  0  0  0  0  0  0  0  0  0
   12.3724  -20.8451   21.6008 C   0  0  0  0  0  0  0  0  0  0  0  0
   12.8318  -19.6810   22.0265 N   0  0  0  0  0  0  0  0  0  0  0  0
   10.6597  -16.1580   24.7358 C   0  0  0  0  0  0  0  0  0  0  0  0
   11.4234  -15.1672   24.5182 O   0  0  0  0  0  0  0  0  0  0  0  0
    6.3206  -12.0512   26.1747 C   0  0  0  0  0  0  0  0  0  0  0  0
    7.2491  -12.0725   27.7009 S   0  0  0  0  0  0  0  0  0  0  0  0
    8.5957  -13.1746   27.7923 C   0  0  0  0  0  0  0  0  0  0  0  0
    8.8846  -14.2611   26.8688 C   0  0  0  0  0  0  0  0  0  0  0  0
   10.0200  -15.1706   26.9396 C   0  0  2  0  0  0  0  0  0  0  0  0
    9.8658  -16.2214   25.9066 N   0  0  0  0  0  0  0  0  0  0  0  0
   10.3482  -15.8382   28.1961 C   0  0  0  0  0  0  0  0  0  0  0  0
   10.2366  -17.0344   28.4689 O   0  0  0  0  0  0  0  0  0  0  0  0
   10.8603  -15.0217   29.2417 O   0  0  0  0  0  0  0  0  0  0  0  0
  2  1  1  0
  3  2  1  0
  4  3  1  0
  4  5  1  0
  5  6  1  1
  7  5  1  0
  7  8  2  0
  9  7  1  0
 10  9  1  0
 10 11  1  6
 11 12  1  0
 12 13  2  0
 13 14  1  0
 15 14  1  0
 16 12  1  0
 16 15  2  0
 17 10  1  0
 18 17  2  0
 20 19  1  0
 21 20  1  0
 21 22  1  0
 23 22  1  1
 23 25  1  0
 23 24  1  0
 24 17  1  0
 25 27  1  0
 26 25  2  0
M  END
$$$$
