FII.pdb
     RDKit          3D

 28 28  0  0  1  0  0  0  0  0999 V2000
    5.1045  -18.1220   24.5923 N   0  0  0  0  0  0  0  0  0  0  0  0
    5.6979  -16.8356   24.8431 C   0  0  1  0  0  0  0  0  0  0  0  0
    5.8515  -16.5235   26.3137 C   0  0  0  0  0  0  0  0  0  0  0  0
    6.1731  -15.0920   26.5096 C   0  0  0  0  0  0  0  0  0  0  0  0
    7.4922  -14.7262   26.6380 C   0  0  0  0  0  0  0  0  0  0  0  0
    7.8720  -13.4208   26.8212 C   0  0  0  0  0  0  0  0  0  0  0  0
    6.9101  -12.4620   26.8769 C   0  0  0  0  0  0  0  0  0  0  0  0
    5.5795  -12.8051   26.7509 C   0  0  0  0  0  0  0  0  0  0  0  0
    5.2014  -14.1199   26.5666 C   0  0  0  0  0  0  0  0  0  0  0  0
    7.0274  -16.7666   24.1849 C   0  0  0  0  0  0  0  0  0  0  0  0
    7.8537  -17.7017   24.3129 O   0  0  0  0  0  0  0  0  0  0  0  0
    8.4358  -12.2410   20.7717 C   0  0  0  0  0  0  0  0  0  0  0  0
    8.5813  -13.1494   22.0017 C   0  0  0  0  0  0  0  0  0  0  0  0
    8.6523  -14.5865   21.6089 C   0  0  2  0  0  0  0  0  0  0  0  0
    7.5254  -14.8889   20.6407 C   0  0  0  0  0  0  0  0  0  0  0  0
    8.6969  -15.5864   22.7081 C   0  0  2  0  0  0  0  0  0  0  0  0
    7.4026  -15.6542   23.3989 N   0  0  0  0  0  0  0  0  0  0  0  0
    9.7034  -15.2813   23.7447 C   0  0  0  0  0  0  0  0  0  0  0  0
    9.9009  -14.0501   24.0494 O   0  0  0  0  0  0  0  0  0  0  0  0
    9.7222  -12.8331   27.3427 C   0  0  0  0  0  0  0  0  0  0  0  0
   10.4559  -13.5830   26.2350 C   0  0  0  0  0  0  0  0  0  0  0  0
   10.6249  -15.0286   26.5663 C   0  0  2  0  0  0  0  0  0  0  0  0
   11.2206  -15.2327   27.9443 C   0  0  0  0  0  0  0  0  0  0  0  0
   11.3847  -15.7389   25.4981 C   0  0  2  0  0  0  0  0  0  0  0  0
   10.4766  -16.2186   24.4475 N   0  0  0  0  0  0  0  0  0  0  0  0
   12.1725  -16.8873   25.9687 C   0  0  0  0  0  0  0  0  0  0  0  0
   11.8919  -18.2209   25.6876 O   0  0  0  0  0  0  0  0  0  0  0  0
   13.1914  -16.6765   26.6906 O   0  0  0  0  0  0  0  0  0  0  0  0
  2  3  1  0
  2  1  1  1
  4  9  2  0
  4  3  1  0
  5  4  1  0
  6  7  1  0
  6  5  2  0
  7  8  2  0
  8  9  1  0
 10  2  1  0
 10 11  2  0
 12 13  1  0
 14 13  1  0
 14 15  1  6
 14 16  1  0
 16 17  1  1
 17 10  1  0
 18 16  1  0
 19 18  2  0
 20 21  1  0
 21 22  1  0
 22 24  1  0
 22 23  1  1
 24 25  1  6
 24 26  1  0
 25 18  1  0
 26 28  2  0
 26 27  1  0
M  END
$$$$
