FII.pdb
     RDKit          3D

 28 28  0  0  1  0  0  0  0  0999 V2000
    5.2594  -18.2506   24.5620 N   0  0  0  0  0  0  0  0  0  0  0  0
    5.8018  -16.9311   24.7476 C   0  0  1  0  0  0  0  0  0  0  0  0
    6.0277  -16.5753   26.1988 C   0  0  0  0  0  0  0  0  0  0  0  0
    6.3873  -15.1456   26.3327 C   0  0  0  0  0  0  0  0  0  0  0  0
    5.3899  -14.2047   26.2308 C   0  0  0  0  0  0  0  0  0  0  0  0
    5.6415  -12.8609   26.3444 C   0  0  0  0  0  0  0  0  0  0  0  0
    6.9187  -12.4514   26.5646 C   0  0  0  0  0  0  0  0  0  0  0  0
    7.9364  -13.3774   26.6702 C   0  0  0  0  0  0  0  0  0  0  0  0
    7.6791  -14.7287   26.5553 C   0  0  0  0  0  0  0  0  0  0  0  0
    7.0843  -16.8141   24.0078 C   0  0  0  0  0  0  0  0  0  0  0  0
    7.8480  -17.8025   23.8918 O   0  0  0  0  0  0  0  0  0  0  0  0
    7.4340  -13.2723   19.7584 C   0  0  0  0  0  0  0  0  0  0  0  0
    7.5455  -14.5306   20.6322 C   0  0  0  0  0  0  0  0  0  0  0  0
    8.6336  -14.3940   21.6430 C   0  0  2  0  0  0  0  0  0  0  0  0
    9.9525  -14.1922   20.9230 C   0  0  0  0  0  0  0  0  0  0  0  0
    8.7416  -15.4647   22.6688 C   0  0  2  0  0  0  0  0  0  0  0  0
    7.4834  -15.5955   23.4149 N   0  0  0  0  0  0  0  0  0  0  0  0
    9.7945  -15.2166   23.6739 C   0  0  0  0  0  0  0  0  0  0  0  0
   10.1974  -14.0091   23.8397 O   0  0  0  0  0  0  0  0  0  0  0  0
   10.6385  -13.9481   28.8542 C   0  0  0  0  0  0  0  0  0  0  0  0
   11.4235  -14.3613   27.6128 C   0  0  0  0  0  0  0  0  0  0  0  0
   10.5258  -14.8888   26.5433 C   0  0  2  0  0  0  0  0  0  0  0  0
    9.3091  -15.5890   27.1130 C   0  0  0  0  0  0  0  0  0  0  0  0
   11.2815  -15.7380   25.5787 C   0  0  2  0  0  0  0  0  0  0  0  0
   10.4074  -16.1842   24.4853 N   0  0  0  0  0  0  0  0  0  0  0  0
   11.9034  -16.9309   26.1710 C   0  0  0  0  0  0  0  0  0  0  0  0
   11.4971  -18.2425   25.9453 O   0  0  0  0  0  0  0  0  0  0  0  0
   12.8876  -16.7836   26.9543 O   0  0  0  0  0  0  0  0  0  0  0  0
  2  3  1  0
  2  1  1  1
  4  9  2  0
  4  3  1  0
  5  4  1  0
  6  7  1  0
  6  5  2  0
  7  8  2  0
  8  9  1  0
 10  2  1  0
 10 11  2  0
 12 13  1  0
 14 13  1  0
 14 15  1  6
 14 16  1  0
 16 17  1  1
 17 10  1  0
 18 16  1  0
 19 18  2  0
 20 21  1  0
 21 22  1  0
 22 24  1  0
 22 23  1  1
 24 25  1  6
 24 26  1  0
 25 18  1  0
 26 28  2  0
 26 27  1  0
M  END
$$$$
