FII.pdb
     RDKit          3D

 28 28  0  0  1  0  0  0  0  0999 V2000
    5.3471  -18.2095   24.4677 N   0  0  0  0  0  0  0  0  0  0  0  0
    6.0526  -16.9748   24.6853 C   0  0  1  0  0  0  0  0  0  0  0  0
    5.8240  -16.3886   26.0592 C   0  0  0  0  0  0  0  0  0  0  0  0
    6.3290  -14.9986   26.1211 C   0  0  0  0  0  0  0  0  0  0  0  0
    5.5741  -13.9991   25.5539 C   0  0  0  0  0  0  0  0  0  0  0  0
    5.9723  -12.6865   25.5704 C   0  0  0  0  0  0  0  0  0  0  0  0
    7.1512  -12.3686   26.1675 C   0  0  0  0  0  0  0  0  0  0  0  0
    7.9261  -13.3546   26.7433 C   0  0  0  0  0  0  0  0  0  0  0  0
    7.5218  -14.6744   26.7246 C   0  0  0  0  0  0  0  0  0  0  0  0
    7.5073  -17.1926   24.4801 C   0  0  0  0  0  0  0  0  0  0  0  0
    8.0782  -18.1981   24.9665 O   0  0  0  0  0  0  0  0  0  0  0  0
   11.7085  -15.5475   20.2736 C   0  0  0  0  0  0  0  0  0  0  0  0
   11.4947  -16.1116   21.6861 C   0  0  0  0  0  0  0  0  0  0  0  0
   10.0839  -15.9299   22.1346 C   0  0  2  0  0  0  0  0  0  0  0  0
    9.7386  -14.4543   22.0892 C   0  0  0  0  0  0  0  0  0  0  0  0
    9.7080  -16.5279   23.4428 C   0  0  2  0  0  0  0  0  0  0  0  0
    8.2902  -16.2818   23.7361 N   0  0  0  0  0  0  0  0  0  0  0  0
   10.4677  -15.9793   24.5840 C   0  0  0  0  0  0  0  0  0  0  0  0
   10.9659  -14.8021   24.4666 O   0  0  0  0  0  0  0  0  0  0  0  0
    9.2923  -13.0904   27.9535 C   0  0  0  0  0  0  0  0  0  0  0  0
   10.1617  -13.9355   27.0273 C   0  0  0  0  0  0  0  0  0  0  0  0
   10.7177  -15.1292   27.7303 C   0  0  2  0  0  0  0  0  0  0  0  0
   11.4524  -14.7528   29.0007 C   0  0  0  0  0  0  0  0  0  0  0  0
   11.5461  -15.9576   26.8083 C   0  0  2  0  0  0  0  0  0  0  0  0
   10.7004  -16.6242   25.8088 N   0  0  0  0  0  0  0  0  0  0  0  0
   12.3537  -16.9904   27.4731 C   0  0  0  0  0  0  0  0  0  0  0  0
   13.5897  -16.7768   28.0755 O   0  0  0  0  0  0  0  0  0  0  0  0
   11.9159  -18.1780   27.5143 O   0  0  0  0  0  0  0  0  0  0  0  0
  2  3  1  0
  2  1  1  1
  4  9  2  0
  4  3  1  0
  5  4  1  0
  6  7  1  0
  6  5  2  0
  7  8  2  0
  8  9  1  0
 10  2  1  0
 10 11  2  0
 12 13  1  0
 14 13  1  0
 14 15  1  1
 14 16  1  0
 16 17  1  1
 17 10  1  0
 18 16  1  0
 19 18  2  0
 20 21  1  0
 21 22  1  0
 22 24  1  0
 22 23  1  1
 24 25  1  6
 24 26  1  0
 25 18  1  0
 26 28  2  0
 26 27  1  0
M  END
$$$$
