FII.pdb
     RDKit          3D

 28 28  0  0  1  0  0  0  0  0999 V2000
   10.1368  -16.3499   19.7178 N   0  0  0  0  0  0  0  0  0  0  0  0
    9.7075  -17.0018   20.9263 C   0  0  1  0  0  0  0  0  0  0  0  0
   10.5212  -18.2288   21.2664 C   0  0  0  0  0  0  0  0  0  0  0  0
    9.7970  -19.4578   20.8710 C   0  0  0  0  0  0  0  0  0  0  0  0
    8.5693  -19.3311   20.2651 C   0  0  0  0  0  0  0  0  0  0  0  0
    7.8365  -20.4208   19.8684 C   0  0  0  0  0  0  0  0  0  0  0  0
    8.3443  -21.6633   20.0832 C   0  0  0  0  0  0  0  0  0  0  0  0
    9.5744  -21.8153   20.6898 C   0  0  0  0  0  0  0  0  0  0  0  0
   10.3087  -20.7162   21.0875 C   0  0  0  0  0  0  0  0  0  0  0  0
    9.7717  -16.0410   22.0570 C   0  0  0  0  0  0  0  0  0  0  0  0
   10.6296  -15.1260   22.0707 O   0  0  0  0  0  0  0  0  0  0  0  0
    5.8754  -13.1665   25.6816 C   0  0  0  0  0  0  0  0  0  0  0  0
    7.3393  -13.6160   25.5615 C   0  0  0  0  0  0  0  0  0  0  0  0
    7.4943  -14.6903   24.5387 C   0  0  2  0  0  0  0  0  0  0  0  0
    6.6068  -15.8606   24.9147 C   0  0  0  0  0  0  0  0  0  0  0  0
    8.8782  -15.1426   24.2377 C   0  0  2  0  0  0  0  0  0  0  0  0
    8.8757  -16.1251   23.1460 N   0  0  0  0  0  0  0  0  0  0  0  0
    9.5486  -15.7954   25.3800 C   0  0  0  0  0  0  0  0  0  0  0  0
    9.8318  -17.0434   25.2800 O   0  0  0  0  0  0  0  0  0  0  0  0
   10.4896  -13.6973   30.6460 C   0  0  0  0  0  0  0  0  0  0  0  0
   10.0228  -14.5944   29.5036 C   0  0  0  0  0  0  0  0  0  0  0  0
   11.1679  -15.0683   28.6717 C   0  0  2  0  0  0  0  0  0  0  0  0
   12.0330  -13.9234   28.1858 C   0  0  0  0  0  0  0  0  0  0  0  0
   10.6983  -15.9477   27.5631 C   0  0  2  0  0  0  0  0  0  0  0  0
    9.9192  -15.1771   26.5845 N   0  0  0  0  0  0  0  0  0  0  0  0
    9.8761  -17.0877   27.9934 C   0  0  0  0  0  0  0  0  0  0  0  0
    8.4973  -17.1867   27.8343 O   0  0  0  0  0  0  0  0  0  0  0  0
   10.4399  -18.0709   28.5583 O   0  0  0  0  0  0  0  0  0  0  0  0
  2  3  1  0
  2  1  1  6
  4  9  2  0
  4  3  1  0
  5  4  1  0
  6  7  1  0
  6  5  2  0
  7  8  2  0
  8  9  1  0
 10  2  1  0
 10 11  2  0
 12 13  1  0
 14 13  1  0
 14 15  1  1
 14 16  1  0
 16 17  1  6
 17 10  1  0
 18 16  1  0
 19 18  2  0
 20 21  1  0
 21 22  1  0
 22 24  1  0
 22 23  1  6
 24 25  1  6
 24 26  1  0
 25 18  1  0
 26 28  2  0
 26 27  1  0
M  END
$$$$
