FII.pdb
     RDKit          3D

 28 28  0  0  1  0  0  0  0  0999 V2000
    5.6540  -18.5360   20.1750 N   0  0  0  0  0  0  0  0  0  0  0  0
    6.2979  -17.3622   20.7016 C   0  0  1  0  0  0  0  0  0  0  0  0
    5.7845  -16.0757   20.0977 C   0  0  0  0  0  0  0  0  0  0  0  0
    6.7685  -14.9857   20.2843 C   0  0  0  0  0  0  0  0  0  0  0  0
    6.5104  -13.7621   19.7128 C   0  0  0  0  0  0  0  0  0  0  0  0
    7.3715  -12.7020   19.8405 C   0  0  0  0  0  0  0  0  0  0  0  0
    8.5150  -12.8712   20.5556 C   0  0  0  0  0  0  0  0  0  0  0  0
    8.7957  -14.0903   21.1382 C   0  0  0  0  0  0  0  0  0  0  0  0
    7.9265  -15.1547   21.0073 C   0  0  0  0  0  0  0  0  0  0  0  0
    6.1196  -17.3185   22.1754 C   0  0  0  0  0  0  0  0  0  0  0  0
    4.9721  -17.3411   22.6816 O   0  0  0  0  0  0  0  0  0  0  0  0
    6.9839  -21.2984   24.8181 C   0  0  0  0  0  0  0  0  0  0  0  0
    6.5119  -19.9070   24.3704 C   0  0  0  0  0  0  0  0  0  0  0  0
    7.4177  -18.8373   24.8800 C   0  0  2  0  0  0  0  0  0  0  0  0
    7.5492  -18.9780   26.3838 C   0  0  0  0  0  0  0  0  0  0  0  0
    7.0919  -17.4375   24.4994 C   0  0  2  0  0  0  0  0  0  0  0  0
    7.2277  -17.2505   23.0491 N   0  0  0  0  0  0  0  0  0  0  0  0
    7.9717  -16.4332   25.1301 C   0  0  0  0  0  0  0  0  0  0  0  0
    9.1695  -16.3158   24.6838 O   0  0  0  0  0  0  0  0  0  0  0  0
    5.9319  -11.9104   27.0226 C   0  0  0  0  0  0  0  0  0  0  0  0
    6.9325  -12.8083   26.3014 C   0  0  0  0  0  0  0  0  0  0  0  0
    7.9202  -13.4047   27.2483 C   0  0  2  0  0  0  0  0  0  0  0  0
    8.8917  -12.3733   27.7848 C   0  0  0  0  0  0  0  0  0  0  0  0
    8.6051  -14.5808   26.6395 C   0  0  2  0  0  0  0  0  0  0  0  0
    7.6231  -15.5742   26.1841 N   0  0  0  0  0  0  0  0  0  0  0  0
    9.5544  -15.2640   27.5298 C   0  0  0  0  0  0  0  0  0  0  0  0
   10.9106  -14.9701   27.6325 O   0  0  0  0  0  0  0  0  0  0  0  0
    9.1334  -16.1997   28.2721 O   0  0  0  0  0  0  0  0  0  0  0  0
  2  3  1  0
  2  1  1  6
  4  9  2  0
  4  3  1  0
  5  4  1  0
  6  7  1  0
  6  5  2  0
  7  8  2  0
  8  9  1  0
 10  2  1  0
 10 11  2  0
 12 13  1  0
 14 13  1  0
 14 15  1  1
 14 16  1  0
 16 17  1  6
 17 10  1  0
 18 16  1  0
 19 18  2  0
 20 21  1  0
 21 22  1  0
 22 24  1  0
 22 23  1  6
 24 25  1  1
 24 26  1  0
 25 18  1  0
 26 28  2  0
 26 27  1  0
M  END
$$$$
