FII.pdb
     RDKit          3D

 28 28  0  0  1  0  0  0  0  0999 V2000
    4.8829  -17.6564   24.8940 N   0  0  0  0  0  0  0  0  0  0  0  0
    5.5689  -16.3930   24.9488 C   0  0  1  0  0  0  0  0  0  0  0  0
    5.9765  -15.9931   26.3478 C   0  0  0  0  0  0  0  0  0  0  0  0
    6.1516  -14.5260   26.4381 C   0  0  0  0  0  0  0  0  0  0  0  0
    5.2998  -13.8109   27.2465 C   0  0  0  0  0  0  0  0  0  0  0  0
    5.3974  -12.4496   27.3845 C   0  0  0  0  0  0  0  0  0  0  0  0
    6.3685  -11.7910   26.6984 C   0  0  0  0  0  0  0  0  0  0  0  0
    7.2350  -12.4874   25.8808 C   0  0  0  0  0  0  0  0  0  0  0  0
    7.1335  -13.8574   25.7446 C   0  0  0  0  0  0  0  0  0  0  0  0
    6.7739  -16.4455   24.0822 C   0  0  0  0  0  0  0  0  0  0  0  0
    7.4706  -17.4867   24.0183 O   0  0  0  0  0  0  0  0  0  0  0  0
    8.9464  -13.3628   19.1606 C   0  0  0  0  0  0  0  0  0  0  0  0
    9.2655  -14.3694   20.2760 C   0  0  0  0  0  0  0  0  0  0  0  0
    8.1716  -14.4216   21.2884 C   0  0  2  0  0  0  0  0  0  0  0  0
    7.9080  -13.0195   21.8017 C   0  0  0  0  0  0  0  0  0  0  0  0
    8.3354  -15.3813   22.4119 C   0  0  2  0  0  0  0  0  0  0  0  0
    7.1722  -15.3335   23.3072 N   0  0  0  0  0  0  0  0  0  0  0  0
    9.5172  -15.1094   23.2545 C   0  0  0  0  0  0  0  0  0  0  0  0
    9.9681  -13.9081   23.2910 O   0  0  0  0  0  0  0  0  0  0  0  0
    9.6434  -14.0766   27.8581 C   0  0  0  0  0  0  0  0  0  0  0  0
    9.9917  -14.3219   26.3930 C   0  0  0  0  0  0  0  0  0  0  0  0
   11.0134  -15.3996   26.2424 C   0  0  2  0  0  0  0  0  0  0  0  0
   12.2225  -15.1677   27.1253 C   0  0  0  0  0  0  0  0  0  0  0  0
   11.3748  -15.6002   24.8099 C   0  0  2  0  0  0  0  0  0  0  0  0
   10.2072  -16.0474   24.0383 N   0  0  0  0  0  0  0  0  0  0  0  0
   12.4594  -16.5660   24.5824 C   0  0  0  0  0  0  0  0  0  0  0  0
   13.8135  -16.2513   24.5239 O   0  0  0  0  0  0  0  0  0  0  0  0
   12.1678  -17.7878   24.4214 O   0  0  0  0  0  0  0  0  0  0  0  0
  2  3  1  0
  2  1  1  1
  4  9  2  0
  4  3  1  0
  5  4  1  0
  6  7  1  0
  6  5  2  0
  7  8  2  0
  8  9  1  0
 10  2  1  0
 10 11  2  0
 12 13  1  0
 14 13  1  0
 14 15  1  1
 14 16  1  0
 16 17  1  1
 17 10  1  0
 18 16  1  0
 19 18  2  0
 20 21  1  0
 21 22  1  0
 22 24  1  0
 22 23  1  1
 24 25  1  6
 24 26  1  0
 25 18  1  0
 26 28  2  0
 26 27  1  0
M  END
$$$$
