FII.pdb
     RDKit          3D

 28 28  0  0  1  0  0  0  0  0999 V2000
    6.7792  -18.1638   19.0663 N   0  0  0  0  0  0  0  0  0  0  0  0
    7.2606  -16.9298   19.6277 C   0  0  1  0  0  0  0  0  0  0  0  0
    6.3914  -15.7401   19.2924 C   0  0  0  0  0  0  0  0  0  0  0  0
    6.9699  -14.4994   19.8556 C   0  0  0  0  0  0  0  0  0  0  0  0
    6.5342  -14.0711   21.0873 C   0  0  0  0  0  0  0  0  0  0  0  0
    7.0216  -12.9326   21.6772 C   0  0  0  0  0  0  0  0  0  0  0  0
    7.9652  -12.2082   21.0195 C   0  0  0  0  0  0  0  0  0  0  0  0
    8.4177  -12.6182   19.7820 C   0  0  0  0  0  0  0  0  0  0  0  0
    7.9246  -13.7645   19.1917 C   0  0  0  0  0  0  0  0  0  0  0  0
    7.3625  -17.0634   21.1033 C   0  0  0  0  0  0  0  0  0  0  0  0
    6.3658  -17.4029   21.7850 O   0  0  0  0  0  0  0  0  0  0  0  0
   10.8037  -20.4850   22.8506 C   0  0  0  0  0  0  0  0  0  0  0  0
    9.6009  -19.5460   22.6752 C   0  0  0  0  0  0  0  0  0  0  0  0
    9.8557  -18.2161   23.3005 C   0  0  2  0  0  0  0  0  0  0  0  0
   10.2619  -18.4213   24.7467 C   0  0  0  0  0  0  0  0  0  0  0  0
    8.7786  -17.1978   23.1860 C   0  0  2  0  0  0  0  0  0  0  0  0
    8.5759  -16.8144   21.7828 N   0  0  0  0  0  0  0  0  0  0  0  0
    9.0658  -15.9483   23.9187 C   0  0  0  0  0  0  0  0  0  0  0  0
   10.0993  -15.2702   23.5725 O   0  0  0  0  0  0  0  0  0  0  0  0
    5.8530  -12.2503   26.8095 C   0  0  0  0  0  0  0  0  0  0  0  0
    6.6424  -13.4950   26.4155 C   0  0  0  0  0  0  0  0  0  0  0  0
    7.9399  -13.1425   25.7671 C   0  0  2  0  0  0  0  0  0  0  0  0
    7.7451  -12.5366   24.3923 C   0  0  0  0  0  0  0  0  0  0  0  0
    8.8694  -14.3081   25.7577 C   0  0  2  0  0  0  0  0  0  0  0  0
    8.3063  -15.4141   24.9713 N   0  0  0  0  0  0  0  0  0  0  0  0
    9.2077  -14.8312   27.0891 C   0  0  0  0  0  0  0  0  0  0  0  0
   10.0270  -14.1942   28.0160 O   0  0  0  0  0  0  0  0  0  0  0  0
    8.7319  -15.9489   27.4472 O   0  0  0  0  0  0  0  0  0  0  0  0
  2  3  1  0
  2  1  1  1
  4  9  2  0
  4  3  1  0
  5  4  1  0
  6  7  1  0
  6  5  2  0
  7  8  2  0
  8  9  1  0
 10  2  1  0
 10 11  2  0
 12 13  1  0
 14 13  1  0
 14 15  1  1
 14 16  1  0
 16 17  1  6
 17 10  1  0
 18 16  1  0
 19 18  2  0
 20 21  1  0
 21 22  1  0
 22 24  1  0
 22 23  1  6
 24 25  1  6
 24 26  1  0
 25 18  1  0
 26 28  2  0
 26 27  1  0
M  END
$$$$
