FII.pdb
     RDKit          3D

 28 28  0  0  1  0  0  0  0  0999 V2000
    5.2695  -15.6999   25.6613 N   0  0  0  0  0  0  0  0  0  0  0  0
    6.2628  -14.8213   25.1034 C   0  0  1  0  0  0  0  0  0  0  0  0
    7.0721  -14.0913   26.1500 C   0  0  0  0  0  0  0  0  0  0  0  0
    6.3922  -12.8393   26.5519 C   0  0  0  0  0  0  0  0  0  0  0  0
    6.0788  -11.9200   25.5787 C   0  0  0  0  0  0  0  0  0  0  0  0
    5.4482  -10.7370   25.8699 C   0  0  0  0  0  0  0  0  0  0  0  0
    5.1250  -10.4695   27.1628 C   0  0  0  0  0  0  0  0  0  0  0  0
    5.4298  -11.3769   28.1567 C   0  0  0  0  0  0  0  0  0  0  0  0
    6.0644  -12.5663   27.8596 C   0  0  0  0  0  0  0  0  0  0  0  0
    7.1775  -15.5993   24.2295 C   0  0  0  0  0  0  0  0  0  0  0  0
    7.4831  -16.7819   24.5154 O   0  0  0  0  0  0  0  0  0  0  0  0
    7.9363  -13.3736   19.4699 C   0  0  0  0  0  0  0  0  0  0  0  0
    7.8077  -14.7254   20.1878 C   0  0  0  0  0  0  0  0  0  0  0  0
    9.0226  -15.0262   20.9989 C   0  0  2  0  0  0  0  0  0  0  0  0
   10.0064  -15.8010   20.1441 C   0  0  0  0  0  0  0  0  0  0  0  0
    8.8116  -15.6933   22.3107 C   0  0  2  0  0  0  0  0  0  0  0  0
    7.7295  -15.0378   23.0566 N   0  0  0  0  0  0  0  0  0  0  0  0
    9.9983  -15.6600   23.1888 C   0  0  0  0  0  0  0  0  0  0  0  0
   10.6604  -14.5630   23.2664 O   0  0  0  0  0  0  0  0  0  0  0  0
   10.0470  -15.1352   27.9590 C   0  0  0  0  0  0  0  0  0  0  0  0
   10.4750  -15.2125   26.4966 C   0  0  0  0  0  0  0  0  0  0  0  0
   11.3174  -16.4159   26.2317 C   0  0  2  0  0  0  0  0  0  0  0  0
   12.5244  -16.4804   27.1451 C   0  0  0  0  0  0  0  0  0  0  0  0
   11.6800  -16.5103   24.7886 C   0  0  2  0  0  0  0  0  0  0  0  0
   10.4818  -16.7243   23.9658 N   0  0  0  0  0  0  0  0  0  0  0  0
   12.6405  -17.5759   24.4680 C   0  0  0  0  0  0  0  0  0  0  0  0
   14.0239  -17.4278   24.4458 O   0  0  0  0  0  0  0  0  0  0  0  0
   12.2029  -18.7297   24.1833 O   0  0  0  0  0  0  0  0  0  0  0  0
  2  3  1  0
  2  1  1  1
  4  9  2  0
  4  3  1  0
  5  4  1  0
  6  7  1  0
  6  5  2  0
  7  8  2  0
  8  9  1  0
 10  2  1  0
 10 11  2  0
 12 13  1  0
 14 13  1  0
 14 15  1  6
 14 16  1  0
 16 17  1  1
 17 10  1  0
 18 16  1  0
 19 18  2  0
 20 21  1  0
 21 22  1  0
 22 24  1  0
 22 23  1  1
 24 25  1  6
 24 26  1  0
 25 18  1  0
 26 28  2  0
 26 27  1  0
M  END
$$$$
