FII.pdb
     RDKit          3D

 28 28  0  0  1  0  0  0  0  0999 V2000
    5.3076  -18.4189   24.1200 N   0  0  0  0  0  0  0  0  0  0  0  0
    5.7687  -17.0956   24.4456 C   0  0  1  0  0  0  0  0  0  0  0  0
    5.8254  -16.8302   25.9321 C   0  0  0  0  0  0  0  0  0  0  0  0
    6.1039  -15.4001   26.1938 C   0  0  0  0  0  0  0  0  0  0  0  0
    7.3540  -15.0453   26.6430 C   0  0  0  0  0  0  0  0  0  0  0  0
    7.6906  -13.7420   26.9074 C   0  0  0  0  0  0  0  0  0  0  0  0
    6.7553  -12.7741   26.7178 C   0  0  0  0  0  0  0  0  0  0  0  0
    5.4937  -13.1060   26.2678 C   0  0  0  0  0  0  0  0  0  0  0  0
    5.1589  -14.4188   26.0029 C   0  0  0  0  0  0  0  0  0  0  0  0
    7.1151  -16.8812   23.8566 C   0  0  0  0  0  0  0  0  0  0  0  0
    7.9440  -17.8209   23.7971 O   0  0  0  0  0  0  0  0  0  0  0  0
    7.5730  -12.5527   20.3220 C   0  0  0  0  0  0  0  0  0  0  0  0
    7.6450  -13.9964   20.8416 C   0  0  0  0  0  0  0  0  0  0  0  0
    8.7332  -14.1563   21.8489 C   0  0  2  0  0  0  0  0  0  0  0  0
   10.0674  -13.8911   21.1794 C   0  0  0  0  0  0  0  0  0  0  0  0
    8.7626  -15.4295   22.6160 C   0  0  2  0  0  0  0  0  0  0  0  0
    7.5039  -15.6219   23.3479 N   0  0  0  0  0  0  0  0  0  0  0  0
    9.8401  -15.4880   23.6239 C   0  0  0  0  0  0  0  0  0  0  0  0
   11.0538  -15.5253   23.2075 O   0  0  0  0  0  0  0  0  0  0  0  0
    9.8601  -12.6524   28.1860 C   0  0  0  0  0  0  0  0  0  0  0  0
   10.2735  -13.3673   26.9031 C   0  0  0  0  0  0  0  0  0  0  0  0
   10.6040  -14.8012   27.1531 C   0  0  2  0  0  0  0  0  0  0  0  0
   11.7294  -14.9617   28.1547 C   0  0  0  0  0  0  0  0  0  0  0  0
   10.8619  -15.5235   25.8746 C   0  0  2  0  0  0  0  0  0  0  0  0
    9.6691  -15.5018   25.0171 N   0  0  0  0  0  0  0  0  0  0  0  0
   11.2725  -16.9256   26.0365 C   0  0  0  0  0  0  0  0  0  0  0  0
   10.4304  -17.9698   26.4064 O   0  0  0  0  0  0  0  0  0  0  0  0
   12.4829  -17.2370   25.8318 O   0  0  0  0  0  0  0  0  0  0  0  0
  2  3  1  0
  2  1  1  1
  4  9  2  0
  4  3  1  0
  5  4  1  0
  6  7  1  0
  6  5  2  0
  7  8  2  0
  8  9  1  0
 10  2  1  0
 10 11  2  0
 12 13  1  0
 14 13  1  0
 14 15  1  6
 14 16  1  0
 16 17  1  1
 17 10  1  0
 18 16  1  0
 19 18  2  0
 20 21  1  0
 21 22  1  0
 22 24  1  0
 22 23  1  1
 24 25  1  6
 24 26  1  0
 25 18  1  0
 26 28  2  0
 26 27  1  0
M  END
$$$$
