RLK.pdb
     RDKit          3D

 29 28  0  0  1  0  0  0  0  0999 V2000
   15.5980  -14.1680  -15.7189 N   0  0  0  0  0  0  0  0  0  0  0  0
   15.9858  -15.4097  -16.2445 C   0  0  0  0  0  0  0  0  0  0  0  0
   15.1299  -16.4000  -16.2711 N   0  0  0  0  0  0  0  0  0  0  0  0
   17.3010  -15.5882  -16.7438 N   0  0  0  0  0  0  0  0  0  0  0  0
   18.2839  -14.5247  -16.7516 C   0  0  0  0  0  0  0  0  0  0  0  0
   18.4661  -13.9395  -18.1105 C   0  0  0  0  0  0  0  0  0  0  0  0
   19.4387  -12.8347  -18.2385 C   0  0  0  0  0  0  0  0  0  0  0  0
   20.8905  -13.1962  -18.1459 C   0  0  2  0  0  0  0  0  0  0  0  0
   21.1780  -14.5846  -18.2341 N   0  0  0  0  0  0  0  0  0  0  0  0
   21.5798  -12.4765  -17.0449 C   0  0  0  0  0  0  0  0  0  0  0  0
   21.7044  -13.0239  -15.8958 O   0  0  0  0  0  0  0  0  0  0  0  0
   15.4185  -17.3226  -16.6582 C   0  0  0  0  0  0  0  0  0  0  0  0
   26.6332   -9.8427  -16.1536 C   0  0  1  0  0  0  0  0  0  0  0  0
   25.2552   -9.9293  -15.5054 C   0  0  0  0  0  0  0  0  0  0  0  0
   25.3913  -10.4060  -14.1189 C   0  0  0  0  0  0  0  0  0  0  0  0
   24.2350  -10.5138  -16.3817 C   0  0  2  0  0  0  0  0  0  0  0  0
   22.8160  -10.5482  -15.9967 N   0  0  0  0  0  0  0  0  0  0  0  0
   22.1342  -11.1829  -17.1594 C   0  0  0  0  0  0  0  0  0  0  0  0
   22.1466   -9.2615  -15.8232 O   0  0  0  0  0  0  0  0  0  0  0  0
   22.1962   -8.7069  -14.6659 N   0  0  0  0  0  0  0  0  0  0  0  0
   21.4377   -8.5211  -16.7987 C   0  0  2  0  0  0  0  0  0  0  0  0
   20.8216   -7.1917  -16.4356 C   0  0  0  0  0  0  0  0  0  0  0  0
   19.6018   -7.6156  -15.6931 C   0  0  0  0  0  0  0  0  0  0  0  0
   18.7181   -8.6877  -16.0909 C   0  0  0  0  0  0  0  0  0  0  0  0
   17.4946   -8.9703  -15.3167 C   0  0  0  0  0  0  0  0  0  0  0  0
   16.7695  -10.1765  -15.9805 N   0  0  0  0  0  0  0  0  0  0  0  0
   16.6604  -11.2494  -15.0397 C   0  0  0  0  0  0  0  0  0  0  0  0
   21.8142   -6.4057  -15.7239 O   0  0  0  0  0  0  0  0  0  0  0  0
   22.9835   -6.7687  -15.4581 O   0  0  0  0  0  0  0  0  0  0  0  0
  2  3  2  0
  2  1  1  0
  4  2  1  0
  5  4  1  0
  6  5  1  0
  7  6  1  0
  8  7  1  0
  8  9  1  1
 10 17  1  0
 10  8  1  0
 11 10  2  0
 13 12  1  1
 14 13  1  0
 15 13  1  0
 16 15  1  1
 16 17  1  0
 18 19  2  0
 18 16  1  0
 20 18  1  0
 21 20  1  0
 21 27  1  0
 21 22  1  6
 23 22  1  0
 24 23  1  0
 25 26  1  0
 25 24  1  0
 27 29  1  0
 28 27  2  0
M  END
$$$$
