RLK.pdb
     RDKit          3D

 29 28  0  0  1  0  0  0  0  0999 V2000
   27.4225  -28.2873  -19.8705 N   0  0  0  0  0  0  0  0  0  0  0  0
   26.7264  -27.8594  -21.0111 C   0  0  0  0  0  0  0  0  0  0  0  0
   26.0631  -28.7284  -21.7316 N   0  0  0  0  0  0  0  0  0  0  0  0
   26.7435  -26.4902  -21.3794 N   0  0  0  0  0  0  0  0  0  0  0  0
   27.2815  -25.4571  -20.5190 C   0  0  0  0  0  0  0  0  0  0  0  0
   26.6759  -25.4900  -19.1571 C   0  0  0  0  0  0  0  0  0  0  0  0
   26.3289  -24.1897  -18.5475 C   0  0  0  0  0  0  0  0  0  0  0  0
   27.3166  -23.6099  -17.5803 C   0  0  2  0  0  0  0  0  0  0  0  0
   28.2821  -24.5225  -17.0771 N   0  0  0  0  0  0  0  0  0  0  0  0
   26.6650  -22.7517  -16.5584 C   0  0  0  0  0  0  0  0  0  0  0  0
   26.2400  -23.2611  -15.4650 O   0  0  0  0  0  0  0  0  0  0  0  0
   25.4888  -28.4016  -22.5363 C   0  0  0  0  0  0  0  0  0  0  0  0
   26.8493  -16.7719  -15.3657 C   0  0  1  0  0  0  0  0  0  0  0  0
   26.2704  -18.0938  -14.8716 C   0  0  0  0  0  0  0  0  0  0  0  0
   26.4569  -18.2001  -13.4149 C   0  0  0  0  0  0  0  0  0  0  0  0
   26.5992  -19.2326  -15.7349 C   0  0  2  0  0  0  0  0  0  0  0  0
   25.9801  -20.5523  -15.5392 N   0  0  0  0  0  0  0  0  0  0  0  0
   26.4635  -21.3607  -16.6935 C   0  0  0  0  0  0  0  0  0  0  0  0
   24.5229  -20.6171  -15.6170 O   0  0  0  0  0  0  0  0  0  0  0  0
   23.9722  -20.4527  -16.7655 N   0  0  0  0  0  0  0  0  0  0  0  0
   23.6138  -20.8549  -14.5591 C   0  0  1  0  0  0  0  0  0  0  0  0
   22.1275  -20.7685  -14.8084 C   0  0  0  0  0  0  0  0  0  0  0  0
   21.6554  -22.0803  -14.2838 C   0  0  0  0  0  0  0  0  0  0  0  0
   20.2724  -22.4898  -14.1944 C   0  0  0  0  0  0  0  0  0  0  0  0
   19.9266  -23.8522  -13.7469 C   0  0  0  0  0  0  0  0  0  0  0  0
   18.3939  -24.0480  -13.9318 N   0  0  0  0  0  0  0  0  0  0  0  0
   18.0483  -25.4122  -13.6715 C   0  0  0  0  0  0  0  0  0  0  0  0
   21.6262  -19.5609  -14.1758 O   0  0  0  0  0  0  0  0  0  0  0  0
   20.5279  -19.0087  -14.4175 O   0  0  0  0  0  0  0  0  0  0  0  0
  2  3  2  0
  2  1  1  0
  4  2  1  0
  5  4  1  0
  6  5  1  0
  7  6  1  0
  8  7  1  0
  8  9  1  1
 10 17  1  0
 10  8  1  0
 11 10  2  0
 13 12  1  1
 14 13  1  0
 15 13  1  0
 16 15  1  1
 16 17  1  0
 18 19  2  0
 18 16  1  0
 20 18  1  0
 21 20  1  0
 21 27  1  0
 21 22  1  1
 23 22  1  0
 24 23  1  0
 25 26  1  0
 25 24  1  0
 27 29  1  0
 28 27  2  0
M  END
$$$$
