RLK.pdb
     RDKit          3D

 29 28  0  0  1  0  0  0  0  0999 V2000
   31.1471  -24.9580  -15.0310 N   0  0  0  0  0  0  0  0  0  0  0  0
   30.9576  -25.3838  -16.3544 C   0  0  0  0  0  0  0  0  0  0  0  0
   31.0400  -26.6577  -16.6452 N   0  0  0  0  0  0  0  0  0  0  0  0
   30.6785  -24.4352  -17.3708 N   0  0  0  0  0  0  0  0  0  0  0  0
   30.6254  -23.0107  -17.1157 C   0  0  0  0  0  0  0  0  0  0  0  0
   29.3671  -22.6116  -16.4230 C   0  0  0  0  0  0  0  0  0  0  0  0
   28.0990  -22.8782  -17.1327 C   0  0  0  0  0  0  0  0  0  0  0  0
   27.0019  -21.8713  -16.9609 C   0  0  2  0  0  0  0  0  0  0  0  0
   27.3825  -20.5174  -17.1612 N   0  0  0  0  0  0  0  0  0  0  0  0
   26.1906  -22.1264  -15.7435 C   0  0  0  0  0  0  0  0  0  0  0  0
   25.7689  -23.3059  -15.4854 O   0  0  0  0  0  0  0  0  0  0  0  0
   31.0200  -26.9630  -17.6405 C   0  0  0  0  0  0  0  0  0  0  0  0
   25.5316  -19.4290  -10.3287 C   0  0  1  0  0  0  0  0  0  0  0  0
   25.1903  -20.6752  -11.1394 C   0  0  0  0  0  0  0  0  0  0  0  0
   25.4909  -21.8780  -10.3450 C   0  0  0  0  0  0  0  0  0  0  0  0
   25.6236  -20.5968  -12.5382 C   0  0  2  0  0  0  0  0  0  0  0  0
   25.0926  -21.5097  -13.5618 N   0  0  0  0  0  0  0  0  0  0  0  0
   25.8267  -21.1374  -14.8037 C   0  0  0  0  0  0  0  0  0  0  0  0
   23.6792  -21.3704  -13.9030 O   0  0  0  0  0  0  0  0  0  0  0  0
   23.3220  -20.3435  -14.5867 N   0  0  0  0  0  0  0  0  0  0  0  0
   22.6231  -22.2533  -13.5753 C   0  0  1  0  0  0  0  0  0  0  0  0
   21.2035  -21.9029  -13.9502 C   0  0  0  0  0  0  0  0  0  0  0  0
   20.5160  -23.2151  -13.7940 C   0  0  0  0  0  0  0  0  0  0  0  0
   19.0878  -23.4195  -13.8774 C   0  0  0  0  0  0  0  0  0  0  0  0
   18.5243  -24.7803  -13.7960 C   0  0  0  0  0  0  0  0  0  0  0  0
   16.9730  -24.6651  -13.8368 N   0  0  0  0  0  0  0  0  0  0  0  0
   16.3885  -25.9461  -13.5809 C   0  0  0  0  0  0  0  0  0  0  0  0
   20.7669  -20.8004  -13.1115 O   0  0  0  0  0  0  0  0  0  0  0  0
   19.8889  -19.9571  -13.4078 O   0  0  0  0  0  0  0  0  0  0  0  0
  2  3  2  0
  2  1  1  0
  4  2  1  0
  5  4  1  0
  6  5  1  0
  7  6  1  0
  8  7  1  0
  8  9  1  1
 10 17  1  0
 10  8  1  0
 11 10  2  0
 13 12  1  1
 14 13  1  0
 15 13  1  0
 16 15  1  1
 16 17  1  0
 18 19  2  0
 18 16  1  0
 20 18  1  0
 21 20  1  0
 21 27  1  0
 21 22  1  1
 23 22  1  0
 24 23  1  0
 25 26  1  0
 25 24  1  0
 27 29  1  0
 28 27  2  0
M  END
$$$$
