RLK.pdb
     RDKit          3D

 29 28  0  0  1  0  0  0  0  0999 V2000
   28.6797  -20.3244  -15.9327 N   0  0  0  0  0  0  0  0  0  0  0  0
   28.1644  -19.4126  -16.8662 C   0  0  0  0  0  0  0  0  0  0  0  0
   28.6568  -19.3757  -18.0787 N   0  0  0  0  0  0  0  0  0  0  0  0
   27.1143  -18.5351  -16.4943 N   0  0  0  0  0  0  0  0  0  0  0  0
   26.5011  -18.5636  -15.1828 C   0  0  0  0  0  0  0  0  0  0  0  0
   25.7731  -19.8401  -14.9317 C   0  0  0  0  0  0  0  0  0  0  0  0
   24.5510  -20.0810  -15.7261 C   0  0  0  0  0  0  0  0  0  0  0  0
   23.3261  -20.5048  -14.9731 C   0  0  2  0  0  0  0  0  0  0  0  0
   23.0350  -21.8946  -15.0187 N   0  0  0  0  0  0  0  0  0  0  0  0
   22.1704  -19.6081  -15.2294 C   0  0  0  0  0  0  0  0  0  0  0  0
   22.1778  -18.4062  -14.7923 O   0  0  0  0  0  0  0  0  0  0  0  0
   28.3711  -18.6151  -18.7299 C   0  0  0  0  0  0  0  0  0  0  0  0
   20.6374  -16.7285  -17.8503 C   0  0  2  0  0  0  0  0  0  0  0  0
   20.4021  -18.1407  -18.3767 C   0  0  0  0  0  0  0  0  0  0  0  0
   20.0965  -18.0860  -19.8160 C   0  0  0  0  0  0  0  0  0  0  0  0
   19.5784  -18.9646  -17.4861 C   0  0  2  0  0  0  0  0  0  0  0  0
   19.8526  -19.0514  -16.0437 N   0  0  0  0  0  0  0  0  0  0  0  0
   21.0118  -19.9820  -15.9446 C   0  0  0  0  0  0  0  0  0  0  0  0
   18.8151  -19.6508  -15.2083 O   0  0  0  0  0  0  0  0  0  0  0  0
   17.6384  -19.1374  -15.2465 N   0  0  0  0  0  0  0  0  0  0  0  0
   18.9418  -20.7639  -14.3439 C   0  0  2  0  0  0  0  0  0  0  0  0
   17.7619  -21.2147  -13.5173 C   0  0  0  0  0  0  0  0  0  0  0  0
   18.3081  -22.4265  -12.8450 C   0  0  0  0  0  0  0  0  0  0  0  0
   17.6272  -23.1866  -11.8217 C   0  0  0  0  0  0  0  0  0  0  0  0
   18.2709  -24.3700  -11.2207 C   0  0  0  0  0  0  0  0  0  0  0  0
   17.3322  -24.9186  -10.1074 N   0  0  0  0  0  0  0  0  0  0  0  0
   17.9548  -26.0319   -9.4584 C   0  0  0  0  0  0  0  0  0  0  0  0
   17.3368  -20.1050  -12.6821 O   0  0  0  0  0  0  0  0  0  0  0  0
   18.0937  -19.3203  -12.0648 O   0  0  0  0  0  0  0  0  0  0  0  0
  2  3  2  0
  2  1  1  0
  4  2  1  0
  5  4  1  0
  6  5  1  0
  7  6  1  0
  8  7  1  0
  8  9  1  6
 10 17  1  0
 10  8  1  0
 11 10  2  0
 13 12  1  6
 14 13  1  0
 15 13  1  0
 16 15  1  6
 16 17  1  0
 18 19  2  0
 18 16  1  0
 20 18  1  0
 21 20  1  0
 21 27  1  0
 21 22  1  1
 23 22  1  0
 24 23  1  0
 25 26  1  0
 25 24  1  0
 27 29  1  0
 28 27  2  0
M  END
$$$$
