RLK.pdb
     RDKit          3D

 29 28  0  0  1  0  0  0  0  0999 V2000
   20.4855  -23.1838  -15.6772 N   0  0  0  0  0  0  0  0  0  0  0  0
   19.7857  -22.2760  -14.8681 C   0  0  0  0  0  0  0  0  0  0  0  0
   19.4898  -21.0875  -15.3307 N   0  0  0  0  0  0  0  0  0  0  0  0
   19.4020  -22.6475  -13.5544 N   0  0  0  0  0  0  0  0  0  0  0  0
   19.9362  -23.8160  -12.8864 C   0  0  0  0  0  0  0  0  0  0  0  0
   19.1513  -25.0456  -13.1940 C   0  0  0  0  0  0  0  0  0  0  0  0
   18.4717  -25.7066  -12.0609 C   0  0  0  0  0  0  0  0  0  0  0  0
   19.3466  -26.3610  -11.0346 C   0  0  2  0  0  0  0  0  0  0  0  0
   20.1892  -27.3947  -11.5243 N   0  0  0  0  0  0  0  0  0  0  0  0
   18.6057  -26.6860   -9.7893 C   0  0  0  0  0  0  0  0  0  0  0  0
   18.1312  -27.8600   -9.6095 O   0  0  0  0  0  0  0  0  0  0  0  0
   18.9985  -20.4024  -14.7196 C   0  0  0  0  0  0  0  0  0  0  0  0
   18.5661  -24.7946   -4.0492 C   0  0  1  0  0  0  0  0  0  0  0  0
   17.7439  -25.5981   -5.0518 C   0  0  0  0  0  0  0  0  0  0  0  0
   17.3493  -26.8823   -4.4492 C   0  0  0  0  0  0  0  0  0  0  0  0
   18.2916  -25.5672   -6.4117 C   0  0  2  0  0  0  0  0  0  0  0  0
   17.5830  -26.1860   -7.5422 N   0  0  0  0  0  0  0  0  0  0  0  0
   18.3675  -25.7725   -8.7394 C   0  0  0  0  0  0  0  0  0  0  0  0
   16.2228  -25.7223   -7.8038 O   0  0  0  0  0  0  0  0  0  0  0  0
   16.0628  -24.5062   -8.1847 N   0  0  0  0  0  0  0  0  0  0  0  0
   15.0240  -26.4663   -7.6975 C   0  0  1  0  0  0  0  0  0  0  0  0
   13.6993  -25.8092   -8.0009 C   0  0  0  0  0  0  0  0  0  0  0  0
   12.8424  -26.9860   -8.3168 C   0  0  0  0  0  0  0  0  0  0  0  0
   13.0486  -27.8897   -9.4255 C   0  0  0  0  0  0  0  0  0  0  0  0
   12.1205  -29.0134   -9.6528 C   0  0  0  0  0  0  0  0  0  0  0  0
   12.6694  -29.8632  -10.8352 N   0  0  0  0  0  0  0  0  0  0  0  0
   11.7596  -30.9292  -11.1249 C   0  0  0  0  0  0  0  0  0  0  0  0
   13.3284  -24.9806   -6.8671 O   0  0  0  0  0  0  0  0  0  0  0  0
   13.6417  -25.1905   -5.6723 O   0  0  0  0  0  0  0  0  0  0  0  0
  2  3  2  0
  2  1  1  0
  4  2  1  0
  5  4  1  0
  6  5  1  0
  7  6  1  0
  8  7  1  0
  8  9  1  6
 10 17  1  0
 10  8  1  0
 11 10  2  0
 13 12  1  1
 14 13  1  0
 15 13  1  0
 16 15  1  1
 16 17  1  0
 18 19  2  0
 18 16  1  0
 20 18  1  0
 21 20  1  0
 21 27  1  0
 21 22  1  1
 23 22  1  0
 24 23  1  0
 25 26  1  0
 25 24  1  0
 27 29  1  0
 28 27  2  0
M  END
$$$$
