RLK.pdb
     RDKit          3D

 29 28  0  0  1  0  0  0  0  0999 V2000
   26.9810  -21.4214  -10.4235 N   0  0  0  0  0  0  0  0  0  0  0  0
   27.6357  -21.4792  -11.6631 C   0  0  0  0  0  0  0  0  0  0  0  0
   28.8906  -21.1166  -11.7527 N   0  0  0  0  0  0  0  0  0  0  0  0
   26.9377  -21.9287  -12.8127 N   0  0  0  0  0  0  0  0  0  0  0  0
   25.4922  -21.9288  -12.8978 C   0  0  0  0  0  0  0  0  0  0  0  0
   24.9220  -20.5585  -12.7568 C   0  0  0  0  0  0  0  0  0  0  0  0
   23.4677  -20.4134  -12.9727 C   0  0  0  0  0  0  0  0  0  0  0  0
   23.0010  -20.3072  -14.3932 C   0  0  2  0  0  0  0  0  0  0  0  0
   23.4365  -21.3487  -15.2556 N   0  0  0  0  0  0  0  0  0  0  0  0
   23.1548  -18.9327  -14.9341 C   0  0  0  0  0  0  0  0  0  0  0  0
   22.6193  -17.9395  -14.3320 O   0  0  0  0  0  0  0  0  0  0  0  0
   29.3827  -21.1795  -12.6681 C   0  0  0  0  0  0  0  0  0  0  0  0
   26.2147  -15.4844  -14.9159 C   0  0  2  0  0  0  0  0  0  0  0  0
   26.5803  -16.7986  -15.5983 C   0  0  0  0  0  0  0  0  0  0  0  0
   28.0299  -16.8348  -15.8545 C   0  0  0  0  0  0  0  0  0  0  0  0
   25.6419  -17.1861  -16.6565 C   0  0  2  0  0  0  0  0  0  0  0  0
   24.1882  -17.1921  -16.4333 N   0  0  0  0  0  0  0  0  0  0  0  0
   23.8715  -18.6109  -16.1073 C   0  0  0  0  0  0  0  0  0  0  0  0
   23.3419  -16.8704  -17.5795 O   0  0  0  0  0  0  0  0  0  0  0  0
   23.5904  -17.4548  -18.6959 N   0  0  0  0  0  0  0  0  0  0  0  0
   22.2443  -15.9781  -17.6161 C   0  0  1  0  0  0  0  0  0  0  0  0
   21.5118  -15.7366  -18.9137 C   0  0  0  0  0  0  0  0  0  0  0  0
   20.0946  -15.9457  -18.5051 C   0  0  0  0  0  0  0  0  0  0  0  0
   19.5705  -17.1562  -17.9148 C   0  0  0  0  0  0  0  0  0  0  0  0
   18.1366  -17.2637  -17.5853 C   0  0  0  0  0  0  0  0  0  0  0  0
   17.9127  -18.6057  -16.8301 N   0  0  0  0  0  0  0  0  0  0  0  0
   16.5492  -18.6970  -16.4051 C   0  0  0  0  0  0  0  0  0  0  0  0
   21.8902  -14.4277  -19.4169 O   0  0  0  0  0  0  0  0  0  0  0  0
   21.5562  -13.9431  -20.5229 O   0  0  0  0  0  0  0  0  0  0  0  0
  2  3  2  0
  2  1  1  0
  4  2  1  0
  5  4  1  0
  6  5  1  0
  7  6  1  0
  8  7  1  0
  8  9  1  6
 10 17  1  0
 10  8  1  0
 11 10  2  0
 13 12  1  1
 14 13  1  0
 15 13  1  0
 16 15  1  1
 16 17  1  0
 18 19  2  0
 18 16  1  0
 20 18  1  0
 21 20  1  0
 21 27  1  0
 21 22  1  6
 23 22  1  0
 24 23  1  0
 25 26  1  0
 25 24  1  0
 27 29  1  0
 28 27  2  0
M  END
$$$$
