RLK.pdb
     RDKit          3D

 29 28  0  0  1  0  0  0  0  0999 V2000
   29.3162  -22.1082  -17.2778 N   0  0  0  0  0  0  0  0  0  0  0  0
   29.2145  -21.0241  -18.1626 C   0  0  0  0  0  0  0  0  0  0  0  0
   29.9508  -20.9974  -19.2448 N   0  0  0  0  0  0  0  0  0  0  0  0
   28.3169  -19.9627  -17.8824 N   0  0  0  0  0  0  0  0  0  0  0  0
   27.6312  -19.8348  -16.6134 C   0  0  0  0  0  0  0  0  0  0  0  0
   28.5294  -20.1234  -15.4591 C   0  0  0  0  0  0  0  0  0  0  0  0
   27.9295  -20.8188  -14.3018 C   0  0  0  0  0  0  0  0  0  0  0  0
   26.4407  -20.7264  -14.1531 C   0  0  2  0  0  0  0  0  0  0  0  0
   25.8526  -19.5347  -14.6552 N   0  0  0  0  0  0  0  0  0  0  0  0
   25.9845  -21.1354  -12.8004 C   0  0  0  0  0  0  0  0  0  0  0  0
   26.3690  -22.2476  -12.2994 O   0  0  0  0  0  0  0  0  0  0  0  0
   29.9206  -20.1654  -19.8702 C   0  0  0  0  0  0  0  0  0  0  0  0
   25.8598  -18.7208   -7.5295 C   0  0  1  0  0  0  0  0  0  0  0  0
   25.5224  -20.0078   -8.2755 C   0  0  0  0  0  0  0  0  0  0  0  0
   26.2738  -21.1298   -7.6884 C   0  0  0  0  0  0  0  0  0  0  0  0
   25.4770  -19.8419   -9.7319 C   0  0  2  0  0  0  0  0  0  0  0  0
   24.8025  -20.8204  -10.5984 N   0  0  0  0  0  0  0  0  0  0  0  0
   25.1248  -20.3709  -11.9818 C   0  0  0  0  0  0  0  0  0  0  0  0
   23.3433  -20.8567  -10.5438 O   0  0  0  0  0  0  0  0  0  0  0  0
   22.6901  -20.1344  -11.3811 N   0  0  0  0  0  0  0  0  0  0  0  0
   22.5330  -21.6160   -9.6669 C   0  0  1  0  0  0  0  0  0  0  0  0
   21.0295  -21.5054   -9.7437 C   0  0  0  0  0  0  0  0  0  0  0  0
   20.5987  -22.5457   -8.7685 C   0  0  0  0  0  0  0  0  0  0  0  0
   19.2298  -22.9391   -8.5242 C   0  0  0  0  0  0  0  0  0  0  0  0
   18.9295  -24.0804   -7.6392 C   0  0  0  0  0  0  0  0  0  0  0  0
   17.3854  -24.2692   -7.5998 N   0  0  0  0  0  0  0  0  0  0  0  0
   17.0574  -25.3759   -6.7537 C   0  0  0  0  0  0  0  0  0  0  0  0
   20.6573  -20.1267   -9.4785 O   0  0  0  0  0  0  0  0  0  0  0  0
   21.3077  -19.3129   -8.7825 O   0  0  0  0  0  0  0  0  0  0  0  0
  2  3  2  0
  2  1  1  0
  4  2  1  0
  5  4  1  0
  6  5  1  0
  7  6  1  0
  8  7  1  0
  8  9  1  1
 10 17  1  0
 10  8  1  0
 11 10  2  0
 13 12  1  1
 14 13  1  0
 15 13  1  0
 16 15  1  1
 16 17  1  0
 18 19  2  0
 18 16  1  0
 20 18  1  0
 21 20  1  0
 21 27  1  0
 21 22  1  1
 23 22  1  0
 24 23  1  0
 25 26  1  0
 25 24  1  0
 27 29  1  0
 28 27  2  0
M  END
$$$$
