RLK.pdb
     RDKit          3D

 29 28  0  0  1  0  0  0  0  0999 V2000
   30.5007  -24.9641  -16.2300 N   0  0  0  0  0  0  0  0  0  0  0  0
   29.2860  -25.3039  -16.8444 C   0  0  0  0  0  0  0  0  0  0  0  0
   29.0019  -26.5616  -17.0711 N   0  0  0  0  0  0  0  0  0  0  0  0
   28.3718  -24.2861  -17.2177 N   0  0  0  0  0  0  0  0  0  0  0  0
   28.3260  -22.9978  -16.5581 C   0  0  0  0  0  0  0  0  0  0  0  0
   28.2760  -23.1291  -15.0740 C   0  0  0  0  0  0  0  0  0  0  0  0
   27.7362  -21.9801  -14.3183 C   0  0  0  0  0  0  0  0  0  0  0  0
   26.3223  -21.5792  -14.6135 C   0  0  2  0  0  0  0  0  0  0  0  0
   26.1698  -20.3303  -15.2733 N   0  0  0  0  0  0  0  0  0  0  0  0
   25.4228  -21.7943  -13.4516 C   0  0  0  0  0  0  0  0  0  0  0  0
   25.3478  -22.9453  -12.8991 O   0  0  0  0  0  0  0  0  0  0  0  0
   28.0917  -26.8154  -17.5084 C   0  0  0  0  0  0  0  0  0  0  0  0
   25.4890  -21.9295   -9.3433 C   0  0  2  0  0  0  0  0  0  0  0  0
   25.4333  -20.5108   -9.9011 C   0  0  0  0  0  0  0  0  0  0  0  0
   25.9099  -19.5611   -8.8818 C   0  0  0  0  0  0  0  0  0  0  0  0
   24.2028  -20.2259  -10.6462 C   0  0  2  0  0  0  0  0  0  0  0  0
   23.7271  -21.1144  -11.7174 N   0  0  0  0  0  0  0  0  0  0  0  0
   24.6060  -20.7959  -12.8775 C   0  0  0  0  0  0  0  0  0  0  0  0
   22.3671  -20.8953  -12.2030 O   0  0  0  0  0  0  0  0  0  0  0  0
   21.4126  -20.8938  -11.3437 N   0  0  0  0  0  0  0  0  0  0  0  0
   21.9554  -20.6680  -13.5375 C   0  0  1  0  0  0  0  0  0  0  0  0
   20.4852  -20.5772  -13.8680 C   0  0  0  0  0  0  0  0  0  0  0  0
   20.5167  -19.9588  -15.2228 C   0  0  0  0  0  0  0  0  0  0  0  0
   19.3564  -19.6987  -16.0441 C   0  0  0  0  0  0  0  0  0  0  0  0
   19.5161  -19.1792  -17.4155 C   0  0  0  0  0  0  0  0  0  0  0  0
   18.0998  -18.8904  -17.9917 N   0  0  0  0  0  0  0  0  0  0  0  0
   18.2188  -18.3318  -19.3039 C   0  0  0  0  0  0  0  0  0  0  0  0
   19.9034  -21.9015  -13.7364 O   0  0  0  0  0  0  0  0  0  0  0  0
   18.7039  -22.1525  -13.4757 O   0  0  0  0  0  0  0  0  0  0  0  0
  2  3  2  0
  2  1  1  0
  4  2  1  0
  5  4  1  0
  6  5  1  0
  7  6  1  0
  8  7  1  0
  8  9  1  1
 10 17  1  0
 10  8  1  0
 11 10  2  0
 13 12  1  6
 14 13  1  0
 15 13  1  0
 16 15  1  1
 16 17  1  0
 18 19  2  0
 18 16  1  0
 20 18  1  0
 21 20  1  0
 21 27  1  0
 21 22  1  6
 23 22  1  0
 24 23  1  0
 25 26  1  0
 25 24  1  0
 27 29  1  0
 28 27  2  0
M  END
$$$$
