RLK.pdb
     RDKit          3D

 29 28  0  0  1  0  0  0  0  0999 V2000
   26.2172  -26.4788  -15.8988 N   0  0  0  0  0  0  0  0  0  0  0  0
   25.7850  -26.0098  -17.1485 C   0  0  0  0  0  0  0  0  0  0  0  0
   25.5652  -26.8588  -18.1206 N   0  0  0  0  0  0  0  0  0  0  0  0
   25.5885  -24.6207  -17.3547 N   0  0  0  0  0  0  0  0  0  0  0  0
   25.7375  -23.6455  -16.2945 C   0  0  0  0  0  0  0  0  0  0  0  0
   24.4260  -23.2563  -15.7022 C   0  0  0  0  0  0  0  0  0  0  0  0
   23.8272  -21.9911  -16.1751 C   0  0  0  0  0  0  0  0  0  0  0  0
   24.1911  -20.7466  -15.4230 C   0  0  2  0  0  0  0  0  0  0  0  0
   25.5368  -20.6802  -14.9727 N   0  0  0  0  0  0  0  0  0  0  0  0
   23.1672  -20.3818  -14.4112 C   0  0  0  0  0  0  0  0  0  0  0  0
   23.5204  -20.0485  -13.2280 O   0  0  0  0  0  0  0  0  0  0  0  0
   25.2565  -26.5098  -19.0518 C   0  0  0  0  0  0  0  0  0  0  0  0
   19.1003  -16.4038  -14.2397 C   0  0  1  0  0  0  0  0  0  0  0  0
   19.4893  -17.6519  -13.4538 C   0  0  0  0  0  0  0  0  0  0  0  0
   19.7376  -17.2919  -12.0478 C   0  0  0  0  0  0  0  0  0  0  0  0
   20.4374  -18.5158  -14.1647 C   0  0  2  0  0  0  0  0  0  0  0  0
   20.8385  -19.8252  -13.6285 N   0  0  0  0  0  0  0  0  0  0  0  0
   21.7756  -20.3703  -14.6503 C   0  0  0  0  0  0  0  0  0  0  0  0
   19.7916  -20.8357  -13.4995 O   0  0  0  0  0  0  0  0  0  0  0  0
   19.3172  -21.3535  -14.5748 N   0  0  0  0  0  0  0  0  0  0  0  0
   19.2233  -21.3394  -12.3055 C   0  0  1  0  0  0  0  0  0  0  0  0
   18.1386  -22.3873  -12.3703 C   0  0  0  0  0  0  0  0  0  0  0  0
   18.0111  -22.7804  -10.9392 C   0  0  0  0  0  0  0  0  0  0  0  0
   18.2035  -24.1171  -10.4248 C   0  0  0  0  0  0  0  0  0  0  0  0
   18.2396  -24.3571   -8.9698 C   0  0  0  0  0  0  0  0  0  0  0  0
   18.6441  -25.8411   -8.7338 N   0  0  0  0  0  0  0  0  0  0  0  0
   18.6698  -26.1154   -7.3294 C   0  0  0  0  0  0  0  0  0  0  0  0
   16.9788  -21.8065  -13.0237 O   0  0  0  0  0  0  0  0  0  0  0  0
   16.2346  -22.3868  -13.8478 O   0  0  0  0  0  0  0  0  0  0  0  0
  2  3  2  0
  2  1  1  0
  4  2  1  0
  5  4  1  0
  6  5  1  0
  7  6  1  0
  8  7  1  0
  8  9  1  1
 10 17  1  0
 10  8  1  0
 11 10  2  0
 13 12  1  1
 14 13  1  0
 15 13  1  0
 16 15  1  1
 16 17  1  0
 18 19  2  0
 18 16  1  0
 20 18  1  0
 21 20  1  0
 21 27  1  0
 21 22  1  6
 23 22  1  0
 24 23  1  0
 25 26  1  0
 25 24  1  0
 27 29  1  0
 28 27  2  0
M  END
$$$$
