HPD.pdb
     RDKit          3D

 26 27  0  0  1  0  0  0  0  0999 V2000
   28.4270  -21.5141  -17.0179 N   0  0  0  0  0  0  0  0  0  0  0  0
   28.8464  -20.7257  -15.8462 C   0  0  1  0  0  0  0  0  0  0  0  0
   28.7030  -19.2728  -16.1097 C   0  0  0  0  0  0  0  0  0  0  0  0
   27.3435  -18.7851  -16.3511 C   0  0  0  0  0  0  0  0  0  0  0  0
   26.2155  -18.9641  -15.6057 C   0  0  0  0  0  0  0  0  0  0  0  0
   25.1567  -18.3500  -16.1909 N   0  0  0  0  0  0  0  0  0  0  0  0
   25.6572  -17.7936  -17.3053 C   0  0  0  0  0  0  0  0  0  0  0  0
   26.9724  -18.0460  -17.4169 N   0  0  0  0  0  0  0  0  0  0  0  0
   28.2705  -21.2390  -14.6085 C   0  0  0  0  0  0  0  0  0  0  0  0
   27.3582  -22.1310  -14.7201 O   0  0  0  0  0  0  0  0  0  0  0  0
   28.6221  -20.8486  -13.3074 N   0  0  0  0  0  0  0  0  0  0  0  0
   29.6048  -19.8698  -12.9256 C   0  0  0  0  0  0  0  0  0  0  0  0
   30.1788  -20.3399  -11.5995 C   0  0  0  0  0  0  0  0  0  0  0  0
   29.2839  -21.4583  -11.1668 C   0  0  0  0  0  0  0  0  0  0  0  0
   28.0674  -21.3759  -12.0813 C   0  0  1  0  0  0  0  0  0  0  0  0
   27.0979  -20.3585  -11.5650 C   0  0  0  0  0  0  0  0  0  0  0  0
   27.1476  -19.1377  -11.9313 O   0  0  0  0  0  0  0  0  0  0  0  0
   26.0656  -20.6753  -10.6416 N   0  0  0  0  0  0  0  0  0  0  0  0
   24.6602  -20.3542  -10.9191 C   0  0  1  0  0  0  0  0  0  0  0  0
   24.1920  -21.0102  -12.1716 C   0  0  0  0  0  0  0  0  0  0  0  0
   22.7514  -20.7964  -12.3595 C   0  0  0  0  0  0  0  0  0  0  0  0
   22.2694  -19.6397  -12.2881 O   0  0  0  0  0  0  0  0  0  0  0  0
   23.8663  -20.8115   -9.7746 C   0  0  0  0  0  0  0  0  0  0  0  0
   22.7115  -20.3804   -9.5958 O   0  0  0  0  0  0  0  0  0  0  0  0
   21.8591  -21.8351  -12.6207 O   0  0  0  0  0  0  0  0  0  0  0  0
   24.3869  -21.7239   -8.8823 O   0  0  0  0  0  0  0  0  0  0  0  0
  2  1  1  6
  3  2  1  0
  4  3  1  0
  5  4  2  0
  6  5  1  0
  7  6  1  0
  7  8  2  0
  8  4  1  0
  9  2  1  0
  9 11  1  0
 10  9  2  0
 11 15  1  0
 12 11  1  0
 12 13  1  0
 13 14  1  0
 15 16  1  1
 15 14  1  0
 16 17  2  0
 18 19  1  0
 18 16  1  0
 20 21  1  0
 19 20  1  6
 21 25  1  0
 22 21  2  0
 23 19  1  0
 24 23  2  0
 26 23  1  0
M  END
$$$$
