HPD.pdb
     RDKit          3D

 26 27  0  0  1  0  0  0  0  0999 V2000
   15.2293  -13.3473  -13.7732 N   0  0  0  0  0  0  0  0  0  0  0  0
   15.0150  -11.9163  -14.0498 C   0  0  1  0  0  0  0  0  0  0  0  0
   13.6773  -11.4826  -13.5772 C   0  0  0  0  0  0  0  0  0  0  0  0
   12.5282  -12.2195  -14.1072 C   0  0  0  0  0  0  0  0  0  0  0  0
   11.8266  -13.2464  -13.5474 C   0  0  0  0  0  0  0  0  0  0  0  0
   10.8342  -13.6527  -14.3785 N   0  0  0  0  0  0  0  0  0  0  0  0
   10.9420  -12.8570  -15.4543 C   0  0  0  0  0  0  0  0  0  0  0  0
   11.9569  -11.9885  -15.3072 N   0  0  0  0  0  0  0  0  0  0  0  0
   16.1591  -11.1057  -13.6485 C   0  0  0  0  0  0  0  0  0  0  0  0
   16.8030  -11.4863  -12.6089 O   0  0  0  0  0  0  0  0  0  0  0  0
   16.6215   -9.9490  -14.2945 N   0  0  0  0  0  0  0  0  0  0  0  0
   16.1315   -9.3797  -15.5214 C   0  0  0  0  0  0  0  0  0  0  0  0
   17.3272   -8.7250  -16.1926 C   0  0  0  0  0  0  0  0  0  0  0  0
   18.4073   -8.7414  -15.1572 C   0  0  0  0  0  0  0  0  0  0  0  0
   17.7076   -9.1038  -13.8526 C   0  0  1  0  0  0  0  0  0  0  0  0
   17.0929   -7.8852  -13.2374 C   0  0  0  0  0  0  0  0  0  0  0  0
   15.8792   -7.5611  -13.4587 O   0  0  0  0  0  0  0  0  0  0  0  0
   17.8079   -7.0127  -12.3736 N   0  0  0  0  0  0  0  0  0  0  0  0
   17.1144   -6.0998  -11.4564 C   0  0  1  0  0  0  0  0  0  0  0  0
   17.0464   -6.6639  -10.0796 C   0  0  0  0  0  0  0  0  0  0  0  0
   16.3551   -5.7367   -9.1749 C   0  0  0  0  0  0  0  0  0  0  0  0
   15.7371   -4.7463   -9.6361 O   0  0  0  0  0  0  0  0  0  0  0  0
   17.8489   -4.8311  -11.4535 C   0  0  0  0  0  0  0  0  0  0  0  0
   19.0730   -4.8108  -11.6834 O   0  0  0  0  0  0  0  0  0  0  0  0
   16.3442   -5.8962   -7.7901 O   0  0  0  0  0  0  0  0  0  0  0  0
   17.1952   -3.6452  -11.1968 O   0  0  0  0  0  0  0  0  0  0  0  0
  2  1  1  1
  3  2  1  0
  4  3  1  0
  5  4  2  0
  6  5  1  0
  7  6  1  0
  7  8  2  0
  8  4  1  0
  9  2  1  0
  9 11  1  0
 10  9  2  0
 11 15  1  0
 12 11  1  0
 12 13  1  0
 13 14  1  0
 15 16  1  6
 15 14  1  0
 16 17  2  0
 18 19  1  0
 18 16  1  0
 20 21  1  0
 19 20  1  1
 21 25  1  0
 22 21  2  0
 23 19  1  0
 24 23  2  0
 26 23  1  0
M  END
$$$$
