HPD.pdb
     RDKit          3D

 26 27  0  0  1  0  0  0  0  0999 V2000
   15.6869  -20.2555    1.5527 N   0  0  0  0  0  0  0  0  0  0  0  0
   15.4307  -18.9038    2.0795 C   0  0  1  0  0  0  0  0  0  0  0  0
   14.0712  -18.8157    2.6667 C   0  0  0  0  0  0  0  0  0  0  0  0
   12.9641  -19.2592    1.8171 C   0  0  0  0  0  0  0  0  0  0  0  0
   12.5681  -18.7917    0.5986 C   0  0  0  0  0  0  0  0  0  0  0  0
   11.4848  -19.4777    0.1554 N   0  0  0  0  0  0  0  0  0  0  0  0
   11.2265  -20.3711    1.1234 C   0  0  0  0  0  0  0  0  0  0  0  0
   12.1077  -20.2531    2.1311 N   0  0  0  0  0  0  0  0  0  0  0  0
   16.5402  -18.4146    2.8899 C   0  0  0  0  0  0  0  0  0  0  0  0
   17.3299  -19.2943    3.3827 O   0  0  0  0  0  0  0  0  0  0  0  0
   16.8247  -17.0715    3.1798 N   0  0  0  0  0  0  0  0  0  0  0  0
   16.0853  -15.9121    2.7571 C   0  0  0  0  0  0  0  0  0  0  0  0
   17.1028  -14.7949    2.5977 C   0  0  0  0  0  0  0  0  0  0  0  0
   18.3627  -15.3320    3.2005 C   0  0  0  0  0  0  0  0  0  0  0  0
   17.9427  -16.5867    3.9570 C   0  0  1  0  0  0  0  0  0  0  0  0
   17.4128  -16.2244    5.3095 C   0  0  0  0  0  0  0  0  0  0  0  0
   16.1977  -15.8773    5.4833 O   0  0  0  0  0  0  0  0  0  0  0  0
   18.2147  -16.2409    6.4822 N   0  0  0  0  0  0  0  0  0  0  0  0
   17.6414  -16.5318    7.8021 C   0  0  1  0  0  0  0  0  0  0  0  0
   18.4313  -17.5719    8.5182 C   0  0  0  0  0  0  0  0  0  0  0  0
   17.8628  -17.8282    9.8476 C   0  0  0  0  0  0  0  0  0  0  0  0
   16.6285  -17.7074   10.0414 O   0  0  0  0  0  0  0  0  0  0  0  0
   17.6308  -15.2811    8.5667 C   0  0  0  0  0  0  0  0  0  0  0  0
   17.1101  -15.2377    9.6974 O   0  0  0  0  0  0  0  0  0  0  0  0
   18.6372  -18.2101   10.9420 O   0  0  0  0  0  0  0  0  0  0  0  0
   18.1964  -14.1377    8.0449 O   0  0  0  0  0  0  0  0  0  0  0  0
  2  1  1  1
  3  2  1  0
  4  3  1  0
  5  4  2  0
  6  5  1  0
  7  6  1  0
  7  8  2  0
  8  4  1  0
  9  2  1  0
  9 11  1  0
 10  9  2  0
 11 15  1  0
 12 11  1  0
 12 13  1  0
 13 14  1  0
 15 16  1  1
 15 14  1  0
 16 17  2  0
 18 19  1  0
 18 16  1  0
 20 21  1  0
 19 20  1  1
 21 25  1  0
 22 21  2  0
 23 19  1  0
 24 23  2  0
 26 23  1  0
M  END
$$$$
