HPD.pdb
     RDKit          3D

 26 27  0  0  1  0  0  0  0  0999 V2000
   20.9769  -13.6691  -18.3917 N   0  0  0  0  0  0  0  0  0  0  0  0
   20.1054  -12.6425  -17.7942 C   0  0  1  0  0  0  0  0  0  0  0  0
   19.6867  -13.0372  -16.4268 C   0  0  0  0  0  0  0  0  0  0  0  0
   19.0571  -14.3525  -16.2921 C   0  0  0  0  0  0  0  0  0  0  0  0
   17.7558  -14.7122  -16.4856 C   0  0  0  0  0  0  0  0  0  0  0  0
   17.5882  -16.0370  -16.2453 N   0  0  0  0  0  0  0  0  0  0  0  0
   18.8082  -16.4792  -15.9021 C   0  0  0  0  0  0  0  0  0  0  0  0
   19.7041  -15.4779  -15.9252 N   0  0  0  0  0  0  0  0  0  0  0  0
   20.6487  -11.2996  -17.9637 C   0  0  0  0  0  0  0  0  0  0  0  0
   21.9242  -11.1850  -17.9539 O   0  0  0  0  0  0  0  0  0  0  0  0
   19.9059  -10.1219  -18.1373 N   0  0  0  0  0  0  0  0  0  0  0  0
   18.4748   -9.9960  -18.2135 C   0  0  0  0  0  0  0  0  0  0  0  0
   18.2009   -8.8252  -19.1426 C   0  0  0  0  0  0  0  0  0  0  0  0
   19.5330   -8.1751  -19.3467 C   0  0  0  0  0  0  0  0  0  0  0  0
   20.4458   -8.7901  -18.2924 C   0  0  1  0  0  0  0  0  0  0  0  0
   20.2697   -8.0897  -16.9810 C   0  0  0  0  0  0  0  0  0  0  0  0
   19.3715   -8.4426  -16.1469 O   0  0  0  0  0  0  0  0  0  0  0  0
   21.0801   -6.9952  -16.5759 N   0  0  0  0  0  0  0  0  0  0  0  0
   21.0821   -6.5113  -15.1898 C   0  0  1  0  0  0  0  0  0  0  0  0
   22.4460   -6.0887  -14.7658 C   0  0  0  0  0  0  0  0  0  0  0  0
   22.4093   -5.4972  -13.4224 C   0  0  0  0  0  0  0  0  0  0  0  0
   22.0079   -6.1739  -12.4444 O   0  0  0  0  0  0  0  0  0  0  0  0
   20.1499   -5.3825  -15.1126 C   0  0  0  0  0  0  0  0  0  0  0  0
   19.6341   -5.0640  -14.0245 O   0  0  0  0  0  0  0  0  0  0  0  0
   22.8065   -4.1869  -13.1605 O   0  0  0  0  0  0  0  0  0  0  0  0
   19.8323   -4.6594  -16.2422 O   0  0  0  0  0  0  0  0  0  0  0  0
  2  1  1  1
  3  2  1  0
  4  3  1  0
  5  4  2  0
  6  5  1  0
  7  6  1  0
  7  8  2  0
  8  4  1  0
  9  2  1  0
  9 11  1  0
 10  9  2  0
 11 15  1  0
 12 11  1  0
 12 13  1  0
 13 14  1  0
 15 16  1  1
 15 14  1  0
 16 17  2  0
 18 19  1  0
 18 16  1  0
 20 21  1  0
 19 20  1  6
 21 25  1  0
 22 21  2  0
 23 19  1  0
 24 23  2  0
 26 23  1  0
M  END
$$$$
