DIQ.pdb
     RDKit          3D

 26 25  0  0  1  0  0  0  0  0999 V2000
   17.8750  -11.6847  -15.2457 N   0  0  0  0  0  0  0  0  0  0  0  0
   18.4331  -10.6972  -16.1487 C   0  0  1  0  0  0  0  0  0  0  0  0
   17.3834   -9.7077  -16.5911 C   0  0  0  0  0  0  0  0  0  0  0  0
   16.3196  -10.3450  -17.3905 C   0  0  0  0  0  0  0  0  0  0  0  0
   16.5935  -11.0043  -18.4245 O   0  0  0  0  0  0  0  0  0  0  0  0
   19.4855   -9.9524  -15.3898 C   0  0  0  0  0  0  0  0  0  0  0  0
   19.2695   -9.5702  -14.2119 O   0  0  0  0  0  0  0  0  0  0  0  0
   14.9793  -10.2472  -17.0416 O   0  0  0  0  0  0  0  0  0  0  0  0
   24.5907  -11.4621  -15.2369 C   0  0  0  0  0  0  0  0  0  0  0  0
   23.2115  -10.8887  -14.8617 C   0  0  0  0  0  0  0  0  0  0  0  0
   23.1368   -9.5488  -15.5325 C   0  0  2  0  0  0  0  0  0  0  0  0
   24.2462   -8.6784  -14.9493 C   0  0  0  0  0  0  0  0  0  0  0  0
   21.8183   -8.9391  -15.3546 C   0  0  2  0  0  0  0  0  0  0  0  0
   20.7220   -9.6619  -15.9593 N   0  0  0  0  0  0  0  0  0  0  0  0
   21.7775   -7.5778  -15.9715 C   0  0  0  0  0  0  0  0  0  0  0  0
   21.8888   -7.3351  -17.1913 O   0  0  0  0  0  0  0  0  0  0  0  0
   17.4635   -3.6367  -14.9162 N   0  0  0  0  0  0  0  0  0  0  0  0
   18.4503   -2.7821  -15.4846 C   0  0  0  0  0  0  0  0  0  0  0  0
   18.1164   -1.5687  -15.6829 O   0  0  0  0  0  0  0  0  0  0  0  0
   19.8042   -3.2567  -15.8302 C   0  0  0  0  0  0  0  0  0  0  0  0
   20.1088   -4.6590  -15.4971 C   0  0  0  0  0  0  0  0  0  0  0  0
   21.4900   -5.1017  -15.7730 C   0  0  2  0  0  0  0  0  0  0  0  0
   21.6009   -6.4512  -15.1294 N   0  0  0  0  0  0  0  0  0  0  0  0
   22.5269   -4.3089  -15.1230 C   0  0  0  0  0  0  0  0  0  0  0  0
   23.1368   -3.2298  -15.7289 O   0  0  0  0  0  0  0  0  0  0  0  0
   22.9112   -4.5949  -13.9457 O   0  0  0  0  0  0  0  0  0  0  0  0
  2  3  1  0
  2  1  1  1
  4  8  1  0
  4  3  1  0
  5  4  2  0
  6  2  1  0
  7  6  2  0
  9 10  1  0
 10 11  1  0
 11 13  1  0
 11 12  1  1
 13 14  1  6
 14  6  1  0
 15 13  1  0
 15 23  1  0
 16 15  2  0
 18 17  1  0
 19 18  2  0
 20 18  1  0
 22 21  1  1
 21 20  1  0
 22 24  1  0
 22 23  1  0
 24 25  1  0
 26 24  2  0
M  END
$$$$
