DIQ.pdb
     RDKit          3D

 26 25  0  0  1  0  0  0  0  0999 V2000
   28.4087  -21.2445  -16.9386 N   0  0  0  0  0  0  0  0  0  0  0  0
   28.1413  -20.2400  -15.9279 C   0  0  1  0  0  0  0  0  0  0  0  0
   27.2597  -19.1420  -16.4702 C   0  0  0  0  0  0  0  0  0  0  0  0
   27.9425  -18.3391  -17.5027 C   0  0  0  0  0  0  0  0  0  0  0  0
   29.1717  -18.0915  -17.4227 O   0  0  0  0  0  0  0  0  0  0  0  0
   27.4078  -20.9200  -14.8153 C   0  0  0  0  0  0  0  0  0  0  0  0
   26.6325  -21.8793  -15.0577 O   0  0  0  0  0  0  0  0  0  0  0  0
   27.2656  -17.8243  -18.6002 O   0  0  0  0  0  0  0  0  0  0  0  0
   29.8123  -21.0990   -9.9710 C   0  0  0  0  0  0  0  0  0  0  0  0
   29.0042  -21.6081  -11.1791 C   0  0  0  0  0  0  0  0  0  0  0  0
   27.6644  -20.9408  -11.0771 C   0  0  2  0  0  0  0  0  0  0  0  0
   26.9234  -21.5709   -9.9013 C   0  0  0  0  0  0  0  0  0  0  0  0
   26.9111  -21.0694  -12.3251 C   0  0  2  0  0  0  0  0  0  0  0  0
   27.5590  -20.5145  -13.4923 N   0  0  0  0  0  0  0  0  0  0  0  0
   25.6010  -20.3556  -12.2282 C   0  0  0  0  0  0  0  0  0  0  0  0
   25.4600  -19.1248  -12.0726 O   0  0  0  0  0  0  0  0  0  0  0  0
   20.6459  -22.2513  -15.1551 N   0  0  0  0  0  0  0  0  0  0  0  0
   20.2762  -20.9589  -14.6859 C   0  0  0  0  0  0  0  0  0  0  0  0
   19.0754  -20.5903  -14.8995 O   0  0  0  0  0  0  0  0  0  0  0  0
   21.2211  -20.0735  -13.9782 C   0  0  0  0  0  0  0  0  0  0  0  0
   22.5573  -20.6305  -13.7052 C   0  0  0  0  0  0  0  0  0  0  0  0
   23.1038  -20.3649  -12.3596 C   0  0  2  0  0  0  0  0  0  0  0  0
   24.4039  -21.1101  -12.3147 N   0  0  0  0  0  0  0  0  0  0  0  0
   22.3282  -20.9318  -11.2626 C   0  0  0  0  0  0  0  0  0  0  0  0
   21.1643  -20.3594  -10.7923 O   0  0  0  0  0  0  0  0  0  0  0  0
   22.7107  -22.0002  -10.6902 O   0  0  0  0  0  0  0  0  0  0  0  0
  2  3  1  0
  2  1  1  6
  4  8  1  0
  4  3  1  0
  5  4  2  0
  6  2  1  0
  7  6  2  0
  9 10  1  0
 10 11  1  0
 11 13  1  0
 11 12  1  1
 13 14  1  6
 14  6  1  0
 15 13  1  0
 15 23  1  0
 16 15  2  0
 18 17  1  0
 19 18  2  0
 20 18  1  0
 22 21  1  6
 21 20  1  0
 22 24  1  0
 22 23  1  0
 24 25  1  0
 26 24  2  0
M  END
$$$$
