DIQ.pdb
     RDKit          3D

 26 25  0  0  1  0  0  0  0  0999 V2000
   28.6502  -21.4296  -15.3731 N   0  0  0  0  0  0  0  0  0  0  0  0
   27.9107  -20.4329  -14.6237 C   0  0  1  0  0  0  0  0  0  0  0  0
   27.1845  -19.4849  -15.5461 C   0  0  0  0  0  0  0  0  0  0  0  0
   28.1118  -18.7293  -16.4098 C   0  0  0  0  0  0  0  0  0  0  0  0
   29.1760  -18.2450  -15.9498 O   0  0  0  0  0  0  0  0  0  0  0  0
   26.8906  -21.1630  -13.8084 C   0  0  0  0  0  0  0  0  0  0  0  0
   26.4755  -22.2923  -14.1724 O   0  0  0  0  0  0  0  0  0  0  0  0
   27.8546  -18.5197  -17.7580 O   0  0  0  0  0  0  0  0  0  0  0  0
   26.6642  -20.3516   -8.3954 C   0  0  0  0  0  0  0  0  0  0  0  0
   26.6285  -21.1413   -9.7171 C   0  0  0  0  0  0  0  0  0  0  0  0
   25.3612  -20.7222  -10.4021 C   0  0  2  0  0  0  0  0  0  0  0  0
   24.1938  -21.2935   -9.6024 C   0  0  0  0  0  0  0  0  0  0  0  0
   25.3369  -21.1718  -11.7945 C   0  0  2  0  0  0  0  0  0  0  0  0
   26.3749  -20.6192  -12.6355 N   0  0  0  0  0  0  0  0  0  0  0  0
   24.0518  -20.7845  -12.4531 C   0  0  0  0  0  0  0  0  0  0  0  0
   23.7078  -19.6172  -12.7327 O   0  0  0  0  0  0  0  0  0  0  0  0
   21.3965  -24.6945  -16.5003 N   0  0  0  0  0  0  0  0  0  0  0  0
   20.4562  -23.6289  -16.4135 C   0  0  0  0  0  0  0  0  0  0  0  0
   19.4371  -23.6964  -17.1752 O   0  0  0  0  0  0  0  0  0  0  0  0
   20.6307  -22.4929  -15.4879 C   0  0  0  0  0  0  0  0  0  0  0  0
   21.8316  -22.5245  -14.6354 C   0  0  0  0  0  0  0  0  0  0  0  0
   21.9554  -21.4273  -13.6552 C   0  0  2  0  0  0  0  0  0  0  0  0
   23.1275  -21.8022  -12.7988 N   0  0  0  0  0  0  0  0  0  0  0  0
   20.8455  -21.3196  -12.7155 C   0  0  0  0  0  0  0  0  0  0  0  0
   19.7215  -20.5595  -12.9657 O   0  0  0  0  0  0  0  0  0  0  0  0
   20.8798  -21.9400  -11.6068 O   0  0  0  0  0  0  0  0  0  0  0  0
  2  3  1  0
  2  1  1  6
  4  8  1  0
  4  3  1  0
  5  4  2  0
  6  2  1  0
  7  6  2  0
  9 10  1  0
 10 11  1  0
 11 13  1  0
 11 12  1  1
 13 14  1  6
 14  6  1  0
 15 13  1  0
 15 23  1  0
 16 15  2  0
 18 17  1  0
 19 18  2  0
 20 18  1  0
 22 21  1  6
 21 20  1  0
 22 24  1  0
 22 23  1  0
 24 25  1  0
 26 24  2  0
M  END
$$$$
