DIQ.pdb
     RDKit          3D

 26 25  0  0  1  0  0  0  0  0999 V2000
   26.6857  -23.3371  -16.1307 N   0  0  0  0  0  0  0  0  0  0  0  0
   26.3845  -22.0114  -15.6269 C   0  0  1  0  0  0  0  0  0  0  0  0
   25.7446  -21.1555  -16.6922 C   0  0  0  0  0  0  0  0  0  0  0  0
   26.7065  -20.7562  -17.7373 C   0  0  0  0  0  0  0  0  0  0  0  0
   26.3755  -19.9614  -18.6525 O   0  0  0  0  0  0  0  0  0  0  0  0
   25.4025  -22.1778  -14.5105 C   0  0  0  0  0  0  0  0  0  0  0  0
   24.6352  -23.1730  -14.4817 O   0  0  0  0  0  0  0  0  0  0  0  0
   28.0095  -21.2352  -17.7588 O   0  0  0  0  0  0  0  0  0  0  0  0
   26.6665  -20.6340   -9.4664 C   0  0  0  0  0  0  0  0  0  0  0  0
   26.0934  -21.4593  -10.6334 C   0  0  0  0  0  0  0  0  0  0  0  0
   24.9038  -20.6888  -11.1252 C   0  0  2  0  0  0  0  0  0  0  0  0
   23.8553  -20.7016  -10.0166 C   0  0  0  0  0  0  0  0  0  0  0  0
   24.3836  -21.2537  -12.3710 C   0  0  2  0  0  0  0  0  0  0  0  0
   25.3089  -21.2449  -13.4817 N   0  0  0  0  0  0  0  0  0  0  0  0
   23.1945  -20.4818  -12.8458 C   0  0  0  0  0  0  0  0  0  0  0  0
   23.2161  -19.3013  -13.2518 O   0  0  0  0  0  0  0  0  0  0  0  0
   20.5522  -18.4794  -17.0629 N   0  0  0  0  0  0  0  0  0  0  0  0
   19.6409  -18.7217  -15.9960 C   0  0  0  0  0  0  0  0  0  0  0  0
   18.9985  -17.7169  -15.5478 O   0  0  0  0  0  0  0  0  0  0  0  0
   19.4304  -20.0660  -15.4248 C   0  0  0  0  0  0  0  0  0  0  0  0
   20.5844  -20.6708  -14.7375 C   0  0  0  0  0  0  0  0  0  0  0  0
   20.7432  -20.3186  -13.3125 C   0  0  2  0  0  0  0  0  0  0  0  0
   21.9254  -21.1136  -12.8455 N   0  0  0  0  0  0  0  0  0  0  0  0
   19.6529  -20.7580  -12.4496 C   0  0  0  0  0  0  0  0  0  0  0  0
   18.5777  -19.9543  -12.1307 O   0  0  0  0  0  0  0  0  0  0  0  0
   19.6593  -21.9271  -11.9511 O   0  0  0  0  0  0  0  0  0  0  0  0
  2  3  1  0
  2  1  1  6
  4  8  1  0
  4  3  1  0
  5  4  2  0
  6  2  1  0
  7  6  2  0
  9 10  1  0
 10 11  1  0
 11 13  1  0
 11 12  1  1
 13 14  1  6
 14  6  1  0
 15 13  1  0
 15 23  1  0
 16 15  2  0
 18 17  1  0
 19 18  2  0
 20 18  1  0
 22 21  1  6
 21 20  1  0
 22 24  1  0
 22 23  1  0
 24 25  1  0
 26 24  2  0
M  END
$$$$
