DIQ.pdb
     RDKit          3D

 26 25  0  0  1  0  0  0  0  0999 V2000
   27.1281  -22.2847  -15.9424 N   0  0  0  0  0  0  0  0  0  0  0  0
   26.6006  -21.0675  -15.3575 C   0  0  1  0  0  0  0  0  0  0  0  0
   25.9038  -20.2214  -16.3945 C   0  0  0  0  0  0  0  0  0  0  0  0
   26.8521  -19.6247  -17.3545 C   0  0  0  0  0  0  0  0  0  0  0  0
   27.0703  -20.1629  -18.4687 O   0  0  0  0  0  0  0  0  0  0  0  0
   25.5900  -21.4743  -14.3321 C   0  0  0  0  0  0  0  0  0  0  0  0
   24.8297  -22.4530  -14.5422 O   0  0  0  0  0  0  0  0  0  0  0  0
   27.5411  -18.4523  -17.0747 O   0  0  0  0  0  0  0  0  0  0  0  0
   26.5250  -20.3121   -9.0270 C   0  0  0  0  0  0  0  0  0  0  0  0
   26.1007  -21.1478  -10.2489 C   0  0  0  0  0  0  0  0  0  0  0  0
   24.8524  -20.4971  -10.7677 C   0  0  2  0  0  0  0  0  0  0  0  0
   23.7488  -20.7313   -9.7403 C   0  0  0  0  0  0  0  0  0  0  0  0
   24.4885  -21.0216  -12.0845 C   0  0  2  0  0  0  0  0  0  0  0  0
   25.4615  -20.7881  -13.1279 N   0  0  0  0  0  0  0  0  0  0  0  0
   23.2271  -20.3874  -12.5764 C   0  0  0  0  0  0  0  0  0  0  0  0
   23.1076  -19.1940  -12.9236 O   0  0  0  0  0  0  0  0  0  0  0  0
   20.2516  -21.9610  -17.2679 N   0  0  0  0  0  0  0  0  0  0  0  0
   19.2964  -21.0991  -16.6579 C   0  0  0  0  0  0  0  0  0  0  0  0
   18.2615  -20.8100  -17.3426 O   0  0  0  0  0  0  0  0  0  0  0  0
   19.4734  -20.5592  -15.2961 C   0  0  0  0  0  0  0  0  0  0  0  0
   20.6978  -20.9680  -14.5862 C   0  0  0  0  0  0  0  0  0  0  0  0
   20.8046  -20.5298  -13.1804 C   0  0  2  0  0  0  0  0  0  0  0  0
   22.0542  -21.1787  -12.6654 N   0  0  0  0  0  0  0  0  0  0  0  0
   19.7534  -21.0309  -12.3028 C   0  0  0  0  0  0  0  0  0  0  0  0
   18.5653  -20.3605  -12.0963 O   0  0  0  0  0  0  0  0  0  0  0  0
   19.9029  -22.1311  -11.6843 O   0  0  0  0  0  0  0  0  0  0  0  0
  2  3  1  0
  2  1  1  6
  4  8  1  0
  4  3  1  0
  5  4  2  0
  6  2  1  0
  7  6  2  0
  9 10  1  0
 10 11  1  0
 11 13  1  0
 11 12  1  1
 13 14  1  6
 14  6  1  0
 15 13  1  0
 15 23  1  0
 16 15  2  0
 18 17  1  0
 19 18  2  0
 20 18  1  0
 22 21  1  6
 21 20  1  0
 22 24  1  0
 22 23  1  0
 24 25  1  0
 26 24  2  0
M  END
$$$$
