DIQ.pdb
     RDKit          3D

 26 25  0  0  1  0  0  0  0  0999 V2000
   20.0378   -6.9798  -18.4120 N   0  0  0  0  0  0  0  0  0  0  0  0
   20.4499   -6.2794  -17.2114 C   0  0  1  0  0  0  0  0  0  0  0  0
   19.8328   -4.9040  -17.1433 C   0  0  0  0  0  0  0  0  0  0  0  0
   20.3720   -4.0004  -18.1775 C   0  0  0  0  0  0  0  0  0  0  0  0
   21.5238   -4.1710  -18.6499 O   0  0  0  0  0  0  0  0  0  0  0  0
   19.9498   -7.0729  -16.0458 C   0  0  0  0  0  0  0  0  0  0  0  0
   18.9621   -7.8395  -16.1754 O   0  0  0  0  0  0  0  0  0  0  0  0
   19.6396   -2.9298  -18.6725 O   0  0  0  0  0  0  0  0  0  0  0  0
   23.0535  -10.0316  -12.9898 C   0  0  0  0  0  0  0  0  0  0  0  0
   21.8914   -9.4292  -13.8011 C   0  0  0  0  0  0  0  0  0  0  0  0
   21.2791   -8.3861  -12.9133 C   0  0  2  0  0  0  0  0  0  0  0  0
   20.8074   -9.0829  -11.6403 C   0  0  0  0  0  0  0  0  0  0  0  0
   20.1833   -7.6907  -13.5894 C   0  0  2  0  0  0  0  0  0  0  0  0
   20.5558   -6.9862  -14.7956 N   0  0  0  0  0  0  0  0  0  0  0  0
   19.5865   -6.6503  -12.6968 C   0  0  0  0  0  0  0  0  0  0  0  0
   20.2058   -5.6895  -12.1945 O   0  0  0  0  0  0  0  0  0  0  0  0
   13.4644   -5.1615  -12.7689 N   0  0  0  0  0  0  0  0  0  0  0  0
   13.9691   -4.4883  -11.6203 C   0  0  0  0  0  0  0  0  0  0  0  0
   13.1538   -3.7438  -10.9844 O   0  0  0  0  0  0  0  0  0  0  0  0
   15.3654   -4.6358  -11.1662 C   0  0  0  0  0  0  0  0  0  0  0  0
   16.2217   -5.5264  -11.9686 C   0  0  0  0  0  0  0  0  0  0  0  0
   17.6195   -5.6598  -11.5123 C   0  0  2  0  0  0  0  0  0  0  0  0
   18.2085   -6.7352  -12.3750 N   0  0  0  0  0  0  0  0  0  0  0  0
   17.7728   -6.1668  -10.1537 C   0  0  0  0  0  0  0  0  0  0  0  0
   17.6951   -5.3588   -9.0380 O   0  0  0  0  0  0  0  0  0  0  0  0
   17.9881   -7.4026   -9.9495 O   0  0  0  0  0  0  0  0  0  0  0  0
  2  3  1  0
  2  1  1  6
  4  8  1  0
  4  3  1  0
  5  4  2  0
  6  2  1  0
  7  6  2  0
  9 10  1  0
 10 11  1  0
 11 13  1  0
 11 12  1  1
 13 14  1  6
 14  6  1  0
 15 13  1  0
 15 23  1  0
 16 15  2  0
 18 17  1  0
 19 18  2  0
 20 18  1  0
 22 21  1  6
 21 20  1  0
 22 24  1  0
 22 23  1  0
 24 25  1  0
 26 24  2  0
M  END
$$$$
