DIQ.pdb
     RDKit          3D

 26 25  0  0  1  0  0  0  0  0999 V2000
   21.6951  -12.7269  -19.5491 N   0  0  0  0  0  0  0  0  0  0  0  0
   22.3675  -11.4430  -19.5876 C   0  0  1  0  0  0  0  0  0  0  0  0
   21.5069  -10.3963  -20.2513 C   0  0  0  0  0  0  0  0  0  0  0  0
   21.3534  -10.6381  -21.6987 C   0  0  0  0  0  0  0  0  0  0  0  0
   21.7456  -11.7114  -22.2211 O   0  0  0  0  0  0  0  0  0  0  0  0
   22.5995  -11.0253  -18.1698 C   0  0  0  0  0  0  0  0  0  0  0  0
   21.8588  -11.4571  -17.2506 O   0  0  0  0  0  0  0  0  0  0  0  0
   20.7745   -9.7004  -22.5432 O   0  0  0  0  0  0  0  0  0  0  0  0
   27.3056  -11.3785  -16.0053 C   0  0  0  0  0  0  0  0  0  0  0  0
   25.7846  -11.3420  -16.2437 C   0  0  0  0  0  0  0  0  0  0  0  0
   25.3963   -9.8962  -16.1439 C   0  0  2  0  0  0  0  0  0  0  0  0
   25.6822   -9.4391  -14.7163 C   0  0  0  0  0  0  0  0  0  0  0  0
   23.9925   -9.6976  -16.5066 C   0  0  2  0  0  0  0  0  0  0  0  0
   23.6305  -10.1542  -17.8296 N   0  0  0  0  0  0  0  0  0  0  0  0
   23.6409   -8.2445  -16.4840 C   0  0  0  0  0  0  0  0  0  0  0  0
   24.1906   -7.3587  -17.1712 O   0  0  0  0  0  0  0  0  0  0  0  0
   18.0340   -6.2416  -16.9127 N   0  0  0  0  0  0  0  0  0  0  0  0
   18.7079   -5.0587  -16.4957 C   0  0  0  0  0  0  0  0  0  0  0  0
   18.0188   -3.9879  -16.4528 O   0  0  0  0  0  0  0  0  0  0  0  0
   20.1351   -5.0513  -16.1206 C   0  0  0  0  0  0  0  0  0  0  0  0
   20.8297   -6.3495  -16.1710 C   0  0  0  0  0  0  0  0  0  0  0  0
   22.2173   -6.3582  -15.6667 C   0  0  2  0  0  0  0  0  0  0  0  0
   22.6048   -7.8057  -15.6216 N   0  0  0  0  0  0  0  0  0  0  0  0
   22.3694   -5.9039  -14.2894 C   0  0  0  0  0  0  0  0  0  0  0  0
   22.2903   -6.7542  -13.2057 O   0  0  0  0  0  0  0  0  0  0  0  0
   22.5862   -4.6771  -14.0377 O   0  0  0  0  0  0  0  0  0  0  0  0
  2  3  1  0
  2  1  1  1
  4  8  1  0
  4  3  1  0
  5  4  2  0
  6  2  1  0
  7  6  2  0
  9 10  1  0
 10 11  1  0
 11 13  1  0
 11 12  1  1
 13 14  1  6
 14  6  1  0
 15 13  1  0
 15 23  1  0
 16 15  2  0
 18 17  1  0
 19 18  2  0
 20 18  1  0
 22 21  1  1
 21 20  1  0
 22 24  1  0
 22 23  1  0
 24 25  1  0
 26 24  2  0
M  END
$$$$
