MRP.pdb
     RDKit          3D

 27 27  0  0  1  0  0  0  0  0999 V2000
    5.5957  -11.3178   27.1190 C   0  0  0  0  0  0  0  0  0  0  0  0
    7.0756  -12.2349   27.5357 S   0  0  0  0  0  0  0  0  0  0  0  0
    7.4217  -13.6157   26.4523 C   0  0  0  0  0  0  0  0  0  0  0  0
    6.4175  -14.7099   26.4620 C   0  0  0  0  0  0  0  0  0  0  0  0
    6.9288  -16.0730   26.1130 C   0  0  2  0  0  0  0  0  0  0  0  0
    8.1107  -16.3990   26.8706 N   0  0  0  0  0  0  0  0  0  0  0  0
    7.2173  -16.1473   24.6345 C   0  0  0  0  0  0  0  0  0  0  0  0
    6.2044  -16.0856   23.8938 O   0  0  0  0  0  0  0  0  0  0  0  0
    8.4906  -11.9981   17.7093 N   0  0  0  0  0  0  0  0  0  0  0  0
    8.0641  -13.3535   17.6428 C   0  0  0  0  0  0  0  0  0  0  0  0
    8.0368  -14.0056   16.5109 N   0  0  0  0  0  0  0  0  0  0  0  0
    7.6626  -13.9978   18.8436 N   0  0  0  0  0  0  0  0  0  0  0  0
    8.6454  -14.0465   19.9390 C   0  0  0  0  0  0  0  0  0  0  0  0
    7.9349  -14.6972   21.0985 C   0  0  0  0  0  0  0  0  0  0  0  0
    8.8845  -14.9114   22.2318 C   0  0  0  0  0  0  0  0  0  0  0  0
    8.8080  -16.3301   22.7253 C   0  0  2  0  0  0  0  0  0  0  0  0
    8.5410  -16.2758   24.1641 N   0  0  0  0  0  0  0  0  0  0  0  0
   10.1280  -17.0193   22.6008 C   0  0  0  0  0  0  0  0  0  0  0  0
   11.0782  -16.7348   23.4081 O   0  0  0  0  0  0  0  0  0  0  0  0
    7.7704  -15.0111   16.5361 N   0  0  0  0  0  0  0  0  0  0  0  0
   10.3786  -17.9997   21.6054 C   0  0  0  0  0  0  0  0  0  0  0  0
    9.4139  -18.4291   20.6177 C   0  0  0  0  0  0  0  0  0  0  0  0
    9.8871  -19.8351   20.2393 C   0  0  0  0  0  0  0  0  0  0  0  0
   11.3849  -19.5636   20.1903 C   0  0  2  0  0  0  0  0  0  0  0  0
   11.6012  -18.7366   21.4178 C   0  0  0  0  0  0  0  0  0  0  0  0
   12.7756  -17.8270   21.2811 O   0  0  0  0  0  0  0  0  0  0  0  0
   12.5404  -16.6145   21.1333 O   0  0  0  0  0  0  0  0  0  0  0  0
  2  1  1  0
  3  2  1  0
  3  4  1  0
  4  5  1  0
  5  6  1  1
  7  8  2  0
  7  5  1  0
 10  9  1  0
 10 12  1  0
 11 10  2  0
 13 12  1  0
 13 14  1  0
 14 15  1  0
 16 15  1  1
 16 17  1  0
 17  7  1  0
 18 19  2  0
 18 16  1  0
 20 18  1  0
 21 20  1  0
 22 23  1  0
 22 21  1  0
 23 24  1  0
 24 20  1  0
 24 25  1  6
 25 27  1  0
 26 25  2  0
M  END
$$$$
