MRP.pdb
     RDKit          3D

 27 27  0  0  1  0  0  0  0  0999 V2000
    7.7623  -11.7237   26.9482 C   0  0  0  0  0  0  0  0  0  0  0  0
    6.2315  -12.6512   26.9111 S   0  0  0  0  0  0  0  0  0  0  0  0
    6.3853  -14.3565   27.4294 C   0  0  0  0  0  0  0  0  0  0  0  0
    6.2232  -15.3726   26.3585 C   0  0  0  0  0  0  0  0  0  0  0  0
    7.3946  -16.2760   26.1283 C   0  0  2  0  0  0  0  0  0  0  0  0
    8.0958  -16.5483   27.3576 N   0  0  0  0  0  0  0  0  0  0  0  0
    8.3281  -15.6551   25.1194 C   0  0  0  0  0  0  0  0  0  0  0  0
    9.3506  -15.1128   25.6079 O   0  0  0  0  0  0  0  0  0  0  0  0
   12.0787  -18.3218   19.5032 N   0  0  0  0  0  0  0  0  0  0  0  0
   11.3163  -19.3069   20.1901 C   0  0  0  0  0  0  0  0  0  0  0  0
   10.7144  -20.2734   19.5492 N   0  0  0  0  0  0  0  0  0  0  0  0
   11.2179  -19.2235   21.6049 N   0  0  0  0  0  0  0  0  0  0  0  0
   11.4612  -17.9066   22.2171 C   0  0  0  0  0  0  0  0  0  0  0  0
   10.1255  -17.2078   22.2304 C   0  0  0  0  0  0  0  0  0  0  0  0
   10.2532  -15.8612   22.8650 C   0  0  0  0  0  0  0  0  0  0  0  0
    8.9555  -15.1068   22.7711 C   0  0  2  0  0  0  0  0  0  0  0  0
    8.0346  -15.7041   23.7405 N   0  0  0  0  0  0  0  0  0  0  0  0
    8.3053  -15.3101   21.4412 C   0  0  0  0  0  0  0  0  0  0  0  0
    7.7203  -16.4160   21.1761 O   0  0  0  0  0  0  0  0  0  0  0  0
   10.1611  -20.9553   20.1074 N   0  0  0  0  0  0  0  0  0  0  0  0
    8.3060  -14.3065   20.4373 C   0  0  0  0  0  0  0  0  0  0  0  0
    8.7886  -12.9570   20.6290 C   0  0  0  0  0  0  0  0  0  0  0  0
    8.0349  -12.1508   19.5679 C   0  0  0  0  0  0  0  0  0  0  0  0
    8.1336  -13.1440   18.4175 C   0  0  2  0  0  0  0  0  0  0  0  0
    7.8215  -14.4440   19.0886 C   0  0  0  0  0  0  0  0  0  0  0  0
    8.4556  -15.6007   18.3921 O   0  0  0  0  0  0  0  0  0  0  0  0
    9.5496  -15.9976   18.8313 O   0  0  0  0  0  0  0  0  0  0  0  0
  2  1  1  0
  3  2  1  0
  3  4  1  0
  4  5  1  0
  5  6  1  1
  7  8  2  0
  7  5  1  0
 10  9  1  0
 10 12  1  0
 11 10  2  0
 13 12  1  0
 13 14  1  0
 14 15  1  0
 16 15  1  6
 16 17  1  0
 17  7  1  0
 18 19  2  0
 18 16  1  0
 20 18  1  0
 21 20  1  0
 22 23  1  0
 22 21  1  0
 23 24  1  0
 24 20  1  0
 24 25  1  6
 25 27  1  0
 26 25  2  0
M  END
$$$$
