MRP.pdb
     RDKit          3D

 27 27  0  0  1  0  0  0  0  0999 V2000
    8.2629  -11.4525   19.5420 C   0  0  0  0  0  0  0  0  0  0  0  0
    8.6529  -12.7100   18.3290 S   0  0  0  0  0  0  0  0  0  0  0  0
    8.4487  -14.3894   18.9103 C   0  0  0  0  0  0  0  0  0  0  0  0
    8.0999  -14.5363   20.3465 C   0  0  0  0  0  0  0  0  0  0  0  0
    7.9203  -15.9389   20.8381 C   0  0  2  0  0  0  0  0  0  0  0  0
    7.1302  -16.7190   19.9193 N   0  0  0  0  0  0  0  0  0  0  0  0
    7.2754  -15.9237   22.2014 C   0  0  0  0  0  0  0  0  0  0  0  0
    6.0627  -15.5955   22.2096 O   0  0  0  0  0  0  0  0  0  0  0  0
    8.2206  -21.9114   22.9347 N   0  0  0  0  0  0  0  0  0  0  0  0
    6.8675  -21.5263   22.7242 C   0  0  0  0  0  0  0  0  0  0  0  0
    6.0915  -22.1814   21.9020 N   0  0  0  0  0  0  0  0  0  0  0  0
    6.3644  -20.4020   23.4321 N   0  0  0  0  0  0  0  0  0  0  0  0
    7.3522  -19.4495   23.9661 C   0  0  0  0  0  0  0  0  0  0  0  0
    6.5545  -18.3932   24.6877 C   0  0  0  0  0  0  0  0  0  0  0  0
    7.4706  -17.4276   25.3663 C   0  0  0  0  0  0  0  0  0  0  0  0
    7.4281  -16.0885   24.6830 C   0  0  2  0  0  0  0  0  0  0  0  0
    8.0169  -16.2604   23.3532 N   0  0  0  0  0  0  0  0  0  0  0  0
    8.3101  -15.0994   25.3734 C   0  0  0  0  0  0  0  0  0  0  0  0
    9.5815  -15.2244   25.3157 O   0  0  0  0  0  0  0  0  0  0  0  0
    5.1024  -21.8701   21.8160 N   0  0  0  0  0  0  0  0  0  0  0  0
    7.7873  -14.0010   26.1050 C   0  0  0  0  0  0  0  0  0  0  0  0
    6.4321  -13.5105   25.9888 C   0  0  0  0  0  0  0  0  0  0  0  0
    6.5389  -12.0488   26.4318 C   0  0  0  0  0  0  0  0  0  0  0  0
    7.4859  -12.2384   27.6094 C   0  0  2  0  0  0  0  0  0  0  0  0
    8.5004  -13.1879   27.0554 C   0  0  0  0  0  0  0  0  0  0  0  0
    9.1335  -14.0167   28.1218 O   0  0  0  0  0  0  0  0  0  0  0  0
    8.7803  -15.2068   28.2008 O   0  0  0  0  0  0  0  0  0  0  0  0
  2  1  1  0
  3  2  1  0
  3  4  1  0
  4  5  1  0
  5  6  1  6
  7  8  2  0
  7  5  1  0
 10  9  1  0
 10 12  1  0
 11 10  2  0
 13 12  1  0
 13 14  1  0
 14 15  1  0
 16 15  1  1
 16 17  1  0
 17  7  1  0
 18 19  2  0
 18 16  1  0
 20 18  1  0
 21 20  1  0
 22 23  1  0
 22 21  1  0
 23 24  1  0
 24 20  1  0
 24 25  1  1
 25 27  1  0
 26 25  2  0
M  END
$$$$
