MRP.pdb
     RDKit          3D

 27 27  0  0  1  0  0  0  0  0999 V2000
    9.3005  -11.0777   20.1556 C   0  0  0  0  0  0  0  0  0  0  0  0
    7.9008  -11.7315   19.2510 S   0  0  0  0  0  0  0  0  0  0  0  0
    7.4044  -13.3784   19.7424 C   0  0  0  0  0  0  0  0  0  0  0  0
    8.4486  -14.4280   19.6253 C   0  0  0  0  0  0  0  0  0  0  0  0
    8.0598  -15.7957   20.0940 C   0  0  2  0  0  0  0  0  0  0  0  0
    7.0893  -16.3951   19.2132 N   0  0  0  0  0  0  0  0  0  0  0  0
    7.5155  -15.7189   21.4984 C   0  0  0  0  0  0  0  0  0  0  0  0
    6.3231  -15.3325   21.5836 O   0  0  0  0  0  0  0  0  0  0  0  0
    6.3160  -21.5225   26.9619 N   0  0  0  0  0  0  0  0  0  0  0  0
    6.7829  -20.6352   27.9710 C   0  0  0  0  0  0  0  0  0  0  0  0
    6.7064  -20.9426   29.2386 N   0  0  0  0  0  0  0  0  0  0  0  0
    7.3423  -19.3911   27.5742 N   0  0  0  0  0  0  0  0  0  0  0  0
    7.8362  -19.2892   26.1908 C   0  0  0  0  0  0  0  0  0  0  0  0
    7.4214  -17.9229   25.7071 C   0  0  0  0  0  0  0  0  0  0  0  0
    7.9770  -17.6668   24.3441 C   0  0  0  0  0  0  0  0  0  0  0  0
    7.7176  -16.2457   23.9255 C   0  0  2  0  0  0  0  0  0  0  0  0
    8.3211  -16.0651   22.6034 N   0  0  0  0  0  0  0  0  0  0  0  0
    8.4322  -15.2798   24.8139 C   0  0  0  0  0  0  0  0  0  0  0  0
    9.7103  -15.2728   24.8562 O   0  0  0  0  0  0  0  0  0  0  0  0
    7.0184  -20.2307   29.9304 N   0  0  0  0  0  0  0  0  0  0  0  0
    7.7395  -14.3471   25.6295 C   0  0  0  0  0  0  0  0  0  0  0  0
    6.3154  -14.1047   25.5678 C   0  0  0  0  0  0  0  0  0  0  0  0
    6.1683  -12.6815   26.1128 C   0  0  0  0  0  0  0  0  0  0  0  0
    7.1652  -12.7751   27.2604 C   0  0  2  0  0  0  0  0  0  0  0  0
    8.3193  -13.4843   26.6256 C   0  0  0  0  0  0  0  0  0  0  0  0
    9.1200  -14.2544   27.6209 O   0  0  0  0  0  0  0  0  0  0  0  0
    8.9988  -15.4924   27.6114 O   0  0  0  0  0  0  0  0  0  0  0  0
  2  1  1  0
  3  2  1  0
  3  4  1  0
  4  5  1  0
  5  6  1  6
  7  8  2  0
  7  5  1  0
 10  9  1  0
 10 12  1  0
 11 10  2  0
 13 12  1  0
 13 14  1  0
 14 15  1  0
 16 15  1  1
 16 17  1  0
 17  7  1  0
 18 19  2  0
 18 16  1  0
 20 18  1  0
 21 20  1  0
 22 23  1  0
 22 21  1  0
 23 24  1  0
 24 20  1  0
 24 25  1  1
 25 27  1  0
 26 25  2  0
M  END
$$$$
