CHM.pdb
     RDKit          3D

 25 25  0  0  1  0  0  0  0  0999 V2000
   26.1622  -11.7727  -17.9535 N   0  0  0  0  0  0  0  0  0  0  0  0
   26.1513  -10.9265  -16.7818 C   0  0  1  0  0  0  0  0  0  0  0  0
   27.4345  -10.1501  -16.6697 C   0  0  0  0  0  0  0  0  0  0  0  0
   28.8353  -11.2219  -16.2604 S   0  0  0  0  0  0  0  0  0  0  0  0
   24.9540  -10.0627  -16.7224 C   0  0  0  0  0  0  0  0  0  0  0  0
   24.6591   -9.4013  -17.7432 O   0  0  0  0  0  0  0  0  0  0  0  0
   24.1242   -9.9379  -15.5875 N   0  0  0  0  0  0  0  0  0  0  0  0
   22.9259   -9.1287  -15.5461 C   0  0  1  0  0  0  0  0  0  0  0  0
   22.0781   -9.5998  -14.3785 C   0  0  0  0  0  0  0  0  0  0  0  0
   20.7296   -8.9781  -14.3957 C   0  0  0  0  0  0  0  0  0  0  0  0
   20.2415   -8.1118  -15.3532 C   0  0  0  0  0  0  0  0  0  0  0  0
   18.9725   -7.7592  -15.0249 N   0  0  0  0  0  0  0  0  0  0  0  0
   18.6571   -8.3869  -13.8821 C   0  0  0  0  0  0  0  0  0  0  0  0
   19.7189   -9.1195  -13.5080 N   0  0  0  0  0  0  0  0  0  0  0  0
   23.2153   -7.6967  -15.3468 C   0  0  0  0  0  0  0  0  0  0  0  0
   24.1603   -7.3852  -14.5779 O   0  0  0  0  0  0  0  0  0  0  0  0
   24.8489   -0.9692  -18.6248 C   0  0  0  0  0  0  0  0  0  0  0  0
   24.2873   -2.6794  -18.8394 S   0  0  0  0  0  0  0  0  0  0  0  0
   23.8046   -3.3193  -17.2367 C   0  0  0  0  0  0  0  0  0  0  0  0
   23.3439   -4.7553  -17.2848 C   0  0  0  0  0  0  0  0  0  0  0  0
   22.9061   -5.2649  -15.9342 C   0  0  2  0  0  0  0  0  0  0  0  0
   22.4999   -6.6381  -15.9639 N   0  0  0  0  0  0  0  0  0  0  0  0
   21.7735   -4.4271  -15.4879 C   0  0  0  0  0  0  0  0  0  0  0  0
   20.6247   -4.7091  -15.9009 O   0  0  0  0  0  0  0  0  0  0  0  0
   21.8966   -3.3400  -14.6350 O   0  0  0  0  0  0  0  0  0  0  0  0
  2  1  1  6
  3  2  1  0
  4  3  1  0
  5  2  1  0
  5  6  2  0
  7  5  1  0
  8  7  1  0
  8  9  1  1
 10  9  1  0
 10 14  1  0
 11 12  1  0
 11 10  2  0
 12 13  1  0
 13 14  2  0
 15  8  1  0
 16 15  2  0
 18 17  1  0
 19 18  1  0
 20 19  1  0
 21 20  1  6
 21 22  1  0
 22 15  1  0
 23 21  1  0
 24 23  2  0
 25 23  1  0
M  END
$$$$
