CHM.pdb
     RDKit          3D

 25 25  0  0  1  0  0  0  0  0999 V2000
   19.6032  -16.7025  -17.5041 N   0  0  0  0  0  0  0  0  0  0  0  0
   19.1929  -15.3178  -17.4445 C   0  0  1  0  0  0  0  0  0  0  0  0
   18.6355  -14.9821  -16.0885 C   0  0  0  0  0  0  0  0  0  0  0  0
   17.2424  -13.8309  -16.2003 S   0  0  0  0  0  0  0  0  0  0  0  0
   20.2665  -14.3940  -17.8654 C   0  0  0  0  0  0  0  0  0  0  0  0
   21.4499  -14.7280  -17.6323 O   0  0  0  0  0  0  0  0  0  0  0  0
   20.0398  -13.1605  -18.5129 N   0  0  0  0  0  0  0  0  0  0  0  0
   21.0924  -12.3025  -19.0112 C   0  0  1  0  0  0  0  0  0  0  0  0
   20.4869  -11.3570  -20.0327 C   0  0  0  0  0  0  0  0  0  0  0  0
   20.3741  -11.9950  -21.3690 C   0  0  0  0  0  0  0  0  0  0  0  0
   21.0335  -13.1325  -21.7896 C   0  0  0  0  0  0  0  0  0  0  0  0
   20.6735  -13.4044  -23.0698 N   0  0  0  0  0  0  0  0  0  0  0  0
   19.8029  -12.4608  -23.4584 C   0  0  0  0  0  0  0  0  0  0  0  0
   19.6264  -11.6148  -22.4301 N   0  0  0  0  0  0  0  0  0  0  0  0
   21.7095  -11.4868  -17.9492 C   0  0  0  0  0  0  0  0  0  0  0  0
   20.9557  -10.9745  -17.0829 O   0  0  0  0  0  0  0  0  0  0  0  0
   27.7982  -10.4813  -13.4549 C   0  0  0  0  0  0  0  0  0  0  0  0
   27.5349  -10.3621  -15.2444 S   0  0  0  0  0  0  0  0  0  0  0  0
   25.8161   -9.9466  -15.5347 C   0  0  0  0  0  0  0  0  0  0  0  0
   25.1559  -10.8335  -16.5615 C   0  0  0  0  0  0  0  0  0  0  0  0
   23.7014  -10.4914  -16.7676 C   0  0  2  0  0  0  0  0  0  0  0  0
   23.1013  -11.2367  -17.8336 N   0  0  0  0  0  0  0  0  0  0  0  0
   23.6223   -9.0476  -17.0726 C   0  0  0  0  0  0  0  0  0  0  0  0
   23.6671   -8.6885  -18.2721 O   0  0  0  0  0  0  0  0  0  0  0  0
   23.5007   -8.0536  -16.1125 O   0  0  0  0  0  0  0  0  0  0  0  0
  2  1  1  1
  3  2  1  0
  4  3  1  0
  5  2  1  0
  5  6  2  0
  7  5  1  0
  8  7  1  0
  8  9  1  6
 10  9  1  0
 10 14  1  0
 11 12  1  0
 11 10  2  0
 12 13  1  0
 13 14  2  0
 15  8  1  0
 16 15  2  0
 18 17  1  0
 19 18  1  0
 20 19  1  0
 21 20  1  6
 21 22  1  0
 22 15  1  0
 23 21  1  0
 24 23  2  0
 25 23  1  0
M  END
$$$$
