CHM.pdb
     RDKit          3D

 25 25  0  0  1  0  0  0  0  0999 V2000
   25.8729  -14.5012  -16.7632 N   0  0  0  0  0  0  0  0  0  0  0  0
   25.7954  -13.3533  -15.8883 C   0  0  1  0  0  0  0  0  0  0  0  0
   27.1287  -12.6644  -15.7889 C   0  0  0  0  0  0  0  0  0  0  0  0
   28.3751  -13.7211  -15.0088 S   0  0  0  0  0  0  0  0  0  0  0  0
   24.7031  -12.4320  -16.2640 C   0  0  0  0  0  0  0  0  0  0  0  0
   24.3874  -12.3616  -17.4730 O   0  0  0  0  0  0  0  0  0  0  0  0
   23.9952  -11.6280  -15.3449 N   0  0  0  0  0  0  0  0  0  0  0  0
   22.8988  -10.7571  -15.7082 C   0  0  1  0  0  0  0  0  0  0  0  0
   21.6469  -11.2585  -15.0116 C   0  0  0  0  0  0  0  0  0  0  0  0
   21.1752  -12.5418  -15.5911 C   0  0  0  0  0  0  0  0  0  0  0  0
   21.0683  -13.7476  -14.9276 C   0  0  0  0  0  0  0  0  0  0  0  0
   20.6014  -14.6867  -15.7892 N   0  0  0  0  0  0  0  0  0  0  0  0
   20.4142  -14.0933  -16.9776 C   0  0  0  0  0  0  0  0  0  0  0  0
   20.7614  -12.8019  -16.8523 N   0  0  0  0  0  0  0  0  0  0  0  0
   23.1213   -9.3608  -15.2901 C   0  0  0  0  0  0  0  0  0  0  0  0
   23.6139   -9.1552  -14.1516 O   0  0  0  0  0  0  0  0  0  0  0  0
   24.0843   -1.7671  -17.2642 C   0  0  0  0  0  0  0  0  0  0  0  0
   23.5544   -3.3897  -17.8744 S   0  0  0  0  0  0  0  0  0  0  0  0
   23.4961   -4.5221  -16.4868 C   0  0  0  0  0  0  0  0  0  0  0  0
   23.1323   -5.9312  -16.8851 C   0  0  0  0  0  0  0  0  0  0  0  0
   23.1125   -6.8750  -15.7086 C   0  0  2  0  0  0  0  0  0  0  0  0
   22.8177   -8.2253  -16.0848 N   0  0  0  0  0  0  0  0  0  0  0  0
   22.0816   -6.3912  -14.7668 C   0  0  0  0  0  0  0  0  0  0  0  0
   20.9122   -6.8237  -14.8897 O   0  0  0  0  0  0  0  0  0  0  0  0
   22.3226   -5.4825  -13.7466 O   0  0  0  0  0  0  0  0  0  0  0  0
  2  1  1  6
  3  2  1  0
  4  3  1  0
  5  2  1  0
  5  6  2  0
  7  5  1  0
  8  7  1  0
  8  9  1  1
 10  9  1  0
 10 14  1  0
 11 12  1  0
 11 10  2  0
 12 13  1  0
 13 14  2  0
 15  8  1  0
 16 15  2  0
 18 17  1  0
 19 18  1  0
 20 19  1  0
 21 20  1  6
 21 22  1  0
 22 15  1  0
 23 21  1  0
 24 23  2  0
 25 23  1  0
M  END
$$$$
