CHM.pdb
     RDKit          3D

 25 25  0  0  1  0  0  0  0  0999 V2000
   24.0827  -19.9309   -8.5885 N   0  0  0  0  0  0  0  0  0  0  0  0
   23.8037  -20.7471   -9.7483 C   0  0  1  0  0  0  0  0  0  0  0  0
   22.3697  -21.2006   -9.7519 C   0  0  0  0  0  0  0  0  0  0  0  0
   21.9716  -22.1838   -8.2844 S   0  0  0  0  0  0  0  0  0  0  0  0
   24.1968  -20.0859  -11.0097 C   0  0  0  0  0  0  0  0  0  0  0  0
   23.8829  -18.8840  -11.1623 O   0  0  0  0  0  0  0  0  0  0  0  0
   24.9033  -20.7251  -12.0511 N   0  0  0  0  0  0  0  0  0  0  0  0
   25.3096  -20.0695  -13.2749 C   0  0  1  0  0  0  0  0  0  0  0  0
   26.6686  -20.6151  -13.6740 C   0  0  0  0  0  0  0  0  0  0  0  0
   27.1817  -19.9591  -14.9035 C   0  0  0  0  0  0  0  0  0  0  0  0
   26.5643  -18.9440  -15.6064 C   0  0  0  0  0  0  0  0  0  0  0  0
   27.3381  -18.6084  -16.6699 N   0  0  0  0  0  0  0  0  0  0  0  0
   28.4263  -19.3924  -16.6466 C   0  0  0  0  0  0  0  0  0  0  0  0
   28.3267  -20.2037  -15.5808 N   0  0  0  0  0  0  0  0  0  0  0  0
   24.3764  -20.3194  -14.3888 C   0  0  0  0  0  0  0  0  0  0  0  0
   24.0072  -21.5031  -14.5975 O   0  0  0  0  0  0  0  0  0  0  0  0
   19.6308  -18.4605  -12.1218 C   0  0  0  0  0  0  0  0  0  0  0  0
   19.6689  -18.6436  -13.9249 S   0  0  0  0  0  0  0  0  0  0  0  0
   21.3397  -19.0692  -14.4130 C   0  0  0  0  0  0  0  0  0  0  0  0
   21.5042  -19.2122  -15.9060 C   0  0  0  0  0  0  0  0  0  0  0  0
   22.9194  -19.5559  -16.2989 C   0  0  2  0  0  0  0  0  0  0  0  0
   23.8618  -19.3140  -15.2476 N   0  0  0  0  0  0  0  0  0  0  0  0
   23.2693  -18.7284  -17.4723 C   0  0  0  0  0  0  0  0  0  0  0  0
   24.1572  -17.8542  -17.3415 O   0  0  0  0  0  0  0  0  0  0  0  0
   22.6763  -18.8549  -18.7200 O   0  0  0  0  0  0  0  0  0  0  0  0
  2  1  1  1
  3  2  1  0
  4  3  1  0
  5  2  1  0
  5  6  2  0
  7  5  1  0
  8  7  1  0
  8  9  1  6
 10  9  1  0
 10 14  1  0
 11 12  1  0
 11 10  2  0
 12 13  1  0
 13 14  2  0
 15  8  1  0
 16 15  2  0
 18 17  1  0
 19 18  1  0
 20 19  1  0
 21 20  1  1
 21 22  1  0
 22 15  1  0
 23 21  1  0
 24 23  2  0
 25 23  1  0
M  END
$$$$
