CHM.pdb
     RDKit          3D

 25 25  0  0  1  0  0  0  0  0999 V2000
   27.7833  -21.6678  -17.8574 N   0  0  0  0  0  0  0  0  0  0  0  0
   28.0019  -22.0488  -16.4804 C   0  0  1  0  0  0  0  0  0  0  0  0
   29.4653  -22.0003  -16.1369 C   0  0  0  0  0  0  0  0  0  0  0  0
   29.7540  -22.3173  -14.3777 S   0  0  0  0  0  0  0  0  0  0  0  0
   27.1686  -21.2693  -15.5416 C   0  0  0  0  0  0  0  0  0  0  0  0
   27.2141  -20.0209  -15.6178 O   0  0  0  0  0  0  0  0  0  0  0  0
   26.3263  -21.8449  -14.5663 N   0  0  0  0  0  0  0  0  0  0  0  0
   25.5127  -21.0804  -13.6465 C   0  0  1  0  0  0  0  0  0  0  0  0
   24.0546  -21.3291  -13.9871 C   0  0  0  0  0  0  0  0  0  0  0  0
   23.2043  -20.1638  -13.6347 C   0  0  0  0  0  0  0  0  0  0  0  0
   23.6309  -18.9877  -13.0512 C   0  0  0  0  0  0  0  0  0  0  0  0
   22.5647  -18.1644  -12.8849 N   0  0  0  0  0  0  0  0  0  0  0  0
   21.4803  -18.8011  -13.3521 C   0  0  0  0  0  0  0  0  0  0  0  0
   21.8716  -20.0046  -13.8024 N   0  0  0  0  0  0  0  0  0  0  0  0
   25.7231  -21.4745  -12.2413 C   0  0  0  0  0  0  0  0  0  0  0  0
   25.5863  -22.6875  -11.9399 O   0  0  0  0  0  0  0  0  0  0  0  0
   27.8892  -19.7358   -4.8217 C   0  0  0  0  0  0  0  0  0  0  0  0
   27.7687  -19.0793   -6.5071 S   0  0  0  0  0  0  0  0  0  0  0  0
   26.8832  -20.2686   -7.5132 C   0  0  0  0  0  0  0  0  0  0  0  0
   26.8649  -19.9101   -8.9787 C   0  0  0  0  0  0  0  0  0  0  0  0
   26.1472  -20.9404   -9.8145 C   0  0  2  0  0  0  0  0  0  0  0  0
   26.0709  -20.5778  -11.1981 N   0  0  0  0  0  0  0  0  0  0  0  0
   24.7815  -21.0842   -9.2684 C   0  0  0  0  0  0  0  0  0  0  0  0
   24.6251  -21.7598   -8.2249 O   0  0  0  0  0  0  0  0  0  0  0  0
   23.6507  -20.5169   -9.8375 O   0  0  0  0  0  0  0  0  0  0  0  0
  2  1  1  6
  3  2  1  0
  4  3  1  0
  5  2  1  0
  5  6  2  0
  7  5  1  0
  8  7  1  0
  8  9  1  6
 10  9  1  0
 10 14  1  0
 11 12  1  0
 11 10  2  0
 12 13  1  0
 13 14  2  0
 15  8  1  0
 16 15  2  0
 18 17  1  0
 19 18  1  0
 20 19  1  0
 21 20  1  1
 21 22  1  0
 22 15  1  0
 23 21  1  0
 24 23  2  0
 25 23  1  0
M  END
$$$$
