CHM.pdb
     RDKit          3D

 25 25  0  0  1  0  0  0  0  0999 V2000
   21.8273  -14.2505  -20.1571 N   0  0  0  0  0  0  0  0  0  0  0  0
   20.9887  -13.5821  -19.1881 C   0  0  1  0  0  0  0  0  0  0  0  0
   20.8890  -14.3858  -17.9208 C   0  0  0  0  0  0  0  0  0  0  0  0
   19.1672  -14.7103  -17.4640 S   0  0  0  0  0  0  0  0  0  0  0  0
   21.4090  -12.1861  -18.9477 C   0  0  0  0  0  0  0  0  0  0  0  0
   22.5905  -11.9852  -18.5871 O   0  0  0  0  0  0  0  0  0  0  0  0
   20.5616  -11.0676  -19.0993 N   0  0  0  0  0  0  0  0  0  0  0  0
   20.9348   -9.7155  -18.7455 C   0  0  1  0  0  0  0  0  0  0  0  0
   20.2268   -8.7665  -19.6951 C   0  0  0  0  0  0  0  0  0  0  0  0
   20.8495   -8.7762  -21.0433 C   0  0  0  0  0  0  0  0  0  0  0  0
   20.3242   -9.3537  -22.1818 C   0  0  0  0  0  0  0  0  0  0  0  0
   21.1821   -9.1548  -23.2147 N   0  0  0  0  0  0  0  0  0  0  0  0
   22.2327   -8.4651  -22.7458 C   0  0  0  0  0  0  0  0  0  0  0  0
   22.0269   -8.2399  -21.4377 N   0  0  0  0  0  0  0  0  0  0  0  0
   20.5389   -9.3594  -17.3705 C   0  0  0  0  0  0  0  0  0  0  0  0
   19.3965   -9.7054  -16.9752 O   0  0  0  0  0  0  0  0  0  0  0  0
   22.4477   -9.3229   -9.8961 C   0  0  0  0  0  0  0  0  0  0  0  0
   22.9209   -9.6917  -11.6067 S   0  0  0  0  0  0  0  0  0  0  0  0
   21.7118   -8.9462  -12.6991 C   0  0  0  0  0  0  0  0  0  0  0  0
   21.9685   -9.2384  -14.1569 C   0  0  0  0  0  0  0  0  0  0  0  0
   21.0492   -8.4655  -15.0695 C   0  0  2  0  0  0  0  0  0  0  0  0
   21.3591   -8.6499  -16.4557 N   0  0  0  0  0  0  0  0  0  0  0  0
   21.1779   -7.0345  -14.7234 C   0  0  0  0  0  0  0  0  0  0  0  0
   21.9077   -6.3114  -15.4405 O   0  0  0  0  0  0  0  0  0  0  0  0
   20.5400   -6.4319  -13.6490 O   0  0  0  0  0  0  0  0  0  0  0  0
  2  1  1  6
  3  2  1  0
  4  3  1  0
  5  2  1  0
  5  6  2  0
  7  5  1  0
  8  7  1  0
  8  9  1  6
 10  9  1  0
 10 14  1  0
 11 12  1  0
 11 10  2  0
 12 13  1  0
 13 14  2  0
 15  8  1  0
 16 15  2  0
 18 17  1  0
 19 18  1  0
 20 19  1  0
 21 20  1  1
 21 22  1  0
 22 15  1  0
 23 21  1  0
 24 23  2  0
 25 23  1  0
M  END
$$$$
