CHM.pdb
     RDKit          3D

 25 25  0  0  1  0  0  0  0  0999 V2000
   27.1813  -15.2547  -17.4491 N   0  0  0  0  0  0  0  0  0  0  0  0
   26.4639  -15.5345  -16.2259 C   0  0  1  0  0  0  0  0  0  0  0  0
   25.6348  -14.3511  -15.8085 C   0  0  0  0  0  0  0  0  0  0  0  0
   26.5206  -13.2875  -14.6413 S   0  0  0  0  0  0  0  0  0  0  0  0
   25.6775  -16.7827  -16.3075 C   0  0  0  0  0  0  0  0  0  0  0  0
   25.0262  -16.9959  -17.3547 O   0  0  0  0  0  0  0  0  0  0  0  0
   25.6158  -17.7474  -15.2790 N   0  0  0  0  0  0  0  0  0  0  0  0
   24.8149  -18.9502  -15.3445 C   0  0  1  0  0  0  0  0  0  0  0  0
   25.6212  -20.0875  -14.7444 C   0  0  0  0  0  0  0  0  0  0  0  0
   26.6024  -20.6344  -15.7157 C   0  0  0  0  0  0  0  0  0  0  0  0
   26.7350  -20.2646  -17.0391 C   0  0  0  0  0  0  0  0  0  0  0  0
   27.7389  -20.9849  -17.6011 N   0  0  0  0  0  0  0  0  0  0  0  0
   28.2367  -21.7973  -16.6568 C   0  0  0  0  0  0  0  0  0  0  0  0
   27.5484  -21.5818  -15.5236 N   0  0  0  0  0  0  0  0  0  0  0  0
   23.5571  -18.8360  -14.5835 C   0  0  0  0  0  0  0  0  0  0  0  0
   23.5327  -18.0615  -13.5932 O   0  0  0  0  0  0  0  0  0  0  0  0
   19.8910  -14.7053  -13.4551 C   0  0  0  0  0  0  0  0  0  0  0  0
   18.9278  -15.6473  -14.6680 S   0  0  0  0  0  0  0  0  0  0  0  0
   19.2825  -17.3888  -14.4393 C   0  0  0  0  0  0  0  0  0  0  0  0
   20.6612  -17.7810  -14.9105 C   0  0  0  0  0  0  0  0  0  0  0  0
   21.0610  -19.1568  -14.4386 C   0  0  2  0  0  0  0  0  0  0  0  0
   22.3649  -19.5415  -14.8901 N   0  0  0  0  0  0  0  0  0  0  0  0
   20.0602  -20.1133  -14.9556 C   0  0  0  0  0  0  0  0  0  0  0  0
   20.3251  -20.7438  -16.0054 O   0  0  0  0  0  0  0  0  0  0  0  0
   18.8362  -20.3630  -14.3522 O   0  0  0  0  0  0  0  0  0  0  0  0
  2  1  1  6
  3  2  1  0
  4  3  1  0
  5  2  1  0
  5  6  2  0
  7  5  1  0
  8  7  1  0
  8  9  1  1
 10  9  1  0
 10 14  1  0
 11 12  1  0
 11 10  2  0
 12 13  1  0
 13 14  2  0
 15  8  1  0
 16 15  2  0
 18 17  1  0
 19 18  1  0
 20 19  1  0
 21 20  1  6
 21 22  1  0
 22 15  1  0
 23 21  1  0
 24 23  2  0
 25 23  1  0
M  END
$$$$
