CHM.pdb
     RDKit          3D

 25 25  0  0  1  0  0  0  0  0999 V2000
   26.5542  -20.6610  -13.2681 N   0  0  0  0  0  0  0  0  0  0  0  0
   25.6496  -21.6382  -12.7062 C   0  0  1  0  0  0  0  0  0  0  0  0
   26.0059  -21.9382  -11.2762 C   0  0  0  0  0  0  0  0  0  0  0  0
   27.7131  -21.4699  -10.8960 S   0  0  0  0  0  0  0  0  0  0  0  0
   24.2324  -21.2552  -12.8735 C   0  0  0  0  0  0  0  0  0  0  0  0
   23.8106  -20.2751  -12.2194 O   0  0  0  0  0  0  0  0  0  0  0  0
   23.3270  -21.9253  -13.7240 N   0  0  0  0  0  0  0  0  0  0  0  0
   21.9460  -21.5345  -13.9050 C   0  0  1  0  0  0  0  0  0  0  0  0
   21.7717  -21.0668  -15.3384 C   0  0  0  0  0  0  0  0  0  0  0  0
   22.3199  -19.7012  -15.5386 C   0  0  0  0  0  0  0  0  0  0  0  0
   22.7872  -18.8557  -14.5526 C   0  0  0  0  0  0  0  0  0  0  0  0
   23.2056  -17.6980  -15.1244 N   0  0  0  0  0  0  0  0  0  0  0  0
   23.0098  -17.8020  -16.4474 C   0  0  0  0  0  0  0  0  0  0  0  0
   22.4762  -19.0104  -16.6909 N   0  0  0  0  0  0  0  0  0  0  0  0
   21.0069  -22.6476  -13.6745 C   0  0  0  0  0  0  0  0  0  0  0  0
   21.3583  -23.8016  -14.0293 O   0  0  0  0  0  0  0  0  0  0  0  0
   18.8617  -23.8195   -7.4424 C   0  0  0  0  0  0  0  0  0  0  0  0
   17.7612  -23.7211   -8.8795 S   0  0  0  0  0  0  0  0  0  0  0  0
   18.7667  -23.7507  -10.3624 C   0  0  0  0  0  0  0  0  0  0  0  0
   17.9891  -23.4253  -11.6138 C   0  0  0  0  0  0  0  0  0  0  0  0
   18.8150  -23.5933  -12.8648 C   0  0  2  0  0  0  0  0  0  0  0  0
   19.7272  -22.5096  -13.0775 N   0  0  0  0  0  0  0  0  0  0  0  0
   17.8811  -23.6806  -14.0067 C   0  0  0  0  0  0  0  0  0  0  0  0
   17.6711  -22.6484  -14.6850 O   0  0  0  0  0  0  0  0  0  0  0  0
   17.2152  -24.8382  -14.3823 O   0  0  0  0  0  0  0  0  0  0  0  0
  2  1  1  1
  3  2  1  0
  4  3  1  0
  5  2  1  0
  5  6  2  0
  7  5  1  0
  8  7  1  0
  8  9  1  6
 10  9  1  0
 10 14  1  0
 11 12  1  0
 11 10  2  0
 12 13  1  0
 13 14  2  0
 15  8  1  0
 16 15  2  0
 18 17  1  0
 19 18  1  0
 20 19  1  0
 21 20  1  1
 21 22  1  0
 22 15  1  0
 23 21  1  0
 24 23  2  0
 25 23  1  0
M  END
$$$$
