CHM.pdb
     RDKit          3D

 25 25  0  0  1  0  0  0  0  0999 V2000
   23.1574  -13.2541  -16.5541 N   0  0  0  0  0  0  0  0  0  0  0  0
   22.7493  -12.2682  -15.5792 C   0  0  1  0  0  0  0  0  0  0  0  0
   23.8121  -12.0781  -14.5322 C   0  0  0  0  0  0  0  0  0  0  0  0
   25.3717  -11.5066  -15.2530 S   0  0  0  0  0  0  0  0  0  0  0  0
   22.3305  -10.9971  -16.2054 C   0  0  0  0  0  0  0  0  0  0  0  0
   22.6458  -10.8026  -17.4008 O   0  0  0  0  0  0  0  0  0  0  0  0
   21.5983   -9.9908  -15.5394 N   0  0  0  0  0  0  0  0  0  0  0  0
   21.0683   -8.8117  -16.1885 C   0  0  1  0  0  0  0  0  0  0  0  0
   19.5707   -8.7715  -15.9448 C   0  0  0  0  0  0  0  0  0  0  0  0
   18.8759   -9.8950  -16.6232 C   0  0  0  0  0  0  0  0  0  0  0  0
   18.1309  -10.8834  -16.0118 C   0  0  0  0  0  0  0  0  0  0  0  0
   17.6558  -11.7299  -16.9606 N   0  0  0  0  0  0  0  0  0  0  0  0
   18.0882  -11.2914  -18.1523 C   0  0  0  0  0  0  0  0  0  0  0  0
   18.8223  -10.1863  -17.9429 N   0  0  0  0  0  0  0  0  0  0  0  0
   21.6471   -7.5638  -15.6576 C   0  0  0  0  0  0  0  0  0  0  0  0
   22.0019   -7.5420  -14.4515 O   0  0  0  0  0  0  0  0  0  0  0  0
   24.9166   -0.4776  -17.0510 C   0  0  0  0  0  0  0  0  0  0  0  0
   24.1708   -1.9405  -17.8190 S   0  0  0  0  0  0  0  0  0  0  0  0
   23.6186   -3.0408  -16.5170 C   0  0  0  0  0  0  0  0  0  0  0  0
   22.9749   -4.3020  -17.0384 C   0  0  0  0  0  0  0  0  0  0  0  0
   22.5017   -5.2078  -15.9289 C   0  0  2  0  0  0  0  0  0  0  0  0
   21.8338   -6.3782  -16.4145 N   0  0  0  0  0  0  0  0  0  0  0  0
   21.5741   -4.4285  -15.0827 C   0  0  0  0  0  0  0  0  0  0  0  0
   20.3546   -4.4387  -15.3694 O   0  0  0  0  0  0  0  0  0  0  0  0
   21.9654   -3.6795  -13.9824 O   0  0  0  0  0  0  0  0  0  0  0  0
  2  1  1  6
  3  2  1  0
  4  3  1  0
  5  2  1  0
  5  6  2  0
  7  5  1  0
  8  7  1  0
  8  9  1  1
 10  9  1  0
 10 14  1  0
 11 12  1  0
 11 10  2  0
 12 13  1  0
 13 14  2  0
 15  8  1  0
 16 15  2  0
 18 17  1  0
 19 18  1  0
 20 19  1  0
 21 20  1  6
 21 22  1  0
 22 15  1  0
 23 21  1  0
 24 23  2  0
 25 23  1  0
M  END
$$$$
