CHM.pdb
     RDKit          3D

 25 25  0  0  1  0  0  0  0  0999 V2000
   19.7424  -12.3905  -16.7595 N   0  0  0  0  0  0  0  0  0  0  0  0
   19.7491  -10.9888  -17.1121 C   0  0  1  0  0  0  0  0  0  0  0  0
   18.3477  -10.4479  -17.1852 C   0  0  0  0  0  0  0  0  0  0  0  0
   18.3277   -8.6864  -17.6035 S   0  0  0  0  0  0  0  0  0  0  0  0
   20.6242  -10.1904  -16.2289 C   0  0  0  0  0  0  0  0  0  0  0  0
   20.4240  -10.2539  -14.9951 O   0  0  0  0  0  0  0  0  0  0  0  0
   21.6698   -9.3622  -16.6903 N   0  0  0  0  0  0  0  0  0  0  0  0
   22.5358   -8.5933  -15.8235 C   0  0  1  0  0  0  0  0  0  0  0  0
   23.9550   -8.7116  -16.3486 C   0  0  0  0  0  0  0  0  0  0  0  0
   24.5207  -10.0613  -16.0963 C   0  0  0  0  0  0  0  0  0  0  0  0
   23.9301  -11.0707  -15.3629 C   0  0  0  0  0  0  0  0  0  0  0  0
   24.7505  -12.1521  -15.3581 N   0  0  0  0  0  0  0  0  0  0  0  0
   25.8417  -11.8399  -16.0732 C   0  0  0  0  0  0  0  0  0  0  0  0
   25.6977  -10.5797  -16.5152 N   0  0  0  0  0  0  0  0  0  0  0  0
   22.1820   -7.1622  -15.7934 C   0  0  0  0  0  0  0  0  0  0  0  0
   21.9368   -6.5899  -16.8858 O   0  0  0  0  0  0  0  0  0  0  0  0
   17.7711   -3.0912  -17.6875 C   0  0  0  0  0  0  0  0  0  0  0  0
   18.1241   -4.1043  -16.2263 S   0  0  0  0  0  0  0  0  0  0  0  0
   19.8573   -3.9135  -15.8136 C   0  0  0  0  0  0  0  0  0  0  0  0
   20.2785   -4.7386  -14.6226 C   0  0  0  0  0  0  0  0  0  0  0  0
   21.7662   -4.9860  -14.5909 C   0  0  2  0  0  0  0  0  0  0  0  0
   22.0979   -6.3793  -14.6130 N   0  0  0  0  0  0  0  0  0  0  0  0
   22.2930   -4.3752  -13.3527 C   0  0  0  0  0  0  0  0  0  0  0  0
   22.7045   -5.1323  -12.4432 O   0  0  0  0  0  0  0  0  0  0  0  0
   22.3636   -3.0083  -13.1267 O   0  0  0  0  0  0  0  0  0  0  0  0
  2  1  1  1
  3  2  1  0
  4  3  1  0
  5  2  1  0
  5  6  2  0
  7  5  1  0
  8  7  1  0
  8  9  1  6
 10  9  1  0
 10 14  1  0
 11 12  1  0
 11 10  2  0
 12 13  1  0
 13 14  2  0
 15  8  1  0
 16 15  2  0
 18 17  1  0
 19 18  1  0
 20 19  1  0
 21 20  1  1
 21 22  1  0
 22 15  1  0
 23 21  1  0
 24 23  2  0
 25 23  1  0
M  END
$$$$
