TPI.pdb
     RDKit          3D

 23 23  0  0  1  0  0  0  0  0999 V2000
   28.2606  -19.2064  -11.8765 C   0  0  0  0  0  0  0  0  0  0  0  0
   26.9434  -19.9269  -12.0915 C   0  0  1  0  0  0  0  0  0  0  0  0
   26.5251  -19.6408  -13.3860 O   0  0  0  0  0  0  0  0  0  0  0  0
   27.2260  -21.4157  -11.9204 C   0  0  2  0  0  0  0  0  0  0  0  0
   26.0613  -22.1278  -12.3119 N   0  0  0  0  0  0  0  0  0  0  0  0
   27.7687  -21.7260  -10.5953 C   0  0  0  0  0  0  0  0  0  0  0  0
   26.9136  -22.2116   -9.7700 O   0  0  0  0  0  0  0  0  0  0  0  0
   29.0805  -21.5563  -10.1414 N   0  0  0  0  0  0  0  0  0  0  0  0
   30.2879  -21.0573  -10.7597 C   0  0  0  0  0  0  0  0  0  0  0  0
   31.2885  -22.1406  -10.4187 C   0  0  0  0  0  0  0  0  0  0  0  0
   30.9162  -22.4581   -8.9880 C   0  0  0  0  0  0  0  0  0  0  0  0
   29.5282  -21.8973   -8.7814 C   0  0  1  0  0  0  0  0  0  0  0  0
   29.5885  -20.6813   -7.9355 C   0  0  0  0  0  0  0  0  0  0  0  0
   29.5818  -19.5639   -8.5122 O   0  0  0  0  0  0  0  0  0  0  0  0
   27.2947  -20.6173   -3.0559 C   0  0  0  0  0  0  0  0  0  0  0  0
   27.3897  -20.9791   -4.5106 C   0  0  0  0  0  0  0  0  0  0  0  0
   27.7166  -19.7948   -5.3390 C   0  0  2  0  0  0  0  0  0  0  0  0
   26.9425  -19.8553   -6.6684 C   0  0  0  0  0  0  0  0  0  0  0  0
   29.1509  -19.6119   -5.7179 C   0  0  2  0  0  0  0  0  0  0  0  0
   29.6523  -20.6886   -6.5400 N   0  0  0  0  0  0  0  0  0  0  0  0
   30.0573  -19.2440   -4.6220 C   0  0  0  0  0  0  0  0  0  0  0  0
   30.9589  -20.1597   -4.0938 O   0  0  0  0  0  0  0  0  0  0  0  0
   30.0908  -18.0980   -4.0842 O   0  0  0  0  0  0  0  0  0  0  0  0
  2  1  1  6
  3  2  1  0
  4  2  1  0
  4  5  1  1
  6  4  1  0
  7  6  2  0
  8  6  1  0
  8 12  1  0
  9 10  1  0
  9  8  1  0
 10 11  1  0
 11 12  1  0
 12 13  1  1
 13 14  2  0
 16 15  1  0
 17 16  1  0
 17 18  1  6
 19 20  1  1
 19 17  1  0
 20 13  1  0
 21 19  1  0
 22 21  1  0
 23 21  2  0
M  END
$$$$
