TPI.pdb
     RDKit          3D

 23 23  0  0  1  0  0  0  0  0999 V2000
   19.8183   -9.9451  -18.6909 C   0  0  0  0  0  0  0  0  0  0  0  0
   18.7399  -10.8052  -18.0605 C   0  0  1  0  0  0  0  0  0  0  0  0
   18.2403  -11.6346  -19.0580 O   0  0  0  0  0  0  0  0  0  0  0  0
   19.4145  -11.6144  -16.9579 C   0  0  2  0  0  0  0  0  0  0  0  0
   18.5091  -12.6281  -16.5457 N   0  0  0  0  0  0  0  0  0  0  0  0
   19.9644  -10.7592  -15.9029 C   0  0  0  0  0  0  0  0  0  0  0  0
   19.0867  -10.2614  -15.1094 O   0  0  0  0  0  0  0  0  0  0  0  0
   21.3044  -10.4335  -15.6705 N   0  0  0  0  0  0  0  0  0  0  0  0
   22.5306  -10.7073  -16.3851 C   0  0  0  0  0  0  0  0  0  0  0  0
   23.4262  -11.2355  -15.2849 C   0  0  0  0  0  0  0  0  0  0  0  0
   23.0822  -10.3075  -14.1418 C   0  0  0  0  0  0  0  0  0  0  0  0
   21.7699   -9.6554  -14.5112 C   0  0  1  0  0  0  0  0  0  0  0  0
   21.9915   -8.2399  -14.8924 C   0  0  0  0  0  0  0  0  0  0  0  0
   22.4617   -8.0062  -16.0350 O   0  0  0  0  0  0  0  0  0  0  0  0
   18.1973   -4.4809  -14.6248 C   0  0  0  0  0  0  0  0  0  0  0  0
   19.4106   -5.1310  -14.0237 C   0  0  0  0  0  0  0  0  0  0  0  0
   20.5108   -5.2331  -15.0111 C   0  0  2  0  0  0  0  0  0  0  0  0
   20.0922   -6.1579  -16.1684 C   0  0  0  0  0  0  0  0  0  0  0  0
   21.8133   -5.7743  -14.5160 C   0  0  2  0  0  0  0  0  0  0  0  0
   21.7145   -7.1448  -14.0705 N   0  0  0  0  0  0  0  0  0  0  0  0
   22.5494   -4.9096  -13.5841 C   0  0  0  0  0  0  0  0  0  0  0  0
   22.7660   -5.2902  -12.2656 O   0  0  0  0  0  0  0  0  0  0  0  0
   23.0319   -3.7808  -13.8953 O   0  0  0  0  0  0  0  0  0  0  0  0
  2  1  1  6
  3  2  1  0
  4  2  1  0
  4  5  1  1
  6  4  1  0
  7  6  2  0
  8  6  1  0
  8 12  1  0
  9 10  1  0
  9  8  1  0
 10 11  1  0
 11 12  1  0
 12 13  1  6
 13 14  2  0
 16 15  1  0
 17 16  1  0
 17 18  1  6
 19 20  1  1
 19 17  1  0
 20 13  1  0
 21 19  1  0
 22 21  1  0
 23 21  2  0
M  END
$$$$
