TPI.pdb
     RDKit          3D

 23 23  0  0  1  0  0  0  0  0999 V2000
   23.4688  -17.4499  -16.6173 C   0  0  0  0  0  0  0  0  0  0  0  0
   23.2217  -18.6892  -17.4559 C   0  0  1  0  0  0  0  0  0  0  0  0
   22.4320  -18.3053  -18.5337 O   0  0  0  0  0  0  0  0  0  0  0  0
   24.5876  -19.1818  -17.9218 C   0  0  2  0  0  0  0  0  0  0  0  0
   24.3800  -20.0991  -18.9860 N   0  0  0  0  0  0  0  0  0  0  0  0
   25.4159  -19.6489  -16.8071 C   0  0  0  0  0  0  0  0  0  0  0  0
   25.2824  -20.8952  -16.5302 O   0  0  0  0  0  0  0  0  0  0  0  0
   26.3124  -18.9070  -16.0314 N   0  0  0  0  0  0  0  0  0  0  0  0
   26.6417  -17.5011  -15.9675 C   0  0  0  0  0  0  0  0  0  0  0  0
   28.1537  -17.5275  -16.0348 C   0  0  0  0  0  0  0  0  0  0  0  0
   28.4766  -18.7054  -15.1435 C   0  0  0  0  0  0  0  0  0  0  0  0
   27.1950  -19.4949  -15.0109 C   0  0  1  0  0  0  0  0  0  0  0  0
   26.6179  -19.3100  -13.6579 C   0  0  0  0  0  0  0  0  0  0  0  0
   26.1301  -18.1857  -13.3762 O   0  0  0  0  0  0  0  0  0  0  0  0
   22.1397  -21.1022  -10.7442 C   0  0  0  0  0  0  0  0  0  0  0  0
   23.4950  -20.5198  -10.4616 C   0  0  0  0  0  0  0  0  0  0  0  0
   24.4158  -20.7211  -11.6049 C   0  0  2  0  0  0  0  0  0  0  0  0
   24.5897  -22.2259  -11.8793 C   0  0  0  0  0  0  0  0  0  0  0  0
   25.8006  -20.1772  -11.4595 C   0  0  2  0  0  0  0  0  0  0  0  0
   26.5774  -20.2983  -12.6714 N   0  0  0  0  0  0  0  0  0  0  0  0
   26.5280  -20.6004  -10.2556 C   0  0  0  0  0  0  0  0  0  0  0  0
   26.2697  -20.0252   -9.0176 O   0  0  0  0  0  0  0  0  0  0  0  0
   27.4232  -21.4962  -10.2465 O   0  0  0  0  0  0  0  0  0  0  0  0
  2  1  1  1
  3  2  1  0
  4  2  1  0
  4  5  1  6
  6  4  1  0
  7  6  2  0
  8  6  1  0
  8 12  1  0
  9 10  1  0
  9  8  1  0
 10 11  1  0
 11 12  1  0
 12 13  1  1
 13 14  2  0
 16 15  1  0
 17 16  1  0
 17 18  1  1
 19 20  1  6
 19 17  1  0
 20 13  1  0
 21 19  1  0
 22 21  1  0
 23 21  2  0
M  END
$$$$
