TPI.pdb
     RDKit          3D

 23 23  0  0  1  0  0  0  0  0999 V2000
   17.4611  -22.1163    2.6039 C   0  0  0  0  0  0  0  0  0  0  0  0
   17.3870  -20.8981    3.5044 C   0  0  1  0  0  0  0  0  0  0  0  0
   18.3369  -19.9914    3.0480 O   0  0  0  0  0  0  0  0  0  0  0  0
   15.9765  -20.3354    3.3641 C   0  0  2  0  0  0  0  0  0  0  0  0
   15.7100  -20.1686    1.9791 N   0  0  0  0  0  0  0  0  0  0  0  0
   15.7618  -19.1642    4.2179 C   0  0  0  0  0  0  0  0  0  0  0  0
   15.1956  -18.1734    3.6301 O   0  0  0  0  0  0  0  0  0  0  0  0
   16.0965  -19.0099    5.5669 N   0  0  0  0  0  0  0  0  0  0  0  0
   16.7623  -19.8599    6.5278 C   0  0  0  0  0  0  0  0  0  0  0  0
   15.8158  -19.8045    7.7078 C   0  0  0  0  0  0  0  0  0  0  0  0
   15.4270  -18.3434    7.7165 C   0  0  0  0  0  0  0  0  0  0  0  0
   15.7945  -17.8033    6.3538 C   0  0  1  0  0  0  0  0  0  0  0  0
   16.9930  -16.9362    6.4534 C   0  0  0  0  0  0  0  0  0  0  0  0
   18.1209  -17.4760    6.3208 O   0  0  0  0  0  0  0  0  0  0  0  0
   19.1160  -12.0934    3.9632 C   0  0  0  0  0  0  0  0  0  0  0  0
   19.2715  -12.9343    5.1981 C   0  0  0  0  0  0  0  0  0  0  0  0
   18.0997  -13.8191    5.3972 C   0  0  2  0  0  0  0  0  0  0  0  0
   16.8215  -12.9727    5.5372 C   0  0  0  0  0  0  0  0  0  0  0  0
   18.1239  -14.7107    6.5968 C   0  0  2  0  0  0  0  0  0  0  0  0
   16.9580  -15.5590    6.6847 N   0  0  0  0  0  0  0  0  0  0  0  0
   18.4687  -14.0594    7.8676 C   0  0  0  0  0  0  0  0  0  0  0  0
   17.5151  -13.8620    8.8585 O   0  0  0  0  0  0  0  0  0  0  0  0
   19.6271  -13.6368    8.1561 O   0  0  0  0  0  0  0  0  0  0  0  0
  2  1  1  6
  3  2  1  0
  4  2  1  0
  4  5  1  6
  6  4  1  0
  7  6  2  0
  8  6  1  0
  8 12  1  0
  9 10  1  0
  9  8  1  0
 10 11  1  0
 11 12  1  0
 12 13  1  1
 13 14  2  0
 16 15  1  0
 17 16  1  0
 17 18  1  1
 19 20  1  1
 19 17  1  0
 20 13  1  0
 21 19  1  0
 22 21  1  0
 23 21  2  0
M  END
$$$$
