TPI.pdb
     RDKit          3D

 23 23  0  0  1  0  0  0  0  0999 V2000
   24.6273  -19.5555  -13.2406 C   0  0  0  0  0  0  0  0  0  0  0  0
   24.0551  -20.9497  -13.4116 C   0  0  1  0  0  0  0  0  0  0  0  0
   23.1520  -20.8965  -14.4672 O   0  0  0  0  0  0  0  0  0  0  0  0
   25.2288  -21.8675  -13.7365 C   0  0  2  0  0  0  0  0  0  0  0  0
   24.7033  -23.0734  -14.2720 N   0  0  0  0  0  0  0  0  0  0  0  0
   26.1544  -22.0007  -12.6086 C   0  0  0  0  0  0  0  0  0  0  0  0
   25.9291  -23.0125  -11.8514 O   0  0  0  0  0  0  0  0  0  0  0  0
   27.2282  -21.1695  -12.2739 N   0  0  0  0  0  0  0  0  0  0  0  0
   27.8030  -19.9947  -12.8891 C   0  0  0  0  0  0  0  0  0  0  0  0
   29.2761  -20.3418  -12.9177 C   0  0  0  0  0  0  0  0  0  0  0  0
   29.4603  -20.9949  -11.5665 C   0  0  0  0  0  0  0  0  0  0  0  0
   28.0755  -21.3628  -11.0861 C   0  0  1  0  0  0  0  0  0  0  0  0
   27.6538  -20.4519   -9.9950 C   0  0  0  0  0  0  0  0  0  0  0  0
   26.6376  -19.7366  -10.1871 O   0  0  0  0  0  0  0  0  0  0  0  0
   28.8390  -19.9660   -3.9019 C   0  0  0  0  0  0  0  0  0  0  0  0
   27.9799  -20.5522   -4.9856 C   0  0  0  0  0  0  0  0  0  0  0  0
   28.5014  -20.2098   -6.3296 C   0  0  2  0  0  0  0  0  0  0  0  0
   28.6437  -18.6827   -6.4632 C   0  0  0  0  0  0  0  0  0  0  0  0
   27.6796  -20.6403   -7.5017 C   0  0  2  0  0  0  0  0  0  0  0  0
   28.3067  -20.3316   -8.7659 N   0  0  0  0  0  0  0  0  0  0  0  0
   26.2577  -20.2750   -7.4513 C   0  0  0  0  0  0  0  0  0  0  0  0
   25.7540  -19.2307   -8.2167 O   0  0  0  0  0  0  0  0  0  0  0  0
   25.4000  -20.8629   -6.7283 O   0  0  0  0  0  0  0  0  0  0  0  0
  2  1  1  6
  3  2  1  0
  4  2  1  0
  4  5  1  1
  6  4  1  0
  7  6  2  0
  8  6  1  0
  8 12  1  0
  9 10  1  0
  9  8  1  0
 10 11  1  0
 11 12  1  0
 12 13  1  1
 13 14  2  0
 16 15  1  0
 17 16  1  0
 17 18  1  1
 19 20  1  6
 19 17  1  0
 20 13  1  0
 21 19  1  0
 22 21  1  0
 23 21  2  0
M  END
$$$$
