TPI.pdb
     RDKit          3D

 23 23  0  0  1  0  0  0  0  0999 V2000
   28.9627  -19.8440  -14.1924 C   0  0  0  0  0  0  0  0  0  0  0  0
   28.4644  -18.4445  -14.4981 C   0  0  1  0  0  0  0  0  0  0  0  0
   29.1281  -18.0124  -15.6406 O   0  0  0  0  0  0  0  0  0  0  0  0
   26.9635  -18.5582  -14.7429 C   0  0  2  0  0  0  0  0  0  0  0  0
   26.5200  -17.3321  -15.3057 N   0  0  0  0  0  0  0  0  0  0  0  0
   26.2449  -19.0322  -13.5572 C   0  0  0  0  0  0  0  0  0  0  0  0
   25.7274  -18.1013  -12.8406 O   0  0  0  0  0  0  0  0  0  0  0  0
   26.0650  -20.3518  -13.1305 N   0  0  0  0  0  0  0  0  0  0  0  0
   26.5755  -21.6226  -13.5927 C   0  0  0  0  0  0  0  0  0  0  0  0
   25.3141  -22.4541  -13.6875 C   0  0  0  0  0  0  0  0  0  0  0  0
   24.5767  -22.0304  -12.4373 C   0  0  0  0  0  0  0  0  0  0  0  0
   25.2172  -20.7366  -11.9906 C   0  0  1  0  0  0  0  0  0  0  0  0
   26.0457  -20.9663  -10.7828 C   0  0  0  0  0  0  0  0  0  0  0  0
   26.9998  -21.7805  -10.8714 O   0  0  0  0  0  0  0  0  0  0  0  0
   29.0239  -19.4329   -5.9283 C   0  0  0  0  0  0  0  0  0  0  0  0
   28.0248  -20.4308   -6.4401 C   0  0  0  0  0  0  0  0  0  0  0  0
   27.3976  -19.9663   -7.6997 C   0  0  2  0  0  0  0  0  0  0  0  0
   26.6993  -18.6137   -7.4698 C   0  0  0  0  0  0  0  0  0  0  0  0
   26.3598  -20.8560   -8.3045 C   0  0  2  0  0  0  0  0  0  0  0  0
   25.8411  -20.3410   -9.5505 N   0  0  0  0  0  0  0  0  0  0  0  0
   25.3136  -21.3288   -7.3881 C   0  0  0  0  0  0  0  0  0  0  0  0
   25.6251  -22.0964   -6.2728 O   0  0  0  0  0  0  0  0  0  0  0  0
   24.0797  -21.0840   -7.5343 O   0  0  0  0  0  0  0  0  0  0  0  0
  2  1  1  6
  3  2  1  0
  4  2  1  0
  4  5  1  1
  6  4  1  0
  7  6  2  0
  8  6  1  0
  8 12  1  0
  9 10  1  0
  9  8  1  0
 10 11  1  0
 11 12  1  0
 12 13  1  1
 13 14  2  0
 16 15  1  0
 17 16  1  0
 17 18  1  1
 19 20  1  6
 19 17  1  0
 20 13  1  0
 21 19  1  0
 22 21  1  0
 23 21  2  0
M  END
$$$$
