TPI.pdb
     RDKit          3D

 23 23  0  0  1  0  0  0  0  0999 V2000
   23.4863  -19.9355  -14.1582 C   0  0  0  0  0  0  0  0  0  0  0  0
   24.3981  -20.1112  -12.9590 C   0  0  1  0  0  0  0  0  0  0  0  0
   23.6091  -19.9869  -11.8212 O   0  0  0  0  0  0  0  0  0  0  0  0
   24.9955  -21.5103  -13.0649 C   0  0  2  0  0  0  0  0  0  0  0  0
   23.9256  -22.4290  -13.2332 N   0  0  0  0  0  0  0  0  0  0  0  0
   25.9361  -21.7928  -11.9775 C   0  0  0  0  0  0  0  0  0  0  0  0
   25.5928  -22.7677  -11.2162 O   0  0  0  0  0  0  0  0  0  0  0  0
   27.1351  -21.1354  -11.6845 N   0  0  0  0  0  0  0  0  0  0  0  0
   27.8194  -20.0084  -12.2767 C   0  0  0  0  0  0  0  0  0  0  0  0
   29.2250  -20.5447  -12.4442 C   0  0  0  0  0  0  0  0  0  0  0  0
   29.4155  -21.3055  -11.1515 C   0  0  0  0  0  0  0  0  0  0  0  0
   28.0320  -21.5182  -10.5821 C   0  0  1  0  0  0  0  0  0  0  0  0
   27.8195  -20.6348   -9.4106 C   0  0  0  0  0  0  0  0  0  0  0  0
   26.9582  -19.7241   -9.5105 O   0  0  0  0  0  0  0  0  0  0  0  0
   29.3124  -20.8526   -3.3623 C   0  0  0  0  0  0  0  0  0  0  0  0
   28.2658  -20.6013   -4.4099 C   0  0  0  0  0  0  0  0  0  0  0  0
   28.8093  -20.8064   -5.7731 C   0  0  2  0  0  0  0  0  0  0  0  0
   30.0630  -19.9358   -5.9739 C   0  0  0  0  0  0  0  0  0  0  0  0
   27.9046  -20.4768   -6.9165 C   0  0  2  0  0  0  0  0  0  0  0  0
   28.5099  -20.7424   -8.2010 N   0  0  0  0  0  0  0  0  0  0  0  0
   27.2377  -19.1700   -6.8449 C   0  0  0  0  0  0  0  0  0  0  0  0
   26.1825  -18.9461   -5.9694 O   0  0  0  0  0  0  0  0  0  0  0  0
   27.5587  -18.1706   -7.5535 O   0  0  0  0  0  0  0  0  0  0  0  0
  2  1  1  6
  3  2  1  0
  4  2  1  0
  4  5  1  1
  6  4  1  0
  7  6  2  0
  8  6  1  0
  8 12  1  0
  9 10  1  0
  9  8  1  0
 10 11  1  0
 11 12  1  0
 12 13  1  1
 13 14  2  0
 16 15  1  0
 17 16  1  0
 17 18  1  6
 19 20  1  6
 19 17  1  0
 20 13  1  0
 21 19  1  0
 22 21  1  0
 23 21  2  0
M  END
$$$$
