TPI.pdb
     RDKit          3D

 23 23  0  0  1  0  0  0  0  0999 V2000
   14.7372   -9.6048  -15.5251 C   0  0  0  0  0  0  0  0  0  0  0  0
   14.9031  -11.0837  -15.2323 C   0  0  1  0  0  0  0  0  0  0  0  0
   14.5410  -11.7736  -16.3836 O   0  0  0  0  0  0  0  0  0  0  0  0
   16.3754  -11.3015  -14.8999 C   0  0  2  0  0  0  0  0  0  0  0  0
   16.6274  -12.6987  -14.9338 N   0  0  0  0  0  0  0  0  0  0  0  0
   16.7770  -10.5932  -13.6818 C   0  0  0  0  0  0  0  0  0  0  0  0
   16.5771  -11.2468  -12.5952 O   0  0  0  0  0  0  0  0  0  0  0  0
   17.3393   -9.3173  -13.5741 N   0  0  0  0  0  0  0  0  0  0  0  0
   17.6843   -8.2999  -14.5412 C   0  0  0  0  0  0  0  0  0  0  0  0
   19.1025   -7.9526  -14.1420 C   0  0  0  0  0  0  0  0  0  0  0  0
   19.0014   -7.9514  -12.6334 C   0  0  0  0  0  0  0  0  0  0  0  0
   17.7320   -8.6993  -12.2974 C   0  0  1  0  0  0  0  0  0  0  0  0
   16.6876   -7.7533  -11.8366 C   0  0  0  0  0  0  0  0  0  0  0  0
   16.0212   -7.1430  -12.7110 O   0  0  0  0  0  0  0  0  0  0  0  0
   11.9099   -7.2130   -9.0767 C   0  0  0  0  0  0  0  0  0  0  0  0
   13.2047   -6.6016   -8.6232 C   0  0  0  0  0  0  0  0  0  0  0  0
   14.3675   -7.3706   -9.1257 C   0  0  2  0  0  0  0  0  0  0  0  0
   15.2562   -7.8071   -7.9469 C   0  0  0  0  0  0  0  0  0  0  0  0
   15.2805   -6.6674  -10.0777 C   0  0  2  0  0  0  0  0  0  0  0  0
   16.3907   -7.4911  -10.4970 N   0  0  0  0  0  0  0  0  0  0  0  0
   15.6769   -5.3064   -9.6926 C   0  0  0  0  0  0  0  0  0  0  0  0
   16.9686   -5.0253   -9.2653 O   0  0  0  0  0  0  0  0  0  0  0  0
   14.8984   -4.3078   -9.7167 O   0  0  0  0  0  0  0  0  0  0  0  0
  2  1  1  6
  3  2  1  0
  4  2  1  0
  4  5  1  1
  6  4  1  0
  7  6  2  0
  8  6  1  0
  8 12  1  0
  9 10  1  0
  9  8  1  0
 10 11  1  0
 11 12  1  0
 12 13  1  6
 13 14  2  0
 16 15  1  0
 17 16  1  0
 17 18  1  1
 19 20  1  1
 19 17  1  0
 20 13  1  0
 21 19  1  0
 22 21  1  0
 23 21  2  0
M  END
$$$$
