TPI.pdb
     RDKit          3D

 23 23  0  0  1  0  0  0  0  0999 V2000
   24.2879  -19.7055  -12.3760 C   0  0  0  0  0  0  0  0  0  0  0  0
   23.8503  -21.1191  -12.7084 C   0  0  1  0  0  0  0  0  0  0  0  0
   22.8320  -21.0233  -13.6500 O   0  0  0  0  0  0  0  0  0  0  0  0
   25.0694  -21.8301  -13.2860 C   0  0  2  0  0  0  0  0  0  0  0  0
   24.6166  -23.0011  -13.9499 N   0  0  0  0  0  0  0  0  0  0  0  0
   26.1274  -22.0107  -12.2885 C   0  0  0  0  0  0  0  0  0  0  0  0
   26.0711  -23.1216  -11.6476 O   0  0  0  0  0  0  0  0  0  0  0  0
   27.1647  -21.1302  -11.9654 N   0  0  0  0  0  0  0  0  0  0  0  0
   27.5819  -19.8514  -12.4943 C   0  0  0  0  0  0  0  0  0  0  0  0
   29.0658  -20.0649  -12.7035 C   0  0  0  0  0  0  0  0  0  0  0  0
   29.4392  -20.8395  -11.4599 C   0  0  0  0  0  0  0  0  0  0  0  0
   28.1440  -21.3746  -10.8942 C   0  0  1  0  0  0  0  0  0  0  0  0
   27.7717  -20.6247   -9.6707 C   0  0  0  0  0  0  0  0  0  0  0  0
   26.7590  -19.8811   -9.7232 O   0  0  0  0  0  0  0  0  0  0  0  0
   29.2796  -20.1540   -3.6527 C   0  0  0  0  0  0  0  0  0  0  0  0
   28.2275  -20.4750   -4.6754 C   0  0  0  0  0  0  0  0  0  0  0  0
   28.7693  -20.3827   -6.0515 C   0  0  2  0  0  0  0  0  0  0  0  0
   29.3079  -18.9636   -6.3087 C   0  0  0  0  0  0  0  0  0  0  0  0
   27.8182  -20.6598   -7.1708 C   0  0  2  0  0  0  0  0  0  0  0  0
   28.4675  -20.6857   -8.4609 N   0  0  0  0  0  0  0  0  0  0  0  0
   26.5751  -19.8772   -7.1590 C   0  0  0  0  0  0  0  0  0  0  0  0
   26.4785  -18.6673   -7.8350 O   0  0  0  0  0  0  0  0  0  0  0  0
   25.5217  -20.2290   -6.5504 O   0  0  0  0  0  0  0  0  0  0  0  0
  2  1  1  6
  3  2  1  0
  4  2  1  0
  4  5  1  1
  6  4  1  0
  7  6  2  0
  8  6  1  0
  8 12  1  0
  9 10  1  0
  9  8  1  0
 10 11  1  0
 11 12  1  0
 12 13  1  1
 13 14  2  0
 16 15  1  0
 17 16  1  0
 17 18  1  6
 19 20  1  6
 19 17  1  0
 20 13  1  0
 21 19  1  0
 22 21  1  0
 23 21  2  0
M  END
$$$$
