TPI.pdb
     RDKit          3D

 23 23  0  0  1  0  0  0  0  0999 V2000
   18.3575  -13.1121  -18.9210 C   0  0  0  0  0  0  0  0  0  0  0  0
   19.2778  -14.2815  -18.6281 C   0  0  1  0  0  0  0  0  0  0  0  0
   18.6419  -15.4296  -19.0867 O   0  0  0  0  0  0  0  0  0  0  0  0
   20.5703  -14.0240  -19.3953 C   0  0  2  0  0  0  0  0  0  0  0  0
   21.2950  -15.2442  -19.4496 N   0  0  0  0  0  0  0  0  0  0  0  0
   21.2924  -12.8560  -18.8844 C   0  0  0  0  0  0  0  0  0  0  0  0
   22.2674  -13.1349  -18.0974 O   0  0  0  0  0  0  0  0  0  0  0  0
   21.0438  -11.5060  -19.1519 N   0  0  0  0  0  0  0  0  0  0  0  0
   20.0044  -10.8134  -19.8794 C   0  0  0  0  0  0  0  0  0  0  0  0
   20.8054   -9.8924  -20.7747 C   0  0  0  0  0  0  0  0  0  0  0  0
   21.8939   -9.4264  -19.8344 C   0  0  0  0  0  0  0  0  0  0  0  0
   21.9018  -10.4058  -18.6835 C   0  0  1  0  0  0  0  0  0  0  0  0
   21.3228   -9.7765  -17.4724 C   0  0  0  0  0  0  0  0  0  0  0  0
   20.0920   -9.9274  -17.2637 O   0  0  0  0  0  0  0  0  0  0  0  0
   22.0837  -11.4920  -13.4498 C   0  0  0  0  0  0  0  0  0  0  0  0
   23.0055  -10.5795  -14.2072 C   0  0  0  0  0  0  0  0  0  0  0  0
   22.5373   -9.1748  -14.1512 C   0  0  2  0  0  0  0  0  0  0  0  0
   21.8238   -8.9131  -12.8123 C   0  0  0  0  0  0  0  0  0  0  0  0
   21.5750   -8.7419  -15.2099 C   0  0  2  0  0  0  0  0  0  0  0  0
   22.0491   -9.0263  -16.5445 N   0  0  0  0  0  0  0  0  0  0  0  0
   21.0315   -7.3854  -15.0607 C   0  0  0  0  0  0  0  0  0  0  0  0
   21.5177   -6.3266  -15.8175 O   0  0  0  0  0  0  0  0  0  0  0  0
   20.1042   -7.0779  -14.2548 O   0  0  0  0  0  0  0  0  0  0  0  0
  2  1  1  6
  3  2  1  0
  4  2  1  0
  4  5  1  1
  6  4  1  0
  7  6  2  0
  8  6  1  0
  8 12  1  0
  9 10  1  0
  9  8  1  0
 10 11  1  0
 11 12  1  0
 12 13  1  1
 13 14  2  0
 16 15  1  0
 17 16  1  0
 17 18  1  1
 19 20  1  6
 19 17  1  0
 20 13  1  0
 21 19  1  0
 22 21  1  0
 23 21  2  0
M  END
$$$$
