TPI.pdb
     RDKit          3D

 23 23  0  0  1  0  0  0  0  0999 V2000
   27.5352  -19.0178  -11.8671 C   0  0  0  0  0  0  0  0  0  0  0  0
   26.0756  -19.3545  -11.6297 C   0  0  1  0  0  0  0  0  0  0  0  0
   25.3724  -18.9535  -12.7600 O   0  0  0  0  0  0  0  0  0  0  0  0
   26.0001  -20.8659  -11.4416 C   0  0  2  0  0  0  0  0  0  0  0  0
   24.6349  -21.2477  -11.5267 N   0  0  0  0  0  0  0  0  0  0  0  0
   26.7317  -21.3115  -10.2528 C   0  0  0  0  0  0  0  0  0  0  0  0
   25.9916  -21.7968   -9.3229 O   0  0  0  0  0  0  0  0  0  0  0  0
   28.1107  -21.2680  -10.0246 N   0  0  0  0  0  0  0  0  0  0  0  0
   29.2239  -20.7293  -10.7727 C   0  0  0  0  0  0  0  0  0  0  0  0
   30.1926  -21.8924  -10.7794 C   0  0  0  0  0  0  0  0  0  0  0  0
   30.0528  -22.4118   -9.3663 C   0  0  0  0  0  0  0  0  0  0  0  0
   28.7628  -21.8333   -8.8324 C   0  0  1  0  0  0  0  0  0  0  0  0
   29.0510  -20.7662   -7.8443 C   0  0  0  0  0  0  0  0  0  0  0  0
   29.4290  -19.6489   -8.2802 O   0  0  0  0  0  0  0  0  0  0  0  0
   27.0101  -17.2223   -3.8623 C   0  0  0  0  0  0  0  0  0  0  0  0
   28.2984  -17.8950   -4.2415 C   0  0  0  0  0  0  0  0  0  0  0  0
   28.0563  -19.0652   -5.1178 C   0  0  2  0  0  0  0  0  0  0  0  0
   27.1122  -20.0587   -4.4167 C   0  0  0  0  0  0  0  0  0  0  0  0
   29.2532  -19.8650   -5.5206 C   0  0  2  0  0  0  0  0  0  0  0  0
   28.9322  -20.9141   -6.4603 N   0  0  0  0  0  0  0  0  0  0  0  0
   30.1204  -20.3112   -4.4220 C   0  0  0  0  0  0  0  0  0  0  0  0
   30.7873  -19.3988   -3.6139 O   0  0  0  0  0  0  0  0  0  0  0  0
   30.3261  -21.5262   -4.1300 O   0  0  0  0  0  0  0  0  0  0  0  0
  2  1  1  6
  3  2  1  0
  4  2  1  0
  4  5  1  1
  6  4  1  0
  7  6  2  0
  8  6  1  0
  8 12  1  0
  9 10  1  0
  9  8  1  0
 10 11  1  0
 11 12  1  0
 12 13  1  1
 13 14  2  0
 16 15  1  0
 17 16  1  0
 17 18  1  1
 19 20  1  1
 19 17  1  0
 20 13  1  0
 21 19  1  0
 22 21  1  0
 23 21  2  0
M  END
$$$$
