TPI.pdb
     RDKit          3D

 23 23  0  0  1  0  0  0  0  0999 V2000
   18.4928   -9.8179  -18.6630 C   0  0  0  0  0  0  0  0  0  0  0  0
   18.6301  -11.2364  -18.1440 C   0  0  1  0  0  0  0  0  0  0  0  0
   17.8425  -12.0478  -18.9527 O   0  0  0  0  0  0  0  0  0  0  0  0
   20.1050  -11.6052  -18.2636 C   0  0  2  0  0  0  0  0  0  0  0  0
   20.2178  -13.0104  -18.0916 N   0  0  0  0  0  0  0  0  0  0  0  0
   20.9539  -10.7708  -17.4093 C   0  0  0  0  0  0  0  0  0  0  0  0
   21.1814  -11.2598  -16.2444 O   0  0  0  0  0  0  0  0  0  0  0  0
   21.5289   -9.5329  -17.7139 N   0  0  0  0  0  0  0  0  0  0  0  0
   21.4523   -8.6588  -18.8626 C   0  0  0  0  0  0  0  0  0  0  0  0
   22.9123   -8.3672  -19.1356 C   0  0  0  0  0  0  0  0  0  0  0  0
   23.4528   -8.1870  -17.7350 C   0  0  0  0  0  0  0  0  0  0  0  0
   22.4298   -8.8021  -16.8082 C   0  0  1  0  0  0  0  0  0  0  0  0
   21.6891   -7.7397  -16.0866 C   0  0  0  0  0  0  0  0  0  0  0  0
   20.6967   -7.2225  -16.6602 O   0  0  0  0  0  0  0  0  0  0  0  0
   19.5447   -8.5869  -11.4632 C   0  0  0  0  0  0  0  0  0  0  0  0
   19.9664   -8.1459  -12.8357 C   0  0  0  0  0  0  0  0  0  0  0  0
   20.7075   -6.8638  -12.7845 C   0  0  2  0  0  0  0  0  0  0  0  0
   19.8087   -5.7620  -12.1945 C   0  0  0  0  0  0  0  0  0  0  0  0
   21.2066   -6.3210  -14.0848 C   0  0  2  0  0  0  0  0  0  0  0  0
   22.0161   -7.2711  -14.8118 N   0  0  0  0  0  0  0  0  0  0  0  0
   21.7940   -4.9757  -14.0300 C   0  0  0  0  0  0  0  0  0  0  0  0
   23.1489   -4.7900  -13.7854 O   0  0  0  0  0  0  0  0  0  0  0  0
   21.1347   -3.9071  -14.1954 O   0  0  0  0  0  0  0  0  0  0  0  0
  2  1  1  6
  3  2  1  0
  4  2  1  0
  4  5  1  1
  6  4  1  0
  7  6  2  0
  8  6  1  0
  8 12  1  0
  9 10  1  0
  9  8  1  0
 10 11  1  0
 11 12  1  0
 12 13  1  6
 13 14  2  0
 16 15  1  0
 17 16  1  0
 17 18  1  6
 19 20  1  1
 19 17  1  0
 20 13  1  0
 21 19  1  0
 22 21  1  0
 23 21  2  0
M  END
$$$$
