MAT.pdb
     RDKit          3D

 21 20  0  0  1  0  0  0  0  0999 V2000
    9.0413  -11.2558   19.5416 C   0  0  0  0  0  0  0  0  0  0  0  0
    7.5186  -12.1576   19.4037 S   0  0  0  0  0  0  0  0  0  0  0  0
    7.2707  -13.5155   20.5199 C   0  0  0  0  0  0  0  0  0  0  0  0
    8.1610  -14.7081   20.3455 C   0  0  0  0  0  0  0  0  0  0  0  0
    7.8288  -15.7933   21.2988 C   0  0  2  0  0  0  0  0  0  0  0  0
    6.3938  -15.9843   21.3602 N   0  0  0  0  0  0  0  0  0  0  0  0
    8.3666  -15.4968   22.6818 C   0  0  0  0  0  0  0  0  0  0  0  0
    9.6102  -15.5414   22.8602 O   0  0  0  0  0  0  0  0  0  0  0  0
    6.9739  -14.1288   25.8869 C   0  0  0  0  0  0  0  0  0  0  0  0
    7.9772  -14.9096   25.0480 C   0  0  2  0  0  0  0  0  0  0  0  0
    7.4720  -15.1793   23.7333 N   0  0  0  0  0  0  0  0  0  0  0  0
    8.3809  -16.1625   25.7572 C   0  0  0  0  0  0  0  0  0  0  0  0
    7.4989  -16.9738   26.0962 O   0  0  0  0  0  0  0  0  0  0  0  0
   12.1531  -19.2144   26.5953 C   0  0  0  0  0  0  0  0  0  0  0  0
   11.5208  -17.9862   26.0160 C   0  0  1  0  0  0  0  0  0  0  0  0
   11.1956  -18.1938   24.6705 O   0  0  0  0  0  0  0  0  0  0  0  0
   10.1976  -17.6365   26.7024 C   0  0  2  0  0  0  0  0  0  0  0  0
    9.7289  -16.4267   26.0395 N   0  0  0  0  0  0  0  0  0  0  0  0
   10.4252  -17.4361   28.1326 C   0  0  0  0  0  0  0  0  0  0  0  0
   10.2890  -18.3870   28.9314 O   0  0  0  0  0  0  0  0  0  0  0  0
   10.7919  -16.1965   28.6110 O   0  0  0  0  0  0  0  0  0  0  0  0
  2  1  1  0
  3  4  1  0
  3  2  1  0
  4  5  1  0
  5  7  1  0
  5  6  1  1
  7 11  1  0
  7  8  2  0
 10  9  1  1
 10 12  1  0
 11 10  1  0
 12 18  1  0
 12 13  2  0
 15 17  1  0
 15 14  1  1
 16 15  1  0
 17 19  1  0
 17 18  1  6
 19 21  1  0
 20 19  2  0
M  END
$$$$
