MAT.pdb
     RDKit          3D

 21 20  0  0  1  0  0  0  0  0999 V2000
    7.1038  -11.3161   26.4820 C   0  0  0  0  0  0  0  0  0  0  0  0
    5.6579  -12.3451   26.4445 S   0  0  0  0  0  0  0  0  0  0  0  0
    5.7397  -13.8319   25.4779 C   0  0  0  0  0  0  0  0  0  0  0  0
    7.0362  -14.5829   25.4971 C   0  0  0  0  0  0  0  0  0  0  0  0
    7.0134  -15.7535   24.5883 C   0  0  2  0  0  0  0  0  0  0  0  0
    5.9990  -16.6973   25.0123 N   0  0  0  0  0  0  0  0  0  0  0  0
    8.3618  -16.4382   24.5363 C   0  0  0  0  0  0  0  0  0  0  0  0
    8.5269  -17.4825   25.2165 O   0  0  0  0  0  0  0  0  0  0  0  0
   11.5653  -15.9499   22.6008 C   0  0  0  0  0  0  0  0  0  0  0  0
   10.6797  -16.5371   23.6921 C   0  0  2  0  0  0  0  0  0  0  0  0
    9.3968  -15.8978   23.7340 N   0  0  0  0  0  0  0  0  0  0  0  0
   11.3764  -16.4747   25.0136 C   0  0  0  0  0  0  0  0  0  0  0  0
   12.5715  -16.8189   25.0815 O   0  0  0  0  0  0  0  0  0  0  0  0
   10.3802  -13.6014   27.7135 C   0  0  0  0  0  0  0  0  0  0  0  0
   10.4084  -14.9900   28.2746 C   0  0  1  0  0  0  0  0  0  0  0  0
    9.1370  -15.5710   28.2019 O   0  0  0  0  0  0  0  0  0  0  0  0
   11.3243  -15.9203   27.4745 C   0  0  2  0  0  0  0  0  0  0  0  0
   10.7018  -16.0367   26.1624 N   0  0  0  0  0  0  0  0  0  0  0  0
   11.4314  -17.2087   28.1571 C   0  0  0  0  0  0  0  0  0  0  0  0
   10.8962  -18.2266   27.6687 O   0  0  0  0  0  0  0  0  0  0  0  0
   12.1236  -17.3108   29.3446 O   0  0  0  0  0  0  0  0  0  0  0  0
  2  1  1  0
  3  4  1  0
  3  2  1  0
  4  5  1  0
  5  7  1  0
  5  6  1  1
  7 11  1  0
  7  8  2  0
 10  9  1  6
 10 12  1  0
 11 10  1  0
 12 18  1  0
 12 13  2  0
 15 17  1  0
 15 14  1  6
 16 15  1  0
 17 19  1  0
 17 18  1  6
 19 21  1  0
 20 19  2  0
M  END
$$$$
