MAT.pdb
     RDKit          3D

 21 20  0  0  1  0  0  0  0  0999 V2000
    8.5548  -11.0294   19.6347 C   0  0  0  0  0  0  0  0  0  0  0  0
    8.3154  -12.7195   19.1473 S   0  0  0  0  0  0  0  0  0  0  0  0
    7.0298  -13.6301   19.9654 C   0  0  0  0  0  0  0  0  0  0  0  0
    7.0105  -13.5797   21.4629 C   0  0  0  0  0  0  0  0  0  0  0  0
    7.4584  -14.8567   22.0674 C   0  0  2  0  0  0  0  0  0  0  0  0
    6.3174  -15.7024   22.3547 N   0  0  0  0  0  0  0  0  0  0  0  0
    8.2529  -14.6194   23.3332 C   0  0  0  0  0  0  0  0  0  0  0  0
    9.5037  -14.5292   23.2439 O   0  0  0  0  0  0  0  0  0  0  0  0
    7.5943  -13.4428   26.7805 C   0  0  0  0  0  0  0  0  0  0  0  0
    8.3351  -14.3237   25.7828 C   0  0  2  0  0  0  0  0  0  0  0  0
    7.5824  -14.5052   24.5758 N   0  0  0  0  0  0  0  0  0  0  0  0
    8.6975  -15.6295   26.4146 C   0  0  0  0  0  0  0  0  0  0  0  0
    7.7880  -16.4223   26.7238 O   0  0  0  0  0  0  0  0  0  0  0  0
   12.2983  -18.9109   27.0529 C   0  0  0  0  0  0  0  0  0  0  0  0
   11.6985  -17.6545   26.5002 C   0  0  1  0  0  0  0  0  0  0  0  0
   11.2477  -17.8642   25.1918 O   0  0  0  0  0  0  0  0  0  0  0  0
   10.4632  -17.2070   27.2865 C   0  0  2  0  0  0  0  0  0  0  0  0
   10.0376  -15.9633   26.6581 N   0  0  0  0  0  0  0  0  0  0  0  0
   10.8162  -17.0283   28.6940 C   0  0  0  0  0  0  0  0  0  0  0  0
   11.1075  -15.8947   29.1312 O   0  0  0  0  0  0  0  0  0  0  0  0
   10.8303  -18.1087   29.5497 O   0  0  0  0  0  0  0  0  0  0  0  0
  2  1  1  0
  3  4  1  0
  3  2  1  0
  4  5  1  0
  5  7  1  0
  5  6  1  1
  7 11  1  0
  7  8  2  0
 10  9  1  1
 10 12  1  0
 11 10  1  0
 12 18  1  0
 12 13  2  0
 15 17  1  0
 15 14  1  1
 16 15  1  0
 17 19  1  0
 17 18  1  6
 19 21  1  0
 20 19  2  0
M  END
$$$$
