MAT.pdb
     RDKit          3D

 21 20  0  0  1  0  0  0  0  0999 V2000
    8.2625  -11.1997   19.7094 C   0  0  0  0  0  0  0  0  0  0  0  0
    8.0446  -12.4385   18.4568 S   0  0  0  0  0  0  0  0  0  0  0  0
    8.0219  -14.1342   18.9818 C   0  0  0  0  0  0  0  0  0  0  0  0
    7.8976  -14.3869   20.4535 C   0  0  0  0  0  0  0  0  0  0  0  0
    7.8540  -15.8350   20.7665 C   0  0  2  0  0  0  0  0  0  0  0  0
    6.6556  -16.4316   20.2119 N   0  0  0  0  0  0  0  0  0  0  0  0
    7.9051  -16.0789   22.2591 C   0  0  0  0  0  0  0  0  0  0  0  0
    6.8596  -15.8880   22.9305 O   0  0  0  0  0  0  0  0  0  0  0  0
   10.2614  -17.7078   24.6610 C   0  0  0  0  0  0  0  0  0  0  0  0
    9.1726  -16.7128   24.2806 C   0  0  2  0  0  0  0  0  0  0  0  0
    9.1118  -16.5112   22.8621 N   0  0  0  0  0  0  0  0  0  0  0  0
    9.3662  -15.4266   25.0180 C   0  0  0  0  0  0  0  0  0  0  0  0
   10.2081  -14.6113   24.5965 O   0  0  0  0  0  0  0  0  0  0  0  0
    6.9597  -12.7185   25.6906 C   0  0  0  0  0  0  0  0  0  0  0  0
    7.3777  -13.2922   27.0097 C   0  0  1  0  0  0  0  0  0  0  0  0
    6.5194  -14.3331   27.3825 O   0  0  0  0  0  0  0  0  0  0  0  0
    8.7732  -13.9197   26.9529 C   0  0  2  0  0  0  0  0  0  0  0  0
    8.6157  -15.1360   26.1664 N   0  0  0  0  0  0  0  0  0  0  0  0
    9.2445  -14.1905   28.3102 C   0  0  0  0  0  0  0  0  0  0  0  0
    9.3946  -15.3675   28.7016 O   0  0  0  0  0  0  0  0  0  0  0  0
    9.5270  -13.1497   29.1685 O   0  0  0  0  0  0  0  0  0  0  0  0
  2  1  1  0
  3  4  1  0
  3  2  1  0
  4  5  1  0
  5  7  1  0
  5  6  1  1
  7 11  1  0
  7  8  2  0
 10  9  1  6
 10 12  1  0
 11 10  1  0
 12 18  1  0
 12 13  2  0
 15 17  1  0
 15 14  1  6
 16 15  1  0
 17 19  1  0
 17 18  1  6
 19 21  1  0
 20 19  2  0
M  END
$$$$
