MAT.pdb
     RDKit          3D

 21 20  0  0  1  0  0  0  0  0999 V2000
    6.9801  -10.8073   25.1900 C   0  0  0  0  0  0  0  0  0  0  0  0
    6.2163  -12.3900   25.4404 S   0  0  0  0  0  0  0  0  0  0  0  0
    6.1510  -13.4933   24.0512 C   0  0  0  0  0  0  0  0  0  0  0  0
    7.2619  -13.3907   23.0509 C   0  0  0  0  0  0  0  0  0  0  0  0
    7.5767  -14.7012   22.4343 C   0  0  2  0  0  0  0  0  0  0  0  0
    6.3547  -15.4149   22.1230 N   0  0  0  0  0  0  0  0  0  0  0  0
    8.4460  -15.5438   23.3422 C   0  0  0  0  0  0  0  0  0  0  0  0
    7.8988  -16.1476   24.2995 O   0  0  0  0  0  0  0  0  0  0  0  0
   11.7759  -17.1217   22.9393 C   0  0  0  0  0  0  0  0  0  0  0  0
   10.6258  -16.6099   23.7968 C   0  0  2  0  0  0  0  0  0  0  0  0
    9.8387  -15.6348   23.0997 N   0  0  0  0  0  0  0  0  0  0  0  0
   11.1440  -16.0817   25.0961 C   0  0  0  0  0  0  0  0  0  0  0  0
   12.0922  -15.2741   25.0829 O   0  0  0  0  0  0  0  0  0  0  0  0
   10.2770  -13.8509   27.6474 C   0  0  0  0  0  0  0  0  0  0  0  0
   10.2150  -15.2059   28.2831 C   0  0  1  0  0  0  0  0  0  0  0  0
    8.9371  -15.7569   28.1327 O   0  0  0  0  0  0  0  0  0  0  0  0
   11.1662  -16.2033   27.6162 C   0  0  2  0  0  0  0  0  0  0  0  0
   10.5768  -16.4842   26.3137 N   0  0  0  0  0  0  0  0  0  0  0  0
   11.2812  -17.4013   28.4463 C   0  0  0  0  0  0  0  0  0  0  0  0
   11.8653  -17.3495   29.5495 O   0  0  0  0  0  0  0  0  0  0  0  0
   10.7460  -18.5973   28.0184 O   0  0  0  0  0  0  0  0  0  0  0  0
  2  1  1  0
  3  4  1  0
  3  2  1  0
  4  5  1  0
  5  7  1  0
  5  6  1  1
  7 11  1  0
  7  8  2  0
 10  9  1  6
 10 12  1  0
 11 10  1  0
 12 18  1  0
 12 13  2  0
 15 17  1  0
 15 14  1  6
 16 15  1  0
 17 19  1  0
 17 18  1  6
 19 21  1  0
 20 19  2  0
M  END
$$$$
