MAT.pdb
     RDKit          3D

 21 20  0  0  1  0  0  0  0  0999 V2000
    6.4255  -11.7071   27.2450 C   0  0  0  0  0  0  0  0  0  0  0  0
    5.9450  -11.6929   25.5362 S   0  0  0  0  0  0  0  0  0  0  0  0
    6.0525  -13.2249   24.6458 C   0  0  0  0  0  0  0  0  0  0  0  0
    7.1961  -14.1302   24.9893 C   0  0  0  0  0  0  0  0  0  0  0  0
    7.2705  -15.2996   24.0817 C   0  0  2  0  0  0  0  0  0  0  0  0
    6.0771  -16.1112   24.2113 N   0  0  0  0  0  0  0  0  0  0  0  0
    8.4963  -16.1407   24.3646 C   0  0  0  0  0  0  0  0  0  0  0  0
    8.4371  -16.9879   25.2915 O   0  0  0  0  0  0  0  0  0  0  0  0
   11.8960  -16.5950   22.7985 C   0  0  0  0  0  0  0  0  0  0  0  0
   10.8581  -16.6966   23.9087 C   0  0  2  0  0  0  0  0  0  0  0  0
    9.6693  -15.9602   23.5912 N   0  0  0  0  0  0  0  0  0  0  0  0
   11.4498  -16.2638   25.2118 C   0  0  0  0  0  0  0  0  0  0  0  0
   12.4319  -15.4977   25.2027 O   0  0  0  0  0  0  0  0  0  0  0  0
   10.7283  -14.0621   27.7482 C   0  0  0  0  0  0  0  0  0  0  0  0
   10.6168  -15.4088   28.3946 C   0  0  1  0  0  0  0  0  0  0  0  0
    9.3162  -15.9082   28.2594 O   0  0  0  0  0  0  0  0  0  0  0  0
   11.5206  -16.4489   27.7271 C   0  0  2  0  0  0  0  0  0  0  0  0
   10.9132  -16.7088   26.4286 N   0  0  0  0  0  0  0  0  0  0  0  0
   11.5875  -17.6477   28.5613 C   0  0  0  0  0  0  0  0  0  0  0  0
   11.0171  -18.6990   28.2001 O   0  0  0  0  0  0  0  0  0  0  0  0
   12.2804  -17.6278   29.7527 O   0  0  0  0  0  0  0  0  0  0  0  0
  2  1  1  0
  3  4  1  0
  3  2  1  0
  4  5  1  0
  5  7  1  0
  5  6  1  1
  7 11  1  0
  7  8  2  0
 10  9  1  6
 10 12  1  0
 11 10  1  0
 12 18  1  0
 12 13  2  0
 15 17  1  0
 15 14  1  6
 16 15  1  0
 17 19  1  0
 17 18  1  6
 19 21  1  0
 20 19  2  0
M  END
$$$$
