CVR.pdb
     RDKit          3D

 25 24  0  0  1  0  0  0  0  0999 V2000
   22.9031  -20.9166  -15.6695 N   0  0  0  0  0  0  0  0  0  0  0  0
   22.0443  -19.7565  -15.6349 C   0  0  1  0  0  0  0  0  0  0  0  0
   22.0324  -19.1818  -14.2429 C   0  0  0  0  0  0  0  0  0  0  0  0
   21.3905  -20.3519  -13.0315 S   0  0  0  0  0  0  0  0  0  0  0  0
   22.3993  -18.7567  -16.6622 C   0  0  0  0  0  0  0  0  0  0  0  0
   23.6350  -18.5054  -16.7981 O   0  0  0  0  0  0  0  0  0  0  0  0
   21.6648  -16.7042  -20.9529 C   0  0  0  0  0  0  0  0  0  0  0  0
   21.5406  -17.6363  -19.7976 C   0  0  2  0  0  0  0  0  0  0  0  0
   20.1194  -18.2160  -19.7676 C   0  0  0  0  0  0  0  0  0  0  0  0
   21.9469  -17.1070  -18.4715 C   0  0  2  0  0  0  0  0  0  0  0  0
   21.4757  -18.0855  -17.4760 N   0  0  0  0  0  0  0  0  0  0  0  0
   21.4706  -15.7576  -18.1336 C   0  0  0  0  0  0  0  0  0  0  0  0
   20.2734  -15.6537  -17.6836 O   0  0  0  0  0  0  0  0  0  0  0  0
   22.6243   -9.8942  -13.6290 N   0  0  0  0  0  0  0  0  0  0  0  0
   23.8262  -10.3538  -14.2147 C   0  0  0  0  0  0  0  0  0  0  0  0
   24.7747  -10.7894  -13.4538 N   0  0  0  0  0  0  0  0  0  0  0  0
   24.0424  -10.3583  -15.6140 N   0  0  0  0  0  0  0  0  0  0  0  0
   23.0572   -9.9514  -16.5675 C   0  0  0  0  0  0  0  0  0  0  0  0
   22.0468  -11.0139  -16.9220 C   0  0  0  0  0  0  0  0  0  0  0  0
   22.6341  -12.3029  -17.3784 C   0  0  0  0  0  0  0  0  0  0  0  0
   21.5910  -13.2903  -17.8521 C   0  0  2  0  0  0  0  0  0  0  0  0
   22.1882  -14.5522  -18.2480 N   0  0  0  0  0  0  0  0  0  0  0  0
   20.7681  -12.7052  -18.9344 C   0  0  0  0  0  0  0  0  0  0  0  0
   21.2192  -12.7305  -20.1011 O   0  0  0  0  0  0  0  0  0  0  0  0
   19.5295  -12.1335  -18.7191 O   0  0  0  0  0  0  0  0  0  0  0  0
  2  1  1  1
  2  3  1  0
  3  4  1  0
  5  2  1  0
  6  5  2  0
  8  7  1  6
  8  9  1  0
  8 10  1  0
 10 11  1  1
 11  5  1  0
 12 10  1  0
 12 22  1  0
 13 12  2  0
 15 16  2  0
 15 14  1  0
 17 15  1  0
 18 17  1  0
 19 18  1  0
 20 19  1  0
 21 20  1  6
 21 22  1  0
 21 23  1  0
 23 25  1  0
 24 23  2  0
M  END
$$$$
