CVR.pdb
     RDKit          3D

 25 24  0  0  1  0  0  0  0  0999 V2000
   20.7515  -13.8509  -18.4830 N   0  0  0  0  0  0  0  0  0  0  0  0
   19.7192  -13.6344  -17.4971 C   0  0  1  0  0  0  0  0  0  0  0  0
   19.2599  -14.9607  -16.9513 C   0  0  0  0  0  0  0  0  0  0  0  0
   18.9111  -16.1490  -18.2609 S   0  0  0  0  0  0  0  0  0  0  0  0
   20.1351  -12.6941  -16.4370 C   0  0  0  0  0  0  0  0  0  0  0  0
   19.3095  -12.5128  -15.4914 O   0  0  0  0  0  0  0  0  0  0  0  0
   23.6093  -10.1642  -14.0390 C   0  0  0  0  0  0  0  0  0  0  0  0
   23.0892  -11.0539  -15.1145 C   0  0  2  0  0  0  0  0  0  0  0  0
   23.8839  -10.8043  -16.4040 C   0  0  0  0  0  0  0  0  0  0  0  0
   21.6247  -11.0176  -15.3552 C   0  0  2  0  0  0  0  0  0  0  0  0
   21.3570  -12.0070  -16.4135 N   0  0  0  0  0  0  0  0  0  0  0  0
   21.0547   -9.7108  -15.7149 C   0  0  0  0  0  0  0  0  0  0  0  0
   21.0051   -9.4160  -16.9627 O   0  0  0  0  0  0  0  0  0  0  0  0
   13.3228   -8.5637  -16.7238 N   0  0  0  0  0  0  0  0  0  0  0  0
   13.6631   -8.3648  -15.3661 C   0  0  0  0  0  0  0  0  0  0  0  0
   12.7340   -8.3989  -14.4694 N   0  0  0  0  0  0  0  0  0  0  0  0
   14.9912   -8.1258  -14.9373 N   0  0  0  0  0  0  0  0  0  0  0  0
   16.1113   -8.0746  -15.8251 C   0  0  0  0  0  0  0  0  0  0  0  0
   17.4260   -7.7461  -15.1623 C   0  0  0  0  0  0  0  0  0  0  0  0
   18.6141   -7.8494  -16.0526 C   0  0  0  0  0  0  0  0  0  0  0  0
   19.9115   -7.5347  -15.3420 C   0  0  2  0  0  0  0  0  0  0  0  0
   20.5498   -8.7353  -14.8349 N   0  0  0  0  0  0  0  0  0  0  0  0
   19.6954   -6.5317  -14.2752 C   0  0  0  0  0  0  0  0  0  0  0  0
   19.8046   -6.9004  -13.0847 O   0  0  0  0  0  0  0  0  0  0  0  0
   19.3792   -5.2116  -14.5299 O   0  0  0  0  0  0  0  0  0  0  0  0
  2  1  1  6
  2  3  1  0
  3  4  1  0
  5  2  1  0
  6  5  2  0
  8  7  1  1
  8  9  1  0
  8 10  1  0
 10 11  1  6
 11  5  1  0
 12 10  1  0
 12 22  1  0
 13 12  2  0
 15 16  2  0
 15 14  1  0
 17 15  1  0
 18 17  1  0
 19 18  1  0
 20 19  1  0
 21 20  1  1
 21 22  1  0
 21 23  1  0
 23 25  1  0
 24 23  2  0
M  END
$$$$
