CVR.pdb
     RDKit          3D

 25 24  0  0  1  0  0  0  0  0999 V2000
   27.0071  -20.6297  -11.3191 N   0  0  0  0  0  0  0  0  0  0  0  0
   25.6097  -20.9587  -11.1649 C   0  0  1  0  0  0  0  0  0  0  0  0
   25.1268  -20.4818   -9.8206 C   0  0  0  0  0  0  0  0  0  0  0  0
   25.9256  -21.3581   -8.4630 S   0  0  0  0  0  0  0  0  0  0  0  0
   24.7820  -20.4562  -12.2799 C   0  0  0  0  0  0  0  0  0  0  0  0
   24.4761  -19.2259  -12.2424 O   0  0  0  0  0  0  0  0  0  0  0  0
   23.8196  -19.9231  -16.8320 C   0  0  0  0  0  0  0  0  0  0  0  0
   24.3866  -20.5846  -15.6238 C   0  0  2  0  0  0  0  0  0  0  0  0
   24.8921  -21.9832  -16.0047 C   0  0  0  0  0  0  0  0  0  0  0  0
   23.5193  -20.6225  -14.4195 C   0  0  2  0  0  0  0  0  0  0  0  0
   24.3256  -21.2376  -13.3508 N   0  0  0  0  0  0  0  0  0  0  0  0
   22.2337  -21.3216  -14.5628 C   0  0  0  0  0  0  0  0  0  0  0  0
   22.2520  -22.6028  -14.4943 O   0  0  0  0  0  0  0  0  0  0  0  0
   15.5293  -21.1074  -10.7636 N   0  0  0  0  0  0  0  0  0  0  0  0
   14.9011  -21.7906  -11.8301 C   0  0  0  0  0  0  0  0  0  0  0  0
   13.6219  -21.6913  -11.9789 N   0  0  0  0  0  0  0  0  0  0  0  0
   15.6171  -22.5895  -12.7542 N   0  0  0  0  0  0  0  0  0  0  0  0
   17.0149  -22.8698  -12.6401 C   0  0  0  0  0  0  0  0  0  0  0  0
   17.8116  -22.6235  -13.8972 C   0  0  0  0  0  0  0  0  0  0  0  0
   19.0784  -21.8698  -13.6928 C   0  0  0  0  0  0  0  0  0  0  0  0
   19.7960  -21.5621  -14.9881 C   0  0  2  0  0  0  0  0  0  0  0  0
   20.9697  -20.7376  -14.7679 N   0  0  0  0  0  0  0  0  0  0  0  0
   18.8697  -20.9533  -15.9691 C   0  0  0  0  0  0  0  0  0  0  0  0
   18.9715  -19.7276  -16.1981 O   0  0  0  0  0  0  0  0  0  0  0  0
   17.9004  -21.6713  -16.6418 O   0  0  0  0  0  0  0  0  0  0  0  0
  2  1  1  6
  2  3  1  0
  3  4  1  0
  5  2  1  0
  6  5  2  0
  8  7  1  6
  8  9  1  0
  8 10  1  0
 10 11  1  1
 11  5  1  0
 12 10  1  0
 12 22  1  0
 13 12  2  0
 15 16  2  0
 15 14  1  0
 17 15  1  0
 18 17  1  0
 19 18  1  0
 20 19  1  0
 21 20  1  1
 21 22  1  0
 21 23  1  0
 23 25  1  0
 24 23  2  0
M  END
$$$$
