CVR.pdb
     RDKit          3D

 25 24  0  0  1  0  0  0  0  0999 V2000
   27.5674  -20.5523  -11.3040 N   0  0  0  0  0  0  0  0  0  0  0  0
   26.1738  -20.8175  -11.0354 C   0  0  1  0  0  0  0  0  0  0  0  0
   25.6797  -19.8758   -9.9690 C   0  0  0  0  0  0  0  0  0  0  0  0
   26.6421  -20.0057   -8.4505 S   0  0  0  0  0  0  0  0  0  0  0  0
   25.3439  -20.7829  -12.2565 C   0  0  0  0  0  0  0  0  0  0  0  0
   25.2370  -19.6575  -12.8313 O   0  0  0  0  0  0  0  0  0  0  0  0
   24.5983  -24.1020  -14.6924 C   0  0  0  0  0  0  0  0  0  0  0  0
   24.5665  -22.6542  -15.0412 C   0  0  2  0  0  0  0  0  0  0  0  0
   25.9859  -22.1894  -15.3962 C   0  0  0  0  0  0  0  0  0  0  0  0
   23.9213  -21.7488  -14.0573 C   0  0  2  0  0  0  0  0  0  0  0  0
   24.6838  -21.8917  -12.8049 N   0  0  0  0  0  0  0  0  0  0  0  0
   22.4870  -21.9638  -13.8153 C   0  0  0  0  0  0  0  0  0  0  0  0
   22.1616  -22.9387  -13.0470 O   0  0  0  0  0  0  0  0  0  0  0  0
   17.5293  -24.3916  -10.8438 N   0  0  0  0  0  0  0  0  0  0  0  0
   16.4604  -23.5162  -11.1434 C   0  0  0  0  0  0  0  0  0  0  0  0
   15.3016  -23.7279  -10.6135 N   0  0  0  0  0  0  0  0  0  0  0  0
   16.6016  -22.4044  -12.0088 N   0  0  0  0  0  0  0  0  0  0  0  0
   17.8656  -21.9036  -12.4525 C   0  0  0  0  0  0  0  0  0  0  0  0
   17.7823  -20.8301  -13.5090 C   0  0  0  0  0  0  0  0  0  0  0  0
   19.0784  -20.4959  -14.1594 C   0  0  0  0  0  0  0  0  0  0  0  0
   20.0461  -21.6581  -14.1756 C   0  0  2  0  0  0  0  0  0  0  0  0
   21.4175  -21.2116  -14.3361 N   0  0  0  0  0  0  0  0  0  0  0  0
   19.6625  -22.6458  -15.2091 C   0  0  0  0  0  0  0  0  0  0  0  0
   20.2674  -22.6227  -16.3040 O   0  0  0  0  0  0  0  0  0  0  0  0
   18.6708  -23.5892  -15.0239 O   0  0  0  0  0  0  0  0  0  0  0  0
  2  1  1  6
  2  3  1  0
  3  4  1  0
  5  2  1  0
  6  5  2  0
  8  7  1  1
  8  9  1  0
  8 10  1  0
 10 11  1  1
 11  5  1  0
 12 10  1  0
 12 22  1  0
 13 12  2  0
 15 16  2  0
 15 14  1  0
 17 15  1  0
 18 17  1  0
 19 18  1  0
 20 19  1  0
 21 20  1  6
 21 22  1  0
 21 23  1  0
 23 25  1  0
 24 23  2  0
M  END
$$$$
