CVR.pdb
     RDKit          3D

 25 24  0  0  1  0  0  0  0  0999 V2000
   20.8123  -19.9631  -13.8489 N   0  0  0  0  0  0  0  0  0  0  0  0
   21.7757  -20.8964  -13.3148 C   0  0  1  0  0  0  0  0  0  0  0  0
   21.4359  -22.2888  -13.7774 C   0  0  0  0  0  0  0  0  0  0  0  0
   20.1418  -23.0404  -12.7727 S   0  0  0  0  0  0  0  0  0  0  0  0
   23.1680  -20.5154  -13.6263 C   0  0  0  0  0  0  0  0  0  0  0  0
   23.3406  -19.8288  -14.6786 O   0  0  0  0  0  0  0  0  0  0  0  0
   27.8043  -19.7950  -12.0877 C   0  0  0  0  0  0  0  0  0  0  0  0
   26.3973  -20.2686  -11.9662 C   0  0  2  0  0  0  0  0  0  0  0  0
   26.3737  -21.5817  -11.1713 C   0  0  0  0  0  0  0  0  0  0  0  0
   25.6219  -20.3753  -13.2277 C   0  0  2  0  0  0  0  0  0  0  0  0
   24.2828  -20.8581  -12.8480 N   0  0  0  0  0  0  0  0  0  0  0  0
   26.1986  -21.2273  -14.2781 C   0  0  0  0  0  0  0  0  0  0  0  0
   26.1836  -22.4949  -14.0792 O   0  0  0  0  0  0  0  0  0  0  0  0
   26.7147  -27.2096  -18.1856 N   0  0  0  0  0  0  0  0  0  0  0  0
   25.6506  -26.8622  -17.3220 C   0  0  0  0  0  0  0  0  0  0  0  0
   25.2902  -27.6892  -16.3976 N   0  0  0  0  0  0  0  0  0  0  0  0
   24.9516  -25.6352  -17.4245 N   0  0  0  0  0  0  0  0  0  0  0  0
   25.3001  -24.6017  -18.3498 C   0  0  0  0  0  0  0  0  0  0  0  0
   26.4240  -23.7033  -17.8967 C   0  0  0  0  0  0  0  0  0  0  0  0
   26.0454  -22.7120  -16.8532 C   0  0  0  0  0  0  0  0  0  0  0  0
   27.1737  -21.7687  -16.5002 C   0  0  2  0  0  0  0  0  0  0  0  0
   26.7712  -20.8051  -15.4925 N   0  0  0  0  0  0  0  0  0  0  0  0
   27.7050  -21.1090  -17.7140 C   0  0  0  0  0  0  0  0  0  0  0  0
   27.1594  -20.0516  -18.1004 O   0  0  0  0  0  0  0  0  0  0  0  0
   28.7713  -21.6035  -18.4393 O   0  0  0  0  0  0  0  0  0  0  0  0
  2  1  1  6
  2  3  1  0
  3  4  1  0
  5  2  1  0
  6  5  2  0
  8  7  1  6
  8  9  1  0
  8 10  1  0
 10 11  1  1
 11  5  1  0
 12 10  1  0
 12 22  1  0
 13 12  2  0
 15 16  2  0
 15 14  1  0
 17 15  1  0
 18 17  1  0
 19 18  1  0
 20 19  1  0
 21 20  1  6
 21 22  1  0
 21 23  1  0
 23 25  1  0
 24 23  2  0
M  END
$$$$
