CVR.pdb
     RDKit          3D

 25 24  0  0  1  0  0  0  0  0999 V2000
   19.0308  -11.7744  -16.2717 N   0  0  0  0  0  0  0  0  0  0  0  0
   18.1388  -10.7653  -15.7515 C   0  0  1  0  0  0  0  0  0  0  0  0
   16.7573  -11.3454  -15.6009 C   0  0  0  0  0  0  0  0  0  0  0  0
   15.9124  -11.5054  -17.1850 S   0  0  0  0  0  0  0  0  0  0  0  0
   18.6400  -10.1532  -14.5045 C   0  0  0  0  0  0  0  0  0  0  0  0
   19.0588  -10.9539  -13.6145 O   0  0  0  0  0  0  0  0  0  0  0  0
   19.9844   -6.1998  -14.1870 C   0  0  0  0  0  0  0  0  0  0  0  0
   20.3210   -7.3553  -13.3093 C   0  0  2  0  0  0  0  0  0  0  0  0
   21.5205   -8.1072  -13.9030 C   0  0  0  0  0  0  0  0  0  0  0  0
   19.2077   -8.2767  -12.9694 C   0  0  2  0  0  0  0  0  0  0  0  0
   18.6798   -8.7747  -14.2515 N   0  0  0  0  0  0  0  0  0  0  0  0
   18.1243   -7.7163  -12.1484 C   0  0  0  0  0  0  0  0  0  0  0  0
   17.1932   -7.0802  -12.7608 O   0  0  0  0  0  0  0  0  0  0  0  0
   11.2246   -9.5390   -8.0492 N   0  0  0  0  0  0  0  0  0  0  0  0
   11.2099   -8.1345   -8.2110 C   0  0  0  0  0  0  0  0  0  0  0  0
   10.1035   -7.4897   -8.0425 N   0  0  0  0  0  0  0  0  0  0  0  0
   12.3655   -7.3919   -8.5543 N   0  0  0  0  0  0  0  0  0  0  0  0
   13.4553   -7.9294   -9.3086 C   0  0  0  0  0  0  0  0  0  0  0  0
   14.8162   -7.7024   -8.6987 C   0  0  0  0  0  0  0  0  0  0  0  0
   15.9491   -8.2746   -9.4757 C   0  0  0  0  0  0  0  0  0  0  0  0
   16.8466   -7.2152  -10.0752 C   0  0  2  0  0  0  0  0  0  0  0  0
   17.9903   -7.8006  -10.7498 N   0  0  0  0  0  0  0  0  0  0  0  0
   17.2556   -6.2314   -9.0477 C   0  0  0  0  0  0  0  0  0  0  0  0
   18.3996   -6.3340   -8.5517 O   0  0  0  0  0  0  0  0  0  0  0  0
   16.4371   -5.2084   -8.6108 O   0  0  0  0  0  0  0  0  0  0  0  0
  2  1  1  1
  2  3  1  0
  3  4  1  0
  5  2  1  0
  6  5  2  0
  8  7  1  6
  8  9  1  0
  8 10  1  0
 10 11  1  6
 11  5  1  0
 12 10  1  0
 12 22  1  0
 13 12  2  0
 15 16  2  0
 15 14  1  0
 17 15  1  0
 18 17  1  0
 19 18  1  0
 20 19  1  0
 21 20  1  1
 21 22  1  0
 21 23  1  0
 23 25  1  0
 24 23  2  0
M  END
$$$$
