CVR.pdb
     RDKit          3D

 25 24  0  0  1  0  0  0  0  0999 V2000
   24.7920  -15.0575  -18.0245 N   0  0  0  0  0  0  0  0  0  0  0  0
   24.4428  -13.7508  -18.5295 C   0  0  1  0  0  0  0  0  0  0  0  0
   23.2068  -13.8562  -19.3835 C   0  0  0  0  0  0  0  0  0  0  0  0
   23.4396  -14.9737  -20.7786 S   0  0  0  0  0  0  0  0  0  0  0  0
   24.3113  -12.7443  -17.4569 C   0  0  0  0  0  0  0  0  0  0  0  0
   23.8937  -13.1683  -16.3369 O   0  0  0  0  0  0  0  0  0  0  0  0
   26.6819   -9.3224  -17.0696 C   0  0  0  0  0  0  0  0  0  0  0  0
   25.9246  -10.1339  -16.0764 C   0  0  2  0  0  0  0  0  0  0  0  0
   26.7467  -11.3772  -15.7088 C   0  0  0  0  0  0  0  0  0  0  0  0
   24.5269  -10.4846  -16.4336 C   0  0  2  0  0  0  0  0  0  0  0  0
   24.6129  -11.3824  -17.5985 N   0  0  0  0  0  0  0  0  0  0  0  0
   23.6234   -9.3594  -16.7153 C   0  0  0  0  0  0  0  0  0  0  0  0
   23.7728   -8.7538  -17.8367 O   0  0  0  0  0  0  0  0  0  0  0  0
   16.4270  -11.1104  -18.7556 N   0  0  0  0  0  0  0  0  0  0  0  0
   17.6431  -11.2707  -19.4585 C   0  0  0  0  0  0  0  0  0  0  0  0
   17.6803  -12.0480  -20.4894 N   0  0  0  0  0  0  0  0  0  0  0  0
   18.8379  -10.6116  -19.0804 N   0  0  0  0  0  0  0  0  0  0  0  0
   18.9066   -9.6374  -18.0356 C   0  0  0  0  0  0  0  0  0  0  0  0
   20.3007   -9.1650  -17.7054 C   0  0  0  0  0  0  0  0  0  0  0  0
   20.3723   -8.1498  -16.6196 C   0  0  0  0  0  0  0  0  0  0  0  0
   21.7897   -7.7339  -16.2949 C   0  0  2  0  0  0  0  0  0  0  0  0
   22.5998   -8.8659  -15.8848 N   0  0  0  0  0  0  0  0  0  0  0  0
   21.8005   -6.6524  -15.2844 C   0  0  0  0  0  0  0  0  0  0  0  0
   22.3157   -6.8889  -14.1691 O   0  0  0  0  0  0  0  0  0  0  0  0
   21.2702   -5.3977  -15.5126 O   0  0  0  0  0  0  0  0  0  0  0  0
  2  1  1  1
  2  3  1  0
  3  4  1  0
  5  2  1  0
  6  5  2  0
  8  7  1  6
  8  9  1  0
  8 10  1  0
 10 11  1  6
 11  5  1  0
 12 10  1  0
 12 22  1  0
 13 12  2  0
 15 16  2  0
 15 14  1  0
 17 15  1  0
 18 17  1  0
 19 18  1  0
 20 19  1  0
 21 20  1  1
 21 22  1  0
 21 23  1  0
 23 25  1  0
 24 23  2  0
M  END
$$$$
