CVR.pdb
     RDKit          3D

 25 24  0  0  1  0  0  0  0  0999 V2000
   28.9208  -21.1931  -15.7619 N   0  0  0  0  0  0  0  0  0  0  0  0
   28.2139  -20.2872  -14.8877 C   0  0  1  0  0  0  0  0  0  0  0  0
   27.5819  -19.1914  -15.7047 C   0  0  0  0  0  0  0  0  0  0  0  0
   28.8117  -18.1774  -16.5462 S   0  0  0  0  0  0  0  0  0  0  0  0
   27.2445  -20.9807  -14.0157 C   0  0  0  0  0  0  0  0  0  0  0  0
   26.7277  -22.0409  -14.4820 O   0  0  0  0  0  0  0  0  0  0  0  0
   24.8402  -21.4437   -9.7050 C   0  0  0  0  0  0  0  0  0  0  0  0
   25.9163  -20.9485  -10.6081 C   0  0  2  0  0  0  0  0  0  0  0  0
   26.2131  -19.4784  -10.2806 C   0  0  0  0  0  0  0  0  0  0  0  0
   25.7093  -21.1569  -12.0633 C   0  0  2  0  0  0  0  0  0  0  0  0
   26.8706  -20.5485  -12.7354 N   0  0  0  0  0  0  0  0  0  0  0  0
   24.4555  -20.6337  -12.6256 C   0  0  0  0  0  0  0  0  0  0  0  0
   24.5515  -19.7526  -13.5536 O   0  0  0  0  0  0  0  0  0  0  0  0
   22.5267  -26.5483  -14.9999 N   0  0  0  0  0  0  0  0  0  0  0  0
   21.5427  -25.8781  -15.7624 C   0  0  0  0  0  0  0  0  0  0  0  0
   20.4700  -26.5100  -16.1066 N   0  0  0  0  0  0  0  0  0  0  0  0
   21.6797  -24.5300  -16.1728 N   0  0  0  0  0  0  0  0  0  0  0  0
   22.6929  -23.6514  -15.6757 C   0  0  0  0  0  0  0  0  0  0  0  0
   22.3384  -22.9435  -14.3916 C   0  0  0  0  0  0  0  0  0  0  0  0
   22.2649  -21.4610  -14.4987 C   0  0  0  0  0  0  0  0  0  0  0  0
   22.0334  -20.7851  -13.1657 C   0  0  2  0  0  0  0  0  0  0  0  0
   23.1459  -20.9950  -12.2579 N   0  0  0  0  0  0  0  0  0  0  0  0
   20.7481  -21.2193  -12.5737 C   0  0  0  0  0  0  0  0  0  0  0  0
   20.7781  -21.8742  -11.5081 O   0  0  0  0  0  0  0  0  0  0  0  0
   19.5202  -20.9375  -13.1397 O   0  0  0  0  0  0  0  0  0  0  0  0
  2  1  1  6
  2  3  1  0
  3  4  1  0
  5  2  1  0
  6  5  2  0
  8  7  1  1
  8  9  1  0
  8 10  1  0
 10 11  1  6
 11  5  1  0
 12 10  1  0
 12 22  1  0
 13 12  2  0
 15 16  2  0
 15 14  1  0
 17 15  1  0
 18 17  1  0
 19 18  1  0
 20 19  1  0
 21 20  1  6
 21 22  1  0
 21 23  1  0
 23 25  1  0
 24 23  2  0
M  END
$$$$
