CVR.pdb
     RDKit          3D

 25 24  0  0  1  0  0  0  0  0999 V2000
   17.4801  -14.0481  -15.2376 N   0  0  0  0  0  0  0  0  0  0  0  0
   17.2672  -12.6383  -15.4651 C   0  0  1  0  0  0  0  0  0  0  0  0
   15.8682  -12.2680  -15.0488 C   0  0  0  0  0  0  0  0  0  0  0  0
   14.6202  -13.1105  -16.0395 S   0  0  0  0  0  0  0  0  0  0  0  0
   18.2960  -11.7977  -14.8202 C   0  0  0  0  0  0  0  0  0  0  0  0
   18.5503  -12.0546  -13.6046 O   0  0  0  0  0  0  0  0  0  0  0  0
   22.3390   -9.1572  -14.8742 C   0  0  0  0  0  0  0  0  0  0  0  0
   21.2126   -9.9452  -15.4480 C   0  0  2  0  0  0  0  0  0  0  0  0
   21.0063   -9.5369  -16.9134 C   0  0  0  0  0  0  0  0  0  0  0  0
   19.9374   -9.9300  -14.6881 C   0  0  2  0  0  0  0  0  0  0  0  0
   18.9914  -10.7589  -15.4552 N   0  0  0  0  0  0  0  0  0  0  0  0
   19.3578   -8.6072  -14.4122 C   0  0  0  0  0  0  0  0  0  0  0  0
   18.7022   -8.0447  -15.3611 O   0  0  0  0  0  0  0  0  0  0  0  0
   14.8643   -6.6318   -7.5805 N   0  0  0  0  0  0  0  0  0  0  0  0
   14.4121   -7.3657   -8.7011 C   0  0  0  0  0  0  0  0  0  0  0  0
   13.2727   -7.9713   -8.6428 N   0  0  0  0  0  0  0  0  0  0  0  0
   15.1591   -7.4702   -9.8993 N   0  0  0  0  0  0  0  0  0  0  0  0
   16.4047   -6.8014  -10.1151 C   0  0  0  0  0  0  0  0  0  0  0  0
   16.9513   -6.9240  -11.5158 C   0  0  0  0  0  0  0  0  0  0  0  0
   18.2921   -6.3103  -11.7160 C   0  0  0  0  0  0  0  0  0  0  0  0
   18.8524   -6.5576  -13.0988 C   0  0  2  0  0  0  0  0  0  0  0  0
   19.4405   -7.8796  -13.2103 N   0  0  0  0  0  0  0  0  0  0  0  0
   19.8104   -5.4937  -13.4746 C   0  0  0  0  0  0  0  0  0  0  0  0
   21.0321   -5.7157  -13.3216 O   0  0  0  0  0  0  0  0  0  0  0  0
   19.4216   -4.2704  -13.9844 O   0  0  0  0  0  0  0  0  0  0  0  0
  2  1  1  1
  2  3  1  0
  3  4  1  0
  5  2  1  0
  6  5  2  0
  8  7  1  1
  8  9  1  0
  8 10  1  0
 10 11  1  6
 11  5  1  0
 12 10  1  0
 12 22  1  0
 13 12  2  0
 15 16  2  0
 15 14  1  0
 17 15  1  0
 18 17  1  0
 19 18  1  0
 20 19  1  0
 21 20  1  1
 21 22  1  0
 21 23  1  0
 23 25  1  0
 24 23  2  0
M  END
$$$$
