ADL.pdb
     RDKit          3D

 22 21  0  0  1  0  0  0  0  0999 V2000
    8.3893  -12.1540   19.1712 C   0  0  0  0  0  0  0  0  0  0  0  0
    8.4404  -13.5868   18.6896 C   0  0  2  0  0  0  0  0  0  0  0  0
    7.3887  -13.7921   17.7149 N   0  0  0  0  0  0  0  0  0  0  0  0
    8.2634  -14.4678   19.8725 C   0  0  0  0  0  0  0  0  0  0  0  0
    7.1020  -14.7664   20.2275 O   0  0  0  0  0  0  0  0  0  0  0  0
    9.3447  -14.9789   20.6080 N   0  0  0  0  0  0  0  0  0  0  0  0
    9.1885  -16.0156   21.6551 C   0  0  1  0  0  0  0  0  0  0  0  0
   10.1996  -17.0480   21.3524 C   0  0  0  0  0  0  0  0  0  0  0  0
    9.8269  -18.4493   21.5016 C   0  0  0  0  0  0  0  0  0  0  0  0
    9.0256  -19.1133   20.8285 O   0  0  0  0  0  0  0  0  0  0  0  0
    9.2736  -15.3951   22.9907 C   0  0  0  0  0  0  0  0  0  0  0  0
   10.1010  -14.4812   23.2126 O   0  0  0  0  0  0  0  0  0  0  0  0
   10.4865  -19.1101   22.5667 O   0  0  0  0  0  0  0  0  0  0  0  0
    8.1933  -12.1898   26.9648 C   0  0  0  0  0  0  0  0  0  0  0  0
    7.1906  -13.2608   26.6690 C   0  0  1  0  0  0  0  0  0  0  0  0
    5.7815  -12.6734   26.7388 C   0  0  0  0  0  0  0  0  0  0  0  0
    7.3983  -14.1332   25.5148 C   0  0  0  0  0  0  0  0  0  0  0  0
    8.5070  -15.0765   25.3967 C   0  0  2  0  0  0  0  0  0  0  0  0
    8.4517  -15.7748   24.0861 N   0  0  0  0  0  0  0  0  0  0  0  0
    8.6123  -16.1204   26.4060 C   0  0  0  0  0  0  0  0  0  0  0  0
    9.4570  -16.1223   27.5184 O   0  0  0  0  0  0  0  0  0  0  0  0
    7.8701  -17.1584   26.2830 O   0  0  0  0  0  0  0  0  0  0  0  0
  2  1  1  1
  2  4  1  0
  3  2  1  0
  4  6  1  0
  4  5  2  0
  6  7  1  0
  7 11  1  0
  7  8  1  1
  9  8  1  0
 10  9  2  0
 11 12  2  0
 11 19  1  0
 13  9  1  0
 15 14  1  6
 16 15  1  0
 18 17  1  1
 17 15  1  0
 18 20  1  0
 19 18  1  0
 20 21  1  0
 22 20  2  0
M  END
$$$$
