ADL.pdb
     RDKit          3D

 22 21  0  0  1  0  0  0  0  0999 V2000
    7.3742  -12.8671   18.9937 C   0  0  0  0  0  0  0  0  0  0  0  0
    8.6357  -13.0905   19.7976 C   0  0  2  0  0  0  0  0  0  0  0  0
    9.6859  -13.5408   18.9073 N   0  0  0  0  0  0  0  0  0  0  0  0
    8.3343  -14.1066   20.8385 C   0  0  0  0  0  0  0  0  0  0  0  0
    7.3085  -13.9597   21.5386 O   0  0  0  0  0  0  0  0  0  0  0  0
    9.1525  -15.2241   21.0691 N   0  0  0  0  0  0  0  0  0  0  0  0
    8.8794  -16.2163   22.1352 C   0  0  1  0  0  0  0  0  0  0  0  0
    9.6435  -17.4242   21.7652 C   0  0  0  0  0  0  0  0  0  0  0  0
    9.2660  -18.1398   20.5526 C   0  0  0  0  0  0  0  0  0  0  0  0
    8.1396  -18.5081   20.1898 O   0  0  0  0  0  0  0  0  0  0  0  0
    9.1873  -15.6316   23.4541 C   0  0  0  0  0  0  0  0  0  0  0  0
   10.3200  -15.1486   23.6836 O   0  0  0  0  0  0  0  0  0  0  0  0
   10.3551  -18.4382   19.6978 O   0  0  0  0  0  0  0  0  0  0  0  0
    5.6624  -12.4114   26.2445 C   0  0  0  0  0  0  0  0  0  0  0  0
    6.9539  -12.9889   25.7558 C   0  0  1  0  0  0  0  0  0  0  0  0
    8.0042  -11.8828   25.6629 C   0  0  0  0  0  0  0  0  0  0  0  0
    7.4596  -14.2190   26.3618 C   0  0  0  0  0  0  0  0  0  0  0  0
    8.5949  -14.9758   25.8410 C   0  0  2  0  0  0  0  0  0  0  0  0
    8.2541  -15.5750   24.5244 N   0  0  0  0  0  0  0  0  0  0  0  0
    9.1094  -16.0648   26.6588 C   0  0  0  0  0  0  0  0  0  0  0  0
    9.8967  -15.9455   27.8064 O   0  0  0  0  0  0  0  0  0  0  0  0
    8.8323  -17.2669   26.3101 O   0  0  0  0  0  0  0  0  0  0  0  0
  2  1  1  6
  2  4  1  0
  3  2  1  0
  4  6  1  0
  4  5  2  0
  6  7  1  0
  7 11  1  0
  7  8  1  6
  9  8  1  0
 10  9  2  0
 11 12  2  0
 11 19  1  0
 13  9  1  0
 15 14  1  1
 16 15  1  0
 18 17  1  1
 17 15  1  0
 18 20  1  0
 19 18  1  0
 20 21  1  0
 22 20  2  0
M  END
$$$$
