ADL.pdb
     RDKit          3D

 22 21  0  0  1  0  0  0  0  0999 V2000
    6.8940  -14.1862   19.6945 C   0  0  0  0  0  0  0  0  0  0  0  0
    7.4001  -13.7557   21.0532 C   0  0  2  0  0  0  0  0  0  0  0  0
    8.3605  -12.6853   20.8787 N   0  0  0  0  0  0  0  0  0  0  0  0
    8.0198  -14.9403   21.7009 C   0  0  0  0  0  0  0  0  0  0  0  0
    7.3051  -15.9418   21.9248 O   0  0  0  0  0  0  0  0  0  0  0  0
    9.3732  -14.9824   22.0718 N   0  0  0  0  0  0  0  0  0  0  0  0
    9.9858  -16.1464   22.7541 C   0  0  1  0  0  0  0  0  0  0  0  0
   11.3603  -16.2451   22.2244 C   0  0  0  0  0  0  0  0  0  0  0  0
   11.5390  -16.5662   20.8137 C   0  0  0  0  0  0  0  0  0  0  0  0
   12.1784  -15.9443   19.9531 O   0  0  0  0  0  0  0  0  0  0  0  0
    9.8627  -15.9917   24.2160 C   0  0  0  0  0  0  0  0  0  0  0  0
   10.5787  -16.6713   24.9870 O   0  0  0  0  0  0  0  0  0  0  0  0
   10.8816  -17.7524   20.4055 O   0  0  0  0  0  0  0  0  0  0  0  0
    5.6898  -12.9376   25.8199 C   0  0  0  0  0  0  0  0  0  0  0  0
    7.1703  -13.1149   25.6895 C   0  0  1  0  0  0  0  0  0  0  0  0
    7.8274  -11.7562   25.4502 C   0  0  0  0  0  0  0  0  0  0  0  0
    7.8790  -13.9372   26.6682 C   0  0  0  0  0  0  0  0  0  0  0  0
    8.8077  -15.0067   26.3124 C   0  0  2  0  0  0  0  0  0  0  0  0
    8.9544  -15.0916   24.8360 N   0  0  0  0  0  0  0  0  0  0  0  0
    8.4878  -16.3531   26.7641 C   0  0  0  0  0  0  0  0  0  0  0  0
    7.9898  -17.3984   25.9827 O   0  0  0  0  0  0  0  0  0  0  0  0
    8.6654  -16.6347   28.0022 O   0  0  0  0  0  0  0  0  0  0  0  0
  2  1  1  6
  2  4  1  0
  3  2  1  0
  4  6  1  0
  4  5  2  0
  6  7  1  0
  7 11  1  0
  7  8  1  1
  9  8  1  0
 10  9  2  0
 11 12  2  0
 11 19  1  0
 13  9  1  0
 15 14  1  1
 16 15  1  0
 18 17  1  6
 17 15  1  0
 18 20  1  0
 19 18  1  0
 20 21  1  0
 22 20  2  0
M  END
$$$$
