ADL.pdb
     RDKit          3D

 22 21  0  0  1  0  0  0  0  0999 V2000
   10.9623  -16.2404   19.5889 C   0  0  0  0  0  0  0  0  0  0  0  0
   11.8694  -16.2802   20.7985 C   0  0  2  0  0  0  0  0  0  0  0  0
   12.8349  -17.3462   20.6261 N   0  0  0  0  0  0  0  0  0  0  0  0
   11.0181  -16.5076   21.9945 C   0  0  0  0  0  0  0  0  0  0  0  0
   10.1263  -15.6724   22.2615 O   0  0  0  0  0  0  0  0  0  0  0  0
   11.1728  -17.6200   22.8370 N   0  0  0  0  0  0  0  0  0  0  0  0
   10.2307  -17.9352   23.9365 C   0  0  1  0  0  0  0  0  0  0  0  0
   10.0679  -19.4025   23.9179 C   0  0  0  0  0  0  0  0  0  0  0  0
    9.2918  -20.0011   22.8389 C   0  0  0  0  0  0  0  0  0  0  0  0
    8.5933  -19.4388   21.9833 O   0  0  0  0  0  0  0  0  0  0  0  0
   10.7218  -17.3521   25.1994 C   0  0  0  0  0  0  0  0  0  0  0  0
   11.9502  -17.3068   25.4402 O   0  0  0  0  0  0  0  0  0  0  0  0
    9.3681  -21.4145   22.7905 O   0  0  0  0  0  0  0  0  0  0  0  0
    8.4353  -13.0084   27.6825 C   0  0  0  0  0  0  0  0  0  0  0  0
    9.6362  -13.8936   27.5625 C   0  0  1  0  0  0  0  0  0  0  0  0
   10.8706  -13.1500   28.0712 C   0  0  0  0  0  0  0  0  0  0  0  0
    9.5550  -15.2739   28.0359 C   0  0  0  0  0  0  0  0  0  0  0  0
   10.3813  -16.3616   27.5191 C   0  0  2  0  0  0  0  0  0  0  0  0
    9.8674  -16.8172   26.2011 N   0  0  0  0  0  0  0  0  0  0  0  0
   10.5074  -17.5582   28.3385 C   0  0  0  0  0  0  0  0  0  0  0  0
    9.8612  -18.7798   28.1351 O   0  0  0  0  0  0  0  0  0  0  0  0
   11.2787  -17.5130   29.3616 O   0  0  0  0  0  0  0  0  0  0  0  0
  2  1  1  6
  2  4  1  0
  3  2  1  0
  4  6  1  0
  4  5  2  0
  6  7  1  0
  7 11  1  0
  7  8  1  1
  9  8  1  0
 10  9  2  0
 11 12  2  0
 11 19  1  0
 13  9  1  0
 15 14  1  1
 16 15  1  0
 18 17  1  1
 17 15  1  0
 18 20  1  0
 19 18  1  0
 20 21  1  0
 22 20  2  0
M  END
$$$$
