ADL.pdb
     RDKit          3D

 22 21  0  0  1  0  0  0  0  0999 V2000
    6.7949  -13.8504   19.3448 C   0  0  0  0  0  0  0  0  0  0  0  0
    7.8852  -13.3370   20.2587 C   0  0  2  0  0  0  0  0  0  0  0  0
    9.0730  -13.0761   19.4717 N   0  0  0  0  0  0  0  0  0  0  0  0
    8.1358  -14.3754   21.2911 C   0  0  0  0  0  0  0  0  0  0  0  0
    7.1680  -14.7994   21.9603 O   0  0  0  0  0  0  0  0  0  0  0  0
    9.4126  -14.9002   21.5468 N   0  0  0  0  0  0  0  0  0  0  0  0
    9.6521  -16.0080   22.5013 C   0  0  1  0  0  0  0  0  0  0  0  0
   10.8695  -16.6935   22.0241 C   0  0  0  0  0  0  0  0  0  0  0  0
   11.3154  -17.8881   22.7305 C   0  0  0  0  0  0  0  0  0  0  0  0
   12.4723  -18.2410   23.0011 O   0  0  0  0  0  0  0  0  0  0  0  0
    9.7009  -15.4809   23.8782 C   0  0  0  0  0  0  0  0  0  0  0  0
   10.7504  -14.9586   24.3192 O   0  0  0  0  0  0  0  0  0  0  0  0
   10.2614  -18.7364   23.1492 O   0  0  0  0  0  0  0  0  0  0  0  0
    5.6004  -12.8062   26.2393 C   0  0  0  0  0  0  0  0  0  0  0  0
    7.0313  -13.1983   26.0415 C   0  0  1  0  0  0  0  0  0  0  0  0
    7.9321  -11.9938   26.3116 C   0  0  0  0  0  0  0  0  0  0  0  0
    7.5217  -14.4358   26.6451 C   0  0  0  0  0  0  0  0  0  0  0  0
    8.7250  -15.1357   26.2034 C   0  0  2  0  0  0  0  0  0  0  0  0
    8.5991  -15.5251   24.7747 N   0  0  0  0  0  0  0  0  0  0  0  0
    9.1002  -16.3461   26.9199 C   0  0  0  0  0  0  0  0  0  0  0  0
    9.0467  -17.6540   26.4324 O   0  0  0  0  0  0  0  0  0  0  0  0
    9.5202  -16.2304   28.1257 O   0  0  0  0  0  0  0  0  0  0  0  0
  2  1  1  6
  2  4  1  0
  3  2  1  0
  4  6  1  0
  4  5  2  0
  6  7  1  0
  7 11  1  0
  7  8  1  6
  9  8  1  0
 10  9  2  0
 11 12  2  0
 11 19  1  0
 13  9  1  0
 15 14  1  1
 16 15  1  0
 18 17  1  1
 17 15  1  0
 18 20  1  0
 19 18  1  0
 20 21  1  0
 22 20  2  0
M  END
$$$$
