ADL.pdb
     RDKit          3D

 22 21  0  0  1  0  0  0  0  0999 V2000
    5.6240  -20.3211   22.5962 C   0  0  0  0  0  0  0  0  0  0  0  0
    5.8580  -19.1143   23.4773 C   0  0  2  0  0  0  0  0  0  0  0  0
    5.0470  -18.0158   22.9936 N   0  0  0  0  0  0  0  0  0  0  0  0
    7.3057  -18.7863   23.4196 C   0  0  0  0  0  0  0  0  0  0  0  0
    8.1315  -19.6629   23.7569 O   0  0  0  0  0  0  0  0  0  0  0  0
    7.7852  -17.5344   23.0026 N   0  0  0  0  0  0  0  0  0  0  0  0
    9.2216  -17.1714   23.0312 C   0  0  1  0  0  0  0  0  0  0  0  0
    9.5098  -16.5679   21.7150 C   0  0  0  0  0  0  0  0  0  0  0  0
   10.8945  -16.2562   21.3828 C   0  0  0  0  0  0  0  0  0  0  0  0
   11.3728  -15.1842   20.9850 O   0  0  0  0  0  0  0  0  0  0  0  0
    9.5013  -16.3272   24.2082 C   0  0  0  0  0  0  0  0  0  0  0  0
   10.6218  -15.7848   24.3462 O   0  0  0  0  0  0  0  0  0  0  0  0
   11.7852  -17.3450   21.5474 O   0  0  0  0  0  0  0  0  0  0  0  0
    5.6381  -13.1791   26.1975 C   0  0  0  0  0  0  0  0  0  0  0  0
    7.0318  -13.6076   25.8595 C   0  0  1  0  0  0  0  0  0  0  0  0
    7.8199  -12.4093   25.3322 C   0  0  0  0  0  0  0  0  0  0  0  0
    7.7810  -14.4177   26.8180 C   0  0  0  0  0  0  0  0  0  0  0  0
    8.8930  -15.2908   26.4519 C   0  0  2  0  0  0  0  0  0  0  0  0
    8.5531  -16.0755   25.2364 N   0  0  0  0  0  0  0  0  0  0  0  0
    9.3439  -16.2572   27.4430 C   0  0  0  0  0  0  0  0  0  0  0  0
   10.0544  -15.9812   28.6135 O   0  0  0  0  0  0  0  0  0  0  0  0
    9.0814  -17.4962   27.2437 O   0  0  0  0  0  0  0  0  0  0  0  0
  2  1  1  6
  2  4  1  0
  3  2  1  0
  4  6  1  0
  4  5  2  0
  6  7  1  0
  7 11  1  0
  7  8  1  6
  9  8  1  0
 10  9  2  0
 11 12  2  0
 11 19  1  0
 13  9  1  0
 15 14  1  1
 16 15  1  0
 18 17  1  1
 17 15  1  0
 18 20  1  0
 19 18  1  0
 20 21  1  0
 22 20  2  0
M  END
$$$$
