ADL.pdb
     RDKit          3D

 22 21  0  0  1  0  0  0  0  0999 V2000
    7.6842  -17.4547   19.1995 C   0  0  0  0  0  0  0  0  0  0  0  0
    7.4450  -17.6521   20.6798 C   0  0  2  0  0  0  0  0  0  0  0  0
    6.5472  -16.6180   21.1521 N   0  0  0  0  0  0  0  0  0  0  0  0
    8.7617  -17.5812   21.3639 C   0  0  0  0  0  0  0  0  0  0  0  0
    9.6204  -18.4514   21.1002 O   0  0  0  0  0  0  0  0  0  0  0  0
    9.0822  -16.5789   22.2933 N   0  0  0  0  0  0  0  0  0  0  0  0
   10.4144  -16.4693   22.9328 C   0  0  1  0  0  0  0  0  0  0  0  0
   11.2401  -15.6692   22.0066 C   0  0  0  0  0  0  0  0  0  0  0  0
   12.5903  -16.1294   21.7062 C   0  0  0  0  0  0  0  0  0  0  0  0
   13.6423  -15.8948   22.3180 O   0  0  0  0  0  0  0  0  0  0  0  0
   10.2709  -15.9362   24.3008 C   0  0  0  0  0  0  0  0  0  0  0  0
   11.2734  -15.5220   24.9272 O   0  0  0  0  0  0  0  0  0  0  0  0
   12.6756  -16.9518   20.5563 O   0  0  0  0  0  0  0  0  0  0  0  0
    5.8038  -13.1130   25.9482 C   0  0  0  0  0  0  0  0  0  0  0  0
    7.2341  -13.5470   25.8688 C   0  0  1  0  0  0  0  0  0  0  0  0
    8.1458  -12.3344   26.0526 C   0  0  0  0  0  0  0  0  0  0  0  0
    7.6672  -14.7182   26.6282 C   0  0  0  0  0  0  0  0  0  0  0  0
    8.9309  -15.4141   26.4007 C   0  0  2  0  0  0  0  0  0  0  0  0
    9.0280  -15.8558   24.9851 N   0  0  0  0  0  0  0  0  0  0  0  0
    9.2052  -16.5922   27.2107 C   0  0  0  0  0  0  0  0  0  0  0  0
    9.6099  -16.6091   28.5475 O   0  0  0  0  0  0  0  0  0  0  0  0
    9.0765  -17.7453   26.6653 O   0  0  0  0  0  0  0  0  0  0  0  0
  2  1  1  6
  2  4  1  0
  3  2  1  0
  4  6  1  0
  4  5  2  0
  6  7  1  0
  7 11  1  0
  7  8  1  6
  9  8  1  0
 10  9  2  0
 11 12  2  0
 11 19  1  0
 13  9  1  0
 15 14  1  1
 16 15  1  0
 18 17  1  1
 17 15  1  0
 18 20  1  0
 19 18  1  0
 20 21  1  0
 22 20  2  0
M  END
$$$$
