ADL.pdb
     RDKit          3D

 22 21  0  0  1  0  0  0  0  0999 V2000
    7.1073  -12.9737   19.0561 C   0  0  0  0  0  0  0  0  0  0  0  0
    8.3978  -13.1626   19.8221 C   0  0  2  0  0  0  0  0  0  0  0  0
    9.4164  -13.6470   18.9132 N   0  0  0  0  0  0  0  0  0  0  0  0
    8.1372  -14.1361   20.9135 C   0  0  0  0  0  0  0  0  0  0  0  0
    7.1272  -13.9723   21.6326 O   0  0  0  0  0  0  0  0  0  0  0  0
    8.9769  -15.2314   21.1713 N   0  0  0  0  0  0  0  0  0  0  0  0
    8.7132  -16.2124   22.2501 C   0  0  1  0  0  0  0  0  0  0  0  0
    9.4102  -17.4499   21.8471 C   0  0  0  0  0  0  0  0  0  0  0  0
    8.9050  -18.1875   20.6957 C   0  0  0  0  0  0  0  0  0  0  0  0
    7.7324  -18.4702   20.4110 O   0  0  0  0  0  0  0  0  0  0  0  0
    9.1045  -15.6413   23.5528 C   0  0  0  0  0  0  0  0  0  0  0  0
   10.2764  -15.2419   23.7425 O   0  0  0  0  0  0  0  0  0  0  0  0
    9.9148  -18.6245   19.8039 O   0  0  0  0  0  0  0  0  0  0  0  0
    6.0373  -12.1657   26.6003 C   0  0  0  0  0  0  0  0  0  0  0  0
    7.2446  -12.8529   26.0431 C   0  0  1  0  0  0  0  0  0  0  0  0
    8.4066  -11.8631   25.9704 C   0  0  0  0  0  0  0  0  0  0  0  0
    7.6289  -14.1601   26.5721 C   0  0  0  0  0  0  0  0  0  0  0  0
    8.6584  -15.0081   25.9773 C   0  0  2  0  0  0  0  0  0  0  0  0
    8.2119  -15.5065   24.6503 N   0  0  0  0  0  0  0  0  0  0  0  0
    9.0794  -16.1820   26.7284 C   0  0  0  0  0  0  0  0  0  0  0  0
    9.9429  -16.2039   27.8261 O   0  0  0  0  0  0  0  0  0  0  0  0
    8.6324  -17.3268   26.3633 O   0  0  0  0  0  0  0  0  0  0  0  0
  2  1  1  6
  2  4  1  0
  3  2  1  0
  4  6  1  0
  4  5  2  0
  6  7  1  0
  7 11  1  0
  7  8  1  6
  9  8  1  0
 10  9  2  0
 11 12  2  0
 11 19  1  0
 13  9  1  0
 15 14  1  1
 16 15  1  0
 18 17  1  1
 17 15  1  0
 18 20  1  0
 19 18  1  0
 20 21  1  0
 22 20  2  0
M  END
$$$$
