ADL.pdb
     RDKit          3D

 22 21  0  0  1  0  0  0  0  0999 V2000
    8.3658  -12.1271   20.1709 C   0  0  0  0  0  0  0  0  0  0  0  0
    8.3636  -13.4745   19.4839 C   0  0  2  0  0  0  0  0  0  0  0  0
    7.2253  -13.5441   18.5908 N   0  0  0  0  0  0  0  0  0  0  0  0
    8.2910  -14.5191   20.5377 C   0  0  0  0  0  0  0  0  0  0  0  0
    7.1650  -14.8877   20.9380 O   0  0  0  0  0  0  0  0  0  0  0  0
    9.4329  -15.1093   21.1025 N   0  0  0  0  0  0  0  0  0  0  0  0
    9.3647  -16.1625   22.1426 C   0  0  1  0  0  0  0  0  0  0  0  0
   10.3897  -17.1589   21.7734 C   0  0  0  0  0  0  0  0  0  0  0  0
   10.1066  -18.0703   20.6715 C   0  0  0  0  0  0  0  0  0  0  0  0
    9.0418  -18.6394   20.3915 O   0  0  0  0  0  0  0  0  0  0  0  0
    9.5011  -15.5552   23.4800 C   0  0  0  0  0  0  0  0  0  0  0  0
   10.6101  -15.1209   23.8678 O   0  0  0  0  0  0  0  0  0  0  0  0
   11.2176  -18.3165   19.8283 O   0  0  0  0  0  0  0  0  0  0  0  0
    5.6190  -12.4799   26.1557 C   0  0  0  0  0  0  0  0  0  0  0  0
    6.9473  -13.0104   25.7147 C   0  0  1  0  0  0  0  0  0  0  0  0
    7.9831  -11.8876   25.7532 C   0  0  0  0  0  0  0  0  0  0  0  0
    7.4350  -14.2684   26.2767 C   0  0  0  0  0  0  0  0  0  0  0  0
    8.6234  -14.9681   25.7958 C   0  0  2  0  0  0  0  0  0  0  0  0
    8.4221  -15.4224   24.3952 N   0  0  0  0  0  0  0  0  0  0  0  0
    9.0617  -16.1395   26.5408 C   0  0  0  0  0  0  0  0  0  0  0  0
    9.1035  -17.4559   26.0756 O   0  0  0  0  0  0  0  0  0  0  0  0
    9.4483  -15.9768   27.7523 O   0  0  0  0  0  0  0  0  0  0  0  0
  2  1  1  1
  2  4  1  0
  3  2  1  0
  4  6  1  0
  4  5  2  0
  6  7  1  0
  7 11  1  0
  7  8  1  6
  9  8  1  0
 10  9  2  0
 11 12  2  0
 11 19  1  0
 13  9  1  0
 15 14  1  1
 16 15  1  0
 18 17  1  1
 17 15  1  0
 18 20  1  0
 19 18  1  0
 20 21  1  0
 22 20  2  0
M  END
$$$$
