LFS.pdb
     RDKit          3D

 26 26  0  0  1  0  0  0  0  0999 V2000
    8.0159  -11.9419   19.5268 C   0  0  0  0  0  0  0  0  0  0  0  0
    7.8376  -13.4116   19.8771 C   0  0  1  0  0  0  0  0  0  0  0  0
    8.0753  -14.1916   18.5985 C   0  0  0  0  0  0  0  0  0  0  0  0
    8.8468  -13.8619   20.8967 C   0  0  0  0  0  0  0  0  0  0  0  0
    8.5296  -15.2528   21.4099 C   0  0  2  0  0  0  0  0  0  0  0  0
    7.1627  -15.6160   21.1963 N   0  0  0  0  0  0  0  0  0  0  0  0
    8.8430  -15.3183   22.8564 C   0  0  0  0  0  0  0  0  0  0  0  0
    9.9293  -14.8648   23.2597 O   0  0  0  0  0  0  0  0  0  0  0  0
    7.9438  -15.8812   23.7942 N   0  0  0  0  0  0  0  0  0  0  0  0
    8.3064  -15.9698   25.1655 C   0  0  1  0  0  0  0  0  0  0  0  0
    7.2471  -15.5220   26.1271 C   0  0  0  0  0  0  0  0  0  0  0  0
    7.1776  -14.0645   26.2992 C   0  0  0  0  0  0  0  0  0  0  0  0
    8.2431  -13.3237   26.7670 C   0  0  0  0  0  0  0  0  0  0  0  0
    8.1559  -11.9376   26.9233 C   0  0  0  0  0  0  0  0  0  0  0  0
    6.9941  -11.2749   26.6110 C   0  0  0  0  0  0  0  0  0  0  0  0
    5.9207  -12.0026   26.1422 C   0  0  0  0  0  0  0  0  0  0  0  0
    6.0206  -13.3699   25.9928 C   0  0  0  0  0  0  0  0  0  0  0  0
    8.5924  -17.4136   25.4813 C   0  0  0  0  0  0  0  0  0  0  0  0
    7.6535  -18.2201   25.7601 O   0  0  0  0  0  0  0  0  0  0  0  0
   12.3503  -18.7524   24.7374 O   0  0  0  0  0  0  0  0  0  0  0  0
   11.3313  -19.6844   24.7389 C   0  0  0  0  0  0  0  0  0  0  0  0
   10.2300  -19.3257   25.7080 C   0  0  2  0  0  0  0  0  0  0  0  0
    9.9004  -17.9309   25.4822 N   0  0  0  0  0  0  0  0  0  0  0  0
   10.7961  -19.4187   27.0772 C   0  0  0  0  0  0  0  0  0  0  0  0
   11.1657  -20.6026   27.6937 O   0  0  0  0  0  0  0  0  0  0  0  0
   10.9500  -18.3511   27.7194 O   0  0  0  0  0  0  0  0  0  0  0  0
  2  1  1  6
  2  4  1  0
  2  3  1  0
  5  4  1  0
  5  6  1  1
  7  5  1  0
  8  7  2  0
  9  7  1  0
 10  9  1  0
 10 11  1  1
 11 12  1  0
 12 17  2  0
 13 12  1  0
 13 14  2  0
 14 15  1  0
 15 16  2  0
 17 16  1  0
 18 23  1  0
 18 10  1  0
 19 18  2  0
 20 21  1  0
 22 21  1  6
 22 24  1  0
 22 23  1  0
 24 25  1  0
 26 24  2  0
M  END
$$$$
