LFS.pdb
     RDKit          3D

 26 26  0  0  1  0  0  0  0  0999 V2000
    7.4482  -13.2512   17.1082 C   0  0  0  0  0  0  0  0  0  0  0  0
    8.0034  -14.5245   17.7287 C   0  0  1  0  0  0  0  0  0  0  0  0
    8.7158  -15.2708   16.6173 C   0  0  0  0  0  0  0  0  0  0  0  0
    9.0052  -14.2208   18.8079 C   0  0  0  0  0  0  0  0  0  0  0  0
    9.1183  -15.3667   19.7942 C   0  0  2  0  0  0  0  0  0  0  0  0
    8.0422  -16.3010   19.6726 N   0  0  0  0  0  0  0  0  0  0  0  0
    9.1508  -14.8195   21.1705 C   0  0  0  0  0  0  0  0  0  0  0  0
   10.0301  -13.9917   21.4703 O   0  0  0  0  0  0  0  0  0  0  0  0
    8.2115  -15.2098   22.1555 N   0  0  0  0  0  0  0  0  0  0  0  0
    8.2692  -14.6465   23.4590 C   0  0  1  0  0  0  0  0  0  0  0  0
    6.9371  -14.3121   24.0600 C   0  0  0  0  0  0  0  0  0  0  0  0
    7.0235  -13.5211   25.2952 C   0  0  0  0  0  0  0  0  0  0  0  0
    6.4157  -13.9147   26.4692 C   0  0  0  0  0  0  0  0  0  0  0  0
    6.5104  -13.1471   27.6333 C   0  0  0  0  0  0  0  0  0  0  0  0
    7.2190  -11.9705   27.6341 C   0  0  0  0  0  0  0  0  0  0  0  0
    7.8320  -11.5645   26.4674 C   0  0  0  0  0  0  0  0  0  0  0  0
    7.7303  -12.3317   25.3260 C   0  0  0  0  0  0  0  0  0  0  0  0
    8.9148  -15.6517   24.3748 C   0  0  0  0  0  0  0  0  0  0  0  0
    8.4679  -16.8358   24.4646 O   0  0  0  0  0  0  0  0  0  0  0  0
    9.9250  -17.5603   28.0217 O   0  0  0  0  0  0  0  0  0  0  0  0
    9.4958  -16.6575   27.0689 C   0  0  0  0  0  0  0  0  0  0  0  0
   10.6155  -16.2108   26.1593 C   0  0  2  0  0  0  0  0  0  0  0  0
   10.0322  -15.3288   25.1658 N   0  0  0  0  0  0  0  0  0  0  0  0
   11.1052  -17.4111   25.4359 C   0  0  0  0  0  0  0  0  0  0  0  0
   12.0977  -18.2568   25.9025 O   0  0  0  0  0  0  0  0  0  0  0  0
   10.5835  -17.6770   24.3254 O   0  0  0  0  0  0  0  0  0  0  0  0
  2  1  1  6
  2  4  1  0
  2  3  1  0
  5  4  1  0
  5  6  1  1
  7  5  1  0
  8  7  2  0
  9  7  1  0
 10  9  1  0
 10 11  1  1
 11 12  1  0
 12 17  2  0
 13 12  1  0
 13 14  2  0
 14 15  1  0
 15 16  2  0
 17 16  1  0
 18 23  1  0
 18 10  1  0
 19 18  2  0
 20 21  1  0
 22 21  1  1
 22 24  1  0
 22 23  1  0
 24 25  1  0
 26 24  2  0
M  END
$$$$
