LFS.pdb
     RDKit          3D

 26 26  0  0  1  0  0  0  0  0999 V2000
    6.5434  -13.5786   19.5282 C   0  0  0  0  0  0  0  0  0  0  0  0
    8.0484  -13.4595   19.3405 C   0  0  1  0  0  0  0  0  0  0  0  0
    8.3123  -12.0468   18.8566 C   0  0  0  0  0  0  0  0  0  0  0  0
    8.7832  -13.6569   20.6374 C   0  0  0  0  0  0  0  0  0  0  0  0
    8.6211  -15.0732   21.1535 C   0  0  2  0  0  0  0  0  0  0  0  0
    7.2849  -15.5607   21.0023 N   0  0  0  0  0  0  0  0  0  0  0  0
    9.0085  -15.1150   22.5828 C   0  0  0  0  0  0  0  0  0  0  0  0
   10.0142  -14.4832   22.9542 O   0  0  0  0  0  0  0  0  0  0  0  0
    8.2693  -15.8521   23.5394 N   0  0  0  0  0  0  0  0  0  0  0  0
    8.6636  -15.8456   24.9048 C   0  0  1  0  0  0  0  0  0  0  0  0
    7.5549  -15.5830   25.8792 C   0  0  0  0  0  0  0  0  0  0  0  0
    7.2397  -14.1584   26.0517 C   0  0  0  0  0  0  0  0  0  0  0  0
    6.0126  -13.6265   25.7137 C   0  0  0  0  0  0  0  0  0  0  0  0
    5.7334  -12.2680   25.8860 C   0  0  0  0  0  0  0  0  0  0  0  0
    6.6855  -11.4228   26.4015 C   0  0  0  0  0  0  0  0  0  0  0  0
    7.9168  -11.9406   26.7439 C   0  0  0  0  0  0  0  0  0  0  0  0
    8.1788  -13.2832   26.5686 C   0  0  0  0  0  0  0  0  0  0  0  0
    9.2171  -17.2052   25.2382 C   0  0  0  0  0  0  0  0  0  0  0  0
    8.4580  -18.2188   25.3165 O   0  0  0  0  0  0  0  0  0  0  0  0
   13.2147  -17.6054   25.0808 O   0  0  0  0  0  0  0  0  0  0  0  0
   12.4785  -18.7676   24.9607 C   0  0  0  0  0  0  0  0  0  0  0  0
   11.1862  -18.7087   25.7397 C   0  0  2  0  0  0  0  0  0  0  0  0
   10.5876  -17.4136   25.4762 N   0  0  0  0  0  0  0  0  0  0  0  0
   11.5359  -18.7366   27.1821 C   0  0  0  0  0  0  0  0  0  0  0  0
   11.2247  -17.7323   28.0837 O   0  0  0  0  0  0  0  0  0  0  0  0
   12.1560  -19.7393   27.6136 O   0  0  0  0  0  0  0  0  0  0  0  0
  2  1  1  1
  2  4  1  0
  2  3  1  0
  5  4  1  0
  5  6  1  1
  7  5  1  0
  8  7  2  0
  9  7  1  0
 10  9  1  0
 10 11  1  1
 11 12  1  0
 12 17  2  0
 13 12  1  0
 13 14  2  0
 14 15  1  0
 15 16  2  0
 17 16  1  0
 18 23  1  0
 18 10  1  0
 19 18  2  0
 20 21  1  0
 22 21  1  6
 22 24  1  0
 22 23  1  0
 24 25  1  0
 26 24  2  0
M  END
$$$$
