LFS.pdb
     RDKit          3D

 26 26  0  0  1  0  0  0  0  0999 V2000
   11.6741  -17.7659   17.9166 C   0  0  0  0  0  0  0  0  0  0  0  0
   10.4054  -18.0170   18.7178 C   0  0  1  0  0  0  0  0  0  0  0  0
   10.3366  -19.5126   18.9590 C   0  0  0  0  0  0  0  0  0  0  0  0
   10.4509  -17.3274   20.0532 C   0  0  0  0  0  0  0  0  0  0  0  0
    9.1728  -17.5560   20.8360 C   0  0  2  0  0  0  0  0  0  0  0  0
    8.0010  -17.3094   20.0538 N   0  0  0  0  0  0  0  0  0  0  0  0
    9.1713  -16.6762   22.0280 C   0  0  0  0  0  0  0  0  0  0  0  0
   10.2522  -16.4140   22.5860 O   0  0  0  0  0  0  0  0  0  0  0  0
    7.9771  -16.1244   22.5518 N   0  0  0  0  0  0  0  0  0  0  0  0
    8.0112  -15.3536   23.7453 C   0  0  1  0  0  0  0  0  0  0  0  0
    6.8822  -14.3790   23.8978 C   0  0  0  0  0  0  0  0  0  0  0  0
    6.9318  -13.6016   25.1436 C   0  0  0  0  0  0  0  0  0  0  0  0
    6.0270  -13.7883   26.1680 C   0  0  0  0  0  0  0  0  0  0  0  0
    6.0921  -13.0379   27.3452 C   0  0  0  0  0  0  0  0  0  0  0  0
    7.0695  -12.0871   27.5101 C   0  0  0  0  0  0  0  0  0  0  0  0
    7.9809  -11.8896   26.4943 C   0  0  0  0  0  0  0  0  0  0  0  0
    7.9050  -12.6372   25.3379 C   0  0  0  0  0  0  0  0  0  0  0  0
    7.9259  -16.2979   24.9145 C   0  0  0  0  0  0  0  0  0  0  0  0
    6.8467  -16.9078   25.1849 O   0  0  0  0  0  0  0  0  0  0  0  0
   10.7545  -18.5623   25.6431 O   0  0  0  0  0  0  0  0  0  0  0  0
    9.6156  -18.7624   26.3979 C   0  0  0  0  0  0  0  0  0  0  0  0
    9.0117  -17.4638   26.8769 C   0  0  2  0  0  0  0  0  0  0  0  0
    9.0274  -16.5458   25.7535 N   0  0  0  0  0  0  0  0  0  0  0  0
    9.9240  -16.9028   27.9048 C   0  0  0  0  0  0  0  0  0  0  0  0
   10.2115  -17.5128   29.1146 O   0  0  0  0  0  0  0  0  0  0  0  0
   10.4721  -15.8001   27.6602 O   0  0  0  0  0  0  0  0  0  0  0  0
  2  1  1  6
  2  4  1  0
  2  3  1  0
  5  4  1  0
  5  6  1  6
  7  5  1  0
  8  7  2  0
  9  7  1  0
 10  9  1  0
 10 11  1  6
 11 12  1  0
 12 17  2  0
 13 12  1  0
 13 14  2  0
 14 15  1  0
 15 16  2  0
 17 16  1  0
 18 23  1  0
 18 10  1  0
 19 18  2  0
 20 21  1  0
 22 21  1  6
 22 24  1  0
 22 23  1  0
 24 25  1  0
 26 24  2  0
M  END
$$$$
