LFS.pdb
     RDKit          3D

 26 26  0  0  1  0  0  0  0  0999 V2000
    7.2531  -12.1411   18.5360 C   0  0  0  0  0  0  0  0  0  0  0  0
    7.3768  -13.5280   19.1488 C   0  0  1  0  0  0  0  0  0  0  0  0
    8.3129  -14.3141   18.2514 C   0  0  0  0  0  0  0  0  0  0  0  0
    7.9817  -13.4714   20.5241 C   0  0  0  0  0  0  0  0  0  0  0  0
    8.0073  -14.8416   21.1725 C   0  0  2  0  0  0  0  0  0  0  0  0
    6.7026  -15.4162   21.2884 N   0  0  0  0  0  0  0  0  0  0  0  0
    8.6244  -14.7306   22.5148 C   0  0  0  0  0  0  0  0  0  0  0  0
    8.9577  -13.6078   22.9348 O   0  0  0  0  0  0  0  0  0  0  0  0
    8.8467  -15.8636   23.3345 N   0  0  0  0  0  0  0  0  0  0  0  0
    9.4573  -15.7131   24.6089 C   0  0  1  0  0  0  0  0  0  0  0  0
    8.5016  -15.4977   25.7437 C   0  0  0  0  0  0  0  0  0  0  0  0
    9.1556  -15.1741   27.0189 C   0  0  0  0  0  0  0  0  0  0  0  0
    9.4924  -16.1410   27.9433 C   0  0  0  0  0  0  0  0  0  0  0  0
   10.1143  -15.8115   29.1507 C   0  0  0  0  0  0  0  0  0  0  0  0
   10.4072  -14.5027   29.4470 C   0  0  0  0  0  0  0  0  0  0  0  0
   10.0762  -13.5253   28.5322 C   0  0  0  0  0  0  0  0  0  0  0  0
    9.4627  -13.8646   27.3446 C   0  0  0  0  0  0  0  0  0  0  0  0
   10.2140  -16.9774   24.9172 C   0  0  0  0  0  0  0  0  0  0  0  0
    9.6036  -18.0686   25.1324 O   0  0  0  0  0  0  0  0  0  0  0  0
   13.4021  -17.4044   23.0807 O   0  0  0  0  0  0  0  0  0  0  0  0
   13.6598  -18.0227   24.2884 C   0  0  0  0  0  0  0  0  0  0  0  0
   12.4074  -18.2191   25.1089 C   0  0  2  0  0  0  0  0  0  0  0  0
   11.6189  -17.0079   24.9806 N   0  0  0  0  0  0  0  0  0  0  0  0
   12.8198  -18.3163   26.5317 C   0  0  0  0  0  0  0  0  0  0  0  0
   12.4493  -17.4176   27.5183 O   0  0  0  0  0  0  0  0  0  0  0  0
   13.5544  -19.2791   26.8625 O   0  0  0  0  0  0  0  0  0  0  0  0
  2  1  1  6
  2  4  1  0
  2  3  1  0
  5  4  1  0
  5  6  1  1
  7  5  1  0
  8  7  2  0
  9  7  1  0
 10  9  1  0
 10 11  1  1
 11 12  1  0
 12 17  2  0
 13 12  1  0
 13 14  2  0
 14 15  1  0
 15 16  2  0
 17 16  1  0
 18 23  1  0
 18 10  1  0
 19 18  2  0
 20 21  1  0
 22 21  1  6
 22 24  1  0
 22 23  1  0
 24 25  1  0
 26 24  2  0
M  END
$$$$
