LFS.pdb
     RDKit          3D

 26 26  0  0  1  0  0  0  0  0999 V2000
   10.2004  -20.9440   20.2981 C   0  0  0  0  0  0  0  0  0  0  0  0
    9.9777  -19.5160   19.8231 C   0  0  1  0  0  0  0  0  0  0  0  0
    8.5312  -19.4309   19.3759 C   0  0  0  0  0  0  0  0  0  0  0  0
   10.1844  -18.5261   20.9358 C   0  0  0  0  0  0  0  0  0  0  0  0
    9.8523  -17.1160   20.4886 C   0  0  2  0  0  0  0  0  0  0  0  0
   10.8136  -16.5938   19.5673 N   0  0  0  0  0  0  0  0  0  0  0  0
    9.7728  -16.2368   21.6784 C   0  0  0  0  0  0  0  0  0  0  0  0
   10.8235  -15.7741   22.1581 O   0  0  0  0  0  0  0  0  0  0  0  0
    8.5373  -15.9070   22.2865 N   0  0  0  0  0  0  0  0  0  0  0  0
    8.5106  -15.0945   23.4522 C   0  0  1  0  0  0  0  0  0  0  0  0
    7.1938  -14.4332   23.7288 C   0  0  0  0  0  0  0  0  0  0  0  0
    7.1804  -13.6245   24.9553 C   0  0  0  0  0  0  0  0  0  0  0  0
    6.4027  -13.9502   26.0471 C   0  0  0  0  0  0  0  0  0  0  0  0
    6.4048  -13.1669   27.2046 C   0  0  0  0  0  0  0  0  0  0  0  0
    7.1903  -12.0427   27.2815 C   0  0  0  0  0  0  0  0  0  0  0  0
    7.9730  -11.7050   26.1976 C   0  0  0  0  0  0  0  0  0  0  0  0
    7.9612  -12.4869   25.0617 C   0  0  0  0  0  0  0  0  0  0  0  0
    8.8108  -15.9699   24.6394 C   0  0  0  0  0  0  0  0  0  0  0  0
    8.1002  -16.9891   24.8965 O   0  0  0  0  0  0  0  0  0  0  0  0
   12.1029  -17.4059   25.1778 O   0  0  0  0  0  0  0  0  0  0  0  0
   11.8057  -16.8025   26.3839 C   0  0  0  0  0  0  0  0  0  0  0  0
   10.3215  -16.5928   26.5679 C   0  0  2  0  0  0  0  0  0  0  0  0
    9.8821  -15.7017   25.5106 N   0  0  0  0  0  0  0  0  0  0  0  0
   10.1313  -15.8680   27.8494 C   0  0  0  0  0  0  0  0  0  0  0  0
   10.3510  -16.4184   29.1013 O   0  0  0  0  0  0  0  0  0  0  0  0
    9.7449  -14.6749   27.7939 O   0  0  0  0  0  0  0  0  0  0  0  0
  2  1  1  1
  2  4  1  0
  2  3  1  0
  5  4  1  0
  5  6  1  6
  7  5  1  0
  8  7  2  0
  9  7  1  0
 10  9  1  0
 10 11  1  1
 11 12  1  0
 12 17  2  0
 13 12  1  0
 13 14  2  0
 14 15  1  0
 15 16  2  0
 17 16  1  0
 18 23  1  0
 18 10  1  0
 19 18  2  0
 20 21  1  0
 22 21  1  6
 22 24  1  0
 22 23  1  0
 24 25  1  0
 26 24  2  0
M  END
$$$$
