LFS.pdb
     RDKit          3D

 26 26  0  0  1  0  0  0  0  0999 V2000
    7.7660  -12.1782   18.7034 C   0  0  0  0  0  0  0  0  0  0  0  0
    7.8437  -13.6356   19.1330 C   0  0  1  0  0  0  0  0  0  0  0  0
    8.6091  -14.3654   18.0462 C   0  0  0  0  0  0  0  0  0  0  0  0
    8.5985  -13.7905   20.4241 C   0  0  0  0  0  0  0  0  0  0  0  0
    8.5537  -15.2221   20.9211 C   0  0  2  0  0  0  0  0  0  0  0  0
    7.2842  -15.8406   20.6933 N   0  0  0  0  0  0  0  0  0  0  0  0
    8.8654  -15.2419   22.3693 C   0  0  0  0  0  0  0  0  0  0  0  0
    9.9584  -14.7913   22.7576 O   0  0  0  0  0  0  0  0  0  0  0  0
    7.9573  -15.7579   23.3254 N   0  0  0  0  0  0  0  0  0  0  0  0
    8.2728  -15.7045   24.7101 C   0  0  1  0  0  0  0  0  0  0  0  0
    7.1111  -15.4059   25.6095 C   0  0  0  0  0  0  0  0  0  0  0  0
    6.9740  -13.9836   25.9515 C   0  0  0  0  0  0  0  0  0  0  0  0
    5.7854  -13.4409   26.3937 C   0  0  0  0  0  0  0  0  0  0  0  0
    5.6765  -12.0848   26.7138 C   0  0  0  0  0  0  0  0  0  0  0  0
    6.7629  -11.2530   26.5937 C   0  0  0  0  0  0  0  0  0  0  0  0
    7.9577  -11.7818   26.1527 C   0  0  0  0  0  0  0  0  0  0  0  0
    8.0510  -13.1218   25.8404 C   0  0  0  0  0  0  0  0  0  0  0  0
    8.8008  -17.0528   25.1218 C   0  0  0  0  0  0  0  0  0  0  0  0
    8.0760  -18.0911   25.0413 O   0  0  0  0  0  0  0  0  0  0  0  0
   12.7964  -17.4822   25.4352 O   0  0  0  0  0  0  0  0  0  0  0  0
   12.0152  -18.6062   25.2531 C   0  0  0  0  0  0  0  0  0  0  0  0
   10.6896  -18.5033   25.9691 C   0  0  2  0  0  0  0  0  0  0  0  0
   10.1089  -17.2230   25.6100 N   0  0  0  0  0  0  0  0  0  0  0  0
   10.9744  -18.4542   27.4252 C   0  0  0  0  0  0  0  0  0  0  0  0
   11.5591  -19.4832   28.1446 O   0  0  0  0  0  0  0  0  0  0  0  0
   10.6639  -17.4083   28.0462 O   0  0  0  0  0  0  0  0  0  0  0  0
  2  1  1  6
  2  4  1  0
  2  3  1  0
  5  4  1  0
  5  6  1  1
  7  5  1  0
  8  7  2  0
  9  7  1  0
 10  9  1  0
 10 11  1  1
 11 12  1  0
 12 17  2  0
 13 12  1  0
 13 14  2  0
 14 15  1  0
 15 16  2  0
 17 16  1  0
 18 23  1  0
 18 10  1  0
 19 18  2  0
 20 21  1  0
 22 21  1  6
 22 24  1  0
 22 23  1  0
 24 25  1  0
 26 24  2  0
M  END
$$$$
