LFS.pdb
     RDKit          3D

 26 26  0  0  1  0  0  0  0  0999 V2000
    7.7968  -11.8889   19.2447 C   0  0  0  0  0  0  0  0  0  0  0  0
    7.7679  -13.3600   19.6312 C   0  0  1  0  0  0  0  0  0  0  0  0
    8.6260  -14.0896   18.6159 C   0  0  0  0  0  0  0  0  0  0  0  0
    8.3608  -13.5838   20.9947 C   0  0  0  0  0  0  0  0  0  0  0  0
    8.3838  -15.0572   21.3514 C   0  0  2  0  0  0  0  0  0  0  0  0
    7.1053  -15.6784   21.1918 N   0  0  0  0  0  0  0  0  0  0  0  0
    8.8408  -15.2091   22.7524 C   0  0  0  0  0  0  0  0  0  0  0  0
    9.9527  -14.7546   23.0772 O   0  0  0  0  0  0  0  0  0  0  0  0
    8.0507  -15.8558   23.7335 N   0  0  0  0  0  0  0  0  0  0  0  0
    8.4858  -15.8976   25.0857 C   0  0  1  0  0  0  0  0  0  0  0  0
    7.4193  -15.6106   26.0996 C   0  0  0  0  0  0  0  0  0  0  0  0
    7.2169  -14.1791   26.3610 C   0  0  0  0  0  0  0  0  0  0  0  0
    5.9915  -13.5652   26.2051 C   0  0  0  0  0  0  0  0  0  0  0  0
    5.8206  -12.2015   26.4593 C   0  0  0  0  0  0  0  0  0  0  0  0
    6.8811  -11.4338   26.8746 C   0  0  0  0  0  0  0  0  0  0  0  0
    8.1121  -12.0342   27.0348 C   0  0  0  0  0  0  0  0  0  0  0  0
    8.2666  -13.3807   26.7804 C   0  0  0  0  0  0  0  0  0  0  0  0
    8.9899  -17.2868   25.3722 C   0  0  0  0  0  0  0  0  0  0  0  0
    8.2826  -18.3064   25.1074 O   0  0  0  0  0  0  0  0  0  0  0  0
   12.1761  -18.4529   24.2661 O   0  0  0  0  0  0  0  0  0  0  0  0
   12.1854  -18.8672   25.5835 C   0  0  0  0  0  0  0  0  0  0  0  0
   10.8088  -18.8327   26.2034 C   0  0  2  0  0  0  0  0  0  0  0  0
   10.2555  -17.5174   25.9410 N   0  0  0  0  0  0  0  0  0  0  0  0
   10.9814  -18.9423   27.6737 C   0  0  0  0  0  0  0  0  0  0  0  0
   10.6444  -17.9494   28.5787 O   0  0  0  0  0  0  0  0  0  0  0  0
   11.4660  -20.0080   28.1272 O   0  0  0  0  0  0  0  0  0  0  0  0
  2  1  1  6
  2  4  1  0
  2  3  1  0
  5  4  1  0
  5  6  1  1
  7  5  1  0
  8  7  2  0
  9  7  1  0
 10  9  1  0
 10 11  1  1
 11 12  1  0
 12 17  2  0
 13 12  1  0
 13 14  2  0
 14 15  1  0
 15 16  2  0
 17 16  1  0
 18 23  1  0
 18 10  1  0
 19 18  2  0
 20 21  1  0
 22 21  1  6
 22 24  1  0
 22 23  1  0
 24 25  1  0
 26 24  2  0
M  END
$$$$
