NLS.pdb
     RDKit          3D

 23 22  0  0  1  0  0  0  0  0999 V2000
    7.1562  -19.2488   20.5948 N   0  0  0  0  0  0  0  0  0  0  0  0
    8.5093  -18.9767   20.9096 C   0  0  0  0  0  0  0  0  0  0  0  0
    9.3611  -19.4501   20.0835 O   0  0  0  0  0  0  0  0  0  0  0  0
    8.9537  -18.1974   22.1109 C   0  0  0  0  0  0  0  0  0  0  0  0
    8.7508  -16.7324   21.8018 C   0  0  2  0  0  0  0  0  0  0  0  0
    9.5755  -16.3667   20.6866 N   0  0  0  0  0  0  0  0  0  0  0  0
    8.8330  -15.8483   22.9545 C   0  0  0  0  0  0  0  0  0  0  0  0
   10.0154  -15.5582   23.3471 O   0  0  0  0  0  0  0  0  0  0  0  0
    5.7409  -12.3285   27.0725 C   0  0  0  0  0  0  0  0  0  0  0  0
    6.9854  -12.9529   26.5360 C   0  0  2  0  0  0  0  0  0  0  0  0
    8.0232  -11.8855   26.2533 C   0  0  0  0  0  0  0  0  0  0  0  0
    6.7699  -13.7535   25.2942 C   0  0  0  0  0  0  0  0  0  0  0  0
    8.0472  -14.4643   24.8153 C   0  0  2  0  0  0  0  0  0  0  0  0
    7.7233  -15.2923   23.6718 N   0  0  0  0  0  0  0  0  0  0  0  0
    8.4482  -15.3240   25.9402 C   0  0  0  0  0  0  0  0  0  0  0  0
    7.6947  -16.2322   26.3706 O   0  0  0  0  0  0  0  0  0  0  0  0
   12.3831  -15.8687   26.8922 O   0  0  0  0  0  0  0  0  0  0  0  0
   11.3834  -16.8036   27.1532 C   0  0  0  0  0  0  0  0  0  0  0  0
   10.1385  -16.0342   27.5964 C   0  0  2  0  0  0  0  0  0  0  0  0
    9.7281  -15.1201   26.5411 N   0  0  0  0  0  0  0  0  0  0  0  0
   10.3726  -15.2750   28.8324 C   0  0  0  0  0  0  0  0  0  0  0  0
   10.2359  -14.0354   28.8279 O   0  0  0  0  0  0  0  0  0  0  0  0
   10.7417  -15.9177   29.9971 O   0  0  0  0  0  0  0  0  0  0  0  0
  2  3  2  0
  2  1  1  0
  4  2  1  0
  5  4  1  0
  5  6  1  6
  7  5  1  0
  7  8  2  0
 10  9  1  6
 10 11  1  0
 10 12  1  0
 13 12  1  1
 13 15  1  0
 13 14  1  0
 14  7  1  0
 15 20  1  0
 16 15  2  0
 18 17  1  0
 19 18  1  6
 19 21  1  0
 20 19  1  0
 21 22  2  0
 21 23  1  0
M  END
$$$$
