NLS.pdb
     RDKit          3D

 23 22  0  0  1  0  0  0  0  0999 V2000
    7.3024  -12.7079   18.1364 N   0  0  0  0  0  0  0  0  0  0  0  0
    8.0542  -13.6472   18.8824 C   0  0  0  0  0  0  0  0  0  0  0  0
    8.3249  -14.7331   18.2663 O   0  0  0  0  0  0  0  0  0  0  0  0
    8.5173  -13.4261   20.2912 C   0  0  0  0  0  0  0  0  0  0  0  0
    8.2167  -14.6853   21.0705 C   0  0  2  0  0  0  0  0  0  0  0  0
    6.8623  -15.0845   20.8181 N   0  0  0  0  0  0  0  0  0  0  0  0
    8.6031  -14.6422   22.4726 C   0  0  0  0  0  0  0  0  0  0  0  0
    9.8597  -14.5641   22.6989 O   0  0  0  0  0  0  0  0  0  0  0  0
    8.2171  -11.8303   26.1140 C   0  0  0  0  0  0  0  0  0  0  0  0
    7.0313  -12.6829   25.8082 C   0  0  2  0  0  0  0  0  0  0  0  0
    5.8790  -12.3192   26.7226 C   0  0  0  0  0  0  0  0  0  0  0  0
    7.2959  -14.1474   25.9290 C   0  0  0  0  0  0  0  0  0  0  0  0
    8.3274  -14.6522   24.9055 C   0  0  2  0  0  0  0  0  0  0  0  0
    7.7119  -14.6834   23.5947 N   0  0  0  0  0  0  0  0  0  0  0  0
    8.6411  -16.0263   25.3284 C   0  0  0  0  0  0  0  0  0  0  0  0
    7.7995  -16.9524   25.2203 O   0  0  0  0  0  0  0  0  0  0  0  0
   11.3049  -17.9788   24.1780 O   0  0  0  0  0  0  0  0  0  0  0  0
   11.5005  -18.1495   25.5470 C   0  0  0  0  0  0  0  0  0  0  0  0
   10.2319  -17.6736   26.2558 C   0  0  2  0  0  0  0  0  0  0  0  0
    9.9369  -16.3042   25.8616 N   0  0  0  0  0  0  0  0  0  0  0  0
   10.3610  -17.7408   27.7179 C   0  0  0  0  0  0  0  0  0  0  0  0
   10.2236  -16.7030   28.3957 O   0  0  0  0  0  0  0  0  0  0  0  0
   10.6323  -18.9383   28.3488 O   0  0  0  0  0  0  0  0  0  0  0  0
  2  3  2  0
  2  1  1  0
  4  2  1  0
  5  4  1  0
  5  6  1  1
  7  5  1  0
  7  8  2  0
 10  9  1  1
 10 11  1  0
 10 12  1  0
 13 12  1  1
 13 15  1  0
 13 14  1  0
 14  7  1  0
 15 20  1  0
 16 15  2  0
 18 17  1  0
 19 18  1  6
 19 21  1  0
 20 19  1  0
 21 22  2  0
 21 23  1  0
M  END
$$$$
