NLS.pdb
     RDKit          3D

 23 22  0  0  1  0  0  0  0  0999 V2000
    9.6390  -17.2138   18.0350 N   0  0  0  0  0  0  0  0  0  0  0  0
    8.7591  -16.2369   18.5600 C   0  0  0  0  0  0  0  0  0  0  0  0
    7.6422  -16.1326   17.9488 O   0  0  0  0  0  0  0  0  0  0  0  0
    9.0741  -15.3681   19.7407 C   0  0  0  0  0  0  0  0  0  0  0  0
    8.2623  -15.8783   20.9086 C   0  0  2  0  0  0  0  0  0  0  0  0
    6.8846  -15.9720   20.5206 N   0  0  0  0  0  0  0  0  0  0  0  0
    8.5101  -15.1948   22.1690 C   0  0  0  0  0  0  0  0  0  0  0  0
    9.7369  -14.9463   22.4327 O   0  0  0  0  0  0  0  0  0  0  0  0
    6.1614  -12.3435   27.1755 C   0  0  0  0  0  0  0  0  0  0  0  0
    7.2649  -13.0352   26.4473 C   0  0  2  0  0  0  0  0  0  0  0  0
    8.4675  -12.1202   26.3339 C   0  0  0  0  0  0  0  0  0  0  0  0
    6.8851  -13.5000   25.0802 C   0  0  0  0  0  0  0  0  0  0  0  0
    8.0040  -14.2996   24.3911 C   0  0  2  0  0  0  0  0  0  0  0  0
    7.5155  -14.7905   23.1190 N   0  0  0  0  0  0  0  0  0  0  0  0
    8.2626  -15.4393   25.2853 C   0  0  0  0  0  0  0  0  0  0  0  0
    7.3311  -16.1793   25.6881 O   0  0  0  0  0  0  0  0  0  0  0  0
   11.9653  -17.0336   25.2598 O   0  0  0  0  0  0  0  0  0  0  0  0
   10.8322  -17.8076   25.5019 C   0  0  0  0  0  0  0  0  0  0  0  0
    9.8780  -16.9719   26.3558 C   0  0  2  0  0  0  0  0  0  0  0  0
    9.6065  -15.7073   25.6889 N   0  0  0  0  0  0  0  0  0  0  0  0
   10.4257  -16.7075   27.6934 C   0  0  0  0  0  0  0  0  0  0  0  0
   10.6387  -15.5314   28.0493 O   0  0  0  0  0  0  0  0  0  0  0  0
   10.7068  -17.7452   28.5594 O   0  0  0  0  0  0  0  0  0  0  0  0
  2  3  2  0
  2  1  1  0
  4  2  1  0
  5  4  1  0
  5  6  1  6
  7  5  1  0
  7  8  2  0
 10  9  1  6
 10 11  1  0
 10 12  1  0
 13 12  1  1
 13 15  1  0
 13 14  1  0
 14  7  1  0
 15 20  1  0
 16 15  2  0
 18 17  1  0
 19 18  1  6
 19 21  1  0
 20 19  1  0
 21 22  2  0
 21 23  1  0
M  END
$$$$
