NLS.pdb
     RDKit          3D

 23 22  0  0  1  0  0  0  0  0999 V2000
   10.4926  -16.0097   18.3599 N   0  0  0  0  0  0  0  0  0  0  0  0
    9.3412  -15.7466   19.1403 C   0  0  0  0  0  0  0  0  0  0  0  0
    8.2447  -16.1780   18.6466 O   0  0  0  0  0  0  0  0  0  0  0  0
    9.3612  -15.0196   20.4514 C   0  0  0  0  0  0  0  0  0  0  0  0
    8.7868  -15.9496   21.4946 C   0  0  2  0  0  0  0  0  0  0  0  0
    7.4209  -16.2401   21.1671 N   0  0  0  0  0  0  0  0  0  0  0  0
    9.0252  -15.5440   22.8715 C   0  0  0  0  0  0  0  0  0  0  0  0
   10.2511  -15.3734   23.1945 O   0  0  0  0  0  0  0  0  0  0  0  0
    8.1631  -12.0895   25.7029 C   0  0  0  0  0  0  0  0  0  0  0  0
    7.0326  -13.0554   25.5786 C   0  0  2  0  0  0  0  0  0  0  0  0
    5.8350  -12.5588   26.3633 C   0  0  0  0  0  0  0  0  0  0  0  0
    7.3677  -14.4362   26.0372 C   0  0  0  0  0  0  0  0  0  0  0  0
    8.5002  -15.0773   25.2171 C   0  0  2  0  0  0  0  0  0  0  0  0
    8.0224  -15.3291   23.8731 N   0  0  0  0  0  0  0  0  0  0  0  0
    8.7734  -16.3601   25.8844 C   0  0  0  0  0  0  0  0  0  0  0  0
    7.8755  -17.2263   26.0296 O   0  0  0  0  0  0  0  0  0  0  0  0
   12.5264  -17.6320   26.1435 O   0  0  0  0  0  0  0  0  0  0  0  0
   11.5305  -18.5905   26.3206 C   0  0  0  0  0  0  0  0  0  0  0  0
   10.3466  -17.9031   27.0018 C   0  0  2  0  0  0  0  0  0  0  0  0
   10.0938  -16.6199   26.3637 N   0  0  0  0  0  0  0  0  0  0  0  0
   10.5839  -17.6934   28.4366 C   0  0  0  0  0  0  0  0  0  0  0  0
   10.5078  -16.5424   28.9107 O   0  0  0  0  0  0  0  0  0  0  0  0
   10.8898  -18.7548   29.2646 O   0  0  0  0  0  0  0  0  0  0  0  0
  2  3  2  0
  2  1  1  0
  4  2  1  0
  5  4  1  0
  5  6  1  6
  7  5  1  0
  7  8  2  0
 10  9  1  1
 10 11  1  0
 10 12  1  0
 13 12  1  1
 13 15  1  0
 13 14  1  0
 14  7  1  0
 15 20  1  0
 16 15  2  0
 18 17  1  0
 19 18  1  6
 19 21  1  0
 20 19  1  0
 21 22  2  0
 21 23  1  0
M  END
$$$$
