NLS.pdb
     RDKit          3D

 23 22  0  0  1  0  0  0  0  0999 V2000
    9.3273  -17.7103   12.3616 N   0  0  0  0  0  0  0  0  0  0  0  0
    8.8872  -16.3650   12.3395 C   0  0  0  0  0  0  0  0  0  0  0  0
    8.5877  -15.9143   11.1823 O   0  0  0  0  0  0  0  0  0  0  0  0
    8.7679  -15.4984   13.5572 C   0  0  0  0  0  0  0  0  0  0  0  0
    9.3585  -16.2639   14.7183 C   0  0  2  0  0  0  0  0  0  0  0  0
    8.6087  -17.4701   14.9186 N   0  0  0  0  0  0  0  0  0  0  0  0
    9.5951  -15.4707   15.9151 C   0  0  0  0  0  0  0  0  0  0  0  0
   10.7203  -14.8643   15.9644 O   0  0  0  0  0  0  0  0  0  0  0  0
    7.3638  -13.3680   21.3425 C   0  0  0  0  0  0  0  0  0  0  0  0
    8.4389  -13.5061   20.3169 C   0  0  2  0  0  0  0  0  0  0  0  0
    8.9311  -12.1376   19.8912 C   0  0  0  0  0  0  0  0  0  0  0  0
    8.0171  -14.2637   19.1014 C   0  0  0  0  0  0  0  0  0  0  0  0
    9.1917  -14.5797   18.1597 C   0  0  2  0  0  0  0  0  0  0  0  0
    8.6932  -15.3204   17.0192 N   0  0  0  0  0  0  0  0  0  0  0  0
   10.0877  -15.4424   18.9461 C   0  0  0  0  0  0  0  0  0  0  0  0
    9.7548  -16.6096   19.2692 O   0  0  0  0  0  0  0  0  0  0  0  0
   13.9898  -14.2442   19.6229 O   0  0  0  0  0  0  0  0  0  0  0  0
   13.7118  -15.5951   19.4242 C   0  0  0  0  0  0  0  0  0  0  0  0
   12.3032  -15.8582   19.9576 C   0  0  2  0  0  0  0  0  0  0  0  0
   11.3653  -14.9356   19.3356 N   0  0  0  0  0  0  0  0  0  0  0  0
   12.2321  -15.7115   21.4179 C   0  0  0  0  0  0  0  0  0  0  0  0
   12.9980  -16.3792   22.1410 O   0  0  0  0  0  0  0  0  0  0  0  0
   11.3282  -14.8440   21.9976 O   0  0  0  0  0  0  0  0  0  0  0  0
  2  3  2  0
  2  1  1  0
  4  2  1  0
  5  4  1  0
  5  6  1  1
  7  5  1  0
  7  8  2  0
 10  9  1  1
 10 11  1  0
 10 12  1  0
 13 12  1  1
 13 15  1  0
 13 14  1  0
 14  7  1  0
 15 20  1  0
 16 15  2  0
 18 17  1  0
 19 18  1  6
 19 21  1  0
 20 19  1  0
 21 22  2  0
 21 23  1  0
M  END
$$$$
