NLS.pdb
     RDKit          3D

 23 22  0  0  1  0  0  0  0  0999 V2000
    9.5489  -16.6620   13.2399 N   0  0  0  0  0  0  0  0  0  0  0  0
   10.6209  -16.8267   14.1498 C   0  0  0  0  0  0  0  0  0  0  0  0
   11.4203  -17.7842   13.8739 O   0  0  0  0  0  0  0  0  0  0  0  0
   10.8387  -15.9667   15.3584 C   0  0  0  0  0  0  0  0  0  0  0  0
   10.4692  -16.7876   16.5720 C   0  0  2  0  0  0  0  0  0  0  0  0
    9.2143  -17.4409   16.3356 N   0  0  0  0  0  0  0  0  0  0  0  0
   10.5764  -16.0836   17.8408 C   0  0  0  0  0  0  0  0  0  0  0  0
   11.7600  -15.7443   18.1879 O   0  0  0  0  0  0  0  0  0  0  0  0
    9.0788  -12.1008   19.4489 C   0  0  0  0  0  0  0  0  0  0  0  0
    8.1321  -13.2491   19.5567 C   0  0  2  0  0  0  0  0  0  0  0  0
    6.7759  -12.7632   20.0269 C   0  0  0  0  0  0  0  0  0  0  0  0
    8.5992  -14.3299   20.4748 C   0  0  0  0  0  0  0  0  0  0  0  0
    9.8402  -15.0672   19.9433 C   0  0  2  0  0  0  0  0  0  0  0  0
    9.4902  -15.7508   18.7152 N   0  0  0  0  0  0  0  0  0  0  0  0
   10.1636  -16.0619   20.9784 C   0  0  0  0  0  0  0  0  0  0  0  0
    9.4669  -17.0955   21.1329 O   0  0  0  0  0  0  0  0  0  0  0  0
   13.6658  -15.7299   23.2062 O   0  0  0  0  0  0  0  0  0  0  0  0
   13.1730  -16.9910   22.8766 C   0  0  0  0  0  0  0  0  0  0  0  0
   11.6515  -16.8779   22.7741 C   0  0  2  0  0  0  0  0  0  0  0  0
   11.3026  -15.8430   21.8124 N   0  0  0  0  0  0  0  0  0  0  0  0
   11.0351  -16.5637   24.0703 C   0  0  0  0  0  0  0  0  0  0  0  0
   10.3788  -15.5113   24.2002 O   0  0  0  0  0  0  0  0  0  0  0  0
   11.1742  -17.4194   25.1446 O   0  0  0  0  0  0  0  0  0  0  0  0
  2  3  2  0
  2  1  1  0
  4  2  1  0
  5  4  1  0
  5  6  1  6
  7  5  1  0
  7  8  2  0
 10  9  1  1
 10 11  1  0
 10 12  1  0
 13 12  1  1
 13 15  1  0
 13 14  1  0
 14  7  1  0
 15 20  1  0
 16 15  2  0
 18 17  1  0
 19 18  1  1
 19 21  1  0
 20 19  1  0
 21 22  2  0
 21 23  1  0
M  END
$$$$
