HHT.pdb
     RDKit          3D

 28 29  0  0  1  0  0  0  0  0999 V2000
   28.8361  -30.9163  -18.4036 N   0  0  0  0  0  0  0  0  0  0  0  0
   29.9995  -31.2775  -17.6786 C   0  0  1  0  0  0  0  0  0  0  0  0
   29.8506  -32.6913  -17.1527 C   0  0  0  0  0  0  0  0  0  0  0  0
   28.9375  -32.7178  -15.9843 C   0  0  0  0  0  0  0  0  0  0  0  0
   28.5010  -31.6242  -15.2575 C   0  0  0  0  0  0  0  0  0  0  0  0
   27.6926  -32.0403  -14.2833 N   0  0  0  0  0  0  0  0  0  0  0  0
   27.5989  -33.3744  -14.3664 C   0  0  0  0  0  0  0  0  0  0  0  0
   28.3515  -33.7948  -15.3964 N   0  0  0  0  0  0  0  0  0  0  0  0
   31.2563  -31.1364  -18.4783 C   0  0  0  0  0  0  0  0  0  0  0  0
   31.2356  -31.0972  -19.7313 O   0  0  0  0  0  0  0  0  0  0  0  0
   32.5134  -31.0435  -17.8274 N   0  0  0  0  0  0  0  0  0  0  0  0
   33.7928  -30.8890  -18.4256 C   0  0  1  0  0  0  0  0  0  0  0  0
   34.6210  -29.7968  -17.8454 C   0  0  0  0  0  0  0  0  0  0  0  0
   34.1966  -28.4532  -18.3520 C   0  0  0  0  0  0  0  0  0  0  0  0
   33.3691  -28.1119  -19.3724 C   0  0  0  0  0  0  0  0  0  0  0  0
   33.2789  -26.7572  -19.4649 N   0  0  0  0  0  0  0  0  0  0  0  0
   34.0591  -26.2658  -18.4911 C   0  0  0  0  0  0  0  0  0  0  0  0
   34.6120  -27.2843  -17.8204 N   0  0  0  0  0  0  0  0  0  0  0  0
   34.5405  -32.1646  -18.6609 C   0  0  0  0  0  0  0  0  0  0  0  0
   35.2689  -32.7277  -17.8104 O   0  0  0  0  0  0  0  0  0  0  0  0
   32.6908  -35.2077  -20.1318 C   0  0  0  0  0  0  0  0  0  0  0  0
   33.9677  -35.0115  -20.8726 C   0  0  1  0  0  0  0  0  0  0  0  0
   33.6354  -34.4145  -22.1093 O   0  0  0  0  0  0  0  0  0  0  0  0
   34.9807  -34.1642  -20.1358 C   0  0  2  0  0  0  0  0  0  0  0  0
   34.4480  -32.8182  -19.9162 N   0  0  0  0  0  0  0  0  0  0  0  0
   36.2996  -34.1396  -20.7588 C   0  0  0  0  0  0  0  0  0  0  0  0
   37.1248  -35.2323  -20.9280 O   0  0  0  0  0  0  0  0  0  0  0  0
   36.7776  -33.0363  -21.2014 O   0  0  0  0  0  0  0  0  0  0  0  0
  2  9  1  0
  2  1  1  6
  3  2  1  0
  4  5  2  0
  4  3  1  0
  6  5  1  0
  7  8  2  0
  7  6  1  0
  8  4  1  0
  9 11  1  0
 10  9  2  0
 11 12  1  0
 12 13  1  1
 13 14  1  0
 14 15  2  0
 14 18  1  0
 15 16  1  0
 16 17  1  0
 18 17  2  0
 19 20  2  0
 19 12  1  0
 22 21  1  1
 22 24  1  0
 23 22  1  0
 24 26  1  0
 24 25  1  6
 25 19  1  0
 26 27  1  0
 28 26  2  0
M  END
$$$$
