HHT.pdb
     RDKit          3D

 28 29  0  0  1  0  0  0  0  0999 V2000
   24.3226  -13.4675  -19.6636 N   0  0  0  0  0  0  0  0  0  0  0  0
   25.0539  -12.2550  -19.7302 C   0  0  1  0  0  0  0  0  0  0  0  0
   25.6918  -12.1222  -21.0988 C   0  0  0  0  0  0  0  0  0  0  0  0
   26.5396  -13.3027  -21.3939 C   0  0  0  0  0  0  0  0  0  0  0  0
   27.9169  -13.3742  -21.2808 C   0  0  0  0  0  0  0  0  0  0  0  0
   28.3223  -14.5941  -21.6319 N   0  0  0  0  0  0  0  0  0  0  0  0
   27.2393  -15.3081  -21.9679 C   0  0  0  0  0  0  0  0  0  0  0  0
   26.1520  -14.5323  -21.8264 N   0  0  0  0  0  0  0  0  0  0  0  0
   24.2245  -11.0514  -19.4103 C   0  0  0  0  0  0  0  0  0  0  0  0
   23.2384  -10.7282  -20.1140 O   0  0  0  0  0  0  0  0  0  0  0  0
   24.5406  -10.2402  -18.2902 N   0  0  0  0  0  0  0  0  0  0  0  0
   23.8624   -9.0751  -17.8414 C   0  0  1  0  0  0  0  0  0  0  0  0
   23.9042   -8.8617  -16.3690 C   0  0  0  0  0  0  0  0  0  0  0  0
   23.0312   -7.7190  -15.9516 C   0  0  0  0  0  0  0  0  0  0  0  0
   22.2379   -6.8964  -16.6839 C   0  0  0  0  0  0  0  0  0  0  0  0
   21.6259   -5.9941  -15.8697 N   0  0  0  0  0  0  0  0  0  0  0  0
   22.0496   -6.2680  -14.6271 C   0  0  0  0  0  0  0  0  0  0  0  0
   22.8949   -7.3053  -14.6740 N   0  0  0  0  0  0  0  0  0  0  0  0
   24.1238   -7.8401  -18.6462 C   0  0  0  0  0  0  0  0  0  0  0  0
   25.2511   -7.3112  -18.7889 O   0  0  0  0  0  0  0  0  0  0  0  0
   22.9094   -7.3618  -22.3320 C   0  0  0  0  0  0  0  0  0  0  0  0
   22.4582   -6.2299  -21.4757 C   0  0  1  0  0  0  0  0  0  0  0  0
   21.1028   -6.4722  -21.1584 O   0  0  0  0  0  0  0  0  0  0  0  0
   23.2702   -6.0549  -20.2121 C   0  0  2  0  0  0  0  0  0  0  0  0
   23.0540   -7.1895  -19.3123 N   0  0  0  0  0  0  0  0  0  0  0  0
   23.0607   -4.7749  -19.5442 C   0  0  0  0  0  0  0  0  0  0  0  0
   22.4802   -4.6054  -18.3040 O   0  0  0  0  0  0  0  0  0  0  0  0
   23.4277   -3.6880  -20.1146 O   0  0  0  0  0  0  0  0  0  0  0  0
  2  9  1  0
  2  1  1  6
  3  2  1  0
  4  5  2  0
  4  3  1  0
  6  5  1  0
  7  8  2  0
  7  6  1  0
  8  4  1  0
  9 11  1  0
 10  9  2  0
 11 12  1  0
 12 13  1  1
 13 14  1  0
 14 15  2  0
 14 18  1  0
 15 16  1  0
 16 17  1  0
 18 17  2  0
 19 20  2  0
 19 12  1  0
 22 21  1  1
 22 24  1  0
 23 22  1  0
 24 26  1  0
 24 25  1  1
 25 19  1  0
 26 27  1  0
 28 26  2  0
M  END
$$$$
