HHT.pdb
     RDKit          3D

 28 29  0  0  1  0  0  0  0  0999 V2000
   27.8188  -18.4837  -18.4066 N   0  0  0  0  0  0  0  0  0  0  0  0
   27.9406  -18.0570  -17.0603 C   0  0  1  0  0  0  0  0  0  0  0  0
   28.5897  -16.6879  -17.0190 C   0  0  0  0  0  0  0  0  0  0  0  0
   29.8327  -16.6775  -17.8279 C   0  0  0  0  0  0  0  0  0  0  0  0
   30.1830  -15.7408  -18.7843 C   0  0  0  0  0  0  0  0  0  0  0  0
   31.3699  -16.0621  -19.2978 N   0  0  0  0  0  0  0  0  0  0  0  0
   31.7909  -17.1822  -18.6948 C   0  0  0  0  0  0  0  0  0  0  0  0
   30.8640  -17.5634  -17.8005 N   0  0  0  0  0  0  0  0  0  0  0  0
   26.6363  -18.0503  -16.3269 C   0  0  0  0  0  0  0  0  0  0  0  0
   26.2646  -17.0567  -15.6586 O   0  0  0  0  0  0  0  0  0  0  0  0
   25.7825  -19.1823  -16.3724 N   0  0  0  0  0  0  0  0  0  0  0  0
   24.4956  -19.3248  -15.7874 C   0  0  1  0  0  0  0  0  0  0  0  0
   23.3651  -19.2664  -16.7538 C   0  0  0  0  0  0  0  0  0  0  0  0
   22.0408  -19.2636  -16.0550 C   0  0  0  0  0  0  0  0  0  0  0  0
   21.7357  -19.1879  -14.7346 C   0  0  0  0  0  0  0  0  0  0  0  0
   20.3858  -19.2203  -14.5664 N   0  0  0  0  0  0  0  0  0  0  0  0
   19.8605  -19.3167  -15.7966 C   0  0  0  0  0  0  0  0  0  0  0  0
   20.8543  -19.3428  -16.6936 N   0  0  0  0  0  0  0  0  0  0  0  0
   24.3780  -20.4203  -14.7739 C   0  0  0  0  0  0  0  0  0  0  0  0
   24.4998  -21.6410  -15.0306 O   0  0  0  0  0  0  0  0  0  0  0  0
   26.3803  -20.7309  -11.6896 C   0  0  0  0  0  0  0  0  0  0  0  0
   24.9611  -20.8535  -11.2549 C   0  0  1  0  0  0  0  0  0  0  0  0
   24.6241  -19.6411  -10.6122 O   0  0  0  0  0  0  0  0  0  0  0  0
   23.9956  -21.1352  -12.3842 C   0  0  2  0  0  0  0  0  0  0  0  0
   24.1127  -20.1040  -13.4170 N   0  0  0  0  0  0  0  0  0  0  0  0
   22.6157  -21.3271  -11.9516 C   0  0  0  0  0  0  0  0  0  0  0  0
   22.1712  -22.3329  -11.1182 O   0  0  0  0  0  0  0  0  0  0  0  0
   21.7022  -20.5225  -12.3512 O   0  0  0  0  0  0  0  0  0  0  0  0
  2  9  1  0
  2  1  1  6
  3  2  1  0
  4  5  2  0
  4  3  1  0
  6  5  1  0
  7  8  2  0
  7  6  1  0
  8  4  1  0
  9 11  1  0
 10  9  2  0
 11 12  1  0
 12 13  1  6
 13 14  1  0
 14 15  2  0
 14 18  1  0
 15 16  1  0
 16 17  1  0
 18 17  2  0
 19 20  2  0
 19 12  1  0
 22 21  1  6
 22 24  1  0
 23 22  1  0
 24 26  1  0
 24 25  1  6
 25 19  1  0
 26 27  1  0
 28 26  2  0
M  END
$$$$
