HHT.pdb
     RDKit          3D

 28 29  0  0  1  0  0  0  0  0999 V2000
   26.2168  -20.5155  -16.4887 N   0  0  0  0  0  0  0  0  0  0  0  0
   24.9642  -19.8559  -16.5606 C   0  0  1  0  0  0  0  0  0  0  0  0
   24.5428  -19.7246  -18.0107 C   0  0  0  0  0  0  0  0  0  0  0  0
   25.5291  -18.9160  -18.7674 C   0  0  0  0  0  0  0  0  0  0  0  0
   25.5418  -17.5376  -18.8883 C   0  0  0  0  0  0  0  0  0  0  0  0
   26.5778  -17.1738  -19.6434 N   0  0  0  0  0  0  0  0  0  0  0  0
   27.2310  -18.2846  -20.0107 C   0  0  0  0  0  0  0  0  0  0  0  0
   26.6015  -19.3476  -19.4834 N   0  0  0  0  0  0  0  0  0  0  0  0
   23.8988  -20.5311  -15.7555 C   0  0  0  0  0  0  0  0  0  0  0  0
   23.5406  -21.7081  -15.9972 O   0  0  0  0  0  0  0  0  0  0  0  0
   23.2633  -19.8448  -14.6888 N   0  0  0  0  0  0  0  0  0  0  0  0
   22.2610  -20.3392  -13.8116 C   0  0  1  0  0  0  0  0  0  0  0  0
   22.4740  -20.0073  -12.3764 C   0  0  0  0  0  0  0  0  0  0  0  0
   23.6695  -20.7148  -11.8175 C   0  0  0  0  0  0  0  0  0  0  0  0
   24.4599  -21.6788  -12.3544 C   0  0  0  0  0  0  0  0  0  0  0  0
   25.4368  -22.0241  -11.4723 N   0  0  0  0  0  0  0  0  0  0  0  0
   25.2414  -21.2633  -10.3853 C   0  0  0  0  0  0  0  0  0  0  0  0
   24.1789  -20.4749  -10.5908 N   0  0  0  0  0  0  0  0  0  0  0  0
   20.8536  -20.1424  -14.2826 C   0  0  0  0  0  0  0  0  0  0  0  0
   20.3426  -19.0288  -14.5469 O   0  0  0  0  0  0  0  0  0  0  0  0
   19.1377  -22.6398  -16.9218 C   0  0  0  0  0  0  0  0  0  0  0  0
   18.2542  -22.3680  -15.7541 C   0  0  1  0  0  0  0  0  0  0  0  0
   18.3079  -23.5115  -14.9258 O   0  0  0  0  0  0  0  0  0  0  0  0
   18.6367  -21.1330  -14.9695 C   0  0  2  0  0  0  0  0  0  0  0  0
   20.0024  -21.2632  -14.4580 N   0  0  0  0  0  0  0  0  0  0  0  0
   17.6872  -20.7784  -13.9203 C   0  0  0  0  0  0  0  0  0  0  0  0
   16.3566  -20.4703  -14.1164 O   0  0  0  0  0  0  0  0  0  0  0  0
   18.0707  -20.7344  -12.6986 O   0  0  0  0  0  0  0  0  0  0  0  0
  2  9  1  0
  2  1  1  6
  3  2  1  0
  4  5  2  0
  4  3  1  0
  6  5  1  0
  7  8  2  0
  7  6  1  0
  8  4  1  0
  9 11  1  0
 10  9  2  0
 11 12  1  0
 12 13  1  1
 13 14  1  0
 14 15  2  0
 14 18  1  0
 15 16  1  0
 16 17  1  0
 18 17  2  0
 19 20  2  0
 19 12  1  0
 22 21  1  6
 22 24  1  0
 23 22  1  0
 24 26  1  0
 24 25  1  1
 25 19  1  0
 26 27  1  0
 28 26  2  0
M  END
$$$$
