HHT.pdb
     RDKit          3D

 28 29  0  0  1  0  0  0  0  0999 V2000
   21.4534  -29.6956  -14.8463 N   0  0  0  0  0  0  0  0  0  0  0  0
   22.0039  -30.8055  -15.5352 C   0  0  1  0  0  0  0  0  0  0  0  0
   22.9619  -30.3153  -16.6027 C   0  0  0  0  0  0  0  0  0  0  0  0
   22.2330  -29.5511  -17.6439 C   0  0  0  0  0  0  0  0  0  0  0  0
   22.1377  -28.1737  -17.7368 C   0  0  0  0  0  0  0  0  0  0  0  0
   21.4030  -27.8565  -18.8023 N   0  0  0  0  0  0  0  0  0  0  0  0
   21.0238  -28.9962  -19.3962 C   0  0  0  0  0  0  0  0  0  0  0  0
   21.5231  -30.0306  -18.7000 N   0  0  0  0  0  0  0  0  0  0  0  0
   22.6760  -31.7855  -14.6260 C   0  0  0  0  0  0  0  0  0  0  0  0
   23.8416  -32.1918  -14.8458 O   0  0  0  0  0  0  0  0  0  0  0  0
   21.9997  -32.2824  -13.4821 N   0  0  0  0  0  0  0  0  0  0  0  0
   22.4706  -33.2356  -12.5395 C   0  0  1  0  0  0  0  0  0  0  0  0
   22.5972  -32.7220  -11.1483 C   0  0  0  0  0  0  0  0  0  0  0  0
   22.3811  -31.2417  -11.0843 C   0  0  0  0  0  0  0  0  0  0  0  0
   22.1718  -30.3332  -12.0708 C   0  0  0  0  0  0  0  0  0  0  0  0
   22.0264  -29.0906  -11.5358 N   0  0  0  0  0  0  0  0  0  0  0  0
   22.1479  -29.2412  -10.2087 C   0  0  0  0  0  0  0  0  0  0  0  0
   22.3613  -30.5344   -9.9349 N   0  0  0  0  0  0  0  0  0  0  0  0
   21.8376  -34.5888  -12.6367 C   0  0  0  0  0  0  0  0  0  0  0  0
   20.6599  -34.7964  -13.0123 O   0  0  0  0  0  0  0  0  0  0  0  0
   23.8487  -37.5980  -14.1822 C   0  0  0  0  0  0  0  0  0  0  0  0
   23.1645  -38.0277  -12.9312 C   0  0  1  0  0  0  0  0  0  0  0  0
   24.1591  -38.1192  -11.9318 O   0  0  0  0  0  0  0  0  0  0  0  0
   22.0575  -37.0982  -12.4869 C   0  0  2  0  0  0  0  0  0  0  0  0
   22.5826  -35.7454  -12.2920 N   0  0  0  0  0  0  0  0  0  0  0  0
   21.3142  -37.5730  -11.3248 C   0  0  0  0  0  0  0  0  0  0  0  0
   20.4763  -38.6690  -11.3044 O   0  0  0  0  0  0  0  0  0  0  0  0
   21.4125  -36.9555  -10.2065 O   0  0  0  0  0  0  0  0  0  0  0  0
  2  9  1  0
  2  1  1  1
  3  2  1  0
  4  5  2  0
  4  3  1  0
  6  5  1  0
  7  8  2  0
  7  6  1  0
  8  4  1  0
  9 11  1  0
 10  9  2  0
 11 12  1  0
 12 13  1  1
 13 14  1  0
 14 15  2  0
 14 18  1  0
 15 16  1  0
 16 17  1  0
 18 17  2  0
 19 20  2  0
 19 12  1  0
 22 21  1  6
 22 24  1  0
 23 22  1  0
 24 26  1  0
 24 25  1  1
 25 19  1  0
 26 27  1  0
 28 26  2  0
M  END
$$$$
