HHT.pdb
     RDKit          3D

 28 29  0  0  1  0  0  0  0  0999 V2000
   21.0460  -11.4321  -17.2593 N   0  0  0  0  0  0  0  0  0  0  0  0
   21.1089  -10.2187  -17.9896 C   0  0  1  0  0  0  0  0  0  0  0  0
   20.5002  -10.4214  -19.3629 C   0  0  0  0  0  0  0  0  0  0  0  0
   21.2249  -11.4843  -20.1009 C   0  0  0  0  0  0  0  0  0  0  0  0
   22.5488  -11.4498  -20.5020 C   0  0  0  0  0  0  0  0  0  0  0  0
   22.8433  -12.5832  -21.1378 N   0  0  0  0  0  0  0  0  0  0  0  0
   21.7411  -13.3451  -21.1552 C   0  0  0  0  0  0  0  0  0  0  0  0
   20.7531  -12.6860  -20.5278 N   0  0  0  0  0  0  0  0  0  0  0  0
   20.4560   -9.0736  -17.2815 C   0  0  0  0  0  0  0  0  0  0  0  0
   19.2083   -8.9663  -17.2190 O   0  0  0  0  0  0  0  0  0  0  0  0
   21.2448   -8.0724  -16.6586 N   0  0  0  0  0  0  0  0  0  0  0  0
   20.7996   -6.8676  -16.0512 C   0  0  1  0  0  0  0  0  0  0  0  0
   21.1056   -6.7553  -14.5989 C   0  0  0  0  0  0  0  0  0  0  0  0
   20.2577   -7.6809  -13.7826 C   0  0  0  0  0  0  0  0  0  0  0  0
   19.3443   -8.6111  -14.1606 C   0  0  0  0  0  0  0  0  0  0  0  0
   18.8169   -9.2181  -13.0629 N   0  0  0  0  0  0  0  0  0  0  0  0
   19.4141   -8.6532  -12.0033 C   0  0  0  0  0  0  0  0  0  0  0  0
   20.2812   -7.7283  -12.4339 N   0  0  0  0  0  0  0  0  0  0  0  0
   21.0799   -5.6223  -16.8335 C   0  0  0  0  0  0  0  0  0  0  0  0
   22.2256   -5.1617  -17.0482 O   0  0  0  0  0  0  0  0  0  0  0  0
   19.7686   -4.8664  -20.3531 C   0  0  0  0  0  0  0  0  0  0  0  0
   19.4118   -3.7300  -19.4592 C   0  0  1  0  0  0  0  0  0  0  0  0
   18.0382   -3.8637  -19.1562 O   0  0  0  0  0  0  0  0  0  0  0  0
   20.2268   -3.6707  -18.1868 C   0  0  2  0  0  0  0  0  0  0  0  0
   20.0076   -4.8798  -17.3906 N   0  0  0  0  0  0  0  0  0  0  0  0
   20.0238   -2.4542  -17.4077 C   0  0  0  0  0  0  0  0  0  0  0  0
   20.2939   -1.1724  -17.8412 O   0  0  0  0  0  0  0  0  0  0  0  0
   19.5591   -2.5276  -16.2160 O   0  0  0  0  0  0  0  0  0  0  0  0
  2  9  1  0
  2  1  1  1
  3  2  1  0
  4  5  2  0
  4  3  1  0
  6  5  1  0
  7  8  2  0
  7  6  1  0
  8  4  1  0
  9 11  1  0
 10  9  2  0
 11 12  1  0
 12 13  1  1
 13 14  1  0
 14 15  2  0
 14 18  1  0
 15 16  1  0
 16 17  1  0
 18 17  2  0
 19 20  2  0
 19 12  1  0
 22 21  1  6
 22 24  1  0
 23 22  1  0
 24 26  1  0
 24 25  1  1
 25 19  1  0
 26 27  1  0
 28 26  2  0
M  END
$$$$
