HHT.pdb
     RDKit          3D

 28 29  0  0  1  0  0  0  0  0999 V2000
   27.6417  -23.7424  -17.9460 N   0  0  0  0  0  0  0  0  0  0  0  0
   26.8241  -24.1040  -16.8459 C   0  0  1  0  0  0  0  0  0  0  0  0
   27.6090  -24.9922  -15.9011 C   0  0  0  0  0  0  0  0  0  0  0  0
   27.7426  -26.3584  -16.4625 C   0  0  0  0  0  0  0  0  0  0  0  0
   26.8085  -27.3759  -16.3796 C   0  0  0  0  0  0  0  0  0  0  0  0
   27.2808  -28.4556  -17.0015 N   0  0  0  0  0  0  0  0  0  0  0  0
   28.4956  -28.1570  -17.4817 C   0  0  0  0  0  0  0  0  0  0  0  0
   28.7846  -26.8855  -17.1594 N   0  0  0  0  0  0  0  0  0  0  0  0
   26.2601  -22.9227  -16.1211 C   0  0  0  0  0  0  0  0  0  0  0  0
   26.9927  -21.9869  -15.7218 O   0  0  0  0  0  0  0  0  0  0  0  0
   24.8671  -22.8360  -15.8667 N   0  0  0  0  0  0  0  0  0  0  0  0
   24.1758  -21.8234  -15.1487 C   0  0  1  0  0  0  0  0  0  0  0  0
   22.9533  -21.3089  -15.8240 C   0  0  0  0  0  0  0  0  0  0  0  0
   23.2915  -20.3483  -16.9217 C   0  0  0  0  0  0  0  0  0  0  0  0
   24.4892  -19.8623  -17.3361 C   0  0  0  0  0  0  0  0  0  0  0  0
   24.3085  -19.0074  -18.3792 N   0  0  0  0  0  0  0  0  0  0  0  0
   22.9870  -18.9705  -18.6046 C   0  0  0  0  0  0  0  0  0  0  0  0
   22.3733  -19.7765  -17.7290 N   0  0  0  0  0  0  0  0  0  0  0  0
   24.0000  -22.0913  -13.6863 C   0  0  0  0  0  0  0  0  0  0  0  0
   23.5448  -23.1574  -13.2096 O   0  0  0  0  0  0  0  0  0  0  0  0
   26.5502  -21.5398  -10.8417 C   0  0  0  0  0  0  0  0  0  0  0  0
   25.2936  -20.8173  -10.4996 C   0  0  1  0  0  0  0  0  0  0  0  0
   25.5439  -19.4419  -10.7052 O   0  0  0  0  0  0  0  0  0  0  0  0
   24.0929  -21.2588  -11.3059 C   0  0  2  0  0  0  0  0  0  0  0  0
   24.3606  -21.1014  -12.7367 N   0  0  0  0  0  0  0  0  0  0  0  0
   22.8427  -20.6221  -10.9063 C   0  0  0  0  0  0  0  0  0  0  0  0
   22.2451  -20.7399   -9.6683 O   0  0  0  0  0  0  0  0  0  0  0  0
   22.2071  -19.8826  -11.7374 O   0  0  0  0  0  0  0  0  0  0  0  0
  2  9  1  0
  2  1  1  6
  3  2  1  0
  4  5  2  0
  4  3  1  0
  6  5  1  0
  7  8  2  0
  7  6  1  0
  8  4  1  0
  9 11  1  0
 10  9  2  0
 11 12  1  0
 12 13  1  6
 13 14  1  0
 14 15  2  0
 14 18  1  0
 15 16  1  0
 16 17  1  0
 18 17  2  0
 19 20  2  0
 19 12  1  0
 22 21  1  6
 22 24  1  0
 23 22  1  0
 24 26  1  0
 24 25  1  6
 25 19  1  0
 26 27  1  0
 28 26  2  0
M  END
$$$$
