RRK.pdb
     RDKit          3D

 32 31  0  0  1  0  0  0  0  0999 V2000
   23.6257  -11.9049  -21.9429 N   0  0  0  0  0  0  0  0  0  0  0  0
   22.9746  -13.1413  -22.2014 C   0  0  0  0  0  0  0  0  0  0  0  0
   21.9491  -13.1876  -22.9772 N   0  0  0  0  0  0  0  0  0  0  0  0
   23.4159  -14.3647  -21.6232 N   0  0  0  0  0  0  0  0  0  0  0  0
   24.3514  -14.4260  -20.5413 C   0  0  0  0  0  0  0  0  0  0  0  0
   25.6763  -15.0292  -20.9506 C   0  0  0  0  0  0  0  0  0  0  0  0
   25.8021  -16.4764  -20.4636 C   0  0  0  0  0  0  0  0  0  0  0  0
   25.9210  -16.3623  -18.9462 C   0  0  2  0  0  0  0  0  0  0  0  0
   27.3257  -16.5223  -18.6242 N   0  0  0  0  0  0  0  0  0  0  0  0
   25.0862  -17.3698  -18.2431 C   0  0  0  0  0  0  0  0  0  0  0  0
   23.8554  -17.3252  -18.4458 O   0  0  0  0  0  0  0  0  0  0  0  0
   21.4482  -14.0404  -23.2370 N   0  0  0  0  0  0  0  0  0  0  0  0
   25.4524  -23.2271  -12.8425 C   0  0  0  0  0  0  0  0  0  0  0  0
   24.2348  -23.5584  -13.4861 N   0  0  0  0  0  0  0  0  0  0  0  0
   23.2461  -24.0026  -12.7488 N   0  0  0  0  0  0  0  0  0  0  0  0
   24.0821  -23.4128  -14.8768 C   0  0  0  0  0  0  0  0  0  0  0  0
   24.7770  -22.4323  -15.6203 C   0  0  0  0  0  0  0  0  0  0  0  0
   25.1794  -21.1762  -14.8962 C   0  0  0  0  0  0  0  0  0  0  0  0
   25.9102  -20.2529  -15.8208 C   0  0  1  0  0  0  0  0  0  0  0  0
   25.0010  -19.2723  -16.5519 N   0  0  0  0  0  0  0  0  0  0  0  0
   25.6339  -18.3305  -17.3906 C   0  0  0  0  0  0  0  0  0  0  0  0
   23.9586  -18.8189  -15.6466 O   0  0  0  0  0  0  0  0  0  0  0  0
   24.3283  -18.1377  -14.6401 N   0  0  0  0  0  0  0  0  0  0  0  0
   22.3202  -24.1801  -13.1714 C   0  0  2  0  0  0  0  0  0  0  0  0
   22.5773  -19.0603  -15.7743 C   0  0  0  0  0  0  0  0  0  0  0  0
   21.5405  -18.6061  -14.9082 C   0  0  0  0  0  0  0  0  0  0  0  0
   20.3525  -17.9980  -15.6255 C   0  0  0  0  0  0  0  0  0  0  0  0
   19.3712  -17.3832  -14.6676 C   0  0  0  0  0  0  0  0  0  0  0  0
   18.2011  -16.8488  -15.4541 N   0  0  0  0  0  0  0  0  0  0  0  0
   17.1744  -16.1481  -14.6017 C   0  0  0  0  0  0  0  0  0  0  0  0
   16.1545  -15.5606  -15.4669 O   0  0  0  0  0  0  0  0  0  0  0  0
   20.9890  -19.6878  -14.0470 O   0  0  0  0  0  0  0  0  0  0  0  0
  2  3  2  0
  2  1  1  0
  4  2  1  0
  5  4  1  0
  6  7  1  0
  6  5  1  0
  8 10  1  0
  8  7  1  0
  8  9  1  6
 10 11  2  0
 13 15  1  0
 13 12  1  0
 14 13  2  0
 16 15  1  0
 17 16  1  0
 17 18  1  0
 19 18  1  6
 20 10  1  0
 20 19  1  0
 21 23  1  0
 21 19  1  0
 22 21  2  0
 24 25  1  1
 24 23  1  0
 25 26  1  0
 26 27  1  0
 27 28  1  0
 28 29  1  0
 30 24  1  0
 30 31  1  0
 32 30  2  0
M  END
$$$$
