RRK.pdb
     RDKit          3D

 32 31  0  0  1  0  0  0  0  0999 V2000
   26.8264  -20.2657  -20.7346 N   0  0  0  0  0  0  0  0  0  0  0  0
   26.5992  -18.8884  -20.4682 C   0  0  0  0  0  0  0  0  0  0  0  0
   25.8707  -18.1834  -21.2605 N   0  0  0  0  0  0  0  0  0  0  0  0
   27.1585  -18.2344  -19.3345 N   0  0  0  0  0  0  0  0  0  0  0  0
   28.0457  -18.8820  -18.4165 C   0  0  0  0  0  0  0  0  0  0  0  0
   27.5770  -20.2676  -18.0330 C   0  0  0  0  0  0  0  0  0  0  0  0
   27.1957  -20.3349  -16.5506 C   0  0  0  0  0  0  0  0  0  0  0  0
   28.2027  -21.3049  -15.9384 C   0  0  2  0  0  0  0  0  0  0  0  0
   28.2039  -22.4889  -16.7755 N   0  0  0  0  0  0  0  0  0  0  0  0
   27.8717  -21.6384  -14.5293 C   0  0  0  0  0  0  0  0  0  0  0  0
   26.7969  -22.2405  -14.3282 O   0  0  0  0  0  0  0  0  0  0  0  0
   25.6621  -17.1900  -21.1371 N   0  0  0  0  0  0  0  0  0  0  0  0
   32.7783  -23.5215  -13.3274 C   0  0  0  0  0  0  0  0  0  0  0  0
   33.3289  -23.3541  -12.0330 N   0  0  0  0  0  0  0  0  0  0  0  0
   33.9702  -24.3643  -11.4978 N   0  0  0  0  0  0  0  0  0  0  0  0
   33.1990  -22.1385  -11.3371 C   0  0  0  0  0  0  0  0  0  0  0  0
   31.9999  -21.7525  -10.6966 C   0  0  0  0  0  0  0  0  0  0  0  0
   30.7079  -22.1707  -11.3444 C   0  0  0  0  0  0  0  0  0  0  0  0
   29.6679  -21.1084  -11.1666 C   0  0  2  0  0  0  0  0  0  0  0  0
   28.4575  -21.2781  -12.0770 N   0  0  0  0  0  0  0  0  0  0  0  0
   28.7106  -21.3026  -13.4649 C   0  0  0  0  0  0  0  0  0  0  0  0
   27.3631  -20.4635  -11.5763 O   0  0  0  0  0  0  0  0  0  0  0  0
   27.2791  -19.2772  -12.0229 N   0  0  0  0  0  0  0  0  0  0  0  0
   34.4009  -24.2717  -10.5633 C   0  0  1  0  0  0  0  0  0  0  0  0
   26.3853  -20.8591  -10.6436 C   0  0  0  0  0  0  0  0  0  0  0  0
   25.0315  -20.4186  -10.5768 C   0  0  0  0  0  0  0  0  0  0  0  0
   24.2015  -20.7719  -11.7942 C   0  0  0  0  0  0  0  0  0  0  0  0
   22.7835  -20.2906  -11.6676 C   0  0  0  0  0  0  0  0  0  0  0  0
   22.0325  -20.6709  -12.9185 N   0  0  0  0  0  0  0  0  0  0  0  0
   20.5874  -20.2433  -12.9046 C   0  0  0  0  0  0  0  0  0  0  0  0
   19.9508  -20.6675  -14.1491 O   0  0  0  0  0  0  0  0  0  0  0  0
   24.2983  -20.9738   -9.4064 O   0  0  0  0  0  0  0  0  0  0  0  0
  2  3  2  0
  2  1  1  0
  4  2  1  0
  5  4  1  0
  6  7  1  0
  6  5  1  0
  8 10  1  0
  8  7  1  0
  8  9  1  6
 10 11  2  0
 13 15  1  0
 13 12  1  0
 14 13  2  0
 16 15  1  0
 17 16  1  0
 17 18  1  0
 19 18  1  1
 20 10  1  0
 20 19  1  0
 21 23  1  0
 21 19  1  0
 22 21  2  0
 24 25  1  1
 24 23  1  0
 25 26  1  0
 26 27  1  0
 27 28  1  0
 28 29  1  0
 30 24  1  0
 30 31  1  0
 32 30  2  0
M  END
$$$$
