RRK.pdb
     RDKit          3D

 32 31  0  0  1  0  0  0  0  0999 V2000
   28.6705  -20.3030  -20.9428 N   0  0  0  0  0  0  0  0  0  0  0  0
   29.4271  -19.4926  -20.0537 C   0  0  0  0  0  0  0  0  0  0  0  0
   30.7017  -19.3862  -20.1944 N   0  0  0  0  0  0  0  0  0  0  0  0
   28.8227  -18.7750  -18.9834 N   0  0  0  0  0  0  0  0  0  0  0  0
   27.4066  -18.7166  -18.7820 C   0  0  0  0  0  0  0  0  0  0  0  0
   26.7644  -20.0855  -18.7613 C   0  0  0  0  0  0  0  0  0  0  0  0
   25.9364  -20.2918  -17.4888 C   0  0  0  0  0  0  0  0  0  0  0  0
   26.6465  -21.4211  -16.7471 C   0  0  2  0  0  0  0  0  0  0  0  0
   26.7398  -22.5342  -17.6717 N   0  0  0  0  0  0  0  0  0  0  0  0
   25.9323  -21.8086  -15.5036 C   0  0  0  0  0  0  0  0  0  0  0  0
   25.2161  -22.8294  -15.5576 O   0  0  0  0  0  0  0  0  0  0  0  0
   31.3186  -18.8601  -19.5713 N   0  0  0  0  0  0  0  0  0  0  0  0
   27.9607  -19.9807   -7.2374 C   0  0  0  0  0  0  0  0  0  0  0  0
   28.3553  -20.7257   -8.3758 N   0  0  0  0  0  0  0  0  0  0  0  0
   29.5812  -21.1882   -8.4183 N   0  0  0  0  0  0  0  0  0  0  0  0
   27.4604  -20.9705   -9.4330 C   0  0  0  0  0  0  0  0  0  0  0  0
   26.1025  -20.5818   -9.3862 C   0  0  0  0  0  0  0  0  0  0  0  0
   25.2577  -20.8844  -10.5940 C   0  0  0  0  0  0  0  0  0  0  0  0
   26.0648  -20.7324  -11.8459 C   0  0  1  0  0  0  0  0  0  0  0  0
   25.3402  -21.2007  -13.1022 N   0  0  0  0  0  0  0  0  0  0  0  0
   26.0440  -21.0779  -14.3190 C   0  0  0  0  0  0  0  0  0  0  0  0
   23.9539  -20.7686  -13.0452 O   0  0  0  0  0  0  0  0  0  0  0  0
   23.7457  -19.5276  -12.8710 N   0  0  0  0  0  0  0  0  0  0  0  0
   29.9156  -21.7015   -9.2501 C   0  0  1  0  0  0  0  0  0  0  0  0
   22.8166  -21.5902  -13.1638 C   0  0  0  0  0  0  0  0  0  0  0  0
   21.4524  -21.1776  -13.1589 C   0  0  0  0  0  0  0  0  0  0  0  0
   20.4572  -22.3183  -13.2234 C   0  0  0  0  0  0  0  0  0  0  0  0
   20.2777  -22.8301  -14.6249 C   0  0  0  0  0  0  0  0  0  0  0  0
   19.3264  -23.9993  -14.5924 N   0  0  0  0  0  0  0  0  0  0  0  0
   18.9908  -24.5387  -15.9591 C   0  0  0  0  0  0  0  0  0  0  0  0
   18.1190  -25.7018  -15.8138 O   0  0  0  0  0  0  0  0  0  0  0  0
   21.0903  -20.3862  -11.9514 O   0  0  0  0  0  0  0  0  0  0  0  0
  2  3  2  0
  2  1  1  0
  4  2  1  0
  5  4  1  0
  6  7  1  0
  6  5  1  0
  8 10  1  0
  8  7  1  0
  8  9  1  6
 10 11  2  0
 13 15  1  0
 13 12  1  0
 14 13  2  0
 16 15  1  0
 17 16  1  0
 17 18  1  0
 19 18  1  1
 20 10  1  0
 20 19  1  0
 21 23  1  0
 21 19  1  0
 22 21  2  0
 24 25  1  1
 24 23  1  0
 25 26  1  0
 26 27  1  0
 27 28  1  0
 28 29  1  0
 30 24  1  0
 30 31  1  0
 32 30  2  0
M  END
$$$$
