RRK.pdb
     RDKit          3D

 32 31  0  0  1  0  0  0  0  0999 V2000
   30.0919  -26.0648  -15.8857 N   0  0  0  0  0  0  0  0  0  0  0  0
   29.1065  -26.5768  -16.7725 C   0  0  0  0  0  0  0  0  0  0  0  0
   28.9374  -27.8465  -16.8951 N   0  0  0  0  0  0  0  0  0  0  0  0
   28.2764  -25.7256  -17.5548 N   0  0  0  0  0  0  0  0  0  0  0  0
   27.6033  -24.5814  -17.0189 C   0  0  0  0  0  0  0  0  0  0  0  0
   26.1493  -24.8548  -16.7060 C   0  0  0  0  0  0  0  0  0  0  0  0
   25.3938  -23.5579  -16.3983 C   0  0  0  0  0  0  0  0  0  0  0  0
   24.7967  -23.7809  -15.0113 C   0  0  2  0  0  0  0  0  0  0  0  0
   25.6203  -24.7794  -14.3577 N   0  0  0  0  0  0  0  0  0  0  0  0
   23.3760  -24.2095  -15.0769 C   0  0  0  0  0  0  0  0  0  0  0  0
   22.5811  -23.4450  -15.6614 O   0  0  0  0  0  0  0  0  0  0  0  0
   28.3226  -28.2929  -17.5795 N   0  0  0  0  0  0  0  0  0  0  0  0
   24.4641  -30.1977  -16.9820 C   0  0  0  0  0  0  0  0  0  0  0  0
   23.7752  -30.6158  -15.8169 N   0  0  0  0  0  0  0  0  0  0  0  0
   24.3957  -31.4164  -14.9848 N   0  0  0  0  0  0  0  0  0  0  0  0
   22.4631  -30.1839  -15.5513 C   0  0  0  0  0  0  0  0  0  0  0  0
   21.7787  -29.2712  -16.3855 C   0  0  0  0  0  0  0  0  0  0  0  0
   21.9965  -27.8052  -16.1263 C   0  0  0  0  0  0  0  0  0  0  0  0
   21.4944  -27.4363  -14.7649 C   0  0  2  0  0  0  0  0  0  0  0  0
   21.6308  -25.9529  -14.4431 N   0  0  0  0  0  0  0  0  0  0  0  0
   22.9304  -25.4084  -14.5168 C   0  0  0  0  0  0  0  0  0  0  0  0
   20.7985  -25.6327  -13.2957 O   0  0  0  0  0  0  0  0  0  0  0  0
   21.3639  -25.6326  -12.1581 N   0  0  0  0  0  0  0  0  0  0  0  0
   23.9272  -31.7341  -14.1206 C   0  0  2  0  0  0  0  0  0  0  0  0
   19.4253  -25.3223  -13.3196 C   0  0  0  0  0  0  0  0  0  0  0  0
   18.5994  -24.9858  -12.2078 C   0  0  0  0  0  0  0  0  0  0  0  0
   19.1996  -25.3308  -10.8601 C   0  0  0  0  0  0  0  0  0  0  0  0
   18.2727  -24.9898   -9.7274 C   0  0  0  0  0  0  0  0  0  0  0  0
   19.0426  -25.0727   -8.4337 N   0  0  0  0  0  0  0  0  0  0  0  0
   18.2037  -24.7818   -7.2159 C   0  0  0  0  0  0  0  0  0  0  0  0
   19.0570  -24.8040   -6.0304 O   0  0  0  0  0  0  0  0  0  0  0  0
   18.2683  -23.5358  -12.1494 O   0  0  0  0  0  0  0  0  0  0  0  0
  2  3  2  0
  2  1  1  0
  4  2  1  0
  5  4  1  0
  6  7  1  0
  6  5  1  0
  8 10  1  0
  8  7  1  0
  8  9  1  6
 10 11  2  0
 13 15  1  0
 13 12  1  0
 14 13  2  0
 16 15  1  0
 17 16  1  0
 17 18  1  0
 19 18  1  6
 20 10  1  0
 20 19  1  0
 21 23  1  0
 21 19  1  0
 22 21  2  0
 24 25  1  1
 24 23  1  0
 25 26  1  0
 26 27  1  0
 27 28  1  0
 28 29  1  0
 30 24  1  0
 30 31  1  0
 32 30  2  0
M  END
$$$$
