RRK.pdb
     RDKit          3D

 32 31  0  0  1  0  0  0  0  0999 V2000
   41.4310  -21.0227   -8.1919 N   0  0  0  0  0  0  0  0  0  0  0  0
   42.3699  -21.7928   -7.4537 C   0  0  0  0  0  0  0  0  0  0  0  0
   42.5302  -23.0437   -7.7089 N   0  0  0  0  0  0  0  0  0  0  0  0
   43.1615  -21.2282   -6.4142 N   0  0  0  0  0  0  0  0  0  0  0  0
   43.3923  -19.8216   -6.2829 C   0  0  0  0  0  0  0  0  0  0  0  0
   44.5986  -19.3538   -7.0658 C   0  0  0  0  0  0  0  0  0  0  0  0
   44.8568  -17.8593   -6.8484 C   0  0  0  0  0  0  0  0  0  0  0  0
   46.1233  -17.5678   -7.6489 C   0  0  2  0  0  0  0  0  0  0  0  0
   47.2448  -17.8710   -6.7813 N   0  0  0  0  0  0  0  0  0  0  0  0
   46.1719  -16.1616   -8.1251 C   0  0  0  0  0  0  0  0  0  0  0  0
   46.8756  -15.3664   -7.4690 O   0  0  0  0  0  0  0  0  0  0  0  0
   43.1507  -23.6725   -7.1938 N   0  0  0  0  0  0  0  0  0  0  0  0
   42.5512  -14.6196  -15.7425 C   0  0  0  0  0  0  0  0  0  0  0  0
   42.7892  -15.7950  -14.9886 N   0  0  0  0  0  0  0  0  0  0  0  0
   42.2414  -16.9137  -15.3969 N   0  0  0  0  0  0  0  0  0  0  0  0
   43.5940  -15.7707  -13.8351 C   0  0  0  0  0  0  0  0  0  0  0  0
   44.2994  -14.6175  -13.4234 C   0  0  0  0  0  0  0  0  0  0  0  0
   45.1419  -14.7324  -12.1820 C   0  0  0  0  0  0  0  0  0  0  0  0
   44.3578  -14.3091  -10.9788 C   0  0  2  0  0  0  0  0  0  0  0  0
   45.1321  -14.4252   -9.6713 N   0  0  0  0  0  0  0  0  0  0  0  0
   45.4700  -15.7295   -9.2522 C   0  0  0  0  0  0  0  0  0  0  0  0
   44.5768  -13.4967   -8.7011 O   0  0  0  0  0  0  0  0  0  0  0  0
   43.5333  -13.8705   -8.0804 N   0  0  0  0  0  0  0  0  0  0  0  0
   42.4236  -17.7971  -14.8931 C   0  0  2  0  0  0  0  0  0  0  0  0
   45.0810  -12.2218   -8.3804 C   0  0  0  0  0  0  0  0  0  0  0  0
   44.5054  -11.2669   -7.4926 C   0  0  0  0  0  0  0  0  0  0  0  0
   45.5171  -10.4784   -6.6861 C   0  0  0  0  0  0  0  0  0  0  0  0
   44.8637   -9.4153   -5.8487 C   0  0  0  0  0  0  0  0  0  0  0  0
   45.9401   -8.6206   -5.1537 N   0  0  0  0  0  0  0  0  0  0  0  0
   45.4010   -7.5734   -4.2134 C   0  0  0  0  0  0  0  0  0  0  0  0
   46.5172   -6.9192   -3.5350 O   0  0  0  0  0  0  0  0  0  0  0  0
   43.6639  -10.2581   -8.1925 O   0  0  0  0  0  0  0  0  0  0  0  0
  2  3  2  0
  2  1  1  0
  4  2  1  0
  5  4  1  0
  6  7  1  0
  6  5  1  0
  8 10  1  0
  8  7  1  0
  8  9  1  1
 10 11  2  0
 13 15  1  0
 13 12  1  0
 14 13  2  0
 16 15  1  0
 17 16  1  0
 17 18  1  0
 19 18  1  6
 20 10  1  0
 20 19  1  0
 21 23  1  0
 21 19  1  0
 22 21  2  0
 24 25  1  6
 24 23  1  0
 25 26  1  0
 26 27  1  0
 27 28  1  0
 28 29  1  0
 30 24  1  0
 30 31  1  0
 32 30  2  0
M  END
$$$$
