RRK.pdb
     RDKit          3D

 32 31  0  0  1  0  0  0  0  0999 V2000
   27.8556  -25.0333  -16.5386 N   0  0  0  0  0  0  0  0  0  0  0  0
   28.4835  -23.7840  -16.2842 C   0  0  0  0  0  0  0  0  0  0  0  0
   29.6823  -23.7405  -15.8187 N   0  0  0  0  0  0  0  0  0  0  0  0
   27.8277  -22.5441  -16.5254 N   0  0  0  0  0  0  0  0  0  0  0  0
   26.4805  -22.4511  -17.0005 C   0  0  0  0  0  0  0  0  0  0  0  0
   25.5766  -23.5031  -16.3978 C   0  0  0  0  0  0  0  0  0  0  0  0
   24.9894  -23.0327  -15.0631 C   0  0  0  0  0  0  0  0  0  0  0  0
   24.0610  -24.1647  -14.6315 C   0  0  2  0  0  0  0  0  0  0  0  0
   24.5333  -25.3666  -15.2911 N   0  0  0  0  0  0  0  0  0  0  0  0
   22.6422  -23.8835  -14.9697 C   0  0  0  0  0  0  0  0  0  0  0  0
   22.0321  -24.7569  -15.6199 O   0  0  0  0  0  0  0  0  0  0  0  0
   30.2243  -22.8857  -15.6735 N   0  0  0  0  0  0  0  0  0  0  0  0
   17.8571  -23.6725  -11.1238 C   0  0  0  0  0  0  0  0  0  0  0  0
   17.1056  -22.5068  -11.4119 N   0  0  0  0  0  0  0  0  0  0  0  0
   15.8065  -22.6243  -11.5415 N   0  0  0  0  0  0  0  0  0  0  0  0
   17.7289  -21.2535  -11.5515 C   0  0  0  0  0  0  0  0  0  0  0  0
   19.1277  -21.0831  -11.4447 C   0  0  0  0  0  0  0  0  0  0  0  0
   19.9095  -20.9874  -12.7267 C   0  0  0  0  0  0  0  0  0  0  0  0
   19.7967  -22.2630  -13.5025 C   0  0  1  0  0  0  0  0  0  0  0  0
   20.6623  -22.2956  -14.7564 N   0  0  0  0  0  0  0  0  0  0  0  0
   22.0027  -22.7027  -14.5871 C   0  0  0  0  0  0  0  0  0  0  0  0
   20.3811  -21.1205  -15.5637 O   0  0  0  0  0  0  0  0  0  0  0  0
   20.6238  -19.9902  -15.0370 N   0  0  0  0  0  0  0  0  0  0  0  0
   15.2212  -21.7880  -11.7010 C   0  0  2  0  0  0  0  0  0  0  0  0
   19.8652  -21.1102  -16.8738 C   0  0  0  0  0  0  0  0  0  0  0  0
   18.6358  -20.5362  -17.3103 C   0  0  0  0  0  0  0  0  0  0  0  0
   17.6401  -21.5393  -17.8563 C   0  0  0  0  0  0  0  0  0  0  0  0
   18.1957  -22.3053  -19.0238 C   0  0  0  0  0  0  0  0  0  0  0  0
   19.3968  -21.5662  -19.5569 N   0  0  0  0  0  0  0  0  0  0  0  0
   20.1077  -22.2970  -20.6668 C   0  0  0  0  0  0  0  0  0  0  0  0
   21.1729  -21.4475  -21.1939 O   0  0  0  0  0  0  0  0  0  0  0  0
   17.9242  -19.7994  -16.2303 O   0  0  0  0  0  0  0  0  0  0  0  0
  2  3  2  0
  2  1  1  0
  4  2  1  0
  5  4  1  0
  6  7  1  0
  6  5  1  0
  8 10  1  0
  8  7  1  0
  8  9  1  6
 10 11  2  0
 13 15  1  0
 13 12  1  0
 14 13  2  0
 16 15  1  0
 17 16  1  0
 17 18  1  0
 19 18  1  6
 20 10  1  0
 20 19  1  0
 21 23  1  0
 21 19  1  0
 22 21  2  0
 24 25  1  6
 24 23  1  0
 25 26  1  0
 26 27  1  0
 27 28  1  0
 28 29  1  0
 30 24  1  0
 30 31  1  0
 32 30  2  0
M  END
$$$$
