RRK.pdb
     RDKit          3D

 32 31  0  0  1  0  0  0  0  0999 V2000
   28.1645  -19.1550  -17.7601 N   0  0  0  0  0  0  0  0  0  0  0  0
   28.7520  -20.4189  -17.4825 C   0  0  0  0  0  0  0  0  0  0  0  0
   30.0265  -20.5763  -17.5629 N   0  0  0  0  0  0  0  0  0  0  0  0
   27.9729  -21.5508  -17.1116 N   0  0  0  0  0  0  0  0  0  0  0  0
   26.5489  -21.5084  -16.9715 C   0  0  0  0  0  0  0  0  0  0  0  0
   26.1046  -20.6760  -15.7898 C   0  0  0  0  0  0  0  0  0  0  0  0
   24.5769  -20.6365  -15.6809 C   0  0  0  0  0  0  0  0  0  0  0  0
   24.2622  -21.4149  -14.4062 C   0  0  2  0  0  0  0  0  0  0  0  0
   24.4805  -22.8162  -14.7080 N   0  0  0  0  0  0  0  0  0  0  0  0
   22.8756  -21.1729  -13.9317 C   0  0  0  0  0  0  0  0  0  0  0  0
   21.9524  -21.6830  -14.5991 O   0  0  0  0  0  0  0  0  0  0  0  0
   30.5219  -21.4521  -17.3807 N   0  0  0  0  0  0  0  0  0  0  0  0
   19.1280  -22.8561   -9.3290 C   0  0  0  0  0  0  0  0  0  0  0  0
   19.8136  -22.8073   -8.0903 N   0  0  0  0  0  0  0  0  0  0  0  0
   19.6785  -23.8191   -7.2679 N   0  0  0  0  0  0  0  0  0  0  0  0
   20.6226  -21.7087   -7.7476 C   0  0  0  0  0  0  0  0  0  0  0  0
   20.8199  -20.6094   -8.6135 C   0  0  0  0  0  0  0  0  0  0  0  0
   21.0496  -20.9123  -10.0693 C   0  0  0  0  0  0  0  0  0  0  0  0
   21.2433  -19.6442  -10.8414 C   0  0  2  0  0  0  0  0  0  0  0  0
   21.3804  -19.8571  -12.3442 N   0  0  0  0  0  0  0  0  0  0  0  0
   22.5969  -20.4127  -12.7941 C   0  0  0  0  0  0  0  0  0  0  0  0
   20.8315  -18.7075  -13.0433 O   0  0  0  0  0  0  0  0  0  0  0  0
   21.6630  -17.8672  -13.5084 N   0  0  0  0  0  0  0  0  0  0  0  0
   20.1669  -23.8191   -6.3575 C   0  0  1  0  0  0  0  0  0  0  0  0
   19.4673  -18.4318  -13.2566 C   0  0  0  0  0  0  0  0  0  0  0  0
   18.8584  -17.9829  -14.4645 C   0  0  0  0  0  0  0  0  0  0  0  0
   19.1961  -18.8215  -15.6804 C   0  0  0  0  0  0  0  0  0  0  0  0
   20.3358  -18.2383  -16.4674 C   0  0  0  0  0  0  0  0  0  0  0  0
   20.5677  -19.0952  -17.6861 N   0  0  0  0  0  0  0  0  0  0  0  0
   21.6152  -18.5427  -18.6182 C   0  0  0  0  0  0  0  0  0  0  0  0
   21.8115  -19.4761  -19.7247 O   0  0  0  0  0  0  0  0  0  0  0  0
   17.3721  -17.9525  -14.3882 O   0  0  0  0  0  0  0  0  0  0  0  0
  2  3  2  0
  2  1  1  0
  4  2  1  0
  5  4  1  0
  6  7  1  0
  6  5  1  0
  8 10  1  0
  8  7  1  0
  8  9  1  6
 10 11  2  0
 13 15  1  0
 13 12  1  0
 14 13  2  0
 16 15  1  0
 17 16  1  0
 17 18  1  0
 19 18  1  1
 20 10  1  0
 20 19  1  0
 21 23  1  0
 21 19  1  0
 22 21  2  0
 24 25  1  6
 24 23  1  0
 25 26  1  0
 26 27  1  0
 27 28  1  0
 28 29  1  0
 30 24  1  0
 30 31  1  0
 32 30  2  0
M  END
$$$$
