FNF.pdb
     RDKit          3D

 31 32  0  0  1  0  0  0  0  0999 V2000
   24.3293  -14.5149  -18.3135 N   0  0  0  0  0  0  0  0  0  0  0  0
   24.1765  -13.7708  -17.0685 C   0  0  1  0  0  0  0  0  0  0  0  0
   25.2639  -12.6814  -17.1001 C   0  0  0  0  0  0  0  0  0  0  0  0
   26.6084  -13.3534  -16.9741 C   0  0  0  0  0  0  0  0  0  0  0  0
   27.0993  -13.6382  -15.7294 C   0  0  0  0  0  0  0  0  0  0  0  0
   28.3041  -14.2489  -15.5828 C   0  0  0  0  0  0  0  0  0  0  0  0
   29.0436  -14.5862  -16.7093 C   0  0  0  0  0  0  0  0  0  0  0  0
   28.5507  -14.2998  -17.9620 C   0  0  0  0  0  0  0  0  0  0  0  0
   27.3367  -13.6856  -18.0806 C   0  0  0  0  0  0  0  0  0  0  0  0
   22.8354  -13.1454  -17.0629 C   0  0  0  0  0  0  0  0  0  0  0  0
   22.2271  -12.8605  -18.1504 O   0  0  0  0  0  0  0  0  0  0  0  0
   18.3658  -11.8059  -17.0931 N   0  0  0  0  0  0  0  0  0  0  0  0
   18.5011  -12.8522  -16.1050 C   0  0  0  0  0  0  0  0  0  0  0  0
   17.4996  -13.5823  -15.8542 O   0  0  0  0  0  0  0  0  0  0  0  0
   19.7693  -13.0715  -15.4009 C   0  0  0  0  0  0  0  0  0  0  0  0
   20.8334  -12.1388  -15.8784 C   0  0  2  0  0  0  0  0  0  0  0  0
   22.1353  -12.8225  -15.8715 N   0  0  0  0  0  0  0  0  0  0  0  0
   20.9560  -10.8953  -15.0432 C   0  0  0  0  0  0  0  0  0  0  0  0
   20.7548  -10.8649  -13.8090 O   0  0  0  0  0  0  0  0  0  0  0  0
   21.3244   -9.6279  -15.6173 N   0  0  0  0  0  0  0  0  0  0  0  0
   21.4799   -8.4947  -14.7347 C   0  0  1  0  0  0  0  0  0  0  0  0
   22.8831   -8.6377  -14.1458 C   0  0  0  0  0  0  0  0  0  0  0  0
   23.9277   -8.7696  -15.1683 C   0  0  0  0  0  0  0  0  0  0  0  0
   24.6169   -9.9691  -15.2297 C   0  0  0  0  0  0  0  0  0  0  0  0
   25.5939  -10.0959  -16.1939 C   0  0  0  0  0  0  0  0  0  0  0  0
   25.8923   -9.0777  -17.0776 C   0  0  0  0  0  0  0  0  0  0  0  0
   25.2046   -7.8729  -17.0204 C   0  0  0  0  0  0  0  0  0  0  0  0
   24.2294   -7.7539  -16.0539 C   0  0  0  0  0  0  0  0  0  0  0  0
   21.3424   -7.2489  -15.5028 C   0  0  0  0  0  0  0  0  0  0  0  0
   21.1423   -7.2502  -16.8773 O   0  0  0  0  0  0  0  0  0  0  0  0
   21.4044   -6.1468  -14.9223 O   0  0  0  0  0  0  0  0  0  0  0  0
  2  1  1  6
  3  4  1  0
  3  2  1  0
  4  5  2  0
  5  6  1  0
  7  6  2  0
  8  7  1  0
  9  8  2  0
  9  4  1  0
 10 11  2  0
 10  2  1  0
 13 12  1  0
 14 13  2  0
 15 13  1  0
 16 15  1  1
 16 17  1  0
 17 10  1  0
 18 19  2  0
 18 16  1  0
 20 18  1  0
 21 22  1  6
 21 20  1  0
 23 28  1  0
 23 22  1  0
 24 23  2  0
 25 26  2  0
 25 24  1  0
 26 27  1  0
 27 28  2  0
 29 21  1  0
 30 29  1  0
 31 29  2  0
M  END
$$$$
