FNF.pdb
     RDKit          3D

 31 32  0  0  1  0  0  0  0  0999 V2000
   28.1317  -21.2416   -9.1961 N   0  0  0  0  0  0  0  0  0  0  0  0
   26.7430  -20.8501   -8.9831 C   0  0  1  0  0  0  0  0  0  0  0  0
   26.8010  -19.4861   -8.2716 C   0  0  0  0  0  0  0  0  0  0  0  0
   27.3353  -19.7035   -6.8779 C   0  0  0  0  0  0  0  0  0  0  0  0
   26.6138  -20.4604   -5.9960 C   0  0  0  0  0  0  0  0  0  0  0  0
   27.0711  -20.6803   -4.7356 C   0  0  0  0  0  0  0  0  0  0  0  0
   28.2836  -20.1296   -4.3404 C   0  0  0  0  0  0  0  0  0  0  0  0
   29.0102  -19.3677   -5.2269 C   0  0  0  0  0  0  0  0  0  0  0  0
   28.5271  -19.1628   -6.4877 C   0  0  0  0  0  0  0  0  0  0  0  0
   26.0940  -20.7030  -10.3048 C   0  0  0  0  0  0  0  0  0  0  0  0
   26.2805  -19.6659  -11.0284 O   0  0  0  0  0  0  0  0  0  0  0  0
   26.6771  -21.7802  -13.8501 N   0  0  0  0  0  0  0  0  0  0  0  0
   25.7240  -22.8635  -13.7631 C   0  0  0  0  0  0  0  0  0  0  0  0
   25.9375  -23.9142  -14.4335 O   0  0  0  0  0  0  0  0  0  0  0  0
   24.5295  -22.7571  -12.9180 C   0  0  0  0  0  0  0  0  0  0  0  0
   24.5219  -21.4876  -12.1315 C   0  0  2  0  0  0  0  0  0  0  0  0
   25.2328  -21.6849  -10.8595 N   0  0  0  0  0  0  0  0  0  0  0  0
   23.1395  -20.9870  -11.8195 C   0  0  0  0  0  0  0  0  0  0  0  0
   22.4513  -21.4001  -10.8603 O   0  0  0  0  0  0  0  0  0  0  0  0
   22.5003  -19.9741  -12.6178 N   0  0  0  0  0  0  0  0  0  0  0  0
   21.1740  -19.5412  -12.2425 C   0  0  1  0  0  0  0  0  0  0  0  0
   21.0961  -18.0765  -12.6725 C   0  0  0  0  0  0  0  0  0  0  0  0
   21.1097  -17.9011  -14.1296 C   0  0  0  0  0  0  0  0  0  0  0  0
   19.8893  -17.7697  -14.7709 C   0  0  0  0  0  0  0  0  0  0  0  0
   19.9017  -17.5987  -16.1387 C   0  0  0  0  0  0  0  0  0  0  0  0
   21.0755  -17.5567  -16.8647 C   0  0  0  0  0  0  0  0  0  0  0  0
   22.3018  -17.6882  -16.2268 C   0  0  0  0  0  0  0  0  0  0  0  0
   22.2812  -17.8588  -14.8594 C   0  0  0  0  0  0  0  0  0  0  0  0
   20.1722  -20.3612  -12.9391 C   0  0  0  0  0  0  0  0  0  0  0  0
   20.5149  -21.2147  -13.9798 O   0  0  0  0  0  0  0  0  0  0  0  0
   18.9731  -20.3034  -12.6013 O   0  0  0  0  0  0  0  0  0  0  0  0
  2  1  1  6
  3  4  1  0
  3  2  1  0
  4  5  2  0
  5  6  1  0
  7  6  2  0
  8  7  1  0
  9  8  2  0
  9  4  1  0
 10 11  2  0
 10  2  1  0
 13 12  1  0
 14 13  2  0
 15 13  1  0
 16 15  1  1
 16 17  1  0
 17 10  1  0
 18 19  2  0
 18 16  1  0
 20 18  1  0
 21 22  1  6
 21 20  1  0
 23 28  1  0
 23 22  1  0
 24 23  2  0
 25 26  2  0
 25 24  1  0
 26 27  1  0
 27 28  2  0
 29 21  1  0
 30 29  1  0
 31 29  2  0
M  END
$$$$
