FNF.pdb
     RDKit          3D

 31 32  0  0  1  0  0  0  0  0999 V2000
   27.2295  -19.7502  -18.0044 N   0  0  0  0  0  0  0  0  0  0  0  0
   27.0167  -18.9378  -16.8121 C   0  0  1  0  0  0  0  0  0  0  0  0
   25.9925  -17.8631  -17.2197 C   0  0  0  0  0  0  0  0  0  0  0  0
   26.6693  -16.9004  -18.1633 C   0  0  0  0  0  0  0  0  0  0  0  0
   27.8177  -16.2717  -17.7666 C   0  0  0  0  0  0  0  0  0  0  0  0
   28.4547  -15.4042  -18.5959 C   0  0  0  0  0  0  0  0  0  0  0  0
   27.9326  -15.1541  -19.8586 C   0  0  0  0  0  0  0  0  0  0  0  0
   26.7771  -15.7859  -20.2585 C   0  0  0  0  0  0  0  0  0  0  0  0
   26.1574  -16.6533  -19.4050 C   0  0  0  0  0  0  0  0  0  0  0  0
   26.4469  -19.8034  -15.7558 C   0  0  0  0  0  0  0  0  0  0  0  0
   25.6937  -20.7962  -16.0405 O   0  0  0  0  0  0  0  0  0  0  0  0
   25.6229  -22.2940  -11.2224 N   0  0  0  0  0  0  0  0  0  0  0  0
   26.0632  -20.9454  -10.9449 C   0  0  0  0  0  0  0  0  0  0  0  0
   25.9462  -20.4997   -9.7674 O   0  0  0  0  0  0  0  0  0  0  0  0
   26.6350  -20.1018  -12.0001 C   0  0  0  0  0  0  0  0  0  0  0  0
   26.0053  -20.3750  -13.3264 C   0  0  2  0  0  0  0  0  0  0  0  0
   26.6906  -19.6016  -14.3725 N   0  0  0  0  0  0  0  0  0  0  0  0
   24.5430  -20.0307  -13.3752 C   0  0  0  0  0  0  0  0  0  0  0  0
   24.0949  -18.8769  -13.1948 O   0  0  0  0  0  0  0  0  0  0  0  0
   23.5370  -21.0249  -13.6416 N   0  0  0  0  0  0  0  0  0  0  0  0
   22.1490  -20.6279  -13.5855 C   0  0  1  0  0  0  0  0  0  0  0  0
   21.7194  -20.4726  -15.0441 C   0  0  0  0  0  0  0  0  0  0  0  0
   21.8268  -19.0931  -15.5338 C   0  0  0  0  0  0  0  0  0  0  0  0
   23.0177  -18.7159  -16.1316 C   0  0  0  0  0  0  0  0  0  0  0  0
   23.1169  -17.4223  -16.5973 C   0  0  0  0  0  0  0  0  0  0  0  0
   22.0802  -16.5174  -16.4832 C   0  0  0  0  0  0  0  0  0  0  0  0
   20.8842  -16.8902  -15.8846 C   0  0  0  0  0  0  0  0  0  0  0  0
   20.7926  -18.1850  -15.4217 C   0  0  0  0  0  0  0  0  0  0  0  0
   21.3662  -21.6670  -12.9010 C   0  0  0  0  0  0  0  0  0  0  0  0
   21.8388  -22.9643  -12.7499 O   0  0  0  0  0  0  0  0  0  0  0  0
   20.2415  -21.3967  -12.4349 O   0  0  0  0  0  0  0  0  0  0  0  0
  2  1  1  6
  3  4  1  0
  3  2  1  0
  4  5  2  0
  5  6  1  0
  7  6  2  0
  8  7  1  0
  9  8  2  0
  9  4  1  0
 10 11  2  0
 10  2  1  0
 13 12  1  0
 14 13  2  0
 15 13  1  0
 16 15  1  1
 16 17  1  0
 17 10  1  0
 18 19  2  0
 18 16  1  0
 20 18  1  0
 21 22  1  6
 21 20  1  0
 23 28  1  0
 23 22  1  0
 24 23  2  0
 25 26  2  0
 25 24  1  0
 26 27  1  0
 27 28  2  0
 29 21  1  0
 30 29  1  0
 31 29  2  0
M  END
$$$$
