FNF.pdb
     RDKit          3D

 31 32  0  0  1  0  0  0  0  0999 V2000
   26.4189  -23.9180  -17.3506 N   0  0  0  0  0  0  0  0  0  0  0  0
   25.3012  -23.1095  -16.8773 C   0  0  1  0  0  0  0  0  0  0  0  0
   24.0920  -24.0611  -16.8288 C   0  0  0  0  0  0  0  0  0  0  0  0
   23.4945  -24.1353  -18.2119 C   0  0  0  0  0  0  0  0  0  0  0  0
   22.9213  -23.0174  -18.7532 C   0  0  0  0  0  0  0  0  0  0  0  0
   22.3806  -23.0500  -19.9992 C   0  0  0  0  0  0  0  0  0  0  0  0
   22.4106  -24.2316  -20.7289 C   0  0  0  0  0  0  0  0  0  0  0  0
   22.9868  -25.3570  -20.1851 C   0  0  0  0  0  0  0  0  0  0  0  0
   23.5232  -25.2962  -18.9306 C   0  0  0  0  0  0  0  0  0  0  0  0
   25.6201  -22.6286  -15.5146 C   0  0  0  0  0  0  0  0  0  0  0  0
   25.9816  -23.4339  -14.5901 O   0  0  0  0  0  0  0  0  0  0  0  0
   28.9397  -19.9285  -14.2751 N   0  0  0  0  0  0  0  0  0  0  0  0
   27.7058  -19.3275  -14.7287 C   0  0  0  0  0  0  0  0  0  0  0  0
   27.6929  -18.7414  -15.8490 O   0  0  0  0  0  0  0  0  0  0  0  0
   26.4874  -19.3895  -13.9139 C   0  0  0  0  0  0  0  0  0  0  0  0
   25.9637  -20.7842  -13.8105 C   0  0  2  0  0  0  0  0  0  0  0  0
   25.5519  -21.2620  -15.1388 N   0  0  0  0  0  0  0  0  0  0  0  0
   24.7872  -20.9129  -12.8839 C   0  0  0  0  0  0  0  0  0  0  0  0
   23.7194  -21.4862  -13.1929 O   0  0  0  0  0  0  0  0  0  0  0  0
   24.8100  -20.3770  -11.5483 N   0  0  0  0  0  0  0  0  0  0  0  0
   23.5955  -20.4297  -10.7676 C   0  0  1  0  0  0  0  0  0  0  0  0
   23.8843  -19.5897   -9.5238 C   0  0  0  0  0  0  0  0  0  0  0  0
   24.9998  -20.1082   -8.7232 C   0  0  0  0  0  0  0  0  0  0  0  0
   24.7805  -21.2620   -7.9894 C   0  0  0  0  0  0  0  0  0  0  0  0
   25.8296  -21.7529   -7.2422 C   0  0  0  0  0  0  0  0  0  0  0  0
   27.0637  -21.1342   -7.2106 C   0  0  0  0  0  0  0  0  0  0  0  0
   27.2890  -19.9771   -7.9442 C   0  0  0  0  0  0  0  0  0  0  0  0
   26.2354  -19.4926   -8.6887 C   0  0  0  0  0  0  0  0  0  0  0  0
   22.4826  -19.8708  -11.5487 C   0  0  0  0  0  0  0  0  0  0  0  0
   21.1579  -20.0400  -11.1671 O   0  0  0  0  0  0  0  0  0  0  0  0
   22.7129  -19.2220  -12.5887 O   0  0  0  0  0  0  0  0  0  0  0  0
  2  1  1  1
  3  4  1  0
  3  2  1  0
  4  5  2  0
  5  6  1  0
  7  6  2  0
  8  7  1  0
  9  8  2  0
  9  4  1  0
 10 11  2  0
 10  2  1  0
 13 12  1  0
 14 13  2  0
 15 13  1  0
 16 15  1  6
 16 17  1  0
 17 10  1  0
 18 19  2  0
 18 16  1  0
 20 18  1  0
 21 22  1  1
 21 20  1  0
 23 28  1  0
 23 22  1  0
 24 23  2  0
 25 26  2  0
 25 24  1  0
 26 27  1  0
 27 28  2  0
 29 21  1  0
 30 29  1  0
 31 29  2  0
M  END
$$$$
