FNF.pdb
     RDKit          3D

 31 32  0  0  1  0  0  0  0  0999 V2000
   27.9551  -17.4888  -16.7399 N   0  0  0  0  0  0  0  0  0  0  0  0
   26.8397  -17.7607  -15.8406 C   0  0  1  0  0  0  0  0  0  0  0  0
   25.7382  -16.7586  -16.2309 C   0  0  0  0  0  0  0  0  0  0  0  0
   26.2595  -15.3648  -15.9839 C   0  0  0  0  0  0  0  0  0  0  0  0
   26.7153  -14.6247  -17.0402 C   0  0  0  0  0  0  0  0  0  0  0  0
   27.1849  -13.3639  -16.8515 C   0  0  0  0  0  0  0  0  0  0  0  0
   27.2021  -12.8228  -15.5722 C   0  0  0  0  0  0  0  0  0  0  0  0
   26.7440  -13.5668  -14.5088 C   0  0  0  0  0  0  0  0  0  0  0  0
   26.2771  -14.8315  -14.7268 C   0  0  0  0  0  0  0  0  0  0  0  0
   26.3733  -19.1438  -16.0841 C   0  0  0  0  0  0  0  0  0  0  0  0
   26.5149  -19.7052  -17.2237 O   0  0  0  0  0  0  0  0  0  0  0  0
   27.2589  -22.9001  -16.8538 N   0  0  0  0  0  0  0  0  0  0  0  0
   28.1078  -22.3577  -15.8172 C   0  0  0  0  0  0  0  0  0  0  0  0
   29.3436  -22.6241  -15.8445 O   0  0  0  0  0  0  0  0  0  0  0  0
   27.5579  -21.5145  -14.7501 C   0  0  0  0  0  0  0  0  0  0  0  0
   26.0788  -21.3548  -14.8805 C   0  0  2  0  0  0  0  0  0  0  0  0
   25.7467  -19.9375  -15.0886 N   0  0  0  0  0  0  0  0  0  0  0  0
   25.3177  -21.8399  -13.6786 C   0  0  0  0  0  0  0  0  0  0  0  0
   24.2049  -22.4071  -13.7437 O   0  0  0  0  0  0  0  0  0  0  0  0
   25.8292  -21.6848  -12.3422 N   0  0  0  0  0  0  0  0  0  0  0  0
   24.9360  -21.9300  -11.2335 C   0  0  1  0  0  0  0  0  0  0  0  0
   25.8444  -22.3253  -10.0695 C   0  0  0  0  0  0  0  0  0  0  0  0
   26.7362  -21.2419   -9.6395 C   0  0  0  0  0  0  0  0  0  0  0  0
   28.0056  -21.1993  -10.1913 C   0  0  0  0  0  0  0  0  0  0  0  0
   28.8416  -20.1784   -9.7924 C   0  0  0  0  0  0  0  0  0  0  0  0
   28.4500  -19.2214   -8.8773 C   0  0  0  0  0  0  0  0  0  0  0  0
   27.1785  -19.2596   -8.3207 C   0  0  0  0  0  0  0  0  0  0  0  0
   26.3487  -20.2831   -8.7245 C   0  0  0  0  0  0  0  0  0  0  0  0
   24.1761  -20.7080  -10.9329 C   0  0  0  0  0  0  0  0  0  0  0  0
   22.9968  -20.7366  -10.1997 O   0  0  0  0  0  0  0  0  0  0  0  0
   24.5851  -19.6021  -11.3392 O   0  0  0  0  0  0  0  0  0  0  0  0
  2  1  1  6
  3  4  1  0
  3  2  1  0
  4  5  2  0
  5  6  1  0
  7  6  2  0
  8  7  1  0
  9  8  2  0
  9  4  1  0
 10 11  2  0
 10  2  1  0
 13 12  1  0
 14 13  2  0
 15 13  1  0
 16 15  1  1
 16 17  1  0
 17 10  1  0
 18 19  2  0
 18 16  1  0
 20 18  1  0
 21 22  1  1
 21 20  1  0
 23 28  1  0
 23 22  1  0
 24 23  2  0
 25 26  2  0
 25 24  1  0
 26 27  1  0
 27 28  2  0
 29 21  1  0
 30 29  1  0
 31 29  2  0
M  END
$$$$
