IHG.pdb
     RDKit          3D

 23 23  0  0  1  0  0  0  0  0999 V2000
   28.5873  -13.4463  -15.4568 C   0  0  0  0  0  0  0  0  0  0  0  0
   27.1272  -13.4283  -15.7563 C   0  0  0  0  0  0  0  0  0  0  0  0
   26.6128  -12.0756  -16.1916 C   0  0  2  0  0  0  0  0  0  0  0  0
   26.6900  -11.0557  -15.0847 C   0  0  0  0  0  0  0  0  0  0  0  0
   25.1830  -12.2255  -16.5940 C   0  0  2  0  0  0  0  0  0  0  0  0
   24.9320  -13.3563  -17.4368 N   0  0  0  0  0  0  0  0  0  0  0  0
   24.6267  -10.9819  -17.1970 C   0  0  0  0  0  0  0  0  0  0  0  0
   24.7412  -10.7238  -18.4247 O   0  0  0  0  0  0  0  0  0  0  0  0
   23.9555  -10.0648  -16.3911 N   0  0  0  0  0  0  0  0  0  0  0  0
   23.3222   -8.8103  -16.9698 C   0  0  1  0  0  0  0  0  0  0  0  0
   22.1414   -9.3947  -17.6840 C   0  0  0  0  0  0  0  0  0  0  0  0
   22.2915   -9.6810  -19.0921 C   0  0  0  0  0  0  0  0  0  0  0  0
   23.3209   -9.5635  -19.9733 C   0  0  0  0  0  0  0  0  0  0  0  0
   22.9876  -10.0470  -21.1950 N   0  0  0  0  0  0  0  0  0  0  0  0
   21.7368  -10.4730  -21.0772 C   0  0  0  0  0  0  0  0  0  0  0  0
   21.2899  -10.2700  -19.8339 N   0  0  0  0  0  0  0  0  0  0  0  0
   22.9071   -8.1126  -15.7266 C   0  0  0  0  0  0  0  0  0  0  0  0
   22.5760   -8.8603  -14.7307 O   0  0  0  0  0  0  0  0  0  0  0  0
   22.8345   -6.7263  -15.5014 N   0  0  0  0  0  0  0  0  0  0  0  0
   22.3835   -6.1994  -14.1970 C   0  0  0  0  0  0  0  0  0  0  0  0
   22.3449   -4.7403  -14.1958 C   0  0  0  0  0  0  0  0  0  0  0  0
   21.8422   -4.0547  -13.1095 O   0  0  0  0  0  0  0  0  0  0  0  0
   22.7664   -4.0897  -15.1781 O   0  0  0  0  0  0  0  0  0  0  0  0
  1  2  1  0
  2  3  1  0
  3  4  1  1
  5  7  1  0
  5  6  1  6
  5  3  1  0
  7  8  2  0
  9 10  1  0
  9  7  1  0
 10 17  1  0
 10 11  1  6
 12 11  1  0
 12 16  1  0
 13 14  1  0
 13 12  2  0
 14 15  1  0
 15 16  2  0
 17 18  2  0
 19 20  1  0
 19 17  1  0
 21 20  1  0
 22 21  1  0
 23 21  2  0
M  END
$$$$
