IHG.pdb
     RDKit          3D

 23 23  0  0  1  0  0  0  0  0999 V2000
   27.6735  -20.4704   -7.0124 C   0  0  0  0  0  0  0  0  0  0  0  0
   26.3971  -20.7155   -7.7422 C   0  0  0  0  0  0  0  0  0  0  0  0
   26.3958  -20.1876   -9.1583 C   0  0  2  0  0  0  0  0  0  0  0  0
   26.7039  -18.7134   -9.2149 C   0  0  0  0  0  0  0  0  0  0  0  0
   25.0380  -20.4069   -9.7388 C   0  0  2  0  0  0  0  0  0  0  0  0
   24.5371  -21.7369   -9.5592 N   0  0  0  0  0  0  0  0  0  0  0  0
   24.9564  -19.9991  -11.1694 C   0  0  0  0  0  0  0  0  0  0  0  0
   25.2450  -18.8338  -11.5510 O   0  0  0  0  0  0  0  0  0  0  0  0
   24.5498  -20.9243  -12.1284 N   0  0  0  0  0  0  0  0  0  0  0  0
   24.4914  -20.5674  -13.6045 C   0  0  1  0  0  0  0  0  0  0  0  0
   25.3926  -21.6156  -14.1834 C   0  0  0  0  0  0  0  0  0  0  0  0
   26.8142  -21.3598  -14.1538 C   0  0  0  0  0  0  0  0  0  0  0  0
   27.5749  -20.3125  -13.7359 C   0  0  0  0  0  0  0  0  0  0  0  0
   28.8983  -20.5846  -13.8439 N   0  0  0  0  0  0  0  0  0  0  0  0
   28.9672  -21.8157  -14.3333 C   0  0  0  0  0  0  0  0  0  0  0  0
   27.7405  -22.3088  -14.5300 N   0  0  0  0  0  0  0  0  0  0  0  0
   23.0664  -20.8595  -13.9025 C   0  0  0  0  0  0  0  0  0  0  0  0
   22.7353  -20.8974  -15.1472 O   0  0  0  0  0  0  0  0  0  0  0  0
   22.0287  -21.1049  -12.9856 N   0  0  0  0  0  0  0  0  0  0  0  0
   20.6490  -21.3413  -13.4578 C   0  0  0  0  0  0  0  0  0  0  0  0
   19.8141  -20.1574  -13.2794 C   0  0  0  0  0  0  0  0  0  0  0  0
   18.8085  -20.1463  -12.3353 O   0  0  0  0  0  0  0  0  0  0  0  0
   19.9972  -19.1359  -13.9787 O   0  0  0  0  0  0  0  0  0  0  0  0
  1  2  1  0
  2  3  1  0
  3  4  1  1
  5  7  1  0
  5  6  1  6
  5  3  1  0
  7  8  2  0
  9 10  1  0
  9  7  1  0
 10 17  1  0
 10 11  1  6
 12 11  1  0
 12 16  1  0
 13 14  1  0
 13 12  2  0
 14 15  1  0
 15 16  2  0
 17 18  2  0
 19 20  1  0
 19 17  1  0
 21 20  1  0
 22 21  1  0
 23 21  2  0
M  END
$$$$
