IHG.pdb
     RDKit          3D

 23 23  0  0  1  0  0  0  0  0999 V2000
   15.0333   -7.0338  -18.1045 C   0  0  0  0  0  0  0  0  0  0  0  0
   16.3268   -7.7146  -17.8126 C   0  0  0  0  0  0  0  0  0  0  0  0
   17.0984   -7.0905  -16.6729 C   0  0  2  0  0  0  0  0  0  0  0  0
   17.5206   -5.6767  -16.9800 C   0  0  0  0  0  0  0  0  0  0  0  0
   18.3256   -7.9067  -16.4354 C   0  0  2  0  0  0  0  0  0  0  0  0
   18.0683   -9.3046  -16.2569 N   0  0  0  0  0  0  0  0  0  0  0  0
   19.1576   -7.3749  -15.3199 C   0  0  0  0  0  0  0  0  0  0  0  0
   18.8557   -7.5621  -14.1113 O   0  0  0  0  0  0  0  0  0  0  0  0
   20.3095   -6.6450  -15.6055 N   0  0  0  0  0  0  0  0  0  0  0  0
   21.2844   -6.2367  -14.5135 C   0  0  1  0  0  0  0  0  0  0  0  0
   22.5136   -6.9798  -14.9412 C   0  0  0  0  0  0  0  0  0  0  0  0
   22.5309   -8.4098  -14.7351 C   0  0  0  0  0  0  0  0  0  0  0  0
   21.6345   -9.3004  -14.2317 C   0  0  0  0  0  0  0  0  0  0  0  0
   22.0934  -10.5726  -14.3212 N   0  0  0  0  0  0  0  0  0  0  0  0
   23.2892  -10.4778  -14.8879 C   0  0  0  0  0  0  0  0  0  0  0  0
   23.5819   -9.2000  -15.1488 N   0  0  0  0  0  0  0  0  0  0  0  0
   21.4125   -4.7831  -14.7880 C   0  0  0  0  0  0  0  0  0  0  0  0
   21.4661   -4.4345  -16.0274 O   0  0  0  0  0  0  0  0  0  0  0  0
   21.4792   -3.7339  -13.8539 N   0  0  0  0  0  0  0  0  0  0  0  0
   21.6107   -2.3333  -14.3051 C   0  0  0  0  0  0  0  0  0  0  0  0
   20.3053   -1.7023  -14.4731 C   0  0  0  0  0  0  0  0  0  0  0  0
   20.2111   -0.3845  -14.8697 O   0  0  0  0  0  0  0  0  0  0  0  0
   19.2533   -2.3457  -14.2604 O   0  0  0  0  0  0  0  0  0  0  0  0
  1  2  1  0
  2  3  1  0
  3  4  1  6
  5  7  1  0
  5  6  1  1
  5  3  1  0
  7  8  2  0
  9 10  1  0
  9  7  1  0
 10 17  1  0
 10 11  1  6
 12 11  1  0
 12 16  1  0
 13 14  1  0
 13 12  2  0
 14 15  1  0
 15 16  2  0
 17 18  2  0
 19 20  1  0
 19 17  1  0
 21 20  1  0
 22 21  1  0
 23 21  2  0
M  END
$$$$
