IHG.pdb
     RDKit          3D

 23 23  0  0  1  0  0  0  0  0999 V2000
   24.5663  -15.9022  -17.2589 C   0  0  0  0  0  0  0  0  0  0  0  0
   24.5455  -14.7693  -16.2903 C   0  0  0  0  0  0  0  0  0  0  0  0
   23.9789  -13.4906  -16.8628 C   0  0  2  0  0  0  0  0  0  0  0  0
   24.7678  -13.0016  -18.0501 C   0  0  0  0  0  0  0  0  0  0  0  0
   24.0261  -12.4411  -15.8021 C   0  0  2  0  0  0  0  0  0  0  0  0
   23.5224  -12.8744  -14.5330 N   0  0  0  0  0  0  0  0  0  0  0  0
   23.3717  -11.1716  -16.2261 C   0  0  0  0  0  0  0  0  0  0  0  0
   23.7262  -10.5491  -17.2623 O   0  0  0  0  0  0  0  0  0  0  0  0
   22.3329  -10.6426  -15.4631 N   0  0  0  0  0  0  0  0  0  0  0  0
   21.4941   -9.4767  -15.9598 C   0  0  1  0  0  0  0  0  0  0  0  0
   20.1173  -10.0616  -15.8691 C   0  0  0  0  0  0  0  0  0  0  0  0
   19.5673  -10.6550  -17.0661 C   0  0  0  0  0  0  0  0  0  0  0  0
   20.0425  -10.8496  -18.3256 C   0  0  0  0  0  0  0  0  0  0  0  0
   19.1593  -11.5374  -19.0898 N   0  0  0  0  0  0  0  0  0  0  0  0
   18.1206  -11.7773  -18.3001 C   0  0  0  0  0  0  0  0  0  0  0  0
   18.3309  -11.2643  -17.0839 N   0  0  0  0  0  0  0  0  0  0  0  0
   21.7300   -8.4871  -14.8782 C   0  0  0  0  0  0  0  0  0  0  0  0
   21.8043   -8.9527  -13.6790 O   0  0  0  0  0  0  0  0  0  0  0  0
   21.8867   -7.0953  -15.0050 N   0  0  0  0  0  0  0  0  0  0  0  0
   22.1453   -6.2569  -13.8164 C   0  0  0  0  0  0  0  0  0  0  0  0
   22.2947   -4.8507  -14.1780 C   0  0  0  0  0  0  0  0  0  0  0  0
   22.4057   -3.8847  -13.1995 O   0  0  0  0  0  0  0  0  0  0  0  0
   22.3244   -4.5000  -15.3788 O   0  0  0  0  0  0  0  0  0  0  0  0
  1  2  1  0
  2  3  1  0
  3  4  1  6
  5  7  1  0
  5  6  1  1
  5  3  1  0
  7  8  2  0
  9 10  1  0
  9  7  1  0
 10 17  1  0
 10 11  1  1
 12 11  1  0
 12 16  1  0
 13 14  1  0
 13 12  2  0
 14 15  1  0
 15 16  2  0
 17 18  2  0
 19 20  1  0
 19 17  1  0
 21 20  1  0
 22 21  1  0
 23 21  2  0
M  END
$$$$
