IHG.pdb
     RDKit          3D

 23 23  0  0  1  0  0  0  0  0999 V2000
   28.1016  -20.1856   -6.5373 C   0  0  0  0  0  0  0  0  0  0  0  0
   28.1071  -20.8762   -7.8583 C   0  0  0  0  0  0  0  0  0  0  0  0
   27.0675  -20.3524   -8.8221 C   0  0  2  0  0  0  0  0  0  0  0  0
   25.6637  -20.6177   -8.3424 C   0  0  0  0  0  0  0  0  0  0  0  0
   27.2547  -21.0416  -10.1331 C   0  0  2  0  0  0  0  0  0  0  0  0
   28.6246  -21.1697  -10.5319 N   0  0  0  0  0  0  0  0  0  0  0  0
   26.4417  -20.4290  -11.2209 C   0  0  0  0  0  0  0  0  0  0  0  0
   26.7148  -19.2988  -11.7057 O   0  0  0  0  0  0  0  0  0  0  0  0
   25.3408  -21.1150  -11.7294 N   0  0  0  0  0  0  0  0  0  0  0  0
   24.5124  -20.5544  -12.8735 C   0  0  1  0  0  0  0  0  0  0  0  0
   24.8614  -21.5141  -13.9704 C   0  0  0  0  0  0  0  0  0  0  0  0
   26.0525  -21.2385  -14.7403 C   0  0  0  0  0  0  0  0  0  0  0  0
   26.5321  -20.1331  -15.3713 C   0  0  0  0  0  0  0  0  0  0  0  0
   27.7589  -20.3566  -15.9026 N   0  0  0  0  0  0  0  0  0  0  0  0
   28.0512  -21.6148  -15.6000 C   0  0  0  0  0  0  0  0  0  0  0  0
   27.0538  -22.1714  -14.9057 N   0  0  0  0  0  0  0  0  0  0  0  0
   23.1390  -20.7970  -12.3640 C   0  0  0  0  0  0  0  0  0  0  0  0
   22.9708  -21.8523  -11.6439 O   0  0  0  0  0  0  0  0  0  0  0  0
   21.9931  -20.0081  -12.5701 N   0  0  0  0  0  0  0  0  0  0  0  0
   20.7168  -20.3495  -11.9091 C   0  0  0  0  0  0  0  0  0  0  0  0
   19.9087  -21.2393  -12.7372 C   0  0  0  0  0  0  0  0  0  0  0  0
   18.6332  -21.5915  -12.3472 O   0  0  0  0  0  0  0  0  0  0  0  0
   20.3594  -21.6957  -13.8116 O   0  0  0  0  0  0  0  0  0  0  0  0
  1  2  1  0
  2  3  1  0
  3  4  1  1
  5  7  1  0
  5  6  1  6
  5  3  1  0
  7  8  2  0
  9 10  1  0
  9  7  1  0
 10 17  1  0
 10 11  1  6
 12 11  1  0
 12 16  1  0
 13 14  1  0
 13 12  2  0
 14 15  1  0
 15 16  2  0
 17 18  2  0
 19 20  1  0
 19 17  1  0
 21 20  1  0
 22 21  1  0
 23 21  2  0
M  END
$$$$
