IHG.pdb
     RDKit          3D

 23 23  0  0  1  0  0  0  0  0999 V2000
   28.2194  -19.0579  -18.2815 C   0  0  0  0  0  0  0  0  0  0  0  0
   28.5801  -19.6530  -16.9633 C   0  0  0  0  0  0  0  0  0  0  0  0
   27.4047  -20.2489  -16.2235 C   0  0  2  0  0  0  0  0  0  0  0  0
   26.3632  -19.2136  -15.8846 C   0  0  0  0  0  0  0  0  0  0  0  0
   27.9062  -20.8458  -14.9504 C   0  0  2  0  0  0  0  0  0  0  0  0
   28.9196  -21.8413  -15.1349 N   0  0  0  0  0  0  0  0  0  0  0  0
   26.8053  -21.3640  -14.0907 C   0  0  0  0  0  0  0  0  0  0  0  0
   26.3867  -22.5488  -14.1806 O   0  0  0  0  0  0  0  0  0  0  0  0
   26.2091  -20.5244  -13.1523 N   0  0  0  0  0  0  0  0  0  0  0  0
   25.2183  -21.0518  -12.1278 C   0  0  1  0  0  0  0  0  0  0  0  0
   25.4979  -20.1413  -10.9709 C   0  0  0  0  0  0  0  0  0  0  0  0
   26.6941  -20.3934  -10.2009 C   0  0  0  0  0  0  0  0  0  0  0  0
   27.7390  -21.2535  -10.3373 C   0  0  0  0  0  0  0  0  0  0  0  0
   28.6773  -21.0520   -9.3801 N   0  0  0  0  0  0  0  0  0  0  0  0
   28.2159  -20.0544   -8.6373 C   0  0  0  0  0  0  0  0  0  0  0  0
   27.0334  -19.6367   -9.0997 N   0  0  0  0  0  0  0  0  0  0  0  0
   23.9324  -20.7064  -12.7850 C   0  0  0  0  0  0  0  0  0  0  0  0
   23.8241  -19.5064  -13.2417 O   0  0  0  0  0  0  0  0  0  0  0  0
   22.8127  -21.5363  -12.9738 N   0  0  0  0  0  0  0  0  0  0  0  0
   21.6373  -21.0526  -13.7268 C   0  0  0  0  0  0  0  0  0  0  0  0
   20.5824  -20.5910  -12.8298 C   0  0  0  0  0  0  0  0  0  0  0  0
   19.2572  -20.8384  -13.1226 O   0  0  0  0  0  0  0  0  0  0  0  0
   20.8629  -19.9650  -11.7833 O   0  0  0  0  0  0  0  0  0  0  0  0
  1  2  1  0
  2  3  1  0
  3  4  1  1
  5  7  1  0
  5  6  1  6
  5  3  1  0
  7  8  2  0
  9 10  1  0
  9  7  1  0
 10 17  1  0
 10 11  1  1
 12 11  1  0
 12 16  1  0
 13 14  1  0
 13 12  2  0
 14 15  1  0
 15 16  2  0
 17 18  2  0
 19 20  1  0
 19 17  1  0
 21 20  1  0
 22 21  1  0
 23 21  2  0
M  END
$$$$
