TFH.pdb
     RDKit          3D

 29 30  0  0  1  0  0  0  0  0999 V2000
    8.4262  -18.9863   21.1517 C   0  0  0  0  0  0  0  0  0  0  0  0
    8.9909  -18.1627   20.0061 C   0  0  1  0  0  0  0  0  0  0  0  0
    8.7257  -18.7852   18.7786 O   0  0  0  0  0  0  0  0  0  0  0  0
    8.2532  -16.8429   20.0186 C   0  0  2  0  0  0  0  0  0  0  0  0
    8.5742  -16.0651   18.8434 N   0  0  0  0  0  0  0  0  0  0  0  0
    8.5441  -16.0411   21.2177 C   0  0  0  0  0  0  0  0  0  0  0  0
    9.6635  -15.4861   21.3285 O   0  0  0  0  0  0  0  0  0  0  0  0
    7.6252  -15.8480   22.2810 N   0  0  0  0  0  0  0  0  0  0  0  0
    7.9403  -15.0977   23.4880 C   0  0  1  0  0  0  0  0  0  0  0  0
    6.6974  -14.4369   23.9779 C   0  0  0  0  0  0  0  0  0  0  0  0
    6.8141  -13.7203   25.2434 C   0  0  0  0  0  0  0  0  0  0  0  0
    6.4527  -14.2986   26.4213 C   0  0  0  0  0  0  0  0  0  0  0  0
    6.5785  -13.5878   27.5929 C   0  0  0  0  0  0  0  0  0  0  0  0
    7.0611  -12.2961   27.6325 C   0  0  0  0  0  0  0  0  0  0  0  0
    7.4147  -11.7520   26.4121 C   0  0  0  0  0  0  0  0  0  0  0  0
    7.2998  -12.4372   25.2302 C   0  0  0  0  0  0  0  0  0  0  0  0
    8.6518  -15.9110   24.4777 C   0  0  0  0  0  0  0  0  0  0  0  0
    8.1028  -16.9562   24.8997 O   0  0  0  0  0  0  0  0  0  0  0  0
    9.9425  -15.5696   24.9852 N   0  0  0  0  0  0  0  0  0  0  0  0
   10.6857  -16.4488   25.8861 C   0  0  1  0  0  0  0  0  0  0  0  0
   12.1368  -16.2755   25.5322 C   0  0  0  0  0  0  0  0  0  0  0  0
   12.4865  -16.8997   24.2313 C   0  0  0  0  0  0  0  0  0  0  0  0
   11.7072  -17.7240   23.4537 C   0  0  0  0  0  0  0  0  0  0  0  0
   12.4460  -18.0501   22.3614 N   0  0  0  0  0  0  0  0  0  0  0  0
   13.6319  -17.4315   22.4948 C   0  0  0  0  0  0  0  0  0  0  0  0
   13.6772  -16.7241   23.6295 N   0  0  0  0  0  0  0  0  0  0  0  0
   10.4328  -16.0579   27.2804 C   0  0  0  0  0  0  0  0  0  0  0  0
   10.9369  -16.6614   28.2557 O   0  0  0  0  0  0  0  0  0  0  0  0
    9.6015  -14.9745   27.5572 O   0  0  0  0  0  0  0  0  0  0  0  0
  2  1  1  1
  2  3  1  0
  4  5  1  6
  4  2  1  0
  6  4  1  0
  7  6  2  0
  8  6  1  0
  9  8  1  0
  9 10  1  1
 10 11  1  0
 11 16  1  0
 12 11  2  0
 12 13  1  0
 13 14  2  0
 14 15  1  0
 16 15  2  0
 17 18  2  0
 17  9  1  0
 19 17  1  0
 20 19  1  0
 21 22  1  0
 20 21  1  6
 22 23  2  0
 24 23  1  0
 25 24  1  0
 26 25  2  0
 26 22  1  0
 27 29  1  0
 27 20  1  0
 28 27  2  0
M  END
$$$$
