TFH.pdb
     RDKit          3D

 29 30  0  0  1  0  0  0  0  0999 V2000
    7.4533  -18.2204   20.8272 C   0  0  0  0  0  0  0  0  0  0  0  0
    8.7541  -17.9886   20.0765 C   0  0  1  0  0  0  0  0  0  0  0  0
    8.6529  -18.4671   18.7628 O   0  0  0  0  0  0  0  0  0  0  0  0
    8.9497  -16.4910   20.0042 C   0  0  2  0  0  0  0  0  0  0  0  0
   10.0840  -16.1620   19.1709 N   0  0  0  0  0  0  0  0  0  0  0  0
    9.1349  -15.8779   21.3289 C   0  0  0  0  0  0  0  0  0  0  0  0
   10.2120  -16.0610   21.9452 O   0  0  0  0  0  0  0  0  0  0  0  0
    8.1572  -15.0759   21.9718 N   0  0  0  0  0  0  0  0  0  0  0  0
    8.3017  -14.5674   23.3282 C   0  0  1  0  0  0  0  0  0  0  0  0
    7.1850  -13.6196   23.6045 C   0  0  0  0  0  0  0  0  0  0  0  0
    7.0838  -13.1385   24.9781 C   0  0  0  0  0  0  0  0  0  0  0  0
    6.1700  -13.6552   25.8445 C   0  0  0  0  0  0  0  0  0  0  0  0
    6.1074  -13.1731   27.1319 C   0  0  0  0  0  0  0  0  0  0  0  0
    6.9395  -12.1751   27.5951 C   0  0  0  0  0  0  0  0  0  0  0  0
    7.8501  -11.6825   26.6793 C   0  0  0  0  0  0  0  0  0  0  0  0
    7.9342  -12.1442   25.3910 C   0  0  0  0  0  0  0  0  0  0  0  0
    8.4708  -15.6425   24.3093 C   0  0  0  0  0  0  0  0  0  0  0  0
    7.6025  -16.5453   24.3639 O   0  0  0  0  0  0  0  0  0  0  0  0
    9.5791  -15.7113   25.2077 N   0  0  0  0  0  0  0  0  0  0  0  0
    9.7669  -16.8273   26.1330 C   0  0  1  0  0  0  0  0  0  0  0  0
   10.7360  -17.7628   25.4645 C   0  0  0  0  0  0  0  0  0  0  0  0
   11.0740  -18.9356   26.3098 C   0  0  0  0  0  0  0  0  0  0  0  0
   10.3951  -19.4083   27.4085 C   0  0  0  0  0  0  0  0  0  0  0  0
   11.0768  -20.4947   27.8559 N   0  0  0  0  0  0  0  0  0  0  0  0
   12.1318  -20.6561   27.0387 C   0  0  0  0  0  0  0  0  0  0  0  0
   12.1485  -19.7146   26.0881 N   0  0  0  0  0  0  0  0  0  0  0  0
   10.3076  -16.3297   27.4063 C   0  0  0  0  0  0  0  0  0  0  0  0
   10.2751  -16.9996   28.4644 O   0  0  0  0  0  0  0  0  0  0  0  0
   10.8857  -15.0635   27.4667 O   0  0  0  0  0  0  0  0  0  0  0  0
  2  1  1  1
  2  3  1  0
  4  5  1  6
  4  2  1  0
  6  4  1  0
  7  6  2  0
  8  6  1  0
  9  8  1  0
  9 10  1  1
 10 11  1  0
 11 16  1  0
 12 11  2  0
 12 13  1  0
 13 14  2  0
 14 15  1  0
 16 15  2  0
 17 18  2  0
 17  9  1  0
 19 17  1  0
 20 19  1  0
 21 22  1  0
 20 21  1  6
 22 23  2  0
 24 23  1  0
 25 24  1  0
 26 25  2  0
 26 22  1  0
 27 29  1  0
 27 20  1  0
 28 27  2  0
M  END
$$$$
