TFH.pdb
     RDKit          3D

 29 30  0  0  1  0  0  0  0  0999 V2000
    7.8258  -15.9695   19.2390 C   0  0  0  0  0  0  0  0  0  0  0  0
    8.3807  -14.5945   18.9058 C   0  0  1  0  0  0  0  0  0  0  0  0
    7.9952  -14.2110   17.6139 O   0  0  0  0  0  0  0  0  0  0  0  0
    7.7471  -13.6260   19.8788 C   0  0  2  0  0  0  0  0  0  0  0  0
    7.9525  -12.2609   19.4503 N   0  0  0  0  0  0  0  0  0  0  0  0
    8.2607  -13.7801   21.2491 C   0  0  0  0  0  0  0  0  0  0  0  0
    9.3849  -13.3059   21.5405 O   0  0  0  0  0  0  0  0  0  0  0  0
    7.5564  -14.4428   22.2869 N   0  0  0  0  0  0  0  0  0  0  0  0
    8.1331  -14.7296   23.5924 C   0  0  1  0  0  0  0  0  0  0  0  0
    7.0386  -14.7513   24.6039 C   0  0  0  0  0  0  0  0  0  0  0  0
    6.9862  -13.6085   25.5094 C   0  0  0  0  0  0  0  0  0  0  0  0
    8.1104  -13.1234   26.1040 C   0  0  0  0  0  0  0  0  0  0  0  0
    8.0174  -12.0435   26.9519 C   0  0  0  0  0  0  0  0  0  0  0  0
    6.8204  -11.4180   27.2333 C   0  0  0  0  0  0  0  0  0  0  0  0
    5.7077  -11.9462   26.6062 C   0  0  0  0  0  0  0  0  0  0  0  0
    5.7715  -13.0209   25.7572 C   0  0  0  0  0  0  0  0  0  0  0  0
    8.9929  -15.9160   23.5712 C   0  0  0  0  0  0  0  0  0  0  0  0
    8.4884  -17.0151   23.2404 O   0  0  0  0  0  0  0  0  0  0  0  0
   10.3800  -15.8801   23.9098 N   0  0  0  0  0  0  0  0  0  0  0  0
   11.2135  -17.0810   23.9191 C   0  0  1  0  0  0  0  0  0  0  0  0
   12.5660  -16.6519   23.4214 C   0  0  0  0  0  0  0  0  0  0  0  0
   12.5448  -16.2341   21.9969 C   0  0  0  0  0  0  0  0  0  0  0  0
   11.7026  -16.6710   21.0012 C   0  0  0  0  0  0  0  0  0  0  0  0
   12.0595  -16.0147   19.8667 N   0  0  0  0  0  0  0  0  0  0  0  0
   13.0877  -15.2110   20.1889 C   0  0  0  0  0  0  0  0  0  0  0  0
   13.3995  -15.3299   21.4846 N   0  0  0  0  0  0  0  0  0  0  0  0
   11.2996  -17.6139   25.2865 C   0  0  0  0  0  0  0  0  0  0  0  0
   11.9934  -18.6144   25.5816 O   0  0  0  0  0  0  0  0  0  0  0  0
   10.5901  -16.9995   26.3163 O   0  0  0  0  0  0  0  0  0  0  0  0
  2  1  1  1
  2  3  1  0
  4  5  1  6
  4  2  1  0
  6  4  1  0
  7  6  2  0
  8  6  1  0
  9  8  1  0
  9 10  1  1
 10 11  1  0
 11 16  1  0
 12 11  2  0
 12 13  1  0
 13 14  2  0
 14 15  1  0
 16 15  2  0
 17 18  2  0
 17  9  1  0
 19 17  1  0
 20 19  1  0
 21 22  1  0
 20 21  1  1
 22 23  2  0
 24 23  1  0
 25 24  1  0
 26 25  2  0
 26 22  1  0
 27 29  1  0
 27 20  1  0
 28 27  2  0
M  END
$$$$
