TFH.pdb
     RDKit          3D

 29 30  0  0  1  0  0  0  0  0999 V2000
    9.3965  -18.9506   19.3753 C   0  0  0  0  0  0  0  0  0  0  0  0
    9.3980  -18.3514   20.7718 C   0  0  1  0  0  0  0  0  0  0  0  0
   10.3892  -18.9515   21.5607 O   0  0  0  0  0  0  0  0  0  0  0  0
    9.7598  -16.8917   20.6148 C   0  0  2  0  0  0  0  0  0  0  0  0
   11.0743  -16.7494   20.0311 N   0  0  0  0  0  0  0  0  0  0  0  0
    9.7195  -16.1565   21.8888 C   0  0  0  0  0  0  0  0  0  0  0  0
   10.7928  -15.9061   22.4876 O   0  0  0  0  0  0  0  0  0  0  0  0
    8.5233  -15.7010   22.5005 N   0  0  0  0  0  0  0  0  0  0  0  0
    8.4974  -14.9099   23.7223 C   0  0  1  0  0  0  0  0  0  0  0  0
    7.2372  -14.1146   23.7498 C   0  0  0  0  0  0  0  0  0  0  0  0
    7.0747  -13.2190   24.8900 C   0  0  0  0  0  0  0  0  0  0  0  0
    6.1566  -13.4699   25.8630 C   0  0  0  0  0  0  0  0  0  0  0  0
    6.0351  -12.5995   26.9220 C   0  0  0  0  0  0  0  0  0  0  0  0
    6.8115  -11.4661   27.0476 C   0  0  0  0  0  0  0  0  0  0  0  0
    7.7287  -11.2541   26.0357 C   0  0  0  0  0  0  0  0  0  0  0  0
    7.8708  -12.1045   24.9696 C   0  0  0  0  0  0  0  0  0  0  0  0
    8.7545  -15.7215   24.9149 C   0  0  0  0  0  0  0  0  0  0  0  0
    8.6650  -15.1766   26.0405 O   0  0  0  0  0  0  0  0  0  0  0  0
    9.1028  -17.1055   24.8563 N   0  0  0  0  0  0  0  0  0  0  0  0
    9.3224  -17.9077   26.0585 C   0  0  1  0  0  0  0  0  0  0  0  0
    9.1194  -19.3392   25.6455 C   0  0  0  0  0  0  0  0  0  0  0  0
    7.7217  -19.6224   25.2325 C   0  0  0  0  0  0  0  0  0  0  0  0
    6.6261  -18.7979   25.3394 C   0  0  0  0  0  0  0  0  0  0  0  0
    5.5663  -19.4832   24.8372 N   0  0  0  0  0  0  0  0  0  0  0  0
    6.0290  -20.6826   24.4445 C   0  0  0  0  0  0  0  0  0  0  0  0
    7.3424  -20.7878   24.6771 N   0  0  0  0  0  0  0  0  0  0  0  0
   10.6886  -17.6912   26.5560 C   0  0  0  0  0  0  0  0  0  0  0  0
   11.5267  -16.9844   25.9498 O   0  0  0  0  0  0  0  0  0  0  0  0
   11.0945  -18.2853   27.7492 O   0  0  0  0  0  0  0  0  0  0  0  0
  2  1  1  6
  2  3  1  0
  4  5  1  1
  4  2  1  0
  6  4  1  0
  7  6  2  0
  8  6  1  0
  9  8  1  0
  9 10  1  1
 10 11  1  0
 11 16  1  0
 12 11  2  0
 12 13  1  0
 13 14  2  0
 14 15  1  0
 16 15  2  0
 17 18  2  0
 17  9  1  0
 19 17  1  0
 20 19  1  0
 21 22  1  0
 20 21  1  6
 22 23  2  0
 24 23  1  0
 25 24  1  0
 26 25  2  0
 26 22  1  0
 27 29  1  0
 27 20  1  0
 28 27  2  0
M  END
$$$$
