TFH.pdb
     RDKit          3D

 29 30  0  0  1  0  0  0  0  0999 V2000
    7.4491  -18.1923   20.6324 C   0  0  0  0  0  0  0  0  0  0  0  0
    8.6970  -17.9337   19.8045 C   0  0  1  0  0  0  0  0  0  0  0  0
    8.5279  -18.4180   18.5000 O   0  0  0  0  0  0  0  0  0  0  0  0
    8.8543  -16.4323   19.7183 C   0  0  2  0  0  0  0  0  0  0  0  0
    9.9583  -16.0815   18.8538 N   0  0  0  0  0  0  0  0  0  0  0  0
    9.0589  -15.8063   21.0342 C   0  0  0  0  0  0  0  0  0  0  0  0
   10.1857  -15.8795   21.5804 O   0  0  0  0  0  0  0  0  0  0  0  0
    8.0469  -15.1101   21.7437 N   0  0  0  0  0  0  0  0  0  0  0  0
    8.1940  -14.6655   23.1220 C   0  0  1  0  0  0  0  0  0  0  0  0
    7.0787  -13.7307   23.4441 C   0  0  0  0  0  0  0  0  0  0  0  0
    7.0207  -13.2606   24.8240 C   0  0  0  0  0  0  0  0  0  0  0  0
    6.2318  -13.8731   25.7488 C   0  0  0  0  0  0  0  0  0  0  0  0
    6.2059  -13.3981   27.0400 C   0  0  0  0  0  0  0  0  0  0  0  0
    6.9530  -12.3132   27.4499 C   0  0  0  0  0  0  0  0  0  0  0  0
    7.7378  -11.7251   26.4759 C   0  0  0  0  0  0  0  0  0  0  0  0
    7.7827  -12.1775   25.1824 C   0  0  0  0  0  0  0  0  0  0  0  0
    8.3637  -15.7854   24.0517 C   0  0  0  0  0  0  0  0  0  0  0  0
    7.6007  -16.7743   23.9433 O   0  0  0  0  0  0  0  0  0  0  0  0
    9.3582  -15.8042   25.0768 N   0  0  0  0  0  0  0  0  0  0  0  0
   10.0006  -17.0403   25.5198 C   0  0  1  0  0  0  0  0  0  0  0  0
   11.1585  -17.2641   24.5868 C   0  0  0  0  0  0  0  0  0  0  0  0
   11.9607  -18.4600   24.9479 C   0  0  0  0  0  0  0  0  0  0  0  0
   12.8163  -18.6125   26.0139 C   0  0  0  0  0  0  0  0  0  0  0  0
   13.3256  -19.8692   25.9341 N   0  0  0  0  0  0  0  0  0  0  0  0
   12.7817  -20.4414   24.8462 C   0  0  0  0  0  0  0  0  0  0  0  0
   11.9456  -19.5980   24.2300 N   0  0  0  0  0  0  0  0  0  0  0  0
   10.4630  -16.8890   26.9070 C   0  0  0  0  0  0  0  0  0  0  0  0
   11.0509  -17.8038   27.5291 O   0  0  0  0  0  0  0  0  0  0  0  0
   10.2514  -15.6884   27.5816 O   0  0  0  0  0  0  0  0  0  0  0  0
  2  1  1  1
  2  3  1  0
  4  5  1  6
  4  2  1  0
  6  4  1  0
  7  6  2  0
  8  6  1  0
  9  8  1  0
  9 10  1  1
 10 11  1  0
 11 16  1  0
 12 11  2  0
 12 13  1  0
 13 14  2  0
 14 15  1  0
 16 15  2  0
 17 18  2  0
 17  9  1  0
 19 17  1  0
 20 19  1  0
 21 22  1  0
 20 21  1  6
 22 23  2  0
 24 23  1  0
 25 24  1  0
 26 25  2  0
 26 22  1  0
 27 29  1  0
 27 20  1  0
 28 27  2  0
M  END
$$$$
