TFH.pdb
     RDKit          3D

 29 30  0  0  1  0  0  0  0  0999 V2000
    8.2143  -18.6299   18.5852 C   0  0  0  0  0  0  0  0  0  0  0  0
    8.4535  -18.1033   19.9905 C   0  0  1  0  0  0  0  0  0  0  0  0
    9.5744  -18.7222   20.5609 O   0  0  0  0  0  0  0  0  0  0  0  0
    8.7652  -16.6302   19.8521 C   0  0  2  0  0  0  0  0  0  0  0  0
    9.9280  -16.4286   19.0177 N   0  0  0  0  0  0  0  0  0  0  0  0
    8.9870  -15.9724   21.1496 C   0  0  0  0  0  0  0  0  0  0  0  0
   10.1552  -15.8714   21.5951 O   0  0  0  0  0  0  0  0  0  0  0  0
    7.9473  -15.4324   21.9495 N   0  0  0  0  0  0  0  0  0  0  0  0
    8.1699  -14.8318   23.2568 C   0  0  1  0  0  0  0  0  0  0  0  0
    6.9909  -13.9876   23.6016 C   0  0  0  0  0  0  0  0  0  0  0  0
    7.0383  -13.3293   24.9027 C   0  0  0  0  0  0  0  0  0  0  0  0
    6.3865  -13.8437   25.9813 C   0  0  0  0  0  0  0  0  0  0  0  0
    6.4567  -13.1915   27.1910 C   0  0  0  0  0  0  0  0  0  0  0  0
    7.1674  -12.0223   27.3670 C   0  0  0  0  0  0  0  0  0  0  0  0
    7.8119  -11.5393   26.2437 C   0  0  0  0  0  0  0  0  0  0  0  0
    7.7589  -12.1684   25.0266 C   0  0  0  0  0  0  0  0  0  0  0  0
    8.5494  -15.8238   24.2663 C   0  0  0  0  0  0  0  0  0  0  0  0
    7.7701  -16.7806   24.4880 O   0  0  0  0  0  0  0  0  0  0  0  0
    9.7662  -15.7526   25.0109 N   0  0  0  0  0  0  0  0  0  0  0  0
   10.1534  -16.7804   25.9755 C   0  0  1  0  0  0  0  0  0  0  0  0
   11.6340  -16.9768   25.8015 C   0  0  0  0  0  0  0  0  0  0  0  0
   11.9722  -17.6900   24.5441 C   0  0  0  0  0  0  0  0  0  0  0  0
   11.2540  -18.6804   23.9156 C   0  0  0  0  0  0  0  0  0  0  0  0
   11.9532  -19.0303   22.8049 N   0  0  0  0  0  0  0  0  0  0  0  0
   13.0567  -18.2631   22.7818 C   0  0  0  0  0  0  0  0  0  0  0  0
   13.0875  -17.4381   23.8346 N   0  0  0  0  0  0  0  0  0  0  0  0
    9.8385  -16.3256   27.3375 C   0  0  0  0  0  0  0  0  0  0  0  0
   10.0819  -17.0143   28.3553 O   0  0  0  0  0  0  0  0  0  0  0  0
    9.2440  -15.0807   27.5330 O   0  0  0  0  0  0  0  0  0  0  0  0
  2  1  1  6
  2  3  1  0
  4  5  1  6
  4  2  1  0
  6  4  1  0
  7  6  2  0
  8  6  1  0
  9  8  1  0
  9 10  1  1
 10 11  1  0
 11 16  1  0
 12 11  2  0
 12 13  1  0
 13 14  2  0
 14 15  1  0
 16 15  2  0
 17 18  2  0
 17  9  1  0
 19 17  1  0
 20 19  1  0
 21 22  1  0
 20 21  1  1
 22 23  2  0
 24 23  1  0
 25 24  1  0
 26 25  2  0
 26 22  1  0
 27 29  1  0
 27 20  1  0
 28 27  2  0
M  END
$$$$
