TFH.pdb
     RDKit          3D

 29 30  0  0  1  0  0  0  0  0999 V2000
    6.7627  -17.7175   20.3646 C   0  0  0  0  0  0  0  0  0  0  0  0
    8.1039  -17.6696   19.6516 C   0  0  1  0  0  0  0  0  0  0  0  0
    7.9670  -18.0931   18.3224 O   0  0  0  0  0  0  0  0  0  0  0  0
    8.5286  -16.2186   19.6280 C   0  0  2  0  0  0  0  0  0  0  0  0
    9.7102  -16.0436   18.8141 N   0  0  0  0  0  0  0  0  0  0  0  0
    8.7896  -15.6813   20.9727 C   0  0  0  0  0  0  0  0  0  0  0  0
    9.8849  -15.9297   21.5313 O   0  0  0  0  0  0  0  0  0  0  0  0
    7.8671  -14.8838   21.6975 N   0  0  0  0  0  0  0  0  0  0  0  0
    8.0941  -14.4349   23.0636 C   0  0  1  0  0  0  0  0  0  0  0  0
    7.0660  -13.4121   23.4075 C   0  0  0  0  0  0  0  0  0  0  0  0
    7.0631  -12.9533   24.7924 C   0  0  0  0  0  0  0  0  0  0  0  0
    7.9962  -12.0743   25.2497 C   0  0  0  0  0  0  0  0  0  0  0  0
    7.9580  -11.6667   26.5636 C   0  0  0  0  0  0  0  0  0  0  0  0
    7.0043  -12.1130   27.4547 C   0  0  0  0  0  0  0  0  0  0  0  0
    6.0789  -13.0038   26.9441 C   0  0  0  0  0  0  0  0  0  0  0  0
    6.0935  -13.4265   25.6399 C   0  0  0  0  0  0  0  0  0  0  0  0
    8.2075  -15.5530   24.0039 C   0  0  0  0  0  0  0  0  0  0  0  0
    7.2840  -16.4001   24.0409 O   0  0  0  0  0  0  0  0  0  0  0  0
    9.3214  -15.7240   24.8816 N   0  0  0  0  0  0  0  0  0  0  0  0
    9.6683  -17.0208   25.4604 C   0  0  1  0  0  0  0  0  0  0  0  0
   10.8568  -17.5174   24.6845 C   0  0  0  0  0  0  0  0  0  0  0  0
   11.3596  -18.8226   25.1822 C   0  0  0  0  0  0  0  0  0  0  0  0
   10.9196  -19.5370   26.2720 C   0  0  0  0  0  0  0  0  0  0  0  0
   11.6775  -20.6624   26.3379 N   0  0  0  0  0  0  0  0  0  0  0  0
   12.5426  -20.6099   25.3105 C   0  0  0  0  0  0  0  0  0  0  0  0
   12.3653  -19.4948   24.5927 N   0  0  0  0  0  0  0  0  0  0  0  0
    9.9990  -16.8559   26.8832 C   0  0  0  0  0  0  0  0  0  0  0  0
   10.2788  -17.8218   27.6303 O   0  0  0  0  0  0  0  0  0  0  0  0
   10.0091  -15.5832   27.4500 O   0  0  0  0  0  0  0  0  0  0  0  0
  2  1  1  1
  2  3  1  0
  4  5  1  6
  4  2  1  0
  6  4  1  0
  7  6  2  0
  8  6  1  0
  9  8  1  0
  9 10  1  1
 10 11  1  0
 11 16  1  0
 12 11  2  0
 12 13  1  0
 13 14  2  0
 14 15  1  0
 16 15  2  0
 17 18  2  0
 17  9  1  0
 19 17  1  0
 20 19  1  0
 21 22  1  0
 20 21  1  6
 22 23  2  0
 24 23  1  0
 25 24  1  0
 26 25  2  0
 26 22  1  0
 27 29  1  0
 27 20  1  0
 28 27  2  0
M  END
$$$$
