TFH.pdb
     RDKit          3D

 29 30  0  0  1  0  0  0  0  0999 V2000
    6.6429  -14.5358   18.1596 C   0  0  0  0  0  0  0  0  0  0  0  0
    7.4493  -14.9279   19.3866 C   0  0  1  0  0  0  0  0  0  0  0  0
    8.7590  -15.2701   19.0226 O   0  0  0  0  0  0  0  0  0  0  0  0
    7.5247  -13.6991   20.2644 C   0  0  2  0  0  0  0  0  0  0  0  0
    8.2014  -12.6209   19.5797 N   0  0  0  0  0  0  0  0  0  0  0  0
    8.2052  -13.9559   21.5435 C   0  0  0  0  0  0  0  0  0  0  0  0
    9.4334  -13.7217   21.6434 O   0  0  0  0  0  0  0  0  0  0  0  0
    7.5533  -14.4615   22.6975 N   0  0  0  0  0  0  0  0  0  0  0  0
    8.2492  -14.7901   23.9332 C   0  0  1  0  0  0  0  0  0  0  0  0
    7.2724  -14.7445   25.0582 C   0  0  0  0  0  0  0  0  0  0  0  0
    7.0359  -13.4287   25.6425 C   0  0  0  0  0  0  0  0  0  0  0  0
    5.7746  -12.9497   25.8227 C   0  0  0  0  0  0  0  0  0  0  0  0
    5.5951  -11.7032   26.3775 C   0  0  0  0  0  0  0  0  0  0  0  0
    6.6486  -10.9020   26.7664 C   0  0  0  0  0  0  0  0  0  0  0  0
    7.9092  -11.4313   26.5636 C   0  0  0  0  0  0  0  0  0  0  0  0
    8.1170  -12.6697   26.0132 C   0  0  0  0  0  0  0  0  0  0  0  0
    9.0225  -16.0298   23.8223 C   0  0  0  0  0  0  0  0  0  0  0  0
    8.4134  -17.0940   23.5608 O   0  0  0  0  0  0  0  0  0  0  0  0
   10.4390  -16.0838   23.9979 N   0  0  0  0  0  0  0  0  0  0  0  0
   11.1927  -17.3317   23.8911 C   0  0  1  0  0  0  0  0  0  0  0  0
   12.4765  -16.9830   23.1901 C   0  0  0  0  0  0  0  0  0  0  0  0
   13.3462  -18.1656   22.9681 C   0  0  0  0  0  0  0  0  0  0  0  0
   12.9611  -19.4666   22.7430 C   0  0  0  0  0  0  0  0  0  0  0  0
   14.0984  -20.1957   22.6018 N   0  0  0  0  0  0  0  0  0  0  0  0
   15.1277  -19.3424   22.7409 C   0  0  0  0  0  0  0  0  0  0  0  0
   14.6901  -18.0981   22.9652 N   0  0  0  0  0  0  0  0  0  0  0  0
   11.4545  -17.8692   25.2341 C   0  0  0  0  0  0  0  0  0  0  0  0
   11.3187  -17.1865   26.2757 O   0  0  0  0  0  0  0  0  0  0  0  0
   11.8722  -19.1900   25.3833 O   0  0  0  0  0  0  0  0  0  0  0  0
  2  1  1  6
  2  3  1  0
  4  5  1  6
  4  2  1  0
  6  4  1  0
  7  6  2  0
  8  6  1  0
  9  8  1  0
  9 10  1  1
 10 11  1  0
 11 16  1  0
 12 11  2  0
 12 13  1  0
 13 14  2  0
 14 15  1  0
 16 15  2  0
 17 18  2  0
 17  9  1  0
 19 17  1  0
 20 19  1  0
 21 22  1  0
 20 21  1  1
 22 23  2  0
 24 23  1  0
 25 24  1  0
 26 25  2  0
 26 22  1  0
 27 29  1  0
 27 20  1  0
 28 27  2  0
M  END
$$$$
