TFH.pdb
     RDKit          3D

 29 30  0  0  1  0  0  0  0  0999 V2000
    9.1333  -19.2457   22.1907 C   0  0  0  0  0  0  0  0  0  0  0  0
   10.0015  -18.7425   21.0495 C   0  0  1  0  0  0  0  0  0  0  0  0
    9.9515  -19.6321   19.9674 O   0  0  0  0  0  0  0  0  0  0  0  0
    9.3985  -17.4330   20.5934 C   0  0  2  0  0  0  0  0  0  0  0  0
   10.0569  -16.9540   19.3992 N   0  0  0  0  0  0  0  0  0  0  0  0
    9.4623  -16.3879   21.6273 C   0  0  0  0  0  0  0  0  0  0  0  0
   10.5052  -15.7006   21.7422 O   0  0  0  0  0  0  0  0  0  0  0  0
    8.4016  -16.0974   22.5234 N   0  0  0  0  0  0  0  0  0  0  0  0
    8.5136  -15.1438   23.6175 C   0  0  1  0  0  0  0  0  0  0  0  0
    7.1772  -14.5268   23.8522 C   0  0  0  0  0  0  0  0  0  0  0  0
    7.0927  -13.6000   24.9757 C   0  0  0  0  0  0  0  0  0  0  0  0
    6.4635  -13.9442   26.1326 C   0  0  0  0  0  0  0  0  0  0  0  0
    6.4060  -13.0403   27.1686 C   0  0  0  0  0  0  0  0  0  0  0  0
    6.9643  -11.7812   27.0907 C   0  0  0  0  0  0  0  0  0  0  0  0
    7.5918  -11.4780   25.8971 C   0  0  0  0  0  0  0  0  0  0  0  0
    7.6638  -12.3590   24.8490 C   0  0  0  0  0  0  0  0  0  0  0  0
    9.1526  -15.7276   24.7998 C   0  0  0  0  0  0  0  0  0  0  0  0
    9.3802  -14.9862   25.7850 O   0  0  0  0  0  0  0  0  0  0  0  0
    9.5291  -17.1029   24.8838 N   0  0  0  0  0  0  0  0  0  0  0  0
   10.2159  -17.6553   26.0500 C   0  0  1  0  0  0  0  0  0  0  0  0
    9.9497  -19.1351   26.0266 C   0  0  0  0  0  0  0  0  0  0  0  0
    8.5093  -19.4593   26.1824 C   0  0  0  0  0  0  0  0  0  0  0  0
    7.6316  -18.9745   27.1237 C   0  0  0  0  0  0  0  0  0  0  0  0
    6.4285  -19.5548   26.8769 N   0  0  0  0  0  0  0  0  0  0  0  0
    6.5960  -20.3619   25.8151 C   0  0  0  0  0  0  0  0  0  0  0  0
    7.8591  -20.3182   25.3760 N   0  0  0  0  0  0  0  0  0  0  0  0
   11.6563  -17.3772   25.9548 C   0  0  0  0  0  0  0  0  0  0  0  0
   12.4667  -17.6814   26.8604 O   0  0  0  0  0  0  0  0  0  0  0  0
   12.1681  -16.7501   24.8207 O   0  0  0  0  0  0  0  0  0  0  0  0
  2  1  1  1
  2  3  1  0
  4  5  1  6
  4  2  1  0
  6  4  1  0
  7  6  2  0
  8  6  1  0
  9  8  1  0
  9 10  1  1
 10 11  1  0
 11 16  1  0
 12 11  2  0
 12 13  1  0
 13 14  2  0
 14 15  1  0
 16 15  2  0
 17 18  2  0
 17  9  1  0
 19 17  1  0
 20 19  1  0
 21 22  1  0
 20 21  1  6
 22 23  2  0
 24 23  1  0
 25 24  1  0
 26 25  2  0
 26 22  1  0
 27 29  1  0
 27 20  1  0
 28 27  2  0
M  END
$$$$
