CHF.pdb
     RDKit          3D

 28 29  0  0  1  0  0  0  0  0999 V2000
   24.4201  -24.3436  -16.4864 N   0  0  0  0  0  0  0  0  0  0  0  0
   24.2171  -24.3036  -15.0653 C   0  0  1  0  0  0  0  0  0  0  0  0
   24.5282  -25.6506  -14.4270 C   0  0  0  0  0  0  0  0  0  0  0  0
   24.0925  -25.6158  -12.6707 S   0  0  0  0  0  0  0  0  0  0  0  0
   25.1724  -23.2971  -14.4538 C   0  0  0  0  0  0  0  0  0  0  0  0
   26.3666  -23.3303  -14.8086 O   0  0  0  0  0  0  0  0  0  0  0  0
   24.7133  -22.3586  -13.5151 N   0  0  0  0  0  0  0  0  0  0  0  0
   25.4701  -21.2912  -12.9612 C   0  0  1  0  0  0  0  0  0  0  0  0
   25.0345  -19.8911  -13.3906 C   0  0  0  0  0  0  0  0  0  0  0  0
   26.1551  -18.9172  -13.3630 C   0  0  0  0  0  0  0  0  0  0  0  0
   27.0953  -18.8202  -14.4074 C   0  0  0  0  0  0  0  0  0  0  0  0
   27.9515  -17.8645  -14.0845 N   0  0  0  0  0  0  0  0  0  0  0  0
   27.5751  -17.3797  -12.8973 C   0  0  0  0  0  0  0  0  0  0  0  0
   26.4855  -18.0095  -12.4468 N   0  0  0  0  0  0  0  0  0  0  0  0
   25.5946  -21.3062  -11.4936 C   0  0  0  0  0  0  0  0  0  0  0  0
   24.5774  -21.5831  -10.7880 O   0  0  0  0  0  0  0  0  0  0  0  0
   26.7780  -21.0324  -10.8027 N   0  0  0  0  0  0  0  0  0  0  0  0
   26.8748  -20.9543   -9.3527 C   0  0  1  0  0  0  0  0  0  0  0  0
   28.1267  -20.3104   -8.8984 C   0  0  0  0  0  0  0  0  0  0  0  0
   28.1602  -20.2075   -7.4299 C   0  0  0  0  0  0  0  0  0  0  0  0
   27.7212  -19.0300   -6.8082 C   0  0  0  0  0  0  0  0  0  0  0  0
   27.7000  -18.8785   -5.4603 C   0  0  0  0  0  0  0  0  0  0  0  0
   28.1188  -19.9005   -4.6378 C   0  0  0  0  0  0  0  0  0  0  0  0
   28.5688  -21.1022   -5.1977 C   0  0  0  0  0  0  0  0  0  0  0  0
   28.5694  -21.2025   -6.5685 C   0  0  0  0  0  0  0  0  0  0  0  0
   25.6916  -20.2395   -8.8490 C   0  0  0  0  0  0  0  0  0  0  0  0
   24.9056  -20.7231   -7.7999 O   0  0  0  0  0  0  0  0  0  0  0  0
   25.3569  -19.1273   -9.3894 O   0  0  0  0  0  0  0  0  0  0  0  0
  2  1  1  6
  3  2  1  0
  3  4  1  0
  5  2  1  0
  5  6  2  0
  7  5  1  0
  8  7  1  0
  8  9  1  1
 10  9  1  0
 10 14  1  0
 11 12  1  0
 11 10  2  0
 12 13  1  0
 13 14  2  0
 15  8  1  0
 16 15  2  0
 17 15  1  0
 18 17  1  0
 18 26  1  0
 18 19  1  6
 20 19  1  0
 21 20  2  0
 22 21  1  0
 23 22  2  0
 23 24  1  0
 24 25  2  0
 25 20  1  0
 26 27  1  0
 28 26  2  0
M  END
$$$$
