CHF.pdb
     RDKit          3D

 28 29  0  0  1  0  0  0  0  0999 V2000
   28.5803  -32.1710  -16.6134 N   0  0  0  0  0  0  0  0  0  0  0  0
   28.1046  -31.5319  -17.8082 C   0  0  1  0  0  0  0  0  0  0  0  0
   27.0947  -32.4086  -18.5364 C   0  0  0  0  0  0  0  0  0  0  0  0
   25.8040  -32.9466  -17.3875 S   0  0  0  0  0  0  0  0  0  0  0  0
   27.3848  -30.2505  -17.4348 C   0  0  0  0  0  0  0  0  0  0  0  0
   27.1459  -30.0410  -16.2297 O   0  0  0  0  0  0  0  0  0  0  0  0
   27.0028  -29.3330  -18.4272 N   0  0  0  0  0  0  0  0  0  0  0  0
   26.3670  -28.0813  -18.2085 C   0  0  1  0  0  0  0  0  0  0  0  0
   27.2209  -26.8529  -18.5183 C   0  0  0  0  0  0  0  0  0  0  0  0
   28.4253  -26.7690  -17.6537 C   0  0  0  0  0  0  0  0  0  0  0  0
   29.7204  -27.0400  -18.1369 C   0  0  0  0  0  0  0  0  0  0  0  0
   30.5635  -26.8733  -17.1309 N   0  0  0  0  0  0  0  0  0  0  0  0
   29.8419  -26.5152  -16.0644 C   0  0  0  0  0  0  0  0  0  0  0  0
   28.5416  -26.4477  -16.3669 N   0  0  0  0  0  0  0  0  0  0  0  0
   25.0624  -27.9162  -18.8721 C   0  0  0  0  0  0  0  0  0  0  0  0
   24.8807  -28.4284  -20.0183 O   0  0  0  0  0  0  0  0  0  0  0  0
   23.9828  -27.2212  -18.3206 N   0  0  0  0  0  0  0  0  0  0  0  0
   22.6961  -27.0588  -18.9809 C   0  0  1  0  0  0  0  0  0  0  0  0
   21.6275  -27.8676  -18.3546 C   0  0  0  0  0  0  0  0  0  0  0  0
   21.7772  -29.2912  -18.6997 C   0  0  0  0  0  0  0  0  0  0  0  0
   22.4254  -30.1557  -17.8064 C   0  0  0  0  0  0  0  0  0  0  0  0
   22.5737  -31.4821  -18.0493 C   0  0  0  0  0  0  0  0  0  0  0  0
   22.0807  -32.0371  -19.2092 C   0  0  0  0  0  0  0  0  0  0  0  0
   21.4229  -31.2264  -20.1419 C   0  0  0  0  0  0  0  0  0  0  0  0
   21.3002  -29.8898  -19.8459 C   0  0  0  0  0  0  0  0  0  0  0  0
   22.3545  -25.6277  -18.9805 C   0  0  0  0  0  0  0  0  0  0  0  0
   22.4478  -24.8282  -17.8384 O   0  0  0  0  0  0  0  0  0  0  0  0
   21.9507  -25.0818  -20.0667 O   0  0  0  0  0  0  0  0  0  0  0  0
  2  1  1  1
  3  2  1  0
  3  4  1  0
  5  2  1  0
  5  6  2  0
  7  5  1  0
  8  7  1  0
  8  9  1  6
 10  9  1  0
 10 14  1  0
 11 12  1  0
 11 10  2  0
 12 13  1  0
 13 14  2  0
 15  8  1  0
 16 15  2  0
 17 15  1  0
 18 17  1  0
 18 26  1  0
 18 19  1  1
 20 19  1  0
 21 20  2  0
 22 21  1  0
 23 22  2  0
 23 24  1  0
 24 25  2  0
 25 20  1  0
 26 27  1  0
 28 26  2  0
M  END
$$$$
