CHF.pdb
     RDKit          3D

 28 29  0  0  1  0  0  0  0  0999 V2000
   12.4178  -17.9612    2.7926 N   0  0  0  0  0  0  0  0  0  0  0  0
   13.3288  -18.9108    3.3677 C   0  0  1  0  0  0  0  0  0  0  0  0
   14.1828  -19.5732    2.2950 C   0  0  0  0  0  0  0  0  0  0  0  0
   13.2165  -20.8360    1.4306 S   0  0  0  0  0  0  0  0  0  0  0  0
   14.2799  -18.1866    4.3007 C   0  0  0  0  0  0  0  0  0  0  0  0
   14.4585  -16.9658    4.1253 O   0  0  0  0  0  0  0  0  0  0  0  0
   14.9354  -18.8820    5.3299 N   0  0  0  0  0  0  0  0  0  0  0  0
   15.7404  -18.3044    6.3484 C   0  0  1  0  0  0  0  0  0  0  0  0
   15.2954  -18.6027    7.7792 C   0  0  0  0  0  0  0  0  0  0  0  0
   14.0428  -17.8923    8.1413 C   0  0  0  0  0  0  0  0  0  0  0  0
   13.9353  -16.4882    8.1062 C   0  0  0  0  0  0  0  0  0  0  0  0
   12.7042  -16.1739    8.4752 N   0  0  0  0  0  0  0  0  0  0  0  0
   12.0630  -17.3182    8.7313 C   0  0  0  0  0  0  0  0  0  0  0  0
   12.8634  -18.3703    8.5328 N   0  0  0  0  0  0  0  0  0  0  0  0
   17.1821  -18.5878    6.2445 C   0  0  0  0  0  0  0  0  0  0  0  0
   17.5622  -19.7379    5.8679 O   0  0  0  0  0  0  0  0  0  0  0  0
   18.1877  -17.6624    6.5362 N   0  0  0  0  0  0  0  0  0  0  0  0
   19.6063  -17.9068    6.3222 C   0  0  1  0  0  0  0  0  0  0  0  0
   20.2829  -16.7811    5.6417 C   0  0  0  0  0  0  0  0  0  0  0  0
   19.6839  -16.5315    4.3199 C   0  0  0  0  0  0  0  0  0  0  0  0
   19.9433  -17.4165    3.2640 C   0  0  0  0  0  0  0  0  0  0  0  0
   19.4029  -17.2611    2.0295 C   0  0  0  0  0  0  0  0  0  0  0  0
   18.5612  -16.2035    1.7658 C   0  0  0  0  0  0  0  0  0  0  0  0
   18.2625  -15.2845    2.7788 C   0  0  0  0  0  0  0  0  0  0  0  0
   18.8368  -15.4892    4.0107 C   0  0  0  0  0  0  0  0  0  0  0  0
   20.2264  -18.1958    7.6248 C   0  0  0  0  0  0  0  0  0  0  0  0
   21.5418  -18.6491    7.7523 O   0  0  0  0  0  0  0  0  0  0  0  0
   19.5396  -18.0310    8.6936 O   0  0  0  0  0  0  0  0  0  0  0  0
  2  1  1  6
  3  2  1  0
  3  4  1  0
  5  2  1  0
  5  6  2  0
  7  5  1  0
  8  7  1  0
  8  9  1  1
 10  9  1  0
 10 14  1  0
 11 12  1  0
 11 10  2  0
 12 13  1  0
 13 14  2  0
 15  8  1  0
 16 15  2  0
 17 15  1  0
 18 17  1  0
 18 26  1  0
 18 19  1  1
 20 19  1  0
 21 20  2  0
 22 21  1  0
 23 22  2  0
 23 24  1  0
 24 25  2  0
 25 20  1  0
 26 27  1  0
 28 26  2  0
M  END
$$$$
