CHF.pdb
     RDKit          3D

 28 29  0  0  1  0  0  0  0  0999 V2000
   26.3489  -10.8053  -18.5436 N   0  0  0  0  0  0  0  0  0  0  0  0
   25.8660  -10.9108  -17.1954 C   0  0  1  0  0  0  0  0  0  0  0  0
   26.8885  -10.3771  -16.2013 C   0  0  0  0  0  0  0  0  0  0  0  0
   28.2883  -11.5183  -16.0843 S   0  0  0  0  0  0  0  0  0  0  0  0
   24.6207  -10.0588  -17.0441 C   0  0  0  0  0  0  0  0  0  0  0  0
   24.6381   -8.9049  -17.5144 O   0  0  0  0  0  0  0  0  0  0  0  0
   23.4856  -10.5662  -16.3908 N   0  0  0  0  0  0  0  0  0  0  0  0
   22.2598   -9.8769  -16.1878 C   0  0  1  0  0  0  0  0  0  0  0  0
   21.0606  -10.7629  -15.8543 C   0  0  0  0  0  0  0  0  0  0  0  0
   19.8078   -9.9819  -15.6947 C   0  0  0  0  0  0  0  0  0  0  0  0
   19.7878   -8.5738  -15.7289 C   0  0  0  0  0  0  0  0  0  0  0  0
   18.5325   -8.1895  -15.5639 N   0  0  0  0  0  0  0  0  0  0  0  0
   17.7937   -9.2953  -15.4318 C   0  0  0  0  0  0  0  0  0  0  0  0
   18.5547  -10.3916  -15.5091 N   0  0  0  0  0  0  0  0  0  0  0  0
   22.3119   -8.7810  -15.2049 C   0  0  0  0  0  0  0  0  0  0  0  0
   22.8261   -8.9945  -14.0652 O   0  0  0  0  0  0  0  0  0  0  0  0
   21.8261   -7.4919  -15.4391 N   0  0  0  0  0  0  0  0  0  0  0  0
   21.9845   -6.3812  -14.5122 C   0  0  1  0  0  0  0  0  0  0  0  0
   23.3697   -5.8637  -14.4734 C   0  0  0  0  0  0  0  0  0  0  0  0
   23.7302   -5.2346  -15.7550 C   0  0  0  0  0  0  0  0  0  0  0  0
   24.5954   -5.9009  -16.6342 C   0  0  0  0  0  0  0  0  0  0  0  0
   24.9471   -5.3912  -17.8412 C   0  0  0  0  0  0  0  0  0  0  0  0
   24.4541   -4.1731  -18.2532 C   0  0  0  0  0  0  0  0  0  0  0  0
   23.5851   -3.4581  -17.4204 C   0  0  0  0  0  0  0  0  0  0  0  0
   23.2616   -4.0203  -16.2086 C   0  0  0  0  0  0  0  0  0  0  0  0
   21.0293   -5.3270  -14.8877 C   0  0  0  0  0  0  0  0  0  0  0  0
   20.7551   -4.2283  -14.0692 O   0  0  0  0  0  0  0  0  0  0  0  0
   20.4153   -5.4111  -16.0088 O   0  0  0  0  0  0  0  0  0  0  0  0
  2  1  1  6
  3  2  1  0
  3  4  1  0
  5  2  1  0
  5  6  2  0
  7  5  1  0
  8  7  1  0
  8  9  1  1
 10  9  1  0
 10 14  1  0
 11 12  1  0
 11 10  2  0
 12 13  1  0
 13 14  2  0
 15  8  1  0
 16 15  2  0
 17 15  1  0
 18 17  1  0
 18 26  1  0
 18 19  1  6
 20 19  1  0
 21 20  2  0
 22 21  1  0
 23 22  2  0
 23 24  1  0
 24 25  2  0
 25 20  1  0
 26 27  1  0
 28 26  2  0
M  END
$$$$
