CHF.pdb
     RDKit          3D

 28 29  0  0  1  0  0  0  0  0999 V2000
   30.2111   -9.8543  -19.8168 N   0  0  0  0  0  0  0  0  0  0  0  0
   29.7584   -8.9687  -18.7809 C   0  0  1  0  0  0  0  0  0  0  0  0
   30.8629   -8.6958  -17.7688 C   0  0  0  0  0  0  0  0  0  0  0  0
   31.0971  -10.1425  -16.7069 S   0  0  0  0  0  0  0  0  0  0  0  0
   29.3860   -7.6331  -19.3949 C   0  0  0  0  0  0  0  0  0  0  0  0
   29.9164   -7.3161  -20.4771 O   0  0  0  0  0  0  0  0  0  0  0  0
   28.4682   -6.7854  -18.7533 N   0  0  0  0  0  0  0  0  0  0  0  0
   27.8926   -5.6079  -19.3021 C   0  0  1  0  0  0  0  0  0  0  0  0
   26.4123   -5.7136  -19.6652 C   0  0  0  0  0  0  0  0  0  0  0  0
   26.1828   -6.5642  -20.8605 C   0  0  0  0  0  0  0  0  0  0  0  0
   25.7981   -7.9156  -20.7614 C   0  0  0  0  0  0  0  0  0  0  0  0
   25.6717   -8.3847  -21.9921 N   0  0  0  0  0  0  0  0  0  0  0  0
   25.9609   -7.3839  -22.8293 C   0  0  0  0  0  0  0  0  0  0  0  0
   26.2732   -6.2719  -22.1563 N   0  0  0  0  0  0  0  0  0  0  0  0
   28.0864   -4.3847  -18.5047 C   0  0  0  0  0  0  0  0  0  0  0  0
   28.0386   -4.4557  -17.2391 O   0  0  0  0  0  0  0  0  0  0  0  0
   28.3254   -3.1208  -19.0506 N   0  0  0  0  0  0  0  0  0  0  0  0
   28.5609   -1.9230  -18.2582 C   0  0  1  0  0  0  0  0  0  0  0  0
   29.8941   -1.3304  -18.5026 C   0  0  0  0  0  0  0  0  0  0  0  0
   30.0542   -0.0732  -17.7528 C   0  0  0  0  0  0  0  0  0  0  0  0
   29.7848    1.1489  -18.3848 C   0  0  0  0  0  0  0  0  0  0  0  0
   29.8859    2.3411  -17.7455 C   0  0  0  0  0  0  0  0  0  0  0  0
   30.2656    2.3921  -16.4227 C   0  0  0  0  0  0  0  0  0  0  0  0
   30.5484    1.2057  -15.7353 C   0  0  0  0  0  0  0  0  0  0  0  0
   30.4301    0.0260  -16.4305 C   0  0  0  0  0  0  0  0  0  0  0  0
   27.4861   -0.9604  -18.5462 C   0  0  0  0  0  0  0  0  0  0  0  0
   27.0148   -0.0473  -17.5994 O   0  0  0  0  0  0  0  0  0  0  0  0
   26.9505   -0.9522  -19.7098 O   0  0  0  0  0  0  0  0  0  0  0  0
  2  1  1  6
  3  2  1  0
  3  4  1  0
  5  2  1  0
  5  6  2  0
  7  5  1  0
  8  7  1  0
  8  9  1  1
 10  9  1  0
 10 14  1  0
 11 12  1  0
 11 10  2  0
 12 13  1  0
 13 14  2  0
 15  8  1  0
 16 15  2  0
 17 15  1  0
 18 17  1  0
 18 26  1  0
 18 19  1  6
 20 19  1  0
 21 20  2  0
 22 21  1  0
 23 22  2  0
 23 24  1  0
 24 25  2  0
 25 20  1  0
 26 27  1  0
 28 26  2  0
M  END
$$$$
