CHF.pdb
     RDKit          3D

 28 29  0  0  1  0  0  0  0  0999 V2000
   34.7901  -32.6243  -18.7885 N   0  0  0  0  0  0  0  0  0  0  0  0
   34.2913  -31.5199  -19.5591 C   0  0  1  0  0  0  0  0  0  0  0  0
   33.4853  -32.0044  -20.7568 C   0  0  0  0  0  0  0  0  0  0  0  0
   32.6635  -33.5662  -20.3558 S   0  0  0  0  0  0  0  0  0  0  0  0
   33.3500  -30.6979  -18.7002 C   0  0  0  0  0  0  0  0  0  0  0  0
   32.7795  -31.2636  -17.7475 O   0  0  0  0  0  0  0  0  0  0  0  0
   33.1348  -29.3384  -18.9797 N   0  0  0  0  0  0  0  0  0  0  0  0
   32.2906  -28.4584  -18.2504 C   0  0  1  0  0  0  0  0  0  0  0  0
   32.5640  -26.9698  -18.4592 C   0  0  0  0  0  0  0  0  0  0  0  0
   32.5260  -26.2043  -17.1874 C   0  0  0  0  0  0  0  0  0  0  0  0
   32.2151  -26.8080  -15.9532 C   0  0  0  0  0  0  0  0  0  0  0  0
   32.2707  -25.8671  -15.0247 N   0  0  0  0  0  0  0  0  0  0  0  0
   32.5996  -24.7254  -15.6367 C   0  0  0  0  0  0  0  0  0  0  0  0
   32.7579  -24.9148  -16.9504 N   0  0  0  0  0  0  0  0  0  0  0  0
   30.8460  -28.6908  -18.4203 C   0  0  0  0  0  0  0  0  0  0  0  0
   30.3770  -28.8505  -19.5880 O   0  0  0  0  0  0  0  0  0  0  0  0
   29.9307  -28.7509  -17.3662 N   0  0  0  0  0  0  0  0  0  0  0  0
   28.5166  -29.0523  -17.5319 C   0  0  1  0  0  0  0  0  0  0  0  0
   27.8274  -29.2817  -16.2432 C   0  0  0  0  0  0  0  0  0  0  0  0
   26.4167  -29.6436  -16.4605 C   0  0  0  0  0  0  0  0  0  0  0  0
   25.4137  -28.6929  -16.2244 C   0  0  0  0  0  0  0  0  0  0  0  0
   24.0979  -28.9510  -16.4299 C   0  0  0  0  0  0  0  0  0  0  0  0
   23.6935  -30.1850  -16.8883 C   0  0  0  0  0  0  0  0  0  0  0  0
   24.6473  -31.1777  -17.1434 C   0  0  0  0  0  0  0  0  0  0  0  0
   25.9662  -30.8631  -16.9184 C   0  0  0  0  0  0  0  0  0  0  0  0
   27.8948  -27.9506  -18.2831 C   0  0  0  0  0  0  0  0  0  0  0  0
   27.0170  -28.1629  -19.3492 O   0  0  0  0  0  0  0  0  0  0  0  0
   28.1647  -26.7417  -17.9565 O   0  0  0  0  0  0  0  0  0  0  0  0
  2  1  1  1
  3  2  1  0
  3  4  1  0
  5  2  1  0
  5  6  2  0
  7  5  1  0
  8  7  1  0
  8  9  1  6
 10  9  1  0
 10 14  1  0
 11 12  1  0
 11 10  2  0
 12 13  1  0
 13 14  2  0
 15  8  1  0
 16 15  2  0
 17 15  1  0
 18 17  1  0
 18 26  1  0
 18 19  1  1
 20 19  1  0
 21 20  2  0
 22 21  1  0
 23 22  2  0
 23 24  1  0
 24 25  2  0
 25 20  1  0
 26 27  1  0
 28 26  2  0
M  END
$$$$
