CHF.pdb
     RDKit          3D

 28 29  0  0  1  0  0  0  0  0999 V2000
   24.1063  -14.9291  -18.7958 N   0  0  0  0  0  0  0  0  0  0  0  0
   24.0454  -14.2962  -17.5081 C   0  0  1  0  0  0  0  0  0  0  0  0
   25.4403  -13.9969  -16.9758 C   0  0  0  0  0  0  0  0  0  0  0  0
   26.3373  -15.5432  -16.6936 S   0  0  0  0  0  0  0  0  0  0  0  0
   23.3313  -12.9651  -17.6406 C   0  0  0  0  0  0  0  0  0  0  0  0
   23.7393  -12.1631  -18.5028 O   0  0  0  0  0  0  0  0  0  0  0  0
   22.2419  -12.6555  -16.8099 N   0  0  0  0  0  0  0  0  0  0  0  0
   21.4584  -11.4715  -16.8651 C   0  0  1  0  0  0  0  0  0  0  0  0
   19.9579  -11.6720  -16.6586 C   0  0  0  0  0  0  0  0  0  0  0  0
   19.3298  -12.4262  -17.7730 C   0  0  0  0  0  0  0  0  0  0  0  0
   20.0242  -12.7369  -18.9585 C   0  0  0  0  0  0  0  0  0  0  0  0
   19.1963  -13.4118  -19.7395 N   0  0  0  0  0  0  0  0  0  0  0  0
   18.0367  -13.5240  -19.0845 C   0  0  0  0  0  0  0  0  0  0  0  0
   18.1029  -12.9302  -17.8887 N   0  0  0  0  0  0  0  0  0  0  0  0
   21.9048  -10.3822  -15.9798 C   0  0  0  0  0  0  0  0  0  0  0  0
   21.8577  -10.5461  -14.7229 O   0  0  0  0  0  0  0  0  0  0  0  0
   22.3888   -9.1514  -16.4312 N   0  0  0  0  0  0  0  0  0  0  0  0
   22.8800   -8.0986  -15.5546 C   0  0  1  0  0  0  0  0  0  0  0  0
   24.1985   -7.5756  -15.9745 C   0  0  0  0  0  0  0  0  0  0  0  0
   25.1894   -8.6614  -16.0617 C   0  0  0  0  0  0  0  0  0  0  0  0
   25.8638   -8.8878  -17.2698 C   0  0  0  0  0  0  0  0  0  0  0  0
   26.8070   -9.8524  -17.4116 C   0  0  0  0  0  0  0  0  0  0  0  0
   27.1416  -10.6610  -16.3482 C   0  0  0  0  0  0  0  0  0  0  0  0
   26.5038  -10.4849  -15.1144 C   0  0  0  0  0  0  0  0  0  0  0  0
   25.5563   -9.4931  -15.0258 C   0  0  0  0  0  0  0  0  0  0  0  0
   21.8703   -7.0295  -15.5068 C   0  0  0  0  0  0  0  0  0  0  0  0
   21.8861   -6.0169  -14.5442 O   0  0  0  0  0  0  0  0  0  0  0  0
   20.9310   -7.0183  -16.3776 O   0  0  0  0  0  0  0  0  0  0  0  0
  2  1  1  6
  3  2  1  0
  3  4  1  0
  5  2  1  0
  5  6  2  0
  7  5  1  0
  8  7  1  0
  8  9  1  1
 10  9  1  0
 10 14  1  0
 11 12  1  0
 11 10  2  0
 12 13  1  0
 13 14  2  0
 15  8  1  0
 16 15  2  0
 17 15  1  0
 18 17  1  0
 18 26  1  0
 18 19  1  6
 20 19  1  0
 21 20  2  0
 22 21  1  0
 23 22  2  0
 23 24  1  0
 24 25  2  0
 25 20  1  0
 26 27  1  0
 28 26  2  0
M  END
$$$$
