QPT.pdb
     RDKit          3D

 24 24  0  0  1  0  0  0  0  0999 V2000
    6.1619  -17.3120   25.2876 N   0  0  0  0  0  0  0  0  0  0  0  0
    7.1545  -17.8080   24.4056 C   0  0  0  0  0  0  0  0  0  0  0  0
    7.9201  -18.7554   24.7356 O   0  0  0  0  0  0  0  0  0  0  0  0
    7.3097  -17.2122   23.0637 C   0  0  0  0  0  0  0  0  0  0  0  0
    6.3187  -16.0643   22.8559 C   0  0  0  0  0  0  0  0  0  0  0  0
    7.0626  -14.8155   22.4196 C   0  0  2  0  0  0  0  0  0  0  0  0
    7.7026  -15.1173   21.1811 N   0  0  0  0  0  0  0  0  0  0  0  0
    7.9782  -14.3441   23.4564 C   0  0  0  0  0  0  0  0  0  0  0  0
    9.2258  -14.3466   23.1888 O   0  0  0  0  0  0  0  0  0  0  0  0
    7.5854  -13.8869   24.7333 N   0  0  0  0  0  0  0  0  0  0  0  0
    6.2645  -13.7940   25.2622 C   0  0  0  0  0  0  0  0  0  0  0  0
    6.3520  -12.7871   26.3795 C   0  0  0  0  0  0  0  0  0  0  0  0
    7.7584  -12.2084   26.2961 C   0  0  0  0  0  0  0  0  0  0  0  0
    8.4962  -13.4335   25.7996 C   0  0  1  0  0  0  0  0  0  0  0  0
    8.5004  -14.4148   26.9195 C   0  0  0  0  0  0  0  0  0  0  0  0
    7.4593  -14.9774   27.3444 O   0  0  0  0  0  0  0  0  0  0  0  0
   10.3262  -17.2059   26.1117 C   0  0  0  0  0  0  0  0  0  0  0  0
   10.8774  -16.9133   27.5003 C   0  0  1  0  0  0  0  0  0  0  0  0
   12.0736  -16.2045   27.4168 O   0  0  0  0  0  0  0  0  0  0  0  0
    9.8735  -16.0275   28.2100 C   0  0  2  0  0  0  0  0  0  0  0  0
    9.7253  -14.7501   27.5572 N   0  0  0  0  0  0  0  0  0  0  0  0
   10.3596  -15.8458   29.6045 C   0  0  0  0  0  0  0  0  0  0  0  0
   10.4366  -16.8950   30.5067 O   0  0  0  0  0  0  0  0  0  0  0  0
   10.7215  -14.7092   30.0104 O   0  0  0  0  0  0  0  0  0  0  0  0
  2  1  1  0
  2  3  2  0
  4  2  1  0
  5  4  1  0
  6  7  1  6
  6  5  1  0
  8  6  1  0
  9  8  2  0
 10  8  1  0
 11 10  1  0
 12 11  1  0
 13 12  1  0
 13 14  1  0
 14 10  1  0
 14 15  1  1
 15 21  1  0
 16 15  2  0
 18 17  1  6
 18 19  1  0
 18 20  1  0
 20 21  1  6
 20 22  1  0
 22 23  1  0
 24 22  2  0
M  END
$$$$
