QPT.pdb
     RDKit          3D

 24 24  0  0  1  0  0  0  0  0999 V2000
    2.8992  -17.9965   19.7773 N   0  0  0  0  0  0  0  0  0  0  0  0
    3.5682  -19.1627   19.3282 C   0  0  0  0  0  0  0  0  0  0  0  0
    2.9337  -20.1784   18.9303 O   0  0  0  0  0  0  0  0  0  0  0  0
    5.0439  -19.2064   19.3195 C   0  0  0  0  0  0  0  0  0  0  0  0
    5.6341  -17.8867   19.8228 C   0  0  0  0  0  0  0  0  0  0  0  0
    6.4572  -17.2395   18.7241 C   0  0  2  0  0  0  0  0  0  0  0  0
    6.6477  -18.2209   17.7066 N   0  0  0  0  0  0  0  0  0  0  0  0
    7.7032  -16.6796   19.2432 C   0  0  0  0  0  0  0  0  0  0  0  0
    8.7949  -17.2338   18.8843 O   0  0  0  0  0  0  0  0  0  0  0  0
    7.7892  -15.5712   20.1137 N   0  0  0  0  0  0  0  0  0  0  0  0
    6.7201  -14.8539   20.7267 C   0  0  0  0  0  0  0  0  0  0  0  0
    7.2960  -13.5086   21.0852 C   0  0  0  0  0  0  0  0  0  0  0  0
    8.6845  -13.4812   20.4599 C   0  0  0  0  0  0  0  0  0  0  0  0
    9.0377  -14.9478   20.5878 C   0  0  1  0  0  0  0  0  0  0  0  0
    9.2249  -15.2188   22.0399 C   0  0  0  0  0  0  0  0  0  0  0  0
    8.2670  -15.3494   22.8439 O   0  0  0  0  0  0  0  0  0  0  0  0
   12.3994  -18.4225   23.5804 C   0  0  0  0  0  0  0  0  0  0  0  0
   11.8255  -17.4266   22.5823 C   0  0  1  0  0  0  0  0  0  0  0  0
   11.0616  -18.0796   21.6177 O   0  0  0  0  0  0  0  0  0  0  0  0
   10.8988  -16.5017   23.3452 C   0  0  2  0  0  0  0  0  0  0  0  0
   10.5377  -15.3405   22.5698 N   0  0  0  0  0  0  0  0  0  0  0  0
   11.6104  -16.0970   24.5877 C   0  0  0  0  0  0  0  0  0  0  0  0
   11.3716  -16.7027   25.8110 O   0  0  0  0  0  0  0  0  0  0  0  0
   12.4669  -15.1733   24.5596 O   0  0  0  0  0  0  0  0  0  0  0  0
  2  1  1  0
  2  3  2  0
  4  2  1  0
  5  4  1  0
  6  7  1  6
  6  5  1  0
  8  6  1  0
  9  8  2  0
 10  8  1  0
 11 10  1  0
 12 11  1  0
 13 12  1  0
 13 14  1  0
 14 10  1  0
 14 15  1  1
 15 21  1  0
 16 15  2  0
 18 17  1  1
 18 19  1  0
 18 20  1  0
 20 21  1  6
 20 22  1  0
 22 23  1  0
 24 22  2  0
M  END
$$$$
