QPT.pdb
     RDKit          3D

 24 24  0  0  1  0  0  0  0  0999 V2000
    5.9647  -19.2104   19.7128 N   0  0  0  0  0  0  0  0  0  0  0  0
    7.1867  -19.2476   18.9956 C   0  0  0  0  0  0  0  0  0  0  0  0
    8.2210  -19.7872   19.4769 O   0  0  0  0  0  0  0  0  0  0  0  0
    7.2683  -18.6445   17.6504 C   0  0  0  0  0  0  0  0  0  0  0  0
    6.7786  -17.1944   17.6695 C   0  0  0  0  0  0  0  0  0  0  0  0
    7.8366  -16.2866   17.0696 C   0  0  2  0  0  0  0  0  0  0  0  0
    8.4835  -17.0216   16.0323 N   0  0  0  0  0  0  0  0  0  0  0  0
    8.7511  -15.7777   18.0895 C   0  0  0  0  0  0  0  0  0  0  0  0
    9.9912  -16.0482   17.9594 O   0  0  0  0  0  0  0  0  0  0  0  0
    8.3646  -15.0095   19.2094 N   0  0  0  0  0  0  0  0  0  0  0  0
    7.0501  -14.5966   19.5768 C   0  0  0  0  0  0  0  0  0  0  0  0
    7.2438  -13.4088   20.4832 C   0  0  0  0  0  0  0  0  0  0  0  0
    8.7334  -13.0957   20.4304 C   0  0  0  0  0  0  0  0  0  0  0  0
    9.2708  -14.5000   20.2540 C   0  0  1  0  0  0  0  0  0  0  0  0
    9.0269  -15.2166   21.5362 C   0  0  0  0  0  0  0  0  0  0  0  0
    7.9595  -15.8318   21.7876 O   0  0  0  0  0  0  0  0  0  0  0  0
    9.9833  -17.6409   21.0858 C   0  0  0  0  0  0  0  0  0  0  0  0
   10.9891  -17.4547   22.2131 C   0  0  1  0  0  0  0  0  0  0  0  0
   12.1770  -16.9112   21.7295 O   0  0  0  0  0  0  0  0  0  0  0  0
   10.3981  -16.4575   23.1891 C   0  0  2  0  0  0  0  0  0  0  0  0
   10.0310  -15.2221   22.5417 N   0  0  0  0  0  0  0  0  0  0  0  0
   11.4245  -16.2106   24.2375 C   0  0  0  0  0  0  0  0  0  0  0  0
   11.5823  -17.0442   25.3333 O   0  0  0  0  0  0  0  0  0  0  0  0
   12.1936  -15.2158   24.1549 O   0  0  0  0  0  0  0  0  0  0  0  0
  2  1  1  0
  2  3  2  0
  4  2  1  0
  5  4  1  0
  6  7  1  6
  6  5  1  0
  8  6  1  0
  9  8  2  0
 10  8  1  0
 11 10  1  0
 12 11  1  0
 13 12  1  0
 13 14  1  0
 14 10  1  0
 14 15  1  1
 15 21  1  0
 16 15  2  0
 18 17  1  6
 18 19  1  0
 18 20  1  0
 20 21  1  6
 20 22  1  0
 22 23  1  0
 24 22  2  0
M  END
$$$$
