QPT.pdb
     RDKit          3D

 24 24  0  0  1  0  0  0  0  0999 V2000
   12.0303  -15.7541   20.5379 N   0  0  0  0  0  0  0  0  0  0  0  0
   12.1116  -14.3851   20.1796 C   0  0  0  0  0  0  0  0  0  0  0  0
   13.1020  -13.6733   20.5038 O   0  0  0  0  0  0  0  0  0  0  0  0
   11.0186  -13.7609   19.4079 C   0  0  0  0  0  0  0  0  0  0  0  0
    9.9701  -14.8004   19.0040 C   0  0  0  0  0  0  0  0  0  0  0  0
    8.5914  -14.1658   19.0015 C   0  0  2  0  0  0  0  0  0  0  0  0
    8.7063  -12.9111   18.3327 N   0  0  0  0  0  0  0  0  0  0  0  0
    8.0422  -14.0655   20.3520 C   0  0  0  0  0  0  0  0  0  0  0  0
    7.8169  -12.8974   20.8131 O   0  0  0  0  0  0  0  0  0  0  0  0
    7.7429  -15.1652   21.1855 N   0  0  0  0  0  0  0  0  0  0  0  0
    8.1153  -16.5295   21.0029 C   0  0  0  0  0  0  0  0  0  0  0  0
    7.1340  -17.3243   21.8247 C   0  0  0  0  0  0  0  0  0  0  0  0
    6.0997  -16.3169   22.3094 C   0  0  0  0  0  0  0  0  0  0  0  0
    6.9919  -15.1021   22.4520 C   0  0  1  0  0  0  0  0  0  0  0  0
    7.9018  -15.3707   23.5997 C   0  0  0  0  0  0  0  0  0  0  0  0
    9.0474  -15.8714   23.4661 O   0  0  0  0  0  0  0  0  0  0  0  0
    7.7846  -12.2092   25.7966 C   0  0  0  0  0  0  0  0  0  0  0  0
    7.8759  -13.4254   26.7076 C   0  0  1  0  0  0  0  0  0  0  0  0
    6.6109  -13.8085   27.1472 O   0  0  0  0  0  0  0  0  0  0  0  0
    8.4358  -14.5681   25.8849 C   0  0  2  0  0  0  0  0  0  0  0  0
    7.4813  -15.0560   24.9201 N   0  0  0  0  0  0  0  0  0  0  0  0
    8.8126  -15.6484   26.8362 C   0  0  0  0  0  0  0  0  0  0  0  0
    9.8556  -15.5128   27.7385 O   0  0  0  0  0  0  0  0  0  0  0  0
    8.1799  -16.7380   26.8464 O   0  0  0  0  0  0  0  0  0  0  0  0
  2  1  1  0
  2  3  2  0
  4  2  1  0
  5  4  1  0
  6  7  1  1
  6  5  1  0
  8  6  1  0
  9  8  2  0
 10  8  1  0
 11 10  1  0
 12 11  1  0
 13 12  1  0
 13 14  1  0
 14 10  1  0
 14 15  1  1
 15 21  1  0
 16 15  2  0
 18 17  1  6
 18 19  1  0
 18 20  1  0
 20 21  1  6
 20 22  1  0
 22 23  1  0
 24 22  2  0
M  END
$$$$
