QPT.pdb
     RDKit          3D

 24 24  0  0  1  0  0  0  0  0999 V2000
    5.3344  -17.5941   21.2609 N   0  0  0  0  0  0  0  0  0  0  0  0
    6.7461  -17.5346   21.1492 C   0  0  0  0  0  0  0  0  0  0  0  0
    7.4431  -18.5759   20.9990 O   0  0  0  0  0  0  0  0  0  0  0  0
    7.4339  -16.2295   21.2080 C   0  0  0  0  0  0  0  0  0  0  0  0
    6.4463  -15.1035   21.5239 C   0  0  0  0  0  0  0  0  0  0  0  0
    7.1916  -13.7879   21.6555 C   0  0  2  0  0  0  0  0  0  0  0  0
    7.7713  -13.5029   20.3837 N   0  0  0  0  0  0  0  0  0  0  0  0
    8.1598  -13.8244   22.7495 C   0  0  0  0  0  0  0  0  0  0  0  0
    9.3980  -13.8441   22.4424 O   0  0  0  0  0  0  0  0  0  0  0  0
    7.8273  -13.8406   24.1216 N   0  0  0  0  0  0  0  0  0  0  0  0
    6.5274  -13.8494   24.7078 C   0  0  0  0  0  0  0  0  0  0  0  0
    6.7188  -13.3337   26.1105 C   0  0  0  0  0  0  0  0  0  0  0  0
    8.1688  -12.8728   26.1799 C   0  0  0  0  0  0  0  0  0  0  0  0
    8.7898  -13.8814   25.2370 C   0  0  1  0  0  0  0  0  0  0  0  0
    8.7252  -15.2031   25.9197 C   0  0  0  0  0  0  0  0  0  0  0  0
    7.6441  -15.7876   26.1850 O   0  0  0  0  0  0  0  0  0  0  0  0
   10.4584  -17.7475   24.1198 C   0  0  0  0  0  0  0  0  0  0  0  0
   10.9465  -17.9561   25.5465 C   0  0  1  0  0  0  0  0  0  0  0  0
   12.1764  -17.3323   25.7432 O   0  0  0  0  0  0  0  0  0  0  0  0
    9.9471  -17.2901   26.4704 C   0  0  2  0  0  0  0  0  0  0  0  0
    9.9273  -15.8580   26.3010 N   0  0  0  0  0  0  0  0  0  0  0  0
   10.3349  -17.6441   27.8626 C   0  0  0  0  0  0  0  0  0  0  0  0
   10.2888  -18.9448   28.3384 O   0  0  0  0  0  0  0  0  0  0  0  0
   10.7237  -16.7514   28.6625 O   0  0  0  0  0  0  0  0  0  0  0  0
  2  1  1  0
  2  3  2  0
  4  2  1  0
  5  4  1  0
  6  7  1  6
  6  5  1  0
  8  6  1  0
  9  8  2  0
 10  8  1  0
 11 10  1  0
 12 11  1  0
 13 12  1  0
 13 14  1  0
 14 10  1  0
 14 15  1  1
 15 21  1  0
 16 15  2  0
 18 17  1  6
 18 19  1  0
 18 20  1  0
 20 21  1  1
 20 22  1  0
 22 23  1  0
 24 22  2  0
M  END
$$$$
