DQD.pdb
     RDKit          3D

 26 25  0  0  1  0  0  0  0  0999 V2000
   16.3751  -10.8798  -15.3094 N   0  0  0  0  0  0  0  0  0  0  0  0
   16.7055   -9.6214  -15.9037 C   0  0  1  0  0  0  0  0  0  0  0  0
   15.6241   -8.6095  -15.5867 C   0  0  0  0  0  0  0  0  0  0  0  0
   14.3651   -9.0583  -16.2244 C   0  0  0  0  0  0  0  0  0  0  0  0
   14.3019   -9.3454  -17.4451 O   0  0  0  0  0  0  0  0  0  0  0  0
   18.0313   -9.1928  -15.4053 C   0  0  0  0  0  0  0  0  0  0  0  0
   18.2365   -8.7750  -14.2358 O   0  0  0  0  0  0  0  0  0  0  0  0
   13.1846   -9.1827  -15.4895 O   0  0  0  0  0  0  0  0  0  0  0  0
   20.2429  -11.5197  -18.3663 N   0  0  0  0  0  0  0  0  0  0  0  0
   20.8464  -12.0594  -17.2039 C   0  0  0  0  0  0  0  0  0  0  0  0
   20.8131  -13.3016  -17.0437 O   0  0  0  0  0  0  0  0  0  0  0  0
   21.4915  -11.1854  -16.2175 C   0  0  0  0  0  0  0  0  0  0  0  0
   21.4927   -9.7388  -16.6545 C   0  0  0  0  0  0  0  0  0  0  0  0
   20.5037   -8.9189  -15.8464 C   0  0  2  0  0  0  0  0  0  0  0  0
   19.1581   -9.2455  -16.2773 N   0  0  0  0  0  0  0  0  0  0  0  0
   20.7797   -7.4734  -15.9967 C   0  0  0  0  0  0  0  0  0  0  0  0
   20.4224   -6.8627  -17.0367 O   0  0  0  0  0  0  0  0  0  0  0  0
   21.4501   -6.7621  -14.9693 N   0  0  0  0  0  0  0  0  0  0  0  0
   21.5176   -5.3009  -15.0390 C   0  0  1  0  0  0  0  0  0  0  0  0
   20.1048   -4.7786  -14.9240 C   0  0  0  0  0  0  0  0  0  0  0  0
   20.0899   -3.3126  -14.8437 C   0  0  0  0  0  0  0  0  0  0  0  0
   20.7103   -2.6346  -15.7002 O   0  0  0  0  0  0  0  0  0  0  0  0
   22.3593   -4.7869  -13.9459 C   0  0  0  0  0  0  0  0  0  0  0  0
   22.8155   -5.4704  -13.0048 O   0  0  0  0  0  0  0  0  0  0  0  0
   19.4122   -2.6189  -13.8507 O   0  0  0  0  0  0  0  0  0  0  0  0
   22.6981   -3.4238  -13.9246 O   0  0  0  0  0  0  0  0  0  0  0  0
  2  1  1  1
  2  3  1  0
  3  4  1  0
  4  5  2  0
  4  8  1  0
  6  7  2  0
  6  2  1  0
  9 10  1  0
 10 12  1  0
 11 10  2  0
 12 13  1  0
 14 13  1  6
 14 15  1  0
 15  6  1  0
 16 14  1  0
 16 17  2  0
 18 16  1  0
 19 18  1  0
 19 20  1  1
 20 21  1  0
 21 22  2  0
 21 25  1  0
 23 19  1  0
 24 23  2  0
 26 23  1  0
M  END
$$$$
