DQD.pdb
     RDKit          3D

 26 25  0  0  1  0  0  0  0  0999 V2000
   16.8652  -12.0909  -16.5949 N   0  0  0  0  0  0  0  0  0  0  0  0
   17.3477  -10.8975  -17.2185 C   0  0  1  0  0  0  0  0  0  0  0  0
   16.1933   -9.9475  -17.4607 C   0  0  0  0  0  0  0  0  0  0  0  0
   15.2677  -10.5772  -18.4301 C   0  0  0  0  0  0  0  0  0  0  0  0
   15.6715  -11.0779  -19.5084 O   0  0  0  0  0  0  0  0  0  0  0  0
   18.3899  -10.2975  -16.3560 C   0  0  0  0  0  0  0  0  0  0  0  0
   18.1791   -9.8955  -15.1819 O   0  0  0  0  0  0  0  0  0  0  0  0
   13.8949  -10.6418  -18.1846 O   0  0  0  0  0  0  0  0  0  0  0  0
   24.5262  -11.5378  -16.7859 N   0  0  0  0  0  0  0  0  0  0  0  0
   24.4870  -10.4711  -15.8546 C   0  0  0  0  0  0  0  0  0  0  0  0
   25.5465  -10.1689  -15.2580 O   0  0  0  0  0  0  0  0  0  0  0  0
   23.2392   -9.7430  -15.5985 C   0  0  0  0  0  0  0  0  0  0  0  0
   22.0899  -10.2776  -16.4213 C   0  0  0  0  0  0  0  0  0  0  0  0
   20.7926   -9.5667  -16.0821 C   0  0  2  0  0  0  0  0  0  0  0  0
   19.7170  -10.1543  -16.8571 N   0  0  0  0  0  0  0  0  0  0  0  0
   20.9106   -8.1151  -16.3416 C   0  0  0  0  0  0  0  0  0  0  0  0
   20.6322   -7.6474  -17.4756 O   0  0  0  0  0  0  0  0  0  0  0  0
   21.3390   -7.2367  -15.3141 N   0  0  0  0  0  0  0  0  0  0  0  0
   21.3661   -5.7954  -15.5716 C   0  0  1  0  0  0  0  0  0  0  0  0
   19.9358   -5.3421  -15.7471 C   0  0  0  0  0  0  0  0  0  0  0  0
   19.8623   -3.8863  -15.9232 C   0  0  0  0  0  0  0  0  0  0  0  0
   20.5571   -3.3292  -16.8092 O   0  0  0  0  0  0  0  0  0  0  0  0
   22.0044   -5.0982  -14.4429 C   0  0  0  0  0  0  0  0  0  0  0  0
   22.1409   -5.5643  -13.2918 O   0  0  0  0  0  0  0  0  0  0  0  0
   19.0485   -3.0732  -15.1465 O   0  0  0  0  0  0  0  0  0  0  0  0
   22.5130   -3.8032  -14.6365 O   0  0  0  0  0  0  0  0  0  0  0  0
  2  1  1  1
  2  3  1  0
  3  4  1  0
  4  5  2  0
  4  8  1  0
  6  7  2  0
  6  2  1  0
  9 10  1  0
 10 12  1  0
 11 10  2  0
 12 13  1  0
 14 13  1  6
 14 15  1  0
 15  6  1  0
 16 14  1  0
 16 17  2  0
 18 16  1  0
 19 18  1  0
 19 20  1  1
 20 21  1  0
 21 22  2  0
 21 25  1  0
 23 19  1  0
 24 23  2  0
 26 23  1  0
M  END
$$$$
