DQD.pdb
     RDKit          3D

 26 25  0  0  1  0  0  0  0  0999 V2000
   20.5203  -12.6362  -16.9892 N   0  0  0  0  0  0  0  0  0  0  0  0
   21.3549  -11.7589  -17.7506 C   0  0  1  0  0  0  0  0  0  0  0  0
   20.5406  -11.1080  -18.8491 C   0  0  0  0  0  0  0  0  0  0  0  0
   20.0138  -12.1739  -19.7321 C   0  0  0  0  0  0  0  0  0  0  0  0
   18.8367  -12.1565  -20.1685 O   0  0  0  0  0  0  0  0  0  0  0  0
   21.9548  -10.7608  -16.8374 C   0  0  0  0  0  0  0  0  0  0  0  0
   21.3195  -10.1877  -15.9141 O   0  0  0  0  0  0  0  0  0  0  0  0
   20.8102  -13.2528  -20.1205 O   0  0  0  0  0  0  0  0  0  0  0  0
   28.2039  -10.2550  -16.3601 N   0  0  0  0  0  0  0  0  0  0  0  0
   27.3515  -11.2701  -15.8603 C   0  0  0  0  0  0  0  0  0  0  0  0
   27.8710  -12.3490  -15.4919 O   0  0  0  0  0  0  0  0  0  0  0  0
   25.9017  -11.0603  -15.7779 C   0  0  0  0  0  0  0  0  0  0  0  0
   25.5011   -9.6751  -16.2300 C   0  0  0  0  0  0  0  0  0  0  0  0
   24.0019   -9.4699  -16.1129 C   0  0  2  0  0  0  0  0  0  0  0  0
   23.3282  -10.4091  -16.9887 N   0  0  0  0  0  0  0  0  0  0  0  0
   23.6398   -8.0739  -16.4421 C   0  0  0  0  0  0  0  0  0  0  0  0
   23.8817   -7.6070  -17.5848 O   0  0  0  0  0  0  0  0  0  0  0  0
   23.0163   -7.2483  -15.4722 N   0  0  0  0  0  0  0  0  0  0  0  0
   22.6605   -5.8730  -15.8273 C   0  0  1  0  0  0  0  0  0  0  0  0
   21.2008   -5.8714  -16.2166 C   0  0  0  0  0  0  0  0  0  0  0  0
   20.7477   -4.5169  -16.5568 C   0  0  0  0  0  0  0  0  0  0  0  0
   21.5423   -3.7121  -17.1037 O   0  0  0  0  0  0  0  0  0  0  0  0
   22.8998   -4.9828  -14.6793 C   0  0  0  0  0  0  0  0  0  0  0  0
   22.9408   -5.3432  -13.4837 O   0  0  0  0  0  0  0  0  0  0  0  0
   19.4599   -4.0665  -16.3013 O   0  0  0  0  0  0  0  0  0  0  0  0
   23.1027   -3.6114  -14.9060 O   0  0  0  0  0  0  0  0  0  0  0  0
  2  1  1  1
  2  3  1  0
  3  4  1  0
  4  5  2  0
  4  8  1  0
  6  7  2  0
  6  2  1  0
  9 10  1  0
 10 12  1  0
 11 10  2  0
 12 13  1  0
 14 13  1  6
 14 15  1  0
 15  6  1  0
 16 14  1  0
 16 17  2  0
 18 16  1  0
 19 18  1  0
 19 20  1  1
 20 21  1  0
 21 22  2  0
 21 25  1  0
 23 19  1  0
 24 23  2  0
 26 23  1  0
M  END
$$$$
