DQD.pdb
     RDKit          3D

 26 25  0  0  1  0  0  0  0  0999 V2000
   26.3474  -19.7582  -18.2254 N   0  0  0  0  0  0  0  0  0  0  0  0
   25.7704  -18.9715  -17.1794 C   0  0  1  0  0  0  0  0  0  0  0  0
   24.9128  -17.8771  -17.7798 C   0  0  0  0  0  0  0  0  0  0  0  0
   25.7920  -16.7405  -18.1381 C   0  0  0  0  0  0  0  0  0  0  0  0
   27.0419  -16.8521  -18.1795 O   0  0  0  0  0  0  0  0  0  0  0  0
   24.9930  -19.8611  -16.2882 C   0  0  0  0  0  0  0  0  0  0  0  0
   24.1431  -20.6933  -16.7000 O   0  0  0  0  0  0  0  0  0  0  0  0
   25.2643  -15.4857  -18.4481 O   0  0  0  0  0  0  0  0  0  0  0  0
   26.2186  -20.6912  -10.0593 N   0  0  0  0  0  0  0  0  0  0  0  0
   24.9015  -21.1904  -10.2100 C   0  0  0  0  0  0  0  0  0  0  0  0
   24.3124  -21.6195   -9.1909 O   0  0  0  0  0  0  0  0  0  0  0  0
   24.2487  -21.2030  -11.5240 C   0  0  0  0  0  0  0  0  0  0  0  0
   25.1076  -20.5657  -12.5915 C   0  0  0  0  0  0  0  0  0  0  0  0
   24.3911  -20.5354  -13.9291 C   0  0  2  0  0  0  0  0  0  0  0  0
   25.1976  -19.7934  -14.8788 N   0  0  0  0  0  0  0  0  0  0  0  0
   23.0452  -19.9383  -13.7857 C   0  0  0  0  0  0  0  0  0  0  0  0
   22.9138  -18.7607  -13.3634 O   0  0  0  0  0  0  0  0  0  0  0  0
   21.8898  -20.6882  -14.1231 N   0  0  0  0  0  0  0  0  0  0  0  0
   20.5668  -20.1062  -13.8880 C   0  0  1  0  0  0  0  0  0  0  0  0
   19.8415  -20.0862  -15.2131 C   0  0  0  0  0  0  0  0  0  0  0  0
   18.5101  -19.4826  -15.0760 C   0  0  0  0  0  0  0  0  0  0  0  0
   18.2521  -18.7601  -14.0812 O   0  0  0  0  0  0  0  0  0  0  0  0
   19.8340  -20.9143  -12.8993 C   0  0  0  0  0  0  0  0  0  0  0  0
   20.0471  -22.1207  -12.6538 O   0  0  0  0  0  0  0  0  0  0  0  0
   17.4977  -19.6708  -16.0067 O   0  0  0  0  0  0  0  0  0  0  0  0
   18.8055  -20.3165  -12.1523 O   0  0  0  0  0  0  0  0  0  0  0  0
  2  1  1  6
  2  3  1  0
  3  4  1  0
  4  5  2  0
  4  8  1  0
  6  7  2  0
  6  2  1  0
  9 10  1  0
 10 12  1  0
 11 10  2  0
 12 13  1  0
 14 13  1  1
 14 15  1  0
 15  6  1  0
 16 14  1  0
 16 17  2  0
 18 16  1  0
 19 18  1  0
 19 20  1  6
 20 21  1  0
 21 22  2  0
 21 25  1  0
 23 19  1  0
 24 23  2  0
 26 23  1  0
M  END
$$$$
