DQD.pdb
     RDKit          3D

 26 25  0  0  1  0  0  0  0  0999 V2000
   20.2579  -16.6670  -15.5497 N   0  0  0  0  0  0  0  0  0  0  0  0
   19.6373  -15.3838  -15.4310 C   0  0  1  0  0  0  0  0  0  0  0  0
   18.9059  -15.2928  -14.1079 C   0  0  0  0  0  0  0  0  0  0  0  0
   17.7909  -16.2672  -14.1243 C   0  0  0  0  0  0  0  0  0  0  0  0
   17.2139  -16.6018  -15.1881 O   0  0  0  0  0  0  0  0  0  0  0  0
   20.6760  -14.3383  -15.5651 C   0  0  0  0  0  0  0  0  0  0  0  0
   21.6905  -14.2620  -14.8239 O   0  0  0  0  0  0  0  0  0  0  0  0
   17.3295  -16.8606  -12.9479 O   0  0  0  0  0  0  0  0  0  0  0  0
   23.2686  -12.5010  -20.7028 N   0  0  0  0  0  0  0  0  0  0  0  0
   23.6468  -11.4411  -19.8425 C   0  0  0  0  0  0  0  0  0  0  0  0
   24.4445  -10.5804  -20.2813 O   0  0  0  0  0  0  0  0  0  0  0  0
   23.1173  -11.3569  -18.4767 C   0  0  0  0  0  0  0  0  0  0  0  0
   22.0912  -12.4306  -18.1976 C   0  0  0  0  0  0  0  0  0  0  0  0
   21.5280  -12.3022  -16.7941 C   0  0  2  0  0  0  0  0  0  0  0  0
   20.5463  -13.3484  -16.5830 N   0  0  0  0  0  0  0  0  0  0  0  0
   20.9364  -10.9617  -16.5908 C   0  0  0  0  0  0  0  0  0  0  0  0
   19.8178  -10.6778  -17.0913 O   0  0  0  0  0  0  0  0  0  0  0  0
   21.6249   -9.9834  -15.8292 N   0  0  0  0  0  0  0  0  0  0  0  0
   20.9920   -8.6834  -15.5969 C   0  0  1  0  0  0  0  0  0  0  0  0
   21.5486   -8.1361  -14.3035 C   0  0  0  0  0  0  0  0  0  0  0  0
   20.8231   -8.6767  -13.1471 C   0  0  0  0  0  0  0  0  0  0  0  0
   19.7879   -9.3656  -13.3265 O   0  0  0  0  0  0  0  0  0  0  0  0
   21.2839   -7.7778  -16.7203 C   0  0  0  0  0  0  0  0  0  0  0  0
   20.4567   -7.0180  -17.2676 O   0  0  0  0  0  0  0  0  0  0  0  0
   21.2275   -8.4634  -11.8366 O   0  0  0  0  0  0  0  0  0  0  0  0
   22.5856   -7.7361  -17.2467 O   0  0  0  0  0  0  0  0  0  0  0  0
  2  1  1  1
  2  3  1  0
  3  4  1  0
  4  5  2  0
  4  8  1  0
  6  7  2  0
  6  2  1  0
  9 10  1  0
 10 12  1  0
 11 10  2  0
 12 13  1  0
 14 13  1  6
 14 15  1  0
 15  6  1  0
 16 14  1  0
 16 17  2  0
 18 16  1  0
 19 18  1  0
 19 20  1  1
 20 21  1  0
 21 22  2  0
 21 25  1  0
 23 19  1  0
 24 23  2  0
 26 23  1  0
M  END
$$$$
