DQD.pdb
     RDKit          3D

 26 25  0  0  1  0  0  0  0  0999 V2000
   18.7641  -10.0206  -16.5768 N   0  0  0  0  0  0  0  0  0  0  0  0
   17.9282   -9.5695  -15.5073 C   0  0  1  0  0  0  0  0  0  0  0  0
   17.9780  -10.5660  -14.3678 C   0  0  0  0  0  0  0  0  0  0  0  0
   17.2673  -11.7940  -14.7918 C   0  0  0  0  0  0  0  0  0  0  0  0
   17.2792  -12.1936  -15.9821 O   0  0  0  0  0  0  0  0  0  0  0  0
   18.3764   -8.2229  -15.0883 C   0  0  0  0  0  0  0  0  0  0  0  0
   17.8742   -7.5878  -14.1244 O   0  0  0  0  0  0  0  0  0  0  0  0
   16.5476  -12.5668  -13.8786 O   0  0  0  0  0  0  0  0  0  0  0  0
   21.6318   -4.7369  -13.2197 N   0  0  0  0  0  0  0  0  0  0  0  0
   22.0822   -6.0694  -13.0522 C   0  0  0  0  0  0  0  0  0  0  0  0
   22.5142   -6.4097  -11.9265 O   0  0  0  0  0  0  0  0  0  0  0  0
   22.0426   -7.0216  -14.1679 C   0  0  0  0  0  0  0  0  0  0  0  0
   21.5047   -6.3932  -15.4326 C   0  0  0  0  0  0  0  0  0  0  0  0
   19.9900   -6.3045  -15.4021 C   0  0  2  0  0  0  0  0  0  0  0  0
   19.4351   -7.5844  -15.7984 N   0  0  0  0  0  0  0  0  0  0  0  0
   19.5139   -5.2166  -16.2842 C   0  0  0  0  0  0  0  0  0  0  0  0
   19.8208   -5.2069  -17.5040 O   0  0  0  0  0  0  0  0  0  0  0  0
   18.7066   -4.1737  -15.7628 N   0  0  0  0  0  0  0  0  0  0  0  0
   18.2577   -3.1034  -16.6557 C   0  0  1  0  0  0  0  0  0  0  0  0
   16.7491   -3.0637  -16.5886 C   0  0  0  0  0  0  0  0  0  0  0  0
   16.2877   -2.8827  -15.2066 C   0  0  0  0  0  0  0  0  0  0  0  0
   16.9595   -3.3577  -14.2573 O   0  0  0  0  0  0  0  0  0  0  0  0
   18.8374   -1.8196  -16.2276 C   0  0  0  0  0  0  0  0  0  0  0  0
   19.4551   -1.6282  -15.1585 O   0  0  0  0  0  0  0  0  0  0  0  0
   15.1231   -2.1997  -14.8840 O   0  0  0  0  0  0  0  0  0  0  0  0
   18.7062   -0.6964  -17.0610 O   0  0  0  0  0  0  0  0  0  0  0  0
  2  1  1  6
  2  3  1  0
  3  4  1  0
  4  5  2  0
  4  8  1  0
  6  7  2  0
  6  2  1  0
  9 10  1  0
 10 12  1  0
 11 10  2  0
 12 13  1  0
 14 13  1  6
 14 15  1  0
 15  6  1  0
 16 14  1  0
 16 17  2  0
 18 16  1  0
 19 18  1  0
 19 20  1  1
 20 21  1  0
 21 22  2  0
 21 25  1  0
 23 19  1  0
 24 23  2  0
 26 23  1  0
M  END
$$$$
