DQD.pdb
     RDKit          3D

 26 25  0  0  1  0  0  0  0  0999 V2000
   17.9378  -11.8344  -13.3272 N   0  0  0  0  0  0  0  0  0  0  0  0
   17.6031  -10.7390  -14.1840 C   0  0  1  0  0  0  0  0  0  0  0  0
   17.0425  -11.2662  -15.4884 C   0  0  0  0  0  0  0  0  0  0  0  0
   16.4840  -12.6157  -15.2436 C   0  0  0  0  0  0  0  0  0  0  0  0
   15.7384  -12.8607  -14.2635 O   0  0  0  0  0  0  0  0  0  0  0  0
   16.6420   -9.8608  -13.4804 C   0  0  0  0  0  0  0  0  0  0  0  0
   16.1386   -8.8259  -13.9903 O   0  0  0  0  0  0  0  0  0  0  0  0
   16.7648  -13.6826  -16.0993 O   0  0  0  0  0  0  0  0  0  0  0  0
   12.5113  -12.1070   -9.4453 N   0  0  0  0  0  0  0  0  0  0  0  0
   12.2906  -10.7117   -9.3402 C   0  0  0  0  0  0  0  0  0  0  0  0
   11.2807  -10.3193   -8.7109 O   0  0  0  0  0  0  0  0  0  0  0  0
   13.2205   -9.7559   -9.9523 C   0  0  0  0  0  0  0  0  0  0  0  0
   14.3643  -10.4475  -10.6573 C   0  0  0  0  0  0  0  0  0  0  0  0
   15.2070   -9.4578  -11.4407 C   0  0  2  0  0  0  0  0  0  0  0  0
   16.2459  -10.1806  -12.1486 N   0  0  0  0  0  0  0  0  0  0  0  0
   15.7828   -8.4357  -10.5394 C   0  0  0  0  0  0  0  0  0  0  0  0
   16.6922   -8.7443   -9.7269 O   0  0  0  0  0  0  0  0  0  0  0  0
   15.3148   -7.0978  -10.5828 N   0  0  0  0  0  0  0  0  0  0  0  0
   15.8657   -6.1175   -9.6447 C   0  0  1  0  0  0  0  0  0  0  0  0
   16.1267   -4.8482  -10.4210 C   0  0  0  0  0  0  0  0  0  0  0  0
   16.5921   -3.7745   -9.5343 C   0  0  0  0  0  0  0  0  0  0  0  0
   16.8869   -4.0346   -8.3411 O   0  0  0  0  0  0  0  0  0  0  0  0
   14.9082   -5.8787   -8.5522 C   0  0  0  0  0  0  0  0  0  0  0  0
   13.6919   -6.1629   -8.5844 O   0  0  0  0  0  0  0  0  0  0  0  0
   16.7274   -2.4576   -9.9517 O   0  0  0  0  0  0  0  0  0  0  0  0
   15.3604   -5.2853   -7.3620 O   0  0  0  0  0  0  0  0  0  0  0  0
  2  1  1  1
  2  3  1  0
  3  4  1  0
  4  5  2  0
  4  8  1  0
  6  7  2  0
  6  2  1  0
  9 10  1  0
 10 12  1  0
 11 10  2  0
 12 13  1  0
 14 13  1  1
 14 15  1  0
 15  6  1  0
 16 14  1  0
 16 17  2  0
 18 16  1  0
 19 18  1  0
 19 20  1  6
 20 21  1  0
 21 22  2  0
 21 25  1  0
 23 19  1  0
 24 23  2  0
 26 23  1  0
M  END
$$$$
