DQD.pdb
     RDKit          3D

 26 25  0  0  1  0  0  0  0  0999 V2000
   27.8397  -24.2730  -17.2217 N   0  0  0  0  0  0  0  0  0  0  0  0
   27.0285  -23.2636  -17.8293 C   0  0  1  0  0  0  0  0  0  0  0  0
   26.0633  -23.9052  -18.8042 C   0  0  0  0  0  0  0  0  0  0  0  0
   26.8450  -24.4820  -19.9219 C   0  0  0  0  0  0  0  0  0  0  0  0
   27.7184  -23.8206  -20.5352 O   0  0  0  0  0  0  0  0  0  0  0  0
   26.3266  -22.5125  -16.7649 C   0  0  0  0  0  0  0  0  0  0  0  0
   25.9892  -23.0150  -15.6612 O   0  0  0  0  0  0  0  0  0  0  0  0
   26.6428  -25.7969  -20.3451 O   0  0  0  0  0  0  0  0  0  0  0  0
   27.2432  -17.2147  -17.9334 N   0  0  0  0  0  0  0  0  0  0  0  0
   28.0121  -17.8300  -16.9152 C   0  0  0  0  0  0  0  0  0  0  0  0
   29.2426  -17.5965  -16.8818 O   0  0  0  0  0  0  0  0  0  0  0  0
   27.3819  -18.7151  -15.9291 C   0  0  0  0  0  0  0  0  0  0  0  0
   25.8972  -18.8654  -16.1671 C   0  0  0  0  0  0  0  0  0  0  0  0
   25.4446  -20.2953  -15.9350 C   0  0  2  0  0  0  0  0  0  0  0  0
   26.0013  -21.1401  -16.9739 N   0  0  0  0  0  0  0  0  0  0  0  0
   23.9677  -20.3768  -15.9106 C   0  0  0  0  0  0  0  0  0  0  0  0
   23.3204  -20.5065  -16.9813 O   0  0  0  0  0  0  0  0  0  0  0  0
   23.2673  -20.3095  -14.6794 N   0  0  0  0  0  0  0  0  0  0  0  0
   21.8034  -20.3455  -14.6874 C   0  0  1  0  0  0  0  0  0  0  0  0
   21.3869  -21.7832  -14.4832 C   0  0  0  0  0  0  0  0  0  0  0  0
   19.9266  -21.9225  -14.5439 C   0  0  0  0  0  0  0  0  0  0  0  0
   19.3676  -22.8895  -13.9688 O   0  0  0  0  0  0  0  0  0  0  0  0
   21.2766  -19.4875  -13.6133 C   0  0  0  0  0  0  0  0  0  0  0  0
   21.8842  -19.1937  -12.5618 O   0  0  0  0  0  0  0  0  0  0  0  0
   19.1110  -21.0236  -15.2173 O   0  0  0  0  0  0  0  0  0  0  0  0
   19.9913  -18.9361  -13.7445 O   0  0  0  0  0  0  0  0  0  0  0  0
  2  1  1  1
  2  3  1  0
  3  4  1  0
  4  5  2  0
  4  8  1  0
  6  7  2  0
  6  2  1  0
  9 10  1  0
 10 12  1  0
 11 10  2  0
 12 13  1  0
 14 13  1  6
 14 15  1  0
 15  6  1  0
 16 14  1  0
 16 17  2  0
 18 16  1  0
 19 18  1  0
 19 20  1  1
 20 21  1  0
 21 22  2  0
 21 25  1  0
 23 19  1  0
 24 23  2  0
 26 23  1  0
M  END
$$$$
