DQD.pdb
     RDKit          3D

 26 25  0  0  1  0  0  0  0  0999 V2000
   19.6880  -29.1144   -3.5094 N   0  0  0  0  0  0  0  0  0  0  0  0
   18.5958  -28.7110   -2.6786 C   0  0  1  0  0  0  0  0  0  0  0  0
   18.8839  -29.0889   -1.2405 C   0  0  0  0  0  0  0  0  0  0  0  0
   17.7205  -29.8389   -0.7142 C   0  0  0  0  0  0  0  0  0  0  0  0
   16.7301  -30.1223   -1.4321 O   0  0  0  0  0  0  0  0  0  0  0  0
   18.3875  -27.2548   -2.8397 C   0  0  0  0  0  0  0  0  0  0  0  0
   18.8200  -26.3933   -2.0303 O   0  0  0  0  0  0  0  0  0  0  0  0
   17.6746  -30.2669    0.6139 O   0  0  0  0  0  0  0  0  0  0  0  0
   18.9041  -24.5200   -8.1889 N   0  0  0  0  0  0  0  0  0  0  0  0
   17.8432  -25.4448   -8.0276 C   0  0  0  0  0  0  0  0  0  0  0  0
   17.3062  -25.9131   -9.0582 O   0  0  0  0  0  0  0  0  0  0  0  0
   17.3887  -25.8407   -6.6899 C   0  0  0  0  0  0  0  0  0  0  0  0
   18.0616  -25.0384   -5.6003 C   0  0  0  0  0  0  0  0  0  0  0  0
   17.4744  -25.3593   -4.2381 C   0  0  2  0  0  0  0  0  0  0  0  0
   17.6593  -26.7717   -3.9663 N   0  0  0  0  0  0  0  0  0  0  0  0
   16.0441  -24.9852   -4.1860 C   0  0  0  0  0  0  0  0  0  0  0  0
   15.1614  -25.7917   -4.5768 O   0  0  0  0  0  0  0  0  0  0  0  0
   15.6543  -23.7132   -3.6949 N   0  0  0  0  0  0  0  0  0  0  0  0
   14.2319  -23.3676   -3.6564 C   0  0  1  0  0  0  0  0  0  0  0  0
   14.0805  -22.1848   -2.7289 C   0  0  0  0  0  0  0  0  0  0  0  0
   12.6749  -21.9850   -2.3548 C   0  0  0  0  0  0  0  0  0  0  0  0
   12.3583  -21.0253   -1.6085 O   0  0  0  0  0  0  0  0  0  0  0  0
   13.7611  -23.0372   -5.0116 C   0  0  0  0  0  0  0  0  0  0  0  0
   12.5783  -23.1230   -5.4049 O   0  0  0  0  0  0  0  0  0  0  0  0
   11.6532  -22.8174   -2.7905 O   0  0  0  0  0  0  0  0  0  0  0  0
   14.6862  -22.5859   -5.9675 O   0  0  0  0  0  0  0  0  0  0  0  0
  2  1  1  6
  2  3  1  0
  3  4  1  0
  4  5  2  0
  4  8  1  0
  6  7  2  0
  6  2  1  0
  9 10  1  0
 10 12  1  0
 11 10  2  0
 12 13  1  0
 14 13  1  6
 14 15  1  0
 15  6  1  0
 16 14  1  0
 16 17  2  0
 18 16  1  0
 19 18  1  0
 19 20  1  1
 20 21  1  0
 21 22  2  0
 21 25  1  0
 23 19  1  0
 24 23  2  0
 26 23  1  0
M  END
$$$$
