VEF.pdb
     RDKit          3D

 28 28  0  0  1  0  0  0  0  0999 V2000
   18.9436  -19.9957  -10.2182 C   0  0  0  0  0  0  0  0  0  0  0  0
   20.1335  -20.1572  -11.1357 C   0  0  2  0  0  0  0  0  0  0  0  0
   21.2607  -19.2351  -10.7244 C   0  0  0  0  0  0  0  0  0  0  0  0
   19.7233  -19.8642  -12.5607 C   0  0  2  0  0  0  0  0  0  0  0  0
   18.4683  -20.4874  -12.8419 N   0  0  0  0  0  0  0  0  0  0  0  0
   20.8130  -20.2479  -13.5014 C   0  0  0  0  0  0  0  0  0  0  0  0
   20.9958  -21.4823  -13.6760 O   0  0  0  0  0  0  0  0  0  0  0  0
   21.6376  -19.3445  -14.1963 N   0  0  0  0  0  0  0  0  0  0  0  0
   22.6787  -19.7172  -15.1188 C   0  0  1  0  0  0  0  0  0  0  0  0
   22.9105  -18.7437  -16.2234 C   0  0  0  0  0  0  0  0  0  0  0  0
   23.9423  -19.1378  -17.2288 C   0  0  0  0  0  0  0  0  0  0  0  0
   23.4589  -20.2242  -18.0970 C   0  0  0  0  0  0  0  0  0  0  0  0
   24.2144  -21.1720  -18.3861 O   0  0  0  0  0  0  0  0  0  0  0  0
   23.9616  -19.7970  -14.3400 C   0  0  0  0  0  0  0  0  0  0  0  0
   24.3810  -18.7950  -13.7099 O   0  0  0  0  0  0  0  0  0  0  0  0
   22.1729  -20.1975  -18.5921 O   0  0  0  0  0  0  0  0  0  0  0  0
   24.7160  -20.9888  -14.3009 N   0  0  0  0  0  0  0  0  0  0  0  0
   26.0381  -20.9825  -13.6572 C   0  0  1  0  0  0  0  0  0  0  0  0
   26.0684  -21.9510  -12.5240 C   0  0  0  0  0  0  0  0  0  0  0  0
   25.5276  -21.3425  -11.3029 C   0  0  0  0  0  0  0  0  0  0  0  0
   26.3241  -20.5708  -10.4908 C   0  0  0  0  0  0  0  0  0  0  0  0
   25.8092  -19.9942   -9.3409 C   0  0  0  0  0  0  0  0  0  0  0  0
   24.4972  -20.1920   -9.0069 C   0  0  0  0  0  0  0  0  0  0  0  0
   23.6611  -20.9656   -9.8022 C   0  0  0  0  0  0  0  0  0  0  0  0
   24.2162  -21.5182  -10.9345 C   0  0  0  0  0  0  0  0  0  0  0  0
   27.0912  -21.1920  -14.6517 C   0  0  0  0  0  0  0  0  0  0  0  0
   26.8350  -21.3464  -15.8671 O   0  0  0  0  0  0  0  0  0  0  0  0
   28.4196  -21.2207  -14.2328 O   0  0  0  0  0  0  0  0  0  0  0  0
  2  1  1  1
  3  2  1  0
  4  5  1  6
  4  2  1  0
  6  4  1  0
  7  6  2  0
  8  6  1  0
  9  8  1  0
 10 11  1  0
  9 10  1  6
 12 11  1  0
 12 13  2  0
 14  9  1  0
 14 15  2  0
 16 12  1  0
 17 14  1  0
 18 17  1  0
 18 19  1  1
 19 20  1  0
 20 21  2  0
 20 25  1  0
 21 22  1  0
 22 23  2  0
 24 23  1  0
 25 24  2  0
 26 18  1  0
 27 26  2  0
 28 26  1  0
M  END
$$$$
