VEF.pdb
     RDKit          3D

 28 28  0  0  1  0  0  0  0  0999 V2000
   27.1705  -16.5535  -18.6696 C   0  0  0  0  0  0  0  0  0  0  0  0
   28.3985  -17.0376  -17.9337 C   0  0  2  0  0  0  0  0  0  0  0  0
   29.5402  -17.2865  -18.8953 C   0  0  0  0  0  0  0  0  0  0  0  0
   28.0750  -18.3071  -17.1799 C   0  0  2  0  0  0  0  0  0  0  0  0
   27.9409  -19.3948  -18.0972 N   0  0  0  0  0  0  0  0  0  0  0  0
   26.8846  -18.1014  -16.3080 C   0  0  0  0  0  0  0  0  0  0  0  0
   26.9940  -17.2301  -15.4042 O   0  0  0  0  0  0  0  0  0  0  0  0
   25.6683  -18.7991  -16.4211 N   0  0  0  0  0  0  0  0  0  0  0  0
   24.5272  -18.6157  -15.5621 C   0  0  1  0  0  0  0  0  0  0  0  0
   23.2801  -18.1979  -16.2631 C   0  0  0  0  0  0  0  0  0  0  0  0
   22.0786  -18.0151  -15.3950 C   0  0  0  0  0  0  0  0  0  0  0  0
   20.8853  -17.6855  -16.1920 C   0  0  0  0  0  0  0  0  0  0  0  0
   19.7627  -17.6659  -15.6517 O   0  0  0  0  0  0  0  0  0  0  0  0
   24.2337  -19.9406  -14.9160 C   0  0  0  0  0  0  0  0  0  0  0  0
   24.3572  -21.0041  -15.5722 O   0  0  0  0  0  0  0  0  0  0  0  0
   21.0045  -17.3982  -17.5347 O   0  0  0  0  0  0  0  0  0  0  0  0
   23.8163  -20.0172  -13.5703 N   0  0  0  0  0  0  0  0  0  0  0  0
   23.5800  -21.3361  -12.9644 C   0  0  1  0  0  0  0  0  0  0  0  0
   24.8483  -21.8853  -12.4051 C   0  0  0  0  0  0  0  0  0  0  0  0
   25.2623  -21.1333  -11.2148 C   0  0  0  0  0  0  0  0  0  0  0  0
   26.1670  -20.1033  -11.3145 C   0  0  0  0  0  0  0  0  0  0  0  0
   26.5525  -19.3925  -10.1893 C   0  0  0  0  0  0  0  0  0  0  0  0
   26.0308  -19.7153   -8.9663 C   0  0  0  0  0  0  0  0  0  0  0  0
   25.1143  -20.7498   -8.8254 C   0  0  0  0  0  0  0  0  0  0  0  0
   24.7609  -21.4276   -9.9705 C   0  0  0  0  0  0  0  0  0  0  0  0
   22.4817  -21.2653  -11.9997 C   0  0  0  0  0  0  0  0  0  0  0  0
   21.9999  -22.2900  -11.4662 O   0  0  0  0  0  0  0  0  0  0  0  0
   21.9560  -20.0193  -11.6650 O   0  0  0  0  0  0  0  0  0  0  0  0
  2  1  1  6
  3  2  1  0
  4  5  1  6
  4  2  1  0
  6  4  1  0
  7  6  2  0
  8  6  1  0
  9  8  1  0
 10 11  1  0
  9 10  1  6
 12 11  1  0
 12 13  2  0
 14  9  1  0
 14 15  2  0
 16 12  1  0
 17 14  1  0
 18 17  1  0
 18 19  1  1
 19 20  1  0
 20 21  2  0
 20 25  1  0
 21 22  1  0
 22 23  2  0
 24 23  1  0
 25 24  2  0
 26 18  1  0
 27 26  2  0
 28 26  1  0
M  END
$$$$
