VEF.pdb
     RDKit          3D

 28 28  0  0  1  0  0  0  0  0999 V2000
   19.1939  -26.7403  -14.6844 C   0  0  0  0  0  0  0  0  0  0  0  0
   19.7366  -25.3668  -14.3641 C   0  0  2  0  0  0  0  0  0  0  0  0
   20.7877  -24.9538  -15.3715 C   0  0  0  0  0  0  0  0  0  0  0  0
   20.3279  -25.3626  -12.9730 C   0  0  2  0  0  0  0  0  0  0  0  0
   21.4681  -26.2231  -12.9284 N   0  0  0  0  0  0  0  0  0  0  0  0
   19.2812  -25.6932  -11.9656 C   0  0  0  0  0  0  0  0  0  0  0  0
   18.2438  -24.9780  -11.9779 O   0  0  0  0  0  0  0  0  0  0  0  0
   19.3683  -26.7296  -11.0184 N   0  0  0  0  0  0  0  0  0  0  0  0
   18.3738  -27.0215  -10.0187 C   0  0  1  0  0  0  0  0  0  0  0  0
   18.0439  -28.4674   -9.8712 C   0  0  0  0  0  0  0  0  0  0  0  0
   17.1638  -29.0430  -10.9318 C   0  0  0  0  0  0  0  0  0  0  0  0
   17.9497  -29.5152  -12.0839 C   0  0  0  0  0  0  0  0  0  0  0  0
   17.4533  -29.4920  -13.2266 O   0  0  0  0  0  0  0  0  0  0  0  0
   18.9215  -26.5684   -8.6945 C   0  0  0  0  0  0  0  0  0  0  0  0
   20.1579  -26.6023   -8.4778 O   0  0  0  0  0  0  0  0  0  0  0  0
   19.2334  -29.9835  -11.9039 O   0  0  0  0  0  0  0  0  0  0  0  0
   18.0657  -26.0998   -7.6751 N   0  0  0  0  0  0  0  0  0  0  0  0
   18.6461  -25.6275   -6.4093 C   0  0  1  0  0  0  0  0  0  0  0  0
   18.5619  -24.1414   -6.3221 C   0  0  0  0  0  0  0  0  0  0  0  0
   17.1803  -23.6850   -6.5130 C   0  0  0  0  0  0  0  0  0  0  0  0
   16.2936  -23.6722   -5.4627 C   0  0  0  0  0  0  0  0  0  0  0  0
   14.9910  -23.2365   -5.6454 C   0  0  0  0  0  0  0  0  0  0  0  0
   14.5793  -22.8145   -6.8800 C   0  0  0  0  0  0  0  0  0  0  0  0
   15.4461  -22.8130   -7.9657 C   0  0  0  0  0  0  0  0  0  0  0  0
   16.7301  -23.2541   -7.7369 C   0  0  0  0  0  0  0  0  0  0  0  0
   18.0399  -26.3286   -5.2766 C   0  0  0  0  0  0  0  0  0  0  0  0
   18.4220  -26.1425   -4.0993 O   0  0  0  0  0  0  0  0  0  0  0  0
   17.0059  -27.2312   -5.5161 O   0  0  0  0  0  0  0  0  0  0  0  0
  2  1  1  6
  3  2  1  0
  4  5  1  6
  4  2  1  0
  6  4  1  0
  7  6  2  0
  8  6  1  0
  9  8  1  0
 10 11  1  0
  9 10  1  1
 12 11  1  0
 12 13  2  0
 14  9  1  0
 14 15  2  0
 16 12  1  0
 17 14  1  0
 18 17  1  0
 18 19  1  1
 19 20  1  0
 20 21  2  0
 20 25  1  0
 21 22  1  0
 22 23  2  0
 24 23  1  0
 25 24  2  0
 26 18  1  0
 27 26  2  0
 28 26  1  0
M  END
$$$$
