VEF.pdb
     RDKit          3D

 28 28  0  0  1  0  0  0  0  0999 V2000
   24.6117  -24.2734  -17.7722 C   0  0  0  0  0  0  0  0  0  0  0  0
   25.6075  -24.0588  -16.6560 C   0  0  2  0  0  0  0  0  0  0  0  0
   24.9005  -23.8704  -15.3313 C   0  0  0  0  0  0  0  0  0  0  0  0
   26.4622  -22.8496  -16.9592 C   0  0  2  0  0  0  0  0  0  0  0  0
   27.5584  -23.2279  -17.7945 N   0  0  0  0  0  0  0  0  0  0  0  0
   26.8701  -22.1748  -15.6951 C   0  0  0  0  0  0  0  0  0  0  0  0
   27.8180  -22.7047  -15.0560 O   0  0  0  0  0  0  0  0  0  0  0  0
   26.2815  -21.0081  -15.1742 N   0  0  0  0  0  0  0  0  0  0  0  0
   26.7604  -20.2824  -14.0263 C   0  0  1  0  0  0  0  0  0  0  0  0
   26.6597  -18.7997  -14.1398 C   0  0  0  0  0  0  0  0  0  0  0  0
   27.7607  -18.1311  -14.8957 C   0  0  0  0  0  0  0  0  0  0  0  0
   27.2443  -17.4089  -16.0702 C   0  0  0  0  0  0  0  0  0  0  0  0
   26.9753  -18.0326  -17.1148 O   0  0  0  0  0  0  0  0  0  0  0  0
   25.9088  -20.6826  -12.8544 C   0  0  0  0  0  0  0  0  0  0  0  0
   24.6680  -20.8177  -12.9927 O   0  0  0  0  0  0  0  0  0  0  0  0
   27.0569  -16.0444  -16.0194 O   0  0  0  0  0  0  0  0  0  0  0  0
   26.4800  -20.9125  -11.5848 N   0  0  0  0  0  0  0  0  0  0  0  0
   25.6163  -21.3407  -10.4744 C   0  0  1  0  0  0  0  0  0  0  0  0
   26.4302  -21.9764   -9.3989 C   0  0  0  0  0  0  0  0  0  0  0  0
   27.1367  -20.9607   -8.6098 C   0  0  0  0  0  0  0  0  0  0  0  0
   28.5038  -20.8383   -8.6855 C   0  0  0  0  0  0  0  0  0  0  0  0
   29.1673  -19.8754   -7.9423 C   0  0  0  0  0  0  0  0  0  0  0  0
   28.4599  -19.0369   -7.1246 C   0  0  0  0  0  0  0  0  0  0  0  0
   27.0776  -19.1299   -7.0214 C   0  0  0  0  0  0  0  0  0  0  0  0
   26.4615  -20.1012   -7.7782 C   0  0  0  0  0  0  0  0  0  0  0  0
   24.7843  -20.2272  -10.0161 C   0  0  0  0  0  0  0  0  0  0  0  0
   23.7055  -20.4111   -9.4085 O   0  0  0  0  0  0  0  0  0  0  0  0
   25.2057  -18.9226  -10.2639 O   0  0  0  0  0  0  0  0  0  0  0  0
  2  1  1  6
  3  2  1  0
  4  5  1  1
  4  2  1  0
  6  4  1  0
  7  6  2  0
  8  6  1  0
  9  8  1  0
 10 11  1  0
  9 10  1  6
 12 11  1  0
 12 13  2  0
 14  9  1  0
 14 15  2  0
 16 12  1  0
 17 14  1  0
 18 17  1  0
 18 19  1  1
 19 20  1  0
 20 21  2  0
 20 25  1  0
 21 22  1  0
 22 23  2  0
 24 23  1  0
 25 24  2  0
 26 18  1  0
 27 26  2  0
 28 26  1  0
M  END
$$$$
