VEF.pdb
     RDKit          3D

 28 28  0  0  1  0  0  0  0  0999 V2000
   14.8474   -6.2375   -7.4419 C   0  0  0  0  0  0  0  0  0  0  0  0
   13.9210   -5.5843   -8.4413 C   0  0  2  0  0  0  0  0  0  0  0  0
   12.9202   -4.6888   -7.7437 C   0  0  0  0  0  0  0  0  0  0  0  0
   13.1951   -6.6462   -9.2352 C   0  0  2  0  0  0  0  0  0  0  0  0
   12.4305   -7.4719   -8.3544 N   0  0  0  0  0  0  0  0  0  0  0  0
   14.1555   -7.3999  -10.0891 C   0  0  0  0  0  0  0  0  0  0  0  0
   14.5094   -8.5343   -9.6699 O   0  0  0  0  0  0  0  0  0  0  0  0
   14.6855   -6.9421  -11.3091 N   0  0  0  0  0  0  0  0  0  0  0  0
   15.5055   -7.7228  -12.1990 C   0  0  1  0  0  0  0  0  0  0  0  0
   14.8805   -8.0260  -13.5175 C   0  0  0  0  0  0  0  0  0  0  0  0
   15.7008   -8.8579  -14.4479 C   0  0  0  0  0  0  0  0  0  0  0  0
   15.1668  -10.2255  -14.5581 C   0  0  0  0  0  0  0  0  0  0  0  0
   14.7366  -10.8086  -13.5443 O   0  0  0  0  0  0  0  0  0  0  0  0
   16.7455   -6.9231  -12.4849 C   0  0  0  0  0  0  0  0  0  0  0  0
   16.6806   -5.6734  -12.5894 O   0  0  0  0  0  0  0  0  0  0  0  0
   15.1405  -10.8646  -15.7789 O   0  0  0  0  0  0  0  0  0  0  0  0
   17.9980   -7.5539  -12.6412 N   0  0  0  0  0  0  0  0  0  0  0  0
   19.1396   -6.7726  -13.1397 C   0  0  1  0  0  0  0  0  0  0  0  0
   20.4147   -7.5088  -12.9050 C   0  0  0  0  0  0  0  0  0  0  0  0
   21.5349   -6.8397  -13.5767 C   0  0  0  0  0  0  0  0  0  0  0  0
   22.1504   -7.4184  -14.6610 C   0  0  0  0  0  0  0  0  0  0  0  0
   23.2050   -6.7819  -15.2955 C   0  0  0  0  0  0  0  0  0  0  0  0
   23.6408   -5.5667  -14.8423 C   0  0  0  0  0  0  0  0  0  0  0  0
   23.0443   -4.9503  -13.7495 C   0  0  0  0  0  0  0  0  0  0  0  0
   22.0005   -5.6197  -13.1511 C   0  0  0  0  0  0  0  0  0  0  0  0
   18.9216   -6.3826  -14.5334 C   0  0  0  0  0  0  0  0  0  0  0  0
   18.4880   -7.1879  -15.3878 O   0  0  0  0  0  0  0  0  0  0  0  0
   19.2056   -5.0749  -14.9212 O   0  0  0  0  0  0  0  0  0  0  0  0
  2  1  1  1
  3  2  1  0
  4  5  1  1
  4  2  1  0
  6  4  1  0
  7  6  2  0
  8  6  1  0
  9  8  1  0
 10 11  1  0
  9 10  1  6
 12 11  1  0
 12 13  2  0
 14  9  1  0
 14 15  2  0
 16 12  1  0
 17 14  1  0
 18 17  1  0
 18 19  1  6
 19 20  1  0
 20 21  2  0
 20 25  1  0
 21 22  1  0
 22 23  2  0
 24 23  1  0
 25 24  2  0
 26 18  1  0
 27 26  2  0
 28 26  1  0
M  END
$$$$
