VEF.pdb
     RDKit          3D

 28 28  0  0  1  0  0  0  0  0999 V2000
   29.0444  -41.9257   -8.4816 C   0  0  0  0  0  0  0  0  0  0  0  0
   28.6917  -40.5300   -8.0219 C   0  0  2  0  0  0  0  0  0  0  0  0
   29.7535  -39.9842   -7.0918 C   0  0  0  0  0  0  0  0  0  0  0  0
   27.3528  -40.5460   -7.3207 C   0  0  2  0  0  0  0  0  0  0  0  0
   26.3002  -40.5861   -8.2866 N   0  0  0  0  0  0  0  0  0  0  0  0
   27.2552  -39.4055   -6.3671 C   0  0  0  0  0  0  0  0  0  0  0  0
   26.7371  -38.3456   -6.8099 O   0  0  0  0  0  0  0  0  0  0  0  0
   27.6930  -39.4286   -5.0304 N   0  0  0  0  0  0  0  0  0  0  0  0
   27.5574  -38.3401   -4.0973 C   0  0  1  0  0  0  0  0  0  0  0  0
   27.2989  -38.7548   -2.6893 C   0  0  0  0  0  0  0  0  0  0  0  0
   27.0410  -37.6451   -1.7236 C   0  0  0  0  0  0  0  0  0  0  0  0
   28.1812  -37.4498   -0.8128 C   0  0  0  0  0  0  0  0  0  0  0  0
   28.6818  -36.3167   -0.6772 O   0  0  0  0  0  0  0  0  0  0  0  0
   28.8588  -37.5883   -4.0918 C   0  0  0  0  0  0  0  0  0  0  0  0
   29.9400  -38.1966   -4.2863 O   0  0  0  0  0  0  0  0  0  0  0  0
   28.6982  -38.5158   -0.1087 O   0  0  0  0  0  0  0  0  0  0  0  0
   28.8933  -36.1953   -3.8696 N   0  0  0  0  0  0  0  0  0  0  0  0
   30.1306  -35.4524   -4.1516 C   0  0  1  0  0  0  0  0  0  0  0  0
   30.4059  -35.4395   -5.6169 C   0  0  0  0  0  0  0  0  0  0  0  0
   31.4516  -34.4629   -5.9429 C   0  0  0  0  0  0  0  0  0  0  0  0
   32.7398  -34.6381   -5.4962 C   0  0  0  0  0  0  0  0  0  0  0  0
   33.7257  -33.7164   -5.8094 C   0  0  0  0  0  0  0  0  0  0  0  0
   33.4192  -32.6208   -6.5695 C   0  0  0  0  0  0  0  0  0  0  0  0
   32.1289  -32.4092   -7.0391 C   0  0  0  0  0  0  0  0  0  0  0  0
   31.1826  -33.3511   -6.7030 C   0  0  0  0  0  0  0  0  0  0  0  0
   30.0785  -34.1233   -3.5409 C   0  0  0  0  0  0  0  0  0  0  0  0
   31.1154  -33.4848   -3.2516 O   0  0  0  0  0  0  0  0  0  0  0  0
   28.8366  -33.5514   -3.2730 O   0  0  0  0  0  0  0  0  0  0  0  0
  2  1  1  1
  3  2  1  0
  4  5  1  6
  4  2  1  0
  6  4  1  0
  7  6  2  0
  8  6  1  0
  9  8  1  0
 10 11  1  0
  9 10  1  1
 12 11  1  0
 12 13  2  0
 14  9  1  0
 14 15  2  0
 16 12  1  0
 17 14  1  0
 18 17  1  0
 18 19  1  6
 19 20  1  0
 20 21  2  0
 20 25  1  0
 21 22  1  0
 22 23  2  0
 24 23  1  0
 25 24  2  0
 26 18  1  0
 27 26  2  0
 28 26  1  0
M  END
$$$$
