VEF.pdb
     RDKit          3D

 28 28  0  0  1  0  0  0  0  0999 V2000
   23.1764  -19.8767  -15.3324 C   0  0  0  0  0  0  0  0  0  0  0  0
   22.4141  -18.9832  -14.3814 C   0  0  2  0  0  0  0  0  0  0  0  0
   21.9881  -17.7037  -15.0681 C   0  0  0  0  0  0  0  0  0  0  0  0
   23.2755  -18.6608  -13.1819 C   0  0  2  0  0  0  0  0  0  0  0  0
   24.1336  -17.5586  -13.4836 N   0  0  0  0  0  0  0  0  0  0  0  0
   23.9969  -19.8802  -12.7210 C   0  0  0  0  0  0  0  0  0  0  0  0
   23.2891  -20.8950  -12.4819 O   0  0  0  0  0  0  0  0  0  0  0  0
   25.3883  -19.9764  -12.5375 N   0  0  0  0  0  0  0  0  0  0  0  0
   26.0840  -21.1572  -12.0955 C   0  0  1  0  0  0  0  0  0  0  0  0
   27.2840  -21.5131  -12.9046 C   0  0  0  0  0  0  0  0  0  0  0  0
   27.0812  -22.5794  -13.9305 C   0  0  0  0  0  0  0  0  0  0  0  0
   26.4249  -22.0469  -15.1360 C   0  0  0  0  0  0  0  0  0  0  0  0
   26.9501  -21.1099  -15.7675 O   0  0  0  0  0  0  0  0  0  0  0  0
   26.5704  -20.8952  -10.6978 C   0  0  0  0  0  0  0  0  0  0  0  0
   27.6487  -20.2799  -10.5095 O   0  0  0  0  0  0  0  0  0  0  0  0
   25.2306  -22.5808  -15.5699 O   0  0  0  0  0  0  0  0  0  0  0  0
   25.8326  -21.3316   -9.5769 N   0  0  0  0  0  0  0  0  0  0  0  0
   26.3837  -21.1273   -8.2290 C   0  0  1  0  0  0  0  0  0  0  0  0
   26.9138  -19.7407   -8.0896 C   0  0  0  0  0  0  0  0  0  0  0  0
   27.5871  -19.5670   -6.7973 C   0  0  0  0  0  0  0  0  0  0  0  0
   27.5143  -18.3715   -6.1227 C   0  0  0  0  0  0  0  0  0  0  0  0
   28.1476  -18.2122   -4.9007 C   0  0  0  0  0  0  0  0  0  0  0  0
   28.8526  -19.2510   -4.3568 C   0  0  0  0  0  0  0  0  0  0  0  0
   28.9492  -20.4742   -5.0085 C   0  0  0  0  0  0  0  0  0  0  0  0
   28.3040  -20.5861   -6.2196 C   0  0  0  0  0  0  0  0  0  0  0  0
   25.3970  -21.4957   -7.2128 C   0  0  0  0  0  0  0  0  0  0  0  0
   25.7305  -21.9906   -6.1126 O   0  0  0  0  0  0  0  0  0  0  0  0
   24.0449  -21.2895   -7.4782 O   0  0  0  0  0  0  0  0  0  0  0  0
  2  1  1  6
  3  2  1  0
  4  5  1  6
  4  2  1  0
  6  4  1  0
  7  6  2  0
  8  6  1  0
  9  8  1  0
 10 11  1  0
  9 10  1  6
 12 11  1  0
 12 13  2  0
 14  9  1  0
 14 15  2  0
 16 12  1  0
 17 14  1  0
 18 17  1  0
 18 19  1  1
 19 20  1  0
 20 21  2  0
 20 25  1  0
 21 22  1  0
 22 23  2  0
 24 23  1  0
 25 24  2  0
 26 18  1  0
 27 26  2  0
 28 26  1  0
M  END
$$$$
