VEF.pdb
     RDKit          3D

 28 28  0  0  1  0  0  0  0  0999 V2000
   25.9646  -18.6910  -16.1516 C   0  0  0  0  0  0  0  0  0  0  0  0
   27.1978  -17.9895  -15.6312 C   0  0  2  0  0  0  0  0  0  0  0  0
   28.1488  -17.6611  -16.7616 C   0  0  0  0  0  0  0  0  0  0  0  0
   27.8921  -18.8647  -14.6130 C   0  0  2  0  0  0  0  0  0  0  0  0
   28.4435  -20.0147  -15.2579 N   0  0  0  0  0  0  0  0  0  0  0  0
   26.9662  -19.1865  -13.4910 C   0  0  0  0  0  0  0  0  0  0  0  0
   26.3766  -18.2120  -12.9520 O   0  0  0  0  0  0  0  0  0  0  0  0
   26.7083  -20.4793  -13.0000 N   0  0  0  0  0  0  0  0  0  0  0  0
   25.7565  -20.7966  -11.9670 C   0  0  1  0  0  0  0  0  0  0  0  0
   25.0409  -22.0904  -12.1549 C   0  0  0  0  0  0  0  0  0  0  0  0
   24.3169  -22.2484  -13.4517 C   0  0  0  0  0  0  0  0  0  0  0  0
   24.5025  -23.5983  -14.0094 C   0  0  0  0  0  0  0  0  0  0  0  0
   23.6732  -24.4940  -13.7588 O   0  0  0  0  0  0  0  0  0  0  0  0
   26.5164  -20.9095  -10.6753 C   0  0  0  0  0  0  0  0  0  0  0  0
   27.6273  -21.4941  -10.6454 O   0  0  0  0  0  0  0  0  0  0  0  0
   25.5906  -23.8762  -14.8083 O   0  0  0  0  0  0  0  0  0  0  0  0
   26.0021  -20.3663   -9.4788 N   0  0  0  0  0  0  0  0  0  0  0  0
   26.7079  -20.6169   -8.2133 C   0  0  1  0  0  0  0  0  0  0  0  0
   27.5919  -19.4649   -7.8750 C   0  0  0  0  0  0  0  0  0  0  0  0
   28.1524  -19.6155   -6.5271 C   0  0  0  0  0  0  0  0  0  0  0  0
   27.7672  -18.7765   -5.5087 C   0  0  0  0  0  0  0  0  0  0  0  0
   28.2952  -18.9242   -4.2362 C   0  0  0  0  0  0  0  0  0  0  0  0
   29.2081  -19.9122   -3.9865 C   0  0  0  0  0  0  0  0  0  0  0  0
   29.6220  -20.7795   -4.9898 C   0  0  0  0  0  0  0  0  0  0  0  0
   29.0707  -20.5949   -6.2378 C   0  0  0  0  0  0  0  0  0  0  0  0
   25.7560  -20.9705   -7.1593 C   0  0  0  0  0  0  0  0  0  0  0  0
   24.5396  -20.6874   -7.2414 O   0  0  0  0  0  0  0  0  0  0  0  0
   26.2181  -21.6426   -6.0298 O   0  0  0  0  0  0  0  0  0  0  0  0
  2  1  1  6
  3  2  1  0
  4  5  1  6
  4  2  1  0
  6  4  1  0
  7  6  2  0
  8  6  1  0
  9  8  1  0
 10 11  1  0
  9 10  1  6
 12 11  1  0
 12 13  2  0
 14  9  1  0
 14 15  2  0
 16 12  1  0
 17 14  1  0
 18 17  1  0
 18 19  1  1
 19 20  1  0
 20 21  2  0
 20 25  1  0
 21 22  1  0
 22 23  2  0
 24 23  1  0
 25 24  2  0
 26 18  1  0
 27 26  2  0
 28 26  1  0
M  END
$$$$
