VEF.pdb
     RDKit          3D

 28 28  0  0  1  0  0  0  0  0999 V2000
   25.9633  -19.9180  -16.5848 C   0  0  0  0  0  0  0  0  0  0  0  0
   27.2879  -19.3108  -16.1844 C   0  0  2  0  0  0  0  0  0  0  0  0
   28.3078  -19.4632  -17.2920 C   0  0  0  0  0  0  0  0  0  0  0  0
   27.7942  -19.9746  -14.9243 C   0  0  2  0  0  0  0  0  0  0  0  0
   28.1184  -21.3404  -15.1926 N   0  0  0  0  0  0  0  0  0  0  0  0
   26.8163  -19.7920  -13.8153 C   0  0  0  0  0  0  0  0  0  0  0  0
   26.4792  -18.6065  -13.5530 O   0  0  0  0  0  0  0  0  0  0  0  0
   26.2527  -20.8319  -13.0539 N   0  0  0  0  0  0  0  0  0  0  0  0
   25.3245  -20.6518  -11.9677 C   0  0  1  0  0  0  0  0  0  0  0  0
   24.1362  -21.5504  -12.0078 C   0  0  0  0  0  0  0  0  0  0  0  0
   23.1068  -21.3115  -10.9523 C   0  0  0  0  0  0  0  0  0  0  0  0
   22.0727  -20.3706  -11.4139 C   0  0  0  0  0  0  0  0  0  0  0  0
   21.8663  -20.2229  -12.6338 O   0  0  0  0  0  0  0  0  0  0  0  0
   26.0576  -20.9654  -10.6937 C   0  0  0  0  0  0  0  0  0  0  0  0
   26.9094  -21.8877  -10.6661 O   0  0  0  0  0  0  0  0  0  0  0  0
   21.3310  -19.6515  -10.5016 O   0  0  0  0  0  0  0  0  0  0  0  0
   25.8064  -20.2370   -9.5115 N   0  0  0  0  0  0  0  0  0  0  0  0
   26.5510  -20.5716   -8.2885 C   0  0  1  0  0  0  0  0  0  0  0  0
   27.4359  -19.4387   -7.8930 C   0  0  0  0  0  0  0  0  0  0  0  0
   28.0869  -19.7096   -6.6061 C   0  0  0  0  0  0  0  0  0  0  0  0
   29.0591  -20.6757   -6.5006 C   0  0  0  0  0  0  0  0  0  0  0  0
   29.6748  -20.9260   -5.2848 C   0  0  0  0  0  0  0  0  0  0  0  0
   29.3153  -20.2080   -4.1771 C   0  0  0  0  0  0  0  0  0  0  0  0
   28.3371  -19.2237   -4.2440 C   0  0  0  0  0  0  0  0  0  0  0  0
   27.7531  -19.0100   -5.4723 C   0  0  0  0  0  0  0  0  0  0  0  0
   25.6333  -21.0097   -7.2359 C   0  0  0  0  0  0  0  0  0  0  0  0
   24.3984  -20.8190   -7.3103 O   0  0  0  0  0  0  0  0  0  0  0  0
   26.1499  -21.6587   -6.1165 O   0  0  0  0  0  0  0  0  0  0  0  0
  2  1  1  6
  3  2  1  0
  4  5  1  6
  4  2  1  0
  6  4  1  0
  7  6  2  0
  8  6  1  0
  9  8  1  0
 10 11  1  0
  9 10  1  6
 12 11  1  0
 12 13  2  0
 14  9  1  0
 14 15  2  0
 16 12  1  0
 17 14  1  0
 18 17  1  0
 18 19  1  1
 19 20  1  0
 20 21  2  0
 20 25  1  0
 21 22  1  0
 22 23  2  0
 24 23  1  0
 25 24  2  0
 26 18  1  0
 27 26  2  0
 28 26  1  0
M  END
$$$$
