VEF.pdb
     RDKit          3D

 28 28  0  0  1  0  0  0  0  0999 V2000
   21.2266  -16.6832  -19.3998 C   0  0  0  0  0  0  0  0  0  0  0  0
   22.3391  -15.9746  -20.1374 C   0  0  2  0  0  0  0  0  0  0  0  0
   21.8187  -15.3205  -21.3989 C   0  0  0  0  0  0  0  0  0  0  0  0
   23.4320  -16.9601  -20.4824 C   0  0  2  0  0  0  0  0  0  0  0  0
   23.2401  -17.4515  -21.8106 N   0  0  0  0  0  0  0  0  0  0  0  0
   23.5094  -18.0292  -19.4476 C   0  0  0  0  0  0  0  0  0  0  0  0
   22.6307  -18.9306  -19.5042 O   0  0  0  0  0  0  0  0  0  0  0  0
   24.4777  -18.1017  -18.4297 N   0  0  0  0  0  0  0  0  0  0  0  0
   24.5832  -19.1641  -17.4633 C   0  0  1  0  0  0  0  0  0  0  0  0
   25.9483  -19.3588  -16.8977 C   0  0  0  0  0  0  0  0  0  0  0  0
   26.1034  -20.5113  -15.9604 C   0  0  0  0  0  0  0  0  0  0  0  0
   27.1727  -21.4221  -16.4015 C   0  0  0  0  0  0  0  0  0  0  0  0
   27.8235  -21.1639  -17.4324 O   0  0  0  0  0  0  0  0  0  0  0  0
   23.6862  -18.8127  -16.3097 C   0  0  0  0  0  0  0  0  0  0  0  0
   23.5842  -17.6203  -15.9297 O   0  0  0  0  0  0  0  0  0  0  0  0
   27.4576  -22.5604  -15.6786 O   0  0  0  0  0  0  0  0  0  0  0  0
   22.9462  -19.8066  -15.6346 N   0  0  0  0  0  0  0  0  0  0  0  0
   22.1051  -19.4245  -14.4906 C   0  0  1  0  0  0  0  0  0  0  0  0
   20.8204  -18.8347  -14.9647 C   0  0  0  0  0  0  0  0  0  0  0  0
   19.9510  -18.4983  -13.8314 C   0  0  0  0  0  0  0  0  0  0  0  0
   19.9536  -17.2323  -13.2960 C   0  0  0  0  0  0  0  0  0  0  0  0
   19.1282  -16.9168  -12.2287 C   0  0  0  0  0  0  0  0  0  0  0  0
   18.3019  -17.8704  -11.6998 C   0  0  0  0  0  0  0  0  0  0  0  0
   18.2712  -19.1609  -12.2136 C   0  0  0  0  0  0  0  0  0  0  0  0
   19.1081  -19.4282  -13.2736 C   0  0  0  0  0  0  0  0  0  0  0  0
   21.9428  -20.5555  -13.5760 C   0  0  0  0  0  0  0  0  0  0  0  0
   21.8581  -21.7346  -13.9872 O   0  0  0  0  0  0  0  0  0  0  0  0
   21.8806  -20.3123  -12.2056 O   0  0  0  0  0  0  0  0  0  0  0  0
  2  1  1  6
  3  2  1  0
  4  5  1  6
  4  2  1  0
  6  4  1  0
  7  6  2  0
  8  6  1  0
  9  8  1  0
 10 11  1  0
  9 10  1  1
 12 11  1  0
 12 13  2  0
 14  9  1  0
 14 15  2  0
 16 12  1  0
 17 14  1  0
 18 17  1  0
 18 19  1  6
 19 20  1  0
 20 21  2  0
 20 25  1  0
 21 22  1  0
 22 23  2  0
 24 23  1  0
 25 24  2  0
 26 18  1  0
 27 26  2  0
 28 26  1  0
M  END
$$$$
