VEF.pdb
     RDKit          3D

 28 28  0  0  1  0  0  0  0  0999 V2000
   19.7177  -12.6748  -18.6860 C   0  0  0  0  0  0  0  0  0  0  0  0
   19.6643  -12.9223  -20.1758 C   0  0  2  0  0  0  0  0  0  0  0  0
   19.2366  -14.3436  -20.4714 C   0  0  0  0  0  0  0  0  0  0  0  0
   21.0208  -12.6559  -20.7870 C   0  0  2  0  0  0  0  0  0  0  0  0
   21.8759  -13.7819  -20.5786 N   0  0  0  0  0  0  0  0  0  0  0  0
   21.5758  -11.3721  -20.2736 C   0  0  0  0  0  0  0  0  0  0  0  0
   22.7346  -11.4181  -19.7807 O   0  0  0  0  0  0  0  0  0  0  0  0
   20.9086  -10.1339  -20.3003 N   0  0  0  0  0  0  0  0  0  0  0  0
   21.4976   -8.8697  -19.9416 C   0  0  1  0  0  0  0  0  0  0  0  0
   20.9445   -7.6946  -20.6728 C   0  0  0  0  0  0  0  0  0  0  0  0
   21.5740   -7.3983  -21.9943 C   0  0  0  0  0  0  0  0  0  0  0  0
   20.5904   -7.4759  -23.0872 C   0  0  0  0  0  0  0  0  0  0  0  0
   19.4168   -7.8169  -22.8444 O   0  0  0  0  0  0  0  0  0  0  0  0
   21.2154   -8.6403  -18.4834 C   0  0  0  0  0  0  0  0  0  0  0  0
   20.1893   -9.1336  -17.9537 O   0  0  0  0  0  0  0  0  0  0  0  0
   20.9624   -7.1728  -24.3792 O   0  0  0  0  0  0  0  0  0  0  0  0
   22.0894   -7.8720  -17.6853 N   0  0  0  0  0  0  0  0  0  0  0  0
   21.7821   -7.6820  -16.2599 C   0  0  1  0  0  0  0  0  0  0  0  0
   23.0237   -7.7931  -15.4418 C   0  0  0  0  0  0  0  0  0  0  0  0
   22.7205   -7.6587  -14.0123 C   0  0  0  0  0  0  0  0  0  0  0  0
   22.5726   -6.4179  -13.4396 C   0  0  0  0  0  0  0  0  0  0  0  0
   22.2820   -6.2946  -12.0904 C   0  0  0  0  0  0  0  0  0  0  0  0
   22.1403   -7.4147  -11.3177 C   0  0  0  0  0  0  0  0  0  0  0  0
   22.2826   -8.6857  -11.8603 C   0  0  0  0  0  0  0  0  0  0  0  0
   22.5710   -8.7593  -13.2045 C   0  0  0  0  0  0  0  0  0  0  0  0
   21.0427   -6.4350  -16.0589 C   0  0  0  0  0  0  0  0  0  0  0  0
   21.3306   -5.3857  -16.6774 O   0  0  0  0  0  0  0  0  0  0  0  0
   19.9861   -6.4153  -15.1511 O   0  0  0  0  0  0  0  0  0  0  0  0
  2  1  1  1
  3  2  1  0
  4  5  1  1
  4  2  1  0
  6  4  1  0
  7  6  2  0
  8  6  1  0
  9  8  1  0
 10 11  1  0
  9 10  1  6
 12 11  1  0
 12 13  2  0
 14  9  1  0
 14 15  2  0
 16 12  1  0
 17 14  1  0
 18 17  1  0
 18 19  1  1
 19 20  1  0
 20 21  2  0
 20 25  1  0
 21 22  1  0
 22 23  2  0
 24 23  1  0
 25 24  2  0
 26 18  1  0
 27 26  2  0
 28 26  1  0
M  END
$$$$
