VGC.pdb
     RDKit          3D

 18 17  0  0  1  0  0  0  0  0999 V2000
    8.6437  -13.5231   18.2978 C   0  0  0  0  0  0  0  0  0  0  0  0
    8.4565  -13.7406   19.7834 C   0  0  1  0  0  0  0  0  0  0  0  0
    7.3289  -12.8207   20.2203 C   0  0  0  0  0  0  0  0  0  0  0  0
    8.1452  -15.1890   20.0890 C   0  0  2  0  0  0  0  0  0  0  0  0
    7.2952  -15.7023   19.0550 N   0  0  0  0  0  0  0  0  0  0  0  0
    7.5379  -15.3323   21.4403 C   0  0  0  0  0  0  0  0  0  0  0  0
    6.3310  -15.0421   21.6157 O   0  0  0  0  0  0  0  0  0  0  0  0
    8.3122  -15.7953   22.5365 N   0  0  0  0  0  0  0  0  0  0  0  0
    7.8649  -15.8625   23.8812 C   0  0  0  0  0  0  0  0  0  0  0  0
    8.4819  -14.9117   24.8225 C   0  0  0  0  0  0  0  0  0  0  0  0
    9.5873  -14.3602   24.4778 O   0  0  0  0  0  0  0  0  0  0  0  0
    7.9638  -14.5403   26.0885 N   0  0  0  0  0  0  0  0  0  0  0  0
    8.6320  -13.7376   27.0732 C   0  0  1  0  0  0  0  0  0  0  0  0
    7.8109  -12.6873   27.7246 C   0  0  0  0  0  0  0  0  0  0  0  0
    6.1986  -12.6476   26.8484 S   0  0  0  0  0  0  0  0  0  0  0  0
    9.4052  -14.5455   28.0794 C   0  0  0  0  0  0  0  0  0  0  0  0
   10.2886  -13.8997   28.9109 O   0  0  0  0  0  0  0  0  0  0  0  0
    9.2677  -15.7738   28.1829 O   0  0  0  0  0  0  0  0  0  0  0  0
  2  1  1  6
  2  3  1  0
  4  2  1  0
  4  5  1  6
  6  7  2  0
  6  4  1  0
  8  6  1  0
  9  8  1  0
  9 10  1  0
 10 12  1  0
 11 10  2  0
 12 13  1  0
 13 14  1  1
 13 16  1  0
 14 15  1  0
 16 18  2  0
 16 17  1  0
M  END
$$$$
