VGC.pdb
     RDKit          3D

 18 17  0  0  1  0  0  0  0  0999 V2000
    8.8154  -13.7804   18.4759 C   0  0  0  0  0  0  0  0  0  0  0  0
    8.4629  -13.9745   19.9345 C   0  0  1  0  0  0  0  0  0  0  0  0
    7.3360  -13.0035   20.2439 C   0  0  0  0  0  0  0  0  0  0  0  0
    8.0591  -15.4053   20.2136 C   0  0  2  0  0  0  0  0  0  0  0  0
    7.1881  -15.8479   19.1645 N   0  0  0  0  0  0  0  0  0  0  0  0
    7.4319  -15.5319   21.5575 C   0  0  0  0  0  0  0  0  0  0  0  0
    6.2362  -15.1928   21.7222 O   0  0  0  0  0  0  0  0  0  0  0  0
    8.1744  -16.0337   22.6585 N   0  0  0  0  0  0  0  0  0  0  0  0
    7.7059  -16.1015   23.9960 C   0  0  0  0  0  0  0  0  0  0  0  0
    8.3099  -15.1529   24.9479 C   0  0  0  0  0  0  0  0  0  0  0  0
    9.5631  -14.9058   24.8329 O   0  0  0  0  0  0  0  0  0  0  0  0
    7.6303  -14.4755   25.9912 N   0  0  0  0  0  0  0  0  0  0  0  0
    8.2234  -13.5857   26.9487 C   0  0  1  0  0  0  0  0  0  0  0  0
    7.3038  -12.6181   27.5965 C   0  0  0  0  0  0  0  0  0  0  0  0
    5.6171  -12.9802   26.9699 S   0  0  0  0  0  0  0  0  0  0  0  0
    9.0968  -14.2848   27.9545 C   0  0  0  0  0  0  0  0  0  0  0  0
    9.9382  -13.5328   28.7388 O   0  0  0  0  0  0  0  0  0  0  0  0
    9.0783  -15.5166   28.0988 O   0  0  0  0  0  0  0  0  0  0  0  0
  2  1  1  6
  2  3  1  0
  4  2  1  0
  4  5  1  6
  6  7  2  0
  6  4  1  0
  8  6  1  0
  9  8  1  0
  9 10  1  0
 10 12  1  0
 11 10  2  0
 12 13  1  0
 13 14  1  1
 13 16  1  0
 14 15  1  0
 16 18  2  0
 16 17  1  0
M  END
$$$$
