VGC.pdb
     RDKit          3D

 18 17  0  0  1  0  0  0  0  0999 V2000
    8.1895  -12.1488   20.0053 C   0  0  0  0  0  0  0  0  0  0  0  0
    7.5508  -13.4975   19.7551 C   0  0  1  0  0  0  0  0  0  0  0  0
    7.4067  -13.6393   18.2492 C   0  0  0  0  0  0  0  0  0  0  0  0
    8.3839  -14.6145   20.3436 C   0  0  2  0  0  0  0  0  0  0  0  0
    7.7724  -15.8670   20.0082 N   0  0  0  0  0  0  0  0  0  0  0  0
    8.5472  -14.4431   21.8131 C   0  0  0  0  0  0  0  0  0  0  0  0
    9.4017  -13.6398   22.2562 O   0  0  0  0  0  0  0  0  0  0  0  0
    7.7440  -15.1812   22.7216 N   0  0  0  0  0  0  0  0  0  0  0  0
    7.8889  -15.1715   24.1329 C   0  0  0  0  0  0  0  0  0  0  0  0
    9.0038  -15.9643   24.6800 C   0  0  0  0  0  0  0  0  0  0  0  0
    9.1205  -16.0325   25.9554 O   0  0  0  0  0  0  0  0  0  0  0  0
    9.9718  -16.6708   23.9230 N   0  0  0  0  0  0  0  0  0  0  0  0
   11.0650  -17.4361   24.4518 C   0  0  1  0  0  0  0  0  0  0  0  0
   11.0710  -18.8816   24.1173 C   0  0  0  0  0  0  0  0  0  0  0  0
    9.4553  -19.5635   24.6592 S   0  0  0  0  0  0  0  0  0  0  0  0
   12.4088  -16.8028   24.2144 C   0  0  0  0  0  0  0  0  0  0  0  0
   13.5188  -17.3629   24.8000 O   0  0  0  0  0  0  0  0  0  0  0  0
   12.5451  -15.7942   23.5055 O   0  0  0  0  0  0  0  0  0  0  0  0
  2  1  1  6
  2  3  1  0
  4  2  1  0
  4  5  1  1
  6  7  2  0
  6  4  1  0
  8  6  1  0
  9  8  1  0
  9 10  1  0
 10 12  1  0
 11 10  2  0
 12 13  1  0
 13 14  1  6
 13 16  1  0
 14 15  1  0
 16 18  2  0
 16 17  1  0
M  END
$$$$
