VGC.pdb
     RDKit          3D

 18 17  0  0  1  0  0  0  0  0999 V2000
    7.6365  -12.1487   18.2719 C   0  0  0  0  0  0  0  0  0  0  0  0
    8.8161  -12.8600   18.8982 C   0  0  1  0  0  0  0  0  0  0  0  0
    8.4581  -13.0985   20.3554 C   0  0  0  0  0  0  0  0  0  0  0  0
    9.1182  -14.1557   18.1784 C   0  0  2  0  0  0  0  0  0  0  0  0
    7.9066  -14.9149   18.0749 N   0  0  0  0  0  0  0  0  0  0  0  0
   10.1992  -14.9114   18.8680 C   0  0  0  0  0  0  0  0  0  0  0  0
    9.9057  -15.7759   19.7272 O   0  0  0  0  0  0  0  0  0  0  0  0
   11.5635  -14.6639   18.5630 N   0  0  0  0  0  0  0  0  0  0  0  0
   12.6659  -15.3416   19.1445 C   0  0  0  0  0  0  0  0  0  0  0  0
   12.7789  -15.2650   20.6116 C   0  0  0  0  0  0  0  0  0  0  0  0
   13.4707  -14.3068   21.1094 O   0  0  0  0  0  0  0  0  0  0  0  0
   12.1868  -16.1587   21.5390 N   0  0  0  0  0  0  0  0  0  0  0  0
   12.3983  -16.1668   22.9587 C   0  0  1  0  0  0  0  0  0  0  0  0
   11.1897  -16.3618   23.7968 C   0  0  0  0  0  0  0  0  0  0  0  0
    9.9174  -15.1898   23.1831 S   0  0  0  0  0  0  0  0  0  0  0  0
   13.5272  -17.0625   23.3904 C   0  0  0  0  0  0  0  0  0  0  0  0
   13.9335  -17.0320   24.7029 O   0  0  0  0  0  0  0  0  0  0  0  0
   14.0992  -17.8281   22.5997 O   0  0  0  0  0  0  0  0  0  0  0  0
  2  1  1  6
  2  3  1  0
  4  2  1  0
  4  5  1  1
  6  7  2  0
  6  4  1  0
  8  6  1  0
  9  8  1  0
  9 10  1  0
 10 12  1  0
 11 10  2  0
 12 13  1  0
 13 14  1  1
 13 16  1  0
 14 15  1  0
 16 18  2  0
 16 17  1  0
M  END
$$$$
