VGC.pdb
     RDKit          3D

 18 17  0  0  1  0  0  0  0  0999 V2000
    8.5964  -12.6936   20.1502 C   0  0  0  0  0  0  0  0  0  0  0  0
    7.8955  -13.7175   19.2843 C   0  0  1  0  0  0  0  0  0  0  0  0
    8.2663  -13.3993   17.8456 C   0  0  0  0  0  0  0  0  0  0  0  0
    8.2987  -15.1245   19.6664 C   0  0  2  0  0  0  0  0  0  0  0  0
    7.7639  -16.0334   18.6955 N   0  0  0  0  0  0  0  0  0  0  0  0
    7.8546  -15.4516   21.0489 C   0  0  0  0  0  0  0  0  0  0  0  0
    6.6342  -15.6033   21.2925 O   0  0  0  0  0  0  0  0  0  0  0  0
    8.8001  -15.5943   22.0982 N   0  0  0  0  0  0  0  0  0  0  0  0
    8.4787  -15.8213   23.4613 C   0  0  0  0  0  0  0  0  0  0  0  0
    8.1462  -14.6291   24.2607 C   0  0  0  0  0  0  0  0  0  0  0  0
    8.5806  -13.4939   23.8516 O   0  0  0  0  0  0  0  0  0  0  0  0
    7.3800  -14.6147   25.4531 N   0  0  0  0  0  0  0  0  0  0  0  0
    7.1731  -13.4832   26.3117 C   0  0  1  0  0  0  0  0  0  0  0  0
    5.7606  -13.1047   26.5626 C   0  0  0  0  0  0  0  0  0  0  0  0
    5.7877  -11.5477   27.5342 S   0  0  0  0  0  0  0  0  0  0  0  0
    7.9689  -13.5462   27.5868 C   0  0  0  0  0  0  0  0  0  0  0  0
    8.3091  -12.3722   28.2151 O   0  0  0  0  0  0  0  0  0  0  0  0
    8.3240  -14.6235   28.0885 O   0  0  0  0  0  0  0  0  0  0  0  0
  2  1  1  1
  2  3  1  0
  4  2  1  0
  4  5  1  6
  6  7  2  0
  6  4  1  0
  8  6  1  0
  9  8  1  0
  9 10  1  0
 10 12  1  0
 11 10  2  0
 12 13  1  0
 13 14  1  1
 13 16  1  0
 14 15  1  0
 16 18  2  0
 16 17  1  0
M  END
$$$$
