VGC.pdb
     RDKit          3D

 18 17  0  0  1  0  0  0  0  0999 V2000
    7.0217  -14.2407   18.0293 C   0  0  0  0  0  0  0  0  0  0  0  0
    8.1464  -14.0505   19.0235 C   0  0  1  0  0  0  0  0  0  0  0  0
    8.0217  -12.6335   19.5574 C   0  0  0  0  0  0  0  0  0  0  0  0
    8.0725  -15.0741   20.1348 C   0  0  2  0  0  0  0  0  0  0  0  0
    6.7590  -15.0337   20.7076 N   0  0  0  0  0  0  0  0  0  0  0  0
    9.1367  -14.8405   21.1490 C   0  0  0  0  0  0  0  0  0  0  0  0
    8.9358  -14.0370   22.0901 O   0  0  0  0  0  0  0  0  0  0  0  0
   10.3805  -15.5194   21.0626 N   0  0  0  0  0  0  0  0  0  0  0  0
   11.4741  -15.3351   21.9474 C   0  0  0  0  0  0  0  0  0  0  0  0
   11.2446  -15.7057   23.3548 C   0  0  0  0  0  0  0  0  0  0  0  0
   12.2709  -15.9419   24.0866 O   0  0  0  0  0  0  0  0  0  0  0  0
    9.9820  -15.8257   23.9878 N   0  0  0  0  0  0  0  0  0  0  0  0
    9.7534  -16.2001   25.3545 C   0  0  1  0  0  0  0  0  0  0  0  0
    8.5102  -15.6787   25.9742 C   0  0  0  0  0  0  0  0  0  0  0  0
    8.3046  -13.9508   25.3904 S   0  0  0  0  0  0  0  0  0  0  0  0
    9.9288  -17.6724   25.6090 C   0  0  0  0  0  0  0  0  0  0  0  0
   10.0219  -18.5248   24.5349 O   0  0  0  0  0  0  0  0  0  0  0  0
    9.9944  -18.1388   26.7564 O   0  0  0  0  0  0  0  0  0  0  0  0
  2  1  1  6
  2  3  1  0
  4  2  1  0
  4  5  1  1
  6  7  2  0
  6  4  1  0
  8  6  1  0
  9  8  1  0
  9 10  1  0
 10 12  1  0
 11 10  2  0
 12 13  1  0
 13 14  1  6
 13 16  1  0
 14 15  1  0
 16 18  2  0
 16 17  1  0
M  END
$$$$
