SHK.pdb
     RDKit          3D

 26 26  0  0  1  0  0  0  0  0999 V2000
    7.6631  -20.3423   20.6049 O   0  0  0  0  0  0  0  0  0  0  0  0
    6.5532  -19.5051   20.6800 C   0  0  0  0  0  0  0  0  0  0  0  0
    6.6944  -18.4585   19.5951 C   0  0  2  0  0  0  0  0  0  0  0  0
    6.8451  -19.0894   18.2996 N   0  0  0  0  0  0  0  0  0  0  0  0
    7.8780  -17.5895   19.8289 C   0  0  0  0  0  0  0  0  0  0  0  0
    8.9403  -17.8357   19.1947 O   0  0  0  0  0  0  0  0  0  0  0  0
    7.8414  -16.5138   20.7285 N   0  0  0  0  0  0  0  0  0  0  0  0
    8.9453  -15.6149   20.8470 C   0  0  1  0  0  0  0  0  0  0  0  0
    8.5361  -14.1821   20.6685 C   0  0  0  0  0  0  0  0  0  0  0  0
    8.0789  -13.8556   19.3203 C   0  0  0  0  0  0  0  0  0  0  0  0
    6.8558  -13.3026   19.0066 C   0  0  0  0  0  0  0  0  0  0  0  0
    6.8049  -13.1498   17.6600 N   0  0  0  0  0  0  0  0  0  0  0  0
    7.9462  -13.5860   17.1331 C   0  0  0  0  0  0  0  0  0  0  0  0
    8.7345  -14.0226   18.1593 N   0  0  0  0  0  0  0  0  0  0  0  0
    9.5347  -15.7500   22.2177 C   0  0  0  0  0  0  0  0  0  0  0  0
    8.7671  -15.9235   23.2255 O   0  0  0  0  0  0  0  0  0  0  0  0
   10.9386  -15.6868   22.4071 N   0  0  0  0  0  0  0  0  0  0  0  0
   11.6305  -16.2744   23.5521 C   0  0  1  0  0  0  0  0  0  0  0  0
   11.1999  -17.6795   23.7212 C   0  0  0  0  0  0  0  0  0  0  0  0
   11.8528  -18.3737   24.8670 C   0  0  0  0  0  0  0  0  0  0  0  0
   11.2531  -19.7703   24.9406 C   0  0  0  0  0  0  0  0  0  0  0  0
   11.9023  -20.4687   26.1179 C   0  0  0  0  0  0  0  0  0  0  0  0
   11.3725  -21.8069   26.1849 N   0  0  0  0  0  0  0  0  0  0  0  0
   13.0841  -16.0381   23.4814 C   0  0  0  0  0  0  0  0  0  0  0  0
   13.6570  -15.6671   22.2493 O   0  0  0  0  0  0  0  0  0  0  0  0
   13.8845  -16.1330   24.4251 O   0  0  0  0  0  0  0  0  0  0  0  0
  2  3  1  0
  2  1  1  0
  3  4  1  6
  5  3  1  0
  5  6  2  0
  7  8  1  0
  7  5  1  0
  9 10  1  0
  8  9  1  1
 10 11  2  0
 12 11  1  0
 13 12  1  0
 14 13  2  0
 14 10  1  0
 15 16  2  0
 15  8  1  0
 17 15  1  0
 18 17  1  0
 18 24  1  0
 18 19  1  6
 20 21  1  0
 20 19  1  0
 22 23  1  0
 22 21  1  0
 24 25  1  0
 26 24  2  0
M  END
$$$$
