SHK.pdb
     RDKit          3D

 26 26  0  0  1  0  0  0  0  0999 V2000
   16.3100  -14.9987   19.6921 O   0  0  0  0  0  0  0  0  0  0  0  0
   15.4962  -15.6078   18.7409 C   0  0  0  0  0  0  0  0  0  0  0  0
   14.2715  -14.7362   18.5598 C   0  0  2  0  0  0  0  0  0  0  0  0
   14.6171  -13.3381   18.7180 N   0  0  0  0  0  0  0  0  0  0  0  0
   13.2159  -15.0688   19.5528 C   0  0  0  0  0  0  0  0  0  0  0  0
   12.6723  -14.1268   20.1918 O   0  0  0  0  0  0  0  0  0  0  0  0
   12.8149  -16.3915   19.7931 N   0  0  0  0  0  0  0  0  0  0  0  0
   11.6936  -16.6806   20.6296 C   0  0  1  0  0  0  0  0  0  0  0  0
   11.0880  -18.0203   20.3290 C   0  0  0  0  0  0  0  0  0  0  0  0
    9.8322  -18.2781   21.0288 C   0  0  0  0  0  0  0  0  0  0  0  0
    9.2269  -17.4189   21.9207 C   0  0  0  0  0  0  0  0  0  0  0  0
    8.0864  -18.0104   22.3548 N   0  0  0  0  0  0  0  0  0  0  0  0
    7.9656  -19.1979   21.7665 C   0  0  0  0  0  0  0  0  0  0  0  0
    9.0450  -19.3640   20.9464 N   0  0  0  0  0  0  0  0  0  0  0  0
   12.1468  -16.6987   22.0575 C   0  0  0  0  0  0  0  0  0  0  0  0
   13.3574  -17.0010   22.3364 O   0  0  0  0  0  0  0  0  0  0  0  0
   11.2430  -16.3830   23.1036 N   0  0  0  0  0  0  0  0  0  0  0  0
   11.5734  -16.4933   24.5226 C   0  0  1  0  0  0  0  0  0  0  0  0
   10.7093  -15.5810   25.3031 C   0  0  0  0  0  0  0  0  0  0  0  0
   10.8804  -15.7074   26.7782 C   0  0  0  0  0  0  0  0  0  0  0  0
    9.9502  -14.6899   27.4224 C   0  0  0  0  0  0  0  0  0  0  0  0
   10.1748  -14.7705   28.9184 C   0  0  0  0  0  0  0  0  0  0  0  0
    9.2959  -13.8188   29.5492 N   0  0  0  0  0  0  0  0  0  0  0  0
   11.6044  -17.9011   24.9598 C   0  0  0  0  0  0  0  0  0  0  0  0
   12.7003  -18.3574   25.7178 O   0  0  0  0  0  0  0  0  0  0  0  0
   10.7364  -18.7564   24.7243 O   0  0  0  0  0  0  0  0  0  0  0  0
  2  3  1  0
  2  1  1  0
  3  4  1  1
  5  3  1  0
  5  6  2  0
  7  8  1  0
  7  5  1  0
  9 10  1  0
  8  9  1  6
 10 11  2  0
 12 11  1  0
 13 12  1  0
 14 13  2  0
 14 10  1  0
 15 16  2  0
 15  8  1  0
 17 15  1  0
 18 17  1  0
 18 24  1  0
 18 19  1  1
 20 21  1  0
 20 19  1  0
 22 23  1  0
 22 21  1  0
 24 25  1  0
 26 24  2  0
M  END
$$$$
