SHK.pdb
     RDKit          3D

 26 26  0  0  1  0  0  0  0  0999 V2000
   10.2171  -19.9711   15.3880 O   0  0  0  0  0  0  0  0  0  0  0  0
    8.8882  -19.5597   15.4432 C   0  0  0  0  0  0  0  0  0  0  0  0
    8.8801  -18.0494   15.5502 C   0  0  2  0  0  0  0  0  0  0  0  0
    9.5543  -17.4577   14.4125 N   0  0  0  0  0  0  0  0  0  0  0  0
    9.5647  -17.5884   16.7870 C   0  0  0  0  0  0  0  0  0  0  0  0
   10.7634  -17.2043   16.7040 O   0  0  0  0  0  0  0  0  0  0  0  0
    8.9158  -17.5709   18.0306 N   0  0  0  0  0  0  0  0  0  0  0  0
    9.5391  -16.9926   19.1785 C   0  0  1  0  0  0  0  0  0  0  0  0
    8.5599  -16.2689   20.0556 C   0  0  0  0  0  0  0  0  0  0  0  0
    8.2532  -14.9109   19.6139 C   0  0  0  0  0  0  0  0  0  0  0  0
    8.8245  -14.2780   18.5308 C   0  0  0  0  0  0  0  0  0  0  0  0
    8.2846  -13.0368   18.4458 N   0  0  0  0  0  0  0  0  0  0  0  0
    7.4050  -12.8807   19.4321 C   0  0  0  0  0  0  0  0  0  0  0  0
    7.3851  -14.0394   20.1548 N   0  0  0  0  0  0  0  0  0  0  0  0
   10.1574  -18.0855   19.9957 C   0  0  0  0  0  0  0  0  0  0  0  0
    9.6344  -19.2522   19.9965 O   0  0  0  0  0  0  0  0  0  0  0  0
   11.3193  -17.8363   20.7695 N   0  0  0  0  0  0  0  0  0  0  0  0
   12.0269  -18.8666   21.5263 C   0  0  1  0  0  0  0  0  0  0  0  0
   13.4712  -18.5487   21.5619 C   0  0  0  0  0  0  0  0  0  0  0  0
   14.3010  -19.5989   22.2174 C   0  0  0  0  0  0  0  0  0  0  0  0
   15.7493  -19.1400   22.1296 C   0  0  0  0  0  0  0  0  0  0  0  0
   16.5967  -20.2291   22.7547 C   0  0  0  0  0  0  0  0  0  0  0  0
   17.9676  -19.7858   22.7396 N   0  0  0  0  0  0  0  0  0  0  0  0
   11.3790  -19.1194   22.8263 C   0  0  0  0  0  0  0  0  0  0  0  0
   11.6192  -20.3419   23.4835 O   0  0  0  0  0  0  0  0  0  0  0  0
   10.6191  -18.3420   23.4252 O   0  0  0  0  0  0  0  0  0  0  0  0
  2  3  1  0
  2  1  1  0
  3  4  1  6
  5  3  1  0
  5  6  2  0
  7  8  1  0
  7  5  1  0
  9 10  1  0
  8  9  1  1
 10 11  2  0
 12 11  1  0
 13 12  1  0
 14 13  2  0
 14 10  1  0
 15 16  2  0
 15  8  1  0
 17 15  1  0
 18 17  1  0
 18 24  1  0
 18 19  1  1
 20 21  1  0
 20 19  1  0
 22 23  1  0
 22 21  1  0
 24 25  1  0
 26 24  2  0
M  END
$$$$
