SHK.pdb
     RDKit          3D

 26 26  0  0  1  0  0  0  0  0999 V2000
   10.8571  -12.8228   19.5266 O   0  0  0  0  0  0  0  0  0  0  0  0
   10.5940  -13.6562   18.4429 C   0  0  0  0  0  0  0  0  0  0  0  0
    9.1689  -14.1490   18.5790 C   0  0  2  0  0  0  0  0  0  0  0  0
    8.2515  -13.0303   18.6562 N   0  0  0  0  0  0  0  0  0  0  0  0
    8.9947  -14.9776   19.8013 C   0  0  0  0  0  0  0  0  0  0  0  0
    8.1914  -14.5797   20.6888 O   0  0  0  0  0  0  0  0  0  0  0  0
    9.6952  -16.1785   19.9886 N   0  0  0  0  0  0  0  0  0  0  0  0
    9.4477  -17.0058   21.1265 C   0  0  1  0  0  0  0  0  0  0  0  0
    9.5930  -18.4661   20.8128 C   0  0  0  0  0  0  0  0  0  0  0  0
   10.8175  -18.8024   20.0912 C   0  0  0  0  0  0  0  0  0  0  0  0
   11.6332  -17.8997   19.4432 C   0  0  0  0  0  0  0  0  0  0  0  0
   12.6634  -18.5922   18.8969 N   0  0  0  0  0  0  0  0  0  0  0  0
   12.5145  -19.8834   19.1823 C   0  0  0  0  0  0  0  0  0  0  0  0
   11.3732  -20.0140   19.9209 N   0  0  0  0  0  0  0  0  0  0  0  0
   10.4436  -16.6708   22.1944 C   0  0  0  0  0  0  0  0  0  0  0  0
   11.5283  -16.0682   21.8856 O   0  0  0  0  0  0  0  0  0  0  0  0
   10.1931  -17.0170   23.5465 N   0  0  0  0  0  0  0  0  0  0  0  0
   11.0258  -16.5785   24.6643 C   0  0  1  0  0  0  0  0  0  0  0  0
   10.1729  -15.9587   25.7019 C   0  0  0  0  0  0  0  0  0  0  0  0
   10.9241  -15.5152   26.9103 C   0  0  0  0  0  0  0  0  0  0  0  0
    9.9048  -14.9317   27.8780 C   0  0  0  0  0  0  0  0  0  0  0  0
   10.6795  -14.3852   29.0596 C   0  0  0  0  0  0  0  0  0  0  0  0
    9.7460  -13.7131   29.9273 N   0  0  0  0  0  0  0  0  0  0  0  0
   11.9305  -17.6521   25.1146 C   0  0  0  0  0  0  0  0  0  0  0  0
   11.6007  -18.9903   24.8241 O   0  0  0  0  0  0  0  0  0  0  0  0
   12.9895  -17.4969   25.7428 O   0  0  0  0  0  0  0  0  0  0  0  0
  2  3  1  0
  2  1  1  0
  3  4  1  1
  5  3  1  0
  5  6  2  0
  7  8  1  0
  7  5  1  0
  9 10  1  0
  8  9  1  6
 10 11  2  0
 12 11  1  0
 13 12  1  0
 14 13  2  0
 14 10  1  0
 15 16  2  0
 15  8  1  0
 17 15  1  0
 18 17  1  0
 18 24  1  0
 18 19  1  1
 20 21  1  0
 20 19  1  0
 22 23  1  0
 22 21  1  0
 24 25  1  0
 26 24  2  0
M  END
$$$$
