SHK.pdb
     RDKit          3D

 26 26  0  0  1  0  0  0  0  0999 V2000
   13.2769  -19.1057   20.2219 O   0  0  0  0  0  0  0  0  0  0  0  0
   12.0302  -19.0816   19.6026 C   0  0  0  0  0  0  0  0  0  0  0  0
   11.8387  -17.7008   19.0118 C   0  0  2  0  0  0  0  0  0  0  0  0
   13.0861  -17.2062   18.4657 N   0  0  0  0  0  0  0  0  0  0  0  0
   11.3636  -16.7326   20.0355 C   0  0  0  0  0  0  0  0  0  0  0  0
   12.2199  -16.0500   20.6616 O   0  0  0  0  0  0  0  0  0  0  0  0
   10.0002  -16.5625   20.3183 N   0  0  0  0  0  0  0  0  0  0  0  0
    9.5662  -15.6582   21.3353 C   0  0  1  0  0  0  0  0  0  0  0  0
    8.1269  -15.2655   21.1735 C   0  0  0  0  0  0  0  0  0  0  0  0
    7.8235  -14.6226   19.8976 C   0  0  0  0  0  0  0  0  0  0  0  0
    8.0731  -13.3017   19.5926 C   0  0  0  0  0  0  0  0  0  0  0  0
    7.6537  -13.0852   18.3211 N   0  0  0  0  0  0  0  0  0  0  0  0
    7.1566  -14.2186   17.8321 C   0  0  0  0  0  0  0  0  0  0  0  0
    7.2614  -15.1697   18.8066 N   0  0  0  0  0  0  0  0  0  0  0  0
    9.7061  -16.3263   22.6690 C   0  0  0  0  0  0  0  0  0  0  0  0
    9.9325  -17.5833   22.7296 O   0  0  0  0  0  0  0  0  0  0  0  0
    9.5891  -15.5754   23.8661 N   0  0  0  0  0  0  0  0  0  0  0  0
    9.8537  -16.1209   25.1956 C   0  0  1  0  0  0  0  0  0  0  0  0
    9.9300  -15.0161   26.1763 C   0  0  0  0  0  0  0  0  0  0  0  0
   10.3139  -15.4560   27.5476 C   0  0  0  0  0  0  0  0  0  0  0  0
   10.2542  -14.2263   28.4419 C   0  0  0  0  0  0  0  0  0  0  0  0
   10.6721  -14.6681   29.8294 C   0  0  0  0  0  0  0  0  0  0  0  0
   10.6248  -13.5157   30.6931 N   0  0  0  0  0  0  0  0  0  0  0  0
    8.9281  -17.2220   25.5192 C   0  0  0  0  0  0  0  0  0  0  0  0
    9.3554  -18.2389   26.3951 O   0  0  0  0  0  0  0  0  0  0  0  0
    7.7715  -17.3521   25.0882 O   0  0  0  0  0  0  0  0  0  0  0  0
  2  3  1  0
  2  1  1  0
  3  4  1  1
  5  3  1  0
  5  6  2  0
  7  8  1  0
  7  5  1  0
  9 10  1  0
  8  9  1  6
 10 11  2  0
 12 11  1  0
 13 12  1  0
 14 13  2  0
 14 10  1  0
 15 16  2  0
 15  8  1  0
 17 15  1  0
 18 17  1  0
 18 24  1  0
 18 19  1  1
 20 21  1  0
 20 19  1  0
 22 23  1  0
 22 21  1  0
 24 25  1  0
 26 24  2  0
M  END
$$$$
