SHK.pdb
     RDKit          3D

 26 26  0  0  1  0  0  0  0  0999 V2000
    7.7268  -12.9782   18.9655 O   0  0  0  0  0  0  0  0  0  0  0  0
    8.1982  -13.9010   19.8952 C   0  0  0  0  0  0  0  0  0  0  0  0
    8.2982  -15.2422   19.1996 C   0  0  2  0  0  0  0  0  0  0  0  0
    6.9805  -15.8143   19.0114 N   0  0  0  0  0  0  0  0  0  0  0  0
    9.1138  -16.2037   19.9877 C   0  0  0  0  0  0  0  0  0  0  0  0
    8.5501  -16.8605   20.9054 O   0  0  0  0  0  0  0  0  0  0  0  0
   10.4807  -16.3956   19.7373 N   0  0  0  0  0  0  0  0  0  0  0  0
   11.2603  -17.2797   20.5442 C   0  0  1  0  0  0  0  0  0  0  0  0
   12.4421  -17.8347   19.8044 C   0  0  0  0  0  0  0  0  0  0  0  0
   12.1021  -18.8553   18.8164 C   0  0  0  0  0  0  0  0  0  0  0  0
   11.0306  -19.7184   18.8998 C   0  0  0  0  0  0  0  0  0  0  0  0
   11.0517  -20.5105   17.7991 N   0  0  0  0  0  0  0  0  0  0  0  0
   12.0921  -20.1698   17.0427 C   0  0  0  0  0  0  0  0  0  0  0  0
   12.7421  -19.1463   17.6712 N   0  0  0  0  0  0  0  0  0  0  0  0
   11.7815  -16.5225   21.7272 C   0  0  0  0  0  0  0  0  0  0  0  0
   12.1601  -15.3091   21.5888 O   0  0  0  0  0  0  0  0  0  0  0  0
   11.8586  -17.1413   23.0008 N   0  0  0  0  0  0  0  0  0  0  0  0
   12.2580  -16.4420   24.2201 C   0  0  1  0  0  0  0  0  0  0  0  0
   11.6692  -17.1219   25.3945 C   0  0  0  0  0  0  0  0  0  0  0  0
   12.1068  -16.5518   26.7001 C   0  0  0  0  0  0  0  0  0  0  0  0
   11.3674  -17.3157   27.7889 C   0  0  0  0  0  0  0  0  0  0  0  0
   11.7008  -16.6433   29.1049 C   0  0  0  0  0  0  0  0  0  0  0  0
   11.0200  -17.3609   30.1526 N   0  0  0  0  0  0  0  0  0  0  0  0
   13.7141  -16.2134   24.2566 C   0  0  0  0  0  0  0  0  0  0  0  0
   14.5588  -17.0690   23.5230 O   0  0  0  0  0  0  0  0  0  0  0  0
   14.2951  -15.3149   24.8856 O   0  0  0  0  0  0  0  0  0  0  0  0
  2  3  1  0
  2  1  1  0
  3  4  1  1
  5  3  1  0
  5  6  2  0
  7  8  1  0
  7  5  1  0
  9 10  1  0
  8  9  1  6
 10 11  2  0
 12 11  1  0
 13 12  1  0
 14 13  2  0
 14 10  1  0
 15 16  2  0
 15  8  1  0
 17 15  1  0
 18 17  1  0
 18 24  1  0
 18 19  1  1
 20 21  1  0
 20 19  1  0
 22 23  1  0
 22 21  1  0
 24 25  1  0
 26 24  2  0
M  END
$$$$
