SHK.pdb
     RDKit          3D

 26 26  0  0  1  0  0  0  0  0999 V2000
    3.3968  -19.2224   22.6085 O   0  0  0  0  0  0  0  0  0  0  0  0
    3.5341  -17.9084   22.1695 C   0  0  0  0  0  0  0  0  0  0  0  0
    4.5521  -17.9037   21.0487 C   0  0  2  0  0  0  0  0  0  0  0  0
    4.7928  -19.2525   20.5778 N   0  0  0  0  0  0  0  0  0  0  0  0
    5.8489  -17.3291   21.4948 C   0  0  0  0  0  0  0  0  0  0  0  0
    6.7829  -18.1189   21.8032 O   0  0  0  0  0  0  0  0  0  0  0  0
    6.0558  -15.9442   21.5797 N   0  0  0  0  0  0  0  0  0  0  0  0
    7.3209  -15.4114   21.9749 C   0  0  1  0  0  0  0  0  0  0  0  0
    7.5443  -14.0232   21.4507 C   0  0  0  0  0  0  0  0  0  0  0  0
    7.8654  -13.9673   20.0270 C   0  0  0  0  0  0  0  0  0  0  0  0
    8.0433  -15.0613   19.2075 C   0  0  0  0  0  0  0  0  0  0  0  0
    8.3267  -14.6032   17.9628 N   0  0  0  0  0  0  0  0  0  0  0  0
    8.3303  -13.2727   17.9835 C   0  0  0  0  0  0  0  0  0  0  0  0
    8.0451  -12.8788   19.2597 N   0  0  0  0  0  0  0  0  0  0  0  0
    7.3719  -15.3443   23.4707 C   0  0  0  0  0  0  0  0  0  0  0  0
    6.2923  -15.1851   24.1370 O   0  0  0  0  0  0  0  0  0  0  0  0
    8.6091  -15.4559   24.1545 N   0  0  0  0  0  0  0  0  0  0  0  0
    8.7750  -16.1632   25.4223 C   0  0  1  0  0  0  0  0  0  0  0  0
    8.1840  -17.5150   25.3144 C   0  0  0  0  0  0  0  0  0  0  0  0
    8.3430  -18.3397   26.5455 C   0  0  0  0  0  0  0  0  0  0  0  0
    7.7606  -19.7119   26.2396 C   0  0  0  0  0  0  0  0  0  0  0  0
    7.9689  -20.5657   27.4736 C   0  0  0  0  0  0  0  0  0  0  0  0
    7.2674  -21.8084   27.2747 N   0  0  0  0  0  0  0  0  0  0  0  0
   10.1683  -16.0929   25.8991 C   0  0  0  0  0  0  0  0  0  0  0  0
   11.2134  -16.0707   24.9551 O   0  0  0  0  0  0  0  0  0  0  0  0
   10.5312  -16.0480   27.0852 O   0  0  0  0  0  0  0  0  0  0  0  0
  2  3  1  0
  2  1  1  0
  3  4  1  1
  5  3  1  0
  5  6  2  0
  7  8  1  0
  7  5  1  0
  9 10  1  0
  8  9  1  6
 10 11  2  0
 12 11  1  0
 13 12  1  0
 14 13  2  0
 14 10  1  0
 15 16  2  0
 15  8  1  0
 17 15  1  0
 18 17  1  0
 18 24  1  0
 18 19  1  6
 20 21  1  0
 20 19  1  0
 22 23  1  0
 22 21  1  0
 24 25  1  0
 26 24  2  0
M  END
$$$$
