FPT.pdb
     RDKit          3D

 26 27  0  0  1  0  0  0  0  0999 V2000
   25.1504  -19.5079   -7.9130 N   0  0  0  0  0  0  0  0  0  0  0  0
   26.2867  -19.8529   -8.7298 C   0  0  1  0  0  0  0  0  0  0  0  0
   27.0480  -20.9723   -8.0817 C   0  0  0  0  0  0  0  0  0  0  0  0
   27.6326  -20.4930   -6.8103 C   0  0  0  0  0  0  0  0  0  0  0  0
   27.0097  -20.7697   -5.6156 C   0  0  0  0  0  0  0  0  0  0  0  0
   27.5125  -20.3376   -4.3961 C   0  0  0  0  0  0  0  0  0  0  0  0
   28.6732  -19.6112   -4.4171 C   0  0  0  0  0  0  0  0  0  0  0  0
   29.3320  -19.3093   -5.5846 C   0  0  0  0  0  0  0  0  0  0  0  0
   28.7952  -19.7619   -6.7974 C   0  0  0  0  0  0  0  0  0  0  0  0
   25.9513  -20.1311  -10.1412 C   0  0  0  0  0  0  0  0  0  0  0  0
   24.7068  -20.2157  -10.4186 O   0  0  0  0  0  0  0  0  0  0  0  0
   26.9103  -20.2991  -11.1425 N   0  0  0  0  0  0  0  0  0  0  0  0
   28.2220  -20.8978  -11.0096 C   0  0  0  0  0  0  0  0  0  0  0  0
   28.7882  -20.9187  -12.4389 C   0  0  0  0  0  0  0  0  0  0  0  0
   28.1493  -19.6366  -12.9596 C   0  0  0  0  0  0  0  0  0  0  0  0
   26.7251  -19.8809  -12.5415 C   0  0  1  0  0  0  0  0  0  0  0  0
   26.1336  -21.0465  -13.2455 C   0  0  0  0  0  0  0  0  0  0  0  0
   26.3294  -22.2401  -12.8991 O   0  0  0  0  0  0  0  0  0  0  0  0
   23.3731  -22.3261  -12.5922 C   0  0  0  0  0  0  0  0  0  0  0  0
   23.1177  -21.7213  -13.9523 C   0  0  1  0  0  0  0  0  0  0  0  0
   22.8046  -20.3814  -13.9003 O   0  0  0  0  0  0  0  0  0  0  0  0
   24.3541  -21.8484  -14.8511 C   0  0  2  0  0  0  0  0  0  0  0  0
   25.2903  -20.8445  -14.3831 N   0  0  0  0  0  0  0  0  0  0  0  0
   23.9830  -21.5203  -16.2475 C   0  0  0  0  0  0  0  0  0  0  0  0
   24.3185  -20.3224  -16.8239 O   0  0  0  0  0  0  0  0  0  0  0  0
   23.3407  -22.3471  -16.9484 O   0  0  0  0  0  0  0  0  0  0  0  0
  2 10  1  0
  2  1  1  1
  3  2  1  0
  4  9  1  0
  4  3  1  0
  5  4  2  0
  6  7  2  0
  6  5  1  0
  7  8  1  0
  8  9  2  0
 10 12  1  0
 11 10  2  0
 12 16  1  0
 12 13  1  0
 14 13  1  0
 15 14  1  0
 15 16  1  0
 16 17  1  6
 17 18  2  0
 20 19  1  1
 20 22  1  0
 21 20  1  0
 22 23  1  1
 23 17  1  0
 24 22  1  0
 25 24  1  0
 26 24  2  0
M  END
$$$$
