FPT.pdb
     RDKit          3D

 26 27  0  0  1  0  0  0  0  0999 V2000
   27.7406  -20.3725  -15.7023 N   0  0  0  0  0  0  0  0  0  0  0  0
   26.8423  -19.7492  -14.7632 C   0  0  1  0  0  0  0  0  0  0  0  0
   26.0874  -18.6474  -15.4480 C   0  0  0  0  0  0  0  0  0  0  0  0
   27.0161  -17.5386  -15.7575 C   0  0  0  0  0  0  0  0  0  0  0  0
   27.0961  -16.4501  -14.9205 C   0  0  0  0  0  0  0  0  0  0  0  0
   27.9454  -15.3807  -15.1688 C   0  0  0  0  0  0  0  0  0  0  0  0
   28.7192  -15.4419  -16.2970 C   0  0  0  0  0  0  0  0  0  0  0  0
   28.6748  -16.5074  -17.1636 C   0  0  0  0  0  0  0  0  0  0  0  0
   27.8054  -17.5696  -16.8812 C   0  0  0  0  0  0  0  0  0  0  0  0
   25.9561  -20.6973  -14.0578 C   0  0  0  0  0  0  0  0  0  0  0  0
   25.4856  -21.6568  -14.7583 O   0  0  0  0  0  0  0  0  0  0  0  0
   25.6275  -20.5842  -12.7051 N   0  0  0  0  0  0  0  0  0  0  0  0
   26.1583  -19.6345  -11.7497 C   0  0  0  0  0  0  0  0  0  0  0  0
   25.3654  -19.8950  -10.4584 C   0  0  0  0  0  0  0  0  0  0  0  0
   25.1689  -21.3991  -10.6071 C   0  0  0  0  0  0  0  0  0  0  0  0
   24.6499  -21.4438  -12.0184 C   0  0  1  0  0  0  0  0  0  0  0  0
   23.3379  -20.7612  -12.1475 C   0  0  0  0  0  0  0  0  0  0  0  0
   23.1571  -19.5461  -11.8752 O   0  0  0  0  0  0  0  0  0  0  0  0
   21.5983  -20.3179  -15.2373 C   0  0  0  0  0  0  0  0  0  0  0  0
   20.6423  -21.1005  -14.3687 C   0  0  1  0  0  0  0  0  0  0  0  0
   20.7242  -22.4615  -14.5612 O   0  0  0  0  0  0  0  0  0  0  0  0
   20.9210  -20.8502  -12.8812 C   0  0  2  0  0  0  0  0  0  0  0  0
   22.1932  -21.4884  -12.6025 N   0  0  0  0  0  0  0  0  0  0  0  0
   19.8795  -21.5185  -12.0664 C   0  0  0  0  0  0  0  0  0  0  0  0
   20.1337  -22.6717  -11.3698 O   0  0  0  0  0  0  0  0  0  0  0  0
   18.7182  -21.0352  -11.9936 O   0  0  0  0  0  0  0  0  0  0  0  0
  2 10  1  0
  2  1  1  6
  3  2  1  0
  4  9  1  0
  4  3  1  0
  5  4  2  0
  6  7  2  0
  6  5  1  0
  7  8  1  0
  8  9  2  0
 10 12  1  0
 11 10  2  0
 12 16  1  0
 12 13  1  0
 14 13  1  0
 15 14  1  0
 15 16  1  0
 16 17  1  1
 17 18  2  0
 20 19  1  6
 20 22  1  0
 21 20  1  0
 22 23  1  1
 23 17  1  0
 24 22  1  0
 25 24  1  0
 26 24  2  0
M  END
$$$$
