FPT.pdb
     RDKit          3D

 26 27  0  0  1  0  0  0  0  0999 V2000
   25.6859  -18.7840   -7.8224 N   0  0  0  0  0  0  0  0  0  0  0  0
   26.5553  -19.6254   -8.6056 C   0  0  1  0  0  0  0  0  0  0  0  0
   26.8745  -20.8723   -7.8336 C   0  0  0  0  0  0  0  0  0  0  0  0
   27.6533  -20.5140   -6.6282 C   0  0  0  0  0  0  0  0  0  0  0  0
   27.0468  -20.4952   -5.3938 C   0  0  0  0  0  0  0  0  0  0  0  0
   27.7302  -20.1594   -4.2334 C   0  0  0  0  0  0  0  0  0  0  0  0
   29.0564  -19.8400   -4.3555 C   0  0  0  0  0  0  0  0  0  0  0  0
   29.7064  -19.8444   -5.5662 C   0  0  0  0  0  0  0  0  0  0  0  0
   28.9847  -20.1885   -6.7171 C   0  0  0  0  0  0  0  0  0  0  0  0
   26.0545  -19.9076   -9.9663 C   0  0  0  0  0  0  0  0  0  0  0  0
   24.8041  -19.7246  -10.1558 O   0  0  0  0  0  0  0  0  0  0  0  0
   26.8689  -20.3508  -11.0107 N   0  0  0  0  0  0  0  0  0  0  0  0
   28.0920  -21.1185  -10.9045 C   0  0  0  0  0  0  0  0  0  0  0  0
   28.4944  -21.4150  -12.3585 C   0  0  0  0  0  0  0  0  0  0  0  0
   27.9866  -20.1317  -13.0053 C   0  0  0  0  0  0  0  0  0  0  0  0
   26.5951  -20.0994  -12.4348 C   0  0  1  0  0  0  0  0  0  0  0  0
   25.7768  -21.2449  -12.9061 C   0  0  0  0  0  0  0  0  0  0  0  0
   26.1083  -22.4481  -12.7459 O   0  0  0  0  0  0  0  0  0  0  0  0
   22.1589  -21.5396  -11.8784 C   0  0  0  0  0  0  0  0  0  0  0  0
   22.2281  -21.5569  -13.3869 C   0  0  1  0  0  0  0  0  0  0  0  0
   22.0536  -20.3136  -13.9525 O   0  0  0  0  0  0  0  0  0  0  0  0
   23.5907  -22.0708  -13.8686 C   0  0  2  0  0  0  0  0  0  0  0  0
   24.5385  -21.0110  -13.5830 N   0  0  0  0  0  0  0  0  0  0  0  0
   23.5497  -22.2723  -15.3359 C   0  0  0  0  0  0  0  0  0  0  0  0
   24.1346  -21.3881  -16.2053 O   0  0  0  0  0  0  0  0  0  0  0  0
   22.9674  -23.2763  -15.8264 O   0  0  0  0  0  0  0  0  0  0  0  0
  2 10  1  0
  2  1  1  1
  3  2  1  0
  4  9  1  0
  4  3  1  0
  5  4  2  0
  6  7  2  0
  6  5  1  0
  7  8  1  0
  8  9  2  0
 10 12  1  0
 11 10  2  0
 12 16  1  0
 12 13  1  0
 14 13  1  0
 15 14  1  0
 15 16  1  0
 16 17  1  6
 17 18  2  0
 20 19  1  1
 20 22  1  0
 21 20  1  0
 22 23  1  6
 23 17  1  0
 24 22  1  0
 25 24  1  0
 26 24  2  0
M  END
$$$$
