FPT.pdb
     RDKit          3D

 26 27  0  0  1  0  0  0  0  0999 V2000
   24.4707  -20.1300  -17.9724 N   0  0  0  0  0  0  0  0  0  0  0  0
   25.0889  -19.3812  -16.9073 C   0  0  1  0  0  0  0  0  0  0  0  0
   24.2155  -18.2168  -16.5411 C   0  0  0  0  0  0  0  0  0  0  0  0
   24.1254  -17.2931  -17.6929 C   0  0  0  0  0  0  0  0  0  0  0  0
   25.2207  -16.5529  -18.0725 C   0  0  0  0  0  0  0  0  0  0  0  0
   25.1871  -15.6673  -19.1407 C   0  0  0  0  0  0  0  0  0  0  0  0
   24.0048  -15.5490  -19.8216 C   0  0  0  0  0  0  0  0  0  0  0  0
   22.8836  -16.2666  -19.4806 C   0  0  0  0  0  0  0  0  0  0  0  0
   22.9542  -17.1515  -18.3962 C   0  0  0  0  0  0  0  0  0  0  0  0
   25.4704  -20.1999  -15.7386 C   0  0  0  0  0  0  0  0  0  0  0  0
   24.7071  -21.1888  -15.4698 O   0  0  0  0  0  0  0  0  0  0  0  0
   26.5922  -19.9394  -14.9483 N   0  0  0  0  0  0  0  0  0  0  0  0
   27.5750  -18.8931  -15.1376 C   0  0  0  0  0  0  0  0  0  0  0  0
   28.5082  -19.0093  -13.9212 C   0  0  0  0  0  0  0  0  0  0  0  0
   28.4496  -20.5200  -13.7281 C   0  0  0  0  0  0  0  0  0  0  0  0
   26.9583  -20.7163  -13.7530 C   0  0  1  0  0  0  0  0  0  0  0  0
   26.2928  -20.0476  -12.6067 C   0  0  0  0  0  0  0  0  0  0  0  0
   26.2100  -18.7982  -12.4837 O   0  0  0  0  0  0  0  0  0  0  0  0
   22.8987  -20.1979  -11.7776 C   0  0  0  0  0  0  0  0  0  0  0  0
   23.5622  -20.7154  -10.5235 C   0  0  1  0  0  0  0  0  0  0  0  0
   23.5960  -22.0903  -10.4552 O   0  0  0  0  0  0  0  0  0  0  0  0
   25.0165  -20.2359  -10.4334 C   0  0  2  0  0  0  0  0  0  0  0  0
   25.7016  -20.8299  -11.5652 N   0  0  0  0  0  0  0  0  0  0  0  0
   25.6316  -20.7611   -9.1920 C   0  0  0  0  0  0  0  0  0  0  0  0
   25.2382  -20.3320   -7.9507 O   0  0  0  0  0  0  0  0  0  0  0  0
   26.5445  -21.6277   -9.2491 O   0  0  0  0  0  0  0  0  0  0  0  0
  2 10  1  0
  2  1  1  6
  3  2  1  0
  4  9  1  0
  4  3  1  0
  5  4  2  0
  6  7  2  0
  6  5  1  0
  7  8  1  0
  8  9  2  0
 10 12  1  0
 11 10  2  0
 12 16  1  0
 12 13  1  0
 14 13  1  0
 15 14  1  0
 15 16  1  0
 16 17  1  1
 17 18  2  0
 20 19  1  6
 20 22  1  0
 21 20  1  0
 22 23  1  6
 23 17  1  0
 24 22  1  0
 25 24  1  0
 26 24  2  0
M  END
$$$$
