FPT.pdb
     RDKit          3D

 26 27  0  0  1  0  0  0  0  0999 V2000
   27.2491  -21.4537  -15.5011 N   0  0  0  0  0  0  0  0  0  0  0  0
   26.3924  -20.6351  -14.6806 C   0  0  1  0  0  0  0  0  0  0  0  0
   25.7871  -19.5469  -15.5185 C   0  0  0  0  0  0  0  0  0  0  0  0
   26.8168  -18.5261  -15.8108 C   0  0  0  0  0  0  0  0  0  0  0  0
   27.1018  -17.5477  -14.8871 C   0  0  0  0  0  0  0  0  0  0  0  0
   28.0532  -16.5630  -15.1147 C   0  0  0  0  0  0  0  0  0  0  0  0
   28.7153  -16.5944  -16.3131 C   0  0  0  0  0  0  0  0  0  0  0  0
   28.4658  -17.5512  -17.2674 C   0  0  0  0  0  0  0  0  0  0  0  0
   27.4982  -18.5299  -17.0033 C   0  0  0  0  0  0  0  0  0  0  0  0
   25.3837  -21.3969  -13.9164 C   0  0  0  0  0  0  0  0  0  0  0  0
   24.9619  -22.4747  -14.4582 O   0  0  0  0  0  0  0  0  0  0  0  0
   24.8941  -20.9945  -12.6718 N   0  0  0  0  0  0  0  0  0  0  0  0
   25.3203  -19.8537  -11.8885 C   0  0  0  0  0  0  0  0  0  0  0  0
   24.3711  -19.8340  -10.6791 C   0  0  0  0  0  0  0  0  0  0  0  0
   24.1686  -21.3362  -10.5195 C   0  0  0  0  0  0  0  0  0  0  0  0
   23.8253  -21.6932  -11.9399 C   0  0  1  0  0  0  0  0  0  0  0  0
   22.5508  -21.0685  -12.3752 C   0  0  0  0  0  0  0  0  0  0  0  0
   22.3948  -19.8269  -12.5062 O   0  0  0  0  0  0  0  0  0  0  0  0
   20.7119  -22.4487  -15.4678 C   0  0  0  0  0  0  0  0  0  0  0  0
   19.7548  -22.3983  -14.3006 C   0  0  1  0  0  0  0  0  0  0  0  0
   19.6500  -23.5979  -13.6326 O   0  0  0  0  0  0  0  0  0  0  0  0
   20.2037  -21.3581  -13.2665 C   0  0  2  0  0  0  0  0  0  0  0  0
   21.4157  -21.8871  -12.6712 N   0  0  0  0  0  0  0  0  0  0  0  0
   19.1769  -21.2457  -12.2043 C   0  0  0  0  0  0  0  0  0  0  0  0
   17.9629  -20.6497  -12.4302 O   0  0  0  0  0  0  0  0  0  0  0  0
   19.3988  -21.7022  -11.0511 O   0  0  0  0  0  0  0  0  0  0  0  0
  2 10  1  0
  2  1  1  6
  3  2  1  0
  4  9  1  0
  4  3  1  0
  5  4  2  0
  6  7  2  0
  6  5  1  0
  7  8  1  0
  8  9  2  0
 10 12  1  0
 11 10  2  0
 12 16  1  0
 12 13  1  0
 14 13  1  0
 15 14  1  0
 15 16  1  0
 16 17  1  6
 17 18  2  0
 20 19  1  6
 20 22  1  0
 21 20  1  0
 22 23  1  1
 23 17  1  0
 24 22  1  0
 25 24  1  0
 26 24  2  0
M  END
$$$$
