FPT.pdb
     RDKit          3D

 26 27  0  0  1  0  0  0  0  0999 V2000
   25.5977  -19.0705   -7.6421 N   0  0  0  0  0  0  0  0  0  0  0  0
   26.5879  -19.7391   -8.4482 C   0  0  1  0  0  0  0  0  0  0  0  0
   27.1420  -20.9107   -7.6913 C   0  0  0  0  0  0  0  0  0  0  0  0
   27.8098  -20.4269   -6.4634 C   0  0  0  0  0  0  0  0  0  0  0  0
   27.1153  -20.3645   -5.2778 C   0  0  0  0  0  0  0  0  0  0  0  0
   27.6926  -19.9119   -4.0995 C   0  0  0  0  0  0  0  0  0  0  0  0
   29.0038  -19.5201   -4.1526 C   0  0  0  0  0  0  0  0  0  0  0  0
   29.7391  -19.5639   -5.3126 C   0  0  0  0  0  0  0  0  0  0  0  0
   29.1234  -20.0265   -6.4834 C   0  0  0  0  0  0  0  0  0  0  0  0
   26.1179  -20.1022   -9.8006 C   0  0  0  0  0  0  0  0  0  0  0  0
   24.8516  -20.1703   -9.9578 O   0  0  0  0  0  0  0  0  0  0  0  0
   26.9766  -20.3640  -10.8704 N   0  0  0  0  0  0  0  0  0  0  0  0
   28.2585  -21.0356  -10.8225 C   0  0  0  0  0  0  0  0  0  0  0  0
   28.6985  -21.1425  -12.2918 C   0  0  0  0  0  0  0  0  0  0  0  0
   28.0916  -19.8441  -12.8101 C   0  0  0  0  0  0  0  0  0  0  0  0
   26.6967  -19.9866  -12.2652 C   0  0  1  0  0  0  0  0  0  0  0  0
   25.9817  -21.1391  -12.8689 C   0  0  0  0  0  0  0  0  0  0  0  0
   26.3252  -22.3373  -12.6969 O   0  0  0  0  0  0  0  0  0  0  0  0
   22.4873  -21.9452  -12.2231 C   0  0  0  0  0  0  0  0  0  0  0  0
   22.5949  -21.7250  -13.7133 C   0  0  1  0  0  0  0  0  0  0  0  0
   22.2889  -20.4379  -14.0952 O   0  0  0  0  0  0  0  0  0  0  0  0
   24.0200  -22.0025  -14.2083 C   0  0  2  0  0  0  0  0  0  0  0  0
   24.8363  -20.9183  -13.6968 N   0  0  0  0  0  0  0  0  0  0  0  0
   24.0467  -21.9437  -15.6885 C   0  0  0  0  0  0  0  0  0  0  0  0
   23.5191  -22.9445  -16.4630 O   0  0  0  0  0  0  0  0  0  0  0  0
   24.5628  -20.9576  -16.2790 O   0  0  0  0  0  0  0  0  0  0  0  0
  2 10  1  0
  2  1  1  1
  3  2  1  0
  4  9  1  0
  4  3  1  0
  5  4  2  0
  6  7  2  0
  6  5  1  0
  7  8  1  0
  8  9  2  0
 10 12  1  0
 11 10  2  0
 12 16  1  0
 12 13  1  0
 14 13  1  0
 15 14  1  0
 15 16  1  0
 16 17  1  6
 17 18  2  0
 20 19  1  1
 20 22  1  0
 21 20  1  0
 22 23  1  1
 23 17  1  0
 24 22  1  0
 25 24  1  0
 26 24  2  0
M  END
$$$$
