FPT.pdb
     RDKit          3D

 26 27  0  0  1  0  0  0  0  0999 V2000
   24.6240  -11.8407  -17.5476 N   0  0  0  0  0  0  0  0  0  0  0  0
   23.5063  -11.6235  -16.6639 C   0  0  1  0  0  0  0  0  0  0  0  0
   23.9502  -11.8029  -15.2414 C   0  0  0  0  0  0  0  0  0  0  0  0
   24.4753  -13.1742  -15.0633 C   0  0  0  0  0  0  0  0  0  0  0  0
   23.6098  -14.2396  -14.9749 C   0  0  0  0  0  0  0  0  0  0  0  0
   24.0502  -15.5443  -14.8007 C   0  0  0  0  0  0  0  0  0  0  0  0
   25.4023  -15.7450  -14.7175 C   0  0  0  0  0  0  0  0  0  0  0  0
   26.3063  -14.7135  -14.8000 C   0  0  0  0  0  0  0  0  0  0  0  0
   25.8257  -13.4089  -14.9759 C   0  0  0  0  0  0  0  0  0  0  0  0
   22.8028  -10.3439  -16.8865 C   0  0  0  0  0  0  0  0  0  0  0  0
   23.5368   -9.3421  -17.1877 O   0  0  0  0  0  0  0  0  0  0  0  0
   21.4178  -10.1976  -16.7822 N   0  0  0  0  0  0  0  0  0  0  0  0
   20.4547  -11.2103  -16.4036 C   0  0  0  0  0  0  0  0  0  0  0  0
   19.1092  -10.4682  -16.3479 C   0  0  0  0  0  0  0  0  0  0  0  0
   19.3522   -9.4644  -17.4688 C   0  0  0  0  0  0  0  0  0  0  0  0
   20.6981   -8.9414  -17.0469 C   0  0  1  0  0  0  0  0  0  0  0  0
   20.6309   -8.2231  -15.7493 C   0  0  0  0  0  0  0  0  0  0  0  0
   20.6494   -8.8026  -14.6326 O   0  0  0  0  0  0  0  0  0  0  0  0
   23.0674   -5.8498  -14.5314 C   0  0  0  0  0  0  0  0  0  0  0  0
   21.7671   -5.0856  -14.6091 C   0  0  1  0  0  0  0  0  0  0  0  0
   21.6120   -4.3974  -15.7917 O   0  0  0  0  0  0  0  0  0  0  0  0
   20.5657   -6.0320  -14.4914 C   0  0  2  0  0  0  0  0  0  0  0  0
   20.5394   -6.7958  -15.7239 N   0  0  0  0  0  0  0  0  0  0  0  0
   19.3184   -5.2361  -14.4131 C   0  0  0  0  0  0  0  0  0  0  0  0
   18.9504   -4.5766  -13.2689 O   0  0  0  0  0  0  0  0  0  0  0  0
   18.5553   -5.1456  -15.4116 O   0  0  0  0  0  0  0  0  0  0  0  0
  2 10  1  0
  2  1  1  6
  3  2  1  0
  4  9  1  0
  4  3  1  0
  5  4  2  0
  6  7  2  0
  6  5  1  0
  7  8  1  0
  8  9  2  0
 10 12  1  0
 11 10  2  0
 12 16  1  0
 12 13  1  0
 14 13  1  0
 15 14  1  0
 15 16  1  0
 16 17  1  1
 17 18  2  0
 20 19  1  6
 20 22  1  0
 21 20  1  0
 22 23  1  6
 23 17  1  0
 24 22  1  0
 25 24  1  0
 26 24  2  0
M  END
$$$$
