FPT.pdb
     RDKit          3D

 26 27  0  0  1  0  0  0  0  0999 V2000
   26.1413  -18.3378   -7.8763 N   0  0  0  0  0  0  0  0  0  0  0  0
   26.8077  -19.4420   -8.5197 C   0  0  1  0  0  0  0  0  0  0  0  0
   26.7615  -20.6455   -7.6241 C   0  0  0  0  0  0  0  0  0  0  0  0
   27.5538  -20.3768   -6.4043 C   0  0  0  0  0  0  0  0  0  0  0  0
   27.2012  -20.9590   -5.2090 C   0  0  0  0  0  0  0  0  0  0  0  0
   27.9063  -20.7344   -4.0348 C   0  0  0  0  0  0  0  0  0  0  0  0
   28.9880  -19.8972   -4.1020 C   0  0  0  0  0  0  0  0  0  0  0  0
   29.3794  -19.2921   -5.2720 C   0  0  0  0  0  0  0  0  0  0  0  0
   28.6437  -19.5418   -6.4384 C   0  0  0  0  0  0  0  0  0  0  0  0
   26.3207  -19.7260   -9.8850 C   0  0  0  0  0  0  0  0  0  0  0  0
   25.1288  -19.3481  -10.1483 O   0  0  0  0  0  0  0  0  0  0  0  0
   27.0883  -20.3689  -10.8588 N   0  0  0  0  0  0  0  0  0  0  0  0
   28.2700  -21.1793  -10.6507 C   0  0  0  0  0  0  0  0  0  0  0  0
   28.6257  -21.7166  -12.0467 C   0  0  0  0  0  0  0  0  0  0  0  0
   28.1749  -20.5205  -12.8768 C   0  0  0  0  0  0  0  0  0  0  0  0
   26.7992  -20.3227  -12.3012 C   0  0  1  0  0  0  0  0  0  0  0  0
   25.9106  -21.4786  -12.5811 C   0  0  0  0  0  0  0  0  0  0  0  0
   25.9130  -22.5374  -11.9013 O   0  0  0  0  0  0  0  0  0  0  0  0
   22.8184  -21.2860  -11.6331 C   0  0  0  0  0  0  0  0  0  0  0  0
   22.6683  -21.4039  -13.1312 C   0  0  1  0  0  0  0  0  0  0  0  0
   22.7020  -20.1883  -13.7773 O   0  0  0  0  0  0  0  0  0  0  0  0
   23.7971  -22.2514  -13.7315 C   0  0  2  0  0  0  0  0  0  0  0  0
   24.9879  -21.4257  -13.6729 N   0  0  0  0  0  0  0  0  0  0  0  0
   23.4978  -22.5318  -15.1553 C   0  0  0  0  0  0  0  0  0  0  0  0
   22.6315  -23.5258  -15.5313 O   0  0  0  0  0  0  0  0  0  0  0  0
   24.0406  -21.8530  -16.0674 O   0  0  0  0  0  0  0  0  0  0  0  0
  2 10  1  0
  2  1  1  1
  3  2  1  0
  4  9  1  0
  4  3  1  0
  5  4  2  0
  6  7  2  0
  6  5  1  0
  7  8  1  0
  8  9  2  0
 10 12  1  0
 11 10  2  0
 12 16  1  0
 12 13  1  0
 14 13  1  0
 15 14  1  0
 15 16  1  0
 16 17  1  6
 17 18  2  0
 20 19  1  1
 20 22  1  0
 21 20  1  0
 22 23  1  6
 23 17  1  0
 24 22  1  0
 25 24  1  0
 26 24  2  0
M  END
$$$$
