FPT.pdb
     RDKit          3D

 26 27  0  0  1  0  0  0  0  0999 V2000
   19.5102  -12.6640  -18.0836 N   0  0  0  0  0  0  0  0  0  0  0  0
   20.7034  -11.8585  -18.0151 C   0  0  1  0  0  0  0  0  0  0  0  0
   20.8646  -11.0921  -19.2954 C   0  0  0  0  0  0  0  0  0  0  0  0
   21.0172  -12.0434  -20.4177 C   0  0  0  0  0  0  0  0  0  0  0  0
   20.0523  -12.1198  -21.3950 C   0  0  0  0  0  0  0  0  0  0  0  0
   20.1438  -12.9996  -22.4646 C   0  0  0  0  0  0  0  0  0  0  0  0
   21.2477  -13.8081  -22.5203 C   0  0  0  0  0  0  0  0  0  0  0  0
   22.2380  -13.7688  -21.5684 C   0  0  0  0  0  0  0  0  0  0  0  0
   22.1122  -12.8681  -20.5022 C   0  0  0  0  0  0  0  0  0  0  0  0
   20.7793  -10.9957  -16.8185 C   0  0  0  0  0  0  0  0  0  0  0  0
   19.6851  -10.4509  -16.4462 O   0  0  0  0  0  0  0  0  0  0  0  0
   21.9599  -10.7640  -16.1092 N   0  0  0  0  0  0  0  0  0  0  0  0
   23.2877  -11.2403  -16.4360 C   0  0  0  0  0  0  0  0  0  0  0  0
   24.2042  -10.5936  -15.3844 C   0  0  0  0  0  0  0  0  0  0  0  0
   23.2357  -10.5845  -14.2076 C   0  0  0  0  0  0  0  0  0  0  0  0
   22.0385   -9.9650  -14.8756 C   0  0  1  0  0  0  0  0  0  0  0  0
   22.3047   -8.5689  -15.3046 C   0  0  0  0  0  0  0  0  0  0  0  0
   23.0664   -8.2689  -16.2600 O   0  0  0  0  0  0  0  0  0  0  0  0
   20.0186   -6.2044  -16.7142 C   0  0  0  0  0  0  0  0  0  0  0  0
   20.4759   -5.5830  -15.4159 C   0  0  1  0  0  0  0  0  0  0  0  0
   19.6390   -5.8591  -14.3578 O   0  0  0  0  0  0  0  0  0  0  0  0
   21.8664   -6.0961  -15.0209 C   0  0  2  0  0  0  0  0  0  0  0  0
   21.6813   -7.4778  -14.6212 N   0  0  0  0  0  0  0  0  0  0  0  0
   22.3560   -5.3360  -13.8470 C   0  0  0  0  0  0  0  0  0  0  0  0
   22.8402   -4.0585  -13.9617 O   0  0  0  0  0  0  0  0  0  0  0  0
   22.3384   -5.8540  -12.6986 O   0  0  0  0  0  0  0  0  0  0  0  0
  2 10  1  0
  2  1  1  6
  3  2  1  0
  4  9  1  0
  4  3  1  0
  5  4  2  0
  6  7  2  0
  6  5  1  0
  7  8  1  0
  8  9  2  0
 10 12  1  0
 11 10  2  0
 12 16  1  0
 12 13  1  0
 14 13  1  0
 15 14  1  0
 15 16  1  0
 16 17  1  6
 17 18  2  0
 20 19  1  6
 20 22  1  0
 21 20  1  0
 22 23  1  1
 23 17  1  0
 24 22  1  0
 25 24  1  0
 26 24  2  0
M  END
$$$$
