FPT.pdb
     RDKit          3D

 26 27  0  0  1  0  0  0  0  0999 V2000
   27.4809  -18.3763  -16.4450 N   0  0  0  0  0  0  0  0  0  0  0  0
   27.0907  -19.2667  -15.3808 C   0  0  1  0  0  0  0  0  0  0  0  0
   27.0655  -18.5144  -14.0823 C   0  0  0  0  0  0  0  0  0  0  0  0
   26.8648  -19.4681  -12.9696 C   0  0  0  0  0  0  0  0  0  0  0  0
   25.6759  -19.4830  -12.2782 C   0  0  0  0  0  0  0  0  0  0  0  0
   25.4394  -20.3524  -11.2224 C   0  0  0  0  0  0  0  0  0  0  0  0
   26.4470  -21.2148  -10.8810 C   0  0  0  0  0  0  0  0  0  0  0  0
   27.6519  -21.2378  -11.5413 C   0  0  0  0  0  0  0  0  0  0  0  0
   27.8556  -20.3455  -12.6025 C   0  0  0  0  0  0  0  0  0  0  0  0
   25.8362  -20.0018  -15.6405 C   0  0  0  0  0  0  0  0  0  0  0  0
   24.8312  -19.2950  -15.9918 O   0  0  0  0  0  0  0  0  0  0  0  0
   25.7159  -21.3880  -15.5191 N   0  0  0  0  0  0  0  0  0  0  0  0
   26.7127  -22.3152  -15.0258 C   0  0  0  0  0  0  0  0  0  0  0  0
   26.0029  -23.6791  -15.0094 C   0  0  0  0  0  0  0  0  0  0  0  0
   25.1032  -23.4862  -16.2245 C   0  0  0  0  0  0  0  0  0  0  0  0
   24.5088  -22.1470  -15.8838 C   0  0  1  0  0  0  0  0  0  0  0  0
   23.6736  -22.2077  -14.6580 C   0  0  0  0  0  0  0  0  0  0  0  0
   23.9311  -22.9538  -13.6780 O   0  0  0  0  0  0  0  0  0  0  0  0
   22.8586  -20.2485  -11.8544 C   0  0  0  0  0  0  0  0  0  0  0  0
   21.5689  -20.3143  -12.6374 C   0  0  1  0  0  0  0  0  0  0  0  0
   21.3966  -19.2468  -13.4900 O   0  0  0  0  0  0  0  0  0  0  0  0
   21.5153  -21.5798  -13.5025 C   0  0  2  0  0  0  0  0  0  0  0  0
   22.5051  -21.3903  -14.5454 N   0  0  0  0  0  0  0  0  0  0  0  0
   20.1827  -21.6824  -14.1421 C   0  0  0  0  0  0  0  0  0  0  0  0
   20.0139  -21.5271  -15.4938 O   0  0  0  0  0  0  0  0  0  0  0  0
   19.1580  -21.9183  -13.4480 O   0  0  0  0  0  0  0  0  0  0  0  0
  2 10  1  0
  2  1  1  6
  3  2  1  0
  4  9  1  0
  4  3  1  0
  5  4  2  0
  6  7  2  0
  6  5  1  0
  7  8  1  0
  8  9  2  0
 10 12  1  0
 11 10  2  0
 12 16  1  0
 12 13  1  0
 14 13  1  0
 15 14  1  0
 15 16  1  0
 16 17  1  1
 17 18  2  0
 20 19  1  6
 20 22  1  0
 21 20  1  0
 22 23  1  6
 23 17  1  0
 24 22  1  0
 25 24  1  0
 26 24  2  0
M  END
$$$$
