FPT.pdb
     RDKit          3D

 26 27  0  0  1  0  0  0  0  0999 V2000
   24.2081  -20.1774  -18.3867 N   0  0  0  0  0  0  0  0  0  0  0  0
   24.8239  -19.3696  -17.3641 C   0  0  1  0  0  0  0  0  0  0  0  0
   23.9207  -18.2209  -17.0217 C   0  0  0  0  0  0  0  0  0  0  0  0
   23.8376  -17.3036  -18.1791 C   0  0  0  0  0  0  0  0  0  0  0  0
   24.9295  -16.5513  -18.5445 C   0  0  0  0  0  0  0  0  0  0  0  0
   24.9021  -15.6710  -19.6173 C   0  0  0  0  0  0  0  0  0  0  0  0
   23.7295  -15.5707  -20.3176 C   0  0  0  0  0  0  0  0  0  0  0  0
   22.6120  -16.3008  -19.9913 C   0  0  0  0  0  0  0  0  0  0  0  0
   22.6762  -17.1798  -18.9017 C   0  0  0  0  0  0  0  0  0  0  0  0
   25.2568  -20.1312  -16.1748 C   0  0  0  0  0  0  0  0  0  0  0  0
   24.5696  -21.1702  -15.8899 O   0  0  0  0  0  0  0  0  0  0  0  0
   26.3478  -19.7678  -15.3822 N   0  0  0  0  0  0  0  0  0  0  0  0
   27.2284  -18.6335  -15.5682 C   0  0  0  0  0  0  0  0  0  0  0  0
   28.1664  -18.6636  -14.3503 C   0  0  0  0  0  0  0  0  0  0  0  0
   28.2495  -20.1734  -14.1595 C   0  0  0  0  0  0  0  0  0  0  0  0
   26.7833  -20.5087  -14.1873 C   0  0  1  0  0  0  0  0  0  0  0  0
   26.0561  -19.9074  -13.0412 C   0  0  0  0  0  0  0  0  0  0  0  0
   25.8491  -18.6722  -12.9207 O   0  0  0  0  0  0  0  0  0  0  0  0
   22.7114  -20.2520  -12.2292 C   0  0  0  0  0  0  0  0  0  0  0  0
   23.3910  -20.7749  -10.9860 C   0  0  1  0  0  0  0  0  0  0  0  0
   23.5030  -22.1472  -10.9651 O   0  0  0  0  0  0  0  0  0  0  0  0
   24.8143  -20.2166  -10.8618 C   0  0  2  0  0  0  0  0  0  0  0  0
   25.5478  -20.7425  -11.9970 N   0  0  0  0  0  0  0  0  0  0  0  0
   25.4408  -20.7375   -9.6243 C   0  0  0  0  0  0  0  0  0  0  0  0
   25.0977  -20.2644   -8.3840 O   0  0  0  0  0  0  0  0  0  0  0  0
   26.3167  -21.6412   -9.6838 O   0  0  0  0  0  0  0  0  0  0  0  0
  2 10  1  0
  2  1  1  6
  3  2  1  0
  4  9  1  0
  4  3  1  0
  5  4  2  0
  6  7  2  0
  6  5  1  0
  7  8  1  0
  8  9  2  0
 10 12  1  0
 11 10  2  0
 12 16  1  0
 12 13  1  0
 14 13  1  0
 15 14  1  0
 15 16  1  0
 16 17  1  1
 17 18  2  0
 20 19  1  6
 20 22  1  0
 21 20  1  0
 22 23  1  6
 23 17  1  0
 24 22  1  0
 25 24  1  0
 26 24  2  0
M  END
$$$$
