FPT.pdb
     RDKit          3D

 26 27  0  0  1  0  0  0  0  0999 V2000
   25.7635  -20.2939  -17.7432 N   0  0  0  0  0  0  0  0  0  0  0  0
   26.1252  -19.5513  -16.5621 C   0  0  1  0  0  0  0  0  0  0  0  0
   25.2617  -18.3284  -16.4554 C   0  0  0  0  0  0  0  0  0  0  0  0
   26.1134  -17.1214  -16.5310 C   0  0  0  0  0  0  0  0  0  0  0  0
   26.5265  -16.4939  -15.3789 C   0  0  0  0  0  0  0  0  0  0  0  0
   27.3200  -15.3552  -15.3947 C   0  0  0  0  0  0  0  0  0  0  0  0
   27.6882  -14.8631  -16.6185 C   0  0  0  0  0  0  0  0  0  0  0  0
   27.3008  -15.4545  -17.7969 C   0  0  0  0  0  0  0  0  0  0  0  0
   26.4996  -16.6029  -17.7427 C   0  0  0  0  0  0  0  0  0  0  0  0
   26.1325  -20.3564  -15.3237 C   0  0  0  0  0  0  0  0  0  0  0  0
   25.1589  -21.1705  -15.1749 O   0  0  0  0  0  0  0  0  0  0  0  0
   27.1276  -20.2608  -14.3483 N   0  0  0  0  0  0  0  0  0  0  0  0
   28.2757  -19.3786  -14.3497 C   0  0  0  0  0  0  0  0  0  0  0  0
   28.9566  -19.6218  -12.9927 C   0  0  0  0  0  0  0  0  0  0  0  0
   28.6367  -21.1037  -12.8357 C   0  0  0  0  0  0  0  0  0  0  0  0
   27.1598  -21.0708  -13.1198 C   0  0  1  0  0  0  0  0  0  0  0  0
   26.4161  -20.2957  -12.0950 C   0  0  0  0  0  0  0  0  0  0  0  0
   26.3513  -19.0392  -12.0858 O   0  0  0  0  0  0  0  0  0  0  0  0
   23.2990  -19.7392  -11.9810 C   0  0  0  0  0  0  0  0  0  0  0  0
   23.4386  -20.4302  -10.6454 C   0  0  1  0  0  0  0  0  0  0  0  0
   23.1714  -21.7798  -10.7020 O   0  0  0  0  0  0  0  0  0  0  0  0
   24.8651  -20.2879  -10.0996 C   0  0  2  0  0  0  0  0  0  0  0  0
   25.7227  -20.9762  -11.0451 N   0  0  0  0  0  0  0  0  0  0  0  0
   24.9639  -20.9821   -8.7944 C   0  0  0  0  0  0  0  0  0  0  0  0
   24.3683  -20.4866   -7.6632 O   0  0  0  0  0  0  0  0  0  0  0  0
   25.6074  -22.0605   -8.6921 O   0  0  0  0  0  0  0  0  0  0  0  0
  2 10  1  0
  2  1  1  6
  3  2  1  0
  4  9  1  0
  4  3  1  0
  5  4  2  0
  6  7  2  0
  6  5  1  0
  7  8  1  0
  8  9  2  0
 10 12  1  0
 11 10  2  0
 12 16  1  0
 12 13  1  0
 14 13  1  0
 15 14  1  0
 15 16  1  0
 16 17  1  1
 17 18  2  0
 20 19  1  6
 20 22  1  0
 21 20  1  0
 22 23  1  6
 23 17  1  0
 24 22  1  0
 25 24  1  0
 26 24  2  0
M  END
$$$$
