FTS.pdb
     RDKit          3D

 25 25  0  0  1  0  0  0  0  0999 V2000
   22.2700  -29.6958  -12.9722 N   0  0  0  0  0  0  0  0  0  0  0  0
   21.7632  -28.3431  -12.7617 C   0  0  1  0  0  0  0  0  0  0  0  0
   21.6984  -27.6159  -14.0775 C   0  0  0  0  0  0  0  0  0  0  0  0
   23.0022  -27.3770  -14.6888 C   0  0  0  0  0  0  0  0  0  0  0  0
   23.7276  -26.2637  -14.3399 C   0  0  0  0  0  0  0  0  0  0  0  0
   24.9711  -25.9706  -14.8768 C   0  0  0  0  0  0  0  0  0  0  0  0
   25.4781  -26.8600  -15.8048 C   0  0  0  0  0  0  0  0  0  0  0  0
   24.7692  -27.9844  -16.1714 C   0  0  0  0  0  0  0  0  0  0  0  0
   23.5362  -28.2402  -15.6145 C   0  0  0  0  0  0  0  0  0  0  0  0
   20.3596  -28.3953  -12.2263 C   0  0  0  0  0  0  0  0  0  0  0  0
   19.7702  -29.4838  -12.0004 O   0  0  0  0  0  0  0  0  0  0  0  0
   19.2168  -29.1586  -10.0570 C   0  0  0  0  0  0  0  0  0  0  0  0
   18.7074  -27.7512   -9.8797 C   0  0  1  0  0  0  0  0  0  0  0  0
   19.5629  -26.9547   -9.1513 O   0  0  0  0  0  0  0  0  0  0  0  0
   18.4094  -27.1898  -11.2539 C   0  0  2  0  0  0  0  0  0  0  0  0
   19.6901  -27.1791  -11.9721 N   0  0  0  0  0  0  0  0  0  0  0  0
   17.8725  -25.8100  -11.1778 C   0  0  0  0  0  0  0  0  0  0  0  0
   18.6566  -24.8620  -10.9327 O   0  0  0  0  0  0  0  0  0  0  0  0
   13.9243  -23.0058  -11.6592 O   0  0  0  0  0  0  0  0  0  0  0  0
   14.4947  -24.2580  -11.7560 C   0  0  0  0  0  0  0  0  0  0  0  0
   15.9474  -24.2032  -11.2694 C   0  0  2  0  0  0  0  0  0  0  0  0
   16.4944  -25.5374  -11.3754 N   0  0  0  0  0  0  0  0  0  0  0  0
   15.9023  -23.7757   -9.8540 C   0  0  0  0  0  0  0  0  0  0  0  0
   15.7557  -24.6400   -8.9576 O   0  0  0  0  0  0  0  0  0  0  0  0
   16.0179  -22.4492   -9.4986 O   0  0  0  0  0  0  0  0  0  0  0  0
  2 10  1  0
  2  1  1  6
  3  2  1  0
  4  3  1  0
  5  4  2  0
  6  5  1  0
  7  6  2  0
  7  8  1  0
  8  9  2  0
  9  4  1  0
 10 11  2  0
 13 12  1  6
 13 14  1  0
 15 13  1  0
 15 16  1  6
 16 10  1  0
 17 22  1  0
 17 15  1  0
 18 17  2  0
 20 19  1  0
 21 20  1  1
 21 22  1  0
 23 25  1  0
 23 21  1  0
 24 23  2  0
M  END
$$$$
