FTS.pdb
     RDKit          3D

 25 25  0  0  1  0  0  0  0  0999 V2000
   23.8059  -10.6555  -17.4557 N   0  0  0  0  0  0  0  0  0  0  0  0
   23.4500   -9.4461  -16.7199 C   0  0  1  0  0  0  0  0  0  0  0  0
   24.6371   -8.5233  -16.6573 C   0  0  0  0  0  0  0  0  0  0  0  0
   25.8857   -9.1859  -16.2933 C   0  0  0  0  0  0  0  0  0  0  0  0
   26.0110   -9.7794  -15.0606 C   0  0  0  0  0  0  0  0  0  0  0  0
   27.1638  -10.4264  -14.6448 C   0  0  0  0  0  0  0  0  0  0  0  0
   28.2197  -10.4588  -15.5353 C   0  0  0  0  0  0  0  0  0  0  0  0
   28.1185   -9.8705  -16.7782 C   0  0  0  0  0  0  0  0  0  0  0  0
   26.9552   -9.2370  -17.1539 C   0  0  0  0  0  0  0  0  0  0  0  0
   22.3618   -8.7032  -17.4434 C   0  0  0  0  0  0  0  0  0  0  0  0
   21.8769   -9.1171  -18.5281 O   0  0  0  0  0  0  0  0  0  0  0  0
   18.3873   -7.0219  -18.0294 C   0  0  0  0  0  0  0  0  0  0  0  0
   19.6093   -7.7702  -17.5619 C   0  0  1  0  0  0  0  0  0  0  0  0
   19.8785   -8.8903  -18.3167 O   0  0  0  0  0  0  0  0  0  0  0  0
   20.7656   -6.7934  -17.5274 C   0  0  2  0  0  0  0  0  0  0  0  0
   21.8753   -7.5041  -16.8797 N   0  0  0  0  0  0  0  0  0  0  0  0
   20.4331   -5.5777  -16.7468 C   0  0  0  0  0  0  0  0  0  0  0  0
   20.1921   -5.6859  -15.5205 O   0  0  0  0  0  0  0  0  0  0  0  0
   19.8873   -2.1181  -18.7547 O   0  0  0  0  0  0  0  0  0  0  0  0
   20.4398   -1.8980  -17.5101 C   0  0  0  0  0  0  0  0  0  0  0  0
   20.1409   -3.0902  -16.5938 C   0  0  2  0  0  0  0  0  0  0  0  0
   20.3811   -4.2965  -17.3538 N   0  0  0  0  0  0  0  0  0  0  0  0
   18.7123   -2.9902  -16.2238 C   0  0  0  0  0  0  0  0  0  0  0  0
   17.8808   -3.7446  -16.7820 O   0  0  0  0  0  0  0  0  0  0  0  0
   18.2746   -2.0866  -15.2796 O   0  0  0  0  0  0  0  0  0  0  0  0
  2 10  1  0
  2  1  1  6
  3  2  1  0
  4  3  1  0
  5  4  2  0
  6  5  1  0
  7  6  2  0
  7  8  1  0
  8  9  2  0
  9  4  1  0
 10 11  2  0
 13 12  1  6
 13 14  1  0
 15 13  1  0
 15 16  1  1
 16 10  1  0
 17 22  1  0
 17 15  1  0
 18 17  2  0
 20 19  1  0
 21 20  1  6
 21 22  1  0
 23 25  1  0
 23 21  1  0
 24 23  2  0
M  END
$$$$
