FTS.pdb
     RDKit          3D

 25 25  0  0  1  0  0  0  0  0999 V2000
   24.3163  -20.8178   -8.4366 N   0  0  0  0  0  0  0  0  0  0  0  0
   25.2222  -20.3135   -9.4641 C   0  0  1  0  0  0  0  0  0  0  0  0
   26.6307  -20.7420   -9.1524 C   0  0  0  0  0  0  0  0  0  0  0  0
   27.1957  -20.1069   -7.9658 C   0  0  0  0  0  0  0  0  0  0  0  0
   26.9080  -18.7919   -7.6912 C   0  0  0  0  0  0  0  0  0  0  0  0
   27.4067  -18.1222   -6.5852 C   0  0  0  0  0  0  0  0  0  0  0  0
   28.2295  -18.8387   -5.7375 C   0  0  0  0  0  0  0  0  0  0  0  0
   28.5331  -20.1595   -5.9915 C   0  0  0  0  0  0  0  0  0  0  0  0
   28.0173  -20.7894   -7.1018 C   0  0  0  0  0  0  0  0  0  0  0  0
   24.8731  -20.9112  -10.7984 C   0  0  0  0  0  0  0  0  0  0  0  0
   23.9726  -21.7806  -10.9265 O   0  0  0  0  0  0  0  0  0  0  0  0
   23.8247  -18.8555  -13.5646 C   0  0  0  0  0  0  0  0  0  0  0  0
   25.0150  -19.6195  -14.0856 C   0  0  1  0  0  0  0  0  0  0  0  0
   26.1737  -18.8750  -14.0932 O   0  0  0  0  0  0  0  0  0  0  0  0
   25.1399  -20.8918  -13.2744 C   0  0  2  0  0  0  0  0  0  0  0  0
   25.5838  -20.4765  -11.9378 N   0  0  0  0  0  0  0  0  0  0  0  0
   26.1358  -21.8203  -13.8609 C   0  0  0  0  0  0  0  0  0  0  0  0
   27.3521  -21.6546  -13.6022 O   0  0  0  0  0  0  0  0  0  0  0  0
   24.7434  -24.7444  -16.2648 O   0  0  0  0  0  0  0  0  0  0  0  0
   25.9416  -25.0837  -15.6716 C   0  0  0  0  0  0  0  0  0  0  0  0
   26.7020  -23.8120  -15.2781 C   0  0  2  0  0  0  0  0  0  0  0  0
   25.7458  -22.8902  -14.7067 N   0  0  0  0  0  0  0  0  0  0  0  0
   27.2703  -23.2572  -16.5260 C   0  0  0  0  0  0  0  0  0  0  0  0
   28.2080  -23.8648  -17.0950 O   0  0  0  0  0  0  0  0  0  0  0  0
   26.7925  -22.0879  -17.0772 O   0  0  0  0  0  0  0  0  0  0  0  0
  2 10  1  0
  2  1  1  1
  3  2  1  0
  4  3  1  0
  5  4  2  0
  6  5  1  0
  7  6  2  0
  7  8  1  0
  8  9  2  0
  9  4  1  0
 10 11  2  0
 13 12  1  1
 13 14  1  0
 15 13  1  0
 15 16  1  1
 16 10  1  0
 17 22  1  0
 17 15  1  0
 18 17  2  0
 20 19  1  0
 21 20  1  6
 21 22  1  0
 23 25  1  0
 23 21  1  0
 24 23  2  0
M  END
$$$$
