FTS.pdb
     RDKit          3D

 25 25  0  0  1  0  0  0  0  0999 V2000
   25.7171  -10.8000  -18.3422 N   0  0  0  0  0  0  0  0  0  0  0  0
   24.4024  -10.5261  -17.7701 C   0  0  1  0  0  0  0  0  0  0  0  0
   24.2776  -11.2111  -16.4361 C   0  0  0  0  0  0  0  0  0  0  0  0
   24.6128  -12.6315  -16.4642 C   0  0  0  0  0  0  0  0  0  0  0  0
   23.9101  -13.4840  -17.2808 C   0  0  0  0  0  0  0  0  0  0  0  0
   24.1706  -14.8428  -17.3612 C   0  0  0  0  0  0  0  0  0  0  0  0
   25.1919  -15.3326  -16.5698 C   0  0  0  0  0  0  0  0  0  0  0  0
   25.9116  -14.4972  -15.7421 C   0  0  0  0  0  0  0  0  0  0  0  0
   25.6217  -13.1521  -15.6908 C   0  0  0  0  0  0  0  0  0  0  0  0
   24.2467   -9.0527  -17.5165 C   0  0  0  0  0  0  0  0  0  0  0  0
   25.2300   -8.3109  -17.2598 O   0  0  0  0  0  0  0  0  0  0  0  0
   23.2367   -6.5671  -19.7060 C   0  0  0  0  0  0  0  0  0  0  0  0
   22.1725   -6.5134  -18.6400 C   0  0  1  0  0  0  0  0  0  0  0  0
   21.0132   -7.1636  -19.0006 O   0  0  0  0  0  0  0  0  0  0  0  0
   22.7732   -7.0512  -17.3584 C   0  0  2  0  0  0  0  0  0  0  0  0
   22.9520   -8.4931  -17.5703 N   0  0  0  0  0  0  0  0  0  0  0  0
   21.8781   -6.8283  -16.1978 C   0  0  0  0  0  0  0  0  0  0  0  0
   21.0449   -7.7142  -15.8897 O   0  0  0  0  0  0  0  0  0  0  0  0
   22.9103   -4.2729  -13.2977 O   0  0  0  0  0  0  0  0  0  0  0  0
   21.5682   -4.1384  -13.5868 C   0  0  0  0  0  0  0  0  0  0  0  0
   21.0654   -5.3965  -14.3042 C   0  0  2  0  0  0  0  0  0  0  0  0
   21.9418   -5.6381  -15.4285 N   0  0  0  0  0  0  0  0  0  0  0  0
   19.6956   -5.0951  -14.7740 C   0  0  0  0  0  0  0  0  0  0  0  0
   19.5144   -4.7859  -15.9756 O   0  0  0  0  0  0  0  0  0  0  0  0
   18.6143   -5.1465  -13.9210 O   0  0  0  0  0  0  0  0  0  0  0  0
  2 10  1  0
  2  1  1  1
  3  2  1  0
  4  3  1  0
  5  4  2  0
  6  5  1  0
  7  6  2  0
  7  8  1  0
  8  9  2  0
  9  4  1  0
 10 11  2  0
 13 12  1  6
 13 14  1  0
 15 13  1  0
 15 16  1  6
 16 10  1  0
 17 22  1  0
 17 15  1  0
 18 17  2  0
 20 19  1  0
 21 20  1  6
 21 22  1  0
 23 25  1  0
 23 21  1  0
 24 23  2  0
M  END
$$$$
