FTS.pdb
     RDKit          3D

 25 25  0  0  1  0  0  0  0  0999 V2000
   21.3278  -13.4575  -17.4331 N   0  0  0  0  0  0  0  0  0  0  0  0
   20.9582  -12.1083  -17.8499 C   0  0  1  0  0  0  0  0  0  0  0  0
   19.6611  -12.1508  -18.6116 C   0  0  0  0  0  0  0  0  0  0  0  0
   19.7528  -12.8245  -19.9032 C   0  0  0  0  0  0  0  0  0  0  0  0
   20.5737  -12.3186  -20.8818 C   0  0  0  0  0  0  0  0  0  0  0  0
   20.7126  -12.9025  -22.1310 C   0  0  0  0  0  0  0  0  0  0  0  0
   19.9771  -14.0469  -22.3727 C   0  0  0  0  0  0  0  0  0  0  0  0
   19.1463  -14.5741  -21.4068 C   0  0  0  0  0  0  0  0  0  0  0  0
   19.0359  -13.9638  -20.1774 C   0  0  0  0  0  0  0  0  0  0  0  0
   20.7239  -11.2417  -16.6441 C   0  0  0  0  0  0  0  0  0  0  0  0
   20.7444  -11.7042  -15.4742 O   0  0  0  0  0  0  0  0  0  0  0  0
   21.9366  -10.4339  -14.4996 C   0  0  0  0  0  0  0  0  0  0  0  0
   21.7322   -9.0276  -15.0019 C   0  0  1  0  0  0  0  0  0  0  0  0
   22.7565   -8.5888  -15.8114 O   0  0  0  0  0  0  0  0  0  0  0  0
   20.3807   -8.9705  -15.6820 C   0  0  2  0  0  0  0  0  0  0  0  0
   20.4739   -9.8667  -16.8414 N   0  0  0  0  0  0  0  0  0  0  0  0
   20.0555   -7.5988  -16.1409 C   0  0  0  0  0  0  0  0  0  0  0  0
   20.5462   -7.1824  -17.2178 O   0  0  0  0  0  0  0  0  0  0  0  0
   16.5580   -6.2147  -16.0632 O   0  0  0  0  0  0  0  0  0  0  0  0
   17.3349   -5.2368  -15.4776 C   0  0  0  0  0  0  0  0  0  0  0  0
   18.8036   -5.4416  -15.8666 C   0  0  2  0  0  0  0  0  0  0  0  0
   19.2034   -6.7474  -15.3916 N   0  0  0  0  0  0  0  0  0  0  0  0
   19.5740   -4.3842  -15.1766 C   0  0  0  0  0  0  0  0  0  0  0  0
   20.3523   -4.7015  -14.2461 O   0  0  0  0  0  0  0  0  0  0  0  0
   19.4558   -3.0582  -15.5334 O   0  0  0  0  0  0  0  0  0  0  0  0
  2 10  1  0
  2  1  1  1
  3  2  1  0
  4  3  1  0
  5  4  2  0
  6  5  1  0
  7  6  2  0
  7  8  1  0
  8  9  2  0
  9  4  1  0
 10 11  2  0
 13 12  1  6
 13 14  1  0
 15 13  1  0
 15 16  1  6
 16 10  1  0
 17 22  1  0
 17 15  1  0
 18 17  2  0
 20 19  1  0
 21 20  1  1
 21 22  1  0
 23 25  1  0
 23 21  1  0
 24 23  2  0
M  END
$$$$
