FTS.pdb
     RDKit          3D

 25 25  0  0  1  0  0  0  0  0999 V2000
   27.4811  -18.4501  -16.2322 N   0  0  0  0  0  0  0  0  0  0  0  0
   26.1303  -18.0303  -15.8716 C   0  0  1  0  0  0  0  0  0  0  0  0
   25.6474  -16.9876  -16.8432 C   0  0  0  0  0  0  0  0  0  0  0  0
   26.4262  -15.7532  -16.8252 C   0  0  0  0  0  0  0  0  0  0  0  0
   26.5018  -15.0088  -15.6730 C   0  0  0  0  0  0  0  0  0  0  0  0
   27.2208  -13.8278  -15.5797 C   0  0  0  0  0  0  0  0  0  0  0  0
   27.8821  -13.4056  -16.7170 C   0  0  0  0  0  0  0  0  0  0  0  0
   27.8216  -14.1350  -17.8854 C   0  0  0  0  0  0  0  0  0  0  0  0
   27.0959  -15.3040  -17.9374 C   0  0  0  0  0  0  0  0  0  0  0  0
   25.1830  -19.1926  -15.9777 C   0  0  0  0  0  0  0  0  0  0  0  0
   25.5242  -20.2882  -16.4936 O   0  0  0  0  0  0  0  0  0  0  0  0
   24.0401  -20.4477  -13.2086 C   0  0  0  0  0  0  0  0  0  0  0  0
   23.6710  -21.1871  -14.4691 C   0  0  1  0  0  0  0  0  0  0  0  0
   22.9183  -22.3159  -14.2325 O   0  0  0  0  0  0  0  0  0  0  0  0
   22.9841  -20.2070  -15.3966 C   0  0  2  0  0  0  0  0  0  0  0  0
   23.8713  -19.0400  -15.4796 N   0  0  0  0  0  0  0  0  0  0  0  0
   21.6627  -19.7885  -14.8707 C   0  0  0  0  0  0  0  0  0  0  0  0
   21.6131  -18.9381  -13.9497 O   0  0  0  0  0  0  0  0  0  0  0  0
   17.5370  -19.4885  -16.6443 O   0  0  0  0  0  0  0  0  0  0  0  0
   18.1064  -20.4824  -15.8757 C   0  0  0  0  0  0  0  0  0  0  0  0
   19.1559  -19.8738  -14.9384 C   0  0  2  0  0  0  0  0  0  0  0  0
   20.4547  -20.3267  -15.3839 N   0  0  0  0  0  0  0  0  0  0  0  0
   18.8650  -20.3944  -13.5848 C   0  0  0  0  0  0  0  0  0  0  0  0
   19.4430  -21.4353  -13.1916 O   0  0  0  0  0  0  0  0  0  0  0  0
   17.9733  -19.7612  -12.7461 O   0  0  0  0  0  0  0  0  0  0  0  0
  2 10  1  0
  2  1  1  6
  3  2  1  0
  4  3  1  0
  5  4  2  0
  6  5  1  0
  7  6  2  0
  7  8  1  0
  8  9  2  0
  9  4  1  0
 10 11  2  0
 13 12  1  1
 13 14  1  0
 15 13  1  0
 15 16  1  1
 16 10  1  0
 17 22  1  0
 17 15  1  0
 18 17  2  0
 20 19  1  0
 21 20  1  6
 21 22  1  0
 23 25  1  0
 23 21  1  0
 24 23  2  0
M  END
$$$$
