PKP.pdb
     RDKit          3D

 24 25  0  0  1  0  0  0  0  0999 V2000
   24.9366  -17.3944  -19.2194 N   0  0  0  0  0  0  0  0  0  0  0  0
   24.6702  -16.7067  -20.4741 C   0  0  0  0  0  0  0  0  0  0  0  0
   23.1931  -16.4121  -20.5024 C   0  0  0  0  0  0  0  0  0  0  0  0
   22.6600  -17.4602  -19.5130 C   0  0  0  0  0  0  0  0  0  0  0  0
   23.7223  -17.4094  -18.4745 C   0  0  1  0  0  0  0  0  0  0  0  0
   23.6713  -18.5140  -17.4929 C   0  0  0  0  0  0  0  0  0  0  0  0
   22.9757  -19.5024  -17.7933 O   0  0  0  0  0  0  0  0  0  0  0  0
   24.3508  -18.5131  -16.2610 N   0  0  0  0  0  0  0  0  0  0  0  0
   24.3019  -19.4324  -15.1895 C   0  0  1  0  0  0  0  0  0  0  0  0
   25.4946  -19.5175  -14.2788 C   0  0  0  0  0  0  0  0  0  0  0  0
   25.3817  -20.5358  -13.1800 C   0  0  0  0  0  0  0  0  0  0  0  0
   26.6461  -20.5170  -12.3602 C   0  0  0  0  0  0  0  0  0  0  0  0
   26.7214  -21.5428  -11.2686 C   0  0  0  0  0  0  0  0  0  0  0  0
   28.0002  -21.5513  -10.6066 N   0  0  0  0  0  0  0  0  0  0  0  0
   23.0660  -19.4318  -14.4085 C   0  0  0  0  0  0  0  0  0  0  0  0
   22.6599  -18.2588  -14.0546 O   0  0  0  0  0  0  0  0  0  0  0  0
   22.2810  -20.5184  -14.0059 N   0  0  0  0  0  0  0  0  0  0  0  0
   22.4774  -21.9405  -14.1626 C   0  0  0  0  0  0  0  0  0  0  0  0
   21.0638  -22.4859  -14.3566 C   0  0  0  0  0  0  0  0  0  0  0  0
   20.1274  -21.3355  -14.0658 C   0  0  0  0  0  0  0  0  0  0  0  0
   20.9880  -20.3610  -13.3226 C   0  0  1  0  0  0  0  0  0  0  0  0
   21.1309  -20.6591  -11.8894 C   0  0  0  0  0  0  0  0  0  0  0  0
   22.1869  -21.2103  -11.4881 O   0  0  0  0  0  0  0  0  0  0  0  0
   20.1743  -20.3720  -10.9433 O   0  0  0  0  0  0  0  0  0  0  0  0
  1  2  1  0
  1  5  1  0
  2  3  1  0
  3  4  1  0
  5  4  1  0
  5  6  1  1
  6  7  2  0
  8  6  1  0
  9  8  1  0
 10 11  1  0
  9 10  1  1
 11 12  1  0
 12 13  1  0
 13 14  1  0
 15  9  1  0
 16 15  2  0
 17 21  1  0
 17 15  1  0
 18 19  1  0
 18 17  1  0
 19 20  1  0
 21 20  1  0
 21 22  1  1
 23 22  2  0
 24 22  1  0
M  END
$$$$
