PKP.pdb
     RDKit          3D

 24 25  0  0  1  0  0  0  0  0999 V2000
   21.3646  -21.2697  -14.4560 N   0  0  0  0  0  0  0  0  0  0  0  0
   19.9597  -21.3919  -14.0964 C   0  0  0  0  0  0  0  0  0  0  0  0
   19.4553  -19.9965  -13.8365 C   0  0  0  0  0  0  0  0  0  0  0  0
   20.7663  -19.2577  -13.5248 C   0  0  0  0  0  0  0  0  0  0  0  0
   21.6669  -19.8796  -14.5307 C   0  0  1  0  0  0  0  0  0  0  0  0
   23.1035  -19.5982  -14.3222 C   0  0  0  0  0  0  0  0  0  0  0  0
   23.4629  -18.4090  -14.4114 O   0  0  0  0  0  0  0  0  0  0  0  0
   24.0706  -20.5784  -14.0342 N   0  0  0  0  0  0  0  0  0  0  0  0
   25.4796  -20.4871  -13.9905 C   0  0  1  0  0  0  0  0  0  0  0  0
   26.2095  -21.3272  -12.9801 C   0  0  0  0  0  0  0  0  0  0  0  0
   26.2824  -20.7382  -11.6000 C   0  0  0  0  0  0  0  0  0  0  0  0
   24.9709  -20.9721  -10.8954 C   0  0  0  0  0  0  0  0  0  0  0  0
   24.8521  -20.3547   -9.5338 C   0  0  0  0  0  0  0  0  0  0  0  0
   23.5359  -20.5099   -8.9704 N   0  0  0  0  0  0  0  0  0  0  0  0
   26.1598  -20.5433  -15.2834 C   0  0  0  0  0  0  0  0  0  0  0  0
   25.6183  -21.3471  -16.1358 O   0  0  0  0  0  0  0  0  0  0  0  0
   27.2985  -19.8489  -15.7076 N   0  0  0  0  0  0  0  0  0  0  0  0
   28.2547  -19.0550  -14.9720 C   0  0  0  0  0  0  0  0  0  0  0  0
   28.6411  -17.9478  -15.9508 C   0  0  0  0  0  0  0  0  0  0  0  0
   28.0306  -18.3313  -17.2793 C   0  0  0  0  0  0  0  0  0  0  0  0
   27.7189  -19.7869  -17.1159 C   0  0  1  0  0  0  0  0  0  0  0  0
   28.8688  -20.6753  -17.3426 C   0  0  0  0  0  0  0  0  0  0  0  0
   29.3628  -20.7435  -18.4965 O   0  0  0  0  0  0  0  0  0  0  0  0
   29.4500  -21.4487  -16.3645 O   0  0  0  0  0  0  0  0  0  0  0  0
  1  2  1  0
  1  5  1  0
  2  3  1  0
  3  4  1  0
  5  4  1  0
  5  6  1  1
  6  7  2  0
  8  6  1  0
  9  8  1  0
 10 11  1  0
  9 10  1  1
 11 12  1  0
 12 13  1  0
 13 14  1  0
 15  9  1  0
 16 15  2  0
 17 21  1  0
 17 15  1  0
 18 19  1  0
 18 17  1  0
 19 20  1  0
 21 20  1  0
 21 22  1  1
 23 22  2  0
 24 22  1  0
M  END
$$$$
