PKP.pdb
     RDKit          3D

 24 25  0  0  1  0  0  0  0  0999 V2000
   24.2083  -12.6068  -15.4132 N   0  0  0  0  0  0  0  0  0  0  0  0
   24.6179  -13.9823  -15.6549 C   0  0  0  0  0  0  0  0  0  0  0  0
   24.8312  -14.1169  -17.1400 C   0  0  0  0  0  0  0  0  0  0  0  0
   23.9782  -12.9543  -17.6714 C   0  0  0  0  0  0  0  0  0  0  0  0
   24.2855  -11.9137  -16.6554 C   0  0  1  0  0  0  0  0  0  0  0  0
   23.3985  -10.7316  -16.7029 C   0  0  0  0  0  0  0  0  0  0  0  0
   23.5683   -9.9381  -17.6477 O   0  0  0  0  0  0  0  0  0  0  0  0
   22.3917  -10.4564  -15.7596 N   0  0  0  0  0  0  0  0  0  0  0  0
   21.4650   -9.3920  -15.6962 C   0  0  1  0  0  0  0  0  0  0  0  0
   20.0700   -9.6990  -15.2283 C   0  0  0  0  0  0  0  0  0  0  0  0
   19.2771  -10.5908  -16.1411 C   0  0  0  0  0  0  0  0  0  0  0  0
   17.9343  -10.8665  -15.5150 C   0  0  0  0  0  0  0  0  0  0  0  0
   17.0488  -11.8065  -16.2776 C   0  0  0  0  0  0  0  0  0  0  0  0
   15.8098  -12.0741  -15.5942 N   0  0  0  0  0  0  0  0  0  0  0  0
   21.9512   -8.1635  -15.0704 C   0  0  0  0  0  0  0  0  0  0  0  0
   22.7200   -8.3528  -14.0510 O   0  0  0  0  0  0  0  0  0  0  0  0
   21.6973   -6.8348  -15.4298 N   0  0  0  0  0  0  0  0  0  0  0  0
   20.8493   -6.2749  -16.4560 C   0  0  0  0  0  0  0  0  0  0  0  0
   21.6080   -5.0331  -16.9204 C   0  0  0  0  0  0  0  0  0  0  0  0
   22.7493   -4.8509  -15.9463 C   0  0  0  0  0  0  0  0  0  0  0  0
   22.3476   -5.6905  -14.7731 C   0  0  1  0  0  0  0  0  0  0  0  0
   21.4070   -5.0287  -13.8563 C   0  0  0  0  0  0  0  0  0  0  0  0
   20.1871   -5.3244  -13.9234 O   0  0  0  0  0  0  0  0  0  0  0  0
   21.7755   -4.0944  -12.9161 O   0  0  0  0  0  0  0  0  0  0  0  0
  1  2  1  0
  1  5  1  0
  2  3  1  0
  3  4  1  0
  5  4  1  0
  5  6  1  1
  6  7  2  0
  8  6  1  0
  9  8  1  0
 10 11  1  0
  9 10  1  1
 11 12  1  0
 12 13  1  0
 13 14  1  0
 15  9  1  0
 16 15  2  0
 17 21  1  0
 17 15  1  0
 18 19  1  0
 18 17  1  0
 19 20  1  0
 21 20  1  0
 21 22  1  1
 23 22  2  0
 24 22  1  0
M  END
$$$$
