PKP.pdb
     RDKit          3D

 24 25  0  0  1  0  0  0  0  0999 V2000
   27.2455  -22.5296  -17.5844 N   0  0  0  0  0  0  0  0  0  0  0  0
   28.1603  -22.8141  -18.6800 C   0  0  0  0  0  0  0  0  0  0  0  0
   29.5524  -22.7668  -18.1064 C   0  0  0  0  0  0  0  0  0  0  0  0
   29.3309  -21.9040  -16.8541 C   0  0  0  0  0  0  0  0  0  0  0  0
   28.0216  -22.4361  -16.3934 C   0  0  1  0  0  0  0  0  0  0  0  0
   27.3640  -21.6221  -15.3488 C   0  0  0  0  0  0  0  0  0  0  0  0
   27.9126  -21.5906  -14.2311 O   0  0  0  0  0  0  0  0  0  0  0  0
   26.1756  -20.8940  -15.5408 N   0  0  0  0  0  0  0  0  0  0  0  0
   25.4237  -20.1158  -14.6327 C   0  0  1  0  0  0  0  0  0  0  0  0
   24.5392  -19.0372  -15.1928 C   0  0  0  0  0  0  0  0  0  0  0  0
   24.8260  -18.6589  -16.6182 C   0  0  0  0  0  0  0  0  0  0  0  0
   23.7975  -17.6578  -17.0778 C   0  0  0  0  0  0  0  0  0  0  0  0
   23.9852  -17.1349  -18.4709 C   0  0  0  0  0  0  0  0  0  0  0  0
   24.4680  -18.1433  -19.3785 N   0  0  0  0  0  0  0  0  0  0  0  0
   24.7182  -20.8605  -13.5910 C   0  0  0  0  0  0  0  0  0  0  0  0
   24.1926  -21.9691  -13.9918 O   0  0  0  0  0  0  0  0  0  0  0  0
   24.5458  -20.5332  -12.2412 N   0  0  0  0  0  0  0  0  0  0  0  0
   25.0233  -19.4104  -11.4686 C   0  0  0  0  0  0  0  0  0  0  0  0
   25.2915  -20.0044  -10.0871 C   0  0  0  0  0  0  0  0  0  0  0  0
   24.7217  -21.4041  -10.1152 C   0  0  0  0  0  0  0  0  0  0  0  0
   23.8054  -21.3870  -11.2996 C   0  0  1  0  0  0  0  0  0  0  0  0
   22.4807  -20.8104  -11.0244 C   0  0  0  0  0  0  0  0  0  0  0  0
   21.7085  -21.4155  -10.2385 O   0  0  0  0  0  0  0  0  0  0  0  0
   22.0211  -19.6369  -11.5760 O   0  0  0  0  0  0  0  0  0  0  0  0
  1  2  1  0
  1  5  1  0
  2  3  1  0
  3  4  1  0
  5  4  1  0
  5  6  1  1
  6  7  2  0
  8  6  1  0
  9  8  1  0
 10 11  1  0
  9 10  1  6
 11 12  1  0
 12 13  1  0
 13 14  1  0
 15  9  1  0
 16 15  2  0
 17 21  1  0
 17 15  1  0
 18 19  1  0
 18 17  1  0
 19 20  1  0
 21 20  1  0
 21 22  1  1
 23 22  2  0
 24 22  1  0
M  END
$$$$
