PKP.pdb
     RDKit          3D

 24 25  0  0  1  0  0  0  0  0999 V2000
   26.2619  -21.1418  -13.9679 N   0  0  0  0  0  0  0  0  0  0  0  0
   26.7631  -21.3251  -15.3219 C   0  0  0  0  0  0  0  0  0  0  0  0
   28.2464  -21.0670  -15.2741 C   0  0  0  0  0  0  0  0  0  0  0  0
   28.3602  -20.2097  -14.0038 C   0  0  0  0  0  0  0  0  0  0  0  0
   27.3859  -20.9076  -13.1245 C   0  0  1  0  0  0  0  0  0  0  0  0
   27.0300  -20.1656  -11.8960 C   0  0  0  0  0  0  0  0  0  0  0  0
   27.1087  -18.9236  -11.9459 O   0  0  0  0  0  0  0  0  0  0  0  0
   26.6152  -20.7705  -10.6955 N   0  0  0  0  0  0  0  0  0  0  0  0
   26.2330  -20.1917   -9.4649 C   0  0  1  0  0  0  0  0  0  0  0  0
   24.7650  -20.0983   -9.1556 C   0  0  0  0  0  0  0  0  0  0  0  0
   23.8533  -20.4115  -10.3078 C   0  0  0  0  0  0  0  0  0  0  0  0
   22.4230  -20.3251   -9.8409 C   0  0  0  0  0  0  0  0  0  0  0  0
   21.3854  -20.5867  -10.8918 C   0  0  0  0  0  0  0  0  0  0  0  0
   21.2154  -21.9909  -11.1619 N   0  0  0  0  0  0  0  0  0  0  0  0
   26.9707  -20.6531   -8.2901 C   0  0  0  0  0  0  0  0  0  0  0  0
   27.2298  -21.9175   -8.2863 O   0  0  0  0  0  0  0  0  0  0  0  0
   27.4254  -19.9135   -7.1922 N   0  0  0  0  0  0  0  0  0  0  0  0
   27.2713  -18.5166   -6.8598 C   0  0  0  0  0  0  0  0  0  0  0  0
   28.5838  -18.1589   -6.1649 C   0  0  0  0  0  0  0  0  0  0  0  0
   29.3132  -19.4651   -5.9494 C   0  0  0  0  0  0  0  0  0  0  0  0
   28.2418  -20.4979   -6.1172 C   0  0  1  0  0  0  0  0  0  0  0  0
   27.4217  -20.7116   -4.9151 C   0  0  0  0  0  0  0  0  0  0  0  0
   26.2020  -20.4099   -4.9530 O   0  0  0  0  0  0  0  0  0  0  0  0
   27.9043  -21.2268   -3.7344 O   0  0  0  0  0  0  0  0  0  0  0  0
  1  2  1  0
  1  5  1  0
  2  3  1  0
  3  4  1  0
  5  4  1  0
  5  6  1  1
  6  7  2  0
  8  6  1  0
  9  8  1  0
 10 11  1  0
  9 10  1  1
 11 12  1  0
 12 13  1  0
 13 14  1  0
 15  9  1  0
 16 15  2  0
 17 21  1  0
 17 15  1  0
 18 19  1  0
 18 17  1  0
 19 20  1  0
 21 20  1  0
 21 22  1  1
 23 22  2  0
 24 22  1  0
M  END
$$$$
