PKP.pdb
     RDKit          3D

 24 25  0  0  1  0  0  0  0  0999 V2000
   27.9592  -23.7935  -17.7411 N   0  0  0  0  0  0  0  0  0  0  0  0
   28.6358  -24.3363  -18.9098 C   0  0  0  0  0  0  0  0  0  0  0  0
   29.8732  -23.5035  -19.1205 C   0  0  0  0  0  0  0  0  0  0  0  0
   29.4917  -22.2092  -18.3851 C   0  0  0  0  0  0  0  0  0  0  0  0
   28.7934  -22.7732  -17.2002 C   0  0  1  0  0  0  0  0  0  0  0  0
   28.0365  -21.7812  -16.4069 C   0  0  0  0  0  0  0  0  0  0  0  0
   28.6992  -20.9014  -15.8255 O   0  0  0  0  0  0  0  0  0  0  0  0
   26.6361  -21.7737  -16.2730 N   0  0  0  0  0  0  0  0  0  0  0  0
   25.7900  -20.8887  -15.5684 C   0  0  1  0  0  0  0  0  0  0  0  0
   24.6316  -20.2813  -16.3091 C   0  0  0  0  0  0  0  0  0  0  0  0
   23.7629  -19.3700  -15.4895 C   0  0  0  0  0  0  0  0  0  0  0  0
   22.6023  -18.9074  -16.3323 C   0  0  0  0  0  0  0  0  0  0  0  0
   21.6860  -17.9164  -15.6784 C   0  0  0  0  0  0  0  0  0  0  0  0
   20.5929  -17.5288  -16.5321 N   0  0  0  0  0  0  0  0  0  0  0  0
   25.3661  -21.3361  -14.2427 C   0  0  0  0  0  0  0  0  0  0  0  0
   24.8061  -22.4989  -14.2265 O   0  0  0  0  0  0  0  0  0  0  0  0
   25.4898  -20.6793  -13.0130 N   0  0  0  0  0  0  0  0  0  0  0  0
   25.9633  -19.3541  -12.6885 C   0  0  0  0  0  0  0  0  0  0  0  0
   26.6610  -19.5344  -11.3416 C   0  0  0  0  0  0  0  0  0  0  0  0
   26.3307  -20.9363  -10.8831 C   0  0  0  0  0  0  0  0  0  0  0  0
   25.1548  -21.3151  -11.7295 C   0  0  1  0  0  0  0  0  0  0  0  0
   23.8682  -20.8060  -11.2307 C   0  0  0  0  0  0  0  0  0  0  0  0
   23.2739  -19.9146  -11.8883 O   0  0  0  0  0  0  0  0  0  0  0  0
   23.2611  -21.2443  -10.0767 O   0  0  0  0  0  0  0  0  0  0  0  0
  1  2  1  0
  1  5  1  0
  2  3  1  0
  3  4  1  0
  5  4  1  0
  5  6  1  6
  6  7  2  0
  8  6  1  0
  9  8  1  0
 10 11  1  0
  9 10  1  6
 11 12  1  0
 12 13  1  0
 13 14  1  0
 15  9  1  0
 16 15  2  0
 17 21  1  0
 17 15  1  0
 18 19  1  0
 18 17  1  0
 19 20  1  0
 21 20  1  0
 21 22  1  1
 23 22  2  0
 24 22  1  0
M  END
$$$$
