PKP.pdb
     RDKit          3D

 24 25  0  0  1  0  0  0  0  0999 V2000
   27.2127  -19.4935  -17.1038 N   0  0  0  0  0  0  0  0  0  0  0  0
   28.1819  -19.0134  -18.0776 C   0  0  0  0  0  0  0  0  0  0  0  0
   28.9011  -17.8543  -17.4388 C   0  0  0  0  0  0  0  0  0  0  0  0
   27.8849  -17.4243  -16.3692 C   0  0  0  0  0  0  0  0  0  0  0  0
   27.4121  -18.7541  -15.9026 C   0  0  1  0  0  0  0  0  0  0  0  0
   26.2015  -18.7098  -15.0547 C   0  0  0  0  0  0  0  0  0  0  0  0
   26.2733  -18.0427  -14.0054 O   0  0  0  0  0  0  0  0  0  0  0  0
   24.9948  -19.3658  -15.3592 N   0  0  0  0  0  0  0  0  0  0  0  0
   23.7727  -19.4063  -14.6517 C   0  0  1  0  0  0  0  0  0  0  0  0
   22.5073  -19.1301  -15.4144 C   0  0  0  0  0  0  0  0  0  0  0  0
   22.6171  -18.0531  -16.4560 C   0  0  0  0  0  0  0  0  0  0  0  0
   21.2884  -17.9039  -17.1513 C   0  0  0  0  0  0  0  0  0  0  0  0
   21.2395  -16.8642  -18.2310 C   0  0  0  0  0  0  0  0  0  0  0  0
   19.9224  -16.7145  -18.7938 N   0  0  0  0  0  0  0  0  0  0  0  0
   23.5904  -20.5540  -13.7647 C   0  0  0  0  0  0  0  0  0  0  0  0
   23.8234  -21.6969  -14.3174 O   0  0  0  0  0  0  0  0  0  0  0  0
   23.2060  -20.5716  -12.4190 N   0  0  0  0  0  0  0  0  0  0  0  0
   22.9662  -19.4951  -11.4866 C   0  0  0  0  0  0  0  0  0  0  0  0
   23.4475  -20.0553  -10.1494 C   0  0  0  0  0  0  0  0  0  0  0  0
   23.7243  -21.5225  -10.3852 C   0  0  0  0  0  0  0  0  0  0  0  0
   22.9998  -21.8161  -11.6625 C   0  0  1  0  0  0  0  0  0  0  0  0
   21.5621  -22.0741  -11.4905 C   0  0  0  0  0  0  0  0  0  0  0  0
   21.2012  -23.1369  -10.9245 O   0  0  0  0  0  0  0  0  0  0  0  0
   20.5698  -21.2198  -11.9125 O   0  0  0  0  0  0  0  0  0  0  0  0
  1  2  1  0
  1  5  1  0
  2  3  1  0
  3  4  1  0
  5  4  1  0
  5  6  1  6
  6  7  2  0
  8  6  1  0
  9  8  1  0
 10 11  1  0
  9 10  1  6
 11 12  1  0
 12 13  1  0
 13 14  1  0
 15  9  1  0
 16 15  2  0
 17 21  1  0
 17 15  1  0
 18 19  1  0
 18 17  1  0
 19 20  1  0
 21 20  1  0
 21 22  1  1
 23 22  2  0
 24 22  1  0
M  END
$$$$
