PKP.pdb
     RDKit          3D

 24 25  0  0  1  0  0  0  0  0999 V2000
   29.8831  -24.9514  -17.3432 N   0  0  0  0  0  0  0  0  0  0  0  0
   29.8987  -26.3964  -17.5157 C   0  0  0  0  0  0  0  0  0  0  0  0
   28.4831  -26.8722  -17.3190 C   0  0  0  0  0  0  0  0  0  0  0  0
   27.8908  -25.7173  -16.4962 C   0  0  0  0  0  0  0  0  0  0  0  0
   28.5249  -24.5562  -17.1740 C   0  0  1  0  0  0  0  0  0  0  0  0
   28.3919  -23.2759  -16.4463 C   0  0  0  0  0  0  0  0  0  0  0  0
   29.1982  -23.0684  -15.5201 O   0  0  0  0  0  0  0  0  0  0  0  0
   27.4245  -22.2960  -16.7346 N   0  0  0  0  0  0  0  0  0  0  0  0
   26.9440  -21.2264  -15.9468 C   0  0  1  0  0  0  0  0  0  0  0  0
   26.2520  -20.0905  -16.6470 C   0  0  0  0  0  0  0  0  0  0  0  0
   25.6440  -19.0612  -15.7371 C   0  0  0  0  0  0  0  0  0  0  0  0
   26.0978  -17.6913  -16.1713 C   0  0  0  0  0  0  0  0  0  0  0  0
   25.6687  -16.5597  -15.2855 C   0  0  0  0  0  0  0  0  0  0  0  0
   26.0502  -15.2737  -15.8093 N   0  0  0  0  0  0  0  0  0  0  0  0
   26.2056  -21.6059  -14.7434 C   0  0  0  0  0  0  0  0  0  0  0  0
   25.3755  -22.5797  -14.9127 O   0  0  0  0  0  0  0  0  0  0  0  0
   26.2841  -21.0614  -13.4565 N   0  0  0  0  0  0  0  0  0  0  0  0
   27.0739  -19.9709  -12.9342 C   0  0  0  0  0  0  0  0  0  0  0  0
   27.4018  -20.4073  -11.5075 C   0  0  0  0  0  0  0  0  0  0  0  0
   26.5674  -21.6398  -11.2442 C   0  0  0  0  0  0  0  0  0  0  0  0
   25.5223  -21.5924  -12.3157 C   0  0  1  0  0  0  0  0  0  0  0  0
   24.3872  -20.7094  -12.0073 C   0  0  0  0  0  0  0  0  0  0  0  0
   24.2841  -19.6185  -12.6232 O   0  0  0  0  0  0  0  0  0  0  0  0
   23.4157  -20.9992  -11.0773 O   0  0  0  0  0  0  0  0  0  0  0  0
  1  2  1  0
  1  5  1  0
  2  3  1  0
  3  4  1  0
  5  4  1  0
  5  6  1  1
  6  7  2  0
  8  6  1  0
  9  8  1  0
 10 11  1  0
  9 10  1  6
 11 12  1  0
 12 13  1  0
 13 14  1  0
 15  9  1  0
 16 15  2  0
 17 21  1  0
 17 15  1  0
 18 19  1  0
 18 17  1  0
 19 20  1  0
 21 20  1  0
 21 22  1  1
 23 22  2  0
 24 22  1  0
M  END
$$$$
