QGQ.pdb
     RDKit          3D

 23 22  0  0  1  0  0  0  0  0999 V2000
   27.4465  -22.0903  -15.1963 N   0  0  0  0  0  0  0  0  0  0  0  0
   27.2217  -20.6996  -15.4788 C   0  0  0  0  0  0  0  0  0  0  0  0
   27.8032  -20.1846  -16.4659 O   0  0  0  0  0  0  0  0  0  0  0  0
   26.3276  -19.8731  -14.6368 C   0  0  0  0  0  0  0  0  0  0  0  0
   25.8453  -20.6884  -13.4871 C   0  0  0  0  0  0  0  0  0  0  0  0
   24.5496  -21.4338  -13.8164 C   0  0  2  0  0  0  0  0  0  0  0  0
   24.3550  -21.5623  -15.2283 N   0  0  0  0  0  0  0  0  0  0  0  0
   23.4580  -20.6385  -13.1679 C   0  0  0  0  0  0  0  0  0  0  0  0
   23.4229  -20.5648  -11.9141 O   0  0  0  0  0  0  0  0  0  0  0  0
   22.4642  -19.9671  -13.9280 N   0  0  0  0  0  0  0  0  0  0  0  0
   21.5608  -20.5843  -14.8320 C   0  0  0  0  0  0  0  0  0  0  0  0
   20.3285  -21.1354  -14.2411 C   0  0  0  0  0  0  0  0  0  0  0  0
   19.2359  -21.1115  -14.9130 O   0  0  0  0  0  0  0  0  0  0  0  0
   19.7693  -23.9414   -8.6098 N   0  0  0  0  0  0  0  0  0  0  0  0
   18.4646  -24.0962   -9.1417 C   0  0  0  0  0  0  0  0  0  0  0  0
   17.5920  -24.6801   -8.4868 O   0  0  0  0  0  0  0  0  0  0  0  0
   18.1233  -23.5530  -10.5089 C   0  0  0  0  0  0  0  0  0  0  0  0
   19.3283  -22.8517  -11.0718 C   0  0  0  0  0  0  0  0  0  0  0  0
   19.0397  -22.3671  -12.4635 C   0  0  2  0  0  0  0  0  0  0  0  0
   20.2586  -21.6986  -12.9604 N   0  0  0  0  0  0  0  0  0  0  0  0
   17.9224  -21.4068  -12.4325 C   0  0  0  0  0  0  0  0  0  0  0  0
   17.9924  -20.2073  -12.0767 O   0  0  0  0  0  0  0  0  0  0  0  0
   16.6599  -21.9025  -12.8465 O   0  0  0  0  0  0  0  0  0  0  0  0
  2  1  1  0
  2  4  1  0
  3  2  2  0
  5  4  1  0
  5  6  1  0
  6  7  1  6
  8  9  2  0
  8  6  1  0
 10  8  1  0
 11 10  1  0
 11 12  1  0
 12 20  1  0
 13 12  2  0
 15 16  2  0
 15 14  1  0
 17 15  1  0
 18 17  1  0
 19 21  1  0
 19 18  1  1
 20 19  1  0
 21 23  1  0
 22 21  2  0
M  END
$$$$
