QGQ.pdb
     RDKit          3D

 23 22  0  0  1  0  0  0  0  0999 V2000
   19.3343  -21.8201  -15.9266 N   0  0  0  0  0  0  0  0  0  0  0  0
   18.7593  -21.2794  -17.1273 C   0  0  0  0  0  0  0  0  0  0  0  0
   18.4674  -22.0664  -18.0617 O   0  0  0  0  0  0  0  0  0  0  0  0
   18.5080  -19.8286  -17.2803 C   0  0  0  0  0  0  0  0  0  0  0  0
   18.8381  -19.1367  -16.0030 C   0  0  0  0  0  0  0  0  0  0  0  0
   20.3207  -18.7657  -15.9185 C   0  0  2  0  0  0  0  0  0  0  0  0
   20.9752  -18.9019  -17.1837 N   0  0  0  0  0  0  0  0  0  0  0  0
   20.9007  -19.6804  -14.8834 C   0  0  0  0  0  0  0  0  0  0  0  0
   20.4919  -19.5937  -13.6985 O   0  0  0  0  0  0  0  0  0  0  0  0
   21.8972  -20.6404  -15.2024 N   0  0  0  0  0  0  0  0  0  0  0  0
   22.5828  -21.4588  -14.2675 C   0  0  0  0  0  0  0  0  0  0  0  0
   23.7676  -20.8593  -13.6284 C   0  0  0  0  0  0  0  0  0  0  0  0
   24.1972  -19.7191  -14.0295 O   0  0  0  0  0  0  0  0  0  0  0  0
   25.3814  -20.2451   -8.5752 N   0  0  0  0  0  0  0  0  0  0  0  0
   26.7564  -20.2356   -8.9195 C   0  0  0  0  0  0  0  0  0  0  0  0
   27.5619  -19.5850   -8.2419 O   0  0  0  0  0  0  0  0  0  0  0  0
   27.2546  -21.0158  -10.1127 C   0  0  0  0  0  0  0  0  0  0  0  0
   26.0819  -21.6529  -10.8054 C   0  0  0  0  0  0  0  0  0  0  0  0
   25.7040  -20.8544  -12.0196 C   0  0  2  0  0  0  0  0  0  0  0  0
   24.4828  -21.4614  -12.5852 N   0  0  0  0  0  0  0  0  0  0  0  0
   26.7936  -20.9121  -13.0100 C   0  0  0  0  0  0  0  0  0  0  0  0
   27.0129  -21.8522  -13.8090 O   0  0  0  0  0  0  0  0  0  0  0  0
   27.6637  -19.7931  -13.0487 O   0  0  0  0  0  0  0  0  0  0  0  0
  2  1  1  0
  2  4  1  0
  3  2  2  0
  5  4  1  0
  5  6  1  0
  6  7  1  6
  8  9  2  0
  8  6  1  0
 10  8  1  0
 11 10  1  0
 11 12  1  0
 12 20  1  0
 13 12  2  0
 15 16  2  0
 15 14  1  0
 17 15  1  0
 18 17  1  0
 19 21  1  0
 19 18  1  1
 20 19  1  0
 21 23  1  0
 22 21  2  0
M  END
$$$$
