QGQ.pdb
     RDKit          3D

 23 22  0  0  1  0  0  0  0  0999 V2000
   18.1492  -18.2095  -16.0328 N   0  0  0  0  0  0  0  0  0  0  0  0
   17.5281  -17.7529  -17.2454 C   0  0  0  0  0  0  0  0  0  0  0  0
   16.7122  -18.5114  -17.8258 O   0  0  0  0  0  0  0  0  0  0  0  0
   17.8294  -16.4205  -17.8155 C   0  0  0  0  0  0  0  0  0  0  0  0
   18.8342  -15.7352  -16.9554 C   0  0  0  0  0  0  0  0  0  0  0  0
   18.2135  -14.5932  -16.1472 C   0  0  2  0  0  0  0  0  0  0  0  0
   16.8364  -14.3935  -16.4812 N   0  0  0  0  0  0  0  0  0  0  0  0
   19.0482  -13.3882  -16.4565 C   0  0  0  0  0  0  0  0  0  0  0  0
   20.2921  -13.4523  -16.2917 O   0  0  0  0  0  0  0  0  0  0  0  0
   18.4749  -12.1783  -16.9297 N   0  0  0  0  0  0  0  0  0  0  0  0
   19.1762  -10.9639  -17.1481 C   0  0  0  0  0  0  0  0  0  0  0  0
   19.2466  -10.0413  -16.0012 C   0  0  0  0  0  0  0  0  0  0  0  0
   18.5532  -10.2817  -14.9490 O   0  0  0  0  0  0  0  0  0  0  0  0
   23.4333   -5.4611  -14.9977 N   0  0  0  0  0  0  0  0  0  0  0  0
   22.5546   -5.2927  -13.8982 C   0  0  0  0  0  0  0  0  0  0  0  0
   22.7950   -4.4380  -13.0362 O   0  0  0  0  0  0  0  0  0  0  0  0
   21.3189   -6.1504  -13.7644 C   0  0  0  0  0  0  0  0  0  0  0  0
   21.2514   -7.0970  -14.9307 C   0  0  0  0  0  0  0  0  0  0  0  0
   20.0197   -7.9502  -14.8318 C   0  0  2  0  0  0  0  0  0  0  0  0
   20.0365   -8.8847  -15.9746 N   0  0  0  0  0  0  0  0  0  0  0  0
   18.8193   -7.0984  -14.9026 C   0  0  0  0  0  0  0  0  0  0  0  0
   18.2465   -6.5518  -13.9314 O   0  0  0  0  0  0  0  0  0  0  0  0
   18.2764   -6.8888  -16.1957 O   0  0  0  0  0  0  0  0  0  0  0  0
  2  1  1  0
  2  4  1  0
  3  2  2  0
  5  4  1  0
  5  6  1  0
  6  7  1  6
  8  9  2  0
  8  6  1  0
 10  8  1  0
 11 10  1  0
 11 12  1  0
 12 20  1  0
 13 12  2  0
 15 16  2  0
 15 14  1  0
 17 15  1  0
 18 17  1  0
 19 21  1  0
 19 18  1  6
 20 19  1  0
 21 23  1  0
 22 21  2  0
M  END
$$$$
