QGQ.pdb
     RDKit          3D

 23 22  0  0  1  0  0  0  0  0999 V2000
   17.6350  -15.4530  -15.4442 N   0  0  0  0  0  0  0  0  0  0  0  0
   17.3409  -15.3106  -16.8434 C   0  0  0  0  0  0  0  0  0  0  0  0
   17.1445  -16.3471  -17.5253 O   0  0  0  0  0  0  0  0  0  0  0  0
   17.2662  -13.9798  -17.4875 C   0  0  0  0  0  0  0  0  0  0  0  0
   17.5521  -12.9275  -16.4726 C   0  0  0  0  0  0  0  0  0  0  0  0
   18.8064  -12.1219  -16.8198 C   0  0  2  0  0  0  0  0  0  0  0  0
   19.9588  -12.9611  -16.9448 N   0  0  0  0  0  0  0  0  0  0  0  0
   18.9553  -11.1223  -15.7138 C   0  0  0  0  0  0  0  0  0  0  0  0
   18.3908  -11.3451  -14.6137 O   0  0  0  0  0  0  0  0  0  0  0  0
   19.7146   -9.9330  -15.8730 N   0  0  0  0  0  0  0  0  0  0  0  0
   19.9531   -8.9658  -14.8623 C   0  0  0  0  0  0  0  0  0  0  0  0
   20.6691   -7.7494  -15.2858 C   0  0  0  0  0  0  0  0  0  0  0  0
   21.3239   -7.7492  -16.3890 O   0  0  0  0  0  0  0  0  0  0  0  0
   18.6277   -2.1936  -15.4773 N   0  0  0  0  0  0  0  0  0  0  0  0
   19.9790   -1.9295  -15.8140 C   0  0  0  0  0  0  0  0  0  0  0  0
   20.3102   -0.8086  -16.2203 O   0  0  0  0  0  0  0  0  0  0  0  0
   21.0281   -3.0077  -15.6818 C   0  0  0  0  0  0  0  0  0  0  0  0
   20.3926   -4.2406  -15.1013 C   0  0  0  0  0  0  0  0  0  0  0  0
   21.3980   -5.3535  -15.0284 C   0  0  2  0  0  0  0  0  0  0  0  0
   20.6905   -6.5577  -14.5499 N   0  0  0  0  0  0  0  0  0  0  0  0
   22.4674   -4.9944  -14.0803 C   0  0  0  0  0  0  0  0  0  0  0  0
   22.4820   -5.2539  -12.8545 O   0  0  0  0  0  0  0  0  0  0  0  0
   23.5735   -4.2914  -14.6219 O   0  0  0  0  0  0  0  0  0  0  0  0
  2  1  1  0
  2  4  1  0
  3  2  2  0
  5  4  1  0
  5  6  1  0
  6  7  1  1
  8  9  2  0
  8  6  1  0
 10  8  1  0
 11 10  1  0
 11 12  1  0
 12 20  1  0
 13 12  2  0
 15 16  2  0
 15 14  1  0
 17 15  1  0
 18 17  1  0
 19 21  1  0
 19 18  1  1
 20 19  1  0
 21 23  1  0
 22 21  2  0
M  END
$$$$
