QGQ.pdb
     RDKit          3D

 23 22  0  0  1  0  0  0  0  0999 V2000
   15.1436  -15.9696  -17.2141 N   0  0  0  0  0  0  0  0  0  0  0  0
   15.9777  -16.3351  -16.1027 C   0  0  0  0  0  0  0  0  0  0  0  0
   15.7193  -17.3947  -15.4796 O   0  0  0  0  0  0  0  0  0  0  0  0
   17.1224  -15.4948  -15.6843 C   0  0  0  0  0  0  0  0  0  0  0  0
   17.1625  -14.2668  -16.5267 C   0  0  0  0  0  0  0  0  0  0  0  0
   18.3566  -13.3735  -16.1816 C   0  0  2  0  0  0  0  0  0  0  0  0
   18.5439  -13.2603  -14.7674 N   0  0  0  0  0  0  0  0  0  0  0  0
   18.0596  -12.0500  -16.8178 C   0  0  0  0  0  0  0  0  0  0  0  0
   17.7678  -12.0150  -18.0393 O   0  0  0  0  0  0  0  0  0  0  0  0
   18.0983  -10.8367  -16.0812 N   0  0  0  0  0  0  0  0  0  0  0  0
   17.6093   -9.5828  -16.5317 C   0  0  0  0  0  0  0  0  0  0  0  0
   17.8247   -8.4404  -15.6262 C   0  0  0  0  0  0  0  0  0  0  0  0
   17.4317   -8.5130  -14.4071 O   0  0  0  0  0  0  0  0  0  0  0  0
   22.7581   -4.8907  -15.7599 N   0  0  0  0  0  0  0  0  0  0  0  0
   22.0812   -4.3358  -14.6450 C   0  0  0  0  0  0  0  0  0  0  0  0
   22.6412   -3.4900  -13.9363 O   0  0  0  0  0  0  0  0  0  0  0  0
   20.6737   -4.7674  -14.3085 C   0  0  0  0  0  0  0  0  0  0  0  0
   20.2123   -5.7711  -15.3286 C   0  0  0  0  0  0  0  0  0  0  0  0
   18.8040   -6.1988  -15.0310 C   0  0  2  0  0  0  0  0  0  0  0  0
   18.4432   -7.2435  -16.0098 N   0  0  0  0  0  0  0  0  0  0  0  0
   17.8954   -5.0474  -15.1737 C   0  0  0  0  0  0  0  0  0  0  0  0
   17.6866   -4.1632  -14.3106 O   0  0  0  0  0  0  0  0  0  0  0  0
   17.2023   -4.9465  -16.4067 O   0  0  0  0  0  0  0  0  0  0  0  0
  2  1  1  0
  2  4  1  0
  3  2  2  0
  5  4  1  0
  5  6  1  0
  6  7  1  1
  8  9  2  0
  8  6  1  0
 10  8  1  0
 11 10  1  0
 11 12  1  0
 12 20  1  0
 13 12  2  0
 15 16  2  0
 15 14  1  0
 17 15  1  0
 18 17  1  0
 19 21  1  0
 19 18  1  6
 20 19  1  0
 21 23  1  0
 22 21  2  0
M  END
$$$$
