QGQ.pdb
     RDKit          3D

 23 22  0  0  1  0  0  0  0  0999 V2000
   23.8448  -20.6176   -9.7260 N   0  0  0  0  0  0  0  0  0  0  0  0
   24.7199  -20.4950   -8.5930 C   0  0  0  0  0  0  0  0  0  0  0  0
   24.2601  -20.7358   -7.4491 O   0  0  0  0  0  0  0  0  0  0  0  0
   26.1365  -20.0947   -8.7485 C   0  0  0  0  0  0  0  0  0  0  0  0
   26.3899  -19.7316  -10.1708 C   0  0  0  0  0  0  0  0  0  0  0  0
   26.3291  -20.9513  -11.0935 C   0  0  2  0  0  0  0  0  0  0  0  0
   27.3953  -21.8691  -10.8315 N   0  0  0  0  0  0  0  0  0  0  0  0
   26.3902  -20.4000  -12.4852 C   0  0  0  0  0  0  0  0  0  0  0  0
   27.4041  -19.7459  -12.8355 O   0  0  0  0  0  0  0  0  0  0  0  0
   25.3373  -20.5954  -13.4177 N   0  0  0  0  0  0  0  0  0  0  0  0
   25.4102  -20.3325  -14.8105 C   0  0  0  0  0  0  0  0  0  0  0  0
   24.1665  -20.5362  -15.5741 C   0  0  0  0  0  0  0  0  0  0  0  0
   24.1219  -20.2112  -16.8143 O   0  0  0  0  0  0  0  0  0  0  0  0
   24.8445  -24.7352  -15.3012 N   0  0  0  0  0  0  0  0  0  0  0  0
   23.4486  -24.5065  -15.3928 C   0  0  0  0  0  0  0  0  0  0  0  0
   22.8091  -24.9464  -16.3566 O   0  0  0  0  0  0  0  0  0  0  0  0
   22.7264  -23.7263  -14.3204 C   0  0  0  0  0  0  0  0  0  0  0  0
   21.5652  -23.0002  -14.9412 C   0  0  0  0  0  0  0  0  0  0  0  0
   22.0624  -21.8950  -15.8278 C   0  0  2  0  0  0  0  0  0  0  0  0
   22.9926  -21.0725  -15.0293 N   0  0  0  0  0  0  0  0  0  0  0  0
   20.9268  -21.0697  -16.2759 C   0  0  0  0  0  0  0  0  0  0  0  0
   20.5854  -19.9641  -15.7949 O   0  0  0  0  0  0  0  0  0  0  0  0
   20.1614  -21.5894  -17.3506 O   0  0  0  0  0  0  0  0  0  0  0  0
  2  1  1  0
  2  4  1  0
  3  2  2  0
  5  4  1  0
  5  6  1  0
  6  7  1  1
  8  9  2  0
  8  6  1  0
 10  8  1  0
 11 10  1  0
 11 12  1  0
 12 20  1  0
 13 12  2  0
 15 16  2  0
 15 14  1  0
 17 15  1  0
 18 17  1  0
 19 21  1  0
 19 18  1  1
 20 19  1  0
 21 23  1  0
 22 21  2  0
M  END
$$$$
