QGQ.pdb
     RDKit          3D

 23 22  0  0  1  0  0  0  0  0999 V2000
   19.9584  -16.7586  -16.5543 N   0  0  0  0  0  0  0  0  0  0  0  0
   21.1606  -17.0855  -17.2702 C   0  0  0  0  0  0  0  0  0  0  0  0
   21.2841  -16.6832  -18.4537 O   0  0  0  0  0  0  0  0  0  0  0  0
   22.2429  -17.8784  -16.6448 C   0  0  0  0  0  0  0  0  0  0  0  0
   21.8021  -18.3308  -15.2956 C   0  0  0  0  0  0  0  0  0  0  0  0
   22.0239  -19.8318  -15.0934 C   0  0  2  0  0  0  0  0  0  0  0  0
   21.0962  -20.6128  -15.8531 N   0  0  0  0  0  0  0  0  0  0  0  0
   21.8777  -20.0599  -13.6199 C   0  0  0  0  0  0  0  0  0  0  0  0
   22.5439  -19.3495  -12.8262 O   0  0  0  0  0  0  0  0  0  0  0  0
   21.0096  -21.0540  -13.0960 N   0  0  0  0  0  0  0  0  0  0  0  0
   20.6738  -21.2166  -11.7267 C   0  0  0  0  0  0  0  0  0  0  0  0
   19.6765  -22.2583  -11.4237 C   0  0  0  0  0  0  0  0  0  0  0  0
   19.0081  -22.7949  -12.3781 O   0  0  0  0  0  0  0  0  0  0  0  0
   18.4010  -24.7550   -5.7628 N   0  0  0  0  0  0  0  0  0  0  0  0
   17.5061  -25.4644   -6.6024 C   0  0  0  0  0  0  0  0  0  0  0  0
   16.7429  -26.3116   -6.1218 O   0  0  0  0  0  0  0  0  0  0  0  0
   17.4721  -25.1970   -8.0884 C   0  0  0  0  0  0  0  0  0  0  0  0
   18.4548  -24.1059   -8.4121 C   0  0  0  0  0  0  0  0  0  0  0  0
   18.4022  -23.7826   -9.8775 C   0  0  2  0  0  0  0  0  0  0  0  0
   19.3937  -22.7186  -10.1312 N   0  0  0  0  0  0  0  0  0  0  0  0
   17.0548  -23.3024  -10.2314 C   0  0  0  0  0  0  0  0  0  0  0  0
   16.1400  -23.9884  -10.7439 O   0  0  0  0  0  0  0  0  0  0  0  0
   16.7861  -21.9367   -9.9601 O   0  0  0  0  0  0  0  0  0  0  0  0
  2  1  1  0
  2  4  1  0
  3  2  2  0
  5  4  1  0
  5  6  1  0
  6  7  1  6
  8  9  2  0
  8  6  1  0
 10  8  1  0
 11 10  1  0
 11 12  1  0
 12 20  1  0
 13 12  2  0
 15 16  2  0
 15 14  1  0
 17 15  1  0
 18 17  1  0
 19 21  1  0
 19 18  1  1
 20 19  1  0
 21 23  1  0
 22 21  2  0
M  END
$$$$
