QGQ.pdb
     RDKit          3D

 23 22  0  0  1  0  0  0  0  0999 V2000
   18.1189  -20.6305  -14.1552 N   0  0  0  0  0  0  0  0  0  0  0  0
   18.0673  -21.8906  -14.8437 C   0  0  0  0  0  0  0  0  0  0  0  0
   17.8229  -21.8932  -16.0758 O   0  0  0  0  0  0  0  0  0  0  0  0
   18.2945  -23.1701  -14.1349 C   0  0  0  0  0  0  0  0  0  0  0  0
   18.5864  -22.8909  -12.7010 C   0  0  0  0  0  0  0  0  0  0  0  0
   18.9843  -24.1577  -11.9397 C   0  0  2  0  0  0  0  0  0  0  0  0
   18.0659  -25.2295  -12.1754 N   0  0  0  0  0  0  0  0  0  0  0  0
   19.0242  -23.7578  -10.4964 C   0  0  0  0  0  0  0  0  0  0  0  0
   19.4609  -22.6194  -10.1934 O   0  0  0  0  0  0  0  0  0  0  0  0
   18.5834  -24.6266   -9.4634 N   0  0  0  0  0  0  0  0  0  0  0  0
   18.5140  -24.2991   -8.0843 C   0  0  0  0  0  0  0  0  0  0  0  0
   17.8933  -25.3092   -7.2091 C   0  0  0  0  0  0  0  0  0  0  0  0
   17.0600  -26.1510   -7.7018 O   0  0  0  0  0  0  0  0  0  0  0  0
   19.4636  -26.5827   -1.2559 N   0  0  0  0  0  0  0  0  0  0  0  0
   18.4765  -27.5677   -1.5102 C   0  0  0  0  0  0  0  0  0  0  0  0
   18.2404  -28.4424   -0.6674 O   0  0  0  0  0  0  0  0  0  0  0  0
   17.7033  -27.5630   -2.8073 C   0  0  0  0  0  0  0  0  0  0  0  0
   18.1624  -26.4030   -3.6468 C   0  0  0  0  0  0  0  0  0  0  0  0
   17.5174  -26.4596   -5.0016 C   0  0  2  0  0  0  0  0  0  0  0  0
   18.1514  -25.4204   -5.8367 N   0  0  0  0  0  0  0  0  0  0  0  0
   16.0749  -26.1861   -4.8759 C   0  0  0  0  0  0  0  0  0  0  0  0
   15.5310  -25.0590   -4.9411 O   0  0  0  0  0  0  0  0  0  0  0  0
   15.2408  -27.3128   -4.6622 O   0  0  0  0  0  0  0  0  0  0  0  0
  2  1  1  0
  2  4  1  0
  3  2  2  0
  5  4  1  0
  5  6  1  0
  6  7  1  1
  8  9  2  0
  8  6  1  0
 10  8  1  0
 11 10  1  0
 11 12  1  0
 12 20  1  0
 13 12  2  0
 15 16  2  0
 15 14  1  0
 17 15  1  0
 18 17  1  0
 19 21  1  0
 19 18  1  1
 20 19  1  0
 21 23  1  0
 22 21  2  0
M  END
$$$$
