MHD.pdb
     RDKit          3D

 27 27  0  0  1  0  0  0  0  0999 V2000
    6.4206  -11.2816   20.5191 C   0  0  0  0  0  0  0  0  0  0  0  0
    7.8118  -12.3922   20.7942 S   0  0  0  0  0  0  0  0  0  0  0  0
    8.4079  -13.2286   19.3321 C   0  0  0  0  0  0  0  0  0  0  0  0
    9.6500  -14.0044   19.5482 C   0  0  0  0  0  0  0  0  0  0  0  0
   10.1676  -14.7532   18.3637 C   0  0  2  0  0  0  0  0  0  0  0  0
    9.2252  -15.7731   17.9385 N   0  0  0  0  0  0  0  0  0  0  0  0
   11.4198  -15.4686   18.8324 C   0  0  0  0  0  0  0  0  0  0  0  0
   11.3441  -16.7161   18.8911 O   0  0  0  0  0  0  0  0  0  0  0  0
   12.6025  -14.7931   19.1842 N   0  0  0  0  0  0  0  0  0  0  0  0
   13.8163  -15.5955   19.4639 C   0  0  1  0  0  0  0  0  0  0  0  0
   14.9584  -14.9136   18.7916 C   0  0  0  0  0  0  0  0  0  0  0  0
   15.0247  -15.1299   17.3388 C   0  0  0  0  0  0  0  0  0  0  0  0
   15.4508  -14.3218   16.3372 C   0  0  0  0  0  0  0  0  0  0  0  0
   15.3708  -15.0251   15.1795 N   0  0  0  0  0  0  0  0  0  0  0  0
   14.9089  -16.2454   15.4362 C   0  0  0  0  0  0  0  0  0  0  0  0
   14.6974  -16.3181   16.7371 N   0  0  0  0  0  0  0  0  0  0  0  0
   14.0517  -15.4834   20.9467 C   0  0  0  0  0  0  0  0  0  0  0  0
   15.0873  -15.8302   21.5309 O   0  0  0  0  0  0  0  0  0  0  0  0
   13.0318  -14.9381   21.8169 N   0  0  0  0  0  0  0  0  0  0  0  0
   12.6133  -15.6047   23.0315 C   0  0  1  0  0  0  0  0  0  0  0  0
   11.3199  -16.3638   22.8386 C   0  0  0  0  0  0  0  0  0  0  0  0
   10.9390  -17.1535   24.0156 C   0  0  0  0  0  0  0  0  0  0  0  0
   11.0783  -16.6412   25.1533 O   0  0  0  0  0  0  0  0  0  0  0  0
   13.6751  -16.4210   23.6211 C   0  0  0  0  0  0  0  0  0  0  0  0
   14.4353  -17.1180   22.9131 O   0  0  0  0  0  0  0  0  0  0  0  0
   10.4302  -18.4402   23.9587 O   0  0  0  0  0  0  0  0  0  0  0  0
   13.8632  -16.4396   24.9903 O   0  0  0  0  0  0  0  0  0  0  0  0
  2  1  1  0
  3  2  1  0
  4  3  1  0
  4  5  1  0
  5  7  1  0
  5  6  1  1
  7  8  2  0
  9 10  1  0
  9  7  1  0
 11 12  1  0
 10 11  1  6
 12 13  2  0
 14 13  1  0
 15 14  1  0
 16 15  2  0
 16 12  1  0
 17 18  2  0
 17 10  1  0
 19 17  1  0
 20 24  1  0
 20 19  1  0
 20 21  1  6
 22 21  1  0
 23 22  2  0
 24 27  1  0
 25 24  2  0
 26 22  1  0
M  END
$$$$
