MHD.pdb
     RDKit          3D

 27 27  0  0  1  0  0  0  0  0999 V2000
    6.9641  -11.4266   25.9977 C   0  0  0  0  0  0  0  0  0  0  0  0
    6.6570  -12.9015   26.9850 S   0  0  0  0  0  0  0  0  0  0  0  0
    7.5081  -14.3707   26.4283 C   0  0  0  0  0  0  0  0  0  0  0  0
    6.6128  -15.5191   26.1623 C   0  0  0  0  0  0  0  0  0  0  0  0
    6.2155  -15.7220   24.7365 C   0  0  2  0  0  0  0  0  0  0  0  0
    5.3477  -16.8779   24.5960 N   0  0  0  0  0  0  0  0  0  0  0  0
    7.4950  -16.0289   23.9828 C   0  0  0  0  0  0  0  0  0  0  0  0
    7.9478  -17.1863   24.1280 O   0  0  0  0  0  0  0  0  0  0  0  0
    8.1487  -15.0880   23.1666 N   0  0  0  0  0  0  0  0  0  0  0  0
    9.2354  -15.5602   22.2770 C   0  0  1  0  0  0  0  0  0  0  0  0
    9.4911  -14.4791   21.2835 C   0  0  0  0  0  0  0  0  0  0  0  0
    8.5327  -14.4393   20.1692 C   0  0  0  0  0  0  0  0  0  0  0  0
    7.4313  -15.1879   19.9154 C   0  0  0  0  0  0  0  0  0  0  0  0
    6.8541  -14.7007   18.7881 N   0  0  0  0  0  0  0  0  0  0  0  0
    7.5659  -13.6715   18.3380 C   0  0  0  0  0  0  0  0  0  0  0  0
    8.5810  -13.5060   19.1654 N   0  0  0  0  0  0  0  0  0  0  0  0
   10.4633  -15.6579   23.1426 C   0  0  0  0  0  0  0  0  0  0  0  0
   10.8907  -14.7556   23.8756 O   0  0  0  0  0  0  0  0  0  0  0  0
   11.2535  -16.8702   23.1688 N   0  0  0  0  0  0  0  0  0  0  0  0
   12.4983  -16.9672   23.9008 C   0  0  1  0  0  0  0  0  0  0  0  0
   12.7578  -18.3763   24.3836 C   0  0  0  0  0  0  0  0  0  0  0  0
   11.7549  -18.8447   25.3474 C   0  0  0  0  0  0  0  0  0  0  0  0
   11.7521  -18.3482   26.5004 O   0  0  0  0  0  0  0  0  0  0  0  0
   13.6286  -16.3942   23.1690 C   0  0  0  0  0  0  0  0  0  0  0  0
   13.5302  -16.0621   21.9669 O   0  0  0  0  0  0  0  0  0  0  0  0
   10.7993  -19.8081   25.0707 O   0  0  0  0  0  0  0  0  0  0  0  0
   14.8447  -16.2053   23.7983 O   0  0  0  0  0  0  0  0  0  0  0  0
  2  1  1  0
  3  2  1  0
  4  3  1  0
  4  5  1  0
  5  7  1  0
  5  6  1  1
  7  8  2  0
  9 10  1  0
  9  7  1  0
 11 12  1  0
 10 11  1  6
 12 13  2  0
 14 13  1  0
 15 14  1  0
 16 15  2  0
 16 12  1  0
 17 18  2  0
 17 10  1  0
 19 17  1  0
 20 24  1  0
 20 19  1  0
 20 21  1  6
 22 21  1  0
 23 22  2  0
 24 27  1  0
 25 24  2  0
 26 22  1  0
M  END
$$$$
