MHD.pdb
     RDKit          3D

 27 27  0  0  1  0  0  0  0  0999 V2000
    6.0565  -11.9257   27.6035 C   0  0  0  0  0  0  0  0  0  0  0  0
    7.1171  -12.5504   26.2884 S   0  0  0  0  0  0  0  0  0  0  0  0
    7.7626  -14.1945   26.5588 C   0  0  0  0  0  0  0  0  0  0  0  0
    6.7775  -15.2733   26.3198 C   0  0  0  0  0  0  0  0  0  0  0  0
    6.3152  -15.4357   24.9086 C   0  0  2  0  0  0  0  0  0  0  0  0
    5.3356  -16.5024   24.7999 N   0  0  0  0  0  0  0  0  0  0  0  0
    7.5332  -15.8641   24.1135 C   0  0  0  0  0  0  0  0  0  0  0  0
    7.8879  -17.0549   24.2607 O   0  0  0  0  0  0  0  0  0  0  0  0
    8.2353  -14.9952   23.2586 N   0  0  0  0  0  0  0  0  0  0  0  0
    9.2807  -15.5655   22.3769 C   0  0  1  0  0  0  0  0  0  0  0  0
    9.5854  -14.5417   21.3376 C   0  0  0  0  0  0  0  0  0  0  0  0
    8.5576  -14.4107   20.2945 C   0  0  0  0  0  0  0  0  0  0  0  0
    7.3797  -15.0587   20.1192 C   0  0  0  0  0  0  0  0  0  0  0  0
    6.7688  -14.5149   19.0364 N   0  0  0  0  0  0  0  0  0  0  0  0
    7.5341  -13.5485   18.5376 C   0  0  0  0  0  0  0  0  0  0  0  0
    8.6159  -13.4780   19.2906 N   0  0  0  0  0  0  0  0  0  0  0  0
   10.5123  -15.7006   23.2321 C   0  0  0  0  0  0  0  0  0  0  0  0
   10.9908  -14.8018   23.9374 O   0  0  0  0  0  0  0  0  0  0  0  0
   11.2437  -16.9485   23.2813 N   0  0  0  0  0  0  0  0  0  0  0  0
   12.4952  -17.0846   23.9955 C   0  0  1  0  0  0  0  0  0  0  0  0
   12.6651  -18.4721   24.5717 C   0  0  0  0  0  0  0  0  0  0  0  0
   11.6361  -18.8103   25.5621 C   0  0  0  0  0  0  0  0  0  0  0  0
   11.4683  -18.0415   26.5403 O   0  0  0  0  0  0  0  0  0  0  0  0
   13.6460  -16.6470   23.2047 C   0  0  0  0  0  0  0  0  0  0  0  0
   13.5411  -16.3808   21.9869 O   0  0  0  0  0  0  0  0  0  0  0  0
   10.8271  -19.9321   25.4927 O   0  0  0  0  0  0  0  0  0  0  0  0
   14.8896  -16.5166   23.7939 O   0  0  0  0  0  0  0  0  0  0  0  0
  2  1  1  0
  3  2  1  0
  4  3  1  0
  4  5  1  0
  5  7  1  0
  5  6  1  1
  7  8  2  0
  9 10  1  0
  9  7  1  0
 11 12  1  0
 10 11  1  6
 12 13  2  0
 14 13  1  0
 15 14  1  0
 16 15  2  0
 16 12  1  0
 17 18  2  0
 17 10  1  0
 19 17  1  0
 20 24  1  0
 20 19  1  0
 20 21  1  6
 22 21  1  0
 23 22  2  0
 24 27  1  0
 25 24  2  0
 26 22  1  0
M  END
$$$$
