MHD.pdb
     RDKit          3D

 27 27  0  0  1  0  0  0  0  0999 V2000
    7.4515  -11.0633   27.0067 C   0  0  0  0  0  0  0  0  0  0  0  0
    6.9474  -12.6781   27.6254 S   0  0  0  0  0  0  0  0  0  0  0  0
    6.1950  -13.7490   26.4089 C   0  0  0  0  0  0  0  0  0  0  0  0
    7.1680  -14.4388   25.5321 C   0  0  0  0  0  0  0  0  0  0  0  0
    6.5862  -15.3284   24.4824 C   0  0  2  0  0  0  0  0  0  0  0  0
    5.8935  -16.4564   25.0798 N   0  0  0  0  0  0  0  0  0  0  0  0
    7.7622  -15.8864   23.7047 C   0  0  0  0  0  0  0  0  0  0  0  0
    7.9560  -17.1171   23.8197 O   0  0  0  0  0  0  0  0  0  0  0  0
    8.5958  -15.0898   22.8988 N   0  0  0  0  0  0  0  0  0  0  0  0
    9.5752  -15.7639   22.0145 C   0  0  1  0  0  0  0  0  0  0  0  0
    9.9224  -14.8025   20.9300 C   0  0  0  0  0  0  0  0  0  0  0  0
    8.8033  -14.4617   20.0393 C   0  0  0  0  0  0  0  0  0  0  0  0
    7.5376  -14.9431   19.9762 C   0  0  0  0  0  0  0  0  0  0  0  0
    6.8786  -14.2424   19.0191 N   0  0  0  0  0  0  0  0  0  0  0  0
    7.6998  -13.3406   18.4891 C   0  0  0  0  0  0  0  0  0  0  0  0
    8.8639  -13.4653   19.0989 N   0  0  0  0  0  0  0  0  0  0  0  0
   10.8169  -15.9540   22.8444 C   0  0  0  0  0  0  0  0  0  0  0  0
   11.8706  -15.3183   22.7042 O   0  0  0  0  0  0  0  0  0  0  0  0
   10.8526  -16.9386   23.9046 N   0  0  0  0  0  0  0  0  0  0  0  0
   12.0547  -17.2190   24.6604 C   0  0  1  0  0  0  0  0  0  0  0  0
   11.8136  -18.2545   25.7354 C   0  0  0  0  0  0  0  0  0  0  0  0
   13.0153  -18.5507   26.5243 C   0  0  0  0  0  0  0  0  0  0  0  0
   13.9758  -19.1304   25.9608 O   0  0  0  0  0  0  0  0  0  0  0  0
   13.1978  -17.5368   23.8038 C   0  0  0  0  0  0  0  0  0  0  0  0
   14.3457  -17.1094   24.0578 O   0  0  0  0  0  0  0  0  0  0  0  0
   13.1661  -18.2318   27.8634 O   0  0  0  0  0  0  0  0  0  0  0  0
   13.0315  -18.3262   22.6814 O   0  0  0  0  0  0  0  0  0  0  0  0
  2  1  1  0
  3  2  1  0
  4  3  1  0
  4  5  1  0
  5  7  1  0
  5  6  1  1
  7  8  2  0
  9 10  1  0
  9  7  1  0
 11 12  1  0
 10 11  1  6
 12 13  2  0
 14 13  1  0
 15 14  1  0
 16 15  2  0
 16 12  1  0
 17 18  2  0
 17 10  1  0
 19 17  1  0
 20 24  1  0
 20 19  1  0
 20 21  1  1
 22 21  1  0
 23 22  2  0
 24 27  1  0
 25 24  2  0
 26 22  1  0
M  END
$$$$
