MHD.pdb
     RDKit          3D

 27 27  0  0  1  0  0  0  0  0999 V2000
    6.0495  -11.4852   28.1275 C   0  0  0  0  0  0  0  0  0  0  0  0
    7.0947  -12.4520   27.0242 S   0  0  0  0  0  0  0  0  0  0  0  0
    6.3718  -12.8189   25.4318 C   0  0  0  0  0  0  0  0  0  0  0  0
    7.2618  -13.5846   24.5302 C   0  0  0  0  0  0  0  0  0  0  0  0
    6.6920  -14.8441   23.9640 C   0  0  2  0  0  0  0  0  0  0  0  0
    6.3750  -15.7929   25.0168 N   0  0  0  0  0  0  0  0  0  0  0  0
    7.7911  -15.4616   23.1214 C   0  0  0  0  0  0  0  0  0  0  0  0
    7.9097  -16.7042   23.2074 O   0  0  0  0  0  0  0  0  0  0  0  0
    8.6355  -14.7050   22.2887 N   0  0  0  0  0  0  0  0  0  0  0  0
    9.4206  -15.4128   21.2503 C   0  0  1  0  0  0  0  0  0  0  0  0
    9.7413  -14.4181   20.1878 C   0  0  0  0  0  0  0  0  0  0  0  0
    8.6612  -14.1996   19.2145 C   0  0  0  0  0  0  0  0  0  0  0  0
    7.9725  -13.0790   18.8859 C   0  0  0  0  0  0  0  0  0  0  0  0
    7.1261  -13.3986   17.8746 N   0  0  0  0  0  0  0  0  0  0  0  0
    7.2723  -14.6842   17.5672 C   0  0  0  0  0  0  0  0  0  0  0  0
    8.1970  -15.1759   18.3706 N   0  0  0  0  0  0  0  0  0  0  0  0
   10.7233  -15.7898   21.9041 C   0  0  0  0  0  0  0  0  0  0  0  0
   11.8354  -15.3524   21.5785 O   0  0  0  0  0  0  0  0  0  0  0  0
   10.7524  -16.7307   23.0034 N   0  0  0  0  0  0  0  0  0  0  0  0
   11.9907  -17.2208   23.5701 C   0  0  1  0  0  0  0  0  0  0  0  0
   12.9533  -16.0953   23.8748 C   0  0  0  0  0  0  0  0  0  0  0  0
   14.2220  -16.2147   23.1465 C   0  0  0  0  0  0  0  0  0  0  0  0
   14.3693  -17.1738   22.3500 O   0  0  0  0  0  0  0  0  0  0  0  0
   11.7748  -18.1148   24.7084 C   0  0  0  0  0  0  0  0  0  0  0  0
   12.7256  -18.7041   25.2683 O   0  0  0  0  0  0  0  0  0  0  0  0
   15.2814  -15.3325   23.2779 O   0  0  0  0  0  0  0  0  0  0  0  0
   10.4992  -18.3300   25.1954 O   0  0  0  0  0  0  0  0  0  0  0  0
  2  1  1  0
  3  2  1  0
  4  3  1  0
  4  5  1  0
  5  7  1  0
  5  6  1  1
  7  8  2  0
  9 10  1  0
  9  7  1  0
 11 12  1  0
 10 11  1  6
 12 13  2  0
 14 13  1  0
 15 14  1  0
 16 15  2  0
 16 12  1  0
 17 18  2  0
 17 10  1  0
 19 17  1  0
 20 24  1  0
 20 19  1  0
 20 21  1  1
 22 21  1  0
 23 22  2  0
 24 27  1  0
 25 24  2  0
 26 22  1  0
M  END
$$$$
