MHD.pdb
     RDKit          3D

 27 27  0  0  1  0  0  0  0  0999 V2000
    9.0716  -14.6995   14.8008 C   0  0  0  0  0  0  0  0  0  0  0  0
    7.9713  -15.0310   16.1878 S   0  0  0  0  0  0  0  0  0  0  0  0
    8.5374  -16.2999   17.3113 C   0  0  0  0  0  0  0  0  0  0  0  0
    9.8998  -16.0682   17.8418 C   0  0  0  0  0  0  0  0  0  0  0  0
   10.4700  -17.1649   18.6809 C   0  0  2  0  0  0  0  0  0  0  0  0
    9.6263  -18.3461   18.6393 N   0  0  0  0  0  0  0  0  0  0  0  0
   10.4545  -16.6539   20.1084 C   0  0  0  0  0  0  0  0  0  0  0  0
   11.3229  -15.7982   20.3896 O   0  0  0  0  0  0  0  0  0  0  0  0
    9.5317  -17.0993   21.0722 N   0  0  0  0  0  0  0  0  0  0  0  0
    9.5916  -16.5109   22.4308 C   0  0  1  0  0  0  0  0  0  0  0  0
    8.2858  -15.8352   22.6749 C   0  0  0  0  0  0  0  0  0  0  0  0
    8.0575  -14.6393   21.8507 C   0  0  0  0  0  0  0  0  0  0  0  0
    8.7995  -14.0862   20.8600 C   0  0  0  0  0  0  0  0  0  0  0  0
    8.1085  -13.0249   20.3726 N   0  0  0  0  0  0  0  0  0  0  0  0
    6.9599  -12.9062   21.0324 C   0  0  0  0  0  0  0  0  0  0  0  0
    6.9202  -13.8766   21.9264 N   0  0  0  0  0  0  0  0  0  0  0  0
    9.6655  -17.6760   23.3815 C   0  0  0  0  0  0  0  0  0  0  0  0
    9.2141  -18.8073   23.1568 O   0  0  0  0  0  0  0  0  0  0  0  0
   10.2984  -17.5340   24.6753 N   0  0  0  0  0  0  0  0  0  0  0  0
   11.2622  -18.4913   25.1748 C   0  0  1  0  0  0  0  0  0  0  0  0
   12.3468  -18.7775   24.1611 C   0  0  0  0  0  0  0  0  0  0  0  0
   13.3465  -19.7355   24.6479 C   0  0  0  0  0  0  0  0  0  0  0  0
   12.9623  -20.8776   25.0000 O   0  0  0  0  0  0  0  0  0  0  0  0
   11.7885  -18.1269   26.4908 C   0  0  0  0  0  0  0  0  0  0  0  0
   12.5385  -18.8957   27.1322 O   0  0  0  0  0  0  0  0  0  0  0  0
   14.7010  -19.4647   24.7473 O   0  0  0  0  0  0  0  0  0  0  0  0
   11.4640  -16.9101   27.0604 O   0  0  0  0  0  0  0  0  0  0  0  0
  2  1  1  0
  3  2  1  0
  4  3  1  0
  4  5  1  0
  5  7  1  0
  5  6  1  1
  7  8  2  0
  9 10  1  0
  9  7  1  0
 11 12  1  0
 10 11  1  1
 12 13  2  0
 14 13  1  0
 15 14  1  0
 16 15  2  0
 16 12  1  0
 17 18  2  0
 17 10  1  0
 19 17  1  0
 20 24  1  0
 20 19  1  0
 20 21  1  6
 22 21  1  0
 23 22  2  0
 24 27  1  0
 25 24  2  0
 26 22  1  0
M  END
$$$$
