MHD.pdb
     RDKit          3D

 27 27  0  0  1  0  0  0  0  0999 V2000
    8.4450  -11.9951   28.2688 C   0  0  0  0  0  0  0  0  0  0  0  0
    6.8746  -11.7243   27.4292 S   0  0  0  0  0  0  0  0  0  0  0  0
    6.0634  -13.2084   26.8528 C   0  0  0  0  0  0  0  0  0  0  0  0
    6.8337  -13.9570   25.8342 C   0  0  0  0  0  0  0  0  0  0  0  0
    6.1970  -15.2075   25.3215 C   0  0  2  0  0  0  0  0  0  0  0  0
    6.1314  -16.2224   26.3582 N   0  0  0  0  0  0  0  0  0  0  0  0
    7.1171  -15.7342   24.2374 C   0  0  0  0  0  0  0  0  0  0  0  0
    7.7862  -16.7482   24.5367 O   0  0  0  0  0  0  0  0  0  0  0  0
    7.2277  -15.1368   22.9686 N   0  0  0  0  0  0  0  0  0  0  0  0
    8.0132  -15.8370   21.9255 C   0  0  1  0  0  0  0  0  0  0  0  0
    7.8604  -15.0585   20.6638 C   0  0  0  0  0  0  0  0  0  0  0  0
    8.5631  -15.6328   19.5070 C   0  0  0  0  0  0  0  0  0  0  0  0
    9.8180  -16.1311   19.3854 C   0  0  0  0  0  0  0  0  0  0  0  0
    9.9518  -16.6034   18.1203 N   0  0  0  0  0  0  0  0  0  0  0  0
    8.8154  -16.4130   17.4563 C   0  0  0  0  0  0  0  0  0  0  0  0
    7.9711  -15.8279   18.2853 N   0  0  0  0  0  0  0  0  0  0  0  0
    9.4544  -15.7144   22.3432 C   0  0  0  0  0  0  0  0  0  0  0  0
   10.0190  -14.6551   22.6486 O   0  0  0  0  0  0  0  0  0  0  0  0
   10.3042  -16.8838   22.4148 N   0  0  0  0  0  0  0  0  0  0  0  0
   11.6911  -16.8089   22.8220 C   0  0  1  0  0  0  0  0  0  0  0  0
   12.1520  -18.0880   23.4836 C   0  0  0  0  0  0  0  0  0  0  0  0
   11.9382  -18.0903   24.9356 C   0  0  0  0  0  0  0  0  0  0  0  0
   12.3425  -17.1075   25.6039 O   0  0  0  0  0  0  0  0  0  0  0  0
   12.5737  -16.3727   21.7394 C   0  0  0  0  0  0  0  0  0  0  0  0
   13.6895  -15.8568   21.9714 O   0  0  0  0  0  0  0  0  0  0  0  0
   11.3138  -19.1135   25.6292 O   0  0  0  0  0  0  0  0  0  0  0  0
   12.1885  -16.5233   20.4205 O   0  0  0  0  0  0  0  0  0  0  0  0
  2  1  1  0
  3  2  1  0
  4  3  1  0
  4  5  1  0
  5  7  1  0
  5  6  1  1
  7  8  2  0
  9 10  1  0
  9  7  1  0
 11 12  1  0
 10 11  1  6
 12 13  2  0
 14 13  1  0
 15 14  1  0
 16 15  2  0
 16 12  1  0
 17 18  2  0
 17 10  1  0
 19 17  1  0
 20 24  1  0
 20 19  1  0
 20 21  1  6
 22 21  1  0
 23 22  2  0
 24 27  1  0
 25 24  2  0
 26 22  1  0
M  END
$$$$
