ADS.pdb
     RDKit          3D

 20 19  0  0  1  0  0  0  0  0999 V2000
    7.5607  -12.8152   20.8446 C   0  0  0  0  0  0  0  0  0  0  0  0
    8.0633  -14.0111   20.0828 C   0  0  2  0  0  0  0  0  0  0  0  0
    7.0102  -14.5911   19.2773 N   0  0  0  0  0  0  0  0  0  0  0  0
    8.5368  -15.0552   21.0403 C   0  0  0  0  0  0  0  0  0  0  0  0
    7.7247  -15.9522   21.4241 O   0  0  0  0  0  0  0  0  0  0  0  0
    9.8513  -15.0898   21.5396 N   0  0  0  0  0  0  0  0  0  0  0  0
   10.2633  -16.1055   22.4691 C   0  0  1  0  0  0  0  0  0  0  0  0
   11.7601  -16.2425   22.5883 C   0  0  0  0  0  0  0  0  0  0  0  0
   12.4120  -16.7215   21.3717 C   0  0  0  0  0  0  0  0  0  0  0  0
   12.0408  -17.7827   20.8276 O   0  0  0  0  0  0  0  0  0  0  0  0
    9.6141  -15.9008   23.7870 C   0  0  0  0  0  0  0  0  0  0  0  0
    9.5571  -14.7506   24.2840 O   0  0  0  0  0  0  0  0  0  0  0  0
   13.4493  -16.0180   20.7950 O   0  0  0  0  0  0  0  0  0  0  0  0
    6.3600  -17.6005   25.0481 O   0  0  0  0  0  0  0  0  0  0  0  0
    6.9357  -16.4995   25.6694 C   0  0  0  0  0  0  0  0  0  0  0  0
    8.4329  -16.6874   25.7942 C   0  0  2  0  0  0  0  0  0  0  0  0
    9.0469  -16.9724   24.5177 N   0  0  0  0  0  0  0  0  0  0  0  0
    8.7031  -17.8679   26.6801 C   0  0  0  0  0  0  0  0  0  0  0  0
    8.2086  -17.8955   27.8449 O   0  0  0  0  0  0  0  0  0  0  0  0
    9.4783  -18.9403   26.2748 O   0  0  0  0  0  0  0  0  0  0  0  0
  2  1  1  1
  2  3  1  0
  4  2  1  0
  4  5  2  0
  6  4  1  0
  7  6  1  0
  7  8  1  1
  9  8  1  0
  9 10  2  0
 11  7  1  0
 12 11  2  0
 13  9  1  0
 14 15  1  0
 16 15  1  6
 16 17  1  0
 16 18  1  0
 17 11  1  0
 18 19  2  0
 18 20  1  0
M  END
$$$$
