ADS.pdb
     RDKit          3D

 20 19  0  0  1  0  0  0  0  0999 V2000
    7.7660  -12.5030   19.6404 C   0  0  0  0  0  0  0  0  0  0  0  0
    8.4712  -13.5583   18.8328 C   0  0  2  0  0  0  0  0  0  0  0  0
    7.5970  -14.1014   17.8155 N   0  0  0  0  0  0  0  0  0  0  0  0
    8.8886  -14.6804   19.7261 C   0  0  0  0  0  0  0  0  0  0  0  0
    8.0588  -15.1349   20.5724 O   0  0  0  0  0  0  0  0  0  0  0  0
   10.1689  -15.2604   19.6717 N   0  0  0  0  0  0  0  0  0  0  0  0
   10.5023  -16.3954   20.4877 C   0  0  1  0  0  0  0  0  0  0  0  0
   11.5742  -17.2726   19.8917 C   0  0  0  0  0  0  0  0  0  0  0  0
   11.7971  -18.5183   20.6219 C   0  0  0  0  0  0  0  0  0  0  0  0
   12.0385  -18.5021   21.8472 O   0  0  0  0  0  0  0  0  0  0  0  0
   10.8352  -15.9659   21.8679 C   0  0  0  0  0  0  0  0  0  0  0  0
   11.6271  -15.0107   22.0517 O   0  0  0  0  0  0  0  0  0  0  0  0
   11.7470  -19.7388   19.9804 O   0  0  0  0  0  0  0  0  0  0  0  0
    8.3010  -16.0734   24.9569 O   0  0  0  0  0  0  0  0  0  0  0  0
    9.4422  -15.2841   24.8911 C   0  0  0  0  0  0  0  0  0  0  0  0
   10.5970  -16.0739   24.3122 C   0  0  2  0  0  0  0  0  0  0  0  0
   10.2837  -16.6038   23.0050 N   0  0  0  0  0  0  0  0  0  0  0  0
   10.8777  -17.2489   25.2021 C   0  0  0  0  0  0  0  0  0  0  0  0
   10.6304  -18.4174   24.7832 O   0  0  0  0  0  0  0  0  0  0  0  0
   11.4012  -17.1094   26.4756 O   0  0  0  0  0  0  0  0  0  0  0  0
  2  1  1  1
  2  3  1  0
  4  2  1  0
  4  5  2  0
  6  4  1  0
  7  6  1  0
  7  8  1  6
  9  8  1  0
  9 10  2  0
 11  7  1  0
 12 11  2  0
 13  9  1  0
 14 15  1  0
 16 15  1  1
 16 17  1  0
 16 18  1  0
 17 11  1  0
 18 19  2  0
 18 20  1  0
M  END
$$$$
