ADS.pdb
     RDKit          3D

 20 19  0  0  1  0  0  0  0  0999 V2000
    8.1310  -12.4635   19.2871 C   0  0  0  0  0  0  0  0  0  0  0  0
    8.6625  -13.4008   18.2373 C   0  0  2  0  0  0  0  0  0  0  0  0
    7.6188  -14.2769   17.7499 N   0  0  0  0  0  0  0  0  0  0  0  0
    9.7408  -14.2528   18.8227 C   0  0  0  0  0  0  0  0  0  0  0  0
    9.4334  -15.3795   19.3200 O   0  0  0  0  0  0  0  0  0  0  0  0
   11.0913  -13.8603   18.8480 N   0  0  0  0  0  0  0  0  0  0  0  0
   12.1249  -14.7886   19.2156 C   0  0  1  0  0  0  0  0  0  0  0  0
   13.4746  -14.4489   18.6357 C   0  0  0  0  0  0  0  0  0  0  0  0
   14.5145  -15.4306   18.9351 C   0  0  0  0  0  0  0  0  0  0  0  0
   15.6879  -15.0653   19.1577 O   0  0  0  0  0  0  0  0  0  0  0  0
   12.1756  -14.9565   20.6885 C   0  0  0  0  0  0  0  0  0  0  0  0
   12.5281  -13.9970   21.4154 O   0  0  0  0  0  0  0  0  0  0  0  0
   14.2289  -16.7797   18.9795 O   0  0  0  0  0  0  0  0  0  0  0  0
   10.2727  -16.6064   24.5978 O   0  0  0  0  0  0  0  0  0  0  0  0
   10.3145  -16.4541   23.2177 C   0  0  0  0  0  0  0  0  0  0  0  0
   11.7359  -16.2100   22.7568 C   0  0  2  0  0  0  0  0  0  0  0  0
   11.8356  -16.1792   21.3157 N   0  0  0  0  0  0  0  0  0  0  0  0
   12.6015  -17.3412   23.2287 C   0  0  0  0  0  0  0  0  0  0  0  0
   13.1296  -18.1150   22.3776 O   0  0  0  0  0  0  0  0  0  0  0  0
   12.8507  -17.5782   24.5692 O   0  0  0  0  0  0  0  0  0  0  0  0
  2  1  1  1
  2  3  1  0
  4  2  1  0
  4  5  2  0
  6  4  1  0
  7  6  1  0
  7  8  1  1
  9  8  1  0
  9 10  2  0
 11  7  1  0
 12 11  2  0
 13  9  1  0
 14 15  1  0
 16 15  1  6
 16 17  1  0
 16 18  1  0
 17 11  1  0
 18 19  2  0
 18 20  1  0
M  END
$$$$
