ADS.pdb
     RDKit          3D

 20 19  0  0  1  0  0  0  0  0999 V2000
    8.3085  -12.3029   19.1821 C   0  0  0  0  0  0  0  0  0  0  0  0
    8.9051  -13.2562   18.1829 C   0  0  2  0  0  0  0  0  0  0  0  0
    7.8700  -13.9803   17.4769 N   0  0  0  0  0  0  0  0  0  0  0  0
    9.7629  -14.2542   18.8897 C   0  0  0  0  0  0  0  0  0  0  0  0
    9.2322  -15.3200   19.3300 O   0  0  0  0  0  0  0  0  0  0  0  0
   11.1421  -14.0653   19.0909 N   0  0  0  0  0  0  0  0  0  0  0  0
   11.9432  -15.0772   19.7231 C   0  0  1  0  0  0  0  0  0  0  0  0
   13.4146  -14.9616   19.4145 C   0  0  0  0  0  0  0  0  0  0  0  0
   13.7469  -15.1869   18.0097 C   0  0  0  0  0  0  0  0  0  0  0  0
   13.3288  -16.2011   17.4127 O   0  0  0  0  0  0  0  0  0  0  0  0
   11.6795  -15.1152   21.1822 C   0  0  0  0  0  0  0  0  0  0  0  0
   12.1062  -14.1942   21.9190 O   0  0  0  0  0  0  0  0  0  0  0  0
   14.5272  -14.2900   17.3096 O   0  0  0  0  0  0  0  0  0  0  0  0
    8.3911  -15.4822   22.7320 O   0  0  0  0  0  0  0  0  0  0  0  0
    9.1877  -16.3417   23.4777 C   0  0  0  0  0  0  0  0  0  0  0  0
   10.6523  -16.0810   23.1960 C   0  0  2  0  0  0  0  0  0  0  0  0
   10.9521  -16.1694   21.7853 N   0  0  0  0  0  0  0  0  0  0  0  0
   11.4745  -17.1320   23.8821 C   0  0  0  0  0  0  0  0  0  0  0  0
   11.4005  -17.2545   25.1397 O   0  0  0  0  0  0  0  0  0  0  0  0
   12.3199  -17.9832   23.1922 O   0  0  0  0  0  0  0  0  0  0  0  0
  2  1  1  1
  2  3  1  0
  4  2  1  0
  4  5  2  0
  6  4  1  0
  7  6  1  0
  7  8  1  1
  9  8  1  0
  9 10  2  0
 11  7  1  0
 12 11  2  0
 13  9  1  0
 14 15  1  0
 16 15  1  6
 16 17  1  0
 16 18  1  0
 17 11  1  0
 18 19  2  0
 18 20  1  0
M  END
$$$$
