ADS.pdb
     RDKit          3D

 20 19  0  0  1  0  0  0  0  0999 V2000
   -1.3450  -26.7657   28.1821 C   0  0  0  0  0  0  0  0  0  0  0  0
   -1.8467  -25.8056   29.2259 C   0  0  2  0  0  0  0  0  0  0  0  0
   -1.3618  -26.1702   30.5398 N   0  0  0  0  0  0  0  0  0  0  0  0
   -3.3397  -25.8372   29.2627 C   0  0  0  0  0  0  0  0  0  0  0  0
   -3.9893  -25.4168   28.2564 O   0  0  0  0  0  0  0  0  0  0  0  0
   -4.0637  -26.3151   30.3699 N   0  0  0  0  0  0  0  0  0  0  0  0
   -5.5003  -26.2789   30.3862 C   0  0  1  0  0  0  0  0  0  0  0  0
   -6.1212  -27.3623   31.2312 C   0  0  0  0  0  0  0  0  0  0  0  0
   -5.9850  -28.7047   30.6710 C   0  0  0  0  0  0  0  0  0  0  0  0
   -5.2475  -29.5503   31.2197 O   0  0  0  0  0  0  0  0  0  0  0  0
   -5.9838  -24.9287   30.7649 C   0  0  0  0  0  0  0  0  0  0  0  0
   -5.5943  -24.4023   31.8347 O   0  0  0  0  0  0  0  0  0  0  0  0
   -6.6638  -29.0716   29.5273 O   0  0  0  0  0  0  0  0  0  0  0  0
   -5.4149  -21.7410   29.2350 O   0  0  0  0  0  0  0  0  0  0  0  0
   -6.7994  -21.8425   29.2826 C   0  0  0  0  0  0  0  0  0  0  0  0
   -7.2187  -22.8471   30.3349 C   0  0  2  0  0  0  0  0  0  0  0  0
   -6.8834  -24.1991   29.9510 N   0  0  0  0  0  0  0  0  0  0  0  0
   -8.7103  -22.7961   30.4895 C   0  0  0  0  0  0  0  0  0  0  0  0
   -9.2532  -21.7386   30.9242 O   0  0  0  0  0  0  0  0  0  0  0  0
   -9.5280  -23.8671   30.1740 O   0  0  0  0  0  0  0  0  0  0  0  0
  2  1  1  6
  2  3  1  0
  4  2  1  0
  4  5  2  0
  6  4  1  0
  7  6  1  0
  7  8  1  1
  9  8  1  0
  9 10  2  0
 11  7  1  0
 12 11  2  0
 13  9  1  0
 14 15  1  0
 16 15  1  6
 16 17  1  0
 16 18  1  0
 17 11  1  0
 18 19  2  0
 18 20  1  0
M  END
$$$$
