ADS.pdb
     RDKit          3D

 20 19  0  0  1  0  0  0  0  0999 V2000
    9.0868  -19.9221   18.3816 C   0  0  0  0  0  0  0  0  0  0  0  0
    9.1161  -18.5897   19.0794 C   0  0  2  0  0  0  0  0  0  0  0  0
    9.2162  -17.5075   18.1239 N   0  0  0  0  0  0  0  0  0  0  0  0
   10.3062  -18.5189   19.9793 C   0  0  0  0  0  0  0  0  0  0  0  0
   10.3565  -19.2793   20.9946 O   0  0  0  0  0  0  0  0  0  0  0  0
   11.3817  -17.6415   19.7512 N   0  0  0  0  0  0  0  0  0  0  0  0
   12.4830  -17.5659   20.6714 C   0  0  1  0  0  0  0  0  0  0  0  0
   13.7963  -17.2254   20.0135 C   0  0  0  0  0  0  0  0  0  0  0  0
   14.4347  -18.3545   19.3410 C   0  0  0  0  0  0  0  0  0  0  0  0
   14.5763  -19.4470   19.9295 O   0  0  0  0  0  0  0  0  0  0  0  0
   12.1645  -16.6474   21.7917 C   0  0  0  0  0  0  0  0  0  0  0  0
   12.0617  -15.4153   21.5803 O   0  0  0  0  0  0  0  0  0  0  0  0
   14.8953  -18.2440   18.0452 O   0  0  0  0  0  0  0  0  0  0  0  0
    9.1766  -16.5680   23.9124 O   0  0  0  0  0  0  0  0  0  0  0  0
   10.1634  -15.5992   23.7805 C   0  0  0  0  0  0  0  0  0  0  0  0
   11.5206  -16.1795   24.1176 C   0  0  2  0  0  0  0  0  0  0  0  0
   11.9689  -17.1164   23.1131 N   0  0  0  0  0  0  0  0  0  0  0  0
   11.4182  -16.9401   25.4069 C   0  0  0  0  0  0  0  0  0  0  0  0
   11.0550  -16.3345   26.4573 O   0  0  0  0  0  0  0  0  0  0  0  0
   11.7068  -18.2905   25.4991 O   0  0  0  0  0  0  0  0  0  0  0  0
  2  1  1  6
  2  3  1  0
  4  2  1  0
  4  5  2  0
  6  4  1  0
  7  6  1  0
  7  8  1  6
  9  8  1  0
  9 10  2  0
 11  7  1  0
 12 11  2  0
 13  9  1  0
 14 15  1  0
 16 15  1  6
 16 17  1  0
 16 18  1  0
 17 11  1  0
 18 19  2  0
 18 20  1  0
M  END
$$$$
