ADS.pdb
     RDKit          3D

 20 19  0  0  1  0  0  0  0  0999 V2000
    6.7286  -13.5994   18.4358 C   0  0  0  0  0  0  0  0  0  0  0  0
    8.1719  -13.1856   18.5307 C   0  0  2  0  0  0  0  0  0  0  0  0
    8.7360  -12.9713   17.2154 N   0  0  0  0  0  0  0  0  0  0  0  0
    8.9615  -14.2634   19.1987 C   0  0  0  0  0  0  0  0  0  0  0  0
    8.5853  -14.6886   20.3341 O   0  0  0  0  0  0  0  0  0  0  0  0
   10.1115  -14.8326   18.6225 N   0  0  0  0  0  0  0  0  0  0  0  0
   10.8544  -15.8542   19.3080 C   0  0  1  0  0  0  0  0  0  0  0  0
   12.0913  -16.2987   18.5693 C   0  0  0  0  0  0  0  0  0  0  0  0
   12.7623  -17.4485   19.1713 C   0  0  0  0  0  0  0  0  0  0  0  0
   13.4053  -17.3238   20.2347 O   0  0  0  0  0  0  0  0  0  0  0  0
   11.1543  -15.4363   20.6993 C   0  0  0  0  0  0  0  0  0  0  0  0
   11.7542  -14.3556   20.9121 O   0  0  0  0  0  0  0  0  0  0  0  0
   12.7035  -18.6956   18.5839 O   0  0  0  0  0  0  0  0  0  0  0  0
    8.6980  -15.9272   23.7025 O   0  0  0  0  0  0  0  0  0  0  0  0
    9.7591  -15.0307   23.6952 C   0  0  0  0  0  0  0  0  0  0  0  0
   11.0034  -15.6907   23.1397 C   0  0  2  0  0  0  0  0  0  0  0  0
   10.7829  -16.2243   21.8152 N   0  0  0  0  0  0  0  0  0  0  0  0
   11.3740  -16.8486   24.0191 C   0  0  0  0  0  0  0  0  0  0  0  0
   11.2958  -18.0257   23.5605 O   0  0  0  0  0  0  0  0  0  0  0  0
   11.8024  -16.6840   25.3246 O   0  0  0  0  0  0  0  0  0  0  0  0
  2  1  1  6
  2  3  1  0
  4  2  1  0
  4  5  2  0
  6  4  1  0
  7  6  1  0
  7  8  1  6
  9  8  1  0
  9 10  2  0
 11  7  1  0
 12 11  2  0
 13  9  1  0
 14 15  1  0
 16 15  1  1
 16 17  1  0
 16 18  1  0
 17 11  1  0
 18 19  2  0
 18 20  1  0
M  END
$$$$
