ADS.pdb
     RDKit          3D

 20 19  0  0  1  0  0  0  0  0999 V2000
    8.1860  -14.7677   17.2474 C   0  0  0  0  0  0  0  0  0  0  0  0
    8.9889  -13.9709   18.2391 C   0  0  2  0  0  0  0  0  0  0  0  0
    9.5173  -12.7691   17.6303 N   0  0  0  0  0  0  0  0  0  0  0  0
   10.1434  -14.7861   18.7228 C   0  0  0  0  0  0  0  0  0  0  0  0
    9.9231  -15.9383   19.2080 O   0  0  0  0  0  0  0  0  0  0  0  0
   11.4733  -14.3316   18.6647 N   0  0  0  0  0  0  0  0  0  0  0  0
   12.5555  -15.1472   19.1431 C   0  0  1  0  0  0  0  0  0  0  0  0
   13.8715  -14.8612   18.4650 C   0  0  0  0  0  0  0  0  0  0  0  0
   13.9453  -15.3371   17.0856 C   0  0  0  0  0  0  0  0  0  0  0  0
   13.3920  -16.4059   16.7518 O   0  0  0  0  0  0  0  0  0  0  0  0
   12.6583  -15.0633   20.6204 C   0  0  0  0  0  0  0  0  0  0  0  0
   13.3317  -14.1468   21.1494 O   0  0  0  0  0  0  0  0  0  0  0  0
   14.6244  -14.6220   16.1207 O   0  0  0  0  0  0  0  0  0  0  0  0
    9.8491  -16.5602   23.0985 O   0  0  0  0  0  0  0  0  0  0  0  0
   10.7356  -15.5771   23.5195 C   0  0  0  0  0  0  0  0  0  0  0  0
   12.0994  -15.7961   22.8994 C   0  0  2  0  0  0  0  0  0  0  0  0
   12.0145  -15.9942   21.4707 N   0  0  0  0  0  0  0  0  0  0  0  0
   12.7018  -17.0433   23.4765 C   0  0  0  0  0  0  0  0  0  0  0  0
   12.8714  -18.0524   22.7316 O   0  0  0  0  0  0  0  0  0  0  0  0
   13.0846  -17.1396   24.8029 O   0  0  0  0  0  0  0  0  0  0  0  0
  2  1  1  6
  2  3  1  0
  4  2  1  0
  4  5  2  0
  6  4  1  0
  7  6  1  0
  7  8  1  6
  9  8  1  0
  9 10  2  0
 11  7  1  0
 12 11  2  0
 13  9  1  0
 14 15  1  0
 16 15  1  1
 16 17  1  0
 16 18  1  0
 17 11  1  0
 18 19  2  0
 18 20  1  0
M  END
$$$$
