QPA.pdb
     RDKit          3D

 22 22  0  0  1  0  0  0  0  0999 V2000
   15.7263  -10.5227  -17.3367 N   0  0  0  0  0  0  0  0  0  0  0  0
   14.6619   -9.9009  -16.5972 C   0  0  0  0  0  0  0  0  0  0  0  0
   14.4648   -8.6687  -16.7765 O   0  0  0  0  0  0  0  0  0  0  0  0
   13.8416  -10.6881  -15.6686 C   0  0  0  0  0  0  0  0  0  0  0  0
   14.1085  -10.2133  -14.2628 C   0  0  0  0  0  0  0  0  0  0  0  0
   15.4047  -10.7576  -13.7016 C   0  0  2  0  0  0  0  0  0  0  0  0
   15.1815  -12.1671  -13.3173 N   0  0  0  0  0  0  0  0  0  0  0  0
   15.9156  -10.0372  -12.5367 C   0  0  0  0  0  0  0  0  0  0  0  0
   15.5809  -10.4478  -11.3655 O   0  0  0  0  0  0  0  0  0  0  0  0
   16.7656   -8.9061  -12.6350 N   0  0  0  0  0  0  0  0  0  0  0  0
   17.3041   -8.4163  -13.8858 C   0  0  0  0  0  0  0  0  0  0  0  0
   18.5969   -7.7074  -13.4725 C   0  0  0  0  0  0  0  0  0  0  0  0
   18.1774   -7.1121  -12.1697 C   0  0  0  0  0  0  0  0  0  0  0  0
   17.2376   -8.0834  -11.5728 C   0  0  1  0  0  0  0  0  0  0  0  0
   16.1391   -7.4461  -10.7987 C   0  0  0  0  0  0  0  0  0  0  0  0
   15.1231   -7.0740  -11.4343 O   0  0  0  0  0  0  0  0  0  0  0  0
   15.4127   -6.8531   -7.1788 C   0  0  0  0  0  0  0  0  0  0  0  0
   15.0902   -6.6183   -8.6605 C   0  0  2  0  0  0  0  0  0  0  0  0
   16.1686   -7.2357   -9.4039 N   0  0  0  0  0  0  0  0  0  0  0  0
   14.9969   -5.1726   -8.8936 C   0  0  0  0  0  0  0  0  0  0  0  0
   15.9390   -4.5713   -9.4616 O   0  0  0  0  0  0  0  0  0  0  0  0
   13.8781   -4.4624   -8.4929 O   0  0  0  0  0  0  0  0  0  0  0  0
  2  4  1  0
  2  1  1  0
  3  2  2  0
  5  6  1  0
  5  4  1  0
  6  7  1  1
  8  6  1  0
  8 10  1  0
  9  8  2  0
 10 14  1  0
 11 12  1  0
 11 10  1  0
 12 13  1  0
 13 14  1  0
 14 15  1  6
 15 19  1  0
 16 15  2  0
 18 20  1  0
 18 17  1  1
 19 18  1  0
 20 22  1  0
 21 20  2  0
M  END
$$$$
