QPA.pdb
     RDKit          3D

 22 22  0  0  1  0  0  0  0  0999 V2000
   23.9868  -19.3033  -18.7972 N   0  0  0  0  0  0  0  0  0  0  0  0
   23.2537  -18.1744  -19.3021 C   0  0  0  0  0  0  0  0  0  0  0  0
   23.8641  -17.3670  -20.0535 O   0  0  0  0  0  0  0  0  0  0  0  0
   21.8428  -17.9830  -18.9451 C   0  0  0  0  0  0  0  0  0  0  0  0
   21.6968  -16.6619  -18.2335 C   0  0  0  0  0  0  0  0  0  0  0  0
   21.9502  -16.7722  -16.7453 C   0  0  2  0  0  0  0  0  0  0  0  0
   20.8580  -17.5723  -16.1526 N   0  0  0  0  0  0  0  0  0  0  0  0
   22.0191  -15.4928  -16.0415 C   0  0  0  0  0  0  0  0  0  0  0  0
   20.9266  -14.9681  -15.6132 O   0  0  0  0  0  0  0  0  0  0  0  0
   23.2346  -14.8012  -15.8056 N   0  0  0  0  0  0  0  0  0  0  0  0
   24.5389  -15.3485  -16.1118 C   0  0  0  0  0  0  0  0  0  0  0  0
   25.4725  -14.6346  -15.1304 C   0  0  0  0  0  0  0  0  0  0  0  0
   24.8500  -13.2784  -15.0985 C   0  0  0  0  0  0  0  0  0  0  0  0
   23.3968  -13.5045  -15.2398 C   0  0  1  0  0  0  0  0  0  0  0  0
   22.7044  -12.4409  -16.0154 C   0  0  0  0  0  0  0  0  0  0  0  0
   22.7138  -12.5373  -17.2666 O   0  0  0  0  0  0  0  0  0  0  0  0
   20.3837   -9.6448  -15.2114 C   0  0  0  0  0  0  0  0  0  0  0  0
   21.3363  -10.3309  -16.1995 C   0  0  2  0  0  0  0  0  0  0  0  0
   22.0423  -11.3382  -15.4354 N   0  0  0  0  0  0  0  0  0  0  0  0
   22.2335   -9.3158  -16.7631 C   0  0  0  0  0  0  0  0  0  0  0  0
   23.4420   -9.2987  -16.4301 O   0  0  0  0  0  0  0  0  0  0  0  0
   21.7604   -8.3739  -17.6608 O   0  0  0  0  0  0  0  0  0  0  0  0
  2  4  1  0
  2  1  1  0
  3  2  2  0
  5  6  1  0
  5  4  1  0
  6  7  1  1
  8  6  1  0
  8 10  1  0
  9  8  2  0
 10 14  1  0
 11 12  1  0
 11 10  1  0
 12 13  1  0
 13 14  1  0
 14 15  1  6
 15 19  1  0
 16 15  2  0
 18 20  1  0
 18 17  1  1
 19 18  1  0
 20 22  1  0
 21 20  2  0
M  END
$$$$
