QPA.pdb
     RDKit          3D

 22 22  0  0  1  0  0  0  0  0999 V2000
   15.6359   -8.1078  -18.6530 N   0  0  0  0  0  0  0  0  0  0  0  0
   15.2438   -9.3780  -18.1057 C   0  0  0  0  0  0  0  0  0  0  0  0
   14.0131   -9.5853  -17.9277 O   0  0  0  0  0  0  0  0  0  0  0  0
   16.2545  -10.3885  -17.7711 C   0  0  0  0  0  0  0  0  0  0  0  0
   17.6078   -9.8831  -18.2024 C   0  0  0  0  0  0  0  0  0  0  0  0
   18.7401  -10.7549  -17.7035 C   0  0  2  0  0  0  0  0  0  0  0  0
   18.1582  -11.8326  -16.8763 N   0  0  0  0  0  0  0  0  0  0  0  0
   19.7450  -10.0534  -16.9067 C   0  0  0  0  0  0  0  0  0  0  0  0
   19.5873   -9.9956  -15.6323 O   0  0  0  0  0  0  0  0  0  0  0  0
   20.8890   -9.4336  -17.4712 N   0  0  0  0  0  0  0  0  0  0  0  0
   21.2606   -9.5578  -18.8644 C   0  0  0  0  0  0  0  0  0  0  0  0
   22.7775   -9.3489  -18.8562 C   0  0  0  0  0  0  0  0  0  0  0  0
   22.9043   -8.3096  -17.7926 C   0  0  0  0  0  0  0  0  0  0  0  0
   21.8494   -8.6197  -16.8056 C   0  0  1  0  0  0  0  0  0  0  0  0
   21.2521   -7.4113  -16.1772 C   0  0  0  0  0  0  0  0  0  0  0  0
   20.2412   -6.9119  -16.7279 O   0  0  0  0  0  0  0  0  0  0  0  0
   21.6076   -5.6269  -12.9392 C   0  0  0  0  0  0  0  0  0  0  0  0
   21.1584   -5.6188  -14.4064 C   0  0  2  0  0  0  0  0  0  0  0  0
   21.7484   -6.7962  -15.0084 N   0  0  0  0  0  0  0  0  0  0  0  0
   21.6205   -4.3728  -15.0284 C   0  0  0  0  0  0  0  0  0  0  0  0
   21.0816   -3.2844  -14.7178 O   0  0  0  0  0  0  0  0  0  0  0  0
   22.6475   -4.3844  -15.9569 O   0  0  0  0  0  0  0  0  0  0  0  0
  2  4  1  0
  2  1  1  0
  3  2  2  0
  5  6  1  0
  5  4  1  0
  6  7  1  1
  8  6  1  0
  8 10  1  0
  9  8  2  0
 10 14  1  0
 11 12  1  0
 11 10  1  0
 12 13  1  0
 13 14  1  0
 14 15  1  6
 15 19  1  0
 16 15  2  0
 18 20  1  0
 18 17  1  1
 19 18  1  0
 20 22  1  0
 21 20  2  0
M  END
$$$$
