QPA.pdb
     RDKit          3D

 22 22  0  0  1  0  0  0  0  0999 V2000
   22.4966  -17.1473  -17.4214 N   0  0  0  0  0  0  0  0  0  0  0  0
   23.5462  -16.7938  -16.5048 C   0  0  0  0  0  0  0  0  0  0  0  0
   23.4654  -15.6788  -15.9222 O   0  0  0  0  0  0  0  0  0  0  0  0
   24.6670  -17.7113  -16.2667 C   0  0  0  0  0  0  0  0  0  0  0  0
   24.4042  -19.0003  -17.0033 C   0  0  0  0  0  0  0  0  0  0  0  0
   25.5008  -20.0227  -16.7951 C   0  0  2  0  0  0  0  0  0  0  0  0
   25.1887  -21.2048  -17.6254 N   0  0  0  0  0  0  0  0  0  0  0  0
   25.6703  -20.4626  -15.4114 C   0  0  0  0  0  0  0  0  0  0  0  0
   24.7377  -21.1633  -14.8713 O   0  0  0  0  0  0  0  0  0  0  0  0
   26.8162  -20.1555  -14.6341 N   0  0  0  0  0  0  0  0  0  0  0  0
   27.9204  -19.3553  -15.1185 C   0  0  0  0  0  0  0  0  0  0  0  0
   29.1132  -19.8426  -14.2913 C   0  0  0  0  0  0  0  0  0  0  0  0
   28.4516  -20.0877  -12.9761 C   0  0  0  0  0  0  0  0  0  0  0  0
   27.0909  -20.5650  -13.2982 C   0  0  1  0  0  0  0  0  0  0  0  0
   26.0589  -20.1125  -12.3275 C   0  0  0  0  0  0  0  0  0  0  0  0
   25.4446  -19.0499  -12.5886 O   0  0  0  0  0  0  0  0  0  0  0  0
   23.3708  -20.5682  -10.9205 C   0  0  0  0  0  0  0  0  0  0  0  0
   24.7136  -20.3558  -10.2089 C   0  0  2  0  0  0  0  0  0  0  0  0
   25.7304  -20.7994  -11.1396 N   0  0  0  0  0  0  0  0  0  0  0  0
   24.7089  -21.1318   -8.9635 C   0  0  0  0  0  0  0  0  0  0  0  0
   25.4632  -22.1262   -8.8464 O   0  0  0  0  0  0  0  0  0  0  0  0
   23.8792  -20.7781   -7.9130 O   0  0  0  0  0  0  0  0  0  0  0  0
  2  4  1  0
  2  1  1  0
  3  2  2  0
  5  6  1  0
  5  4  1  0
  6  7  1  6
  8  6  1  0
  8 10  1  0
  9  8  2  0
 10 14  1  0
 11 12  1  0
 11 10  1  0
 12 13  1  0
 13 14  1  0
 14 15  1  1
 15 19  1  0
 16 15  2  0
 18 20  1  0
 18 17  1  6
 19 18  1  0
 20 22  1  0
 21 20  2  0
M  END
$$$$
