RTF.pdb
     RDKit          3D

 30 30  0  0  1  0  0  0  0  0999 V2000
   10.4927  -14.2387   17.6514 N   0  0  0  0  0  0  0  0  0  0  0  0
   10.7647  -13.4696   18.8034 C   0  0  0  0  0  0  0  0  0  0  0  0
   11.9016  -13.6450   19.4267 N   0  0  0  0  0  0  0  0  0  0  0  0
    9.8680  -12.5019   19.3517 N   0  0  0  0  0  0  0  0  0  0  0  0
    8.4690  -12.5171   19.0996 C   0  0  0  0  0  0  0  0  0  0  0  0
    7.8486  -13.8866   19.1848 C   0  0  0  0  0  0  0  0  0  0  0  0
    7.5313  -14.3184   20.6048 C   0  0  0  0  0  0  0  0  0  0  0  0
    7.7075  -15.8273   20.6630 C   0  0  2  0  0  0  0  0  0  0  0  0
    6.5816  -16.3645   19.8915 N   0  0  0  0  0  0  0  0  0  0  0  0
    7.7073  -16.3502   22.0407 C   0  0  0  0  0  0  0  0  0  0  0  0
    6.6394  -16.6797   22.6410 O   0  0  0  0  0  0  0  0  0  0  0  0
   12.0349  -13.1459   20.3378 C   0  0  0  0  0  0  0  0  0  0  0  0
    8.7139  -19.3534   23.0770 C   0  0  2  0  0  0  0  0  0  0  0  0
    9.5530  -18.5059   24.0266 O   0  0  0  0  0  0  0  0  0  0  0  0
   10.8884  -18.5700   23.6248 C   0  0  2  0  0  0  0  0  0  0  0  0
    8.9893  -17.1231   24.0236 N   0  0  0  0  0  0  0  0  0  0  0  0
    8.9412  -16.4932   22.7236 C   0  0  0  0  0  0  0  0  0  0  0  0
    9.5746  -16.2366   25.0564 O   0  0  0  0  0  0  0  0  0  0  0  0
   10.5398  -15.4998   24.6293 N   0  0  0  0  0  0  0  0  0  0  0  0
    9.1957  -16.1255   26.3897 C   0  0  1  0  0  0  0  0  0  0  0  0
    9.8949  -15.3531   27.4108 C   0  0  0  0  0  0  0  0  0  0  0  0
    8.7560  -14.6374   28.1687 C   0  0  0  0  0  0  0  0  0  0  0  0
    8.0368  -13.6554   27.3573 C   0  0  0  0  0  0  0  0  0  0  0  0
    6.7864  -13.9379   26.8746 C   0  0  0  0  0  0  0  0  0  0  0  0
    6.1123  -13.0031   26.1294 C   0  0  0  0  0  0  0  0  0  0  0  0
    6.6811  -11.7780   25.8595 C   0  0  0  0  0  0  0  0  0  0  0  0
    7.9602  -11.4815   26.3476 C   0  0  0  0  0  0  0  0  0  0  0  0
    8.6173  -12.4239   27.0878 C   0  0  0  0  0  0  0  0  0  0  0  0
   10.6336  -16.1737   28.3478 O   0  0  0  0  0  0  0  0  0  0  0  0
   11.5148  -15.5713   29.2772 O   0  0  0  0  0  0  0  0  0  0  0  0
  2  1  1  0
  3  2  2  0
  4  2  1  0
  5  4  1  0
  6  5  1  0
  7  6  1  0
  8  7  1  0
  8  9  1  6
 10  8  1  0
 10 11  2  0
 13 12  1  1
 13 15  1  0
 13 14  1  0
 15 16  1  1
 16 10  1  0
 17 15  1  0
 18 17  2  0
 19 17  1  0
 20 28  1  0
 20 19  1  0
 20 21  1  1
 22 21  1  0
 22 23  2  0
 24 23  1  0
 25 24  2  0
 26 27  2  0
 26 25  1  0
 27 22  1  0
 28 29  1  0
 30 28  2  0
M  END
$$$$
