RTF.pdb
     RDKit          3D

 30 30  0  0  1  0  0  0  0  0999 V2000
    9.2353  -13.5337   19.7701 N   0  0  0  0  0  0  0  0  0  0  0  0
    8.4644  -13.1246   18.6607 C   0  0  0  0  0  0  0  0  0  0  0  0
    8.4992  -11.8687   18.2952 N   0  0  0  0  0  0  0  0  0  0  0  0
    7.6277  -13.9976   17.8999 N   0  0  0  0  0  0  0  0  0  0  0  0
    8.0610  -15.2689   17.4341 C   0  0  0  0  0  0  0  0  0  0  0  0
    8.6574  -16.1409   18.5072 C   0  0  0  0  0  0  0  0  0  0  0  0
    7.6454  -16.6084   19.5370 C   0  0  0  0  0  0  0  0  0  0  0  0
    8.3954  -17.4662   20.5434 C   0  0  2  0  0  0  0  0  0  0  0  0
    8.3532  -18.8213   19.9836 N   0  0  0  0  0  0  0  0  0  0  0  0
    7.7952  -17.4263   21.8885 C   0  0  0  0  0  0  0  0  0  0  0  0
    6.6004  -17.7915   22.1092 O   0  0  0  0  0  0  0  0  0  0  0  0
    7.8549  -11.5719   17.5248 C   0  0  0  0  0  0  0  0  0  0  0  0
    6.5863  -18.9101   23.6482 C   0  0  2  0  0  0  0  0  0  0  0  0
    7.6467  -18.5143   24.6696 O   0  0  0  0  0  0  0  0  0  0  0  0
    8.6651  -19.4689   24.6525 C   0  0  2  0  0  0  0  0  0  0  0  0
    8.1095  -17.1344   24.3357 N   0  0  0  0  0  0  0  0  0  0  0  0
    8.5759  -16.9655   22.9781 C   0  0  0  0  0  0  0  0  0  0  0  0
    9.0494  -16.5626   25.3281 O   0  0  0  0  0  0  0  0  0  0  0  0
   10.2776  -16.5542   24.9431 N   0  0  0  0  0  0  0  0  0  0  0  0
    8.7452  -16.0515   26.5850 C   0  0  1  0  0  0  0  0  0  0  0  0
    9.7049  -15.4916   27.5303 C   0  0  0  0  0  0  0  0  0  0  0  0
    8.8770  -14.4524   28.3166 C   0  0  0  0  0  0  0  0  0  0  0  0
    8.1796  -13.4901   27.4637 C   0  0  0  0  0  0  0  0  0  0  0  0
    8.8742  -12.4921   26.8332 C   0  0  0  0  0  0  0  0  0  0  0  0
    8.2135  -11.6050   26.0207 C   0  0  0  0  0  0  0  0  0  0  0  0
    6.8530  -11.7068   25.8308 C   0  0  0  0  0  0  0  0  0  0  0  0
    6.1345  -12.7232   26.4732 C   0  0  0  0  0  0  0  0  0  0  0  0
    6.8082  -13.5978   27.2789 C   0  0  0  0  0  0  0  0  0  0  0  0
   10.2319  -16.4676   28.4614 O   0  0  0  0  0  0  0  0  0  0  0  0
   11.3245  -16.1336   29.2967 O   0  0  0  0  0  0  0  0  0  0  0  0
  2  1  1  0
  3  2  2  0
  4  2  1  0
  5  4  1  0
  6  5  1  0
  7  6  1  0
  8  7  1  0
  8  9  1  6
 10  8  1  0
 10 11  2  0
 13 12  1  1
 13 15  1  0
 13 14  1  0
 15 16  1  1
 16 10  1  0
 17 15  1  0
 18 17  2  0
 19 17  1  0
 20 28  1  0
 20 19  1  0
 20 21  1  1
 22 21  1  0
 22 23  2  0
 24 23  1  0
 25 24  2  0
 26 27  2  0
 26 25  1  0
 27 22  1  0
 28 29  1  0
 30 28  2  0
M  END
$$$$
