RTF.pdb
     RDKit          3D

 30 30  0  0  1  0  0  0  0  0999 V2000
    8.3691  -13.0567   16.1672 N   0  0  0  0  0  0  0  0  0  0  0  0
    8.4495  -12.6556   17.5181 C   0  0  0  0  0  0  0  0  0  0  0  0
    8.9436  -11.4772   17.7995 N   0  0  0  0  0  0  0  0  0  0  0  0
    8.0298  -13.4620   18.6203 N   0  0  0  0  0  0  0  0  0  0  0  0
    7.5357  -14.7857   18.4633 C   0  0  0  0  0  0  0  0  0  0  0  0
    7.0908  -15.4274   19.7509 C   0  0  0  0  0  0  0  0  0  0  0  0
    8.0742  -15.2380   20.8912 C   0  0  0  0  0  0  0  0  0  0  0  0
    8.6179  -16.6128   21.2456 C   0  0  2  0  0  0  0  0  0  0  0  0
    7.8692  -17.5415   20.3922 N   0  0  0  0  0  0  0  0  0  0  0  0
    8.4484  -16.9445   22.6713 C   0  0  0  0  0  0  0  0  0  0  0  0
    7.3060  -17.0336   23.2159 O   0  0  0  0  0  0  0  0  0  0  0  0
    9.0390  -11.2225   18.8109 C   0  0  0  0  0  0  0  0  0  0  0  0
    9.5306  -19.9362   24.3505 C   0  0  2  0  0  0  0  0  0  0  0  0
   10.1309  -18.8374   25.2201 O   0  0  0  0  0  0  0  0  0  0  0  0
   11.5148  -18.8257   25.0373 C   0  0  2  0  0  0  0  0  0  0  0  0
    9.4647  -17.5516   24.8556 N   0  0  0  0  0  0  0  0  0  0  0  0
    9.5988  -17.1742   23.4669 C   0  0  0  0  0  0  0  0  0  0  0  0
    9.7802  -16.4333   25.7749 O   0  0  0  0  0  0  0  0  0  0  0  0
   10.5282  -15.5231   25.2564 N   0  0  0  0  0  0  0  0  0  0  0  0
    9.3607  -16.2761   27.0914 C   0  0  1  0  0  0  0  0  0  0  0  0
    9.8886  -15.3032   28.0416 C   0  0  0  0  0  0  0  0  0  0  0  0
    8.6278  -14.5737   28.5534 C   0  0  0  0  0  0  0  0  0  0  0  0
    7.9741  -13.7480   27.5382 C   0  0  0  0  0  0  0  0  0  0  0  0
    8.4209  -12.4782   27.2848 C   0  0  0  0  0  0  0  0  0  0  0  0
    7.8124  -11.7179   26.3178 C   0  0  0  0  0  0  0  0  0  0  0  0
    6.7521  -12.2190   25.5953 C   0  0  0  0  0  0  0  0  0  0  0  0
    6.2875  -13.5158   25.8492 C   0  0  0  0  0  0  0  0  0  0  0  0
    6.9049  -14.2591   26.8157 C   0  0  0  0  0  0  0  0  0  0  0  0
   10.5657  -15.9090   29.1692 O   0  0  0  0  0  0  0  0  0  0  0  0
   10.6155  -17.3179   29.2937 O   0  0  0  0  0  0  0  0  0  0  0  0
  2  1  1  0
  3  2  2  0
  4  2  1  0
  5  4  1  0
  6  5  1  0
  7  6  1  0
  8  7  1  0
  8  9  1  6
 10  8  1  0
 10 11  2  0
 13 12  1  1
 13 15  1  0
 13 14  1  0
 15 16  1  1
 16 10  1  0
 17 15  1  0
 18 17  2  0
 19 17  1  0
 20 28  1  0
 20 19  1  0
 20 21  1  1
 22 21  1  0
 22 23  2  0
 24 23  1  0
 25 24  2  0
 26 27  2  0
 26 25  1  0
 27 22  1  0
 28 29  1  0
 30 28  2  0
M  END
$$$$
