RTF.pdb
     RDKit          3D

 30 30  0  0  1  0  0  0  0  0999 V2000
    7.1587  -14.6337   17.1373 N   0  0  0  0  0  0  0  0  0  0  0  0
    7.6450  -13.3114   17.0506 C   0  0  0  0  0  0  0  0  0  0  0  0
    7.9978  -12.8430   15.8810 N   0  0  0  0  0  0  0  0  0  0  0  0
    7.7898  -12.4352   18.1697 N   0  0  0  0  0  0  0  0  0  0  0  0
    7.5483  -12.8480   19.5085 C   0  0  0  0  0  0  0  0  0  0  0  0
    8.4816  -13.9263   19.9921 C   0  0  0  0  0  0  0  0  0  0  0  0
    7.8796  -15.3181   19.9305 C   0  0  0  0  0  0  0  0  0  0  0  0
    8.9210  -16.2802   20.4791 C   0  0  2  0  0  0  0  0  0  0  0  0
    8.8493  -17.4502   19.5974 N   0  0  0  0  0  0  0  0  0  0  0  0
    8.6712  -16.6541   21.8823 C   0  0  0  0  0  0  0  0  0  0  0  0
    7.5255  -17.0089   22.2960 O   0  0  0  0  0  0  0  0  0  0  0  0
    8.4477  -11.8976   15.8551 C   0  0  0  0  0  0  0  0  0  0  0  0
    9.3103  -19.4392   23.3694 C   0  0  2  0  0  0  0  0  0  0  0  0
   10.0732  -18.5382   24.3339 O   0  0  0  0  0  0  0  0  0  0  0  0
   11.4414  -18.6864   24.1001 C   0  0  2  0  0  0  0  0  0  0  0  0
    9.5777  -17.1424   24.1434 N   0  0  0  0  0  0  0  0  0  0  0  0
    9.7453  -16.6190   22.8066 C   0  0  0  0  0  0  0  0  0  0  0  0
   10.0472  -16.1946   25.1809 O   0  0  0  0  0  0  0  0  0  0  0  0
   11.0212  -15.4429   24.8026 N   0  0  0  0  0  0  0  0  0  0  0  0
    9.5552  -16.0420   26.4726 C   0  0  1  0  0  0  0  0  0  0  0  0
   10.1330  -15.1920   27.5077 C   0  0  0  0  0  0  0  0  0  0  0  0
    8.9120  -14.4496   28.0922 C   0  0  0  0  0  0  0  0  0  0  0  0
    8.3176  -13.4807   27.1715 C   0  0  0  0  0  0  0  0  0  0  0  0
    8.8598  -12.2301   27.0367 C   0  0  0  0  0  0  0  0  0  0  0  0
    8.3056  -11.3343   26.1569 C   0  0  0  0  0  0  0  0  0  0  0  0
    7.2050  -11.6795   25.4041 C   0  0  0  0  0  0  0  0  0  0  0  0
    6.6430  -12.9556   25.5371 C   0  0  0  0  0  0  0  0  0  0  0  0
    7.2073  -13.8352   26.4179 C   0  0  0  0  0  0  0  0  0  0  0  0
   10.7776  -15.9360   28.5699 O   0  0  0  0  0  0  0  0  0  0  0  0
   10.7915  -17.3508   28.5379 O   0  0  0  0  0  0  0  0  0  0  0  0
  2  1  1  0
  3  2  2  0
  4  2  1  0
  5  4  1  0
  6  5  1  0
  7  6  1  0
  8  7  1  0
  8  9  1  6
 10  8  1  0
 10 11  2  0
 13 12  1  1
 13 15  1  0
 13 14  1  0
 15 16  1  1
 16 10  1  0
 17 15  1  0
 18 17  2  0
 19 17  1  0
 20 28  1  0
 20 19  1  0
 20 21  1  1
 22 21  1  0
 22 23  2  0
 24 23  1  0
 25 24  2  0
 26 27  2  0
 26 25  1  0
 27 22  1  0
 28 29  1  0
 30 28  2  0
M  END
$$$$
