RTF.pdb
     RDKit          3D

 30 30  0  0  1  0  0  0  0  0999 V2000
   11.0944  -13.0469   20.0047 N   0  0  0  0  0  0  0  0  0  0  0  0
   10.4271  -13.1067   18.7623 C   0  0  0  0  0  0  0  0  0  0  0  0
   10.9889  -13.7537   17.7734 N   0  0  0  0  0  0  0  0  0  0  0  0
    9.1636  -12.4936   18.5003 N   0  0  0  0  0  0  0  0  0  0  0  0
    7.9465  -12.9638   19.0647 C   0  0  0  0  0  0  0  0  0  0  0  0
    7.9020  -14.4560   19.2620 C   0  0  0  0  0  0  0  0  0  0  0  0
    7.5789  -14.8673   20.6868 C   0  0  0  0  0  0  0  0  0  0  0  0
    7.5668  -16.3871   20.7214 C   0  0  2  0  0  0  0  0  0  0  0  0
    6.4155  -16.7700   19.8972 N   0  0  0  0  0  0  0  0  0  0  0  0
    7.4475  -16.9270   22.0873 C   0  0  0  0  0  0  0  0  0  0  0  0
    6.6541  -17.8741   22.3754 O   0  0  0  0  0  0  0  0  0  0  0  0
   10.5471  -13.6685   16.8277 C   0  0  0  0  0  0  0  0  0  0  0  0
    7.6907  -19.1308   23.3463 C   0  0  2  0  0  0  0  0  0  0  0  0
    8.6611  -18.4897   24.3320 O   0  0  0  0  0  0  0  0  0  0  0  0
    9.9664  -18.7625   23.9191 C   0  0  2  0  0  0  0  0  0  0  0  0
    8.3441  -17.0321   24.4020 N   0  0  0  0  0  0  0  0  0  0  0  0
    8.2456  -16.3730   23.1194 C   0  0  0  0  0  0  0  0  0  0  0  0
    9.1928  -16.2809   25.3562 O   0  0  0  0  0  0  0  0  0  0  0  0
   10.3128  -15.8834   24.8615 N   0  0  0  0  0  0  0  0  0  0  0  0
    8.9072  -15.9729   26.6818 C   0  0  1  0  0  0  0  0  0  0  0  0
    9.7357  -15.1572   27.5628 C   0  0  0  0  0  0  0  0  0  0  0  0
    8.7319  -14.1675   28.1925 C   0  0  0  0  0  0  0  0  0  0  0  0
    8.0963  -13.2775   27.2210 C   0  0  0  0  0  0  0  0  0  0  0  0
    6.7774  -13.4416   26.8901 C   0  0  0  0  0  0  0  0  0  0  0  0
    6.1854  -12.5903   25.9911 C   0  0  0  0  0  0  0  0  0  0  0  0
    6.9056  -11.5675   25.4144 C   0  0  0  0  0  0  0  0  0  0  0  0
    8.2554  -11.3936   25.7456 C   0  0  0  0  0  0  0  0  0  0  0  0
    8.8291  -12.2505   26.6425 C   0  0  0  0  0  0  0  0  0  0  0  0
   10.3688  -15.9150   28.6220 O   0  0  0  0  0  0  0  0  0  0  0  0
   10.1297  -17.3049   28.7407 O   0  0  0  0  0  0  0  0  0  0  0  0
  2  1  1  0
  3  2  2  0
  4  2  1  0
  5  4  1  0
  6  5  1  0
  7  6  1  0
  8  7  1  0
  8  9  1  6
 10  8  1  0
 10 11  2  0
 13 12  1  1
 13 15  1  0
 13 14  1  0
 15 16  1  1
 16 10  1  0
 17 15  1  0
 18 17  2  0
 19 17  1  0
 20 28  1  0
 20 19  1  0
 20 21  1  1
 22 21  1  0
 22 23  2  0
 24 23  1  0
 25 24  2  0
 26 27  2  0
 26 25  1  0
 27 22  1  0
 28 29  1  0
 30 28  2  0
M  END
$$$$
