RTF.pdb
     RDKit          3D

 30 30  0  0  1  0  0  0  0  0999 V2000
    8.1380  -13.4478   20.5068 N   0  0  0  0  0  0  0  0  0  0  0  0
    8.7100  -12.6198   19.5170 C   0  0  0  0  0  0  0  0  0  0  0  0
    8.5466  -11.3246   19.6045 N   0  0  0  0  0  0  0  0  0  0  0  0
    9.4610  -13.1040   18.4022 N   0  0  0  0  0  0  0  0  0  0  0  0
    9.6603  -14.4888   18.1498 C   0  0  0  0  0  0  0  0  0  0  0  0
    8.8448  -15.0231   17.0022 C   0  0  0  0  0  0  0  0  0  0  0  0
    8.0115  -16.2378   17.3677 C   0  0  0  0  0  0  0  0  0  0  0  0
    8.9582  -17.2657   17.9662 C   0  0  2  0  0  0  0  0  0  0  0  0
    8.7643  -18.4702   17.1521 N   0  0  0  0  0  0  0  0  0  0  0  0
    8.6852  -17.5344   19.3891 C   0  0  0  0  0  0  0  0  0  0  0  0
    7.5258  -17.8258   19.8140 O   0  0  0  0  0  0  0  0  0  0  0  0
    8.9428  -10.7347   18.8350 C   0  0  0  0  0  0  0  0  0  0  0  0
   10.3912  -20.0459   21.3852 C   0  0  2  0  0  0  0  0  0  0  0  0
   10.4634  -18.8091   22.2737 O   0  0  0  0  0  0  0  0  0  0  0  0
   11.7905  -18.3814   22.3410 C   0  0  2  0  0  0  0  0  0  0  0  0
    9.5297  -17.7882   21.7118 N   0  0  0  0  0  0  0  0  0  0  0  0
    9.7518  -17.4673   20.3201 C   0  0  0  0  0  0  0  0  0  0  0  0
    9.3925  -16.5763   22.5530 O   0  0  0  0  0  0  0  0  0  0  0  0
   10.0932  -15.5751   22.1487 N   0  0  0  0  0  0  0  0  0  0  0  0
    8.6087  -16.4204   23.6910 C   0  0  1  0  0  0  0  0  0  0  0  0
    8.6314  -15.2704   24.5882 C   0  0  0  0  0  0  0  0  0  0  0  0
    7.1663  -14.7836   24.5927 C   0  0  0  0  0  0  0  0  0  0  0  0
    6.9313  -13.6356   25.4683 C   0  0  0  0  0  0  0  0  0  0  0  0
    6.5544  -13.8239   26.7716 C   0  0  0  0  0  0  0  0  0  0  0  0
    6.3539  -12.7407   27.5902 C   0  0  0  0  0  0  0  0  0  0  0  0
    6.5279  -11.4599   27.1144 C   0  0  0  0  0  0  0  0  0  0  0  0
    6.9115  -11.2581   25.7824 C   0  0  0  0  0  0  0  0  0  0  0  0
    7.1067  -12.3479   24.9810 C   0  0  0  0  0  0  0  0  0  0  0  0
    9.0145  -15.6056   25.9440 O   0  0  0  0  0  0  0  0  0  0  0  0
    9.7134  -14.6645   26.7371 O   0  0  0  0  0  0  0  0  0  0  0  0
  2  1  1  0
  3  2  2  0
  4  2  1  0
  5  4  1  0
  6  5  1  0
  7  6  1  0
  8  7  1  0
  8  9  1  6
 10  8  1  0
 10 11  2  0
 13 12  1  1
 13 15  1  0
 13 14  1  0
 15 16  1  1
 16 10  1  0
 17 15  1  0
 18 17  2  0
 19 17  1  0
 20 28  1  0
 20 19  1  0
 20 21  1  1
 22 21  1  0
 22 23  2  0
 24 23  1  0
 25 24  2  0
 26 27  2  0
 26 25  1  0
 27 22  1  0
 28 29  1  0
 30 28  2  0
M  END
$$$$
