RTF.pdb
     RDKit          3D

 30 30  0  0  1  0  0  0  0  0999 V2000
    8.9231  -15.1473   17.5988 N   0  0  0  0  0  0  0  0  0  0  0  0
    8.6613  -13.8315   17.1600 C   0  0  0  0  0  0  0  0  0  0  0  0
    8.4936  -13.6132   15.8809 N   0  0  0  0  0  0  0  0  0  0  0  0
    8.5727  -12.6996   18.0273 N   0  0  0  0  0  0  0  0  0  0  0  0
    7.5793  -12.5776   19.0369 C   0  0  0  0  0  0  0  0  0  0  0  0
    6.9928  -13.8927   19.4776 C   0  0  0  0  0  0  0  0  0  0  0  0
    7.3041  -14.2387   20.9222 C   0  0  0  0  0  0  0  0  0  0  0  0
    7.5686  -15.7348   20.9764 C   0  0  2  0  0  0  0  0  0  0  0  0
    6.4153  -16.3423   20.3039 N   0  0  0  0  0  0  0  0  0  0  0  0
    7.7103  -16.2409   22.3530 C   0  0  0  0  0  0  0  0  0  0  0  0
    6.7146  -16.4007   23.1228 O   0  0  0  0  0  0  0  0  0  0  0  0
    8.4409  -12.6164   15.5639 C   0  0  0  0  0  0  0  0  0  0  0  0
    8.9683  -19.4594   23.3324 C   0  0  2  0  0  0  0  0  0  0  0  0
    9.8406  -18.4988   24.1328 O   0  0  0  0  0  0  0  0  0  0  0  0
   11.1179  -18.4770   23.5700 C   0  0  2  0  0  0  0  0  0  0  0  0
    9.1640  -17.1676   24.1420 N   0  0  0  0  0  0  0  0  0  0  0  0
    9.0022  -16.5631   22.8392 C   0  0  0  0  0  0  0  0  0  0  0  0
    9.7216  -16.2206   25.1357 O   0  0  0  0  0  0  0  0  0  0  0  0
   10.5570  -15.3745   24.6427 N   0  0  0  0  0  0  0  0  0  0  0  0
    9.4390  -16.1574   26.4958 C   0  0  1  0  0  0  0  0  0  0  0  0
   10.1668  -15.3633   27.4795 C   0  0  0  0  0  0  0  0  0  0  0  0
    9.0528  -14.5960   28.2237 C   0  0  0  0  0  0  0  0  0  0  0  0
    8.3379  -13.6361   27.3825 C   0  0  0  0  0  0  0  0  0  0  0  0
    7.0734  -13.9139   26.9353 C   0  0  0  0  0  0  0  0  0  0  0  0
    6.4040  -12.9991   26.1615 C   0  0  0  0  0  0  0  0  0  0  0  0
    6.9916  -11.7989   25.8275 C   0  0  0  0  0  0  0  0  0  0  0  0
    8.2851  -11.5075   26.2791 C   0  0  0  0  0  0  0  0  0  0  0  0
    8.9374  -12.4297   27.0485 C   0  0  0  0  0  0  0  0  0  0  0  0
   10.8998  -16.1646   28.4375 O   0  0  0  0  0  0  0  0  0  0  0  0
   10.8715  -17.5769   28.3505 O   0  0  0  0  0  0  0  0  0  0  0  0
  2  1  1  0
  3  2  2  0
  4  2  1  0
  5  4  1  0
  6  5  1  0
  7  6  1  0
  8  7  1  0
  8  9  1  1
 10  8  1  0
 10 11  2  0
 13 12  1  1
 13 15  1  0
 13 14  1  0
 15 16  1  1
 16 10  1  0
 17 15  1  0
 18 17  2  0
 19 17  1  0
 20 28  1  0
 20 19  1  0
 20 21  1  1
 22 21  1  0
 22 23  2  0
 24 23  1  0
 25 24  2  0
 26 27  2  0
 26 25  1  0
 27 22  1  0
 28 29  1  0
 30 28  2  0
M  END
$$$$
