RTF.pdb
     RDKit          3D

 30 30  0  0  1  0  0  0  0  0999 V2000
   10.2485  -14.0197   17.4182 N   0  0  0  0  0  0  0  0  0  0  0  0
   10.6948  -13.5062   18.6550 C   0  0  0  0  0  0  0  0  0  0  0  0
   11.8934  -13.8212   19.0748 N   0  0  0  0  0  0  0  0  0  0  0  0
    9.9146  -12.6586   19.4999 N   0  0  0  0  0  0  0  0  0  0  0  0
    8.5262  -12.4322   19.2945 C   0  0  0  0  0  0  0  0  0  0  0  0
    7.7174  -13.6940   19.1488 C   0  0  0  0  0  0  0  0  0  0  0  0
    7.3790  -14.3507   20.4745 C   0  0  0  0  0  0  0  0  0  0  0  0
    7.9454  -15.7608   20.4323 C   0  0  2  0  0  0  0  0  0  0  0  0
    7.0795  -16.4829   19.4942 N   0  0  0  0  0  0  0  0  0  0  0  0
    7.9586  -16.4115   21.7543 C   0  0  0  0  0  0  0  0  0  0  0  0
    6.9429  -17.0062   22.2277 O   0  0  0  0  0  0  0  0  0  0  0  0
   12.2094  -13.4114   19.9853 C   0  0  0  0  0  0  0  0  0  0  0  0
    9.0612  -19.2897   22.6787 C   0  0  2  0  0  0  0  0  0  0  0  0
    9.8855  -18.4532   23.6507 O   0  0  0  0  0  0  0  0  0  0  0  0
   11.2028  -18.3997   23.1920 C   0  0  2  0  0  0  0  0  0  0  0  0
    9.2338  -17.1146   23.7673 N   0  0  0  0  0  0  0  0  0  0  0  0
    9.1456  -16.3757   22.5282 C   0  0  0  0  0  0  0  0  0  0  0  0
    9.7607  -16.2880   24.8783 O   0  0  0  0  0  0  0  0  0  0  0  0
   10.6532  -15.4331   24.5184 N   0  0  0  0  0  0  0  0  0  0  0  0
    9.3970  -16.3418   26.2193 C   0  0  1  0  0  0  0  0  0  0  0  0
   10.0422  -15.6123   27.3053 C   0  0  0  0  0  0  0  0  0  0  0  0
    8.8624  -14.9530   28.0519 C   0  0  0  0  0  0  0  0  0  0  0  0
    8.2215  -13.8737   27.3008 C   0  0  0  0  0  0  0  0  0  0  0  0
    6.9827  -14.0564   26.7457 C   0  0  0  0  0  0  0  0  0  0  0  0
    6.3820  -13.0317   26.0582 C   0  0  0  0  0  0  0  0  0  0  0  0
    7.0132  -11.8154   25.9190 C   0  0  0  0  0  0  0  0  0  0  0  0
    8.2810  -11.6205   26.4818 C   0  0  0  0  0  0  0  0  0  0  0  0
    8.8647  -12.6515   27.1630 C   0  0  0  0  0  0  0  0  0  0  0  0
   10.7571  -16.4684   28.2288 O   0  0  0  0  0  0  0  0  0  0  0  0
   11.5276  -15.9006   29.2715 O   0  0  0  0  0  0  0  0  0  0  0  0
  2  1  1  0
  3  2  2  0
  4  2  1  0
  5  4  1  0
  6  5  1  0
  7  6  1  0
  8  7  1  0
  8  9  1  6
 10  8  1  0
 10 11  2  0
 13 12  1  1
 13 15  1  0
 13 14  1  0
 15 16  1  1
 16 10  1  0
 17 15  1  0
 18 17  2  0
 19 17  1  0
 20 28  1  0
 20 19  1  0
 20 21  1  1
 22 21  1  0
 22 23  2  0
 24 23  1  0
 25 24  2  0
 26 27  2  0
 26 25  1  0
 27 22  1  0
 28 29  1  0
 30 28  2  0
M  END
$$$$
