CFP.pdb
     RDKit          3D

 25 26  0  0  1  0  0  0  0  0999 V2000
   23.6271  -19.2136  -12.8501 N   0  0  0  0  0  0  0  0  0  0  0  0
   23.8264  -20.2086  -11.8420 C   0  0  1  0  0  0  0  0  0  0  0  0
   23.9331  -21.6134  -12.4506 C   0  0  0  0  0  0  0  0  0  0  0  0
   22.2655  -22.0640  -13.0678 S   0  0  0  0  0  0  0  0  0  0  0  0
   25.0593  -19.9633  -11.0550 C   0  0  0  0  0  0  0  0  0  0  0  0
   26.0794  -19.5749  -11.7028 O   0  0  0  0  0  0  0  0  0  0  0  0
   25.0934  -20.1539   -9.6511 N   0  0  0  0  0  0  0  0  0  0  0  0
   26.2984  -20.0918   -8.8728 C   0  0  1  0  0  0  0  0  0  0  0  0
   26.0352  -20.0154   -7.4036 C   0  0  0  0  0  0  0  0  0  0  0  0
   27.2074  -19.8320   -6.5452 C   0  0  0  0  0  0  0  0  0  0  0  0
   27.8066  -18.5875   -6.4595 C   0  0  0  0  0  0  0  0  0  0  0  0
   28.8960  -18.4040   -5.6423 C   0  0  0  0  0  0  0  0  0  0  0  0
   29.4337  -19.4235   -4.8857 C   0  0  0  0  0  0  0  0  0  0  0  0
   28.8390  -20.6762   -4.9650 C   0  0  0  0  0  0  0  0  0  0  0  0
   27.7587  -20.8514   -5.7777 C   0  0  0  0  0  0  0  0  0  0  0  0
   27.2867  -21.0914   -9.2890 C   0  0  0  0  0  0  0  0  0  0  0  0
   26.8288  -22.2674   -9.5708 O   0  0  0  0  0  0  0  0  0  0  0  0
   28.6778  -20.9583   -9.4261 N   0  0  0  0  0  0  0  0  0  0  0  0
   29.5949  -19.8884   -9.1088 C   0  0  0  0  0  0  0  0  0  0  0  0
   30.8154  -20.0746  -10.0219 C   0  0  0  0  0  0  0  0  0  0  0  0
   30.3595  -21.1932  -10.9600 C   0  0  0  0  0  0  0  0  0  0  0  0
   29.5732  -22.0137   -9.9622 C   0  0  1  0  0  0  0  0  0  0  0  0
   30.4801  -22.5339   -8.9342 C   0  0  0  0  0  0  0  0  0  0  0  0
   30.5042  -22.1886   -7.6083 O   0  0  0  0  0  0  0  0  0  0  0  0
   31.3318  -23.3956   -9.3179 O   0  0  0  0  0  0  0  0  0  0  0  0
  2  5  1  0
  2  1  1  6
  3  2  1  0
  4  3  1  0
  5  6  2  0
  7  8  1  0
  7  5  1  0
  8  9  1  1
  9 10  1  0
 10 11  2  0
 11 12  1  0
 13 12  2  0
 14 13  1  0
 15 14  2  0
 15 10  1  0
 16  8  1  0
 17 16  2  0
 18 16  1  0
 18 22  1  0
 19 20  1  0
 19 18  1  0
 20 21  1  0
 21 22  1  0
 22 23  1  1
 23 24  1  0
 25 23  2  0
M  END
$$$$
