CFP.pdb
     RDKit          3D

 25 26  0  0  1  0  0  0  0  0999 V2000
   28.8763  -19.6484  -18.6642 N   0  0  0  0  0  0  0  0  0  0  0  0
   27.6459  -19.2066  -18.0839 C   0  0  1  0  0  0  0  0  0  0  0  0
   26.4711  -19.3782  -19.0564 C   0  0  0  0  0  0  0  0  0  0  0  0
   26.4006  -17.8659  -20.0922 S   0  0  0  0  0  0  0  0  0  0  0  0
   27.3171  -19.9510  -16.8440 C   0  0  0  0  0  0  0  0  0  0  0  0
   27.2006  -21.2104  -16.9510 O   0  0  0  0  0  0  0  0  0  0  0  0
   27.1427  -19.2869  -15.6042 N   0  0  0  0  0  0  0  0  0  0  0  0
   26.7481  -19.9558  -14.3965 C   0  0  1  0  0  0  0  0  0  0  0  0
   27.3730  -19.3623  -13.1755 C   0  0  0  0  0  0  0  0  0  0  0  0
   26.9901  -19.9627  -11.8959 C   0  0  0  0  0  0  0  0  0  0  0  0
   25.9362  -19.4281  -11.1757 C   0  0  0  0  0  0  0  0  0  0  0  0
   25.5600  -19.9973   -9.9829 C   0  0  0  0  0  0  0  0  0  0  0  0
   26.1965  -21.1012   -9.4564 C   0  0  0  0  0  0  0  0  0  0  0  0
   27.2555  -21.6449  -10.1722 C   0  0  0  0  0  0  0  0  0  0  0  0
   27.6235  -21.0754  -11.3546 C   0  0  0  0  0  0  0  0  0  0  0  0
   25.3005  -20.1760  -14.3250 C   0  0  0  0  0  0  0  0  0  0  0  0
   24.5523  -19.2141  -14.7574 O   0  0  0  0  0  0  0  0  0  0  0  0
   24.5969  -21.2930  -13.8467 N   0  0  0  0  0  0  0  0  0  0  0  0
   25.0167  -22.4992  -13.1720 C   0  0  0  0  0  0  0  0  0  0  0  0
   23.9441  -23.5586  -13.4643 C   0  0  0  0  0  0  0  0  0  0  0  0
   23.0605  -22.8587  -14.4980 C   0  0  0  0  0  0  0  0  0  0  0  0
   23.1242  -21.4574  -13.9329 C   0  0  1  0  0  0  0  0  0  0  0  0
   22.4942  -21.4349  -12.6091 C   0  0  0  0  0  0  0  0  0  0  0  0
   21.1599  -21.2838  -12.3362 O   0  0  0  0  0  0  0  0  0  0  0  0
   23.2716  -21.5705  -11.6129 O   0  0  0  0  0  0  0  0  0  0  0  0
  2  5  1  0
  2  1  1  6
  3  2  1  0
  4  3  1  0
  5  6  2  0
  7  8  1  0
  7  5  1  0
  8  9  1  1
  9 10  1  0
 10 11  2  0
 11 12  1  0
 13 12  2  0
 14 13  1  0
 15 14  2  0
 15 10  1  0
 16  8  1  0
 17 16  2  0
 18 16  1  0
 18 22  1  0
 19 20  1  0
 19 18  1  0
 20 21  1  0
 21 22  1  0
 22 23  1  1
 23 24  1  0
 25 23  2  0
M  END
$$$$
