CFP.pdb
     RDKit          3D

 25 26  0  0  1  0  0  0  0  0999 V2000
   26.6006  -21.5687  -12.9121 N   0  0  0  0  0  0  0  0  0  0  0  0
   25.8503  -20.8054  -11.9631 C   0  0  1  0  0  0  0  0  0  0  0  0
   24.3458  -21.0849  -12.0792 C   0  0  0  0  0  0  0  0  0  0  0  0
   23.4987  -20.0007  -10.8660 S   0  0  0  0  0  0  0  0  0  0  0  0
   26.2571  -21.0992  -10.5675 C   0  0  0  0  0  0  0  0  0  0  0  0
   26.1376  -22.3025  -10.1818 O   0  0  0  0  0  0  0  0  0  0  0  0
   26.7535  -20.0855   -9.7105 N   0  0  0  0  0  0  0  0  0  0  0  0
   27.1354  -20.3191   -8.3462 C   0  0  1  0  0  0  0  0  0  0  0  0
   28.3106  -19.4972   -7.9253 C   0  0  0  0  0  0  0  0  0  0  0  0
   28.6643  -19.5539   -6.5054 C   0  0  0  0  0  0  0  0  0  0  0  0
   29.5369  -20.5288   -6.0545 C   0  0  0  0  0  0  0  0  0  0  0  0
   29.8871  -20.5768   -4.7266 C   0  0  0  0  0  0  0  0  0  0  0  0
   29.3998  -19.6799   -3.7998 C   0  0  0  0  0  0  0  0  0  0  0  0
   28.5233  -18.6977   -4.2430 C   0  0  0  0  0  0  0  0  0  0  0  0
   28.1801  -18.6557   -5.5615 C   0  0  0  0  0  0  0  0  0  0  0  0
   25.9892  -20.3015   -7.4324 C   0  0  0  0  0  0  0  0  0  0  0  0
   25.0613  -19.4395   -7.6932 O   0  0  0  0  0  0  0  0  0  0  0  0
   25.7486  -21.0929   -6.2978 N   0  0  0  0  0  0  0  0  0  0  0  0
   26.5864  -21.9857   -5.5313 C   0  0  0  0  0  0  0  0  0  0  0  0
   25.6446  -22.9841   -4.8425 C   0  0  0  0  0  0  0  0  0  0  0  0
   24.2924  -22.6554   -5.4768 C   0  0  0  0  0  0  0  0  0  0  0  0
   24.4525  -21.1550   -5.5771 C   0  0  1  0  0  0  0  0  0  0  0  0
   24.5488  -20.5824   -4.2308 C   0  0  0  0  0  0  0  0  0  0  0  0
   25.6934  -20.2104   -3.5756 O   0  0  0  0  0  0  0  0  0  0  0  0
   23.4525  -20.4152   -3.6099 O   0  0  0  0  0  0  0  0  0  0  0  0
  2  5  1  0
  2  1  1  6
  3  2  1  0
  4  3  1  0
  5  6  2  0
  7  8  1  0
  7  5  1  0
  8  9  1  1
  9 10  1  0
 10 11  2  0
 11 12  1  0
 13 12  2  0
 14 13  1  0
 15 14  2  0
 15 10  1  0
 16  8  1  0
 17 16  2  0
 18 16  1  0
 18 22  1  0
 19 20  1  0
 19 18  1  0
 20 21  1  0
 21 22  1  0
 22 23  1  1
 23 24  1  0
 25 23  2  0
M  END
$$$$
