CFP.pdb
     RDKit          3D

 25 26  0  0  1  0  0  0  0  0999 V2000
   24.3991  -19.5010  -12.8465 N   0  0  0  0  0  0  0  0  0  0  0  0
   24.2295  -20.0986  -11.5581 C   0  0  1  0  0  0  0  0  0  0  0  0
   23.8509  -21.5816  -11.6706 C   0  0  0  0  0  0  0  0  0  0  0  0
   25.0254  -22.3519  -12.8506 S   0  0  0  0  0  0  0  0  0  0  0  0
   25.4614  -20.0088  -10.7372 C   0  0  0  0  0  0  0  0  0  0  0  0
   26.5404  -19.7579  -11.3567 O   0  0  0  0  0  0  0  0  0  0  0  0
   25.4319  -20.1943   -9.3325 N   0  0  0  0  0  0  0  0  0  0  0  0
   26.6076  -20.1880   -8.5082 C   0  0  1  0  0  0  0  0  0  0  0  0
   26.2994  -19.9708   -7.0620 C   0  0  0  0  0  0  0  0  0  0  0  0
   27.4516  -19.8264   -6.1698 C   0  0  0  0  0  0  0  0  0  0  0  0
   27.9987  -18.5738   -5.9535 C   0  0  0  0  0  0  0  0  0  0  0  0
   29.0687  -18.4286   -5.1036 C   0  0  0  0  0  0  0  0  0  0  0  0
   29.6371  -19.4953   -4.4403 C   0  0  0  0  0  0  0  0  0  0  0  0
   29.0948  -20.7565   -4.6510 C   0  0  0  0  0  0  0  0  0  0  0  0
   28.0334  -20.8936   -5.4953 C   0  0  0  0  0  0  0  0  0  0  0  0
   27.5056  -21.3083   -8.8041 C   0  0  0  0  0  0  0  0  0  0  0  0
   26.9413  -22.4437   -9.0581 O   0  0  0  0  0  0  0  0  0  0  0  0
   28.9088  -21.3305   -8.8505 N   0  0  0  0  0  0  0  0  0  0  0  0
   29.9181  -20.4004   -8.4003 C   0  0  0  0  0  0  0  0  0  0  0  0
   31.1673  -20.6654   -9.2532 C   0  0  0  0  0  0  0  0  0  0  0  0
   30.6507  -21.6551  -10.2984 C   0  0  0  0  0  0  0  0  0  0  0  0
   29.7126  -22.4444   -9.4130 C   0  0  1  0  0  0  0  0  0  0  0  0
   30.4850  -23.1373   -8.3771 C   0  0  0  0  0  0  0  0  0  0  0  0
   31.2907  -24.2327   -8.5470 O   0  0  0  0  0  0  0  0  0  0  0  0
   30.3949  -22.6689   -7.1992 O   0  0  0  0  0  0  0  0  0  0  0  0
  2  5  1  0
  2  1  1  6
  3  2  1  0
  4  3  1  0
  5  6  2  0
  7  8  1  0
  7  5  1  0
  8  9  1  1
  9 10  1  0
 10 11  2  0
 11 12  1  0
 13 12  2  0
 14 13  1  0
 15 14  2  0
 15 10  1  0
 16  8  1  0
 17 16  2  0
 18 16  1  0
 18 22  1  0
 19 20  1  0
 19 18  1  0
 20 21  1  0
 21 22  1  0
 22 23  1  1
 23 24  1  0
 25 23  2  0
M  END
$$$$
