CFP.pdb
     RDKit          3D

 25 26  0  0  1  0  0  0  0  0999 V2000
   15.8965  -20.3421    1.2077 N   0  0  0  0  0  0  0  0  0  0  0  0
   15.6218  -20.0317    2.5767 C   0  0  1  0  0  0  0  0  0  0  0  0
   15.5216  -21.3015    3.4328 C   0  0  0  0  0  0  0  0  0  0  0  0
   15.1681  -20.7687    5.1521 S   0  0  0  0  0  0  0  0  0  0  0  0
   16.6703  -19.1682    3.1721 C   0  0  0  0  0  0  0  0  0  0  0  0
   17.8749  -19.4995    2.9476 O   0  0  0  0  0  0  0  0  0  0  0  0
   16.3407  -18.0315    3.9517 N   0  0  0  0  0  0  0  0  0  0  0  0
   17.3208  -17.1405    4.5061 C   0  0  1  0  0  0  0  0  0  0  0  0
   16.9575  -15.7011    4.3339 C   0  0  0  0  0  0  0  0  0  0  0  0
   17.8848  -14.7263    4.9121 C   0  0  0  0  0  0  0  0  0  0  0  0
   18.8200  -14.1056    4.1025 C   0  0  0  0  0  0  0  0  0  0  0  0
   19.6815  -13.1768    4.6349 C   0  0  0  0  0  0  0  0  0  0  0  0
   19.6589  -12.8249    5.9678 C   0  0  0  0  0  0  0  0  0  0  0  0
   18.7237  -13.4425    6.7882 C   0  0  0  0  0  0  0  0  0  0  0  0
   17.8721  -14.3630    6.2538 C   0  0  0  0  0  0  0  0  0  0  0  0
   17.7350  -17.5330    5.8565 C   0  0  0  0  0  0  0  0  0  0  0  0
   16.8024  -17.9715    6.6374 O   0  0  0  0  0  0  0  0  0  0  0  0
   19.0137  -17.4999    6.4356 N   0  0  0  0  0  0  0  0  0  0  0  0
   20.2902  -17.0162    5.9632 C   0  0  0  0  0  0  0  0  0  0  0  0
   21.3649  -17.7910    6.7397 C   0  0  0  0  0  0  0  0  0  0  0  0
   20.5410  -18.8394    7.4887 C   0  0  0  0  0  0  0  0  0  0  0  0
   19.3299  -17.9893    7.8008 C   0  0  1  0  0  0  0  0  0  0  0  0
   19.7180  -16.8952    8.6964 C   0  0  0  0  0  0  0  0  0  0  0  0
   19.8031  -16.9426   10.0633 O   0  0  0  0  0  0  0  0  0  0  0  0
   20.0051  -15.7882    8.1420 O   0  0  0  0  0  0  0  0  0  0  0  0
  2  5  1  0
  2  1  1  6
  3  2  1  0
  4  3  1  0
  5  6  2  0
  7  8  1  0
  7  5  1  0
  8  9  1  1
  9 10  1  0
 10 11  2  0
 11 12  1  0
 13 12  2  0
 14 13  1  0
 15 14  2  0
 15 10  1  0
 16  8  1  0
 17 16  2  0
 18 16  1  0
 18 22  1  0
 19 20  1  0
 19 18  1  0
 20 21  1  0
 21 22  1  0
 22 23  1  1
 23 24  1  0
 25 23  2  0
M  END
$$$$
