CFP.pdb
     RDKit          3D

 25 26  0  0  1  0  0  0  0  0999 V2000
   27.8868  -33.1436    8.4257 N   0  0  0  0  0  0  0  0  0  0  0  0
   27.5198  -32.2495    9.4802 C   0  0  1  0  0  0  0  0  0  0  0  0
   28.3750  -32.4765   10.7341 C   0  0  0  0  0  0  0  0  0  0  0  0
   27.7133  -33.9644   11.5785 S   0  0  0  0  0  0  0  0  0  0  0  0
   27.6713  -30.8288    9.0822 C   0  0  0  0  0  0  0  0  0  0  0  0
   28.6972  -30.5375    8.3939 O   0  0  0  0  0  0  0  0  0  0  0  0
   26.7172  -29.8488    9.4533 N   0  0  0  0  0  0  0  0  0  0  0  0
   26.8001  -28.4721    9.0537 C   0  0  1  0  0  0  0  0  0  0  0  0
   25.5261  -27.9640    8.4601 C   0  0  0  0  0  0  0  0  0  0  0  0
   25.1821  -28.4758    7.1319 C   0  0  0  0  0  0  0  0  0  0  0  0
   25.9765  -28.1529    6.0457 C   0  0  0  0  0  0  0  0  0  0  0  0
   25.6698  -28.6442    4.7996 C   0  0  0  0  0  0  0  0  0  0  0  0
   24.5835  -29.4626    4.5735 C   0  0  0  0  0  0  0  0  0  0  0  0
   23.7802  -29.7923    5.6576 C   0  0  0  0  0  0  0  0  0  0  0  0
   24.0901  -29.3015    6.8910 C   0  0  0  0  0  0  0  0  0  0  0  0
   27.4009  -27.6236   10.0872 C   0  0  0  0  0  0  0  0  0  0  0  0
   27.1948  -27.9803   11.3130 O   0  0  0  0  0  0  0  0  0  0  0  0
   28.1763  -26.4623    9.9397 N   0  0  0  0  0  0  0  0  0  0  0  0
   28.6131  -25.7173    8.7819 C   0  0  0  0  0  0  0  0  0  0  0  0
   29.8837  -24.9639    9.2016 C   0  0  0  0  0  0  0  0  0  0  0  0
   30.1674  -25.5406   10.5894 C   0  0  0  0  0  0  0  0  0  0  0  0
   28.7398  -25.6802   11.0685 C   0  0  1  0  0  0  0  0  0  0  0  0
   28.1267  -24.3524   11.1720 C   0  0  0  0  0  0  0  0  0  0  0  0
   27.1546  -23.8301   10.3596 O   0  0  0  0  0  0  0  0  0  0  0  0
   28.5440  -23.6113   12.1164 O   0  0  0  0  0  0  0  0  0  0  0  0
  2  5  1  0
  2  1  1  6
  3  2  1  0
  4  3  1  0
  5  6  2  0
  7  8  1  0
  7  5  1  0
  8  9  1  1
  9 10  1  0
 10 11  2  0
 11 12  1  0
 13 12  2  0
 14 13  1  0
 15 14  2  0
 15 10  1  0
 16  8  1  0
 17 16  2  0
 18 16  1  0
 18 22  1  0
 19 20  1  0
 19 18  1  0
 20 21  1  0
 21 22  1  0
 22 23  1  6
 23 24  1  0
 25 23  2  0
M  END
$$$$
