CFP.pdb
     RDKit          3D

 25 26  0  0  1  0  0  0  0  0999 V2000
   25.8651  -22.0200  -12.6638 N   0  0  0  0  0  0  0  0  0  0  0  0
   25.9368  -20.8187  -11.8906 C   0  0  1  0  0  0  0  0  0  0  0  0
   24.6219  -20.0297  -11.9529 C   0  0  0  0  0  0  0  0  0  0  0  0
   23.2543  -21.2468  -11.8374 S   0  0  0  0  0  0  0  0  0  0  0  0
   26.2306  -21.0932  -10.4631 C   0  0  0  0  0  0  0  0  0  0  0  0
   25.7989  -22.1910   -9.9946 O   0  0  0  0  0  0  0  0  0  0  0  0
   26.9568  -20.1742   -9.6652 N   0  0  0  0  0  0  0  0  0  0  0  0
   27.2548  -20.3935   -8.2778 C   0  0  1  0  0  0  0  0  0  0  0  0
   28.4896  -19.6796   -7.8312 C   0  0  0  0  0  0  0  0  0  0  0  0
   28.7630  -19.6982   -6.3927 C   0  0  0  0  0  0  0  0  0  0  0  0
   29.5961  -20.6695   -5.8656 C   0  0  0  0  0  0  0  0  0  0  0  0
   29.8712  -20.6822   -4.5194 C   0  0  0  0  0  0  0  0  0  0  0  0
   29.3452  -19.7525   -3.6477 C   0  0  0  0  0  0  0  0  0  0  0  0
   28.5078  -18.7737   -4.1675 C   0  0  0  0  0  0  0  0  0  0  0  0
   28.2391  -18.7668   -5.5038 C   0  0  0  0  0  0  0  0  0  0  0  0
   26.0791  -20.2252   -7.4186 C   0  0  0  0  0  0  0  0  0  0  0  0
   25.2467  -19.2968   -7.7613 O   0  0  0  0  0  0  0  0  0  0  0  0
   25.7200  -20.9325   -6.2600 N   0  0  0  0  0  0  0  0  0  0  0  0
   26.4402  -21.8552   -5.4136 C   0  0  0  0  0  0  0  0  0  0  0  0
   25.3835  -22.7293   -4.7226 C   0  0  0  0  0  0  0  0  0  0  0  0
   24.0946  -22.3154   -5.4342 C   0  0  0  0  0  0  0  0  0  0  0  0
   24.3943  -20.8422   -5.5983 C   0  0  1  0  0  0  0  0  0  0  0  0
   24.4854  -20.2116   -4.2778 C   0  0  0  0  0  0  0  0  0  0  0  0
   23.4434  -19.8743   -3.4543 O   0  0  0  0  0  0  0  0  0  0  0  0
   25.6562  -19.9527   -3.8566 O   0  0  0  0  0  0  0  0  0  0  0  0
  2  5  1  0
  2  1  1  6
  3  2  1  0
  4  3  1  0
  5  6  2  0
  7  8  1  0
  7  5  1  0
  8  9  1  1
  9 10  1  0
 10 11  2  0
 11 12  1  0
 13 12  2  0
 14 13  1  0
 15 14  2  0
 15 10  1  0
 16  8  1  0
 17 16  2  0
 18 16  1  0
 18 22  1  0
 19 20  1  0
 19 18  1  0
 20 21  1  0
 21 22  1  0
 22 23  1  1
 23 24  1  0
 25 23  2  0
M  END
$$$$
