CFP.pdb
     RDKit          3D

 25 26  0  0  1  0  0  0  0  0999 V2000
   26.6763  -21.6351  -13.0840 N   0  0  0  0  0  0  0  0  0  0  0  0
   25.8898  -20.8430  -12.1895 C   0  0  1  0  0  0  0  0  0  0  0  0
   24.3889  -21.0973  -12.3837 C   0  0  0  0  0  0  0  0  0  0  0  0
   23.4949  -19.8997  -11.3199 S   0  0  0  0  0  0  0  0  0  0  0  0
   26.2141  -21.1211  -10.7692 C   0  0  0  0  0  0  0  0  0  0  0  0
   26.1168  -22.3284  -10.3897 O   0  0  0  0  0  0  0  0  0  0  0  0
   26.6122  -20.0890   -9.8834 N   0  0  0  0  0  0  0  0  0  0  0  0
   26.9223  -20.3098   -8.4989 C   0  0  1  0  0  0  0  0  0  0  0  0
   28.0170  -19.4217   -8.0022 C   0  0  0  0  0  0  0  0  0  0  0  0
   28.3304  -19.5178   -6.5750 C   0  0  0  0  0  0  0  0  0  0  0  0
   29.2082  -20.4906   -6.1297 C   0  0  0  0  0  0  0  0  0  0  0  0
   29.5206  -20.5752   -4.7942 C   0  0  0  0  0  0  0  0  0  0  0  0
   28.9895  -19.7177   -3.8542 C   0  0  0  0  0  0  0  0  0  0  0  0
   28.1075  -18.7379   -4.2916 C   0  0  0  0  0  0  0  0  0  0  0  0
   27.8019  -18.6596   -5.6177 C   0  0  0  0  0  0  0  0  0  0  0  0
   25.7227  -20.3688   -7.6583 C   0  0  0  0  0  0  0  0  0  0  0  0
   24.7541  -19.5770   -7.9853 O   0  0  0  0  0  0  0  0  0  0  0  0
   25.4683  -21.1684   -6.5325 N   0  0  0  0  0  0  0  0  0  0  0  0
   26.3189  -21.9889   -5.7020 C   0  0  0  0  0  0  0  0  0  0  0  0
   25.4123  -23.0519   -5.0646 C   0  0  0  0  0  0  0  0  0  0  0  0
   24.0840  -22.8324   -5.7902 C   0  0  0  0  0  0  0  0  0  0  0  0
   24.1357  -21.3248   -5.8978 C   0  0  1  0  0  0  0  0  0  0  0  0
   24.0985  -20.7372   -4.5550 C   0  0  0  0  0  0  0  0  0  0  0  0
   22.9920  -20.5567   -3.7670 O   0  0  0  0  0  0  0  0  0  0  0  0
   25.2123  -20.3568   -4.0755 O   0  0  0  0  0  0  0  0  0  0  0  0
  2  5  1  0
  2  1  1  6
  3  2  1  0
  4  3  1  0
  5  6  2  0
  7  8  1  0
  7  5  1  0
  8  9  1  1
  9 10  1  0
 10 11  2  0
 11 12  1  0
 13 12  2  0
 14 13  1  0
 15 14  2  0
 15 10  1  0
 16  8  1  0
 17 16  2  0
 18 16  1  0
 18 22  1  0
 19 20  1  0
 19 18  1  0
 20 21  1  0
 21 22  1  0
 22 23  1  1
 23 24  1  0
 25 23  2  0
M  END
$$$$
