CFP.pdb
     RDKit          3D

 25 26  0  0  1  0  0  0  0  0999 V2000
   28.5441  -19.3792  -19.1778 N   0  0  0  0  0  0  0  0  0  0  0  0
   27.6980  -18.6813  -18.2596 C   0  0  1  0  0  0  0  0  0  0  0  0
   26.4094  -18.1971  -18.9381 C   0  0  0  0  0  0  0  0  0  0  0  0
   26.8639  -16.7864  -20.0189 S   0  0  0  0  0  0  0  0  0  0  0  0
   27.3092  -19.5298  -17.1070 C   0  0  0  0  0  0  0  0  0  0  0  0
   26.9894  -20.7303  -17.3670 O   0  0  0  0  0  0  0  0  0  0  0  0
   27.2964  -19.0228  -15.7837 N   0  0  0  0  0  0  0  0  0  0  0  0
   26.7874  -19.7570  -14.6595 C   0  0  1  0  0  0  0  0  0  0  0  0
   27.4262  -19.3562  -13.3692 C   0  0  0  0  0  0  0  0  0  0  0  0
   26.8839  -19.9768  -12.1588 C   0  0  0  0  0  0  0  0  0  0  0  0
   27.4332  -21.1566  -11.6880 C   0  0  0  0  0  0  0  0  0  0  0  0
   26.9410  -21.7350  -10.5428 C   0  0  0  0  0  0  0  0  0  0  0  0
   25.9020  -21.1842   -9.8231 C   0  0  0  0  0  0  0  0  0  0  0  0
   25.3442  -20.0001  -10.2878 C   0  0  0  0  0  0  0  0  0  0  0  0
   25.8372  -19.4316  -11.4244 C   0  0  0  0  0  0  0  0  0  0  0  0
   25.3229  -19.8218  -14.6490 C   0  0  0  0  0  0  0  0  0  0  0  0
   24.6990  -18.7503  -15.0162 O   0  0  0  0  0  0  0  0  0  0  0  0
   24.4859  -20.8909  -14.2911 N   0  0  0  0  0  0  0  0  0  0  0  0
   24.7417  -22.1674  -13.6654 C   0  0  0  0  0  0  0  0  0  0  0  0
   23.6013  -23.1011  -14.0967 C   0  0  0  0  0  0  0  0  0  0  0  0
   22.8656  -22.2635  -15.1435 C   0  0  0  0  0  0  0  0  0  0  0  0
   23.0150  -20.9082  -14.4892 C   0  0  1  0  0  0  0  0  0  0  0  0
   22.2924  -20.8989  -13.2134 C   0  0  0  0  0  0  0  0  0  0  0  0
   20.9552  -20.6635  -13.0278 O   0  0  0  0  0  0  0  0  0  0  0  0
   22.9831  -21.1345  -12.1730 O   0  0  0  0  0  0  0  0  0  0  0  0
  2  5  1  0
  2  1  1  6
  3  2  1  0
  4  3  1  0
  5  6  2  0
  7  8  1  0
  7  5  1  0
  8  9  1  1
  9 10  1  0
 10 11  2  0
 11 12  1  0
 13 12  2  0
 14 13  1  0
 15 14  2  0
 15 10  1  0
 16  8  1  0
 17 16  2  0
 18 16  1  0
 18 22  1  0
 19 20  1  0
 19 18  1  0
 20 21  1  0
 21 22  1  0
 22 23  1  1
 23 24  1  0
 25 23  2  0
M  END
$$$$
