CFP.pdb
     RDKit          3D

 25 26  0  0  1  0  0  0  0  0999 V2000
   19.5583  -18.3664  -15.5596 N   0  0  0  0  0  0  0  0  0  0  0  0
   20.3448  -19.5599  -15.6146 C   0  0  1  0  0  0  0  0  0  0  0  0
   20.6887  -19.9415  -17.0608 C   0  0  0  0  0  0  0  0  0  0  0  0
   19.3067  -20.9689  -17.6928 S   0  0  0  0  0  0  0  0  0  0  0  0
   21.6197  -19.4204  -14.8698 C   0  0  0  0  0  0  0  0  0  0  0  0
   22.2302  -18.3141  -14.9901 O   0  0  0  0  0  0  0  0  0  0  0  0
   22.1276  -20.4708  -14.0654 N   0  0  0  0  0  0  0  0  0  0  0  0
   23.3906  -20.4073  -13.3854 C   0  0  1  0  0  0  0  0  0  0  0  0
   23.4172  -21.2272  -12.1361 C   0  0  0  0  0  0  0  0  0  0  0  0
   24.6205  -21.1086  -11.3100 C   0  0  0  0  0  0  0  0  0  0  0  0
   25.7801  -21.7614  -11.6899 C   0  0  0  0  0  0  0  0  0  0  0  0
   26.9179  -21.6401  -10.9290 C   0  0  0  0  0  0  0  0  0  0  0  0
   26.9614  -20.8817   -9.7784 C   0  0  0  0  0  0  0  0  0  0  0  0
   25.8023  -20.2227   -9.3891 C   0  0  0  0  0  0  0  0  0  0  0  0
   24.6772  -20.3473  -10.1484 C   0  0  0  0  0  0  0  0  0  0  0  0
   24.5261  -20.5971  -14.2929 C   0  0  0  0  0  0  0  0  0  0  0  0
   24.3742  -21.4816  -15.2239 O   0  0  0  0  0  0  0  0  0  0  0  0
   25.7734  -19.9522  -14.2984 N   0  0  0  0  0  0  0  0  0  0  0  0
   26.4686  -19.1570  -13.3131 C   0  0  0  0  0  0  0  0  0  0  0  0
   27.4406  -18.2548  -14.0875 C   0  0  0  0  0  0  0  0  0  0  0  0
   27.0408  -18.5086  -15.5417 C   0  0  0  0  0  0  0  0  0  0  0  0
   26.7302  -19.9847  -15.4327 C   0  0  1  0  0  0  0  0  0  0  0  0
   27.9538  -20.7180  -15.0936 C   0  0  0  0  0  0  0  0  0  0  0  0
   29.0300  -20.9439  -15.9112 O   0  0  0  0  0  0  0  0  0  0  0  0
   28.0184  -21.1922  -13.9163 O   0  0  0  0  0  0  0  0  0  0  0  0
  2  5  1  0
  2  1  1  6
  3  2  1  0
  4  3  1  0
  5  6  2  0
  7  8  1  0
  7  5  1  0
  8  9  1  1
  9 10  1  0
 10 11  2  0
 11 12  1  0
 13 12  2  0
 14 13  1  0
 15 14  2  0
 15 10  1  0
 16  8  1  0
 17 16  2  0
 18 16  1  0
 18 22  1  0
 19 20  1  0
 19 18  1  0
 20 21  1  0
 21 22  1  0
 22 23  1  1
 23 24  1  0
 25 23  2  0
M  END
$$$$
