CFP.pdb
     RDKit          3D

 25 26  0  0  1  0  0  0  0  0999 V2000
   25.7514  -15.8748  -17.1817 N   0  0  0  0  0  0  0  0  0  0  0  0
   25.2082  -15.0375  -16.1571 C   0  0  1  0  0  0  0  0  0  0  0  0
   26.3021  -14.5226  -15.2118 C   0  0  0  0  0  0  0  0  0  0  0  0
   27.0250  -15.9851  -14.3731 S   0  0  0  0  0  0  0  0  0  0  0  0
   24.5051  -13.8581  -16.7178 C   0  0  0  0  0  0  0  0  0  0  0  0
   24.9910  -13.3575  -17.7781 O   0  0  0  0  0  0  0  0  0  0  0  0
   23.3496  -13.3198  -16.0985 N   0  0  0  0  0  0  0  0  0  0  0  0
   22.5929  -12.2295  -16.6465 C   0  0  1  0  0  0  0  0  0  0  0  0
   21.2308  -12.6420  -17.1029 C   0  0  0  0  0  0  0  0  0  0  0  0
   20.4160  -13.3720  -16.1294 C   0  0  0  0  0  0  0  0  0  0  0  0
   20.4573  -14.7550  -16.1004 C   0  0  0  0  0  0  0  0  0  0  0  0
   19.7089  -15.4457  -15.1778 C   0  0  0  0  0  0  0  0  0  0  0  0
   18.8999  -14.8130  -14.2580 C   0  0  0  0  0  0  0  0  0  0  0  0
   18.8520  -13.4250  -14.2794 C   0  0  0  0  0  0  0  0  0  0  0  0
   19.5968  -12.7460  -15.1971 C   0  0  0  0  0  0  0  0  0  0  0  0
   22.6434  -11.0320  -15.8025 C   0  0  0  0  0  0  0  0  0  0  0  0
   23.2238  -11.1638  -14.6545 O   0  0  0  0  0  0  0  0  0  0  0  0
   22.1447   -9.7449  -16.0601 N   0  0  0  0  0  0  0  0  0  0  0  0
   21.3619   -9.1969  -17.1433 C   0  0  0  0  0  0  0  0  0  0  0  0
   21.6609   -7.6911  -17.1796 C   0  0  0  0  0  0  0  0  0  0  0  0
   22.8013   -7.5556  -16.1695 C   0  0  0  0  0  0  0  0  0  0  0  0
   22.3279   -8.5782  -15.1610 C   0  0  1  0  0  0  0  0  0  0  0  0
   21.0585   -8.1360  -14.5753 C   0  0  0  0  0  0  0  0  0  0  0  0
   20.8914   -7.2123  -13.5770 O   0  0  0  0  0  0  0  0  0  0  0  0
   20.0050   -8.6681  -15.0465 O   0  0  0  0  0  0  0  0  0  0  0  0
  2  5  1  0
  2  1  1  6
  3  2  1  0
  4  3  1  0
  5  6  2  0
  7  8  1  0
  7  5  1  0
  8  9  1  1
  9 10  1  0
 10 11  2  0
 11 12  1  0
 13 12  2  0
 14 13  1  0
 15 14  2  0
 15 10  1  0
 16  8  1  0
 17 16  2  0
 18 16  1  0
 18 22  1  0
 19 20  1  0
 19 18  1  0
 20 21  1  0
 21 22  1  0
 22 23  1  6
 23 24  1  0
 25 23  2  0
M  END
$$$$
