MQR.pdb
     RDKit          3D

 29 28  0  0  1  0  0  0  0  0999 V2000
   28.7684  -16.0282  -16.9091 C   0  0  0  0  0  0  0  0  0  0  0  0
   28.0808  -17.4629  -16.0832 S   0  0  0  0  0  0  0  0  0  0  0  0
   27.1552  -18.4395  -17.3262 C   0  0  0  0  0  0  0  0  0  0  0  0
   26.4376  -19.5648  -16.6866 C   0  0  0  0  0  0  0  0  0  0  0  0
   27.1956  -20.3353  -15.6523 C   0  0  2  0  0  0  0  0  0  0  0  0
   28.1063  -21.2764  -16.3490 N   0  0  0  0  0  0  0  0  0  0  0  0
   26.2068  -21.1567  -14.8661 C   0  0  0  0  0  0  0  0  0  0  0  0
   26.0508  -22.3380  -15.2689 O   0  0  0  0  0  0  0  0  0  0  0  0
   25.9121  -21.4876   -8.9029 N   0  0  0  0  0  0  0  0  0  0  0  0
   25.2189  -20.3256   -9.3143 C   0  0  0  0  0  0  0  0  0  0  0  0
   24.9901  -19.4018   -8.5009 O   0  0  0  0  0  0  0  0  0  0  0  0
   24.7481  -20.1727  -10.7133 C   0  0  0  0  0  0  0  0  0  0  0  0
   25.0656  -21.4353  -11.4736 C   0  0  0  0  0  0  0  0  0  0  0  0
   24.6096  -21.3177  -12.9404 C   0  0  2  0  0  0  0  0  0  0  0  0
   25.5352  -20.6112  -13.7751 N   0  0  0  0  0  0  0  0  0  0  0  0
   23.2271  -20.8708  -12.9830 C   0  0  0  0  0  0  0  0  0  0  0  0
   22.8585  -19.8253  -12.3397 O   0  0  0  0  0  0  0  0  0  0  0  0
   19.0656  -25.6816   -9.5204 N   0  0  0  0  0  0  0  0  0  0  0  0
   18.7630  -24.3964   -9.0255 C   0  0  0  0  0  0  0  0  0  0  0  0
   18.3070  -24.2554   -7.8349 N   0  0  0  0  0  0  0  0  0  0  0  0
   18.9682  -23.2692   -9.8573 N   0  0  0  0  0  0  0  0  0  0  0  0
   19.2246  -23.4306  -11.2568 C   0  0  0  0  0  0  0  0  0  0  0  0
   20.5667  -22.8332  -11.6324 C   0  0  0  0  0  0  0  0  0  0  0  0
   20.4133  -21.4083  -12.0540 C   0  0  0  0  0  0  0  0  0  0  0  0
   20.7564  -21.2109  -13.4907 C   0  0  2  0  0  0  0  0  0  0  0  0
   22.1918  -21.5209  -13.7112 N   0  0  0  0  0  0  0  0  0  0  0  0
   20.5820  -19.8190  -13.9142 C   0  0  0  0  0  0  0  0  0  0  0  0
   21.6762  -19.0299  -14.1848 O   0  0  0  0  0  0  0  0  0  0  0  0
   19.4429  -19.3219  -14.0360 O   0  0  0  0  0  0  0  0  0  0  0  0
  2  1  1  0
  3  4  1  0
  3  2  1  0
  4  5  1  0
  5  7  1  0
  5  6  1  6
  7  8  2  0
 10 12  1  0
 10  9  1  0
 11 10  2  0
 13 12  1  0
 14 13  1  1
 15 14  1  0
 15  7  1  0
 16 17  2  0
 16 14  1  0
 19 21  1  0
 19 18  1  0
 20 19  2  0
 22 21  1  0
 23 22  1  0
 23 24  1  0
 25 24  1  1
 25 26  1  0
 26 16  1  0
 27 25  1  0
 27 28  1  0
 29 27  2  0
M  END
$$$$
