MQR.pdb
     RDKit          3D

 29 28  0  0  1  0  0  0  0  0999 V2000
   26.5750  -16.2395  -15.0897 C   0  0  0  0  0  0  0  0  0  0  0  0
   27.7002  -16.7476  -16.3893 S   0  0  0  0  0  0  0  0  0  0  0  0
   28.4010  -18.3750  -15.9243 C   0  0  0  0  0  0  0  0  0  0  0  0
   27.4478  -19.1427  -15.0923 C   0  0  0  0  0  0  0  0  0  0  0  0
   27.9196  -20.4728  -14.5958 C   0  0  2  0  0  0  0  0  0  0  0  0
   28.2421  -21.3193  -15.7705 N   0  0  0  0  0  0  0  0  0  0  0  0
   26.7777  -21.1278  -13.8625 C   0  0  0  0  0  0  0  0  0  0  0  0
   26.0250  -21.8433  -14.5720 O   0  0  0  0  0  0  0  0  0  0  0  0
   26.0121  -21.1019   -7.5717 N   0  0  0  0  0  0  0  0  0  0  0  0
   26.3003  -19.9244   -8.3000 C   0  0  0  0  0  0  0  0  0  0  0  0
   26.7467  -18.9107   -7.7165 O   0  0  0  0  0  0  0  0  0  0  0  0
   26.0822  -19.8613   -9.7665 C   0  0  0  0  0  0  0  0  0  0  0  0
   25.5809  -21.2016  -10.2415 C   0  0  0  0  0  0  0  0  0  0  0  0
   25.3975  -21.2042  -11.7710 C   0  0  2  0  0  0  0  0  0  0  0  0
   26.6035  -20.9323  -12.4949 N   0  0  0  0  0  0  0  0  0  0  0  0
   24.2369  -20.4018  -12.1207 C   0  0  0  0  0  0  0  0  0  0  0  0
   24.3734  -19.1817  -12.4890 O   0  0  0  0  0  0  0  0  0  0  0  0
   21.1603  -24.2184  -18.4539 N   0  0  0  0  0  0  0  0  0  0  0  0
   20.0955  -23.3565  -18.1197 C   0  0  0  0  0  0  0  0  0  0  0  0
   19.1142  -23.2002  -18.9309 N   0  0  0  0  0  0  0  0  0  0  0  0
   20.1248  -22.6689  -16.8824 N   0  0  0  0  0  0  0  0  0  0  0  0
   21.2133  -22.8520  -15.9701 C   0  0  0  0  0  0  0  0  0  0  0  0
   20.9632  -22.1052  -14.6743 C   0  0  0  0  0  0  0  0  0  0  0  0
   22.0960  -21.1807  -14.3683 C   0  0  0  0  0  0  0  0  0  0  0  0
   21.8846  -20.4418  -13.0915 C   0  0  2  0  0  0  0  0  0  0  0  0
   22.8939  -20.8708  -12.0902 N   0  0  0  0  0  0  0  0  0  0  0  0
   20.5808  -20.7372  -12.4916 C   0  0  0  0  0  0  0  0  0  0  0  0
   19.4208  -20.3252  -13.1062 O   0  0  0  0  0  0  0  0  0  0  0  0
   20.4956  -21.3642  -11.4149 O   0  0  0  0  0  0  0  0  0  0  0  0
  2  1  1  0
  3  4  1  0
  3  2  1  0
  4  5  1  0
  5  7  1  0
  5  6  1  6
  7  8  2  0
 10 12  1  0
 10  9  1  0
 11 10  2  0
 13 12  1  0
 14 13  1  1
 15 14  1  0
 15  7  1  0
 16 17  2  0
 16 14  1  0
 19 21  1  0
 19 18  1  0
 20 19  2  0
 22 21  1  0
 23 22  1  0
 23 24  1  0
 25 24  1  6
 25 26  1  0
 26 16  1  0
 27 25  1  0
 27 28  1  0
 29 27  2  0
M  END
$$$$
