MQR.pdb
     RDKit          3D

 29 28  0  0  1  0  0  0  0  0999 V2000
   29.5602  -21.0965   -7.5646 C   0  0  0  0  0  0  0  0  0  0  0  0
   28.7364  -19.7842   -6.6634 S   0  0  0  0  0  0  0  0  0  0  0  0
   26.9898  -19.7325   -7.2134 C   0  0  0  0  0  0  0  0  0  0  0  0
   26.8859  -19.9857   -8.6679 C   0  0  0  0  0  0  0  0  0  0  0  0
   25.5137  -19.9133   -9.2593 C   0  0  2  0  0  0  0  0  0  0  0  0
   24.6968  -21.0036   -8.6725 N   0  0  0  0  0  0  0  0  0  0  0  0
   25.6297  -20.1771  -10.7384 C   0  0  0  0  0  0  0  0  0  0  0  0
   26.3893  -19.3943  -11.3647 O   0  0  0  0  0  0  0  0  0  0  0  0
   25.3682  -25.3736  -14.1212 N   0  0  0  0  0  0  0  0  0  0  0  0
   25.2354  -24.3599  -15.0984 C   0  0  0  0  0  0  0  0  0  0  0  0
   25.3075  -24.6395  -16.3165 O   0  0  0  0  0  0  0  0  0  0  0  0
   25.0083  -22.9467  -14.7064 C   0  0  0  0  0  0  0  0  0  0  0  0
   24.9227  -22.8671  -13.2032 C   0  0  0  0  0  0  0  0  0  0  0  0
   24.7599  -21.4060  -12.7431 C   0  0  2  0  0  0  0  0  0  0  0  0
   24.9313  -21.2252  -11.3322 N   0  0  0  0  0  0  0  0  0  0  0  0
   23.5513  -20.8469  -13.3258 C   0  0  0  0  0  0  0  0  0  0  0  0
   22.4107  -21.0389  -12.7736 O   0  0  0  0  0  0  0  0  0  0  0  0
   21.6889  -13.8883  -18.0444 N   0  0  0  0  0  0  0  0  0  0  0  0
   20.5462  -14.6626  -18.3323 C   0  0  0  0  0  0  0  0  0  0  0  0
   19.4681  -14.0953  -18.7340 N   0  0  0  0  0  0  0  0  0  0  0  0
   20.6050  -16.0680  -18.1720 N   0  0  0  0  0  0  0  0  0  0  0  0
   21.7734  -16.6936  -17.6298 C   0  0  0  0  0  0  0  0  0  0  0  0
   21.3961  -17.7519  -16.6115 C   0  0  0  0  0  0  0  0  0  0  0  0
   22.6165  -18.3973  -16.0408 C   0  0  0  0  0  0  0  0  0  0  0  0
   22.2804  -19.3836  -14.9755 C   0  0  2  0  0  0  0  0  0  0  0  0
   23.5164  -20.0654  -14.5144 N   0  0  0  0  0  0  0  0  0  0  0  0
   21.4002  -20.4476  -15.4655 C   0  0  0  0  0  0  0  0  0  0  0  0
   20.0388  -20.3661  -15.2829 O   0  0  0  0  0  0  0  0  0  0  0  0
   21.8646  -21.4462  -16.0544 O   0  0  0  0  0  0  0  0  0  0  0  0
  2  1  1  0
  3  4  1  0
  3  2  1  0
  4  5  1  0
  5  7  1  0
  5  6  1  1
  7  8  2  0
 10 12  1  0
 10  9  1  0
 11 10  2  0
 13 12  1  0
 14 13  1  1
 15 14  1  0
 15  7  1  0
 16 17  2  0
 16 14  1  0
 19 21  1  0
 19 18  1  0
 20 19  2  0
 22 21  1  0
 23 22  1  0
 23 24  1  0
 25 24  1  6
 25 26  1  0
 26 16  1  0
 27 25  1  0
 27 28  1  0
 29 27  2  0
M  END
$$$$
