MQR.pdb
     RDKit          3D

 29 28  0  0  1  0  0  0  0  0999 V2000
   29.3522  -21.1525   -9.6350 C   0  0  0  0  0  0  0  0  0  0  0  0
   29.3759  -21.9974  -11.2157 S   0  0  0  0  0  0  0  0  0  0  0  0
   28.7854  -20.8232  -12.4918 C   0  0  0  0  0  0  0  0  0  0  0  0
   27.3581  -20.4913  -12.2846 C   0  0  0  0  0  0  0  0  0  0  0  0
   26.3673  -21.5420  -12.6752 C   0  0  2  0  0  0  0  0  0  0  0  0
   26.5827  -21.8751  -14.1046 N   0  0  0  0  0  0  0  0  0  0  0  0
   24.9871  -20.9506  -12.5486 C   0  0  0  0  0  0  0  0  0  0  0  0
   24.7187  -20.4513  -11.4258 O   0  0  0  0  0  0  0  0  0  0  0  0
   21.9783  -17.6667  -16.6381 N   0  0  0  0  0  0  0  0  0  0  0  0
   23.2013  -17.5541  -15.9370 C   0  0  0  0  0  0  0  0  0  0  0  0
   24.0284  -16.6654  -16.2428 O   0  0  0  0  0  0  0  0  0  0  0  0
   23.5331  -18.4814  -14.8270 C   0  0  0  0  0  0  0  0  0  0  0  0
   22.4113  -19.4770  -14.6737 C   0  0  0  0  0  0  0  0  0  0  0  0
   22.7456  -20.5110  -13.5817 C   0  0  2  0  0  0  0  0  0  0  0  0
   24.1013  -20.9723  -13.6227 N   0  0  0  0  0  0  0  0  0  0  0  0
   21.7136  -21.5343  -13.5521 C   0  0  0  0  0  0  0  0  0  0  0  0
   21.7649  -22.5369  -14.3489 O   0  0  0  0  0  0  0  0  0  0  0  0
   19.4747  -25.1013   -7.5917 N   0  0  0  0  0  0  0  0  0  0  0  0
   18.3880  -24.2103   -7.7074 C   0  0  0  0  0  0  0  0  0  0  0  0
   17.6626  -23.9425   -6.6840 N   0  0  0  0  0  0  0  0  0  0  0  0
   18.1098  -23.6185   -8.9632 N   0  0  0  0  0  0  0  0  0  0  0  0
   17.9922  -24.4245  -10.1410 C   0  0  0  0  0  0  0  0  0  0  0  0
   17.7033  -23.5654  -11.3566 C   0  0  0  0  0  0  0  0  0  0  0  0
   18.6955  -22.4542  -11.4682 C   0  0  0  0  0  0  0  0  0  0  0  0
   19.6274  -22.6505  -12.6144 C   0  0  2  0  0  0  0  0  0  0  0  0
   20.5939  -21.5247  -12.6741 N   0  0  0  0  0  0  0  0  0  0  0  0
   18.9287  -22.6419  -13.9023 C   0  0  0  0  0  0  0  0  0  0  0  0
   18.6281  -23.8231  -14.5407 O   0  0  0  0  0  0  0  0  0  0  0  0
   18.5947  -21.5681  -14.4454 O   0  0  0  0  0  0  0  0  0  0  0  0
  2  1  1  0
  3  4  1  0
  3  2  1  0
  4  5  1  0
  5  7  1  0
  5  6  1  6
  7  8  2  0
 10 12  1  0
 10  9  1  0
 11 10  2  0
 13 12  1  0
 14 13  1  6
 15 14  1  0
 15  7  1  0
 16 17  2  0
 16 14  1  0
 19 21  1  0
 19 18  1  0
 20 19  2  0
 22 21  1  0
 23 22  1  0
 23 24  1  0
 25 24  1  1
 25 26  1  0
 26 16  1  0
 27 25  1  0
 27 28  1  0
 29 27  2  0
M  END
$$$$
