MQR.pdb
     RDKit          3D

 29 28  0  0  1  0  0  0  0  0999 V2000
   30.2173  -17.8884  -16.4790 C   0  0  0  0  0  0  0  0  0  0  0  0
   28.8612  -16.8219  -16.9656 S   0  0  0  0  0  0  0  0  0  0  0  0
   27.6206  -17.8493  -17.8379 C   0  0  0  0  0  0  0  0  0  0  0  0
   26.7965  -18.6138  -16.8753 C   0  0  0  0  0  0  0  0  0  0  0  0
   27.4548  -19.7870  -16.2207 C   0  0  2  0  0  0  0  0  0  0  0  0
   27.7717  -20.7868  -17.2697 N   0  0  0  0  0  0  0  0  0  0  0  0
   26.4590  -20.4145  -15.2798 C   0  0  0  0  0  0  0  0  0  0  0  0
   25.7481  -21.3237  -15.7799 O   0  0  0  0  0  0  0  0  0  0  0  0
   26.5422  -20.1086   -8.9296 N   0  0  0  0  0  0  0  0  0  0  0  0
   25.3282  -20.7775   -9.2104 C   0  0  0  0  0  0  0  0  0  0  0  0
   24.6460  -21.2700   -8.2835 O   0  0  0  0  0  0  0  0  0  0  0  0
   24.8350  -20.9114  -10.6037 C   0  0  0  0  0  0  0  0  0  0  0  0
   25.8772  -20.3599  -11.5433 C   0  0  0  0  0  0  0  0  0  0  0  0
   25.4052  -20.4692  -13.0056 C   0  0  2  0  0  0  0  0  0  0  0  0
   26.3648  -19.9919  -13.9564 N   0  0  0  0  0  0  0  0  0  0  0  0
   24.0582  -19.9350  -13.1206 C   0  0  0  0  0  0  0  0  0  0  0  0
   23.8221  -18.9108  -13.8541 O   0  0  0  0  0  0  0  0  0  0  0  0
   18.0983  -16.8400  -16.0924 N   0  0  0  0  0  0  0  0  0  0  0  0
   18.6627  -17.5463  -17.1745 C   0  0  0  0  0  0  0  0  0  0  0  0
   17.9973  -17.7010  -18.2602 N   0  0  0  0  0  0  0  0  0  0  0  0
   19.9678  -18.0801  -17.0464 N   0  0  0  0  0  0  0  0  0  0  0  0
   20.7217  -17.8868  -15.8444 C   0  0  0  0  0  0  0  0  0  0  0  0
   20.6403  -19.1109  -14.9532 C   0  0  0  0  0  0  0  0  0  0  0  0
   21.5276  -18.9585  -13.7611 C   0  0  0  0  0  0  0  0  0  0  0  0
   21.5339  -20.1816  -12.9096 C   0  0  2  0  0  0  0  0  0  0  0  0
   22.9187  -20.4728  -12.4595 N   0  0  0  0  0  0  0  0  0  0  0  0
   21.0985  -21.3705  -13.6471 C   0  0  0  0  0  0  0  0  0  0  0  0
   22.0029  -22.1109  -14.3731 O   0  0  0  0  0  0  0  0  0  0  0  0
   19.9037  -21.7337  -13.6337 O   0  0  0  0  0  0  0  0  0  0  0  0
  2  1  1  0
  3  4  1  0
  3  2  1  0
  4  5  1  0
  5  7  1  0
  5  6  1  6
  7  8  2  0
 10 12  1  0
 10  9  1  0
 11 10  2  0
 13 12  1  0
 14 13  1  1
 15 14  1  0
 15  7  1  0
 16 17  2  0
 16 14  1  0
 19 21  1  0
 19 18  1  0
 20 19  2  0
 22 21  1  0
 23 22  1  0
 23 24  1  0
 25 24  1  6
 25 26  1  0
 26 16  1  0
 27 25  1  0
 27 28  1  0
 29 27  2  0
M  END
$$$$
