MQR.pdb
     RDKit          3D

 29 28  0  0  1  0  0  0  0  0999 V2000
   28.2256  -20.3578   -7.5220 C   0  0  0  0  0  0  0  0  0  0  0  0
   29.2106  -21.5520   -8.4257 S   0  0  0  0  0  0  0  0  0  0  0  0
   28.9656  -21.2466  -10.2152 C   0  0  0  0  0  0  0  0  0  0  0  0
   27.5364  -21.0136  -10.5209 C   0  0  0  0  0  0  0  0  0  0  0  0
   27.1758  -20.8985  -11.9682 C   0  0  2  0  0  0  0  0  0  0  0  0
   27.9928  -19.8139  -12.5655 N   0  0  0  0  0  0  0  0  0  0  0  0
   25.7306  -20.4808  -12.0562 C   0  0  0  0  0  0  0  0  0  0  0  0
   25.4008  -19.5290  -11.3030 O   0  0  0  0  0  0  0  0  0  0  0  0
   22.4285  -19.2962  -16.9399 N   0  0  0  0  0  0  0  0  0  0  0  0
   21.4749  -19.1581  -15.9047 C   0  0  0  0  0  0  0  0  0  0  0  0
   20.3885  -18.5732  -16.1167 O   0  0  0  0  0  0  0  0  0  0  0  0
   21.7367  -19.7004  -14.5484 C   0  0  0  0  0  0  0  0  0  0  0  0
   23.1501  -20.2229  -14.4984 C   0  0  0  0  0  0  0  0  0  0  0  0
   23.4731  -20.7884  -13.1023 C   0  0  2  0  0  0  0  0  0  0  0  0
   24.8540  -21.1262  -12.9245 N   0  0  0  0  0  0  0  0  0  0  0  0
   22.5051  -21.8177  -12.7612 C   0  0  0  0  0  0  0  0  0  0  0  0
   22.6718  -23.0267  -13.1531 O   0  0  0  0  0  0  0  0  0  0  0  0
   18.5314  -24.8390   -7.2955 N   0  0  0  0  0  0  0  0  0  0  0  0
   17.1962  -24.8978   -7.7450 C   0  0  0  0  0  0  0  0  0  0  0  0
   16.4232  -25.8408   -7.3467 N   0  0  0  0  0  0  0  0  0  0  0  0
   16.7230  -23.9063   -8.6381 N   0  0  0  0  0  0  0  0  0  0  0  0
   17.5828  -22.8495   -9.0790 C   0  0  0  0  0  0  0  0  0  0  0  0
   18.5273  -23.3373  -10.1603 C   0  0  0  0  0  0  0  0  0  0  0  0
   19.4283  -22.2353  -10.6136 C   0  0  0  0  0  0  0  0  0  0  0  0
   20.3773  -22.6885  -11.6695 C   0  0  2  0  0  0  0  0  0  0  0  0
   21.3287  -21.5950  -11.9923 N   0  0  0  0  0  0  0  0  0  0  0  0
   19.6949  -23.0042  -12.9271 C   0  0  0  0  0  0  0  0  0  0  0  0
   19.3161  -24.2965  -13.2098 O   0  0  0  0  0  0  0  0  0  0  0  0
   19.4456  -22.1124  -13.7650 O   0  0  0  0  0  0  0  0  0  0  0  0
  2  1  1  0
  3  4  1  0
  3  2  1  0
  4  5  1  0
  5  7  1  0
  5  6  1  1
  7  8  2  0
 10 12  1  0
 10  9  1  0
 11 10  2  0
 13 12  1  0
 14 13  1  6
 15 14  1  0
 15  7  1  0
 16 17  2  0
 16 14  1  0
 19 21  1  0
 19 18  1  0
 20 19  2  0
 22 21  1  0
 23 22  1  0
 23 24  1  0
 25 24  1  1
 25 26  1  0
 26 16  1  0
 27 25  1  0
 27 28  1  0
 29 27  2  0
M  END
$$$$
