MQR.pdb
     RDKit          3D

 29 28  0  0  1  0  0  0  0  0999 V2000
   24.2936  -25.6790  -16.5451 C   0  0  0  0  0  0  0  0  0  0  0  0
   25.9744  -25.3453  -17.0711 S   0  0  0  0  0  0  0  0  0  0  0  0
   26.5710  -23.8757  -16.1546 C   0  0  0  0  0  0  0  0  0  0  0  0
   25.5907  -23.4597  -15.1270 C   0  0  0  0  0  0  0  0  0  0  0  0
   25.0445  -22.0725  -15.2516 C   0  0  2  0  0  0  0  0  0  0  0  0
   26.1068  -21.1174  -14.8515 N   0  0  0  0  0  0  0  0  0  0  0  0
   23.9101  -21.9288  -14.2701 C   0  0  0  0  0  0  0  0  0  0  0  0
   24.2382  -21.9967  -13.0578 O   0  0  0  0  0  0  0  0  0  0  0  0
   20.5803  -17.2488  -15.5499 N   0  0  0  0  0  0  0  0  0  0  0  0
   20.4127  -17.9686  -14.3441 C   0  0  0  0  0  0  0  0  0  0  0  0
   19.4999  -17.6622  -13.5439 O   0  0  0  0  0  0  0  0  0  0  0  0
   21.3097  -19.0993  -13.9991 C   0  0  0  0  0  0  0  0  0  0  0  0
   20.5668  -20.3930  -14.2169 C   0  0  0  0  0  0  0  0  0  0  0  0
   21.4580  -21.5993  -13.8652 C   0  0  2  0  0  0  0  0  0  0  0  0
   22.6047  -21.7333  -14.7135 N   0  0  0  0  0  0  0  0  0  0  0  0
   20.6293  -22.7826  -13.7041 C   0  0  0  0  0  0  0  0  0  0  0  0
   20.2976  -23.4909  -14.7195 O   0  0  0  0  0  0  0  0  0  0  0  0
   18.2446  -26.8214   -6.5129 N   0  0  0  0  0  0  0  0  0  0  0  0
   18.3107  -25.5273   -7.0689 C   0  0  0  0  0  0  0  0  0  0  0  0
   18.2835  -24.4962   -6.3062 N   0  0  0  0  0  0  0  0  0  0  0  0
   18.4067  -25.3825   -8.4740 N   0  0  0  0  0  0  0  0  0  0  0  0
   18.1537  -26.4928   -9.3421 C   0  0  0  0  0  0  0  0  0  0  0  0
   18.2493  -26.0741  -10.7963 C   0  0  0  0  0  0  0  0  0  0  0  0
   19.1410  -24.8853  -10.9480 C   0  0  0  0  0  0  0  0  0  0  0  0
   19.2200  -24.4232  -12.3626 C   0  0  2  0  0  0  0  0  0  0  0  0
   20.1268  -23.2512  -12.4581 N   0  0  0  0  0  0  0  0  0  0  0  0
   17.9234  -23.9632  -12.8668 C   0  0  0  0  0  0  0  0  0  0  0  0
   17.1387  -24.7935  -13.6337 O   0  0  0  0  0  0  0  0  0  0  0  0
   17.5062  -22.8136  -12.6138 O   0  0  0  0  0  0  0  0  0  0  0  0
  2  1  1  0
  3  4  1  0
  3  2  1  0
  4  5  1  0
  5  7  1  0
  5  6  1  1
  7  8  2  0
 10 12  1  0
 10  9  1  0
 11 10  2  0
 13 12  1  0
 14 13  1  6
 15 14  1  0
 15  7  1  0
 16 17  2  0
 16 14  1  0
 19 21  1  0
 19 18  1  0
 20 19  2  0
 22 21  1  0
 23 22  1  0
 23 24  1  0
 25 24  1  1
 25 26  1  0
 26 16  1  0
 27 25  1  0
 27 28  1  0
 29 27  2  0
M  END
$$$$
