MQR.pdb
     RDKit          3D

 29 28  0  0  1  0  0  0  0  0999 V2000
   27.2611  -14.1039  -14.6481 C   0  0  0  0  0  0  0  0  0  0  0  0
   27.3201  -13.1799  -16.1829 S   0  0  0  0  0  0  0  0  0  0  0  0
   26.3825  -14.1208  -17.4443 C   0  0  0  0  0  0  0  0  0  0  0  0
   25.1473  -14.6950  -16.8654 C   0  0  0  0  0  0  0  0  0  0  0  0
   24.2829  -15.4870  -17.7947 C   0  0  2  0  0  0  0  0  0  0  0  0
   23.6726  -14.5522  -18.7715 N   0  0  0  0  0  0  0  0  0  0  0  0
   23.1655  -16.0947  -16.9869 C   0  0  0  0  0  0  0  0  0  0  0  0
   22.5404  -15.2918  -16.2475 O   0  0  0  0  0  0  0  0  0  0  0  0
   18.6686  -19.3941  -18.9355 N   0  0  0  0  0  0  0  0  0  0  0  0
   18.7660  -18.0094  -18.6653 C   0  0  0  0  0  0  0  0  0  0  0  0
   17.9357  -17.2081  -19.1510 O   0  0  0  0  0  0  0  0  0  0  0  0
   19.8491  -17.4741  -17.8036 C   0  0  0  0  0  0  0  0  0  0  0  0
   20.6896  -18.6240  -17.3089 C   0  0  0  0  0  0  0  0  0  0  0  0
   21.8145  -18.1192  -16.3853 C   0  0  2  0  0  0  0  0  0  0  0  0
   22.8746  -17.4531  -17.0819 N   0  0  0  0  0  0  0  0  0  0  0  0
   22.2054  -19.1816  -15.4736 C   0  0  0  0  0  0  0  0  0  0  0  0
   23.3533  -19.7422  -15.5777 O   0  0  0  0  0  0  0  0  0  0  0  0
   26.9944  -22.3079  -10.6519 N   0  0  0  0  0  0  0  0  0  0  0  0
   26.9455  -21.4467  -11.7674 C   0  0  0  0  0  0  0  0  0  0  0  0
   27.8184  -21.5520  -12.7014 N   0  0  0  0  0  0  0  0  0  0  0  0
   25.9247  -20.4685  -11.8414 N   0  0  0  0  0  0  0  0  0  0  0  0
   24.7839  -20.5358  -10.9785 C   0  0  0  0  0  0  0  0  0  0  0  0
   23.5882  -21.1161  -11.7084 C   0  0  0  0  0  0  0  0  0  0  0  0
   23.0617  -20.1477  -12.7167 C   0  0  0  0  0  0  0  0  0  0  0  0
   21.8826  -20.6900  -13.4492 C   0  0  2  0  0  0  0  0  0  0  0  0
   21.3886  -19.6821  -14.4215 N   0  0  0  0  0  0  0  0  0  0  0  0
   20.7547  -20.9640  -12.5549 C   0  0  0  0  0  0  0  0  0  0  0  0
   20.5969  -22.2099  -11.9928 O   0  0  0  0  0  0  0  0  0  0  0  0
   19.9166  -20.0778  -12.2868 O   0  0  0  0  0  0  0  0  0  0  0  0
  2  1  1  0
  3  4  1  0
  3  2  1  0
  4  5  1  0
  5  7  1  0
  5  6  1  6
  7  8  2  0
 10 12  1  0
 10  9  1  0
 11 10  2  0
 13 12  1  0
 14 13  1  6
 15 14  1  0
 15  7  1  0
 16 17  2  0
 16 14  1  0
 19 21  1  0
 19 18  1  0
 20 19  2  0
 22 21  1  0
 23 22  1  0
 23 24  1  0
 25 24  1  1
 25 26  1  0
 26 16  1  0
 27 25  1  0
 27 28  1  0
 29 27  2  0
M  END
$$$$
