MQR.pdb
     RDKit          3D

 29 28  0  0  1  0  0  0  0  0999 V2000
   11.5101  -10.7696   -8.7963 C   0  0  0  0  0  0  0  0  0  0  0  0
   13.2512  -10.4200   -9.0402 S   0  0  0  0  0  0  0  0  0  0  0  0
   13.4390   -9.5970  -10.6660 C   0  0  0  0  0  0  0  0  0  0  0  0
   14.8682   -9.4376  -11.0158 C   0  0  0  0  0  0  0  0  0  0  0  0
   15.1626   -8.8588  -12.3636 C   0  0  2  0  0  0  0  0  0  0  0  0
   14.7844   -9.8594  -13.3914 N   0  0  0  0  0  0  0  0  0  0  0  0
   16.6508   -8.6442  -12.4631 C   0  0  0  0  0  0  0  0  0  0  0  0
   17.1472   -7.9089  -11.5716 O   0  0  0  0  0  0  0  0  0  0  0  0
   20.3616  -11.0445  -17.1096 N   0  0  0  0  0  0  0  0  0  0  0  0
   21.2163  -10.1385  -16.4398 C   0  0  0  0  0  0  0  0  0  0  0  0
   22.4027   -9.9923  -16.8118 O   0  0  0  0  0  0  0  0  0  0  0  0
   20.7308   -9.3424  -15.2854 C   0  0  0  0  0  0  0  0  0  0  0  0
   19.2784   -9.6688  -15.0464 C   0  0  0  0  0  0  0  0  0  0  0  0
   18.7457   -8.9141  -13.8136 C   0  0  2  0  0  0  0  0  0  0  0  0
   17.3896   -9.2376  -13.4833 N   0  0  0  0  0  0  0  0  0  0  0  0
   19.0631   -7.5009  -13.9369 C   0  0  0  0  0  0  0  0  0  0  0  0
   18.4841   -6.7761  -14.8213 O   0  0  0  0  0  0  0  0  0  0  0  0
   16.7512   -1.1280   -9.3245 N   0  0  0  0  0  0  0  0  0  0  0  0
   17.5541   -0.4624  -10.2736 C   0  0  0  0  0  0  0  0  0  0  0  0
   17.5318    0.8178  -10.3519 N   0  0  0  0  0  0  0  0  0  0  0  0
   18.3809   -1.2232  -11.1350 N   0  0  0  0  0  0  0  0  0  0  0  0
   18.3132   -2.6535  -11.1380 C   0  0  0  0  0  0  0  0  0  0  0  0
   19.2681   -3.2373  -12.1610 C   0  0  0  0  0  0  0  0  0  0  0  0
   19.1745   -4.7280  -12.1833 C   0  0  0  0  0  0  0  0  0  0  0  0
   20.1378   -5.3338  -13.1456 C   0  0  2  0  0  0  0  0  0  0  0  0
   20.0064   -6.8128  -13.1236 N   0  0  0  0  0  0  0  0  0  0  0  0
   21.5298   -5.0541  -12.7837 C   0  0  0  0  0  0  0  0  0  0  0  0
   22.0282   -3.7743  -12.8657 O   0  0  0  0  0  0  0  0  0  0  0  0
   22.2895   -5.9668  -12.3970 O   0  0  0  0  0  0  0  0  0  0  0  0
  2  1  1  0
  3  4  1  0
  3  2  1  0
  4  5  1  0
  5  7  1  0
  5  6  1  6
  7  8  2  0
 10 12  1  0
 10  9  1  0
 11 10  2  0
 13 12  1  0
 14 13  1  6
 15 14  1  0
 15  7  1  0
 16 17  2  0
 16 14  1  0
 19 21  1  0
 19 18  1  0
 20 19  2  0
 22 21  1  0
 23 22  1  0
 23 24  1  0
 25 24  1  1
 25 26  1  0
 26 16  1  0
 27 25  1  0
 27 28  1  0
 29 27  2  0
M  END
$$$$
