MQR.pdb
     RDKit          3D

 29 28  0  0  1  0  0  0  0  0999 V2000
   30.5783  -21.4136   -8.6494 C   0  0  0  0  0  0  0  0  0  0  0  0
   30.5220  -21.3626  -10.4402 S   0  0  0  0  0  0  0  0  0  0  0  0
   29.2183  -22.5227  -10.9969 C   0  0  0  0  0  0  0  0  0  0  0  0
   28.2377  -21.8374  -11.8682 C   0  0  0  0  0  0  0  0  0  0  0  0
   27.5061  -20.6804  -11.2647 C   0  0  2  0  0  0  0  0  0  0  0  0
   26.5328  -21.2098  -10.2783 N   0  0  0  0  0  0  0  0  0  0  0  0
   26.7222  -20.0032  -12.3591 C   0  0  0  0  0  0  0  0  0  0  0  0
   25.4935  -20.2710  -12.3830 O   0  0  0  0  0  0  0  0  0  0  0  0
   29.2360  -16.0546  -16.7393 N   0  0  0  0  0  0  0  0  0  0  0  0
   27.8546  -16.0505  -17.0422 C   0  0  0  0  0  0  0  0  0  0  0  0
   27.4025  -15.2957  -17.9328 O   0  0  0  0  0  0  0  0  0  0  0  0
   26.9112  -16.9364  -16.3160 C   0  0  0  0  0  0  0  0  0  0  0  0
   27.6690  -17.6800  -15.2455 C   0  0  0  0  0  0  0  0  0  0  0  0
   26.7049  -18.4885  -14.3567 C   0  0  2  0  0  0  0  0  0  0  0  0
   27.3497  -19.1461  -13.2593 N   0  0  0  0  0  0  0  0  0  0  0  0
   25.8506  -19.3133  -15.1950 C   0  0  0  0  0  0  0  0  0  0  0  0
   26.3412  -20.2856  -15.8709 O   0  0  0  0  0  0  0  0  0  0  0  0
   19.4976  -21.7471  -11.4995 N   0  0  0  0  0  0  0  0  0  0  0  0
   19.0411  -21.3085  -12.7595 C   0  0  0  0  0  0  0  0  0  0  0  0
   17.8297  -20.9122  -12.9037 N   0  0  0  0  0  0  0  0  0  0  0  0
   19.9342  -21.3120  -13.8580 N   0  0  0  0  0  0  0  0  0  0  0  0
   21.2893  -21.7462  -13.6970 C   0  0  0  0  0  0  0  0  0  0  0  0
   22.0389  -21.6758  -15.0132 C   0  0  0  0  0  0  0  0  0  0  0  0
   22.2900  -20.2563  -15.4049 C   0  0  0  0  0  0  0  0  0  0  0  0
   23.6005  -20.0907  -16.0950 C   0  0  2  0  0  0  0  0  0  0  0  0
   24.4470  -19.1312  -15.3414 N   0  0  0  0  0  0  0  0  0  0  0  0
   23.4504  -19.5189  -17.4357 C   0  0  0  0  0  0  0  0  0  0  0  0
   23.1379  -20.3243  -18.5066 O   0  0  0  0  0  0  0  0  0  0  0  0
   23.6040  -18.2955  -17.6338 O   0  0  0  0  0  0  0  0  0  0  0  0
  2  1  1  0
  3  4  1  0
  3  2  1  0
  4  5  1  0
  5  7  1  0
  5  6  1  1
  7  8  2  0
 10 12  1  0
 10  9  1  0
 11 10  2  0
 13 12  1  0
 14 13  1  6
 15 14  1  0
 15  7  1  0
 16 17  2  0
 16 14  1  0
 19 21  1  0
 19 18  1  0
 20 19  2  0
 22 21  1  0
 23 22  1  0
 23 24  1  0
 25 24  1  1
 25 26  1  0
 26 16  1  0
 27 25  1  0
 27 28  1  0
 29 27  2  0
M  END
$$$$
