MQR.pdb
     RDKit          3D

 29 28  0  0  1  0  0  0  0  0999 V2000
   29.3612  -21.6259   -4.3619 C   0  0  0  0  0  0  0  0  0  0  0  0
   28.8535  -19.9076   -4.3067 S   0  0  0  0  0  0  0  0  0  0  0  0
   29.0085  -19.2191   -5.9971 C   0  0  0  0  0  0  0  0  0  0  0  0
   28.2787  -20.0542   -6.9770 C   0  0  0  0  0  0  0  0  0  0  0  0
   27.7549  -19.3523   -8.1899 C   0  0  2  0  0  0  0  0  0  0  0  0
   26.7683  -18.3362   -7.7487 N   0  0  0  0  0  0  0  0  0  0  0  0
   27.0212  -20.3635   -9.0325 C   0  0  0  0  0  0  0  0  0  0  0  0
   27.6349  -21.4434   -9.2298 O   0  0  0  0  0  0  0  0  0  0  0  0
   21.0334  -19.8303  -11.0650 N   0  0  0  0  0  0  0  0  0  0  0  0
   21.4673  -20.4083   -9.8494 C   0  0  0  0  0  0  0  0  0  0  0  0
   20.6515  -20.6327   -8.9267 O   0  0  0  0  0  0  0  0  0  0  0  0
   22.8931  -20.7616   -9.6383 C   0  0  0  0  0  0  0  0  0  0  0  0
   23.6745  -20.3870  -10.8721 C   0  0  0  0  0  0  0  0  0  0  0  0
   25.1702  -20.7067  -10.6881 C   0  0  2  0  0  0  0  0  0  0  0  0
   25.7533  -20.0854   -9.5364 N   0  0  0  0  0  0  0  0  0  0  0  0
   25.8651  -20.5137  -11.9502 C   0  0  0  0  0  0  0  0  0  0  0  0
   26.4604  -19.4077  -12.2055 O   0  0  0  0  0  0  0  0  0  0  0  0
   31.5429  -25.0390  -16.4513 N   0  0  0  0  0  0  0  0  0  0  0  0
   31.4791  -23.8158  -17.1497 C   0  0  0  0  0  0  0  0  0  0  0  0
   32.0511  -23.6952  -18.2915 N   0  0  0  0  0  0  0  0  0  0  0  0
   30.7786  -22.7275  -16.5756 N   0  0  0  0  0  0  0  0  0  0  0  0
   29.9802  -22.9102  -15.4009 C   0  0  0  0  0  0  0  0  0  0  0  0
   28.6914  -22.1171  -15.4953 C   0  0  0  0  0  0  0  0  0  0  0  0
   27.9373  -22.1761  -14.2070 C   0  0  0  0  0  0  0  0  0  0  0  0
   26.7521  -21.2725  -14.2118 C   0  0  2  0  0  0  0  0  0  0  0  0
   25.9498  -21.4905  -12.9814 N   0  0  0  0  0  0  0  0  0  0  0  0
   25.8476  -21.5536  -15.3297 C   0  0  0  0  0  0  0  0  0  0  0  0
   26.0899  -21.0193  -16.5743 O   0  0  0  0  0  0  0  0  0  0  0  0
   24.8424  -22.2787  -15.1769 O   0  0  0  0  0  0  0  0  0  0  0  0
  2  1  1  0
  3  4  1  0
  3  2  1  0
  4  5  1  0
  5  7  1  0
  5  6  1  1
  7  8  2  0
 10 12  1  0
 10  9  1  0
 11 10  2  0
 13 12  1  0
 14 13  1  6
 15 14  1  0
 15  7  1  0
 16 17  2  0
 16 14  1  0
 19 21  1  0
 19 18  1  0
 20 19  2  0
 22 21  1  0
 23 22  1  0
 23 24  1  0
 25 24  1  1
 25 26  1  0
 26 16  1  0
 27 25  1  0
 27 28  1  0
 29 27  2  0
M  END
$$$$
