MQR.pdb
     RDKit          3D

 29 28  0  0  1  0  0  0  0  0999 V2000
   27.4129  -19.1274  -18.0657 C   0  0  0  0  0  0  0  0  0  0  0  0
   28.6074  -17.9872  -17.3684 S   0  0  0  0  0  0  0  0  0  0  0  0
   27.8245  -16.3334  -17.2813 C   0  0  0  0  0  0  0  0  0  0  0  0
   26.4544  -16.4256  -16.7291 C   0  0  0  0  0  0  0  0  0  0  0  0
   25.6085  -15.1967  -16.8398 C   0  0  2  0  0  0  0  0  0  0  0  0
   26.2646  -14.1105  -16.0715 N   0  0  0  0  0  0  0  0  0  0  0  0
   24.2833  -15.4829  -16.1822 C   0  0  0  0  0  0  0  0  0  0  0  0
   24.3037  -15.5114  -14.9249 O   0  0  0  0  0  0  0  0  0  0  0  0
   19.0666  -12.1079  -17.7995 N   0  0  0  0  0  0  0  0  0  0  0  0
   19.3401  -13.4904  -17.6815 C   0  0  0  0  0  0  0  0  0  0  0  0
   18.4531  -14.3365  -17.9353 O   0  0  0  0  0  0  0  0  0  0  0  0
   20.6784  -13.9702  -17.2561 C   0  0  0  0  0  0  0  0  0  0  0  0
   20.6792  -15.4779  -17.2637 C   0  0  0  0  0  0  0  0  0  0  0  0
   21.8478  -16.0266  -16.4233 C   0  0  2  0  0  0  0  0  0  0  0  0
   23.1388  -15.6928  -16.9471 N   0  0  0  0  0  0  0  0  0  0  0  0
   21.6125  -17.4297  -16.1251 C   0  0  0  0  0  0  0  0  0  0  0  0
   22.2957  -18.3446  -16.7074 O   0  0  0  0  0  0  0  0  0  0  0  0
   25.7632  -23.9012  -14.1554 N   0  0  0  0  0  0  0  0  0  0  0  0
   25.0932  -22.9929  -13.3103 C   0  0  0  0  0  0  0  0  0  0  0  0
   25.6514  -22.5869  -12.2292 N   0  0  0  0  0  0  0  0  0  0  0  0
   23.8016  -22.5379  -13.6698 N   0  0  0  0  0  0  0  0  0  0  0  0
   23.1818  -21.4609  -12.9582 C   0  0  0  0  0  0  0  0  0  0  0  0
   21.8495  -21.0963  -13.5837 C   0  0  0  0  0  0  0  0  0  0  0  0
   21.8844  -19.7078  -14.1336 C   0  0  0  0  0  0  0  0  0  0  0  0
   20.5915  -19.3259  -14.7688 C   0  0  2  0  0  0  0  0  0  0  0  0
   20.6434  -17.9053  -15.1982 N   0  0  0  0  0  0  0  0  0  0  0  0
   19.4681  -19.4162  -13.8325 C   0  0  0  0  0  0  0  0  0  0  0  0
   18.7117  -18.3044  -13.5413 O   0  0  0  0  0  0  0  0  0  0  0  0
   19.1761  -20.4980  -13.2809 O   0  0  0  0  0  0  0  0  0  0  0  0
  2  1  1  0
  3  4  1  0
  3  2  1  0
  4  5  1  0
  5  7  1  0
  5  6  1  1
  7  8  2  0
 10 12  1  0
 10  9  1  0
 11 10  2  0
 13 12  1  0
 14 13  1  6
 15 14  1  0
 15  7  1  0
 16 17  2  0
 16 14  1  0
 19 21  1  0
 19 18  1  0
 20 19  2  0
 22 21  1  0
 23 22  1  0
 23 24  1  0
 25 24  1  1
 25 26  1  0
 26 16  1  0
 27 25  1  0
 27 28  1  0
 29 27  2  0
M  END
$$$$
