MQR.pdb
     RDKit          3D

 29 28  0  0  1  0  0  0  0  0999 V2000
   26.9020  -18.7078   -6.0129 C   0  0  0  0  0  0  0  0  0  0  0  0
   28.3289  -19.7784   -5.8377 S   0  0  0  0  0  0  0  0  0  0  0  0
   28.7923  -20.3783   -7.5053 C   0  0  0  0  0  0  0  0  0  0  0  0
   27.7236  -20.0881   -8.4872 C   0  0  0  0  0  0  0  0  0  0  0  0
   27.3445  -21.2052   -9.4073 C   0  0  2  0  0  0  0  0  0  0  0  0
   28.5892  -21.8496   -9.8930 N   0  0  0  0  0  0  0  0  0  0  0  0
   26.6454  -20.6080  -10.6012 C   0  0  0  0  0  0  0  0  0  0  0  0
   26.0222  -19.5385  -10.3780 O   0  0  0  0  0  0  0  0  0  0  0  0
   26.8217  -18.8306  -16.3303 N   0  0  0  0  0  0  0  0  0  0  0  0
   27.5649  -18.3675  -15.2198 C   0  0  0  0  0  0  0  0  0  0  0  0
   28.0766  -17.2250  -15.2307 O   0  0  0  0  0  0  0  0  0  0  0  0
   27.7556  -19.2197  -14.0200 C   0  0  0  0  0  0  0  0  0  0  0  0
   26.9982  -20.5088  -14.2141 C   0  0  0  0  0  0  0  0  0  0  0  0
   26.0461  -20.7652  -13.0305 C   0  0  2  0  0  0  0  0  0  0  0  0
   26.7106  -21.2254  -11.8476 N   0  0  0  0  0  0  0  0  0  0  0  0
   24.9113  -21.5523  -13.4840 C   0  0  0  0  0  0  0  0  0  0  0  0
   24.6882  -22.7170  -12.9978 O   0  0  0  0  0  0  0  0  0  0  0  0
   18.9850  -23.1708  -10.3975 N   0  0  0  0  0  0  0  0  0  0  0  0
   18.0353  -22.3600  -11.0523 C   0  0  0  0  0  0  0  0  0  0  0  0
   16.7926  -22.6773  -11.0301 N   0  0  0  0  0  0  0  0  0  0  0  0
   18.4704  -21.1965  -11.7317 N   0  0  0  0  0  0  0  0  0  0  0  0
   19.8628  -20.8706  -11.8049 C   0  0  0  0  0  0  0  0  0  0  0  0
   20.4770  -21.4086  -13.0826 C   0  0  0  0  0  0  0  0  0  0  0  0
   21.9345  -21.0872  -13.1463 C   0  0  0  0  0  0  0  0  0  0  0  0
   22.5486  -21.5305  -14.4297 C   0  0  2  0  0  0  0  0  0  0  0  0
   23.9769  -21.1263  -14.4689 N   0  0  0  0  0  0  0  0  0  0  0  0
   21.9238  -20.8914  -15.5909 C   0  0  0  0  0  0  0  0  0  0  0  0
   20.9007  -21.5173  -16.2651 O   0  0  0  0  0  0  0  0  0  0  0  0
   22.3058  -19.7720  -15.9917 O   0  0  0  0  0  0  0  0  0  0  0  0
  2  1  1  0
  3  4  1  0
  3  2  1  0
  4  5  1  0
  5  7  1  0
  5  6  1  6
  7  8  2  0
 10 12  1  0
 10  9  1  0
 11 10  2  0
 13 12  1  0
 14 13  1  6
 15 14  1  0
 15  7  1  0
 16 17  2  0
 16 14  1  0
 19 21  1  0
 19 18  1  0
 20 19  2  0
 22 21  1  0
 23 22  1  0
 23 24  1  0
 25 24  1  1
 25 26  1  0
 26 16  1  0
 27 25  1  0
 27 28  1  0
 29 27  2  0
M  END
$$$$
