GCW.pdb
     RDKit          3D

 25 26  0  0  1  0  0  0  0  0999 V2000
   29.1535  -27.7978  -17.6925 N   0  0  0  0  0  0  0  0  0  0  0  0
   28.2639  -28.2071  -16.6206 C   0  0  0  0  0  0  0  0  0  0  0  0
   26.8576  -28.2406  -17.0872 C   0  0  0  0  0  0  0  0  0  0  0  0
   26.5295  -27.9336  -18.2620 O   0  0  0  0  0  0  0  0  0  0  0  0
   25.8460  -28.6298  -16.1850 N   0  0  0  0  0  0  0  0  0  0  0  0
   24.4362  -28.6962  -16.5928 C   0  0  1  0  0  0  0  0  0  0  0  0
   24.0056  -30.1267  -16.2835 C   0  0  0  0  0  0  0  0  0  0  0  0
   22.2550  -30.4115  -16.5607 S   0  0  0  0  0  0  0  0  0  0  0  0
   23.6273  -27.7362  -15.8095 C   0  0  0  0  0  0  0  0  0  0  0  0
   23.7943  -27.7030  -14.5397 O   0  0  0  0  0  0  0  0  0  0  0  0
   22.6755  -26.8388  -16.3417 N   0  0  0  0  0  0  0  0  0  0  0  0
   21.9444  -25.8681  -15.5034 C   0  0  1  0  0  0  0  0  0  0  0  0
   22.1139  -24.4848  -16.0280 C   0  0  0  0  0  0  0  0  0  0  0  0
   23.5013  -24.0134  -16.1407 C   0  0  0  0  0  0  0  0  0  0  0  0
   24.4477  -24.1288  -15.1094 C   0  0  0  0  0  0  0  0  0  0  0  0
   25.6303  -23.6427  -15.5127 N   0  0  0  0  0  0  0  0  0  0  0  0
   25.5079  -23.2045  -16.7804 C   0  0  0  0  0  0  0  0  0  0  0  0
   26.4488  -22.6202  -17.6107 C   0  0  0  0  0  0  0  0  0  0  0  0
   26.0575  -22.2502  -18.8759 C   0  0  0  0  0  0  0  0  0  0  0  0
   24.7646  -22.4562  -19.3023 C   0  0  0  0  0  0  0  0  0  0  0  0
   23.8427  -23.0453  -18.4450 C   0  0  0  0  0  0  0  0  0  0  0  0
   24.1991  -23.4318  -17.1664 C   0  0  0  0  0  0  0  0  0  0  0  0
   20.5824  -26.3224  -15.2471 C   0  0  0  0  0  0  0  0  0  0  0  0
   20.0168  -27.2283  -15.9012 O   0  0  0  0  0  0  0  0  0  0  0  0
   19.8545  -25.7220  -14.2170 O   0  0  0  0  0  0  0  0  0  0  0  0
  1  2  1  0
  3  2  1  0
  3  4  2  0
  5  3  1  0
  6  5  1  0
  6  9  1  0
  6  7  1  1
  8  7  1  0
  9 11  1  0
  9 10  2  0
 11 12  1  0
 12 13  1  6
 14 15  2  0
 14 13  1  0
 16 15  1  0
 17 22  2  0
 17 16  1  0
 18 17  1  0
 19 20  1  0
 19 18  2  0
 20 21  2  0
 21 22  1  0
 22 14  1  0
 23 12  1  0
 23 25  1  0
 24 23  2  0
M  END
$$$$
