GCW.pdb
     RDKit          3D

 25 26  0  0  1  0  0  0  0  0999 V2000
   28.8398  -17.0773  -16.5876 N   0  0  0  0  0  0  0  0  0  0  0  0
   28.6953  -18.3855  -15.9749 C   0  0  0  0  0  0  0  0  0  0  0  0
   27.4296  -18.4713  -15.2086 C   0  0  0  0  0  0  0  0  0  0  0  0
   26.3846  -17.8678  -15.5631 O   0  0  0  0  0  0  0  0  0  0  0  0
   27.3900  -19.2566  -14.0380 N   0  0  0  0  0  0  0  0  0  0  0  0
   26.1314  -19.5071  -13.3226 C   0  0  1  0  0  0  0  0  0  0  0  0
   25.3599  -20.4753  -14.2139 C   0  0  0  0  0  0  0  0  0  0  0  0
   26.2087  -22.0383  -14.4574 S   0  0  0  0  0  0  0  0  0  0  0  0
   26.4014  -20.1259  -12.0059 C   0  0  0  0  0  0  0  0  0  0  0  0
   27.2028  -21.1244  -11.9625 O   0  0  0  0  0  0  0  0  0  0  0  0
   25.8498  -19.7089  -10.7744 N   0  0  0  0  0  0  0  0  0  0  0  0
   26.1145  -20.4166   -9.5061 C   0  0  1  0  0  0  0  0  0  0  0  0
   26.9186  -19.5663   -8.5853 C   0  0  0  0  0  0  0  0  0  0  0  0
   27.0313  -20.0557   -7.2041 C   0  0  0  0  0  0  0  0  0  0  0  0
   26.2811  -21.1287   -6.6959 C   0  0  0  0  0  0  0  0  0  0  0  0
   26.6213  -21.3660   -5.4210 N   0  0  0  0  0  0  0  0  0  0  0  0
   27.5746  -20.4868   -5.0573 C   0  0  0  0  0  0  0  0  0  0  0  0
   28.2268  -20.3380   -3.8455 C   0  0  0  0  0  0  0  0  0  0  0  0
   29.1666  -19.3405   -3.7323 C   0  0  0  0  0  0  0  0  0  0  0  0
   29.4487  -18.5138   -4.7966 C   0  0  0  0  0  0  0  0  0  0  0  0
   28.7767  -18.6884   -6.0008 C   0  0  0  0  0  0  0  0  0  0  0  0
   27.8264  -19.6809   -6.1531 C   0  0  0  0  0  0  0  0  0  0  0  0
   24.8916  -21.0061   -8.9730 C   0  0  0  0  0  0  0  0  0  0  0  0
   23.7457  -20.5550   -9.2003 O   0  0  0  0  0  0  0  0  0  0  0  0
   24.9881  -22.1384   -8.1605 O   0  0  0  0  0  0  0  0  0  0  0  0
  1  2  1  0
  3  2  1  0
  3  4  2  0
  5  3  1  0
  6  5  1  0
  6  9  1  0
  6  7  1  6
  8  7  1  0
  9 11  1  0
  9 10  2  0
 11 12  1  0
 12 13  1  1
 14 15  2  0
 14 13  1  0
 16 15  1  0
 17 22  2  0
 17 16  1  0
 18 17  1  0
 19 20  1  0
 19 18  2  0
 20 21  2  0
 21 22  1  0
 22 14  1  0
 23 12  1  0
 23 25  1  0
 24 23  2  0
M  END
$$$$
