GCW.pdb
     RDKit          3D

 25 26  0  0  1  0  0  0  0  0999 V2000
   22.0918  -18.3025   12.9827 N   0  0  0  0  0  0  0  0  0  0  0  0
   20.6829  -18.3254   12.6330 C   0  0  0  0  0  0  0  0  0  0  0  0
   20.4032  -19.3926   11.6434 C   0  0  0  0  0  0  0  0  0  0  0  0
   20.7013  -20.5973   11.8485 O   0  0  0  0  0  0  0  0  0  0  0  0
   19.7804  -19.0506   10.4253 N   0  0  0  0  0  0  0  0  0  0  0  0
   19.3785  -20.0760    9.4529 C   0  0  1  0  0  0  0  0  0  0  0  0
   18.3903  -20.9627   10.2042 C   0  0  0  0  0  0  0  0  0  0  0  0
   17.6199  -22.2024    9.1591 S   0  0  0  0  0  0  0  0  0  0  0  0
   18.7204  -19.4492    8.2852 C   0  0  0  0  0  0  0  0  0  0  0  0
   18.0079  -18.4034    8.4848 O   0  0  0  0  0  0  0  0  0  0  0  0
   18.8089  -19.9040    6.9511 N   0  0  0  0  0  0  0  0  0  0  0  0
   18.5142  -19.0345    5.7950 C   0  0  1  0  0  0  0  0  0  0  0  0
   19.6783  -18.1603    5.4819 C   0  0  0  0  0  0  0  0  0  0  0  0
   19.4585  -17.1641    4.4240 C   0  0  0  0  0  0  0  0  0  0  0  0
   18.3046  -16.3686    4.3329 C   0  0  0  0  0  0  0  0  0  0  0  0
   18.4015  -15.5339    3.2882 N   0  0  0  0  0  0  0  0  0  0  0  0
   19.5823  -15.7439    2.6754 C   0  0  0  0  0  0  0  0  0  0  0  0
   20.1215  -15.1315    1.5572 C   0  0  0  0  0  0  0  0  0  0  0  0
   21.3600  -15.5441    1.1249 C   0  0  0  0  0  0  0  0  0  0  0  0
   22.0424  -16.5393    1.7878 C   0  0  0  0  0  0  0  0  0  0  0  0
   21.4744  -17.1351    2.9078 C   0  0  0  0  0  0  0  0  0  0  0  0
   20.2320  -16.7464    3.3730 C   0  0  0  0  0  0  0  0  0  0  0  0
   17.9431  -19.8045    4.6958 C   0  0  0  0  0  0  0  0  0  0  0  0
   18.3361  -20.9480    4.3699 O   0  0  0  0  0  0  0  0  0  0  0  0
   16.8980  -19.2476    3.9548 O   0  0  0  0  0  0  0  0  0  0  0  0
  1  2  1  0
  3  2  1  0
  3  4  2  0
  5  3  1  0
  6  5  1  0
  6  9  1  0
  6  7  1  1
  8  7  1  0
  9 11  1  0
  9 10  2  0
 11 12  1  0
 12 13  1  6
 14 15  2  0
 14 13  1  0
 16 15  1  0
 17 22  2  0
 17 16  1  0
 18 17  1  0
 19 20  1  0
 19 18  2  0
 20 21  2  0
 21 22  1  0
 22 14  1  0
 23 12  1  0
 23 25  1  0
 24 23  2  0
M  END
$$$$
