GCW.pdb
     RDKit          3D

 25 26  0  0  1  0  0  0  0  0999 V2000
   29.2839  -22.7797  -16.8907 N   0  0  0  0  0  0  0  0  0  0  0  0
   27.9353  -22.3423  -16.5782 C   0  0  0  0  0  0  0  0  0  0  0  0
   27.9442  -21.3600  -15.4684 C   0  0  0  0  0  0  0  0  0  0  0  0
   28.5955  -20.2854  -15.5242 O   0  0  0  0  0  0  0  0  0  0  0  0
   27.1970  -21.6353  -14.3045 N   0  0  0  0  0  0  0  0  0  0  0  0
   26.6141  -20.5585  -13.4926 C   0  0  1  0  0  0  0  0  0  0  0  0
   25.4462  -20.0316  -14.3206 C   0  0  0  0  0  0  0  0  0  0  0  0
   24.3767  -18.9193  -13.4032 S   0  0  0  0  0  0  0  0  0  0  0  0
   26.1278  -21.0924  -12.2011 C   0  0  0  0  0  0  0  0  0  0  0  0
   25.2930  -22.0639  -12.2268 O   0  0  0  0  0  0  0  0  0  0  0  0
   26.5067  -20.6232  -10.9240 N   0  0  0  0  0  0  0  0  0  0  0  0
   26.1286  -21.3196   -9.6784 C   0  0  1  0  0  0  0  0  0  0  0  0
   27.2983  -21.4390   -8.7647 C   0  0  0  0  0  0  0  0  0  0  0  0
   27.4640  -20.3445   -7.7980 C   0  0  0  0  0  0  0  0  0  0  0  0
   26.8524  -19.0875   -7.9345 C   0  0  0  0  0  0  0  0  0  0  0  0
   27.1601  -18.3091   -6.8872 N   0  0  0  0  0  0  0  0  0  0  0  0
   27.9586  -19.0026   -6.0532 C   0  0  0  0  0  0  0  0  0  0  0  0
   28.5336  -18.6190   -4.8539 C   0  0  0  0  0  0  0  0  0  0  0  0
   29.3271  -19.5279   -4.1944 C   0  0  0  0  0  0  0  0  0  0  0  0
   29.5424  -20.7842   -4.7152 C   0  0  0  0  0  0  0  0  0  0  0  0
   28.9510  -21.1396   -5.9218 C   0  0  0  0  0  0  0  0  0  0  0  0
   28.1461  -20.2535   -6.6132 C   0  0  0  0  0  0  0  0  0  0  0  0
   24.9011  -20.7623   -9.1216 C   0  0  0  0  0  0  0  0  0  0  0  0
   24.3762  -19.6982   -9.5223 O   0  0  0  0  0  0  0  0  0  0  0  0
   24.2635  -21.4426   -8.0814 O   0  0  0  0  0  0  0  0  0  0  0  0
  1  2  1  0
  3  2  1  0
  3  4  2  0
  5  3  1  0
  6  5  1  0
  6  9  1  0
  6  7  1  6
  8  7  1  0
  9 11  1  0
  9 10  2  0
 11 12  1  0
 12 13  1  1
 14 15  2  0
 14 13  1  0
 16 15  1  0
 17 22  2  0
 17 16  1  0
 18 17  1  0
 19 20  1  0
 19 18  2  0
 20 21  2  0
 21 22  1  0
 22 14  1  0
 23 12  1  0
 23 25  1  0
 24 23  2  0
M  END
$$$$
