VRE.pdb
     RDKit          3D

 28 27  0  0  1  0  0  0  0  0999 V2000
    6.4016  -13.3130   19.9144 C   0  0  0  0  0  0  0  0  0  0  0  0
    7.8317  -12.8947   20.1383 C   0  0  2  0  0  0  0  0  0  0  0  0
    8.3834  -12.3789   18.8290 C   0  0  0  0  0  0  0  0  0  0  0  0
    8.6764  -14.0662   20.5691 C   0  0  2  0  0  0  0  0  0  0  0  0
    8.7581  -15.0341   19.5143 N   0  0  0  0  0  0  0  0  0  0  0  0
    8.2818  -14.6356   21.8791 C   0  0  0  0  0  0  0  0  0  0  0  0
    8.2191  -13.9177   22.8849 O   0  0  0  0  0  0  0  0  0  0  0  0
    2.8913  -20.9320   20.8854 N   0  0  0  0  0  0  0  0  0  0  0  0
    2.5856  -19.5680   20.6264 C   0  0  0  0  0  0  0  0  0  0  0  0
    1.5259  -19.2315   19.9823 N   0  0  0  0  0  0  0  0  0  0  0  0
    3.4608  -18.5214   21.0822 N   0  0  0  0  0  0  0  0  0  0  0  0
    4.6816  -18.8913   21.7504 C   0  0  0  0  0  0  0  0  0  0  0  0
    5.4173  -17.6129   22.1261 C   0  0  0  0  0  0  0  0  0  0  0  0
    6.7089  -17.8937   22.8185 C   0  0  0  0  0  0  0  0  0  0  0  0
    7.4785  -16.6531   23.1749 C   0  0  2  0  0  0  0  0  0  0  0  0
    7.9722  -16.0020   22.0094 N   0  0  0  0  0  0  0  0  0  0  0  0
    8.5495  -16.9940   24.1472 C   0  0  0  0  0  0  0  0  0  0  0  0
    9.6399  -17.4893   23.7363 O   0  0  0  0  0  0  0  0  0  0  0  0
    1.3014  -18.2462   19.7569 N   0  0  0  0  0  0  0  0  0  0  0  0
    8.4224  -16.7941   25.5410 C   0  0  2  0  0  0  0  0  0  0  0  0
    9.5164  -17.0468   26.4971 C   0  0  0  0  0  0  0  0  0  0  0  0
    9.6003  -15.9615   27.4922 C   0  0  0  0  0  0  0  0  0  0  0  0
   10.6325  -16.0323   28.5389 C   0  0  0  0  0  0  0  0  0  0  0  0
   10.7299  -15.0280   29.5765 O   0  0  0  0  0  0  0  0  0  0  0  0
   11.4747  -15.0732   30.5726 C   0  0  0  0  0  0  0  0  0  0  0  0
    9.3932  -18.3789   27.0511 O   0  0  0  0  0  0  0  0  0  0  0  0
   10.4409  -19.2020   27.4603 O   0  0  0  0  0  0  0  0  0  0  0  0
    9.9304  -13.8564   29.5171 O   0  0  0  0  0  0  0  0  0  0  0  0
  2  1  1  6
  3  2  1  0
  4  5  1  6
  4  2  1  0
  6  4  1  0
  7  6  2  0
  9  8  1  0
  9 10  2  0
 11  9  1  0
 12 11  1  0
 13 12  1  0
 14 13  1  0
 15 14  1  6
 15 16  1  0
 16  6  1  0
 17 15  1  0
 17 18  2  0
 19 17  1  0
 20 19  1  0
 20 21  1  6
 22 21  1  0
 23 22  1  0
 24 23  2  0
 25 20  1  0
 26 25  1  0
 27 23  1  0
 28 25  2  0
M  END
$$$$
