VRE.pdb
     RDKit          3D

 28 27  0  0  1  0  0  0  0  0999 V2000
    6.2718  -21.1409   20.8087 C   0  0  0  0  0  0  0  0  0  0  0  0
    6.0731  -20.8574   22.2753 C   0  0  2  0  0  0  0  0  0  0  0  0
    5.3059  -19.5617   22.4061 C   0  0  0  0  0  0  0  0  0  0  0  0
    7.3962  -20.6869   22.9768 C   0  0  2  0  0  0  0  0  0  0  0  0
    7.1938  -20.5330   24.3880 N   0  0  0  0  0  0  0  0  0  0  0  0
    8.2594  -19.6433   22.3753 C   0  0  0  0  0  0  0  0  0  0  0  0
    8.6972  -19.7736   21.2254 O   0  0  0  0  0  0  0  0  0  0  0  0
    8.0662  -13.7659   17.9803 N   0  0  0  0  0  0  0  0  0  0  0  0
    7.9030  -13.0853   19.2177 C   0  0  0  0  0  0  0  0  0  0  0  0
    8.0745  -11.8151   19.3091 N   0  0  0  0  0  0  0  0  0  0  0  0
    7.5389  -13.8060   20.4081 N   0  0  0  0  0  0  0  0  0  0  0  0
    8.0781  -15.1272   20.6014 C   0  0  0  0  0  0  0  0  0  0  0  0
    9.0370  -15.0750   21.7822 C   0  0  0  0  0  0  0  0  0  0  0  0
    8.6969  -16.0876   22.8241 C   0  0  0  0  0  0  0  0  0  0  0  0
    9.4008  -17.4016   22.6334 C   0  0  2  0  0  0  0  0  0  0  0  0
    8.6018  -18.4846   23.0966 N   0  0  0  0  0  0  0  0  0  0  0  0
   10.7378  -17.3483   23.2799 C   0  0  0  0  0  0  0  0  0  0  0  0
   10.8345  -17.4538   24.5379 O   0  0  0  0  0  0  0  0  0  0  0  0
    8.0462  -11.3140   20.2147 N   0  0  0  0  0  0  0  0  0  0  0  0
   11.9415  -17.1824   22.5572 C   0  0  2  0  0  0  0  0  0  0  0  0
   13.2726  -17.1844   23.1920 C   0  0  0  0  0  0  0  0  0  0  0  0
   14.2779  -17.7821   22.2935 C   0  0  0  0  0  0  0  0  0  0  0  0
   14.2482  -19.2344   22.0563 C   0  0  0  0  0  0  0  0  0  0  0  0
   15.2183  -19.8823   21.1998 O   0  0  0  0  0  0  0  0  0  0  0  0
   16.3871  -20.1779   21.5088 C   0  0  0  0  0  0  0  0  0  0  0  0
   13.5935  -15.8578   23.6757 O   0  0  0  0  0  0  0  0  0  0  0  0
   14.5411  -15.5412   24.6474 O   0  0  0  0  0  0  0  0  0  0  0  0
   14.8733  -20.2425   19.8706 O   0  0  0  0  0  0  0  0  0  0  0  0
  2  1  1  6
  3  2  1  0
  4  5  1  1
  4  2  1  0
  6  4  1  0
  7  6  2  0
  9  8  1  0
  9 10  2  0
 11  9  1  0
 12 11  1  0
 13 12  1  0
 14 13  1  0
 15 14  1  1
 15 16  1  0
 16  6  1  0
 17 15  1  0
 17 18  2  0
 19 17  1  0
 20 19  1  0
 20 21  1  6
 22 21  1  0
 23 22  1  0
 24 23  2  0
 25 20  1  0
 26 25  1  0
 27 23  1  0
 28 25  2  0
M  END
$$$$
