VRE.pdb
     RDKit          3D

 28 27  0  0  1  0  0  0  0  0999 V2000
   10.2369  -21.5483   17.5990 C   0  0  0  0  0  0  0  0  0  0  0  0
   11.0657  -20.6307   18.4602 C   0  0  2  0  0  0  0  0  0  0  0  0
   11.1002  -21.2000   19.8599 C   0  0  0  0  0  0  0  0  0  0  0  0
   10.4514  -19.2563   18.5326 C   0  0  2  0  0  0  0  0  0  0  0  0
   10.1458  -18.7789   17.2155 N   0  0  0  0  0  0  0  0  0  0  0  0
   11.2283  -18.2988   19.3545 C   0  0  0  0  0  0  0  0  0  0  0  0
   12.4426  -18.1498   19.1690 O   0  0  0  0  0  0  0  0  0  0  0  0
    6.3640  -12.3818   19.8236 N   0  0  0  0  0  0  0  0  0  0  0  0
    6.9181  -13.1798   18.7857 C   0  0  0  0  0  0  0  0  0  0  0  0
    6.3365  -13.2905   17.6452 N   0  0  0  0  0  0  0  0  0  0  0  0
    8.1533  -13.8891   18.9865 N   0  0  0  0  0  0  0  0  0  0  0  0
    8.8600  -13.6972   20.2265 C   0  0  0  0  0  0  0  0  0  0  0  0
   10.1350  -14.5269   20.1736 C   0  0  0  0  0  0  0  0  0  0  0  0
   10.3002  -15.3767   21.3890 C   0  0  0  0  0  0  0  0  0  0  0  0
   11.2177  -16.5483   21.1794 C   0  0  2  0  0  0  0  0  0  0  0  0
   10.6055  -17.5408   20.3632 N   0  0  0  0  0  0  0  0  0  0  0  0
   11.6631  -17.0733   22.4964 C   0  0  0  0  0  0  0  0  0  0  0  0
   10.8607  -17.7403   23.2134 O   0  0  0  0  0  0  0  0  0  0  0  0
    6.7221  -13.8692   16.8782 N   0  0  0  0  0  0  0  0  0  0  0  0
   12.9633  -16.8682   23.0122 C   0  0  1  0  0  0  0  0  0  0  0  0
   13.4182  -17.4211   24.3014 C   0  0  0  0  0  0  0  0  0  0  0  0
   14.6398  -18.2275   24.1210 C   0  0  0  0  0  0  0  0  0  0  0  0
   14.5115  -19.6785   23.9100 C   0  0  0  0  0  0  0  0  0  0  0  0
   15.6668  -20.5128   23.6579 O   0  0  0  0  0  0  0  0  0  0  0  0
   16.7162  -20.5330   24.3268 C   0  0  0  0  0  0  0  0  0  0  0  0
   13.5206  -16.3643   25.2860 O   0  0  0  0  0  0  0  0  0  0  0  0
   13.7168  -16.5297   26.6559 O   0  0  0  0  0  0  0  0  0  0  0  0
   15.6735  -21.4157   22.5624 O   0  0  0  0  0  0  0  0  0  0  0  0
  2  1  1  6
  3  2  1  0
  4  5  1  6
  4  2  1  0
  6  4  1  0
  7  6  2  0
  9  8  1  0
  9 10  2  0
 11  9  1  0
 12 11  1  0
 13 12  1  0
 14 13  1  0
 15 14  1  1
 15 16  1  0
 16  6  1  0
 17 15  1  0
 17 18  2  0
 19 17  1  0
 20 19  1  0
 20 21  1  1
 22 21  1  0
 23 22  1  0
 24 23  2  0
 25 20  1  0
 26 25  1  0
 27 23  1  0
 28 25  2  0
M  END
$$$$
