VRE.pdb
     RDKit          3D

 28 27  0  0  1  0  0  0  0  0999 V2000
    7.9547  -12.9369   27.0804 C   0  0  0  0  0  0  0  0  0  0  0  0
    6.9146  -12.6193   26.0374 C   0  0  2  0  0  0  0  0  0  0  0  0
    5.8925  -11.6936   26.6562 C   0  0  0  0  0  0  0  0  0  0  0  0
    6.1994  -13.8682   25.5896 C   0  0  2  0  0  0  0  0  0  0  0  0
    5.5224  -14.4770   26.6973 N   0  0  0  0  0  0  0  0  0  0  0  0
    7.0556  -14.8018   24.8206 C   0  0  0  0  0  0  0  0  0  0  0  0
    7.4902  -15.8349   25.3448 O   0  0  0  0  0  0  0  0  0  0  0  0
    9.2448  -14.2923   17.7594 N   0  0  0  0  0  0  0  0  0  0  0  0
    8.4512  -13.2703   18.3481 C   0  0  0  0  0  0  0  0  0  0  0  0
    8.7836  -12.0321   18.2601 N   0  0  0  0  0  0  0  0  0  0  0  0
    7.2464  -13.5978   19.0625 N   0  0  0  0  0  0  0  0  0  0  0  0
    6.8387  -14.9776   19.1224 C   0  0  0  0  0  0  0  0  0  0  0  0
    6.9679  -15.4432   20.5657 C   0  0  0  0  0  0  0  0  0  0  0  0
    8.1839  -14.8854   21.2267 C   0  0  0  0  0  0  0  0  0  0  0  0
    8.3076  -15.2702   22.6741 C   0  0  2  0  0  0  0  0  0  0  0  0
    7.3947  -14.5348   23.4813 N   0  0  0  0  0  0  0  0  0  0  0  0
    9.7203  -15.1190   23.1102 C   0  0  0  0  0  0  0  0  0  0  0  0
   10.0441  -14.1678   23.8804 O   0  0  0  0  0  0  0  0  0  0  0  0
    8.2225  -11.2740   18.6870 N   0  0  0  0  0  0  0  0  0  0  0  0
   10.7533  -15.9959   22.7069 C   0  0  1  0  0  0  0  0  0  0  0  0
   11.7675  -16.5311   23.6341 C   0  0  0  0  0  0  0  0  0  0  0  0
   11.1246  -17.1929   24.7847 C   0  0  0  0  0  0  0  0  0  0  0  0
   11.9726  -17.7799   25.8347 C   0  0  0  0  0  0  0  0  0  0  0  0
   11.4022  -18.3921   27.0155 O   0  0  0  0  0  0  0  0  0  0  0  0
   11.2777  -19.6134   27.2204 C   0  0  0  0  0  0  0  0  0  0  0  0
   12.7199  -17.3472   22.9105 O   0  0  0  0  0  0  0  0  0  0  0  0
   14.0945  -17.4042   23.1337 O   0  0  0  0  0  0  0  0  0  0  0  0
   10.9190  -17.5851   28.0789 O   0  0  0  0  0  0  0  0  0  0  0  0
  2  1  1  1
  3  2  1  0
  4  5  1  1
  4  2  1  0
  6  4  1  0
  7  6  2  0
  9  8  1  0
  9 10  2  0
 11  9  1  0
 12 11  1  0
 13 12  1  0
 14 13  1  0
 15 14  1  6
 15 16  1  0
 16  6  1  0
 17 15  1  0
 17 18  2  0
 19 17  1  0
 20 19  1  0
 20 21  1  1
 22 21  1  0
 23 22  1  0
 24 23  2  0
 25 20  1  0
 26 25  1  0
 27 23  1  0
 28 25  2  0
M  END
$$$$
