VRE.pdb
     RDKit          3D

 28 27  0  0  1  0  0  0  0  0999 V2000
    7.5650  -12.8095   21.1135 C   0  0  0  0  0  0  0  0  0  0  0  0
    8.7328  -12.9466   20.1711 C   0  0  2  0  0  0  0  0  0  0  0  0
    8.6590  -11.8243   19.1614 C   0  0  0  0  0  0  0  0  0  0  0  0
    8.6710  -14.2520   19.4203 C   0  0  2  0  0  0  0  0  0  0  0  0
    7.5391  -14.2656   18.5402 N   0  0  0  0  0  0  0  0  0  0  0  0
    8.7698  -15.4461   20.2922 C   0  0  0  0  0  0  0  0  0  0  0  0
    7.7495  -16.0255   20.6851 O   0  0  0  0  0  0  0  0  0  0  0  0
   15.1086  -18.1562   17.9174 N   0  0  0  0  0  0  0  0  0  0  0  0
   15.0163  -18.6108   19.2612 C   0  0  0  0  0  0  0  0  0  0  0  0
   15.9802  -18.4368   20.0930 N   0  0  0  0  0  0  0  0  0  0  0  0
   13.8329  -19.2820   19.7282 N   0  0  0  0  0  0  0  0  0  0  0  0
   12.5655  -18.9194   19.1487 C   0  0  0  0  0  0  0  0  0  0  0  0
   12.0037  -17.7488   19.9428 C   0  0  0  0  0  0  0  0  0  0  0  0
   10.9271  -18.1763   20.8835 C   0  0  0  0  0  0  0  0  0  0  0  0
   10.2571  -17.0295   21.5866 C   0  0  2  0  0  0  0  0  0  0  0  0
   10.0223  -15.9460   20.6940 N   0  0  0  0  0  0  0  0  0  0  0  0
   11.0578  -16.6389   22.7761 C   0  0  0  0  0  0  0  0  0  0  0  0
   11.9192  -15.7159   22.6809 O   0  0  0  0  0  0  0  0  0  0  0  0
   16.0898  -19.0139   20.9456 N   0  0  0  0  0  0  0  0  0  0  0  0
   10.9132  -17.2513   24.0421 C   0  0  1  0  0  0  0  0  0  0  0  0
   11.5561  -16.7387   25.2663 C   0  0  0  0  0  0  0  0  0  0  0  0
   10.5815  -16.0135   26.1026 C   0  0  0  0  0  0  0  0  0  0  0  0
   11.0220  -15.4605   27.3935 C   0  0  0  0  0  0  0  0  0  0  0  0
   10.1087  -14.7552   28.2671 O   0  0  0  0  0  0  0  0  0  0  0  0
    8.9082  -15.0292   28.4473 C   0  0  0  0  0  0  0  0  0  0  0  0
   12.2662  -17.8069   25.9382 O   0  0  0  0  0  0  0  0  0  0  0  0
   13.3685  -17.6632   26.7790 O   0  0  0  0  0  0  0  0  0  0  0  0
   10.5556  -13.6369   29.0187 O   0  0  0  0  0  0  0  0  0  0  0  0
  2  1  1  1
  3  2  1  0
  4  5  1  1
  4  2  1  0
  6  4  1  0
  7  6  2  0
  9  8  1  0
  9 10  2  0
 11  9  1  0
 12 11  1  0
 13 12  1  0
 14 13  1  0
 15 14  1  6
 15 16  1  0
 16  6  1  0
 17 15  1  0
 17 18  2  0
 19 17  1  0
 20 19  1  0
 20 21  1  1
 22 21  1  0
 23 22  1  0
 24 23  2  0
 25 20  1  0
 26 25  1  0
 27 23  1  0
 28 25  2  0
M  END
$$$$
