VRE.pdb
     RDKit          3D

 28 27  0  0  1  0  0  0  0  0999 V2000
    7.3925  -19.4905   28.3313 C   0  0  0  0  0  0  0  0  0  0  0  0
    8.0724  -19.1856   27.0216 C   0  0  2  0  0  0  0  0  0  0  0  0
    8.8001  -17.8684   27.1626 C   0  0  0  0  0  0  0  0  0  0  0  0
    7.0646  -19.0430   25.9099 C   0  0  2  0  0  0  0  0  0  0  0  0
    6.2319  -20.2084   25.8420 N   0  0  0  0  0  0  0  0  0  0  0  0
    7.6617  -18.6535   24.6108 C   0  0  0  0  0  0  0  0  0  0  0  0
    8.2269  -19.4938   23.8999 O   0  0  0  0  0  0  0  0  0  0  0  0
    7.7615  -13.2959   17.1192 N   0  0  0  0  0  0  0  0  0  0  0  0
    7.9842  -13.1777   18.5183 C   0  0  0  0  0  0  0  0  0  0  0  0
    8.9287  -12.4417   18.9845 N   0  0  0  0  0  0  0  0  0  0  0  0
    7.1520  -13.8838   19.4552 N   0  0  0  0  0  0  0  0  0  0  0  0
    7.3830  -13.6848   20.8626 C   0  0  0  0  0  0  0  0  0  0  0  0
    8.1825  -14.8723   21.3797 C   0  0  0  0  0  0  0  0  0  0  0  0
    7.5000  -15.5527   22.5189 C   0  0  0  0  0  0  0  0  0  0  0  0
    8.2023  -16.7994   22.9784 C   0  0  2  0  0  0  0  0  0  0  0  0
    7.6016  -17.3226   24.1579 N   0  0  0  0  0  0  0  0  0  0  0  0
    9.6534  -16.5223   23.1396 C   0  0  0  0  0  0  0  0  0  0  0  0
   10.0371  -15.6075   23.9263 O   0  0  0  0  0  0  0  0  0  0  0  0
    9.2107  -12.4636   19.9805 N   0  0  0  0  0  0  0  0  0  0  0  0
   10.6596  -17.2367   22.4497 C   0  0  2  0  0  0  0  0  0  0  0  0
   12.0981  -16.9414   22.5849 C   0  0  0  0  0  0  0  0  0  0  0  0
   12.5063  -15.8906   21.6340 C   0  0  0  0  0  0  0  0  0  0  0  0
   13.9039  -15.4292   21.6382 C   0  0  0  0  0  0  0  0  0  0  0  0
   14.4069  -14.5259   20.6255 O   0  0  0  0  0  0  0  0  0  0  0  0
   15.1149  -13.5221   20.8252 C   0  0  0  0  0  0  0  0  0  0  0  0
   12.4214  -16.6740   23.9708 O   0  0  0  0  0  0  0  0  0  0  0  0
   13.2558  -17.4378   24.7851 O   0  0  0  0  0  0  0  0  0  0  0  0
   14.1032  -14.7441   19.2559 O   0  0  0  0  0  0  0  0  0  0  0  0
  2  1  1  1
  3  2  1  0
  4  5  1  6
  4  2  1  0
  6  4  1  0
  7  6  2  0
  9  8  1  0
  9 10  2  0
 11  9  1  0
 12 11  1  0
 13 12  1  0
 14 13  1  0
 15 14  1  1
 15 16  1  0
 16  6  1  0
 17 15  1  0
 17 18  2  0
 19 17  1  0
 20 19  1  0
 20 21  1  6
 22 21  1  0
 23 22  1  0
 24 23  2  0
 25 20  1  0
 26 25  1  0
 27 23  1  0
 28 25  2  0
M  END
$$$$
