VRE.pdb
     RDKit          3D

 28 27  0  0  1  0  0  0  0  0999 V2000
    6.9631  -11.2778   25.1812 C   0  0  0  0  0  0  0  0  0  0  0  0
    6.1673  -12.3458   25.8860 C   0  0  2  0  0  0  0  0  0  0  0  0
    5.7752  -11.8209   27.2481 C   0  0  0  0  0  0  0  0  0  0  0  0
    6.9930  -13.5905   26.0877 C   0  0  2  0  0  0  0  0  0  0  0  0
    8.1659  -13.2893   26.8555 N   0  0  0  0  0  0  0  0  0  0  0  0
    7.2681  -14.3326   24.8348 C   0  0  0  0  0  0  0  0  0  0  0  0
    6.5439  -15.2741   24.4884 O   0  0  0  0  0  0  0  0  0  0  0  0
    9.7830  -14.3857   18.3410 N   0  0  0  0  0  0  0  0  0  0  0  0
    8.4442  -14.1661   17.9163 C   0  0  0  0  0  0  0  0  0  0  0  0
    7.9619  -14.7686   16.8889 N   0  0  0  0  0  0  0  0  0  0  0  0
    7.5883  -13.2574   18.6309 N   0  0  0  0  0  0  0  0  0  0  0  0
    8.1223  -12.5731   19.7800 C   0  0  0  0  0  0  0  0  0  0  0  0
    7.8359  -13.4245   21.0087 C   0  0  0  0  0  0  0  0  0  0  0  0
    9.0871  -13.8212   21.7184 C   0  0  0  0  0  0  0  0  0  0  0  0
    8.8462  -14.7212   22.8976 C   0  0  2  0  0  0  0  0  0  0  0  0
    8.3570  -13.9860   24.0138 N   0  0  0  0  0  0  0  0  0  0  0  0
   10.0845  -15.4842   23.2023 C   0  0  0  0  0  0  0  0  0  0  0  0
   11.0995  -14.8820   23.6607 O   0  0  0  0  0  0  0  0  0  0  0  0
    7.0207  -14.5586   16.5121 N   0  0  0  0  0  0  0  0  0  0  0  0
   10.2025  -16.8794   23.0064 C   0  0  2  0  0  0  0  0  0  0  0  0
   11.3424  -17.6721   23.5034 C   0  0  0  0  0  0  0  0  0  0  0  0
   10.9879  -18.3672   24.7550 C   0  0  0  0  0  0  0  0  0  0  0  0
   11.9872  -19.2384   25.3942 C   0  0  0  0  0  0  0  0  0  0  0  0
   11.6996  -19.9472   26.6228 O   0  0  0  0  0  0  0  0  0  0  0  0
   10.6820  -20.6242   26.8573 C   0  0  0  0  0  0  0  0  0  0  0  0
   11.8496  -18.5261   22.4498 O   0  0  0  0  0  0  0  0  0  0  0  0
   13.1902  -18.7342   22.1305 O   0  0  0  0  0  0  0  0  0  0  0  0
   12.6194  -19.9103   27.7036 O   0  0  0  0  0  0  0  0  0  0  0  0
  2  1  1  1
  3  2  1  0
  4  5  1  6
  4  2  1  0
  6  4  1  0
  7  6  2  0
  9  8  1  0
  9 10  2  0
 11  9  1  0
 12 11  1  0
 13 12  1  0
 14 13  1  0
 15 14  1  6
 15 16  1  0
 16  6  1  0
 17 15  1  0
 17 18  2  0
 19 17  1  0
 20 19  1  0
 20 21  1  1
 22 21  1  0
 23 22  1  0
 24 23  2  0
 25 20  1  0
 26 25  1  0
 27 23  1  0
 28 25  2  0
M  END
$$$$
