VRE.pdb
     RDKit          3D

 28 27  0  0  1  0  0  0  0  0999 V2000
   10.0990  -16.9127   16.7782 C   0  0  0  0  0  0  0  0  0  0  0  0
   10.6449  -18.2578   17.1821 C   0  0  2  0  0  0  0  0  0  0  0  0
   10.0148  -19.3084   16.2969 C   0  0  0  0  0  0  0  0  0  0  0  0
   10.2881  -18.5790   18.6108 C   0  0  2  0  0  0  0  0  0  0  0  0
    8.8796  -18.8203   18.7286 N   0  0  0  0  0  0  0  0  0  0  0  0
   10.8151  -17.6005   19.5910 C   0  0  0  0  0  0  0  0  0  0  0  0
   11.9766  -17.1835   19.5027 O   0  0  0  0  0  0  0  0  0  0  0  0
    7.9434  -14.3282   17.7630 N   0  0  0  0  0  0  0  0  0  0  0  0
    7.5134  -13.5375   18.8634 C   0  0  0  0  0  0  0  0  0  0  0  0
    7.7508  -12.2756   18.9125 N   0  0  0  0  0  0  0  0  0  0  0  0
    6.7961  -14.1338   19.9584 N   0  0  0  0  0  0  0  0  0  0  0  0
    7.4189  -15.2143   20.6783 C   0  0  0  0  0  0  0  0  0  0  0  0
    8.4496  -14.6155   21.6247 C   0  0  0  0  0  0  0  0  0  0  0  0
    9.1902  -15.6662   22.3825 C   0  0  0  0  0  0  0  0  0  0  0  0
   10.3912  -16.1966   21.6511 C   0  0  2  0  0  0  0  0  0  0  0  0
   10.0098  -17.1261   20.6429 N   0  0  0  0  0  0  0  0  0  0  0  0
   11.3581  -16.7629   22.6272 C   0  0  0  0  0  0  0  0  0  0  0  0
   11.0667  -17.8176   23.2640 O   0  0  0  0  0  0  0  0  0  0  0  0
    7.5333  -11.7009   19.7458 N   0  0  0  0  0  0  0  0  0  0  0  0
   12.6180  -16.1805   22.8961 C   0  0  2  0  0  0  0  0  0  0  0  0
   13.6521  -16.8348   23.7191 C   0  0  0  0  0  0  0  0  0  0  0  0
   14.9747  -16.2309   23.4717 C   0  0  0  0  0  0  0  0  0  0  0  0
   16.1498  -16.7779   24.1691 C   0  0  0  0  0  0  0  0  0  0  0  0
   17.4886  -16.3115   23.8783 O   0  0  0  0  0  0  0  0  0  0  0  0
   17.7987  -15.1717   23.4865 C   0  0  0  0  0  0  0  0  0  0  0  0
   13.2391  -16.8600   25.1068 O   0  0  0  0  0  0  0  0  0  0  0  0
   13.5706  -17.8328   26.0483 O   0  0  0  0  0  0  0  0  0  0  0  0
   18.5998  -17.1817   24.0319 O   0  0  0  0  0  0  0  0  0  0  0  0
  2  1  1  6
  3  2  1  0
  4  5  1  6
  4  2  1  0
  6  4  1  0
  7  6  2  0
  9  8  1  0
  9 10  2  0
 11  9  1  0
 12 11  1  0
 13 12  1  0
 14 13  1  0
 15 14  1  1
 15 16  1  0
 16  6  1  0
 17 15  1  0
 17 18  2  0
 19 17  1  0
 20 19  1  0
 20 21  1  6
 22 21  1  0
 23 22  1  0
 24 23  2  0
 25 20  1  0
 26 25  1  0
 27 23  1  0
 28 25  2  0
M  END
$$$$
