VRE.pdb
     RDKit          3D

 28 27  0  0  1  0  0  0  0  0999 V2000
    6.7658  -12.4835   19.9615 C   0  0  0  0  0  0  0  0  0  0  0  0
    7.8552  -13.4137   20.4290 C   0  0  2  0  0  0  0  0  0  0  0  0
    9.1886  -12.7762   20.1123 C   0  0  0  0  0  0  0  0  0  0  0  0
    7.7871  -14.7333   19.7041 C   0  0  2  0  0  0  0  0  0  0  0  0
    6.4581  -15.2677   19.7693 N   0  0  0  0  0  0  0  0  0  0  0  0
    8.8418  -15.6916   20.1106 C   0  0  0  0  0  0  0  0  0  0  0  0
    8.7226  -16.3574   21.1467 O   0  0  0  0  0  0  0  0  0  0  0  0
   13.1212  -22.1008   17.2978 N   0  0  0  0  0  0  0  0  0  0  0  0
   13.0142  -21.1056   18.3073 C   0  0  0  0  0  0  0  0  0  0  0  0
   12.1740  -21.2209   19.2726 N   0  0  0  0  0  0  0  0  0  0  0  0
   13.8499  -19.9353   18.2743 N   0  0  0  0  0  0  0  0  0  0  0  0
   13.3352  -18.7429   17.6522 C   0  0  0  0  0  0  0  0  0  0  0  0
   13.2378  -17.6614   18.7187 C   0  0  0  0  0  0  0  0  0  0  0  0
   12.0821  -16.7471   18.4843 C   0  0  0  0  0  0  0  0  0  0  0  0
   11.0943  -16.7294   19.6168 C   0  0  2  0  0  0  0  0  0  0  0  0
   10.0005  -15.8645   19.3312 N   0  0  0  0  0  0  0  0  0  0  0  0
   11.7935  -16.3832   20.8816 C   0  0  0  0  0  0  0  0  0  0  0  0
   12.1736  -15.1931   21.0865 O   0  0  0  0  0  0  0  0  0  0  0  0
   12.0697  -20.4997   20.0081 N   0  0  0  0  0  0  0  0  0  0  0  0
   12.0680  -17.3267   21.8980 C   0  0  2  0  0  0  0  0  0  0  0  0
   12.6830  -16.9680   23.1895 C   0  0  0  0  0  0  0  0  0  0  0  0
   12.1912  -17.8503   24.2641 C   0  0  0  0  0  0  0  0  0  0  0  0
   12.1813  -17.3503   25.6484 C   0  0  0  0  0  0  0  0  0  0  0  0
   11.7173  -18.1702   26.7470 O   0  0  0  0  0  0  0  0  0  0  0  0
   11.2071  -19.3014   26.6527 C   0  0  0  0  0  0  0  0  0  0  0  0
   14.1235  -16.9105   23.0540 O   0  0  0  0  0  0  0  0  0  0  0  0
   14.9902  -16.1088   23.7947 O   0  0  0  0  0  0  0  0  0  0  0  0
   11.8226  -17.7037   28.0837 O   0  0  0  0  0  0  0  0  0  0  0  0
  2  1  1  6
  3  2  1  0
  4  5  1  1
  4  2  1  0
  6  4  1  0
  7  6  2  0
  9  8  1  0
  9 10  2  0
 11  9  1  0
 12 11  1  0
 13 12  1  0
 14 13  1  0
 15 14  1  6
 15 16  1  0
 16  6  1  0
 17 15  1  0
 17 18  2  0
 19 17  1  0
 20 19  1  0
 20 21  1  6
 22 21  1  0
 23 22  1  0
 24 23  2  0
 25 20  1  0
 26 25  1  0
 27 23  1  0
 28 25  2  0
M  END
$$$$
