VRE.pdb
     RDKit          3D

 28 27  0  0  1  0  0  0  0  0999 V2000
    6.4005  -11.5519   27.8709 C   0  0  0  0  0  0  0  0  0  0  0  0
    7.0531  -12.6524   27.0750 C   0  0  2  0  0  0  0  0  0  0  0  0
    8.0441  -12.0230   26.1230 C   0  0  0  0  0  0  0  0  0  0  0  0
    6.0349  -13.4038   26.2561 C   0  0  2  0  0  0  0  0  0  0  0  0
    5.0866  -14.0510   27.1151 N   0  0  0  0  0  0  0  0  0  0  0  0
    6.6326  -14.2985   25.2372 C   0  0  0  0  0  0  0  0  0  0  0  0
    7.1619  -15.3665   25.5693 O   0  0  0  0  0  0  0  0  0  0  0  0
    8.8681  -12.6941   17.1170 N   0  0  0  0  0  0  0  0  0  0  0  0
    8.8067  -14.1142   17.0942 C   0  0  0  0  0  0  0  0  0  0  0  0
    9.5513  -14.8025   16.3049 N   0  0  0  0  0  0  0  0  0  0  0  0
    7.9032  -14.8228   17.9607 N   0  0  0  0  0  0  0  0  0  0  0  0
    7.2320  -14.0866   19.0005 C   0  0  0  0  0  0  0  0  0  0  0  0
    7.6440  -14.6829   20.3389 C   0  0  0  0  0  0  0  0  0  0  0  0
    6.9383  -14.0330   21.4818 C   0  0  0  0  0  0  0  0  0  0  0  0
    7.2658  -14.6467   22.8139 C   0  0  2  0  0  0  0  0  0  0  0  0
    6.6140  -13.9543   23.8730 N   0  0  0  0  0  0  0  0  0  0  0  0
    8.7409  -14.7105   22.9831 C   0  0  0  0  0  0  0  0  0  0  0  0
    9.3978  -13.6492   23.1954 O   0  0  0  0  0  0  0  0  0  0  0  0
    9.5348  -15.8376   16.2868 N   0  0  0  0  0  0  0  0  0  0  0  0
    9.4762  -15.9164   22.9198 C   0  0  2  0  0  0  0  0  0  0  0  0
   10.9210  -15.9983   23.2038 C   0  0  0  0  0  0  0  0  0  0  0  0
   11.1554  -16.3578   24.6149 C   0  0  0  0  0  0  0  0  0  0  0  0
   10.5951  -17.6166   25.1323 C   0  0  0  0  0  0  0  0  0  0  0  0
   10.7760  -18.0164   26.5114 O   0  0  0  0  0  0  0  0  0  0  0  0
    9.8777  -18.1309   27.3651 C   0  0  0  0  0  0  0  0  0  0  0  0
   11.5689  -16.8584   22.2358 O   0  0  0  0  0  0  0  0  0  0  0  0
   10.9339  -17.6475   21.2784 O   0  0  0  0  0  0  0  0  0  0  0  0
   12.0717  -18.3211   27.0052 O   0  0  0  0  0  0  0  0  0  0  0  0
  2  1  1  6
  3  2  1  0
  4  5  1  1
  4  2  1  0
  6  4  1  0
  7  6  2  0
  9  8  1  0
  9 10  2  0
 11  9  1  0
 12 11  1  0
 13 12  1  0
 14 13  1  0
 15 14  1  6
 15 16  1  0
 16  6  1  0
 17 15  1  0
 17 18  2  0
 19 17  1  0
 20 19  1  0
 20 21  1  6
 22 21  1  0
 23 22  1  0
 24 23  2  0
 25 20  1  0
 26 25  1  0
 27 23  1  0
 28 25  2  0
M  END
$$$$
