CCV.pdb
     RDKit          3D

 20 19  0  0  1  0  0  0  0  0999 V2000
    7.8414  -15.5352   18.2211 N   0  0  0  0  0  0  0  0  0  0  0  0
    8.1498  -14.6864   19.3333 C   0  0  1  0  0  0  0  0  0  0  0  0
    7.7070  -13.2648   19.0737 C   0  0  0  0  0  0  0  0  0  0  0  0
    8.9748  -12.4998   18.0154 S   0  0  0  0  0  0  0  0  0  0  0  0
    7.5629  -15.2572   20.5575 C   0  0  0  0  0  0  0  0  0  0  0  0
    6.3942  -15.6839   20.5775 O   0  0  0  0  0  0  0  0  0  0  0  0
    8.3493  -15.3164   21.7236 N   0  0  0  0  0  0  0  0  0  0  0  0
    7.7332  -15.8506   22.9356 C   0  0  1  0  0  0  0  0  0  0  0  0
    8.2220  -17.2751   23.0432 C   0  0  0  0  0  0  0  0  0  0  0  0
    7.9686  -18.0316   24.6418 S   0  0  0  0  0  0  0  0  0  0  0  0
    8.1331  -15.0057   24.0901 C   0  0  0  0  0  0  0  0  0  0  0  0
    9.3597  -14.6787   24.2315 O   0  0  0  0  0  0  0  0  0  0  0  0
    7.1020  -11.9631   27.8124 C   0  0  0  0  0  0  0  0  0  0  0  0
    6.5657  -12.8802   26.7419 C   0  0  1  0  0  0  0  0  0  0  0  0
    5.7939  -12.1084   25.7216 C   0  0  0  0  0  0  0  0  0  0  0  0
    7.7017  -13.6804   26.1367 C   0  0  2  0  0  0  0  0  0  0  0  0
    7.2392  -14.5246   25.0660 N   0  0  0  0  0  0  0  0  0  0  0  0
    8.2458  -14.5515   27.2312 C   0  0  0  0  0  0  0  0  0  0  0  0
    7.8554  -15.7399   27.3592 O   0  0  0  0  0  0  0  0  0  0  0  0
    9.1900  -14.1030   28.1431 O   0  0  0  0  0  0  0  0  0  0  0  0
  2  1  1  6
  2  5  1  0
  3  2  1  0
  4  3  1  0
  5  6  2  0
  7  5  1  0
  7  8  1  0
  8  9  1  1
 10  9  1  0
 11  8  1  0
 11 12  2  0
 14 13  1  1
 14 15  1  0
 14 16  1  0
 16 18  1  0
 16 17  1  6
 17 11  1  0
 18 20  1  0
 19 18  2  0
M  END
$$$$
