CCV.pdb
     RDKit          3D

 20 19  0  0  1  0  0  0  0  0999 V2000
    7.2867  -16.6201   18.8546 N   0  0  0  0  0  0  0  0  0  0  0  0
    7.7189  -15.5596   19.7155 C   0  0  1  0  0  0  0  0  0  0  0  0
    7.4476  -14.2084   19.0948 C   0  0  0  0  0  0  0  0  0  0  0  0
    8.5720  -14.0431   17.6731 S   0  0  0  0  0  0  0  0  0  0  0  0
    7.0918  -15.7213   21.0382 C   0  0  0  0  0  0  0  0  0  0  0  0
    5.9678  -16.2403   21.1630 O   0  0  0  0  0  0  0  0  0  0  0  0
    7.7873  -15.2760   22.1782 N   0  0  0  0  0  0  0  0  0  0  0  0
    7.2106  -15.5708   23.4875 C   0  0  1  0  0  0  0  0  0  0  0  0
    7.3914  -17.0569   23.6834 C   0  0  0  0  0  0  0  0  0  0  0  0
    6.9968  -17.6463   25.3232 S   0  0  0  0  0  0  0  0  0  0  0  0
    7.9090  -14.7557   24.5145 C   0  0  0  0  0  0  0  0  0  0  0  0
    9.1858  -14.7176   24.5216 O   0  0  0  0  0  0  0  0  0  0  0  0
    6.7201  -11.1315   26.1288 C   0  0  0  0  0  0  0  0  0  0  0  0
    7.1323  -12.1810   27.1305 C   0  0  1  0  0  0  0  0  0  0  0  0
    5.9347  -12.7760   27.7969 C   0  0  0  0  0  0  0  0  0  0  0  0
    8.0044  -13.2199   26.4544 C   0  0  2  0  0  0  0  0  0  0  0  0
    7.2535  -14.0016   25.5066 N   0  0  0  0  0  0  0  0  0  0  0  0
    8.5050  -14.1320   27.5360 C   0  0  0  0  0  0  0  0  0  0  0  0
    9.2623  -13.6984   28.4415 O   0  0  0  0  0  0  0  0  0  0  0  0
    8.1670  -15.4761   27.5956 O   0  0  0  0  0  0  0  0  0  0  0  0
  2  1  1  6
  2  5  1  0
  3  2  1  0
  4  3  1  0
  5  6  2  0
  7  5  1  0
  7  8  1  0
  8  9  1  1
 10  9  1  0
 11  8  1  0
 11 12  2  0
 14 13  1  6
 14 15  1  0
 14 16  1  0
 16 18  1  0
 16 17  1  6
 17 11  1  0
 18 20  1  0
 19 18  2  0
M  END
$$$$
