CCV.pdb
     RDKit          3D

 20 19  0  0  1  0  0  0  0  0999 V2000
    7.8326  -14.2409   20.0871 N   0  0  0  0  0  0  0  0  0  0  0  0
    7.1577  -14.7817   21.2293 C   0  0  1  0  0  0  0  0  0  0  0  0
    6.8466  -16.2480   21.0353 C   0  0  0  0  0  0  0  0  0  0  0  0
    5.2894  -16.3397   20.0974 S   0  0  0  0  0  0  0  0  0  0  0  0
    7.9587  -14.5184   22.4367 C   0  0  0  0  0  0  0  0  0  0  0  0
    9.1995  -14.4396   22.3864 O   0  0  0  0  0  0  0  0  0  0  0  0
    7.2966  -14.3543   23.6681 N   0  0  0  0  0  0  0  0  0  0  0  0
    8.1138  -14.1202   24.8561 C   0  0  1  0  0  0  0  0  0  0  0  0
    7.2428  -13.3197   25.7943 C   0  0  0  0  0  0  0  0  0  0  0  0
    7.8956  -13.1409   27.4478 S   0  0  0  0  0  0  0  0  0  0  0  0
    8.5300  -15.4306   25.4186 C   0  0  0  0  0  0  0  0  0  0  0  0
    7.6791  -16.3806   25.4885 O   0  0  0  0  0  0  0  0  0  0  0  0
   11.8696  -18.8150   26.4581 C   0  0  0  0  0  0  0  0  0  0  0  0
   11.5194  -17.4725   25.8665 C   0  0  1  0  0  0  0  0  0  0  0  0
   11.5912  -17.5165   24.3748 C   0  0  0  0  0  0  0  0  0  0  0  0
   10.1635  -17.0263   26.3759 C   0  0  2  0  0  0  0  0  0  0  0  0
    9.8256  -15.7128   25.8926 N   0  0  0  0  0  0  0  0  0  0  0  0
   10.2616  -16.9741   27.8727 C   0  0  0  0  0  0  0  0  0  0  0  0
   10.3785  -15.8738   28.4700 O   0  0  0  0  0  0  0  0  0  0  0  0
   10.2293  -18.1133   28.6636 O   0  0  0  0  0  0  0  0  0  0  0  0
  2  1  1  6
  2  5  1  0
  3  2  1  0
  4  3  1  0
  5  6  2  0
  7  5  1  0
  7  8  1  0
  8  9  1  1
 10  9  1  0
 11  8  1  0
 11 12  2  0
 14 13  1  1
 14 15  1  0
 14 16  1  0
 16 18  1  0
 16 17  1  6
 17 11  1  0
 18 20  1  0
 19 18  2  0
M  END
$$$$
