CCV.pdb
     RDKit          3D

 20 19  0  0  1  0  0  0  0  0999 V2000
    7.3741  -19.1860   19.5772 N   0  0  0  0  0  0  0  0  0  0  0  0
    8.1649  -18.5173   20.5672 C   0  0  1  0  0  0  0  0  0  0  0  0
    9.1034  -17.5175   19.9314 C   0  0  0  0  0  0  0  0  0  0  0  0
    8.0679  -16.2282   19.1708 S   0  0  0  0  0  0  0  0  0  0  0  0
    7.2750  -17.9122   21.5725 C   0  0  0  0  0  0  0  0  0  0  0  0
    6.0627  -17.7444   21.3473 O   0  0  0  0  0  0  0  0  0  0  0  0
    7.8175  -17.5192   22.8106 N   0  0  0  0  0  0  0  0  0  0  0  0
    6.9062  -16.9690   23.8110 C   0  0  1  0  0  0  0  0  0  0  0  0
    6.5338  -18.1307   24.7006 C   0  0  0  0  0  0  0  0  0  0  0  0
    7.7857  -18.5905   25.8895 S   0  0  0  0  0  0  0  0  0  0  0  0
    7.5962  -15.8726   24.5379 C   0  0  0  0  0  0  0  0  0  0  0  0
    8.8566  -15.7225   24.3946 O   0  0  0  0  0  0  0  0  0  0  0  0
    7.5318  -11.7608   27.2766 C   0  0  0  0  0  0  0  0  0  0  0  0
    6.7338  -12.8593   26.6198 C   0  0  1  0  0  0  0  0  0  0  0  0
    5.7544  -12.2915   25.6448 C   0  0  0  0  0  0  0  0  0  0  0  0
    7.6731  -13.8674   25.9886 C   0  0  2  0  0  0  0  0  0  0  0  0
    6.9496  -14.9617   25.3951 N   0  0  0  0  0  0  0  0  0  0  0  0
    8.5325  -14.4068   27.0946 C   0  0  0  0  0  0  0  0  0  0  0  0
    8.2296  -15.4788   27.6780 O   0  0  0  0  0  0  0  0  0  0  0  0
    9.6848  -13.7657   27.5257 O   0  0  0  0  0  0  0  0  0  0  0  0
  2  1  1  6
  2  5  1  0
  3  2  1  0
  4  3  1  0
  5  6  2  0
  7  5  1  0
  7  8  1  0
  8  9  1  1
 10  9  1  0
 11  8  1  0
 11 12  2  0
 14 13  1  6
 14 15  1  0
 14 16  1  0
 16 18  1  0
 16 17  1  1
 17 11  1  0
 18 20  1  0
 19 18  2  0
M  END
$$$$
