WMD.pdb
     RDKit          3D

 31 32  0  0  1  0  0  0  0  0999 V2000
   14.5982  -22.9014    2.5526 N   0  0  0  0  0  0  0  0  0  0  0  0
   15.9889  -22.6435    2.8119 C   0  0  1  0  0  0  0  0  0  0  0  0
   16.1512  -21.4532    3.6815 C   0  0  0  0  0  0  0  0  0  0  0  0
   15.5796  -20.2558    3.0228 C   0  0  0  0  0  0  0  0  0  0  0  0
   15.0798  -20.1883    1.7169 C   0  0  0  0  0  0  0  0  0  0  0  0
   14.6129  -18.9538    1.4658 N   0  0  0  0  0  0  0  0  0  0  0  0
   14.7720  -18.1835    2.5344 C   0  0  0  0  0  0  0  0  0  0  0  0
   14.4624  -16.8631    2.7612 C   0  0  0  0  0  0  0  0  0  0  0  0
   14.7428  -16.2774    3.9819 C   0  0  0  0  0  0  0  0  0  0  0  0
   15.3348  -17.0601    4.9416 C   0  0  0  0  0  0  0  0  0  0  0  0
   15.6505  -18.3987    4.7181 C   0  0  0  0  0  0  0  0  0  0  0  0
   15.3745  -18.9799    3.5164 C   0  0  0  0  0  0  0  0  0  0  0  0
   16.6957  -23.8502    3.3086 C   0  0  0  0  0  0  0  0  0  0  0  0
   16.0503  -24.7652    3.8818 O   0  0  0  0  0  0  0  0  0  0  0  0
   22.1354  -24.8503   -0.4419 C   0  0  0  0  0  0  0  0  0  0  0  0
   22.0208  -24.6206    1.3705 S   0  0  0  0  0  0  0  0  0  0  0  0
   20.5123  -25.4103    1.9063 C   0  0  0  0  0  0  0  0  0  0  0  0
   20.2249  -25.3200    3.3745 C   0  0  0  0  0  0  0  0  0  0  0  0
   18.8384  -25.0950    3.7799 C   0  0  2  0  0  0  0  0  0  0  0  0
   18.0821  -24.0544    3.1825 N   0  0  0  0  0  0  0  0  0  0  0  0
   18.7674  -24.9264    5.2577 C   0  0  0  0  0  0  0  0  0  0  0  0
   18.8384  -23.7679    5.7980 O   0  0  0  0  0  0  0  0  0  0  0  0
   18.6195  -25.9948    6.1604 N   0  0  0  0  0  0  0  0  0  0  0  0
   18.6238  -25.8230    7.6263 C   0  0  1  0  0  0  0  0  0  0  0  0
   17.4851  -26.6906    8.1107 C   0  0  0  0  0  0  0  0  0  0  0  0
   16.1548  -26.1231    7.9260 C   0  0  0  0  0  0  0  0  0  0  0  0
   16.0605  -24.8542    8.0198 O   0  0  0  0  0  0  0  0  0  0  0  0
   19.9135  -26.4108    8.1101 C   0  0  0  0  0  0  0  0  0  0  0  0
   20.2082  -26.3847    9.3477 O   0  0  0  0  0  0  0  0  0  0  0  0
   14.9986  -26.7976    7.6642 O   0  0  0  0  0  0  0  0  0  0  0  0
   20.8172  -26.9945    7.2424 O   0  0  0  0  0  0  0  0  0  0  0  0
  2  1  1  1
  2 13  1  0
  2  3  1  0
  3  4  1  0
  4  5  2  0
  6  5  1  0
  7  6  1  0
  8  7  2  0
  9  8  1  0
 10 11  1  0
 10  9  2  0
 11 12  2  0
 12  4  1  0
 12  7  1  0
 13 14  2  0
 16 15  1  0
 17 16  1  0
 19 18  1  6
 18 17  1  0
 20 19  1  0
 20 13  1  0
 21 22  2  0
 21 19  1  0
 23 21  1  0
 24 28  1  0
 24 23  1  0
 24 25  1  1
 26 30  1  0
 26 25  1  0
 27 26  2  0
 28 31  1  0
 29 28  2  0
M  END
$$$$
