WMD.pdb
     RDKit          3D

 31 32  0  0  1  0  0  0  0  0999 V2000
   26.4943  -20.8795  -13.7112 N   0  0  0  0  0  0  0  0  0  0  0  0
   25.7575  -20.3070  -12.6170 C   0  0  1  0  0  0  0  0  0  0  0  0
   24.3013  -20.5299  -12.7881 C   0  0  0  0  0  0  0  0  0  0  0  0
   23.7242  -19.4899  -13.6712 C   0  0  0  0  0  0  0  0  0  0  0  0
   24.4410  -18.5668  -14.4418 C   0  0  0  0  0  0  0  0  0  0  0  0
   23.5934  -17.7957  -15.1430 N   0  0  0  0  0  0  0  0  0  0  0  0
   22.3408  -18.1496  -14.8857 C   0  0  0  0  0  0  0  0  0  0  0  0
   21.1415  -17.6603  -15.3474 C   0  0  0  0  0  0  0  0  0  0  0  0
   19.9480  -18.2051  -14.9110 C   0  0  0  0  0  0  0  0  0  0  0  0
   20.0126  -19.2392  -14.0106 C   0  0  0  0  0  0  0  0  0  0  0  0
   21.2246  -19.7397  -13.5395 C   0  0  0  0  0  0  0  0  0  0  0  0
   22.4033  -19.2060  -13.9683 C   0  0  0  0  0  0  0  0  0  0  0  0
   26.2815  -20.7494  -11.3010 C   0  0  0  0  0  0  0  0  0  0  0  0
   26.8659  -21.8585  -11.1978 O   0  0  0  0  0  0  0  0  0  0  0  0
   27.9087  -18.5354   -4.0196 C   0  0  0  0  0  0  0  0  0  0  0  0
   28.6181  -18.4607   -5.7053 S   0  0  0  0  0  0  0  0  0  0  0  0
   27.8303  -19.7433   -6.6647 C   0  0  0  0  0  0  0  0  0  0  0  0
   27.3216  -19.3206   -8.0096 C   0  0  0  0  0  0  0  0  0  0  0  0
   26.6911  -20.3408   -8.8458 C   0  0  2  0  0  0  0  0  0  0  0  0
   26.1694  -19.9951  -10.1185 N   0  0  0  0  0  0  0  0  0  0  0  0
   25.6157  -21.0270   -8.0776 C   0  0  0  0  0  0  0  0  0  0  0  0
   25.8192  -21.4554   -6.8885 O   0  0  0  0  0  0  0  0  0  0  0  0
   24.3214  -21.2556   -8.5781 N   0  0  0  0  0  0  0  0  0  0  0  0
   23.2399  -21.8644   -7.7792 C   0  0  1  0  0  0  0  0  0  0  0  0
   23.8241  -23.1676   -7.2853 C   0  0  0  0  0  0  0  0  0  0  0  0
   22.9525  -23.9428   -6.4105 C   0  0  0  0  0  0  0  0  0  0  0  0
   21.7568  -23.5176   -6.2785 O   0  0  0  0  0  0  0  0  0  0  0  0
   23.0293  -20.9583   -6.6055 C   0  0  0  0  0  0  0  0  0  0  0  0
   21.8724  -20.4937   -6.3508 O   0  0  0  0  0  0  0  0  0  0  0  0
   23.2726  -25.0724   -5.7165 O   0  0  0  0  0  0  0  0  0  0  0  0
   24.0690  -20.5991   -5.7687 O   0  0  0  0  0  0  0  0  0  0  0  0
  2  1  1  6
  2 13  1  0
  2  3  1  0
  3  4  1  0
  4  5  2  0
  6  5  1  0
  7  6  1  0
  8  7  2  0
  9  8  1  0
 10 11  1  0
 10  9  2  0
 11 12  2  0
 12  4  1  0
 12  7  1  0
 13 14  2  0
 16 15  1  0
 17 16  1  0
 19 18  1  1
 18 17  1  0
 20 19  1  0
 20 13  1  0
 21 22  2  0
 21 19  1  0
 23 21  1  0
 24 28  1  0
 24 23  1  0
 24 25  1  1
 26 30  1  0
 26 25  1  0
 27 26  2  0
 28 31  1  0
 29 28  2  0
M  END
$$$$
