WMD.pdb
     RDKit          3D

 31 32  0  0  1  0  0  0  0  0999 V2000
   27.7239  -20.3894  -16.7728 N   0  0  0  0  0  0  0  0  0  0  0  0
   27.2157  -19.6352  -15.6589 C   0  0  1  0  0  0  0  0  0  0  0  0
   25.9086  -19.0188  -15.9920 C   0  0  0  0  0  0  0  0  0  0  0  0
   26.0959  -17.9110  -16.9575 C   0  0  0  0  0  0  0  0  0  0  0  0
   25.5668  -17.8421  -18.2517 C   0  0  0  0  0  0  0  0  0  0  0  0
   25.9144  -16.6804  -18.8300 N   0  0  0  0  0  0  0  0  0  0  0  0
   26.6514  -15.9609  -17.9937 C   0  0  0  0  0  0  0  0  0  0  0  0
   27.2395  -14.7252  -18.1280 C   0  0  0  0  0  0  0  0  0  0  0  0
   27.9807  -14.1858  -17.0928 C   0  0  0  0  0  0  0  0  0  0  0  0
   28.1016  -14.9270  -15.9439 C   0  0  0  0  0  0  0  0  0  0  0  0
   27.5078  -16.1794  -15.8016 C   0  0  0  0  0  0  0  0  0  0  0  0
   26.7753  -16.7139  -16.8194 C   0  0  0  0  0  0  0  0  0  0  0  0
   27.2014  -20.4322  -14.4071 C   0  0  0  0  0  0  0  0  0  0  0  0
   26.8525  -21.6404  -14.4352 O   0  0  0  0  0  0  0  0  0  0  0  0
   28.1378  -21.1128   -6.5440 C   0  0  0  0  0  0  0  0  0  0  0  0
   28.8084  -20.2935   -8.0371 S   0  0  0  0  0  0  0  0  0  0  0  0
   27.7592  -20.7542   -9.4058 C   0  0  0  0  0  0  0  0  0  0  0  0
   28.1514  -20.1875  -10.7367 C   0  0  0  0  0  0  0  0  0  0  0  0
   27.3192  -20.5288  -11.8892 C   0  0  2  0  0  0  0  0  0  0  0  0
   27.5611  -19.9196  -13.1470 N   0  0  0  0  0  0  0  0  0  0  0  0
   25.8831  -20.3300  -11.5494 C   0  0  0  0  0  0  0  0  0  0  0  0
   25.3930  -19.1571  -11.3972 O   0  0  0  0  0  0  0  0  0  0  0  0
   24.9683  -21.3836  -11.3724 N   0  0  0  0  0  0  0  0  0  0  0  0
   23.5498  -21.1745  -11.0227 C   0  0  1  0  0  0  0  0  0  0  0  0
   22.8193  -22.2953  -11.7254 C   0  0  0  0  0  0  0  0  0  0  0  0
   22.0820  -21.8989  -12.9192 C   0  0  0  0  0  0  0  0  0  0  0  0
   21.5292  -22.8377  -13.5833 O   0  0  0  0  0  0  0  0  0  0  0  0
   23.4497  -21.3901   -9.5441 C   0  0  0  0  0  0  0  0  0  0  0  0
   24.2869  -22.1378   -8.9449 O   0  0  0  0  0  0  0  0  0  0  0  0
   21.9172  -20.6356  -13.4062 O   0  0  0  0  0  0  0  0  0  0  0  0
   22.4587  -20.7933   -8.7878 O   0  0  0  0  0  0  0  0  0  0  0  0
  2  1  1  6
  2 13  1  0
  2  3  1  0
  3  4  1  0
  4  5  2  0
  6  5  1  0
  7  6  1  0
  8  7  2  0
  9  8  1  0
 10 11  1  0
 10  9  2  0
 11 12  2  0
 12  4  1  0
 12  7  1  0
 13 14  2  0
 16 15  1  0
 17 16  1  0
 19 18  1  1
 18 17  1  0
 20 19  1  0
 20 13  1  0
 21 22  2  0
 21 19  1  0
 23 21  1  0
 24 28  1  0
 24 23  1  0
 24 25  1  6
 26 30  1  0
 26 25  1  0
 27 26  2  0
 28 31  1  0
 29 28  2  0
M  END
$$$$
