WMD.pdb
     RDKit          3D

 31 32  0  0  1  0  0  0  0  0999 V2000
   23.7140  -11.6740  -19.1015 N   0  0  0  0  0  0  0  0  0  0  0  0
   23.9251  -12.5312  -17.9663 C   0  0  1  0  0  0  0  0  0  0  0  0
   23.6339  -11.8129  -16.7019 C   0  0  0  0  0  0  0  0  0  0  0  0
   24.5542  -10.6631  -16.5423 C   0  0  0  0  0  0  0  0  0  0  0  0
   24.1842   -9.3267  -16.3502 C   0  0  0  0  0  0  0  0  0  0  0  0
   25.2794   -8.5607  -16.2137 N   0  0  0  0  0  0  0  0  0  0  0  0
   26.3704   -9.3104  -16.3042 C   0  0  0  0  0  0  0  0  0  0  0  0
   27.7058   -8.9895  -16.2366 C   0  0  0  0  0  0  0  0  0  0  0  0
   28.6700   -9.9711  -16.3729 C   0  0  0  0  0  0  0  0  0  0  0  0
   28.2416  -11.2593  -16.5759 C   0  0  0  0  0  0  0  0  0  0  0  0
   26.8901  -11.5908  -16.6449 C   0  0  0  0  0  0  0  0  0  0  0  0
   25.9366  -10.6261  -16.5097 C   0  0  0  0  0  0  0  0  0  0  0  0
   23.2059  -13.8221  -18.1021 C   0  0  0  0  0  0  0  0  0  0  0  0
   22.1110  -13.8697  -18.7196 O   0  0  0  0  0  0  0  0  0  0  0  0
   23.0577  -21.6440  -17.6039 C   0  0  0  0  0  0  0  0  0  0  0  0
   24.0016  -20.1297  -17.1960 S   0  0  0  0  0  0  0  0  0  0  0  0
   23.3462  -18.8131  -18.2076 C   0  0  0  0  0  0  0  0  0  0  0  0
   23.9930  -17.4742  -18.0199 C   0  0  0  0  0  0  0  0  0  0  0  0
   23.1172  -16.3247  -17.7986 C   0  0  2  0  0  0  0  0  0  0  0  0
   23.6731  -15.0394  -17.5732 N   0  0  0  0  0  0  0  0  0  0  0  0
   22.1715  -16.6193  -16.6867 C   0  0  0  0  0  0  0  0  0  0  0  0
   22.4610  -16.3279  -15.4742 O   0  0  0  0  0  0  0  0  0  0  0  0
   20.9151  -17.2248  -16.8685 N   0  0  0  0  0  0  0  0  0  0  0  0
   19.9810  -17.5006  -15.7596 C   0  0  1  0  0  0  0  0  0  0  0  0
   19.1823  -16.2260  -15.6138 C   0  0  0  0  0  0  0  0  0  0  0  0
   18.0478  -16.3091  -14.7019 C   0  0  0  0  0  0  0  0  0  0  0  0
   18.0625  -17.2704  -13.8630 O   0  0  0  0  0  0  0  0  0  0  0  0
   19.0687  -18.5849  -16.2443 C   0  0  0  0  0  0  0  0  0  0  0  0
   18.7174  -18.6317  -17.4664 O   0  0  0  0  0  0  0  0  0  0  0  0
   16.9711  -15.4737  -14.6453 O   0  0  0  0  0  0  0  0  0  0  0  0
   18.5824  -19.5599  -15.3939 O   0  0  0  0  0  0  0  0  0  0  0  0
  2  1  1  6
  2 13  1  0
  2  3  1  0
  3  4  1  0
  4  5  2  0
  6  5  1  0
  7  6  1  0
  8  7  2  0
  9  8  1  0
 10 11  1  0
 10  9  2  0
 11 12  2  0
 12  4  1  0
 12  7  1  0
 13 14  2  0
 16 15  1  0
 17 16  1  0
 19 18  1  1
 18 17  1  0
 20 19  1  0
 20 13  1  0
 21 22  2  0
 21 19  1  0
 23 21  1  0
 24 28  1  0
 24 23  1  0
 24 25  1  6
 26 30  1  0
 26 25  1  0
 27 26  2  0
 28 31  1  0
 29 28  2  0
M  END
$$$$
