YKW.pdb
     RDKit          3D

 36 38  0  0  1  0  0  0  0  0999 V2000
   17.7714  -19.9255   20.2863 O   0  0  0  0  0  0  0  0  0  0  0  0
   16.4065  -19.8976   20.0285 C   0  0  0  0  0  0  0  0  0  0  0  0
   15.8841  -18.7416   19.4906 C   0  0  0  0  0  0  0  0  0  0  0  0
   14.5380  -18.6343   19.2056 C   0  0  0  0  0  0  0  0  0  0  0  0
   13.6818  -19.6771   19.4506 C   0  0  0  0  0  0  0  0  0  0  0  0
   12.2351  -19.5516   19.1397 C   0  0  0  0  0  0  0  0  0  0  0  0
   12.0403  -18.2140   18.4469 C   0  0  2  0  0  0  0  0  0  0  0  0
   13.1640  -17.9377   17.5906 N   0  0  0  0  0  0  0  0  0  0  0  0
   11.8431  -17.1428   19.4556 C   0  0  0  0  0  0  0  0  0  0  0  0
   12.8038  -16.3553   19.7442 O   0  0  0  0  0  0  0  0  0  0  0  0
   14.2330  -20.8241   19.9903 C   0  0  0  0  0  0  0  0  0  0  0  0
   15.5696  -20.9398   20.2767 C   0  0  0  0  0  0  0  0  0  0  0  0
   10.5730  -17.0297   20.0737 N   0  0  0  0  0  0  0  0  0  0  0  0
   10.2761  -15.9477   20.9851 C   0  0  1  0  0  0  0  0  0  0  0  0
    8.9220  -15.3355   20.6571 C   0  0  0  0  0  0  0  0  0  0  0  0
    9.0464  -14.3444   19.5222 C   0  0  0  0  0  0  0  0  0  0  0  0
    7.8868  -14.4099   18.5604 C   0  0  0  0  0  0  0  0  0  0  0  0
    8.0169  -13.3796   17.4487 C   0  0  0  0  0  0  0  0  0  0  0  0
    6.9048  -13.5227   16.5194 N   0  0  0  0  0  0  0  0  0  0  0  0
   10.3073  -16.4800   22.3648 C   0  0  0  0  0  0  0  0  0  0  0  0
   10.0169  -17.6797   22.5619 O   0  0  0  0  0  0  0  0  0  0  0  0
   10.6559  -15.6907   23.5068 N   0  0  0  0  0  0  0  0  0  0  0  0
    9.7822  -15.4559   24.6042 C   0  0  1  0  0  0  0  0  0  0  0  0
    8.3577  -15.3358   24.1554 C   0  0  0  0  0  0  0  0  0  0  0  0
    7.4045  -14.8702   25.1599 C   0  0  0  0  0  0  0  0  0  0  0  0
    6.3196  -15.6081   25.6251 C   0  0  0  0  0  0  0  0  0  0  0  0
    5.6874  -14.8401   26.5067 N   0  0  0  0  0  0  0  0  0  0  0  0
    6.3081  -13.6503   26.6323 C   0  0  0  0  0  0  0  0  0  0  0  0
    6.0375  -12.5532   27.4117 C   0  0  0  0  0  0  0  0  0  0  0  0
    6.8390  -11.4229   27.3783 C   0  0  0  0  0  0  0  0  0  0  0  0
    7.9409  -11.3885   26.5432 C   0  0  0  0  0  0  0  0  0  0  0  0
    8.1949  -12.5008   25.7683 C   0  0  0  0  0  0  0  0  0  0  0  0
    7.4117  -13.6410   25.7817 C   0  0  0  0  0  0  0  0  0  0  0  0
    9.9167  -16.4504   25.6920 C   0  0  0  0  0  0  0  0  0  0  0  0
    9.3247  -16.3627   26.7982 O   0  0  0  0  0  0  0  0  0  0  0  0
   10.7419  -17.5474   25.4901 O   0  0  0  0  0  0  0  0  0  0  0  0
  2  3  2  0
  2  1  1  0
  4  3  1  0
  5  4  2  0
  6  5  1  0
  7  6  1  0
  7  8  1  1
  9  7  1  0
 10  9  2  0
 11  5  1  0
 11 12  2  0
 12  2  1  0
 13  9  1  0
 14 20  1  0
 14 13  1  0
 14 15  1  6
 16 15  1  0
 17 16  1  0
 18 19  1  0
 18 17  1  0
 20 22  1  0
 21 20  2  0
 22 23  1  0
 23 34  1  0
 23 24  1  6
 24 25  1  0
 25 33  1  0
 26 27  1  0
 26 25  2  0
 27 28  1  0
 28 33  2  0
 28 29  1  0
 29 30  2  0
 30 31  1  0
 32 31  2  0
 33 32  1  0
 34 35  2  0
 34 36  1  0
M  END
$$$$
