YKW.pdb
     RDKit          3D

 36 38  0  0  1  0  0  0  0  0999 V2000
    7.9654  -11.9461   16.8030 O   0  0  0  0  0  0  0  0  0  0  0  0
    7.9138  -12.6703   17.9874 C   0  0  0  0  0  0  0  0  0  0  0  0
    9.1113  -13.0079   18.5795 C   0  0  0  0  0  0  0  0  0  0  0  0
    9.1452  -13.7263   19.7574 C   0  0  0  0  0  0  0  0  0  0  0  0
    7.9859  -14.1247   20.3719 C   0  0  0  0  0  0  0  0  0  0  0  0
    8.0334  -14.8969   21.6396 C   0  0  0  0  0  0  0  0  0  0  0  0
    8.4640  -16.3103   21.2872 C   0  0  2  0  0  0  0  0  0  0  0  0
    7.4413  -16.9529   20.5040 N   0  0  0  0  0  0  0  0  0  0  0  0
    8.7676  -17.0726   22.5243 C   0  0  0  0  0  0  0  0  0  0  0  0
    7.8283  -17.6572   23.1586 O   0  0  0  0  0  0  0  0  0  0  0  0
    6.7997  -13.7725   19.7560 C   0  0  0  0  0  0  0  0  0  0  0  0
    6.7562  -13.0586   18.5853 C   0  0  0  0  0  0  0  0  0  0  0  0
   10.1131  -17.1259   22.9657 N   0  0  0  0  0  0  0  0  0  0  0  0
   10.4973  -17.9275   24.1055 C   0  0  1  0  0  0  0  0  0  0  0  0
   11.7582  -18.7207   23.7943 C   0  0  0  0  0  0  0  0  0  0  0  0
   12.0967  -19.6525   24.9357 C   0  0  0  0  0  0  0  0  0  0  0  0
   13.2987  -20.5162   24.6473 C   0  0  0  0  0  0  0  0  0  0  0  0
   13.6446  -21.4136   25.8260 C   0  0  0  0  0  0  0  0  0  0  0  0
   12.6895  -22.5105   25.8998 N   0  0  0  0  0  0  0  0  0  0  0  0
   10.6986  -17.0264   25.2612 C   0  0  0  0  0  0  0  0  0  0  0  0
   11.3086  -15.9482   25.0943 O   0  0  0  0  0  0  0  0  0  0  0  0
   10.2289  -17.3198   26.5810 N   0  0  0  0  0  0  0  0  0  0  0  0
   10.5162  -16.5186   27.7206 C   0  0  1  0  0  0  0  0  0  0  0  0
    9.2617  -16.0699   28.4061 C   0  0  0  0  0  0  0  0  0  0  0  0
    8.1931  -15.5835   27.5368 C   0  0  0  0  0  0  0  0  0  0  0  0
    7.2656  -16.3959   26.8903 C   0  0  0  0  0  0  0  0  0  0  0  0
    6.4802  -15.5889   26.1843 N   0  0  0  0  0  0  0  0  0  0  0  0
    6.8532  -14.3036   26.3432 C   0  0  0  0  0  0  0  0  0  0  0  0
    6.3501  -13.1332   25.8315 C   0  0  0  0  0  0  0  0  0  0  0  0
    6.9044  -11.9035   26.1503 C   0  0  0  0  0  0  0  0  0  0  0  0
    7.9910  -11.8420   27.0037 C   0  0  0  0  0  0  0  0  0  0  0  0
    8.4812  -13.0291   27.5065 C   0  0  0  0  0  0  0  0  0  0  0  0
    7.9479  -14.2692   27.2046 C   0  0  0  0  0  0  0  0  0  0  0  0
   11.4464  -17.1600   28.6765 C   0  0  0  0  0  0  0  0  0  0  0  0
   11.8756  -18.3359   28.5541 O   0  0  0  0  0  0  0  0  0  0  0  0
   11.8762  -16.4303   29.7755 O   0  0  0  0  0  0  0  0  0  0  0  0
  2  3  2  0
  2  1  1  0
  4  3  1  0
  5  4  2  0
  6  5  1  0
  7  6  1  0
  7  8  1  1
  9  7  1  0
 10  9  2  0
 11  5  1  0
 11 12  2  0
 12  2  1  0
 13  9  1  0
 14 20  1  0
 14 13  1  0
 14 15  1  6
 16 15  1  0
 17 16  1  0
 18 19  1  0
 18 17  1  0
 20 22  1  0
 21 20  2  0
 22 23  1  0
 23 34  1  0
 23 24  1  1
 24 25  1  0
 25 33  1  0
 26 27  1  0
 26 25  2  0
 27 28  1  0
 28 33  2  0
 28 29  1  0
 29 30  2  0
 30 31  1  0
 32 31  2  0
 33 32  1  0
 34 35  2  0
 34 36  1  0
M  END
$$$$
