YKW.pdb
     RDKit          3D

 36 38  0  0  1  0  0  0  0  0999 V2000
   17.4535  -15.0018   17.8780 O   0  0  0  0  0  0  0  0  0  0  0  0
   16.2217  -14.8417   18.5000 C   0  0  0  0  0  0  0  0  0  0  0  0
   15.4302  -13.7933   18.0840 C   0  0  0  0  0  0  0  0  0  0  0  0
   14.1930  -13.5667   18.6518 C   0  0  0  0  0  0  0  0  0  0  0  0
   13.7164  -14.3801   19.6477 C   0  0  0  0  0  0  0  0  0  0  0  0
   12.3834  -14.1279   20.2516 C   0  0  0  0  0  0  0  0  0  0  0  0
   11.4021  -15.0749   19.5827 C   0  0  2  0  0  0  0  0  0  0  0  0
   10.7669  -14.4169   18.4710 N   0  0  0  0  0  0  0  0  0  0  0  0
   10.4087  -15.5607   20.5730 C   0  0  0  0  0  0  0  0  0  0  0  0
    9.3532  -14.8823   20.8014 O   0  0  0  0  0  0  0  0  0  0  0  0
   14.5311  -15.4236   20.0452 C   0  0  0  0  0  0  0  0  0  0  0  0
   15.7623  -15.6565   19.4865 C   0  0  0  0  0  0  0  0  0  0  0  0
   10.6711  -16.7820   21.2420 N   0  0  0  0  0  0  0  0  0  0  0  0
    9.7671  -17.2966   22.2458 C   0  0  1  0  0  0  0  0  0  0  0  0
    9.5006  -18.7761   22.0100 C   0  0  0  0  0  0  0  0  0  0  0  0
    8.6982  -19.3612   23.1500 C   0  0  0  0  0  0  0  0  0  0  0  0
    8.4628  -20.8429   22.9980 C   0  0  0  0  0  0  0  0  0  0  0  0
    7.5405  -21.3817   24.0812 C   0  0  0  0  0  0  0  0  0  0  0  0
    7.3390  -22.8103   23.8830 N   0  0  0  0  0  0  0  0  0  0  0  0
   10.3682  -17.0623   23.5769 C   0  0  0  0  0  0  0  0  0  0  0  0
   11.5429  -17.4332   23.7890 O   0  0  0  0  0  0  0  0  0  0  0  0
    9.6739  -16.4258   24.6547 N   0  0  0  0  0  0  0  0  0  0  0  0
   10.1890  -16.3200   25.9762 C   0  0  1  0  0  0  0  0  0  0  0  0
    9.6450  -15.1156   26.6823 C   0  0  0  0  0  0  0  0  0  0  0  0
    8.2431  -14.7971   26.4225 C   0  0  0  0  0  0  0  0  0  0  0  0
    7.2561  -15.7371   26.1391 C   0  0  0  0  0  0  0  0  0  0  0  0
    6.1298  -15.0588   25.9444 N   0  0  0  0  0  0  0  0  0  0  0  0
    6.3407  -13.7354   26.0879 C   0  0  0  0  0  0  0  0  0  0  0  0
    5.4967  -12.6571   25.9918 C   0  0  0  0  0  0  0  0  0  0  0  0
    5.9469  -11.3619   26.1938 C   0  0  0  0  0  0  0  0  0  0  0  0
    7.2770  -11.1386   26.5003 C   0  0  0  0  0  0  0  0  0  0  0  0
    8.1082  -12.2354   26.5918 C   0  0  0  0  0  0  0  0  0  0  0  0
    7.6854  -13.5377   26.3947 C   0  0  0  0  0  0  0  0  0  0  0  0
    9.9991  -17.5442   26.7860 C   0  0  0  0  0  0  0  0  0  0  0  0
    9.2903  -18.5189   26.4260 O   0  0  0  0  0  0  0  0  0  0  0  0
   10.6354  -17.6320   28.0157 O   0  0  0  0  0  0  0  0  0  0  0  0
  2  3  2  0
  2  1  1  0
  4  3  1  0
  5  4  2  0
  6  5  1  0
  7  6  1  0
  7  8  1  6
  9  7  1  0
 10  9  2  0
 11  5  1  0
 11 12  2  0
 12  2  1  0
 13  9  1  0
 14 20  1  0
 14 13  1  0
 14 15  1  6
 16 15  1  0
 17 16  1  0
 18 19  1  0
 18 17  1  0
 20 22  1  0
 21 20  2  0
 22 23  1  0
 23 34  1  0
 23 24  1  1
 24 25  1  0
 25 33  1  0
 26 27  1  0
 26 25  2  0
 27 28  1  0
 28 33  2  0
 28 29  1  0
 29 30  2  0
 30 31  1  0
 32 31  2  0
 33 32  1  0
 34 35  2  0
 34 36  1  0
M  END
$$$$
