YKW.pdb
     RDKit          3D

 36 38  0  0  1  0  0  0  0  0999 V2000
    8.8101  -11.3160   20.6331 O   0  0  0  0  0  0  0  0  0  0  0  0
    8.5377  -12.6300   20.2733 C   0  0  0  0  0  0  0  0  0  0  0  0
    7.4276  -12.8580   19.4897 C   0  0  0  0  0  0  0  0  0  0  0  0
    7.0889  -14.1347   19.0897 C   0  0  0  0  0  0  0  0  0  0  0  0
    7.8492  -15.2135   19.4621 C   0  0  0  0  0  0  0  0  0  0  0  0
    7.4764  -16.5831   19.0259 C   0  0  0  0  0  0  0  0  0  0  0  0
    6.3780  -17.0664   19.9571 C   0  0  2  0  0  0  0  0  0  0  0  0
    5.2477  -16.1779   19.8838 N   0  0  0  0  0  0  0  0  0  0  0  0
    6.8988  -17.1781   21.3428 C   0  0  0  0  0  0  0  0  0  0  0  0
    6.2542  -16.6526   22.3096 O   0  0  0  0  0  0  0  0  0  0  0  0
    8.9566  -14.9555   20.2480 C   0  0  0  0  0  0  0  0  0  0  0  0
    9.3011  -13.6899   20.6503 C   0  0  0  0  0  0  0  0  0  0  0  0
    8.1147  -17.8765   21.5476 N   0  0  0  0  0  0  0  0  0  0  0  0
    8.4191  -18.4957   22.8178 C   0  0  1  0  0  0  0  0  0  0  0  0
    8.9505  -19.9058   22.6058 C   0  0  0  0  0  0  0  0  0  0  0  0
    9.2327  -20.5738   23.9324 C   0  0  0  0  0  0  0  0  0  0  0  0
    9.8608  -21.9360   23.7780 C   0  0  0  0  0  0  0  0  0  0  0  0
   10.1981  -22.5577   25.1249 C   0  0  0  0  0  0  0  0  0  0  0  0
    8.9759  -23.0196   25.7680 N   0  0  0  0  0  0  0  0  0  0  0  0
    9.4048  -17.6483   23.5239 C   0  0  0  0  0  0  0  0  0  0  0  0
   10.5179  -17.4386   22.9951 O   0  0  0  0  0  0  0  0  0  0  0  0
    9.1565  -17.0442   24.7974 N   0  0  0  0  0  0  0  0  0  0  0  0
   10.1564  -16.3996   25.5770 C   0  0  1  0  0  0  0  0  0  0  0  0
    9.7707  -14.9899   25.9071 C   0  0  0  0  0  0  0  0  0  0  0  0
    8.3577  -14.6557   25.7457 C   0  0  0  0  0  0  0  0  0  0  0  0
    7.3417  -15.5853   25.5416 C   0  0  0  0  0  0  0  0  0  0  0  0
    6.2125  -14.8944   25.4224 N   0  0  0  0  0  0  0  0  0  0  0  0
    6.4491  -13.5728   25.5394 C   0  0  0  0  0  0  0  0  0  0  0  0
    5.6133  -12.4846   25.4951 C   0  0  0  0  0  0  0  0  0  0  0  0
    6.0924  -11.1937   25.6536 C   0  0  0  0  0  0  0  0  0  0  0  0
    7.4437  -10.9849   25.8622 C   0  0  0  0  0  0  0  0  0  0  0  0
    8.2660  -12.0914   25.9031 C   0  0  0  0  0  0  0  0  0  0  0  0
    7.8146  -13.3897   25.7475 C   0  0  0  0  0  0  0  0  0  0  0  0
   10.5318  -17.1495   26.7965 C   0  0  0  0  0  0  0  0  0  0  0  0
    9.9360  -18.1833   27.1941 O   0  0  0  0  0  0  0  0  0  0  0  0
   11.6020  -16.6938   27.5528 O   0  0  0  0  0  0  0  0  0  0  0  0
  2  3  2  0
  2  1  1  0
  4  3  1  0
  5  4  2  0
  6  5  1  0
  7  6  1  0
  7  8  1  1
  9  7  1  0
 10  9  2  0
 11  5  1  0
 11 12  2  0
 12  2  1  0
 13  9  1  0
 14 20  1  0
 14 13  1  0
 14 15  1  6
 16 15  1  0
 17 16  1  0
 18 19  1  0
 18 17  1  0
 20 22  1  0
 21 20  2  0
 22 23  1  0
 23 34  1  0
 23 24  1  1
 24 25  1  0
 25 33  1  0
 26 27  1  0
 26 25  2  0
 27 28  1  0
 28 33  2  0
 28 29  1  0
 29 30  2  0
 30 31  1  0
 32 31  2  0
 33 32  1  0
 34 35  2  0
 34 36  1  0
M  END
$$$$
