YKW.pdb
     RDKit          3D

 36 38  0  0  1  0  0  0  0  0999 V2000
    9.1346  -24.4302   19.2104 O   0  0  0  0  0  0  0  0  0  0  0  0
    9.4522  -23.1620   19.6802 C   0  0  0  0  0  0  0  0  0  0  0  0
    8.4125  -22.3573   20.0925 C   0  0  0  0  0  0  0  0  0  0  0  0
    8.6448  -21.0843   20.5722 C   0  0  0  0  0  0  0  0  0  0  0  0
    9.9193  -20.5843   20.6517 C   0  0  0  0  0  0  0  0  0  0  0  0
   10.1585  -19.2133   21.1699 C   0  0  0  0  0  0  0  0  0  0  0  0
    9.8583  -18.2473   20.0368 C   0  0  2  0  0  0  0  0  0  0  0  0
   10.7671  -18.4766   18.9442 N   0  0  0  0  0  0  0  0  0  0  0  0
    9.9329  -16.8484   20.5280 C   0  0  0  0  0  0  0  0  0  0  0  0
   11.0490  -16.2315   20.5256 O   0  0  0  0  0  0  0  0  0  0  0  0
   10.9426  -21.4130   20.2314 C   0  0  0  0  0  0  0  0  0  0  0  0
   10.7212  -22.6797   19.7533 C   0  0  0  0  0  0  0  0  0  0  0  0
    8.7417  -16.2359   20.9903 N   0  0  0  0  0  0  0  0  0  0  0  0
    8.7368  -14.8721   21.4695 C   0  0  1  0  0  0  0  0  0  0  0  0
    7.4762  -14.1539   21.0102 C   0  0  0  0  0  0  0  0  0  0  0  0
    7.7619  -13.3005   19.7954 C   0  0  0  0  0  0  0  0  0  0  0  0
    7.9733  -14.1169   18.5453 C   0  0  0  0  0  0  0  0  0  0  0  0
    8.2050  -13.2347   17.3277 C   0  0  0  0  0  0  0  0  0  0  0  0
    8.3129  -14.0664   16.1371 N   0  0  0  0  0  0  0  0  0  0  0  0
    8.8359  -14.8973   22.9451 C   0  0  0  0  0  0  0  0  0  0  0  0
    7.9899  -14.2755   23.6235 O   0  0  0  0  0  0  0  0  0  0  0  0
    9.8594  -15.6026   23.6547 N   0  0  0  0  0  0  0  0  0  0  0  0
    9.9713  -15.6217   25.0726 C   0  0  1  0  0  0  0  0  0  0  0  0
    8.7254  -16.1518   25.7141 C   0  0  0  0  0  0  0  0  0  0  0  0
    7.6003  -15.2236   25.7971 C   0  0  0  0  0  0  0  0  0  0  0  0
    6.2863  -15.5388   25.4621 C   0  0  0  0  0  0  0  0  0  0  0  0
    5.5707  -14.4346   25.6501 N   0  0  0  0  0  0  0  0  0  0  0  0
    6.3541  -13.4290   26.0877 C   0  0  0  0  0  0  0  0  0  0  0  0
    6.0733  -12.1274   26.4218 C   0  0  0  0  0  0  0  0  0  0  0  0
    7.0610  -11.2621   26.8654 C   0  0  0  0  0  0  0  0  0  0  0  0
    8.3647  -11.7101   26.9782 C   0  0  0  0  0  0  0  0  0  0  0  0
    8.6254  -13.0208   26.6373 C   0  0  0  0  0  0  0  0  0  0  0  0
    7.6594  -13.9050   26.1917 C   0  0  0  0  0  0  0  0  0  0  0  0
   11.1701  -16.3380   25.5627 C   0  0  0  0  0  0  0  0  0  0  0  0
   11.4575  -16.4709   26.7799 O   0  0  0  0  0  0  0  0  0  0  0  0
   12.0340  -16.8994   24.6335 O   0  0  0  0  0  0  0  0  0  0  0  0
  2  3  2  0
  2  1  1  0
  4  3  1  0
  5  4  2  0
  6  5  1  0
  7  6  1  0
  7  8  1  6
  9  7  1  0
 10  9  2  0
 11  5  1  0
 11 12  2  0
 12  2  1  0
 13  9  1  0
 14 20  1  0
 14 13  1  0
 14 15  1  1
 16 15  1  0
 17 16  1  0
 18 19  1  0
 18 17  1  0
 20 22  1  0
 21 20  2  0
 22 23  1  0
 23 34  1  0
 23 24  1  1
 24 25  1  0
 25 33  1  0
 26 27  1  0
 26 25  2  0
 27 28  1  0
 28 33  2  0
 28 29  1  0
 29 30  2  0
 30 31  1  0
 32 31  2  0
 33 32  1  0
 34 35  2  0
 34 36  1  0
M  END
$$$$
