YKW.pdb
     RDKit          3D

 36 38  0  0  1  0  0  0  0  0999 V2000
    4.3712  -23.5809   26.2497 O   0  0  0  0  0  0  0  0  0  0  0  0
    5.0869  -22.4738   25.8113 C   0  0  0  0  0  0  0  0  0  0  0  0
    4.5888  -21.7820   24.7287 C   0  0  0  0  0  0  0  0  0  0  0  0
    5.2407  -20.6714   24.2327 C   0  0  0  0  0  0  0  0  0  0  0  0
    6.4045  -20.2251   24.8045 C   0  0  0  0  0  0  0  0  0  0  0  0
    7.0978  -19.0285   24.2634 C   0  0  0  0  0  0  0  0  0  0  0  0
    7.3470  -19.2846   22.7871 C   0  0  2  0  0  0  0  0  0  0  0  0
    7.9049  -20.5991   22.6054 N   0  0  0  0  0  0  0  0  0  0  0  0
    8.2326  -18.2312   22.2306 C   0  0  0  0  0  0  0  0  0  0  0  0
    9.3941  -18.5369   21.8017 O   0  0  0  0  0  0  0  0  0  0  0  0
    6.8811  -20.9379   25.8886 C   0  0  0  0  0  0  0  0  0  0  0  0
    6.2398  -22.0429   26.3886 C   0  0  0  0  0  0  0  0  0  0  0  0
    7.7495  -16.8996   22.1942 N   0  0  0  0  0  0  0  0  0  0  0  0
    8.6389  -15.7853   21.9558 C   0  0  1  0  0  0  0  0  0  0  0  0
    7.8545  -14.5773   21.4644 C   0  0  0  0  0  0  0  0  0  0  0  0
    7.3900  -14.7868   20.0411 C   0  0  0  0  0  0  0  0  0  0  0  0
    7.9520  -13.7631   19.0870 C   0  0  0  0  0  0  0  0  0  0  0  0
    7.4354  -13.9680   17.6709 C   0  0  0  0  0  0  0  0  0  0  0  0
    7.9770  -12.9337   16.8004 N   0  0  0  0  0  0  0  0  0  0  0  0
    9.3576  -15.4864   23.2136 C   0  0  0  0  0  0  0  0  0  0  0  0
   10.2498  -14.6109   23.2125 O   0  0  0  0  0  0  0  0  0  0  0  0
    9.0884  -16.1506   24.4525 N   0  0  0  0  0  0  0  0  0  0  0  0
    9.8082  -15.9071   25.6548 C   0  0  1  0  0  0  0  0  0  0  0  0
    8.8835  -15.6959   26.8147 C   0  0  0  0  0  0  0  0  0  0  0  0
    7.7800  -14.7641   26.5954 C   0  0  0  0  0  0  0  0  0  0  0  0
    6.4732  -15.1393   26.2963 C   0  0  0  0  0  0  0  0  0  0  0  0
    5.7788  -14.0154   26.1502 N   0  0  0  0  0  0  0  0  0  0  0  0
    6.5690  -12.9402   26.3397 C   0  0  0  0  0  0  0  0  0  0  0  0
    6.3081  -11.5930   26.3018 C   0  0  0  0  0  0  0  0  0  0  0  0
    7.2986  -10.6542   26.5440 C   0  0  0  0  0  0  0  0  0  0  0  0
    8.5848  -11.0735   26.8320 C   0  0  0  0  0  0  0  0  0  0  0  0
    8.8257  -12.4311   26.8650 C   0  0  0  0  0  0  0  0  0  0  0  0
    7.8565  -13.3889   26.6268 C   0  0  0  0  0  0  0  0  0  0  0  0
   10.8193  -16.9438   25.9605 C   0  0  0  0  0  0  0  0  0  0  0  0
   11.6165  -16.8799   26.9312 O   0  0  0  0  0  0  0  0  0  0  0  0
   10.9010  -18.0553   25.1340 O   0  0  0  0  0  0  0  0  0  0  0  0
  2  3  2  0
  2  1  1  0
  4  3  1  0
  5  4  2  0
  6  5  1  0
  7  6  1  0
  7  8  1  1
  9  7  1  0
 10  9  2  0
 11  5  1  0
 11 12  2  0
 12  2  1  0
 13  9  1  0
 14 20  1  0
 14 13  1  0
 14 15  1  1
 16 15  1  0
 17 16  1  0
 18 19  1  0
 18 17  1  0
 20 22  1  0
 21 20  2  0
 22 23  1  0
 23 34  1  0
 23 24  1  1
 24 25  1  0
 25 33  1  0
 26 27  1  0
 26 25  2  0
 27 28  1  0
 28 33  2  0
 28 29  1  0
 29 30  2  0
 30 31  1  0
 32 31  2  0
 33 32  1  0
 34 35  2  0
 34 36  1  0
M  END
$$$$
