YKW.pdb
     RDKit          3D

 36 38  0  0  1  0  0  0  0  0999 V2000
    7.4487  -11.5726   17.0485 O   0  0  0  0  0  0  0  0  0  0  0  0
    7.4451  -12.4765   18.1035 C   0  0  0  0  0  0  0  0  0  0  0  0
    8.4997  -12.4254   18.9889 C   0  0  0  0  0  0  0  0  0  0  0  0
    8.5696  -13.2891   20.0629 C   0  0  0  0  0  0  0  0  0  0  0  0
    7.5898  -14.2239   20.2789 C   0  0  0  0  0  0  0  0  0  0  0  0
    7.6743  -15.1482   21.4381 C   0  0  0  0  0  0  0  0  0  0  0  0
    8.5534  -16.3137   21.0186 C   0  0  2  0  0  0  0  0  0  0  0  0
    7.9136  -17.0545   19.9631 N   0  0  0  0  0  0  0  0  0  0  0  0
    8.8502  -17.1746   22.1909 C   0  0  0  0  0  0  0  0  0  0  0  0
    8.0431  -18.1066   22.5171 O   0  0  0  0  0  0  0  0  0  0  0  0
    6.5442  -14.2527   19.3754 C   0  0  0  0  0  0  0  0  0  0  0  0
    6.4662  -13.3981   18.3050 C   0  0  0  0  0  0  0  0  0  0  0  0
   10.0399  -16.9275   22.9199 N   0  0  0  0  0  0  0  0  0  0  0  0
   10.4766  -17.8220   23.9682 C   0  0  1  0  0  0  0  0  0  0  0  0
   11.7526  -18.5404   23.5540 C   0  0  0  0  0  0  0  0  0  0  0  0
   11.4440  -19.6564   22.5818 C   0  0  0  0  0  0  0  0  0  0  0  0
   12.6754  -20.4135   22.1524 C   0  0  0  0  0  0  0  0  0  0  0  0
   12.3363  -21.5451   21.1938 C   0  0  0  0  0  0  0  0  0  0  0  0
   13.5533  -22.2589   20.8330 N   0  0  0  0  0  0  0  0  0  0  0  0
   10.6795  -17.0300   25.2009 C   0  0  0  0  0  0  0  0  0  0  0  0
   11.5491  -16.1321   25.2121 O   0  0  0  0  0  0  0  0  0  0  0  0
    9.9274  -17.2333   26.4015 N   0  0  0  0  0  0  0  0  0  0  0  0
   10.1955  -16.5637   27.6274 C   0  0  1  0  0  0  0  0  0  0  0  0
    8.9369  -16.0542   28.2610 C   0  0  0  0  0  0  0  0  0  0  0  0
    7.9874  -15.3973   27.3661 C   0  0  0  0  0  0  0  0  0  0  0  0
    7.0015  -16.0548   26.6355 C   0  0  0  0  0  0  0  0  0  0  0  0
    6.3639  -15.1237   25.9333 N   0  0  0  0  0  0  0  0  0  0  0  0
    6.8870  -13.9051   26.1740 C   0  0  0  0  0  0  0  0  0  0  0  0
    6.5643  -12.6588   25.6975 C   0  0  0  0  0  0  0  0  0  0  0  0
    7.2511  -11.5255   26.1038 C   0  0  0  0  0  0  0  0  0  0  0  0
    8.2886  -11.6413   27.0111 C   0  0  0  0  0  0  0  0  0  0  0  0
    8.5968  -12.9022   27.4772 C   0  0  0  0  0  0  0  0  0  0  0  0
    7.9285  -14.0492   27.0883 C   0  0  0  0  0  0  0  0  0  0  0  0
   10.9849  -17.3719   28.5836 C   0  0  0  0  0  0  0  0  0  0  0  0
   11.3860  -16.9455   29.6967 O   0  0  0  0  0  0  0  0  0  0  0  0
   11.3067  -18.6775   28.2418 O   0  0  0  0  0  0  0  0  0  0  0  0
  2  3  2  0
  2  1  1  0
  4  3  1  0
  5  4  2  0
  6  5  1  0
  7  6  1  0
  7  8  1  6
  9  7  1  0
 10  9  2  0
 11  5  1  0
 11 12  2  0
 12  2  1  0
 13  9  1  0
 14 20  1  0
 14 13  1  0
 14 15  1  6
 16 15  1  0
 17 16  1  0
 18 19  1  0
 18 17  1  0
 20 22  1  0
 21 20  2  0
 22 23  1  0
 23 34  1  0
 23 24  1  1
 24 25  1  0
 25 33  1  0
 26 27  1  0
 26 25  2  0
 27 28  1  0
 28 33  2  0
 28 29  1  0
 29 30  2  0
 30 31  1  0
 32 31  2  0
 33 32  1  0
 34 35  2  0
 34 36  1  0
M  END
$$$$
