YKW.pdb
     RDKit          3D

 36 38  0  0  1  0  0  0  0  0999 V2000
    8.5319  -12.9623   15.7767 O   0  0  0  0  0  0  0  0  0  0  0  0
    8.2485  -13.2683   17.1019 C   0  0  0  0  0  0  0  0  0  0  0  0
    7.1756  -14.0971   17.3482 C   0  0  0  0  0  0  0  0  0  0  0  0
    6.8290  -14.4485   18.6369 C   0  0  0  0  0  0  0  0  0  0  0  0
    7.5441  -13.9817   19.7099 C   0  0  0  0  0  0  0  0  0  0  0  0
    7.1632  -14.3665   21.0927 C   0  0  0  0  0  0  0  0  0  0  0  0
    8.1781  -15.3917   21.5681 C   0  0  2  0  0  0  0  0  0  0  0  0
    8.1834  -16.5241   20.6793 N   0  0  0  0  0  0  0  0  0  0  0  0
    7.8793  -15.7928   22.9657 C   0  0  0  0  0  0  0  0  0  0  0  0
    7.9535  -14.9329   23.9046 O   0  0  0  0  0  0  0  0  0  0  0  0
    8.6149  -13.1525   19.4335 C   0  0  0  0  0  0  0  0  0  0  0  0
    8.9668  -12.7978   18.1558 C   0  0  0  0  0  0  0  0  0  0  0  0
    7.5156  -17.1397   23.2134 N   0  0  0  0  0  0  0  0  0  0  0  0
    7.4011  -17.6501   24.5610 C   0  0  1  0  0  0  0  0  0  0  0  0
    6.4002  -18.7954   24.6103 C   0  0  0  0  0  0  0  0  0  0  0  0
    6.3310  -19.5002   23.2745 C   0  0  0  0  0  0  0  0  0  0  0  0
    5.3803  -20.6707   23.2807 C   0  0  0  0  0  0  0  0  0  0  0  0
    5.4600  -21.4693   21.9884 C   0  0  0  0  0  0  0  0  0  0  0  0
    4.4645  -22.5319   22.0102 N   0  0  0  0  0  0  0  0  0  0  0  0
    8.7418  -18.0858   25.0088 C   0  0  0  0  0  0  0  0  0  0  0  0
    9.1378  -19.2352   24.7179 O   0  0  0  0  0  0  0  0  0  0  0  0
    9.6277  -17.2566   25.7678 N   0  0  0  0  0  0  0  0  0  0  0  0
    9.6168  -17.1774   27.1879 C   0  0  1  0  0  0  0  0  0  0  0  0
    8.4752  -16.3421   27.6821 C   0  0  0  0  0  0  0  0  0  0  0  0
    8.6331  -14.8958   27.5503 C   0  0  0  0  0  0  0  0  0  0  0  0
    9.8430  -14.2167   27.6648 C   0  0  0  0  0  0  0  0  0  0  0  0
    9.5709  -12.9255   27.5053 N   0  0  0  0  0  0  0  0  0  0  0  0
    8.2528  -12.7398   27.2943 C   0  0  0  0  0  0  0  0  0  0  0  0
    7.5110  -11.6062   27.0726 C   0  0  0  0  0  0  0  0  0  0  0  0
    6.1413  -11.6630   26.8679 C   0  0  0  0  0  0  0  0  0  0  0  0
    5.4958  -12.8860   26.8853 C   0  0  0  0  0  0  0  0  0  0  0  0
    6.2593  -14.0124   27.1099 C   0  0  0  0  0  0  0  0  0  0  0  0
    7.6267  -13.9843   27.3175 C   0  0  0  0  0  0  0  0  0  0  0  0
    9.6393  -18.4983   27.8551 C   0  0  0  0  0  0  0  0  0  0  0  0
    9.4643  -18.6623   29.0898 O   0  0  0  0  0  0  0  0  0  0  0  0
    9.8661  -19.6283   27.0827 O   0  0  0  0  0  0  0  0  0  0  0  0
  2  3  2  0
  2  1  1  0
  4  3  1  0
  5  4  2  0
  6  5  1  0
  7  6  1  0
  7  8  1  6
  9  7  1  0
 10  9  2  0
 11  5  1  0
 11 12  2  0
 12  2  1  0
 13  9  1  0
 14 20  1  0
 14 13  1  0
 14 15  1  6
 16 15  1  0
 17 16  1  0
 18 19  1  0
 18 17  1  0
 20 22  1  0
 21 20  2  0
 22 23  1  0
 23 34  1  0
 23 24  1  6
 24 25  1  0
 25 33  1  0
 26 27  1  0
 26 25  2  0
 27 28  1  0
 28 33  2  0
 28 29  1  0
 29 30  2  0
 30 31  1  0
 32 31  2  0
 33 32  1  0
 34 35  2  0
 34 36  1  0
M  END
$$$$
