YKW.pdb
     RDKit          3D

 36 38  0  0  1  0  0  0  0  0999 V2000
   15.6208  -18.7422   14.5589 O   0  0  0  0  0  0  0  0  0  0  0  0
   15.1239  -18.2312   15.7513 C   0  0  0  0  0  0  0  0  0  0  0  0
   15.1252  -19.0631   16.8498 C   0  0  0  0  0  0  0  0  0  0  0  0
   14.6485  -18.6306   18.0705 C   0  0  0  0  0  0  0  0  0  0  0  0
   14.1594  -17.3587   18.2242 C   0  0  0  0  0  0  0  0  0  0  0  0
   13.6494  -16.9030   19.5424 C   0  0  0  0  0  0  0  0  0  0  0  0
   13.0717  -15.5125   19.3428 C   0  0  2  0  0  0  0  0  0  0  0  0
   14.1375  -14.5532   19.2148 N   0  0  0  0  0  0  0  0  0  0  0  0
   12.1613  -15.1742   20.4655 C   0  0  0  0  0  0  0  0  0  0  0  0
   12.6385  -14.7203   21.5576 O   0  0  0  0  0  0  0  0  0  0  0  0
   14.1701  -16.5462   17.1060 C   0  0  0  0  0  0  0  0  0  0  0  0
   14.6420  -16.9674   15.8886 C   0  0  0  0  0  0  0  0  0  0  0  0
   10.7699  -15.3701   20.2825 N   0  0  0  0  0  0  0  0  0  0  0  0
    9.8098  -14.8715   21.2413 C   0  0  1  0  0  0  0  0  0  0  0  0
    8.4362  -14.7450   20.5985 C   0  0  0  0  0  0  0  0  0  0  0  0
    8.4696  -13.7483   19.4622 C   0  0  0  0  0  0  0  0  0  0  0  0
    8.1261  -14.3686   18.1314 C   0  0  0  0  0  0  0  0  0  0  0  0
    8.2770  -13.3746   16.9897 C   0  0  0  0  0  0  0  0  0  0  0  0
    7.8211  -13.9851   15.7487 N   0  0  0  0  0  0  0  0  0  0  0  0
    9.7820  -15.7962   22.3955 C   0  0  0  0  0  0  0  0  0  0  0  0
    9.9364  -17.0210   22.1990 O   0  0  0  0  0  0  0  0  0  0  0  0
    9.5856  -15.3656   23.7462 N   0  0  0  0  0  0  0  0  0  0  0  0
    9.5159  -16.2505   24.8577 C   0  0  1  0  0  0  0  0  0  0  0  0
    9.2323  -15.5118   26.1301 C   0  0  0  0  0  0  0  0  0  0  0  0
    7.9887  -14.7461   26.1650 C   0  0  0  0  0  0  0  0  0  0  0  0
    6.7136  -15.3021   26.1078 C   0  0  0  0  0  0  0  0  0  0  0  0
    5.8548  -14.2884   26.1437 N   0  0  0  0  0  0  0  0  0  0  0  0
    6.5095  -13.1129   26.2212 C   0  0  0  0  0  0  0  0  0  0  0  0
    6.0616  -11.8170   26.2888 C   0  0  0  0  0  0  0  0  0  0  0  0
    6.9401  -10.7483   26.3738 C   0  0  0  0  0  0  0  0  0  0  0  0
    8.3033  -10.9814   26.3919 C   0  0  0  0  0  0  0  0  0  0  0  0
    8.7323  -12.2903   26.3228 C   0  0  0  0  0  0  0  0  0  0  0  0
    7.8779  -13.3748   26.2369 C   0  0  0  0  0  0  0  0  0  0  0  0
    8.5648  -17.3682   24.6664 C   0  0  0  0  0  0  0  0  0  0  0  0
    8.5025  -18.3717   25.4220 O   0  0  0  0  0  0  0  0  0  0  0  0
    7.6864  -17.3160   23.5937 O   0  0  0  0  0  0  0  0  0  0  0  0
  2  3  2  0
  2  1  1  0
  4  3  1  0
  5  4  2  0
  6  5  1  0
  7  6  1  0
  7  8  1  1
  9  7  1  0
 10  9  2  0
 11  5  1  0
 11 12  2  0
 12  2  1  0
 13  9  1  0
 14 20  1  0
 14 13  1  0
 14 15  1  6
 16 15  1  0
 17 16  1  0
 18 19  1  0
 18 17  1  0
 20 22  1  0
 21 20  2  0
 22 23  1  0
 23 34  1  0
 23 24  1  1
 24 25  1  0
 25 33  1  0
 26 27  1  0
 26 25  2  0
 27 28  1  0
 28 33  2  0
 28 29  1  0
 29 30  2  0
 30 31  1  0
 32 31  2  0
 33 32  1  0
 34 35  2  0
 34 36  1  0
M  END
$$$$
