YKW.pdb
     RDKit          3D

 36 38  0  0  1  0  0  0  0  0999 V2000
    8.2128  -12.9180   15.2410 O   0  0  0  0  0  0  0  0  0  0  0  0
    7.8878  -13.3368   16.5252 C   0  0  0  0  0  0  0  0  0  0  0  0
    7.1616  -14.5011   16.6500 C   0  0  0  0  0  0  0  0  0  0  0  0
    6.7992  -14.9842   17.8909 C   0  0  0  0  0  0  0  0  0  0  0  0
    7.1526  -14.3175   19.0360 C   0  0  0  0  0  0  0  0  0  0  0  0
    6.7582  -14.8462   20.3665 C   0  0  0  0  0  0  0  0  0  0  0  0
    8.0068  -15.4303   21.0044 C   0  0  2  0  0  0  0  0  0  0  0  0
    8.6694  -16.3051   20.0728 N   0  0  0  0  0  0  0  0  0  0  0  0
    7.6530  -16.1352   22.2621 C   0  0  0  0  0  0  0  0  0  0  0  0
    7.0180  -15.5189   23.1804 O   0  0  0  0  0  0  0  0  0  0  0  0
    7.8806  -13.1528   18.8810 C   0  0  0  0  0  0  0  0  0  0  0  0
    8.2453  -12.6650   17.6517 C   0  0  0  0  0  0  0  0  0  0  0  0
    8.0393  -17.4913   22.4019 N   0  0  0  0  0  0  0  0  0  0  0  0
    7.8436  -18.2026   23.6450 C   0  0  1  0  0  0  0  0  0  0  0  0
    7.9207  -19.7047   23.4135 C   0  0  0  0  0  0  0  0  0  0  0  0
    7.8162  -20.4517   24.7238 C   0  0  0  0  0  0  0  0  0  0  0  0
    8.0040  -21.9394   24.5642 C   0  0  0  0  0  0  0  0  0  0  0  0
    7.7798  -22.6802   25.8738 C   0  0  0  0  0  0  0  0  0  0  0  0
    8.0843  -24.0927   25.6928 N   0  0  0  0  0  0  0  0  0  0  0  0
    8.8736  -17.7515   24.6061 C   0  0  0  0  0  0  0  0  0  0  0  0
   10.0170  -17.4700   24.1866 O   0  0  0  0  0  0  0  0  0  0  0  0
    8.6357  -17.6158   26.0109 N   0  0  0  0  0  0  0  0  0  0  0  0
    9.5436  -16.9934   26.9117 C   0  0  1  0  0  0  0  0  0  0  0  0
    9.5183  -15.5017   26.7729 C   0  0  0  0  0  0  0  0  0  0  0  0
    8.2349  -14.9129   26.3985 C   0  0  0  0  0  0  0  0  0  0  0  0
    7.1050  -15.6403   26.0349 C   0  0  0  0  0  0  0  0  0  0  0  0
    6.1576  -14.7532   25.7482 N   0  0  0  0  0  0  0  0  0  0  0  0
    6.6184  -13.4968   25.9084 C   0  0  0  0  0  0  0  0  0  0  0  0
    6.0192  -12.2728   25.7431 C   0  0  0  0  0  0  0  0  0  0  0  0
    6.7032  -11.0911   25.9814 C   0  0  0  0  0  0  0  0  0  0  0  0
    8.0219  -11.1342   26.3963 C   0  0  0  0  0  0  0  0  0  0  0  0
    8.6051  -12.3737   26.5560 C   0  0  0  0  0  0  0  0  0  0  0  0
    7.9462  -13.5679   26.3248 C   0  0  0  0  0  0  0  0  0  0  0  0
    9.3525  -17.4013   28.3215 C   0  0  0  0  0  0  0  0  0  0  0  0
    8.4416  -18.1773   28.7087 O   0  0  0  0  0  0  0  0  0  0  0  0
   10.2235  -16.9041   29.2802 O   0  0  0  0  0  0  0  0  0  0  0  0
  2  3  2  0
  2  1  1  0
  4  3  1  0
  5  4  2  0
  6  5  1  0
  7  6  1  0
  7  8  1  6
  9  7  1  0
 10  9  2  0
 11  5  1  0
 11 12  2  0
 12  2  1  0
 13  9  1  0
 14 20  1  0
 14 13  1  0
 14 15  1  6
 16 15  1  0
 17 16  1  0
 18 19  1  0
 18 17  1  0
 20 22  1  0
 21 20  2  0
 22 23  1  0
 23 34  1  0
 23 24  1  1
 24 25  1  0
 25 33  1  0
 26 27  1  0
 26 25  2  0
 27 28  1  0
 28 33  2  0
 28 29  1  0
 29 30  2  0
 30 31  1  0
 32 31  2  0
 33 32  1  0
 34 35  2  0
 34 36  1  0
M  END
$$$$
