YKW.pdb
     RDKit          3D

 36 38  0  0  1  0  0  0  0  0999 V2000
   -0.0649  -20.0766   20.4043 O   0  0  0  0  0  0  0  0  0  0  0  0
    1.1319  -19.6166   20.9392 C   0  0  0  0  0  0  0  0  0  0  0  0
    2.2492  -19.6656   20.1343 C   0  0  0  0  0  0  0  0  0  0  0  0
    3.4754  -19.2275   20.5915 C   0  0  0  0  0  0  0  0  0  0  0  0
    3.6159  -18.7307   21.8620 C   0  0  0  0  0  0  0  0  0  0  0  0
    4.9397  -18.2613   22.3440 C   0  0  0  0  0  0  0  0  0  0  0  0
    5.9723  -18.7087   21.3238 C   0  0  2  0  0  0  0  0  0  0  0  0
    5.8782  -20.1312   21.1234 N   0  0  0  0  0  0  0  0  0  0  0  0
    7.3311  -18.3059   21.7654 C   0  0  0  0  0  0  0  0  0  0  0  0
    7.9568  -19.0112   22.6240 O   0  0  0  0  0  0  0  0  0  0  0  0
    2.4789  -18.6933   22.6472 C   0  0  0  0  0  0  0  0  0  0  0  0
    1.2560  -19.1265   22.2012 C   0  0  0  0  0  0  0  0  0  0  0  0
    7.8963  -17.1318   21.2085 N   0  0  0  0  0  0  0  0  0  0  0  0
    9.2722  -16.7685   21.4624 C   0  0  1  0  0  0  0  0  0  0  0  0
    9.7652  -15.7901   20.4061 C   0  0  0  0  0  0  0  0  0  0  0  0
   11.2634  -15.6124   20.5026 C   0  0  0  0  0  0  0  0  0  0  0  0
   11.8177  -14.7291   19.4133 C   0  0  0  0  0  0  0  0  0  0  0  0
   13.3345  -14.6340   19.4811 C   0  0  0  0  0  0  0  0  0  0  0  0
   13.8315  -13.9313   18.3064 N   0  0  0  0  0  0  0  0  0  0  0  0
    9.3564  -16.1851   22.8191 C   0  0  0  0  0  0  0  0  0  0  0  0
    9.0047  -14.9986   22.9952 O   0  0  0  0  0  0  0  0  0  0  0  0
    9.8243  -16.9097   23.9613 N   0  0  0  0  0  0  0  0  0  0  0  0
   10.3315  -16.2923   25.1380 C   0  0  1  0  0  0  0  0  0  0  0  0
    9.3889  -16.4526   26.2916 C   0  0  0  0  0  0  0  0  0  0  0  0
    8.0925  -15.7924   26.1586 C   0  0  0  0  0  0  0  0  0  0  0  0
    6.9109  -16.4321   25.7943 C   0  0  0  0  0  0  0  0  0  0  0  0
    5.9664  -15.4975   25.7635 N   0  0  0  0  0  0  0  0  0  0  0  0
    6.4779  -14.2937   26.0884 C   0  0  0  0  0  0  0  0  0  0  0  0
    5.9017  -13.0525   26.1984 C   0  0  0  0  0  0  0  0  0  0  0  0
    6.6408  -11.9384   26.5640 C   0  0  0  0  0  0  0  0  0  0  0  0
    7.9924  -12.0685   26.8267 C   0  0  0  0  0  0  0  0  0  0  0  0
    8.5516  -13.3238   26.7102 C   0  0  0  0  0  0  0  0  0  0  0  0
    7.8378  -14.4517   26.3470 C   0  0  0  0  0  0  0  0  0  0  0  0
   11.6965  -16.7364   25.4987 C   0  0  0  0  0  0  0  0  0  0  0  0
   12.3274  -17.6324   24.8815 O   0  0  0  0  0  0  0  0  0  0  0  0
   12.3260  -16.1358   26.5795 O   0  0  0  0  0  0  0  0  0  0  0  0
  2  3  2  0
  2  1  1  0
  4  3  1  0
  5  4  2  0
  6  5  1  0
  7  6  1  0
  7  8  1  1
  9  7  1  0
 10  9  2  0
 11  5  1  0
 11 12  2  0
 12  2  1  0
 13  9  1  0
 14 20  1  0
 14 13  1  0
 14 15  1  6
 16 15  1  0
 17 16  1  0
 18 19  1  0
 18 17  1  0
 20 22  1  0
 21 20  2  0
 22 23  1  0
 23 34  1  0
 23 24  1  1
 24 25  1  0
 25 33  1  0
 26 27  1  0
 26 25  2  0
 27 28  1  0
 28 33  2  0
 28 29  1  0
 29 30  2  0
 30 31  1  0
 32 31  2  0
 33 32  1  0
 34 35  2  0
 34 36  1  0
M  END
$$$$
