HCS.pdb
     RDKit          3D

 23 23  0  0  1  0  0  0  0  0999 V2000
   10.7665  -14.4977   20.5737 N   0  0  0  0  0  0  0  0  0  0  0  0
    9.4999  -14.2308   21.2287 C   0  0  1  0  0  0  0  0  0  0  0  0
    8.4610  -15.0835   20.5719 C   0  0  0  0  0  0  0  0  0  0  0  0
    7.9814  -14.5820   19.2806 C   0  0  0  0  0  0  0  0  0  0  0  0
    8.3725  -13.4276   18.6532 C   0  0  0  0  0  0  0  0  0  0  0  0
    7.7014  -13.3364   17.5037 N   0  0  0  0  0  0  0  0  0  0  0  0
    6.9023  -14.4113   17.4063 C   0  0  0  0  0  0  0  0  0  0  0  0
    7.0608  -15.1928   18.4942 N   0  0  0  0  0  0  0  0  0  0  0  0
    9.5751  -14.3843   22.6874 C   0  0  0  0  0  0  0  0  0  0  0  0
   10.5370  -15.0263   23.1744 O   0  0  0  0  0  0  0  0  0  0  0  0
    8.6354  -13.8582   23.5989 N   0  0  0  0  0  0  0  0  0  0  0  0
    8.6820  -14.0147   25.0239 C   0  0  1  0  0  0  0  0  0  0  0  0
    7.5895  -13.2795   25.7527 C   0  0  0  0  0  0  0  0  0  0  0  0
    7.7353  -13.4501   27.5522 S   0  0  0  0  0  0  0  0  0  0  0  0
    8.5642  -15.4549   25.4237 C   0  0  0  0  0  0  0  0  0  0  0  0
    7.4985  -16.0907   25.1809 O   0  0  0  0  0  0  0  0  0  0  0  0
   10.5684  -18.1563   24.5403 O   0  0  0  0  0  0  0  0  0  0  0  0
   10.6616  -18.2763   25.9404 C   0  0  0  0  0  0  0  0  0  0  0  0
    9.4871  -17.5060   26.5591 C   0  0  2  0  0  0  0  0  0  0  0  0
    9.6165  -16.1414   26.0725 N   0  0  0  0  0  0  0  0  0  0  0  0
    9.6619  -17.5833   28.0263 C   0  0  0  0  0  0  0  0  0  0  0  0
    9.9359  -16.4487   28.7652 O   0  0  0  0  0  0  0  0  0  0  0  0
    9.5620  -18.6764   28.6014 O   0  0  0  0  0  0  0  0  0  0  0  0
  2  1  1  6
  2  9  1  0
  2  3  1  0
  3  4  1  0
  4  8  1  0
  4  5  2  0
  5  6  1  0
  7  6  1  0
  8  7  2  0
  9 11  1  0
 10  9  2  0
 11 12  1  0
 12 15  1  0
 13 14  1  0
 12 13  1  1
 15 16  2  0
 15 20  1  0
 18 17  1  0
 19 18  1  6
 19 21  1  0
 20 19  1  0
 21 22  1  0
 23 21  2  0
M  END
$$$$
