HCS.pdb
     RDKit          3D

 23 23  0  0  1  0  0  0  0  0999 V2000
   10.0051  -14.5398   21.0601 N   0  0  0  0  0  0  0  0  0  0  0  0
    8.7960  -14.2501   21.8074 C   0  0  1  0  0  0  0  0  0  0  0  0
    7.6500  -14.8746   21.0762 C   0  0  0  0  0  0  0  0  0  0  0  0
    7.4562  -14.3872   19.7073 C   0  0  0  0  0  0  0  0  0  0  0  0
    8.2344  -13.4737   19.0446 C   0  0  0  0  0  0  0  0  0  0  0  0
    7.7208  -13.3034   17.8251 N   0  0  0  0  0  0  0  0  0  0  0  0
    6.6399  -14.0932   17.7189 C   0  0  0  0  0  0  0  0  0  0  0  0
    6.4598  -14.7708   18.8712 N   0  0  0  0  0  0  0  0  0  0  0  0
    8.8976  -14.6407   23.2196 C   0  0  0  0  0  0  0  0  0  0  0  0
    9.7893  -15.4580   23.5534 O   0  0  0  0  0  0  0  0  0  0  0  0
    8.0578  -14.1613   24.2470 N   0  0  0  0  0  0  0  0  0  0  0  0
    8.1512  -14.5205   25.6325 C   0  0  1  0  0  0  0  0  0  0  0  0
    7.1430  -13.8283   26.5097 C   0  0  0  0  0  0  0  0  0  0  0  0
    5.4892  -13.8112   25.7657 S   0  0  0  0  0  0  0  0  0  0  0  0
    7.9498  -15.9924   25.8342 C   0  0  0  0  0  0  0  0  0  0  0  0
    6.9639  -16.5729   25.2956 O   0  0  0  0  0  0  0  0  0  0  0  0
    9.6008  -18.4880   24.7392 O   0  0  0  0  0  0  0  0  0  0  0  0
    9.6881  -18.9254   26.0752 C   0  0  0  0  0  0  0  0  0  0  0  0
    8.6171  -18.1827   26.8857 C   0  0  2  0  0  0  0  0  0  0  0  0
    8.8346  -16.7699   26.6167 N   0  0  0  0  0  0  0  0  0  0  0  0
    8.8625  -18.5140   28.3066 C   0  0  0  0  0  0  0  0  0  0  0  0
    8.6422  -19.7924   28.7816 O   0  0  0  0  0  0  0  0  0  0  0  0
    9.2701  -17.6371   29.0816 O   0  0  0  0  0  0  0  0  0  0  0  0
  2  1  1  6
  2  9  1  0
  2  3  1  0
  3  4  1  0
  4  8  1  0
  4  5  2  0
  5  6  1  0
  7  6  1  0
  8  7  2  0
  9 11  1  0
 10  9  2  0
 11 12  1  0
 12 15  1  0
 13 14  1  0
 12 13  1  1
 15 16  2  0
 15 20  1  0
 18 17  1  0
 19 18  1  6
 19 21  1  0
 20 19  1  0
 21 22  1  0
 23 21  2  0
M  END
$$$$
