HCS.pdb
     RDKit          3D

 23 23  0  0  1  0  0  0  0  0999 V2000
    7.6675  -19.2743   19.1561 N   0  0  0  0  0  0  0  0  0  0  0  0
    7.9746  -17.8877   19.4519 C   0  0  1  0  0  0  0  0  0  0  0  0
    7.7284  -17.0932   18.2085 C   0  0  0  0  0  0  0  0  0  0  0  0
    8.6843  -17.3374   17.1243 C   0  0  0  0  0  0  0  0  0  0  0  0
    9.7858  -18.1520   17.1707 C   0  0  0  0  0  0  0  0  0  0  0  0
   10.3886  -18.0972   15.9817 N   0  0  0  0  0  0  0  0  0  0  0  0
    9.6824  -17.2648   15.1995 C   0  0  0  0  0  0  0  0  0  0  0  0
    8.6258  -16.7851   15.8871 N   0  0  0  0  0  0  0  0  0  0  0  0
    7.2633  -17.3921   20.6375 C   0  0  0  0  0  0  0  0  0  0  0  0
    6.0466  -17.1047   20.5305 O   0  0  0  0  0  0  0  0  0  0  0  0
    7.8501  -17.2110   21.9077 N   0  0  0  0  0  0  0  0  0  0  0  0
    7.1667  -16.7481   23.0807 C   0  0  1  0  0  0  0  0  0  0  0  0
    6.8014  -17.8449   24.0445 C   0  0  0  0  0  0  0  0  0  0  0  0
    6.5849  -19.4410   23.2112 S   0  0  0  0  0  0  0  0  0  0  0  0
    7.9978  -15.7661   23.8505 C   0  0  0  0  0  0  0  0  0  0  0  0
    9.2580  -15.8712   23.8507 O   0  0  0  0  0  0  0  0  0  0  0  0
    5.9439  -13.3171   26.1338 O   0  0  0  0  0  0  0  0  0  0  0  0
    7.2239  -12.7611   25.9438 C   0  0  0  0  0  0  0  0  0  0  0  0
    8.1727  -13.8929   25.5264 C   0  0  2  0  0  0  0  0  0  0  0  0
    7.4174  -14.7088   24.5886 N   0  0  0  0  0  0  0  0  0  0  0  0
    8.5021  -14.6397   26.7604 C   0  0  0  0  0  0  0  0  0  0  0  0
    9.2883  -14.0687   27.7424 O   0  0  0  0  0  0  0  0  0  0  0  0
    8.0695  -15.7903   26.9177 O   0  0  0  0  0  0  0  0  0  0  0  0
  2  1  1  6
  2  9  1  0
  2  3  1  0
  3  4  1  0
  4  8  1  0
  4  5  2  0
  5  6  1  0
  7  6  1  0
  8  7  2  0
  9 11  1  0
 10  9  2  0
 11 12  1  0
 12 15  1  0
 13 14  1  0
 12 13  1  1
 15 16  2  0
 15 20  1  0
 18 17  1  0
 19 18  1  1
 19 21  1  0
 20 19  1  0
 21 22  1  0
 23 21  2  0
M  END
$$$$
