HCS.pdb
     RDKit          3D

 23 23  0  0  1  0  0  0  0  0999 V2000
    8.1399  -12.9586   16.4164 N   0  0  0  0  0  0  0  0  0  0  0  0
    8.0693  -14.2672   17.0386 C   0  0  1  0  0  0  0  0  0  0  0  0
    8.8300  -15.2223   16.1744 C   0  0  0  0  0  0  0  0  0  0  0  0
    8.1471  -15.6072   14.9357 C   0  0  0  0  0  0  0  0  0  0  0  0
    7.2481  -14.8531   14.2269 C   0  0  0  0  0  0  0  0  0  0  0  0
    6.8610  -15.5636   13.1661 N   0  0  0  0  0  0  0  0  0  0  0  0
    7.5023  -16.7430   13.2034 C   0  0  0  0  0  0  0  0  0  0  0  0
    8.3014  -16.7892   14.2890 N   0  0  0  0  0  0  0  0  0  0  0  0
    8.4984  -14.2487   18.4432 C   0  0  0  0  0  0  0  0  0  0  0  0
    9.4486  -13.4973   18.7703 O   0  0  0  0  0  0  0  0  0  0  0  0
    7.9166  -15.0218   19.4700 N   0  0  0  0  0  0  0  0  0  0  0  0
    8.3554  -15.0556   20.8352 C   0  0  1  0  0  0  0  0  0  0  0  0
    7.2742  -15.4314   21.8124 C   0  0  0  0  0  0  0  0  0  0  0  0
    5.7806  -14.4255   21.5974 S   0  0  0  0  0  0  0  0  0  0  0  0
    9.4669  -16.0422   21.0319 C   0  0  0  0  0  0  0  0  0  0  0  0
    9.4219  -17.1654   20.4527 O   0  0  0  0  0  0  0  0  0  0  0  0
   13.1516  -15.5226   20.6643 O   0  0  0  0  0  0  0  0  0  0  0  0
   12.9543  -15.9000   22.0068 C   0  0  0  0  0  0  0  0  0  0  0  0
   11.6562  -16.7153   22.0818 C   0  0  2  0  0  0  0  0  0  0  0  0
   10.5826  -15.7607   21.8538 N   0  0  0  0  0  0  0  0  0  0  0  0
   11.5995  -17.2882   23.4447 C   0  0  0  0  0  0  0  0  0  0  0  0
   12.5231  -18.2308   23.8532 O   0  0  0  0  0  0  0  0  0  0  0  0
   10.7149  -16.9204   24.2308 O   0  0  0  0  0  0  0  0  0  0  0  0
  2  1  1  6
  2  9  1  0
  2  3  1  0
  3  4  1  0
  4  8  1  0
  4  5  2  0
  5  6  1  0
  7  6  1  0
  8  7  2  0
  9 11  1  0
 10  9  2  0
 11 12  1  0
 12 15  1  0
 13 14  1  0
 12 13  1  1
 15 16  2  0
 15 20  1  0
 18 17  1  0
 19 18  1  1
 19 21  1  0
 20 19  1  0
 21 22  1  0
 23 21  2  0
M  END
$$$$
