HCS.pdb
     RDKit          3D

 23 23  0  0  1  0  0  0  0  0999 V2000
    9.7167  -15.2728   20.9507 N   0  0  0  0  0  0  0  0  0  0  0  0
    8.7060  -14.4830   21.6283 C   0  0  1  0  0  0  0  0  0  0  0  0
    7.4086  -14.6981   20.9154 C   0  0  0  0  0  0  0  0  0  0  0  0
    7.4331  -14.3765   19.4853 C   0  0  0  0  0  0  0  0  0  0  0  0
    7.7478  -13.1668   18.9225 C   0  0  0  0  0  0  0  0  0  0  0  0
    7.6507  -13.2916   17.5977 N   0  0  0  0  0  0  0  0  0  0  0  0
    7.2822  -14.5546   17.3285 C   0  0  0  0  0  0  0  0  0  0  0  0
    7.1426  -15.2406   18.4814 N   0  0  0  0  0  0  0  0  0  0  0  0
    8.6547  -14.7498   23.0718 C   0  0  0  0  0  0  0  0  0  0  0  0
    9.2743  -15.7444   23.5204 O   0  0  0  0  0  0  0  0  0  0  0  0
    7.9521  -13.9628   24.0085 N   0  0  0  0  0  0  0  0  0  0  0  0
    8.0411  -14.0904   25.4344 C   0  0  1  0  0  0  0  0  0  0  0  0
    7.2053  -13.0911   26.1879 C   0  0  0  0  0  0  0  0  0  0  0  0
    7.4611  -13.2010   27.9799 S   0  0  0  0  0  0  0  0  0  0  0  0
    7.5982  -15.4469   25.8944 C   0  0  0  0  0  0  0  0  0  0  0  0
    6.3685  -15.7418   25.8937 O   0  0  0  0  0  0  0  0  0  0  0  0
    9.8446  -18.5528   25.7027 O   0  0  0  0  0  0  0  0  0  0  0  0
    8.5314  -18.7991   26.1482 C   0  0  0  0  0  0  0  0  0  0  0  0
    8.1106  -17.6282   27.0467 C   0  0  2  0  0  0  0  0  0  0  0  0
    8.5178  -16.4259   26.3364 N   0  0  0  0  0  0  0  0  0  0  0  0
    8.8490  -17.7897   28.3185 C   0  0  0  0  0  0  0  0  0  0  0  0
    8.6431  -18.8970   29.1185 O   0  0  0  0  0  0  0  0  0  0  0  0
    9.6618  -16.9239   28.6727 O   0  0  0  0  0  0  0  0  0  0  0  0
  2  1  1  6
  2  9  1  0
  2  3  1  0
  3  4  1  0
  4  8  1  0
  4  5  2  0
  5  6  1  0
  7  6  1  0
  8  7  2  0
  9 11  1  0
 10  9  2  0
 11 12  1  0
 12 15  1  0
 13 14  1  0
 12 13  1  1
 15 16  2  0
 15 20  1  0
 18 17  1  0
 19 18  1  6
 19 21  1  0
 20 19  1  0
 21 22  1  0
 23 21  2  0
M  END
$$$$
