HCS.pdb
     RDKit          3D

 23 23  0  0  1  0  0  0  0  0999 V2000
   -2.5949  -24.3176   22.9311 N   0  0  0  0  0  0  0  0  0  0  0  0
   -3.9538  -24.0669   23.3729 C   0  0  1  0  0  0  0  0  0  0  0  0
   -4.7058  -25.3569   23.2816 C   0  0  0  0  0  0  0  0  0  0  0  0
   -4.9425  -25.8345   21.9160 C   0  0  0  0  0  0  0  0  0  0  0  0
   -6.0702  -25.6361   21.1623 C   0  0  0  0  0  0  0  0  0  0  0  0
   -5.8858  -26.2300   19.9818 N   0  0  0  0  0  0  0  0  0  0  0  0
   -4.6663  -26.7923   19.9892 C   0  0  0  0  0  0  0  0  0  0  0  0
   -4.0678  -26.5591   21.1753 N   0  0  0  0  0  0  0  0  0  0  0  0
   -4.0093  -23.4262   24.6934 C   0  0  0  0  0  0  0  0  0  0  0  0
   -3.0946  -23.6696   25.5172 O   0  0  0  0  0  0  0  0  0  0  0  0
   -5.0267  -22.5445   25.1151 N   0  0  0  0  0  0  0  0  0  0  0  0
   -5.0891  -21.8982   26.3941 C   0  0  1  0  0  0  0  0  0  0  0  0
   -4.7997  -20.4221   26.3445 C   0  0  0  0  0  0  0  0  0  0  0  0
   -4.9253  -19.7585   24.6615 S   0  0  0  0  0  0  0  0  0  0  0  0
   -6.4440  -22.0444   27.0191 C   0  0  0  0  0  0  0  0  0  0  0  0
   -7.4790  -21.7485   26.3555 O   0  0  0  0  0  0  0  0  0  0  0  0
   -6.6572  -24.1446   30.3350 O   0  0  0  0  0  0  0  0  0  0  0  0
   -7.8885  -24.0258   29.6617 C   0  0  0  0  0  0  0  0  0  0  0  0
   -7.9174  -22.6565   28.9691 C   0  0  2  0  0  0  0  0  0  0  0  0
   -6.6123  -22.5082   28.3443 N   0  0  0  0  0  0  0  0  0  0  0  0
   -8.1319  -21.6526   30.0346 C   0  0  0  0  0  0  0  0  0  0  0  0
   -7.1214  -20.7847   30.4005 O   0  0  0  0  0  0  0  0  0  0  0  0
   -9.2292  -21.5873   30.6069 O   0  0  0  0  0  0  0  0  0  0  0  0
  2  1  1  1
  2  9  1  0
  2  3  1  0
  3  4  1  0
  4  8  1  0
  4  5  2  0
  5  6  1  0
  7  6  1  0
  8  7  2  0
  9 11  1  0
 10  9  2  0
 11 12  1  0
 12 15  1  0
 13 14  1  0
 12 13  1  6
 15 16  2  0
 15 20  1  0
 18 17  1  0
 19 18  1  1
 19 21  1  0
 20 19  1  0
 21 22  1  0
 23 21  2  0
M  END
$$$$
