HCS.pdb
     RDKit          3D

 23 23  0  0  1  0  0  0  0  0999 V2000
   10.3012  -14.0045   20.1618 N   0  0  0  0  0  0  0  0  0  0  0  0
    9.0705  -13.9114   20.9240 C   0  0  1  0  0  0  0  0  0  0  0  0
    8.0634  -14.8041   20.2708 C   0  0  0  0  0  0  0  0  0  0  0  0
    7.7892  -14.4946   18.8643 C   0  0  0  0  0  0  0  0  0  0  0  0
    7.6137  -13.2496   18.3182 C   0  0  0  0  0  0  0  0  0  0  0  0
    7.3854  -13.4015   17.0125 N   0  0  0  0  0  0  0  0  0  0  0  0
    7.4161  -14.7159   16.7387 C   0  0  0  0  0  0  0  0  0  0  0  0
    7.6641  -15.4078   17.8696 N   0  0  0  0  0  0  0  0  0  0  0  0
    9.2716  -14.1719   22.3555 C   0  0  0  0  0  0  0  0  0  0  0  0
   10.2978  -14.7995   22.7126 O   0  0  0  0  0  0  0  0  0  0  0  0
    8.3874  -13.7652   23.3769 N   0  0  0  0  0  0  0  0  0  0  0  0
    8.5950  -13.9607   24.7826 C   0  0  1  0  0  0  0  0  0  0  0  0
    7.5614  -13.2925   25.6488 C   0  0  0  0  0  0  0  0  0  0  0  0
    7.9523  -13.4393   27.4136 S   0  0  0  0  0  0  0  0  0  0  0  0
    8.5760  -15.4155   25.1447 C   0  0  0  0  0  0  0  0  0  0  0  0
    7.5661  -16.1219   24.8617 O   0  0  0  0  0  0  0  0  0  0  0  0
   10.8184  -17.8780   24.1835 O   0  0  0  0  0  0  0  0  0  0  0  0
   10.8951  -18.0630   25.5776 C   0  0  0  0  0  0  0  0  0  0  0  0
    9.6435  -17.4358   26.2064 C   0  0  2  0  0  0  0  0  0  0  0  0
    9.6621  -16.0389   25.8014 N   0  0  0  0  0  0  0  0  0  0  0  0
    9.7916  -17.5836   27.6710 C   0  0  0  0  0  0  0  0  0  0  0  0
    9.8141  -18.8351   28.2555 O   0  0  0  0  0  0  0  0  0  0  0  0
    9.8967  -16.5754   28.3840 O   0  0  0  0  0  0  0  0  0  0  0  0
  2  1  1  6
  2  9  1  0
  2  3  1  0
  3  4  1  0
  4  8  1  0
  4  5  2  0
  5  6  1  0
  7  6  1  0
  8  7  2  0
  9 11  1  0
 10  9  2  0
 11 12  1  0
 12 15  1  0
 13 14  1  0
 12 13  1  1
 15 16  2  0
 15 20  1  0
 18 17  1  0
 19 18  1  6
 19 21  1  0
 20 19  1  0
 21 22  1  0
 23 21  2  0
M  END
$$$$
