HCS.pdb
     RDKit          3D

 23 23  0  0  1  0  0  0  0  0999 V2000
    8.3878  -16.7573   16.5207 N   0  0  0  0  0  0  0  0  0  0  0  0
    9.7571  -16.6555   16.9888 C   0  0  1  0  0  0  0  0  0  0  0  0
   10.5796  -16.1019   15.8687 C   0  0  0  0  0  0  0  0  0  0  0  0
   10.5272  -16.8784   14.6263 C   0  0  0  0  0  0  0  0  0  0  0  0
   11.3055  -17.9592   14.3019 C   0  0  0  0  0  0  0  0  0  0  0  0
   10.9454  -18.3754   13.0865 N   0  0  0  0  0  0  0  0  0  0  0  0
    9.9596  -17.5740   12.6514 C   0  0  0  0  0  0  0  0  0  0  0  0
    9.6869  -16.6428   13.5884 N   0  0  0  0  0  0  0  0  0  0  0  0
    9.8693  -15.9085   18.2485 C   0  0  0  0  0  0  0  0  0  0  0  0
   10.3747  -14.7603   18.2220 O   0  0  0  0  0  0  0  0  0  0  0  0
    9.4467  -16.3883   19.5061 N   0  0  0  0  0  0  0  0  0  0  0  0
    9.6687  -15.7338   20.7629 C   0  0  1  0  0  0  0  0  0  0  0  0
    8.4029  -15.3517   21.4818 C   0  0  0  0  0  0  0  0  0  0  0  0
    8.7287  -14.7343   23.1555 S   0  0  0  0  0  0  0  0  0  0  0  0
   10.4468  -16.6019   21.7057 C   0  0  0  0  0  0  0  0  0  0  0  0
    9.9716  -17.7138   22.0757 O   0  0  0  0  0  0  0  0  0  0  0  0
   13.8188  -15.1029   23.3479 O   0  0  0  0  0  0  0  0  0  0  0  0
   13.9245  -16.4751   23.0487 C   0  0  0  0  0  0  0  0  0  0  0  0
   12.5112  -17.0731   23.0711 C   0  0  2  0  0  0  0  0  0  0  0  0
   11.7129  -16.2190   22.2057 N   0  0  0  0  0  0  0  0  0  0  0  0
   12.0524  -17.0111   24.4763 C   0  0  0  0  0  0  0  0  0  0  0  0
   12.6397  -17.8005   25.4460 O   0  0  0  0  0  0  0  0  0  0  0  0
   11.1313  -16.2436   24.7898 O   0  0  0  0  0  0  0  0  0  0  0  0
  2  1  1  6
  2  9  1  0
  2  3  1  0
  3  4  1  0
  4  8  1  0
  4  5  2  0
  5  6  1  0
  7  6  1  0
  8  7  2  0
  9 11  1  0
 10  9  2  0
 11 12  1  0
 12 15  1  0
 13 14  1  0
 12 13  1  1
 15 16  2  0
 15 20  1  0
 18 17  1  0
 19 18  1  1
 19 21  1  0
 20 19  1  0
 21 22  1  0
 23 21  2  0
M  END
$$$$
