HCS.pdb
     RDKit          3D

 23 23  0  0  1  0  0  0  0  0999 V2000
    8.1592  -12.7637   19.1244 N   0  0  0  0  0  0  0  0  0  0  0  0
    7.6350  -13.7746   20.0231 C   0  0  1  0  0  0  0  0  0  0  0  0
    7.6544  -15.0820   19.2963 C   0  0  0  0  0  0  0  0  0  0  0  0
    7.8596  -14.9768   17.8486 C   0  0  0  0  0  0  0  0  0  0  0  0
    9.0004  -15.2929   17.1573 C   0  0  0  0  0  0  0  0  0  0  0  0
    8.7768  -15.0553   15.8637 N   0  0  0  0  0  0  0  0  0  0  0  0
    7.5201  -14.5984   15.7396 C   0  0  0  0  0  0  0  0  0  0  0  0
    6.9370  -14.5427   16.9546 N   0  0  0  0  0  0  0  0  0  0  0  0
    8.3267  -13.7922   21.3186 C   0  0  0  0  0  0  0  0  0  0  0  0
    9.5175  -13.3997   21.3682 O   0  0  0  0  0  0  0  0  0  0  0  0
    7.7482  -14.2226   22.5312 N   0  0  0  0  0  0  0  0  0  0  0  0
    8.4293  -14.3162   23.7901 C   0  0  1  0  0  0  0  0  0  0  0  0
    7.7212  -13.6157   24.9184 C   0  0  0  0  0  0  0  0  0  0  0  0
    6.0024  -14.1674   25.0922 S   0  0  0  0  0  0  0  0  0  0  0  0
    8.6017  -15.7428   24.2178 C   0  0  0  0  0  0  0  0  0  0  0  0
    7.6701  -16.5755   24.0239 O   0  0  0  0  0  0  0  0  0  0  0  0
   12.1855  -16.9201   24.6329 O   0  0  0  0  0  0  0  0  0  0  0  0
   11.3042  -18.0180   24.5937 C   0  0  0  0  0  0  0  0  0  0  0  0
    9.9821  -17.5852   25.2418 C   0  0  2  0  0  0  0  0  0  0  0  0
    9.7859  -16.2010   24.8401 N   0  0  0  0  0  0  0  0  0  0  0  0
   10.1717  -17.7097   26.7038 C   0  0  0  0  0  0  0  0  0  0  0  0
   10.3502  -18.9481   27.2895 O   0  0  0  0  0  0  0  0  0  0  0  0
   10.1708  -16.6937   27.4135 O   0  0  0  0  0  0  0  0  0  0  0  0
  2  1  1  6
  2  9  1  0
  2  3  1  0
  3  4  1  0
  4  8  1  0
  4  5  2  0
  5  6  1  0
  7  6  1  0
  8  7  2  0
  9 11  1  0
 10  9  2  0
 11 12  1  0
 12 15  1  0
 13 14  1  0
 12 13  1  1
 15 16  2  0
 15 20  1  0
 18 17  1  0
 19 18  1  6
 19 21  1  0
 20 19  1  0
 21 22  1  0
 23 21  2  0
M  END
$$$$
