HCS.pdb
     RDKit          3D

 23 23  0  0  1  0  0  0  0  0999 V2000
   10.4503  -14.3297   20.8970 N   0  0  0  0  0  0  0  0  0  0  0  0
    9.1792  -14.2661   21.5933 C   0  0  1  0  0  0  0  0  0  0  0  0
    8.2047  -15.1125   20.8370 C   0  0  0  0  0  0  0  0  0  0  0  0
    7.8601  -14.6098   19.5038 C   0  0  0  0  0  0  0  0  0  0  0  0
    8.3907  -13.5105   18.8799 C   0  0  0  0  0  0  0  0  0  0  0  0
    7.8108  -13.3964   17.6837 N   0  0  0  0  0  0  0  0  0  0  0  0
    6.9315  -14.4032   17.5540 C   0  0  0  0  0  0  0  0  0  0  0  0
    6.9472  -15.1638   18.6679 N   0  0  0  0  0  0  0  0  0  0  0  0
    9.2977  -14.6056   23.0174 C   0  0  0  0  0  0  0  0  0  0  0  0
   10.2465  -15.3415   23.3818 O   0  0  0  0  0  0  0  0  0  0  0  0
    8.4143  -14.1620   24.0240 N   0  0  0  0  0  0  0  0  0  0  0  0
    8.5094  -14.4902   25.4171 C   0  0  1  0  0  0  0  0  0  0  0  0
    7.3498  -13.9954   26.2391 C   0  0  0  0  0  0  0  0  0  0  0  0
    5.7531  -14.4464   25.5071 S   0  0  0  0  0  0  0  0  0  0  0  0
    8.5786  -15.9726   25.6299 C   0  0  0  0  0  0  0  0  0  0  0  0
    7.7356  -16.7296   25.0682 O   0  0  0  0  0  0  0  0  0  0  0  0
   11.1558  -19.7843   26.0634 O   0  0  0  0  0  0  0  0  0  0  0  0
   10.8622  -18.4414   25.7571 C   0  0  0  0  0  0  0  0  0  0  0  0
    9.6787  -18.0058   26.6319 C   0  0  2  0  0  0  0  0  0  0  0  0
    9.5668  -16.5673   26.4481 N   0  0  0  0  0  0  0  0  0  0  0  0
   10.0367  -18.3540   28.0246 C   0  0  0  0  0  0  0  0  0  0  0  0
   10.2749  -17.3659   28.9602 O   0  0  0  0  0  0  0  0  0  0  0  0
   10.1247  -19.5441   28.3585 O   0  0  0  0  0  0  0  0  0  0  0  0
  2  1  1  6
  2  9  1  0
  2  3  1  0
  3  4  1  0
  4  8  1  0
  4  5  2  0
  5  6  1  0
  7  6  1  0
  8  7  2  0
  9 11  1  0
 10  9  2  0
 11 12  1  0
 12 15  1  0
 13 14  1  0
 12 13  1  1
 15 16  2  0
 15 20  1  0
 18 17  1  0
 19 18  1  6
 19 21  1  0
 20 19  1  0
 21 22  1  0
 23 21  2  0
M  END
$$$$
