SIT.pdb
     RDKit          3D

 22 21  0  0  1  0  0  0  0  0999 V2000
    7.5060  -17.3292   21.2085 O   0  0  0  0  0  0  0  0  0  0  0  0
    6.5489  -16.3460   21.1029 C   0  0  0  0  0  0  0  0  0  0  0  0
    7.1734  -14.9745   21.0391 C   0  0  2  0  0  0  0  0  0  0  0  0
    8.1524  -14.9594   19.9791 N   0  0  0  0  0  0  0  0  0  0  0  0
    7.8857  -14.7202   22.3387 C   0  0  0  0  0  0  0  0  0  0  0  0
    9.1513  -14.7945   22.3883 O   0  0  0  0  0  0  0  0  0  0  0  0
    7.4567  -11.6032   27.5280 C   0  0  0  0  0  0  0  0  0  0  0  0
    8.0589  -12.7804   26.7733 C   0  0  0  0  0  0  0  0  0  0  0  0
    7.2995  -13.1129   25.5432 C   0  0  2  0  0  0  0  0  0  0  0  0
    5.8434  -13.4268   25.8019 C   0  0  0  0  0  0  0  0  0  0  0  0
    7.9389  -14.2487   24.7835 C   0  0  2  0  0  0  0  0  0  0  0  0
    7.2029  -14.3988   23.5210 N   0  0  0  0  0  0  0  0  0  0  0  0
    7.9685  -15.5317   25.5026 C   0  0  0  0  0  0  0  0  0  0  0  0
    6.9353  -16.0950   25.8689 O   0  0  0  0  0  0  0  0  0  0  0  0
    9.4290  -18.5993   24.1075 C   0  0  0  0  0  0  0  0  0  0  0  0
   10.1380  -18.3500   25.4150 C   0  0  1  0  0  0  0  0  0  0  0  0
   11.3307  -17.6342   25.1787 O   0  0  0  0  0  0  0  0  0  0  0  0
    9.3137  -17.4836   26.3500 C   0  0  2  0  0  0  0  0  0  0  0  0
    9.2256  -16.1530   25.7908 N   0  0  0  0  0  0  0  0  0  0  0  0
   10.0525  -17.4036   27.6308 C   0  0  0  0  0  0  0  0  0  0  0  0
   10.5311  -16.3141   28.0088 O   0  0  0  0  0  0  0  0  0  0  0  0
   10.2257  -18.5273   28.4284 O   0  0  0  0  0  0  0  0  0  0  0  0
  1  2  1  0
  3  2  1  0
  3  4  1  6
  3  5  1  0
  5 12  1  0
  6  5  2  0
  8  7  1  0
  9  8  1  0
  9 11  1  0
  9 10  1  1
 11 13  1  0
 11 12  1  6
 13 19  1  0
 13 14  2  0
 16 15  1  6
 16 18  1  0
 17 16  1  0
 18 20  1  0
 18 19  1  6
 20 21  2  0
 20 22  1  0
M  END
$$$$
