SIT.pdb
     RDKit          3D

 22 21  0  0  1  0  0  0  0  0999 V2000
    6.3046  -17.1143   20.2069 O   0  0  0  0  0  0  0  0  0  0  0  0
    7.2862  -16.7892   21.1150 C   0  0  0  0  0  0  0  0  0  0  0  0
    7.4400  -15.2946   21.2479 C   0  0  2  0  0  0  0  0  0  0  0  0
    8.3126  -14.8230   20.1999 N   0  0  0  0  0  0  0  0  0  0  0  0
    8.0954  -15.0042   22.5697 C   0  0  0  0  0  0  0  0  0  0  0  0
    9.3593  -15.0501   22.6695 O   0  0  0  0  0  0  0  0  0  0  0  0
    6.0589  -11.3689   25.9067 C   0  0  0  0  0  0  0  0  0  0  0  0
    6.9849  -12.3002   25.1365 C   0  0  0  0  0  0  0  0  0  0  0  0
    7.2189  -13.5812   25.8468 C   0  0  2  0  0  0  0  0  0  0  0  0
    7.8603  -13.4072   27.2048 C   0  0  0  0  0  0  0  0  0  0  0  0
    8.0368  -14.5382   25.0154 C   0  0  2  0  0  0  0  0  0  0  0  0
    7.3602  -14.6788   23.7190 N   0  0  0  0  0  0  0  0  0  0  0  0
    8.2400  -15.8630   25.6217 C   0  0  0  0  0  0  0  0  0  0  0  0
    7.2943  -16.5526   26.0079 O   0  0  0  0  0  0  0  0  0  0  0  0
   12.1667  -17.5290   25.4373 C   0  0  0  0  0  0  0  0  0  0  0  0
   10.9077  -18.3578   25.4905 C   0  0  1  0  0  0  0  0  0  0  0  0
   11.1763  -19.5877   26.1275 O   0  0  0  0  0  0  0  0  0  0  0  0
    9.8250  -17.6904   26.3192 C   0  0  2  0  0  0  0  0  0  0  0  0
    9.5678  -16.3765   25.7727 N   0  0  0  0  0  0  0  0  0  0  0  0
   10.3649  -17.5289   27.6885 C   0  0  0  0  0  0  0  0  0  0  0  0
   10.6565  -16.3921   28.1148 O   0  0  0  0  0  0  0  0  0  0  0  0
   10.5554  -18.6273   28.5167 O   0  0  0  0  0  0  0  0  0  0  0  0
  1  2  1  0
  3  2  1  0
  3  4  1  6
  3  5  1  0
  5 12  1  0
  6  5  2  0
  8  7  1  0
  9  8  1  0
  9 11  1  0
  9 10  1  1
 11 13  1  0
 11 12  1  6
 13 19  1  0
 13 14  2  0
 16 15  1  1
 16 18  1  0
 17 16  1  0
 18 20  1  0
 18 19  1  6
 20 21  2  0
 20 22  1  0
M  END
$$$$
