SIT.pdb
     RDKit          3D

 22 21  0  0  1  0  0  0  0  0999 V2000
    7.3031  -17.1586   21.3186 O   0  0  0  0  0  0  0  0  0  0  0  0
    6.3834  -16.1383   21.2338 C   0  0  0  0  0  0  0  0  0  0  0  0
    7.0477  -14.7883   21.3394 C   0  0  2  0  0  0  0  0  0  0  0  0
    7.9968  -14.6526   20.2608 N   0  0  0  0  0  0  0  0  0  0  0  0
    7.8035  -14.7353   22.6382 C   0  0  0  0  0  0  0  0  0  0  0  0
    9.0630  -14.8877   22.6406 O   0  0  0  0  0  0  0  0  0  0  0  0
    5.9790  -11.3558   26.2129 C   0  0  0  0  0  0  0  0  0  0  0  0
    6.9352  -12.2096   25.3915 C   0  0  0  0  0  0  0  0  0  0  0  0
    7.2378  -13.5076   26.0429 C   0  0  2  0  0  0  0  0  0  0  0  0
    8.0209  -13.3670   27.3284 C   0  0  0  0  0  0  0  0  0  0  0  0
    7.9582  -14.4462   25.1069 C   0  0  2  0  0  0  0  0  0  0  0  0
    7.1686  -14.5213   23.8704 N   0  0  0  0  0  0  0  0  0  0  0  0
    8.1826  -15.7981   25.6419 C   0  0  0  0  0  0  0  0  0  0  0  0
    7.2496  -16.5136   26.0113 O   0  0  0  0  0  0  0  0  0  0  0  0
   10.2609  -18.5523   23.9260 C   0  0  0  0  0  0  0  0  0  0  0  0
   10.8220  -18.2831   25.2998 C   0  0  1  0  0  0  0  0  0  0  0  0
   11.8815  -17.3561   25.2060 O   0  0  0  0  0  0  0  0  0  0  0  0
    9.7938  -17.6451   26.2164 C   0  0  2  0  0  0  0  0  0  0  0  0
    9.5167  -16.3078   25.7411 N   0  0  0  0  0  0  0  0  0  0  0  0
   10.4124  -17.5447   27.5580 C   0  0  0  0  0  0  0  0  0  0  0  0
   10.6721  -16.4242   28.0438 O   0  0  0  0  0  0  0  0  0  0  0  0
   10.7125  -18.6832   28.2946 O   0  0  0  0  0  0  0  0  0  0  0  0
  1  2  1  0
  3  2  1  0
  3  4  1  6
  3  5  1  0
  5 12  1  0
  6  5  2  0
  8  7  1  0
  9  8  1  0
  9 11  1  0
  9 10  1  1
 11 13  1  0
 11 12  1  6
 13 19  1  0
 13 14  2  0
 16 15  1  6
 16 18  1  0
 17 16  1  0
 18 20  1  0
 18 19  1  6
 20 21  2  0
 20 22  1  0
M  END
$$$$
