SIT.pdb
     RDKit          3D

 22 21  0  0  1  0  0  0  0  0999 V2000
    7.4245  -17.1210   19.8910 O   0  0  0  0  0  0  0  0  0  0  0  0
    7.4039  -16.7069   21.2033 C   0  0  0  0  0  0  0  0  0  0  0  0
    7.7047  -15.2335   21.3204 C   0  0  2  0  0  0  0  0  0  0  0  0
    8.6785  -14.8777   20.3167 N   0  0  0  0  0  0  0  0  0  0  0  0
    8.3123  -14.9827   22.6727 C   0  0  0  0  0  0  0  0  0  0  0  0
    9.5743  -14.9561   22.8010 O   0  0  0  0  0  0  0  0  0  0  0  0
    6.0283  -11.5920   26.0248 C   0  0  0  0  0  0  0  0  0  0  0  0
    7.0061  -12.4708   25.2569 C   0  0  0  0  0  0  0  0  0  0  0  0
    7.3135  -13.7342   25.9710 C   0  0  2  0  0  0  0  0  0  0  0  0
    7.9556  -13.5198   27.3228 C   0  0  0  0  0  0  0  0  0  0  0  0
    8.1743  -14.6504   25.1370 C   0  0  2  0  0  0  0  0  0  0  0  0
    7.5340  -14.7730   23.8205 N   0  0  0  0  0  0  0  0  0  0  0  0
    8.3934  -15.9854   25.7147 C   0  0  0  0  0  0  0  0  0  0  0  0
    7.4555  -16.6982   26.0771 O   0  0  0  0  0  0  0  0  0  0  0  0
   10.3647  -18.8166   24.1238 C   0  0  0  0  0  0  0  0  0  0  0  0
   10.9830  -18.4970   25.4618 C   0  0  1  0  0  0  0  0  0  0  0  0
   12.0522  -17.5933   25.2864 O   0  0  0  0  0  0  0  0  0  0  0  0
   10.0013  -17.8019   26.3877 C   0  0  2  0  0  0  0  0  0  0  0  0
    9.7278  -16.4815   25.8653 N   0  0  0  0  0  0  0  0  0  0  0  0
   10.6724  -17.6550   27.6995 C   0  0  0  0  0  0  0  0  0  0  0  0
   10.9728  -16.5197   28.1237 O   0  0  0  0  0  0  0  0  0  0  0  0
   10.9777  -18.7656   28.4754 O   0  0  0  0  0  0  0  0  0  0  0  0
  1  2  1  0
  3  2  1  0
  3  4  1  6
  3  5  1  0
  5 12  1  0
  6  5  2  0
  8  7  1  0
  9  8  1  0
  9 11  1  0
  9 10  1  1
 11 13  1  0
 11 12  1  6
 13 19  1  0
 13 14  2  0
 16 15  1  6
 16 18  1  0
 17 16  1  0
 18 20  1  0
 18 19  1  6
 20 21  2  0
 20 22  1  0
M  END
$$$$
