SIT.pdb
     RDKit          3D

 22 21  0  0  1  0  0  0  0  0999 V2000
    4.6892  -19.2965   22.6557 O   0  0  0  0  0  0  0  0  0  0  0  0
    5.5865  -18.4049   23.1977 C   0  0  0  0  0  0  0  0  0  0  0  0
    5.3579  -17.0081   22.6761 C   0  0  2  0  0  0  0  0  0  0  0  0
    5.4402  -17.0316   21.2356 N   0  0  0  0  0  0  0  0  0  0  0  0
    6.4596  -16.1256   23.1942 C   0  0  0  0  0  0  0  0  0  0  0  0
    7.4914  -15.9237   22.4842 O   0  0  0  0  0  0  0  0  0  0  0  0
    5.7124  -11.9523   26.6023 C   0  0  0  0  0  0  0  0  0  0  0  0
    6.2794  -12.8743   25.5317 C   0  0  0  0  0  0  0  0  0  0  0  0
    7.1502  -13.9329   26.0989 C   0  0  2  0  0  0  0  0  0  0  0  0
    8.3498  -13.3903   26.8420 C   0  0  0  0  0  0  0  0  0  0  0  0
    7.6039  -14.9076   25.0406 C   0  0  2  0  0  0  0  0  0  0  0  0
    6.3981  -15.5035   24.4498 N   0  0  0  0  0  0  0  0  0  0  0  0
    8.5024  -15.9676   25.5235 C   0  0  0  0  0  0  0  0  0  0  0  0
    8.1618  -16.7547   26.4086 O   0  0  0  0  0  0  0  0  0  0  0  0
   12.7450  -18.3955   24.4602 C   0  0  0  0  0  0  0  0  0  0  0  0
   11.7774  -17.2674   24.2040 C   0  0  1  0  0  0  0  0  0  0  0  0
   11.1629  -17.4460   22.9466 O   0  0  0  0  0  0  0  0  0  0  0  0
   10.6477  -17.2491   25.2178 C   0  0  2  0  0  0  0  0  0  0  0  0
    9.8109  -16.0988   24.9577 N   0  0  0  0  0  0  0  0  0  0  0  0
   11.2663  -17.0839   26.5530 C   0  0  0  0  0  0  0  0  0  0  0  0
   11.3253  -15.9527   27.0784 O   0  0  0  0  0  0  0  0  0  0  0  0
   11.7874  -18.1726   27.2399 O   0  0  0  0  0  0  0  0  0  0  0  0
  1  2  1  0
  3  2  1  0
  3  4  1  6
  3  5  1  0
  5 12  1  0
  6  5  2  0
  8  7  1  0
  9  8  1  0
  9 11  1  0
  9 10  1  6
 11 13  1  0
 11 12  1  1
 13 19  1  0
 13 14  2  0
 16 15  1  1
 16 18  1  0
 17 16  1  0
 18 20  1  0
 18 19  1  6
 20 21  2  0
 20 22  1  0
M  END
$$$$
