SIT.pdb
     RDKit          3D

 22 21  0  0  1  0  0  0  0  0999 V2000
    6.2404  -17.0504   20.0898 O   0  0  0  0  0  0  0  0  0  0  0  0
    6.8621  -16.6777   21.2597 C   0  0  0  0  0  0  0  0  0  0  0  0
    7.0267  -15.1807   21.3429 C   0  0  2  0  0  0  0  0  0  0  0  0
    7.7413  -14.7269   20.1743 N   0  0  0  0  0  0  0  0  0  0  0  0
    7.8601  -14.8649   22.5539 C   0  0  0  0  0  0  0  0  0  0  0  0
    9.1225  -14.7959   22.4492 O   0  0  0  0  0  0  0  0  0  0  0  0
    6.0394  -11.4668   26.1048 C   0  0  0  0  0  0  0  0  0  0  0  0
    7.0023  -12.2863   25.2567 C   0  0  0  0  0  0  0  0  0  0  0  0
    7.4418  -13.5282   25.9386 C   0  0  2  0  0  0  0  0  0  0  0  0
    8.3019  -13.2736   27.1556 C   0  0  0  0  0  0  0  0  0  0  0  0
    8.1592  -14.4592   24.9928 C   0  0  2  0  0  0  0  0  0  0  0  0
    7.2957  -14.6389   23.8179 N   0  0  0  0  0  0  0  0  0  0  0  0
    8.5083  -15.7692   25.5640 C   0  0  0  0  0  0  0  0  0  0  0  0
    7.6503  -16.5313   26.0136 O   0  0  0  0  0  0  0  0  0  0  0  0
   12.1153  -19.1853   25.9359 C   0  0  0  0  0  0  0  0  0  0  0  0
   11.6073  -17.8512   25.4491 C   0  0  1  0  0  0  0  0  0  0  0  0
   11.3759  -17.9107   24.0586 O   0  0  0  0  0  0  0  0  0  0  0  0
   10.2726  -17.4906   26.0758 C   0  0  2  0  0  0  0  0  0  0  0  0
    9.8786  -16.1815   25.6044 N   0  0  0  0  0  0  0  0  0  0  0  0
   10.4872  -17.4147   27.5389 C   0  0  0  0  0  0  0  0  0  0  0  0
   10.7255  -16.3144   28.0790 O   0  0  0  0  0  0  0  0  0  0  0  0
   10.4282  -18.5540   28.3309 O   0  0  0  0  0  0  0  0  0  0  0  0
  1  2  1  0
  3  2  1  0
  3  4  1  6
  3  5  1  0
  5 12  1  0
  6  5  2  0
  8  7  1  0
  9  8  1  0
  9 11  1  0
  9 10  1  1
 11 13  1  0
 11 12  1  6
 13 19  1  0
 13 14  2  0
 16 15  1  1
 16 18  1  0
 17 16  1  0
 18 20  1  0
 18 19  1  6
 20 21  2  0
 20 22  1  0
M  END
$$$$
