SIT.pdb
     RDKit          3D

 22 21  0  0  1  0  0  0  0  0999 V2000
    5.8496  -17.3068   20.5780 O   0  0  0  0  0  0  0  0  0  0  0  0
    6.9026  -16.9115   21.3710 C   0  0  0  0  0  0  0  0  0  0  0  0
    7.0145  -15.4083   21.4282 C   0  0  2  0  0  0  0  0  0  0  0  0
    7.7406  -14.9527   20.2674 N   0  0  0  0  0  0  0  0  0  0  0  0
    7.8082  -15.0413   22.6514 C   0  0  0  0  0  0  0  0  0  0  0  0
    9.0739  -14.9815   22.5865 O   0  0  0  0  0  0  0  0  0  0  0  0
    6.0185  -11.4399   26.0194 C   0  0  0  0  0  0  0  0  0  0  0  0
    6.8982  -12.3743   25.2004 C   0  0  0  0  0  0  0  0  0  0  0  0
    7.3192  -13.5726   25.9667 C   0  0  2  0  0  0  0  0  0  0  0  0
    8.1814  -13.2474   27.1653 C   0  0  0  0  0  0  0  0  0  0  0  0
    8.0245  -14.5763   25.0885 C   0  0  2  0  0  0  0  0  0  0  0  0
    7.2027  -14.7565   23.8841 N   0  0  0  0  0  0  0  0  0  0  0  0
    8.2781  -15.8793   25.7225 C   0  0  0  0  0  0  0  0  0  0  0  0
    7.3613  -16.5822   26.1519 O   0  0  0  0  0  0  0  0  0  0  0  0
   10.0856  -18.6851   24.0996 C   0  0  0  0  0  0  0  0  0  0  0  0
   10.8081  -18.4008   25.3927 C   0  0  1  0  0  0  0  0  0  0  0  0
   11.9044  -17.5478   25.1456 O   0  0  0  0  0  0  0  0  0  0  0  0
    9.9258  -17.6640   26.3842 C   0  0  2  0  0  0  0  0  0  0  0  0
    9.6224  -16.3549   25.8500 N   0  0  0  0  0  0  0  0  0  0  0  0
   10.7176  -17.4905   27.6233 C   0  0  0  0  0  0  0  0  0  0  0  0
   11.1669  -16.3652   27.9249 O   0  0  0  0  0  0  0  0  0  0  0  0
   10.9733  -18.5648   28.4655 O   0  0  0  0  0  0  0  0  0  0  0  0
  1  2  1  0
  3  2  1  0
  3  4  1  6
  3  5  1  0
  5 12  1  0
  6  5  2  0
  8  7  1  0
  9  8  1  0
  9 11  1  0
  9 10  1  1
 11 13  1  0
 11 12  1  6
 13 19  1  0
 13 14  2  0
 16 15  1  6
 16 18  1  0
 17 16  1  0
 18 20  1  0
 18 19  1  6
 20 21  2  0
 20 22  1  0
M  END
$$$$
