SIT.pdb
     RDKit          3D

 22 21  0  0  1  0  0  0  0  0999 V2000
    7.3580  -17.0980   21.3321 O   0  0  0  0  0  0  0  0  0  0  0  0
    6.4338  -16.0805   21.2650 C   0  0  0  0  0  0  0  0  0  0  0  0
    7.0921  -14.7296   21.3947 C   0  0  2  0  0  0  0  0  0  0  0  0
    8.0202  -14.5591   20.3029 N   0  0  0  0  0  0  0  0  0  0  0  0
    7.8715  -14.7067   22.6803 C   0  0  0  0  0  0  0  0  0  0  0  0
    9.1333  -14.8359   22.6543 O   0  0  0  0  0  0  0  0  0  0  0  0
    6.1554  -11.4008   26.3818 C   0  0  0  0  0  0  0  0  0  0  0  0
    7.0572  -12.2584   25.5048 C   0  0  0  0  0  0  0  0  0  0  0  0
    7.3618  -13.5733   26.1202 C   0  0  2  0  0  0  0  0  0  0  0  0
    8.1590  -13.4676   27.4004 C   0  0  0  0  0  0  0  0  0  0  0  0
    8.0687  -14.4907   25.1535 C   0  0  2  0  0  0  0  0  0  0  0  0
    7.2565  -14.5463   23.9306 N   0  0  0  0  0  0  0  0  0  0  0  0
    8.3090  -15.8513   25.6585 C   0  0  0  0  0  0  0  0  0  0  0  0
    7.3832  -16.5925   25.9943 O   0  0  0  0  0  0  0  0  0  0  0  0
   10.3845  -18.4221   23.7891 C   0  0  0  0  0  0  0  0  0  0  0  0
   10.9570  -18.2744   25.1765 C   0  0  1  0  0  0  0  0  0  0  0  0
   12.0267  -17.3547   25.1526 O   0  0  0  0  0  0  0  0  0  0  0  0
    9.9420  -17.7032   26.1501 C   0  0  2  0  0  0  0  0  0  0  0  0
    9.6503  -16.3395   25.7677 N   0  0  0  0  0  0  0  0  0  0  0  0
   10.5832  -17.6867   27.4847 C   0  0  0  0  0  0  0  0  0  0  0  0
   10.8806  -16.5992   28.0213 O   0  0  0  0  0  0  0  0  0  0  0  0
   10.8635  -18.8683   28.1586 O   0  0  0  0  0  0  0  0  0  0  0  0
  1  2  1  0
  3  2  1  0
  3  4  1  6
  3  5  1  0
  5 12  1  0
  6  5  2  0
  8  7  1  0
  9  8  1  0
  9 11  1  0
  9 10  1  1
 11 13  1  0
 11 12  1  6
 13 19  1  0
 13 14  2  0
 16 15  1  6
 16 18  1  0
 17 16  1  0
 18 20  1  0
 18 19  1  6
 20 21  2  0
 20 22  1  0
M  END
$$$$
