SIT.pdb
     RDKit          3D

 22 21  0  0  1  0  0  0  0  0999 V2000
    5.8789  -16.7746   20.7274 O   0  0  0  0  0  0  0  0  0  0  0  0
    7.1687  -16.3120   20.8555 C   0  0  0  0  0  0  0  0  0  0  0  0
    7.1962  -14.8340   21.1553 C   0  0  2  0  0  0  0  0  0  0  0  0
    7.9713  -14.1683   20.1364 N   0  0  0  0  0  0  0  0  0  0  0  0
    7.8874  -14.6339   22.4756 C   0  0  0  0  0  0  0  0  0  0  0  0
    9.1544  -14.5879   22.5226 O   0  0  0  0  0  0  0  0  0  0  0  0
    6.0090  -11.2464   26.0342 C   0  0  0  0  0  0  0  0  0  0  0  0
    6.8842  -12.1645   25.1922 C   0  0  0  0  0  0  0  0  0  0  0  0
    7.1314  -13.4712   25.8494 C   0  0  2  0  0  0  0  0  0  0  0  0
    7.8254  -13.3495   27.1870 C   0  0  0  0  0  0  0  0  0  0  0  0
    7.9072  -14.4067   24.9556 C   0  0  2  0  0  0  0  0  0  0  0  0
    7.1830  -14.4932   23.6803 N   0  0  0  0  0  0  0  0  0  0  0  0
    8.1155  -15.7546   25.5067 C   0  0  0  0  0  0  0  0  0  0  0  0
    7.1715  -16.4699   25.8479 O   0  0  0  0  0  0  0  0  0  0  0  0
    9.8328  -18.6777   23.9575 C   0  0  0  0  0  0  0  0  0  0  0  0
   10.5783  -18.3424   25.2250 C   0  0  1  0  0  0  0  0  0  0  0  0
   11.6662  -17.4955   24.9253 O   0  0  0  0  0  0  0  0  0  0  0  0
    9.7117  -17.5719   26.2047 C   0  0  2  0  0  0  0  0  0  0  0  0
    9.4463  -16.2607   25.6559 N   0  0  0  0  0  0  0  0  0  0  0  0
   10.5022  -17.4071   27.4458 C   0  0  0  0  0  0  0  0  0  0  0  0
   10.9963  -16.2959   27.7287 O   0  0  0  0  0  0  0  0  0  0  0  0
   10.7074  -18.4743   28.3105 O   0  0  0  0  0  0  0  0  0  0  0  0
  1  2  1  0
  3  2  1  0
  3  4  1  6
  3  5  1  0
  5 12  1  0
  6  5  2  0
  8  7  1  0
  9  8  1  0
  9 11  1  0
  9 10  1  1
 11 13  1  0
 11 12  1  6
 13 19  1  0
 13 14  2  0
 16 15  1  6
 16 18  1  0
 17 16  1  0
 18 20  1  0
 18 19  1  6
 20 21  2  0
 20 22  1  0
M  END
$$$$
