SIT.pdb
     RDKit          3D

 22 21  0  0  1  0  0  0  0  0999 V2000
    7.5990  -17.5817   21.0381 O   0  0  0  0  0  0  0  0  0  0  0  0
    6.5917  -16.6440   21.0374 C   0  0  0  0  0  0  0  0  0  0  0  0
    7.1417  -15.2455   20.9073 C   0  0  2  0  0  0  0  0  0  0  0  0
    8.0622  -15.2105   19.7966 N   0  0  0  0  0  0  0  0  0  0  0  0
    7.9067  -14.9216   22.1606 C   0  0  0  0  0  0  0  0  0  0  0  0
    9.1752  -14.9408   22.1468 O   0  0  0  0  0  0  0  0  0  0  0  0
    7.5983  -11.6761   27.2794 C   0  0  0  0  0  0  0  0  0  0  0  0
    8.2222  -12.8382   26.5189 C   0  0  0  0  0  0  0  0  0  0  0  0
    7.4043  -13.2576   25.3546 C   0  0  2  0  0  0  0  0  0  0  0  0
    5.9920  -13.6519   25.7228 C   0  0  0  0  0  0  0  0  0  0  0  0
    8.0621  -14.3766   24.5856 C   0  0  2  0  0  0  0  0  0  0  0  0
    7.2710  -14.5930   23.3668 N   0  0  0  0  0  0  0  0  0  0  0  0
    8.1955  -15.6395   25.3281 C   0  0  0  0  0  0  0  0  0  0  0  0
    7.2119  -16.2609   25.7348 O   0  0  0  0  0  0  0  0  0  0  0  0
   10.1884  -18.5086   23.9026 C   0  0  0  0  0  0  0  0  0  0  0  0
   10.7088  -18.2317   25.2908 C   0  0  1  0  0  0  0  0  0  0  0  0
   11.8324  -17.3818   25.2153 O   0  0  0  0  0  0  0  0  0  0  0  0
    9.6895  -17.4954   26.1413 C   0  0  2  0  0  0  0  0  0  0  0  0
    9.4981  -16.1716   25.5919 N   0  0  0  0  0  0  0  0  0  0  0  0
   10.2726  -17.3589   27.4955 C   0  0  0  0  0  0  0  0  0  0  0  0
   10.4915  -18.3755   28.1867 O   0  0  0  0  0  0  0  0  0  0  0  0
   10.5843  -16.1104   28.0179 O   0  0  0  0  0  0  0  0  0  0  0  0
  1  2  1  0
  3  2  1  0
  3  4  1  6
  3  5  1  0
  5 12  1  0
  6  5  2  0
  8  7  1  0
  9  8  1  0
  9 11  1  0
  9 10  1  1
 11 13  1  0
 11 12  1  6
 13 19  1  0
 13 14  2  0
 16 15  1  6
 16 18  1  0
 17 16  1  0
 18 20  1  0
 18 19  1  6
 20 21  2  0
 20 22  1  0
M  END
$$$$
