SIT.pdb
     RDKit          3D

 22 21  0  0  1  0  0  0  0  0999 V2000
    5.2859  -16.7514   20.5975 O   0  0  0  0  0  0  0  0  0  0  0  0
    6.5069  -16.4817   21.1722 C   0  0  0  0  0  0  0  0  0  0  0  0
    6.7501  -14.9968   21.2770 C   0  0  2  0  0  0  0  0  0  0  0  0
    7.5089  -14.5686   20.1268 N   0  0  0  0  0  0  0  0  0  0  0  0
    7.5773  -14.7405   22.5062 C   0  0  0  0  0  0  0  0  0  0  0  0
    8.8380  -14.6385   22.4069 O   0  0  0  0  0  0  0  0  0  0  0  0
    5.9921  -11.3611   26.1782 C   0  0  0  0  0  0  0  0  0  0  0  0
    6.8309  -12.2571   25.2773 C   0  0  0  0  0  0  0  0  0  0  0  0
    7.1796  -13.5450   25.9255 C   0  0  2  0  0  0  0  0  0  0  0  0
    8.0180  -13.3826   27.1730 C   0  0  0  0  0  0  0  0  0  0  0  0
    7.8692  -14.4830   24.9660 C   0  0  2  0  0  0  0  0  0  0  0  0
    7.0091  -14.6063   23.7815 N   0  0  0  0  0  0  0  0  0  0  0  0
    8.1646  -15.8164   25.5127 C   0  0  0  0  0  0  0  0  0  0  0  0
    7.3050  -16.4884   26.0859 O   0  0  0  0  0  0  0  0  0  0  0  0
    9.9071  -18.7272   23.6261 C   0  0  0  0  0  0  0  0  0  0  0  0
   10.6883  -18.3802   24.8687 C   0  0  1  0  0  0  0  0  0  0  0  0
   11.7249  -17.4808   24.5413 O   0  0  0  0  0  0  0  0  0  0  0  0
    9.8295  -17.6654   25.8963 C   0  0  2  0  0  0  0  0  0  0  0  0
    9.4828  -16.3592   25.3817 N   0  0  0  0  0  0  0  0  0  0  0  0
   10.6628  -17.4841   27.1068 C   0  0  0  0  0  0  0  0  0  0  0  0
   11.0700  -16.3460   27.4200 O   0  0  0  0  0  0  0  0  0  0  0  0
   11.0041  -18.5651   27.9091 O   0  0  0  0  0  0  0  0  0  0  0  0
  1  2  1  0
  3  2  1  0
  3  4  1  6
  3  5  1  0
  5 12  1  0
  6  5  2  0
  8  7  1  0
  9  8  1  0
  9 11  1  0
  9 10  1  1
 11 13  1  0
 11 12  1  6
 13 19  1  0
 13 14  2  0
 16 15  1  6
 16 18  1  0
 17 16  1  0
 18 20  1  0
 18 19  1  6
 20 21  2  0
 20 22  1  0
M  END
$$$$
