EET.pdb
     RDKit          3D

 26 25  0  0  1  0  0  0  0  0999 V2000
   15.1839  -10.6165  -16.9554 N   0  0  0  0  0  0  0  0  0  0  0  0
   15.9459  -10.3370  -15.7586 C   0  0  1  0  0  0  0  0  0  0  0  0
   16.4746  -11.5630  -15.1041 C   0  0  0  0  0  0  0  0  0  0  0  0
   17.4403  -12.2923  -15.9892 C   0  0  0  0  0  0  0  0  0  0  0  0
   18.1010  -13.4084  -15.3134 C   0  0  0  0  0  0  0  0  0  0  0  0
   17.8037  -13.6893  -14.1195 O   0  0  0  0  0  0  0  0  0  0  0  0
   17.0293   -9.3653  -16.1054 C   0  0  0  0  0  0  0  0  0  0  0  0
   18.0807   -9.7410  -16.6940 O   0  0  0  0  0  0  0  0  0  0  0  0
   19.0751  -14.2000  -15.9501 O   0  0  0  0  0  0  0  0  0  0  0  0
   16.8911   -8.0152  -15.7790 N   0  0  0  0  0  0  0  0  0  0  0  0
   17.8723   -6.9642  -16.1138 C   0  0  1  0  0  0  0  0  0  0  0  0
   17.1543   -5.6361  -16.1246 C   0  0  0  0  0  0  0  0  0  0  0  0
   16.3758   -5.4989  -17.3923 C   0  0  0  0  0  0  0  0  0  0  0  0
   15.4609   -4.3100  -17.3451 C   0  0  0  0  0  0  0  0  0  0  0  0
   15.8960   -3.1587  -17.3565 O   0  0  0  0  0  0  0  0  0  0  0  0
   18.8458   -6.9692  -15.0274 C   0  0  0  0  0  0  0  0  0  0  0  0
   18.4520   -7.1413  -13.8479 O   0  0  0  0  0  0  0  0  0  0  0  0
   14.1141   -4.5590  -17.2887 O   0  0  0  0  0  0  0  0  0  0  0  0
   22.8521   -7.7350  -15.6442 C   0  0  0  0  0  0  0  0  0  0  0  0
   22.1645   -7.9453  -14.3233 C   0  0  1  0  0  0  0  0  0  0  0  0
   23.0664   -7.9724  -13.2697 O   0  0  0  0  0  0  0  0  0  0  0  0
   21.1254   -6.8284  -14.1168 C   0  0  2  0  0  0  0  0  0  0  0  0
   20.2238   -6.7964  -15.2497 N   0  0  0  0  0  0  0  0  0  0  0  0
   21.8047   -5.5421  -13.9886 C   0  0  0  0  0  0  0  0  0  0  0  0
   21.6056   -4.5384  -14.9052 O   0  0  0  0  0  0  0  0  0  0  0  0
   22.5977   -5.3557  -13.0033 O   0  0  0  0  0  0  0  0  0  0  0  0
  2  1  1  6
  2  7  1  0
  3  2  1  0
  4  5  1  0
  4  3  1  0
  5  6  2  0
  5  9  1  0
  7 10  1  0
  7  8  2  0
 10 11  1  0
 11 12  1  1
 12 13  1  0
 13 14  1  0
 14 15  2  0
 16 11  1  0
 16 17  2  0
 18 14  1  0
 20 19  1  6
 20 21  1  0
 20 22  1  0
 22 23  1  6
 23 16  1  0
 24 25  1  0
 24 22  1  0
 26 24  2  0
M  END
$$$$
