EET.pdb
     RDKit          3D

 26 25  0  0  1  0  0  0  0  0999 V2000
   17.2708  -12.6683  -15.1634 N   0  0  0  0  0  0  0  0  0  0  0  0
   18.6498  -12.4353  -15.5316 C   0  0  1  0  0  0  0  0  0  0  0  0
   19.2360  -13.5452  -16.3288 C   0  0  0  0  0  0  0  0  0  0  0  0
   18.5468  -13.7034  -17.6508 C   0  0  0  0  0  0  0  0  0  0  0  0
   18.6682  -15.0541  -18.1984 C   0  0  0  0  0  0  0  0  0  0  0  0
   17.8444  -15.9486  -17.8616 O   0  0  0  0  0  0  0  0  0  0  0  0
   18.7331  -11.1204  -16.2403 C   0  0  0  0  0  0  0  0  0  0  0  0
   19.2298  -11.0316  -17.3973 O   0  0  0  0  0  0  0  0  0  0  0  0
   19.6858  -15.4073  -19.1043 O   0  0  0  0  0  0  0  0  0  0  0  0
   18.2578   -9.9611  -15.6252 N   0  0  0  0  0  0  0  0  0  0  0  0
   18.3399   -8.6064  -16.2064 C   0  0  1  0  0  0  0  0  0  0  0  0
   16.9346   -8.0820  -16.3784 C   0  0  0  0  0  0  0  0  0  0  0  0
   16.9777   -6.7456  -17.0447 C   0  0  0  0  0  0  0  0  0  0  0  0
   15.6047   -6.1515  -17.1661 C   0  0  0  0  0  0  0  0  0  0  0  0
   15.3220   -5.0675  -16.6562 O   0  0  0  0  0  0  0  0  0  0  0  0
   19.0335   -7.7907  -15.2157 C   0  0  0  0  0  0  0  0  0  0  0  0
   18.8166   -7.9871  -13.9949 O   0  0  0  0  0  0  0  0  0  0  0  0
   14.6731   -6.8683  -17.8714 O   0  0  0  0  0  0  0  0  0  0  0  0
   22.7717   -5.2358  -13.6590 C   0  0  0  0  0  0  0  0  0  0  0  0
   22.1132   -6.1883  -14.6186 C   0  0  1  0  0  0  0  0  0  0  0  0
   22.4674   -7.5052  -14.3645 O   0  0  0  0  0  0  0  0  0  0  0  0
   20.5864   -6.0123  -14.5295 C   0  0  2  0  0  0  0  0  0  0  0  0
   19.9521   -6.7881  -15.5749 N   0  0  0  0  0  0  0  0  0  0  0  0
   20.2442   -4.6011  -14.6837 C   0  0  0  0  0  0  0  0  0  0  0  0
   19.7802   -4.1085  -15.8793 O   0  0  0  0  0  0  0  0  0  0  0  0
   20.3826   -3.8170  -13.6834 O   0  0  0  0  0  0  0  0  0  0  0  0
  2  1  1  6
  2  7  1  0
  3  2  1  0
  4  5  1  0
  4  3  1  0
  5  6  2  0
  5  9  1  0
  7 10  1  0
  7  8  2  0
 10 11  1  0
 11 12  1  1
 12 13  1  0
 13 14  1  0
 14 15  2  0
 16 11  1  0
 16 17  2  0
 18 14  1  0
 20 19  1  1
 20 21  1  0
 20 22  1  0
 22 23  1  6
 23 16  1  0
 24 25  1  0
 24 22  1  0
 26 24  2  0
M  END
$$$$
