EET.pdb
     RDKit          3D

 26 25  0  0  1  0  0  0  0  0999 V2000
   14.4125   -7.4022  -10.4128 N   0  0  0  0  0  0  0  0  0  0  0  0
   15.2048   -8.2588   -9.5587 C   0  0  1  0  0  0  0  0  0  0  0  0
   14.4476   -9.4304   -9.0439 C   0  0  0  0  0  0  0  0  0  0  0  0
   12.9663   -9.2195   -9.1392 C   0  0  0  0  0  0  0  0  0  0  0  0
   12.1956  -10.3594   -8.6437 C   0  0  0  0  0  0  0  0  0  0  0  0
   11.4180  -10.2165   -7.6602 O   0  0  0  0  0  0  0  0  0  0  0  0
   16.4363   -8.6617  -10.3066 C   0  0  0  0  0  0  0  0  0  0  0  0
   17.3596   -9.3127   -9.7435 O   0  0  0  0  0  0  0  0  0  0  0  0
   12.2854  -11.6364   -9.2285 O   0  0  0  0  0  0  0  0  0  0  0  0
   16.5831   -8.3194  -11.6518 N   0  0  0  0  0  0  0  0  0  0  0  0
   17.7616   -8.6457  -12.4790 C   0  0  1  0  0  0  0  0  0  0  0  0
   17.2754   -9.0773  -13.8416 C   0  0  0  0  0  0  0  0  0  0  0  0
   18.4459   -9.4157  -14.7060 C   0  0  0  0  0  0  0  0  0  0  0  0
   18.0060   -9.8710  -16.0669 C   0  0  0  0  0  0  0  0  0  0  0  0
   17.6950   -9.0693  -16.9476 O   0  0  0  0  0  0  0  0  0  0  0  0
   18.5093   -7.4004  -12.6137 C   0  0  0  0  0  0  0  0  0  0  0  0
   17.8875   -6.3112  -12.6679 O   0  0  0  0  0  0  0  0  0  0  0  0
   17.9644  -11.2226  -16.2911 O   0  0  0  0  0  0  0  0  0  0  0  0
   20.4401   -5.4760  -10.4027 C   0  0  0  0  0  0  0  0  0  0  0  0
   21.3901   -5.8106  -11.5196 C   0  0  1  0  0  0  0  0  0  0  0  0
   22.1935   -6.8972  -11.2065 O   0  0  0  0  0  0  0  0  0  0  0  0
   20.5801   -6.0879  -12.7990 C   0  0  2  0  0  0  0  0  0  0  0  0
   19.9139   -7.3679  -12.6772 N   0  0  0  0  0  0  0  0  0  0  0  0
   21.4742   -6.1033  -13.9534 C   0  0  0  0  0  0  0  0  0  0  0  0
   21.6880   -7.2545  -14.6720 O   0  0  0  0  0  0  0  0  0  0  0  0
   22.0650   -5.0218  -14.2940 O   0  0  0  0  0  0  0  0  0  0  0  0
  2  1  1  6
  2  7  1  0
  3  2  1  0
  4  5  1  0
  4  3  1  0
  5  6  2  0
  5  9  1  0
  7 10  1  0
  7  8  2  0
 10 11  1  0
 11 12  1  6
 12 13  1  0
 13 14  1  0
 14 15  2  0
 16 11  1  0
 16 17  2  0
 18 14  1  0
 20 19  1  1
 20 21  1  0
 20 22  1  0
 22 23  1  1
 23 16  1  0
 24 25  1  0
 24 22  1  0
 26 24  2  0
M  END
$$$$
