EET.pdb
     RDKit          3D

 26 25  0  0  1  0  0  0  0  0999 V2000
   17.7390  -11.9527  -15.7010 N   0  0  0  0  0  0  0  0  0  0  0  0
   17.9424  -10.7644  -16.4996 C   0  0  1  0  0  0  0  0  0  0  0  0
   16.7949   -9.8204  -16.4431 C   0  0  0  0  0  0  0  0  0  0  0  0
   15.5365  -10.4443  -16.9675 C   0  0  0  0  0  0  0  0  0  0  0  0
   14.3739   -9.5644  -16.8528 C   0  0  0  0  0  0  0  0  0  0  0  0
   14.4713   -8.3453  -17.1640 O   0  0  0  0  0  0  0  0  0  0  0  0
   19.2264  -10.1248  -16.0749 C   0  0  0  0  0  0  0  0  0  0  0  0
   19.6818  -10.2841  -14.9085 O   0  0  0  0  0  0  0  0  0  0  0  0
   13.1243  -10.0279  -16.4005 O   0  0  0  0  0  0  0  0  0  0  0  0
   19.9462   -9.3341  -16.9722 N   0  0  0  0  0  0  0  0  0  0  0  0
   21.2519   -8.7090  -16.6823 C   0  0  1  0  0  0  0  0  0  0  0  0
   22.1023   -8.7964  -17.9267 C   0  0  0  0  0  0  0  0  0  0  0  0
   23.4208   -8.1393  -17.6784 C   0  0  0  0  0  0  0  0  0  0  0  0
   24.3010   -8.2054  -18.8924 C   0  0  0  0  0  0  0  0  0  0  0  0
   24.0209   -8.9183  -19.8559 O   0  0  0  0  0  0  0  0  0  0  0  0
   20.9666   -7.3067  -16.3993 C   0  0  0  0  0  0  0  0  0  0  0  0
   20.4482   -6.5912  -17.2910 O   0  0  0  0  0  0  0  0  0  0  0  0
   25.4353   -7.4358  -18.8853 O   0  0  0  0  0  0  0  0  0  0  0  0
   18.4869   -5.6488  -14.8875 C   0  0  0  0  0  0  0  0  0  0  0  0
   19.6746   -5.1823  -14.0914 C   0  0  1  0  0  0  0  0  0  0  0  0
   19.8158   -5.8936  -12.9089 O   0  0  0  0  0  0  0  0  0  0  0  0
   20.9406   -5.3156  -14.9570 C   0  0  2  0  0  0  0  0  0  0  0  0
   21.2430   -6.7183  -15.1520 N   0  0  0  0  0  0  0  0  0  0  0  0
   22.0616   -4.6554  -14.2938 C   0  0  0  0  0  0  0  0  0  0  0  0
   23.1366   -5.3740  -13.8297 O   0  0  0  0  0  0  0  0  0  0  0  0
   22.0335   -3.3858  -14.1459 O   0  0  0  0  0  0  0  0  0  0  0  0
  2  1  1  1
  2  7  1  0
  3  2  1  0
  4  5  1  0
  4  3  1  0
  5  6  2  0
  5  9  1  0
  7 10  1  0
  7  8  2  0
 10 11  1  0
 11 12  1  6
 12 13  1  0
 13 14  1  0
 14 15  2  0
 16 11  1  0
 16 17  2  0
 18 14  1  0
 20 19  1  6
 20 21  1  0
 20 22  1  0
 22 23  1  1
 23 16  1  0
 24 25  1  0
 24 22  1  0
 26 24  2  0
M  END
$$$$
