DTL.pdb
     RDKit          3D

 24 23  0  0  1  0  0  0  0  0999 V2000
   11.5879  -15.8764   18.2935 N   0  0  0  0  0  0  0  0  0  0  0  0
   11.8890  -15.4216   19.6637 C   0  0  1  0  0  0  0  0  0  0  0  0
   12.5142  -14.0673   19.5416 C   0  0  0  0  0  0  0  0  0  0  0  0
   13.9125  -14.1361   19.1041 C   0  0  0  0  0  0  0  0  0  0  0  0
   14.7549  -14.9217   19.5879 O   0  0  0  0  0  0  0  0  0  0  0  0
   10.5738  -15.3219   20.3563 C   0  0  0  0  0  0  0  0  0  0  0  0
    9.5369  -14.8295   19.8074 O   0  0  0  0  0  0  0  0  0  0  0  0
   14.3935  -13.2911   18.0811 O   0  0  0  0  0  0  0  0  0  0  0  0
    7.8595  -16.9386   20.6560 C   0  0  0  0  0  0  0  0  0  0  0  0
    8.3302  -16.9276   22.0842 C   0  0  1  0  0  0  0  0  0  0  0  0
    9.0222  -18.0808   22.4219 O   0  0  0  0  0  0  0  0  0  0  0  0
    9.1448  -15.6905   22.3558 C   0  0  2  0  0  0  0  0  0  0  0  0
   10.4488  -15.7917   21.6898 N   0  0  0  0  0  0  0  0  0  0  0  0
    9.3370  -15.4452   23.7932 C   0  0  0  0  0  0  0  0  0  0  0  0
   10.5008  -15.6046   24.2869 O   0  0  0  0  0  0  0  0  0  0  0  0
    8.1796  -11.6461   26.2625 C   0  0  0  0  0  0  0  0  0  0  0  0
    7.1129  -12.7114   25.9544 C   0  0  2  0  0  0  0  0  0  0  0  0
    5.8213  -12.0866   26.5019 C   0  0  0  0  0  0  0  0  0  0  0  0
    7.4950  -13.9502   26.6897 C   0  0  0  0  0  0  0  0  0  0  0  0
    8.5633  -14.7844   26.0283 C   0  0  2  0  0  0  0  0  0  0  0  0
    8.2977  -15.0415   24.6481 N   0  0  0  0  0  0  0  0  0  0  0  0
    8.8819  -16.0383   26.7157 C   0  0  0  0  0  0  0  0  0  0  0  0
    9.3151  -15.9927   27.8962 O   0  0  0  0  0  0  0  0  0  0  0  0
    8.7455  -17.3073   26.1678 O   0  0  0  0  0  0  0  0  0  0  0  0
  2  1  1  6
  2  6  1  0
  3  2  1  0
  3  4  1  0
  4  5  2  0
  4  8  1  0
  6  7  2  0
 10  9  1  6
 10 12  1  0
 11 10  1  0
 12 14  1  0
 13  6  1  0
 12 13  1  6
 14 21  1  0
 15 14  2  0
 17 16  1  1
 17 18  1  0
 19 17  1  0
 20 19  1  1
 21 20  1  0
 22 20  1  0
 23 22  2  0
 24 22  1  0
M  END
$$$$
