DTL.pdb
     RDKit          3D

 24 23  0  0  1  0  0  0  0  0999 V2000
   11.0219  -16.3584   18.4984 N   0  0  0  0  0  0  0  0  0  0  0  0
   11.4308  -16.3692   19.9153 C   0  0  1  0  0  0  0  0  0  0  0  0
   12.7338  -15.6373   19.9943 C   0  0  0  0  0  0  0  0  0  0  0  0
   13.8650  -16.4642   19.5605 C   0  0  0  0  0  0  0  0  0  0  0  0
   13.7438  -17.6075   19.0717 O   0  0  0  0  0  0  0  0  0  0  0  0
   10.3728  -15.6193   20.6486 C   0  0  0  0  0  0  0  0  0  0  0  0
   10.0404  -14.4262   20.3572 O   0  0  0  0  0  0  0  0  0  0  0  0
   15.1911  -15.9953   19.6767 O   0  0  0  0  0  0  0  0  0  0  0  0
    6.8928  -16.1702   20.6121 C   0  0  0  0  0  0  0  0  0  0  0  0
    7.2791  -16.3123   22.0585 C   0  0  1  0  0  0  0  0  0  0  0  0
    7.3776  -17.6383   22.4518 O   0  0  0  0  0  0  0  0  0  0  0  0
    8.5499  -15.5538   22.3364 C   0  0  2  0  0  0  0  0  0  0  0  0
    9.6911  -16.2450   21.7249 N   0  0  0  0  0  0  0  0  0  0  0  0
    8.7930  -15.3668   23.7749 C   0  0  0  0  0  0  0  0  0  0  0  0
    9.9362  -15.6779   24.2438 O   0  0  0  0  0  0  0  0  0  0  0  0
    7.9433  -11.5370   26.4962 C   0  0  0  0  0  0  0  0  0  0  0  0
    6.8338  -12.5283   26.1038 C   0  0  2  0  0  0  0  0  0  0  0  0
    5.5618  -11.8743   26.6630 C   0  0  0  0  0  0  0  0  0  0  0  0
    7.1396  -13.8259   26.7702 C   0  0  0  0  0  0  0  0  0  0  0  0
    8.1292  -14.7020   26.0439 C   0  0  2  0  0  0  0  0  0  0  0  0
    7.8242  -14.8595   24.6569 N   0  0  0  0  0  0  0  0  0  0  0  0
    8.3582  -16.0136   26.6550 C   0  0  0  0  0  0  0  0  0  0  0  0
    8.8869  -16.0702   27.7955 O   0  0  0  0  0  0  0  0  0  0  0  0
    8.0359  -17.2334   26.0742 O   0  0  0  0  0  0  0  0  0  0  0  0
  2  1  1  6
  2  6  1  0
  3  2  1  0
  3  4  1  0
  4  5  2  0
  4  8  1  0
  6  7  2  0
 10  9  1  6
 10 12  1  0
 11 10  1  0
 12 14  1  0
 13  6  1  0
 12 13  1  1
 14 21  1  0
 15 14  2  0
 17 16  1  1
 17 18  1  0
 19 17  1  0
 20 19  1  1
 21 20  1  0
 22 20  1  0
 23 22  2  0
 24 22  1  0
M  END
$$$$
