DTL.pdb
     RDKit          3D

 24 23  0  0  1  0  0  0  0  0999 V2000
   11.5138  -14.9764   18.2491 N   0  0  0  0  0  0  0  0  0  0  0  0
   11.8098  -15.1939   19.6774 C   0  0  1  0  0  0  0  0  0  0  0  0
   12.9722  -14.3142   20.0164 C   0  0  0  0  0  0  0  0  0  0  0  0
   14.2038  -14.7315   19.3379 C   0  0  0  0  0  0  0  0  0  0  0  0
   14.6222  -15.9085   19.3174 O   0  0  0  0  0  0  0  0  0  0  0  0
   10.5944  -14.7499   20.4157 C   0  0  0  0  0  0  0  0  0  0  0  0
   10.0260  -13.6310   20.2059 O   0  0  0  0  0  0  0  0  0  0  0  0
   15.0051  -13.7944   18.6511 O   0  0  0  0  0  0  0  0  0  0  0  0
    7.3030  -15.9459   20.2102 C   0  0  0  0  0  0  0  0  0  0  0  0
    7.6654  -16.1363   21.6572 C   0  0  1  0  0  0  0  0  0  0  0  0
    7.9864  -17.4524   21.9532 O   0  0  0  0  0  0  0  0  0  0  0  0
    8.7724  -15.1927   22.0467 C   0  0  2  0  0  0  0  0  0  0  0  0
   10.0275  -15.5979   21.4026 N   0  0  0  0  0  0  0  0  0  0  0  0
    8.9621  -15.1150   23.5031 C   0  0  0  0  0  0  0  0  0  0  0  0
   10.0933  -15.4457   23.9875 O   0  0  0  0  0  0  0  0  0  0  0  0
    8.5865  -11.7832   26.7660 C   0  0  0  0  0  0  0  0  0  0  0  0
    7.3365  -12.4200   26.1341 C   0  0  2  0  0  0  0  0  0  0  0  0
    6.1842  -11.5854   26.7123 C   0  0  0  0  0  0  0  0  0  0  0  0
    7.2841  -13.8400   26.5837 C   0  0  0  0  0  0  0  0  0  0  0  0
    8.1494  -14.7934   25.7982 C   0  0  2  0  0  0  0  0  0  0  0  0
    7.9548  -14.6916   24.3863 N   0  0  0  0  0  0  0  0  0  0  0  0
    8.0584  -16.1953   26.2132 C   0  0  0  0  0  0  0  0  0  0  0  0
    7.4803  -17.0182   25.4569 O   0  0  0  0  0  0  0  0  0  0  0  0
    8.5661  -16.7129   27.3979 O   0  0  0  0  0  0  0  0  0  0  0  0
  2  1  1  6
  2  6  1  0
  3  2  1  0
  3  4  1  0
  4  5  2  0
  4  8  1  0
  6  7  2  0
 10  9  1  6
 10 12  1  0
 11 10  1  0
 12 14  1  0
 13  6  1  0
 12 13  1  6
 14 21  1  0
 15 14  2  0
 17 16  1  1
 17 18  1  0
 19 17  1  0
 20 19  1  1
 21 20  1  0
 22 20  1  0
 23 22  2  0
 24 22  1  0
M  END
$$$$
