DTL.pdb
     RDKit          3D

 24 23  0  0  1  0  0  0  0  0999 V2000
   11.1006  -15.3919   18.1301 N   0  0  0  0  0  0  0  0  0  0  0  0
   11.5487  -15.4230   19.5349 C   0  0  1  0  0  0  0  0  0  0  0  0
   12.6019  -14.3691   19.6756 C   0  0  0  0  0  0  0  0  0  0  0  0
   13.8939  -14.7953   19.1274 C   0  0  0  0  0  0  0  0  0  0  0  0
   14.1687  -15.9780   18.8332 O   0  0  0  0  0  0  0  0  0  0  0  0
   10.3529  -15.0692   20.3500 C   0  0  0  0  0  0  0  0  0  0  0  0
    9.6281  -14.0510   20.1118 O   0  0  0  0  0  0  0  0  0  0  0  0
   14.9262  -13.8609   18.8967 O   0  0  0  0  0  0  0  0  0  0  0  0
    7.2916  -16.6346   20.3701 C   0  0  0  0  0  0  0  0  0  0  0  0
    7.7284  -16.7315   21.8058 C   0  0  1  0  0  0  0  0  0  0  0  0
    8.2344  -17.9833   22.1214 O   0  0  0  0  0  0  0  0  0  0  0  0
    8.7114  -15.6370   22.1273 C   0  0  2  0  0  0  0  0  0  0  0  0
    9.9868  -15.8917   21.4473 N   0  0  0  0  0  0  0  0  0  0  0  0
    8.9384  -15.4884   23.5729 C   0  0  0  0  0  0  0  0  0  0  0  0
   10.1061  -15.7119   24.0312 O   0  0  0  0  0  0  0  0  0  0  0  0
    7.9361  -11.8764   26.6954 C   0  0  0  0  0  0  0  0  0  0  0  0
    6.8927  -12.8284   26.0850 C   0  0  2  0  0  0  0  0  0  0  0  0
    5.5588  -12.2669   26.5988 C   0  0  0  0  0  0  0  0  0  0  0  0
    7.1707  -14.1932   26.6153 C   0  0  0  0  0  0  0  0  0  0  0  0
    8.2224  -14.9708   25.8643 C   0  0  2  0  0  0  0  0  0  0  0  0
    7.9282  -15.1100   24.4730 N   0  0  0  0  0  0  0  0  0  0  0  0
    8.5503  -16.2787   26.4369 C   0  0  0  0  0  0  0  0  0  0  0  0
    8.0877  -17.3150   25.8931 O   0  0  0  0  0  0  0  0  0  0  0  0
    9.3470  -16.4846   27.5557 O   0  0  0  0  0  0  0  0  0  0  0  0
  2  1  1  6
  2  6  1  0
  3  2  1  0
  3  4  1  0
  4  5  2  0
  4  8  1  0
  6  7  2  0
 10  9  1  6
 10 12  1  0
 11 10  1  0
 12 14  1  0
 13  6  1  0
 12 13  1  6
 14 21  1  0
 15 14  2  0
 17 16  1  1
 17 18  1  0
 19 17  1  0
 20 19  1  1
 21 20  1  0
 22 20  1  0
 23 22  2  0
 24 22  1  0
M  END
$$$$
