DTL.pdb
     RDKit          3D

 24 23  0  0  1  0  0  0  0  0999 V2000
   11.6692  -17.5695   19.0105 N   0  0  0  0  0  0  0  0  0  0  0  0
   11.9297  -17.3207   20.4406 C   0  0  1  0  0  0  0  0  0  0  0  0
   13.2195  -16.5658   20.5197 C   0  0  0  0  0  0  0  0  0  0  0  0
   14.3793  -17.4098   20.2131 C   0  0  0  0  0  0  0  0  0  0  0  0
   15.2845  -17.0852   19.4157 O   0  0  0  0  0  0  0  0  0  0  0  0
   10.8036  -16.4689   20.9159 C   0  0  0  0  0  0  0  0  0  0  0  0
   10.4664  -15.3834   20.3442 O   0  0  0  0  0  0  0  0  0  0  0  0
   14.5371  -18.6727   20.8232 O   0  0  0  0  0  0  0  0  0  0  0  0
    7.4424  -16.6423   20.5291 C   0  0  0  0  0  0  0  0  0  0  0  0
    7.6252  -16.7708   22.0162 C   0  0  1  0  0  0  0  0  0  0  0  0
    7.5972  -18.0907   22.4403 O   0  0  0  0  0  0  0  0  0  0  0  0
    8.8881  -16.0742   22.4491 C   0  0  2  0  0  0  0  0  0  0  0  0
   10.0590  -16.8673   22.0566 N   0  0  0  0  0  0  0  0  0  0  0  0
    8.9232  -15.8165   23.8968 C   0  0  0  0  0  0  0  0  0  0  0  0
    9.9187  -16.2452   24.5667 O   0  0  0  0  0  0  0  0  0  0  0  0
    5.8886  -11.8912   26.7712 C   0  0  0  0  0  0  0  0  0  0  0  0
    7.2069  -12.6726   26.6323 C   0  0  2  0  0  0  0  0  0  0  0  0
    7.7947  -12.1426   25.3163 C   0  0  0  0  0  0  0  0  0  0  0  0
    6.8606  -14.1199   26.5520 C   0  0  0  0  0  0  0  0  0  0  0  0
    7.9467  -15.0092   26.0005 C   0  0  2  0  0  0  0  0  0  0  0  0
    7.9110  -15.1182   24.5763 N   0  0  0  0  0  0  0  0  0  0  0  0
    8.0162  -16.3440   26.6001 C   0  0  0  0  0  0  0  0  0  0  0  0
    7.4222  -17.2979   26.0338 O   0  0  0  0  0  0  0  0  0  0  0  0
    8.6968  -16.6610   27.7686 O   0  0  0  0  0  0  0  0  0  0  0  0
  2  1  1  6
  2  6  1  0
  3  2  1  0
  3  4  1  0
  4  5  2  0
  4  8  1  0
  6  7  2  0
 10  9  1  6
 10 12  1  0
 11 10  1  0
 12 14  1  0
 13  6  1  0
 12 13  1  1
 14 21  1  0
 15 14  2  0
 17 16  1  6
 17 18  1  0
 19 17  1  0
 20 19  1  1
 21 20  1  0
 22 20  1  0
 23 22  2  0
 24 22  1  0
M  END
$$$$
