DTL.pdb
     RDKit          3D

 24 23  0  0  1  0  0  0  0  0999 V2000
   11.2528  -15.4426   18.0839 N   0  0  0  0  0  0  0  0  0  0  0  0
   11.6324  -15.2941   19.5012 C   0  0  1  0  0  0  0  0  0  0  0  0
   12.4040  -14.0163   19.6100 C   0  0  0  0  0  0  0  0  0  0  0  0
   13.8525  -14.2305   19.5233 C   0  0  0  0  0  0  0  0  0  0  0  0
   14.4084  -14.8604   18.5987 O   0  0  0  0  0  0  0  0  0  0  0  0
   10.3519  -15.1890   20.2553 C   0  0  0  0  0  0  0  0  0  0  0  0
    9.3467  -14.5369   19.8270 O   0  0  0  0  0  0  0  0  0  0  0  0
   14.7204  -13.7195   20.5120 O   0  0  0  0  0  0  0  0  0  0  0  0
    7.7385  -17.2322   20.6061 C   0  0  0  0  0  0  0  0  0  0  0  0
    8.1968  -17.0835   22.0306 C   0  0  1  0  0  0  0  0  0  0  0  0
    8.9531  -18.1641   22.4584 O   0  0  0  0  0  0  0  0  0  0  0  0
    8.9348  -15.7829   22.2085 C   0  0  2  0  0  0  0  0  0  0  0  0
   10.2250  -15.8382   21.5111 N   0  0  0  0  0  0  0  0  0  0  0  0
    9.1473  -15.4431   23.6236 C   0  0  0  0  0  0  0  0  0  0  0  0
   10.3330  -15.4875   24.0881 O   0  0  0  0  0  0  0  0  0  0  0  0
    8.1269  -11.6469   26.1640 C   0  0  0  0  0  0  0  0  0  0  0  0
    7.0376  -12.6661   25.7868 C   0  0  2  0  0  0  0  0  0  0  0  0
    5.7452  -12.0021   26.2840 C   0  0  0  0  0  0  0  0  0  0  0  0
    7.3381  -13.9302   26.5169 C   0  0  0  0  0  0  0  0  0  0  0  0
    8.3728  -14.8149   25.8678 C   0  0  2  0  0  0  0  0  0  0  0  0
    8.1043  -15.0700   24.4878 N   0  0  0  0  0  0  0  0  0  0  0  0
    8.6325  -16.0765   26.5657 C   0  0  0  0  0  0  0  0  0  0  0  0
    9.0255  -16.0419   27.7606 O   0  0  0  0  0  0  0  0  0  0  0  0
    8.4802  -17.3417   26.0133 O   0  0  0  0  0  0  0  0  0  0  0  0
  2  1  1  6
  2  6  1  0
  3  2  1  0
  3  4  1  0
  4  5  2  0
  4  8  1  0
  6  7  2  0
 10  9  1  6
 10 12  1  0
 11 10  1  0
 12 14  1  0
 13  6  1  0
 12 13  1  6
 14 21  1  0
 15 14  2  0
 17 16  1  1
 17 18  1  0
 19 17  1  0
 20 19  1  1
 21 20  1  0
 22 20  1  0
 23 22  2  0
 24 22  1  0
M  END
$$$$
