DTL.pdb
     RDKit          3D

 24 23  0  0  1  0  0  0  0  0999 V2000
   11.2480  -17.4239   18.9209 N   0  0  0  0  0  0  0  0  0  0  0  0
   11.7299  -16.9174   20.2194 C   0  0  1  0  0  0  0  0  0  0  0  0
   12.9422  -16.0868   19.9359 C   0  0  0  0  0  0  0  0  0  0  0  0
   14.1233  -16.9058   19.6435 C   0  0  0  0  0  0  0  0  0  0  0  0
   14.9857  -16.6038   18.7915 O   0  0  0  0  0  0  0  0  0  0  0  0
   10.6329  -16.0629   20.7541 C   0  0  0  0  0  0  0  0  0  0  0  0
   10.4262  -14.8717   20.3577 O   0  0  0  0  0  0  0  0  0  0  0  0
   14.3536  -18.1161   20.3320 O   0  0  0  0  0  0  0  0  0  0  0  0
    7.1170  -16.1979   20.3378 C   0  0  0  0  0  0  0  0  0  0  0  0
    7.3404  -16.3705   21.8149 C   0  0  1  0  0  0  0  0  0  0  0  0
    7.2571  -17.6968   22.2109 O   0  0  0  0  0  0  0  0  0  0  0  0
    8.6512  -15.7502   22.2206 C   0  0  2  0  0  0  0  0  0  0  0  0
    9.7664  -16.5811   21.7517 N   0  0  0  0  0  0  0  0  0  0  0  0
    8.7554  -15.5500   23.6740 C   0  0  0  0  0  0  0  0  0  0  0  0
    9.7625  -16.0370   24.2841 O   0  0  0  0  0  0  0  0  0  0  0  0
    8.3091  -11.7151   26.5164 C   0  0  0  0  0  0  0  0  0  0  0  0
    7.0597  -12.3733   25.9053 C   0  0  2  0  0  0  0  0  0  0  0  0
    5.9127  -11.4782   26.3970 C   0  0  0  0  0  0  0  0  0  0  0  0
    6.9704  -13.7558   26.4548 C   0  0  0  0  0  0  0  0  0  0  0  0
    7.9230  -14.7518   25.8422 C   0  0  2  0  0  0  0  0  0  0  0  0
    7.7973  -14.8454   24.4219 N   0  0  0  0  0  0  0  0  0  0  0  0
    7.8821  -16.0909   26.4347 C   0  0  0  0  0  0  0  0  0  0  0  0
    7.1854  -16.9808   25.8815 O   0  0  0  0  0  0  0  0  0  0  0  0
    8.5610  -16.4781   27.5829 O   0  0  0  0  0  0  0  0  0  0  0  0
  2  1  1  6
  2  6  1  0
  3  2  1  0
  3  4  1  0
  4  5  2  0
  4  8  1  0
  6  7  2  0
 10  9  1  6
 10 12  1  0
 11 10  1  0
 12 14  1  0
 13  6  1  0
 12 13  1  1
 14 21  1  0
 15 14  2  0
 17 16  1  1
 17 18  1  0
 19 17  1  0
 20 19  1  1
 21 20  1  0
 22 20  1  0
 23 22  2  0
 24 22  1  0
M  END
$$$$
