DTL.pdb
     RDKit          3D

 24 23  0  0  1  0  0  0  0  0999 V2000
   12.2760  -15.8746   17.9555 N   0  0  0  0  0  0  0  0  0  0  0  0
   12.3932  -15.5374   19.3864 C   0  0  1  0  0  0  0  0  0  0  0  0
   13.3066  -14.3554   19.4781 C   0  0  0  0  0  0  0  0  0  0  0  0
   14.7006  -14.7037   19.1832 C   0  0  0  0  0  0  0  0  0  0  0  0
   15.2074  -15.8176   19.4346 O   0  0  0  0  0  0  0  0  0  0  0  0
   11.0206  -15.1640   19.8290 C   0  0  0  0  0  0  0  0  0  0  0  0
   10.3427  -14.2384   19.2789 O   0  0  0  0  0  0  0  0  0  0  0  0
   15.5687  -13.7682   18.5807 O   0  0  0  0  0  0  0  0  0  0  0  0
    7.9427  -16.7203   19.5517 C   0  0  0  0  0  0  0  0  0  0  0  0
    8.0922  -16.5594   21.0393 C   0  0  1  0  0  0  0  0  0  0  0  0
    8.4319  -17.7476   21.6683 O   0  0  0  0  0  0  0  0  0  0  0  0
    9.0780  -15.4642   21.3496 C   0  0  2  0  0  0  0  0  0  0  0  0
   10.4220  -15.8595   20.9118 N   0  0  0  0  0  0  0  0  0  0  0  0
    9.1020  -15.1138   22.7778 C   0  0  0  0  0  0  0  0  0  0  0  0
   10.1151  -15.4558   23.4708 O   0  0  0  0  0  0  0  0  0  0  0  0
    5.9734  -11.8440   26.9884 C   0  0  0  0  0  0  0  0  0  0  0  0
    7.1650  -12.7782   26.7146 C   0  0  2  0  0  0  0  0  0  0  0  0
    8.3739  -11.9556   27.1839 C   0  0  0  0  0  0  0  0  0  0  0  0
    7.1976  -13.0407   25.2479 C   0  0  0  0  0  0  0  0  0  0  0  0
    8.1342  -14.1402   24.8141 C   0  0  2  0  0  0  0  0  0  0  0  0
    8.0607  -14.4179   23.4144 N   0  0  0  0  0  0  0  0  0  0  0  0
    8.0187  -15.3865   25.5754 C   0  0  0  0  0  0  0  0  0  0  0  0
    7.1592  -16.2364   25.2257 O   0  0  0  0  0  0  0  0  0  0  0  0
    8.7926  -15.7244   26.6781 O   0  0  0  0  0  0  0  0  0  0  0  0
  2  1  1  6
  2  6  1  0
  3  2  1  0
  3  4  1  0
  4  5  2  0
  4  8  1  0
  6  7  2  0
 10  9  1  6
 10 12  1  0
 11 10  1  0
 12 14  1  0
 13  6  1  0
 12 13  1  1
 14 21  1  0
 15 14  2  0
 17 16  1  6
 17 18  1  0
 19 17  1  0
 20 19  1  1
 21 20  1  0
 22 20  1  0
 23 22  2  0
 24 22  1  0
M  END
$$$$
