FMK.pdb
     RDKit          3D

 29 29  0  0  1  0  0  0  0  0999 V2000
   27.1334  -22.0556  -15.1046 N   0  0  0  0  0  0  0  0  0  0  0  0
   26.4296  -20.8206  -14.9781 C   0  0  1  0  0  0  0  0  0  0  0  0
   26.2741  -20.0877  -16.2886 C   0  0  0  0  0  0  0  0  0  0  0  0
   26.7671  -18.7185  -16.1261 C   0  0  0  0  0  0  0  0  0  0  0  0
   28.0097  -18.3919  -16.6272 C   0  0  0  0  0  0  0  0  0  0  0  0
   28.4985  -17.1027  -16.4847 C   0  0  0  0  0  0  0  0  0  0  0  0
   27.7662  -16.1224  -15.8461 C   0  0  0  0  0  0  0  0  0  0  0  0
   26.5193  -16.4476  -15.3425 C   0  0  0  0  0  0  0  0  0  0  0  0
   26.0578  -17.7349  -15.4978 C   0  0  0  0  0  0  0  0  0  0  0  0
   25.0245  -21.0564  -14.4773 C   0  0  0  0  0  0  0  0  0  0  0  0
   24.3715  -22.0676  -14.8564 O   0  0  0  0  0  0  0  0  0  0  0  0
   20.8293  -20.6599   -7.9515 C   0  0  0  0  0  0  0  0  0  0  0  0
   22.3513  -20.2804   -8.8729 S   0  0  0  0  0  0  0  0  0  0  0  0
   22.0658  -20.5533  -10.6208 C   0  0  0  0  0  0  0  0  0  0  0  0
   23.2058  -20.3069  -11.5065 C   0  0  0  0  0  0  0  0  0  0  0  0
   23.0647  -20.4551  -12.9808 C   0  0  2  0  0  0  0  0  0  0  0  0
   24.4101  -20.1545  -13.5758 N   0  0  0  0  0  0  0  0  0  0  0  0
   22.0655  -19.6723  -13.6761 C   0  0  0  0  0  0  0  0  0  0  0  0
   21.8521  -18.4898  -13.2600 O   0  0  0  0  0  0  0  0  0  0  0  0
   21.2825  -20.0648  -14.7996 N   0  0  0  0  0  0  0  0  0  0  0  0
   19.8177  -20.1417  -14.6948 C   0  0  1  0  0  0  0  0  0  0  0  0
   19.3957  -21.5640  -15.0759 C   0  0  0  0  0  0  0  0  0  0  0  0
   17.8993  -21.6586  -15.0721 C   0  0  0  0  0  0  0  0  0  0  0  0
   17.4388  -23.0455  -15.5303 C   0  0  0  0  0  0  0  0  0  0  0  0
   15.9467  -23.1618  -15.5910 C   0  0  0  0  0  0  0  0  0  0  0  0
   15.4792  -24.4894  -15.9063 N   0  0  0  0  0  0  0  0  0  0  0  0
   19.3119  -19.7891  -13.3767 C   0  0  0  0  0  0  0  0  0  0  0  0
   19.3889  -20.5296  -12.3703 O   0  0  0  0  0  0  0  0  0  0  0  0
   18.6988  -18.5613  -13.1709 O   0  0  0  0  0  0  0  0  0  0  0  0
  2  1  1  6
  3  2  1  0
  3  4  1  0
  4  9  2  0
  4  5  1  0
  5  6  2  0
  6  7  1  0
  8  7  2  0
  9  8  1  0
 10  2  1  0
 11 10  2  0
 12 13  1  0
 13 14  1  0
 15 14  1  0
 16 15  1  1
 16 17  1  0
 17 10  1  0
 18 16  1  0
 18 20  1  0
 19 18  2  0
 21 20  1  0
 21 27  1  0
 21 22  1  1
 23 22  1  0
 24 23  1  0
 25 24  1  0
 26 25  1  0
 27 29  1  0
 28 27  2  0
M  END
$$$$
