FMK.pdb
     RDKit          3D

 29 29  0  0  1  0  0  0  0  0999 V2000
   28.1648  -18.9133  -15.8952 N   0  0  0  0  0  0  0  0  0  0  0  0
   27.4744  -18.6070  -14.6844 C   0  0  1  0  0  0  0  0  0  0  0  0
   26.1015  -18.0231  -14.9140 C   0  0  0  0  0  0  0  0  0  0  0  0
   26.2470  -16.6896  -15.5014 C   0  0  0  0  0  0  0  0  0  0  0  0
   26.7269  -15.6624  -14.7163 C   0  0  0  0  0  0  0  0  0  0  0  0
   26.8724  -14.3912  -15.2495 C   0  0  0  0  0  0  0  0  0  0  0  0
   26.5456  -14.1205  -16.5628 C   0  0  0  0  0  0  0  0  0  0  0  0
   26.0638  -15.1493  -17.3525 C   0  0  0  0  0  0  0  0  0  0  0  0
   25.9294  -16.4019  -16.7982 C   0  0  0  0  0  0  0  0  0  0  0  0
   27.2508  -19.8571  -13.8672 C   0  0  0  0  0  0  0  0  0  0  0  0
   27.2119  -20.9882  -14.4258 O   0  0  0  0  0  0  0  0  0  0  0  0
   26.4084  -19.5406   -7.2405 C   0  0  0  0  0  0  0  0  0  0  0  0
   27.3640  -21.0655   -7.5069 S   0  0  0  0  0  0  0  0  0  0  0  0
   27.0656  -21.6653   -9.1690 C   0  0  0  0  0  0  0  0  0  0  0  0
   27.2614  -20.6958  -10.2491 C   0  0  0  0  0  0  0  0  0  0  0  0
   26.8913  -21.0381  -11.6496 C   0  0  2  0  0  0  0  0  0  0  0  0
   27.0810  -19.7907  -12.4635 N   0  0  0  0  0  0  0  0  0  0  0  0
   25.5738  -21.5722  -11.9206 C   0  0  0  0  0  0  0  0  0  0  0  0
   25.2715  -22.6870  -11.3889 O   0  0  0  0  0  0  0  0  0  0  0  0
   24.5468  -20.9874  -12.7161 N   0  0  0  0  0  0  0  0  0  0  0  0
   23.2530  -21.6675  -12.8774 C   0  0  1  0  0  0  0  0  0  0  0  0
   22.1483  -20.6352  -12.6317 C   0  0  0  0  0  0  0  0  0  0  0  0
   20.8105  -21.2707  -12.8648 C   0  0  0  0  0  0  0  0  0  0  0  0
   19.6780  -20.2828  -12.5700 C   0  0  0  0  0  0  0  0  0  0  0  0
   18.3234  -20.8822  -12.7926 C   0  0  0  0  0  0  0  0  0  0  0  0
   17.2360  -19.9615  -12.5683 N   0  0  0  0  0  0  0  0  0  0  0  0
   23.0888  -22.2994  -14.1778 C   0  0  0  0  0  0  0  0  0  0  0  0
   23.7462  -21.9941  -15.1985 O   0  0  0  0  0  0  0  0  0  0  0  0
   22.1575  -23.3141  -14.3471 O   0  0  0  0  0  0  0  0  0  0  0  0
  2  1  1  6
  3  2  1  0
  3  4  1  0
  4  9  2  0
  4  5  1  0
  5  6  2  0
  6  7  1  0
  8  7  2  0
  9  8  1  0
 10  2  1  0
 11 10  2  0
 12 13  1  0
 13 14  1  0
 15 14  1  0
 16 15  1  1
 16 17  1  0
 17 10  1  0
 18 16  1  0
 18 20  1  0
 19 18  2  0
 21 20  1  0
 21 27  1  0
 21 22  1  6
 23 22  1  0
 24 23  1  0
 25 24  1  0
 26 25  1  0
 27 29  1  0
 28 27  2  0
M  END
$$$$
