FMK.pdb
     RDKit          3D

 29 29  0  0  1  0  0  0  0  0999 V2000
   19.1116  -26.2401  -13.5354 N   0  0  0  0  0  0  0  0  0  0  0  0
   18.6033  -25.0839  -12.8709 C   0  0  1  0  0  0  0  0  0  0  0  0
   17.1043  -24.9449  -12.9821 C   0  0  0  0  0  0  0  0  0  0  0  0
   16.7605  -24.6280  -14.3698 C   0  0  0  0  0  0  0  0  0  0  0  0
   16.3044  -25.6367  -15.1922 C   0  0  0  0  0  0  0  0  0  0  0  0
   15.9736  -25.3616  -16.5099 C   0  0  0  0  0  0  0  0  0  0  0  0
   16.0897  -24.0884  -17.0297 C   0  0  0  0  0  0  0  0  0  0  0  0
   16.5471  -23.0747  -16.2067 C   0  0  0  0  0  0  0  0  0  0  0  0
   16.8682  -23.3751  -14.9025 C   0  0  0  0  0  0  0  0  0  0  0  0
   18.8949  -25.1484  -11.3906 C   0  0  0  0  0  0  0  0  0  0  0  0
   19.3011  -26.2214  -10.8647 O   0  0  0  0  0  0  0  0  0  0  0  0
   21.6012  -20.4324   -7.6347 C   0  0  0  0  0  0  0  0  0  0  0  0
   20.3649  -20.0316   -8.9077 S   0  0  0  0  0  0  0  0  0  0  0  0
   19.3324  -21.4670   -9.1993 C   0  0  0  0  0  0  0  0  0  0  0  0
   19.9419  -22.7681   -8.9152 C   0  0  0  0  0  0  0  0  0  0  0  0
   19.1762  -24.0259   -9.1316 C   0  0  2  0  0  0  0  0  0  0  0  0
   18.7211  -24.0137  -10.5624 N   0  0  0  0  0  0  0  0  0  0  0  0
   18.0375  -24.3130   -8.2858 C   0  0  0  0  0  0  0  0  0  0  0  0
   17.0132  -23.5695   -8.4080 O   0  0  0  0  0  0  0  0  0  0  0  0
   17.9133  -25.3537   -7.3209 N   0  0  0  0  0  0  0  0  0  0  0  0
   16.9941  -25.2065   -6.1825 C   0  0  1  0  0  0  0  0  0  0  0  0
   17.8318  -25.2204   -4.9003 C   0  0  0  0  0  0  0  0  0  0  0  0
   17.9023  -26.6191   -4.3651 C   0  0  0  0  0  0  0  0  0  0  0  0
   18.7130  -26.6668   -3.0667 C   0  0  0  0  0  0  0  0  0  0  0  0
   18.6921  -28.0218   -2.4284 C   0  0  0  0  0  0  0  0  0  0  0  0
   19.4478  -28.0988   -1.2023 N   0  0  0  0  0  0  0  0  0  0  0  0
   16.1750  -24.0058   -6.2509 C   0  0  0  0  0  0  0  0  0  0  0  0
   16.5969  -22.8499   -6.0202 O   0  0  0  0  0  0  0  0  0  0  0  0
   14.8332  -24.0958   -6.5930 O   0  0  0  0  0  0  0  0  0  0  0  0
  2  1  1  6
  3  2  1  0
  3  4  1  0
  4  9  2  0
  4  5  1  0
  5  6  2  0
  6  7  1  0
  8  7  2  0
  9  8  1  0
 10  2  1  0
 11 10  2  0
 12 13  1  0
 13 14  1  0
 15 14  1  0
 16 15  1  1
 16 17  1  0
 17 10  1  0
 18 16  1  0
 18 20  1  0
 19 18  2  0
 21 20  1  0
 21 27  1  0
 21 22  1  1
 23 22  1  0
 24 23  1  0
 25 24  1  0
 26 25  1  0
 27 29  1  0
 28 27  2  0
M  END
$$$$
