FMK.pdb
     RDKit          3D

 29 29  0  0  1  0  0  0  0  0999 V2000
   21.7833   -9.1492  -13.7623 N   0  0  0  0  0  0  0  0  0  0  0  0
   20.8658   -8.3456  -14.5031 C   0  0  1  0  0  0  0  0  0  0  0  0
   19.4907   -8.9588  -14.6109 C   0  0  0  0  0  0  0  0  0  0  0  0
   19.5646  -10.1361  -15.4785 C   0  0  0  0  0  0  0  0  0  0  0  0
   19.5160   -9.9626  -16.8458 C   0  0  0  0  0  0  0  0  0  0  0  0
   19.5831  -11.0618  -17.6876 C   0  0  0  0  0  0  0  0  0  0  0  0
   19.6988  -12.3436  -17.1889 C   0  0  0  0  0  0  0  0  0  0  0  0
   19.7478  -12.5202  -15.8175 C   0  0  0  0  0  0  0  0  0  0  0  0
   19.6795  -11.4118  -15.0045 C   0  0  0  0  0  0  0  0  0  0  0  0
   20.6614   -7.0100  -13.8284 C   0  0  0  0  0  0  0  0  0  0  0  0
   20.6855   -6.9188  -12.5698 O   0  0  0  0  0  0  0  0  0  0  0  0
   21.5196    0.7460  -15.0289 C   0  0  0  0  0  0  0  0  0  0  0  0
   21.7632   -0.9732  -15.5717 S   0  0  0  0  0  0  0  0  0  0  0  0
   20.9006   -2.0732  -14.4504 C   0  0  0  0  0  0  0  0  0  0  0  0
   20.8919   -3.4910  -14.8174 C   0  0  0  0  0  0  0  0  0  0  0  0
   20.2777   -4.5026  -13.9149 C   0  0  2  0  0  0  0  0  0  0  0  0
   20.4396   -5.8356  -14.5867 N   0  0  0  0  0  0  0  0  0  0  0  0
   18.8940   -4.3480  -13.5200 C   0  0  0  0  0  0  0  0  0  0  0  0
   18.0626   -5.2122  -13.9433 O   0  0  0  0  0  0  0  0  0  0  0  0
   18.3364   -3.3340  -12.6890 N   0  0  0  0  0  0  0  0  0  0  0  0
   17.0357   -3.5405  -12.0348 C   0  0  1  0  0  0  0  0  0  0  0  0
   17.1691   -4.7458  -11.0990 C   0  0  0  0  0  0  0  0  0  0  0  0
   15.9014   -4.9125  -10.3160 C   0  0  0  0  0  0  0  0  0  0  0  0
   15.9696   -6.1563   -9.4250 C   0  0  0  0  0  0  0  0  0  0  0  0
   14.7416   -6.3259   -8.5842 C   0  0  0  0  0  0  0  0  0  0  0  0
   14.7196   -7.5539   -7.8280 N   0  0  0  0  0  0  0  0  0  0  0  0
   16.5610   -2.3729  -11.3079 C   0  0  0  0  0  0  0  0  0  0  0  0
   15.3733   -1.9773  -11.3068 O   0  0  0  0  0  0  0  0  0  0  0  0
   17.4440   -1.6175  -10.5493 O   0  0  0  0  0  0  0  0  0  0  0  0
  2  1  1  1
  3  2  1  0
  3  4  1  0
  4  9  2  0
  4  5  1  0
  5  6  2  0
  6  7  1  0
  8  7  2  0
  9  8  1  0
 10  2  1  0
 11 10  2  0
 12 13  1  0
 13 14  1  0
 15 14  1  0
 16 15  1  6
 16 17  1  0
 17 10  1  0
 18 16  1  0
 18 20  1  0
 19 18  2  0
 21 20  1  0
 21 27  1  0
 21 22  1  1
 23 22  1  0
 24 23  1  0
 25 24  1  0
 26 25  1  0
 27 29  1  0
 28 27  2  0
M  END
$$$$
