FMK.pdb
     RDKit          3D

 29 29  0  0  1  0  0  0  0  0999 V2000
   15.4099  -14.6934    5.2404 N   0  0  0  0  0  0  0  0  0  0  0  0
   16.3138  -15.7255    4.8478 C   0  0  1  0  0  0  0  0  0  0  0  0
   17.7489  -15.4287    5.2098 C   0  0  0  0  0  0  0  0  0  0  0  0
   18.2669  -14.4107    4.2935 C   0  0  0  0  0  0  0  0  0  0  0  0
   18.5204  -13.1440    4.7764 C   0  0  0  0  0  0  0  0  0  0  0  0
   19.0100  -12.1631    3.9282 C   0  0  0  0  0  0  0  0  0  0  0  0
   19.2542  -12.4219    2.5946 C   0  0  0  0  0  0  0  0  0  0  0  0
   19.0006  -13.6919    2.1078 C   0  0  0  0  0  0  0  0  0  0  0  0
   18.5151  -14.6471    2.9715 C   0  0  0  0  0  0  0  0  0  0  0  0
   15.9798  -17.0214    5.5476 C   0  0  0  0  0  0  0  0  0  0  0  0
   15.3389  -17.0147    6.6348 O   0  0  0  0  0  0  0  0  0  0  0  0
   16.3588  -22.4405    2.2648 C   0  0  0  0  0  0  0  0  0  0  0  0
   15.6558  -23.1992    3.7614 S   0  0  0  0  0  0  0  0  0  0  0  0
   15.6031  -21.9782    5.0720 C   0  0  0  0  0  0  0  0  0  0  0  0
   15.9870  -20.6150    4.6992 C   0  0  0  0  0  0  0  0  0  0  0  0
   16.0969  -19.5500    5.7331 C   0  0  2  0  0  0  0  0  0  0  0  0
   16.3748  -18.2672    5.0040 N   0  0  0  0  0  0  0  0  0  0  0  0
   17.0665  -19.6973    6.7974 C   0  0  0  0  0  0  0  0  0  0  0  0
   18.2452  -19.2720    6.5806 O   0  0  0  0  0  0  0  0  0  0  0  0
   16.8587  -20.2606    8.0893 N   0  0  0  0  0  0  0  0  0  0  0  0
   17.9717  -20.3589    9.0454 C   0  0  1  0  0  0  0  0  0  0  0  0
   17.7536  -19.2972   10.1276 C   0  0  0  0  0  0  0  0  0  0  0  0
   18.8104  -19.4349   11.1823 C   0  0  0  0  0  0  0  0  0  0  0  0
   18.6084  -18.4030   12.2957 C   0  0  0  0  0  0  0  0  0  0  0  0
   19.6751  -18.4768   13.3447 C   0  0  0  0  0  0  0  0  0  0  0  0
   19.5488  -17.4745   14.3742 N   0  0  0  0  0  0  0  0  0  0  0  0
   18.1104  -21.6801    9.6391 C   0  0  0  0  0  0  0  0  0  0  0  0
   19.1158  -22.0643   10.2784 O   0  0  0  0  0  0  0  0  0  0  0  0
   17.0868  -22.6094    9.5187 O   0  0  0  0  0  0  0  0  0  0  0  0
  2  1  1  1
  3  2  1  0
  3  4  1  0
  4  9  2  0
  4  5  1  0
  5  6  2  0
  6  7  1  0
  8  7  2  0
  9  8  1  0
 10  2  1  0
 11 10  2  0
 12 13  1  0
 13 14  1  0
 15 14  1  0
 16 15  1  6
 16 17  1  0
 17 10  1  0
 18 16  1  0
 18 20  1  0
 19 18  2  0
 21 20  1  0
 21 27  1  0
 21 22  1  1
 23 22  1  0
 24 23  1  0
 25 24  1  0
 26 25  1  0
 27 29  1  0
 28 27  2  0
M  END
$$$$
