FMK.pdb
     RDKit          3D

 29 29  0  0  1  0  0  0  0  0999 V2000
   23.0374  -26.9111  -17.5217 N   0  0  0  0  0  0  0  0  0  0  0  0
   22.8134  -28.3085  -17.7050 C   0  0  1  0  0  0  0  0  0  0  0  0
   24.0889  -29.1145  -17.7499 C   0  0  0  0  0  0  0  0  0  0  0  0
   24.8320  -28.7568  -18.9599 C   0  0  0  0  0  0  0  0  0  0  0  0
   24.6650  -29.5198  -20.0965 C   0  0  0  0  0  0  0  0  0  0  0  0
   25.3583  -29.2017  -21.2539 C   0  0  0  0  0  0  0  0  0  0  0  0
   26.2237  -28.1275  -21.3016 C   0  0  0  0  0  0  0  0  0  0  0  0
   26.3929  -27.3606  -20.1626 C   0  0  0  0  0  0  0  0  0  0  0  0
   25.6923  -27.6982  -19.0272 C   0  0  0  0  0  0  0  0  0  0  0  0
   22.0164  -28.8762  -16.5548 C   0  0  0  0  0  0  0  0  0  0  0  0
   21.8708  -28.2153  -15.4895 O   0  0  0  0  0  0  0  0  0  0  0  0
   18.2611  -26.8500  -14.3993 C   0  0  0  0  0  0  0  0  0  0  0  0
   17.6088  -28.4195  -13.7505 S   0  0  0  0  0  0  0  0  0  0  0  0
   18.1163  -29.7588  -14.8275 C   0  0  0  0  0  0  0  0  0  0  0  0
   19.3533  -29.5460  -15.5822 C   0  0  0  0  0  0  0  0  0  0  0  0
   20.4003  -30.6026  -15.6328 C   0  0  2  0  0  0  0  0  0  0  0  0
   21.4167  -30.1554  -16.6434 N   0  0  0  0  0  0  0  0  0  0  0  0
   20.0144  -31.9643  -15.9354 C   0  0  0  0  0  0  0  0  0  0  0  0
   19.6956  -32.2308  -17.1372 O   0  0  0  0  0  0  0  0  0  0  0  0
   19.9569  -33.0699  -15.0388 N   0  0  0  0  0  0  0  0  0  0  0  0
   19.4887  -34.3830  -15.5067 C   0  0  1  0  0  0  0  0  0  0  0  0
   19.8094  -35.4096  -14.4160 C   0  0  0  0  0  0  0  0  0  0  0  0
   19.4585  -36.7830  -14.9044 C   0  0  0  0  0  0  0  0  0  0  0  0
   19.9250  -37.8514  -13.9113 C   0  0  0  0  0  0  0  0  0  0  0  0
   19.7256  -39.2420  -14.4312 C   0  0  0  0  0  0  0  0  0  0  0  0
   20.2359  -40.2688  -13.5562 N   0  0  0  0  0  0  0  0  0  0  0  0
   18.0723  -34.4084  -15.8389 C   0  0  0  0  0  0  0  0  0  0  0  0
   17.1746  -33.8840  -15.1415 O   0  0  0  0  0  0  0  0  0  0  0  0
   17.6389  -35.0404  -16.9958 O   0  0  0  0  0  0  0  0  0  0  0  0
  2  1  1  1
  3  2  1  0
  3  4  1  0
  4  9  2  0
  4  5  1  0
  5  6  2  0
  6  7  1  0
  8  7  2  0
  9  8  1  0
 10  2  1  0
 11 10  2  0
 12 13  1  0
 13 14  1  0
 15 14  1  0
 16 15  1  6
 16 17  1  0
 17 10  1  0
 18 16  1  0
 18 20  1  0
 19 18  2  0
 21 20  1  0
 21 27  1  0
 21 22  1  1
 23 22  1  0
 24 23  1  0
 25 24  1  0
 26 25  1  0
 27 29  1  0
 28 27  2  0
M  END
$$$$
