FMK.pdb
     RDKit          3D

 29 29  0  0  1  0  0  0  0  0999 V2000
   24.2215  -19.2574  -17.8543 N   0  0  0  0  0  0  0  0  0  0  0  0
   23.4720  -18.8114  -16.7248 C   0  0  1  0  0  0  0  0  0  0  0  0
   22.1262  -18.2358  -17.0938 C   0  0  0  0  0  0  0  0  0  0  0  0
   22.3315  -16.9779  -17.8148 C   0  0  0  0  0  0  0  0  0  0  0  0
   22.1678  -16.9583  -19.1841 C   0  0  0  0  0  0  0  0  0  0  0  0
   22.3577  -15.7799  -19.8889 C   0  0  0  0  0  0  0  0  0  0  0  0
   22.7113  -14.6088  -19.2499 C   0  0  0  0  0  0  0  0  0  0  0  0
   22.8762  -14.6259  -17.8763 C   0  0  0  0  0  0  0  0  0  0  0  0
   22.6812  -15.8091  -17.2010 C   0  0  0  0  0  0  0  0  0  0  0  0
   23.1778  -19.9620  -15.7919 C   0  0  0  0  0  0  0  0  0  0  0  0
   22.9557  -21.1166  -16.2505 O   0  0  0  0  0  0  0  0  0  0  0  0
   25.7840  -19.7567  -10.1267 C   0  0  0  0  0  0  0  0  0  0  0  0
   24.5838  -21.0265   -9.6201 S   0  0  0  0  0  0  0  0  0  0  0  0
   23.5688  -21.4733  -11.0278 C   0  0  0  0  0  0  0  0  0  0  0  0
   23.6686  -20.5986  -12.1982 C   0  0  0  0  0  0  0  0  0  0  0  0
   22.9550  -20.9378  -13.4595 C   0  0  2  0  0  0  0  0  0  0  0  0
   23.1448  -19.7742  -14.3894 N   0  0  0  0  0  0  0  0  0  0  0  0
   21.5459  -21.2637  -13.4071 C   0  0  0  0  0  0  0  0  0  0  0  0
   20.7226  -20.2980  -13.3255 O   0  0  0  0  0  0  0  0  0  0  0  0
   20.9521  -22.5580  -13.4481 N   0  0  0  0  0  0  0  0  0  0  0  0
   19.4925  -22.7099  -13.3539 C   0  0  1  0  0  0  0  0  0  0  0  0
   19.1266  -24.0801  -13.9325 C   0  0  0  0  0  0  0  0  0  0  0  0
   17.6353  -24.1964  -14.0354 C   0  0  0  0  0  0  0  0  0  0  0  0
   17.2252  -25.6140  -14.4450 C   0  0  0  0  0  0  0  0  0  0  0  0
   15.7720  -25.7106  -14.7952 C   0  0  0  0  0  0  0  0  0  0  0  0
   15.3951  -26.9793  -15.3685 N   0  0  0  0  0  0  0  0  0  0  0  0
   18.9816  -22.5688  -11.9988 C   0  0  0  0  0  0  0  0  0  0  0  0
   17.8469  -22.1224  -11.7155 O   0  0  0  0  0  0  0  0  0  0  0  0
   19.7649  -22.9431  -10.9161 O   0  0  0  0  0  0  0  0  0  0  0  0
  2  1  1  6
  3  2  1  0
  3  4  1  0
  4  9  2  0
  4  5  1  0
  5  6  2  0
  6  7  1  0
  8  7  2  0
  9  8  1  0
 10  2  1  0
 11 10  2  0
 12 13  1  0
 13 14  1  0
 15 14  1  0
 16 15  1  1
 16 17  1  0
 17 10  1  0
 18 16  1  0
 18 20  1  0
 19 18  2  0
 21 20  1  0
 21 27  1  0
 21 22  1  1
 23 22  1  0
 24 23  1  0
 25 24  1  0
 26 25  1  0
 27 29  1  0
 28 27  2  0
M  END
$$$$
