EAY.pdb
     RDKit          3D

 27 27  0  0  1  0  0  0  0  0999 V2000
   29.4893  -33.5165  -16.9136 N   0  0  0  0  0  0  0  0  0  0  0  0
   29.0772  -32.2968  -16.2430 C   0  0  1  0  0  0  0  0  0  0  0  0
   29.2285  -31.0913  -17.0821 C   0  0  0  0  0  0  0  0  0  0  0  0
   28.1845  -30.8674  -18.1139 C   0  0  0  0  0  0  0  0  0  0  0  0
   28.5343  -29.6209  -18.8725 C   0  0  0  0  0  0  0  0  0  0  0  0
   29.7301  -29.3451  -19.1371 O   0  0  0  0  0  0  0  0  0  0  0  0
   27.7441  -32.5245  -15.6541 C   0  0  0  0  0  0  0  0  0  0  0  0
   27.2754  -31.6945  -14.8012 O   0  0  0  0  0  0  0  0  0  0  0  0
   27.5644  -28.7344  -19.3066 O   0  0  0  0  0  0  0  0  0  0  0  0
   24.7962  -34.9160  -15.9115 C   0  0  0  0  0  0  0  0  0  0  0  0
   25.6043  -33.8168  -15.3102 C   0  0  2  0  0  0  0  0  0  0  0  0
   26.8902  -33.6199  -15.9480 N   0  0  0  0  0  0  0  0  0  0  0  0
   25.7734  -33.9823  -13.8226 C   0  0  0  0  0  0  0  0  0  0  0  0
   26.8649  -34.4090  -13.3471 O   0  0  0  0  0  0  0  0  0  0  0  0
   26.1614  -32.9863   -5.2972 O   0  0  0  0  0  0  0  0  0  0  0  0
   26.0739  -32.9215   -6.6978 C   0  0  0  0  0  0  0  0  0  0  0  0
   26.8901  -33.7167   -7.4798 C   0  0  0  0  0  0  0  0  0  0  0  0
   26.7971  -33.6463   -8.8568 C   0  0  0  0  0  0  0  0  0  0  0  0
   25.9027  -32.7952   -9.4678 C   0  0  0  0  0  0  0  0  0  0  0  0
   25.8134  -32.7093  -10.9397 C   0  0  0  0  0  0  0  0  0  0  0  0
   24.9117  -33.7730  -11.4514 C   0  0  2  0  0  0  0  0  0  0  0  0
   24.7383  -33.6733  -12.9133 N   0  0  0  0  0  0  0  0  0  0  0  0
   23.6128  -33.9020  -10.7784 C   0  0  0  0  0  0  0  0  0  0  0  0
   23.4644  -34.9625   -9.8567 O   0  0  0  0  0  0  0  0  0  0  0  0
   25.0982  -32.0113   -8.6868 C   0  0  0  0  0  0  0  0  0  0  0  0
   25.1871  -32.0780   -7.3242 C   0  0  0  0  0  0  0  0  0  0  0  0
   22.6267  -33.1770  -10.9322 O   0  0  0  0  0  0  0  0  0  0  0  0
  2  1  1  6
  2  3  1  0
  4  3  1  0
  5  4  1  0
  6  5  2  0
  7  2  1  0
  8  7  2  0
  9  5  1  0
 11 10  1  6
 11 12  1  0
 12  7  1  0
 13 11  1  0
 13 22  1  0
 14 13  2  0
 15 16  1  0
 16 17  2  0
 17 18  1  0
 19 18  2  0
 19 20  1  0
 21 20  1  1
 21 22  1  0
 21 23  1  0
 23 24  1  0
 25 19  1  0
 26 16  1  0
 26 25  2  0
 27 23  2  0
M  END
$$$$
