EAY.pdb
     RDKit          3D

 27 27  0  0  1  0  0  0  0  0999 V2000
   17.9106  -12.1565  -18.2818 N   0  0  0  0  0  0  0  0  0  0  0  0
   18.8489  -12.1650  -17.1743 C   0  0  1  0  0  0  0  0  0  0  0  0
   20.1648  -12.7325  -17.5303 C   0  0  0  0  0  0  0  0  0  0  0  0
   20.8897  -12.0740  -18.6464 C   0  0  0  0  0  0  0  0  0  0  0  0
   22.1959  -12.7862  -18.8423 C   0  0  0  0  0  0  0  0  0  0  0  0
   22.4089  -13.4626  -19.8783 O   0  0  0  0  0  0  0  0  0  0  0  0
   18.8554  -10.8206  -16.5676 C   0  0  0  0  0  0  0  0  0  0  0  0
   19.0271   -9.7904  -17.3060 O   0  0  0  0  0  0  0  0  0  0  0  0
   23.2077  -12.7275  -17.9001 O   0  0  0  0  0  0  0  0  0  0  0  0
   18.2284   -9.1122  -13.2320 C   0  0  0  0  0  0  0  0  0  0  0  0
   18.7068   -9.1973  -14.6414 C   0  0  2  0  0  0  0  0  0  0  0  0
   18.6851  -10.5395  -15.1864 N   0  0  0  0  0  0  0  0  0  0  0  0
   20.0683   -8.5780  -14.8192 C   0  0  0  0  0  0  0  0  0  0  0  0
   21.1027   -9.3052  -14.8454 O   0  0  0  0  0  0  0  0  0  0  0  0
   26.5792   -3.2691  -17.1767 O   0  0  0  0  0  0  0  0  0  0  0  0
   25.4005   -4.0192  -17.0288 C   0  0  0  0  0  0  0  0  0  0  0  0
   25.4587   -5.3995  -16.9905 C   0  0  0  0  0  0  0  0  0  0  0  0
   24.2942   -6.1290  -16.8448 C   0  0  0  0  0  0  0  0  0  0  0  0
   23.0710   -5.5044  -16.7365 C   0  0  0  0  0  0  0  0  0  0  0  0
   21.8248   -6.2846  -16.5954 C   0  0  0  0  0  0  0  0  0  0  0  0
   21.5690   -6.5677  -15.1598 C   0  0  2  0  0  0  0  0  0  0  0  0
   20.2431   -7.1840  -14.9615 N   0  0  0  0  0  0  0  0  0  0  0  0
   21.7688   -5.4473  -14.2317 C   0  0  0  0  0  0  0  0  0  0  0  0
   20.6167   -4.7554  -13.7955 O   0  0  0  0  0  0  0  0  0  0  0  0
   23.0218   -4.1379  -16.7754 C   0  0  0  0  0  0  0  0  0  0  0  0
   24.1716   -3.4124  -16.9194 C   0  0  0  0  0  0  0  0  0  0  0  0
   22.8450   -5.0405  -13.7868 O   0  0  0  0  0  0  0  0  0  0  0  0
  2  1  1  6
  2  3  1  0
  4  3  1  0
  5  4  1  0
  6  5  2  0
  7  2  1  0
  8  7  2  0
  9  5  1  0
 11 10  1  1
 11 12  1  0
 12  7  1  0
 13 11  1  0
 13 22  1  0
 14 13  2  0
 15 16  1  0
 16 17  2  0
 17 18  1  0
 19 18  2  0
 19 20  1  0
 21 20  1  6
 21 22  1  0
 21 23  1  0
 23 24  1  0
 25 19  1  0
 26 16  1  0
 26 25  2  0
 27 23  2  0
M  END
$$$$
