EAY.pdb
     RDKit          3D

 27 27  0  0  1  0  0  0  0  0999 V2000
   17.3160  -10.7805  -15.1795 N   0  0  0  0  0  0  0  0  0  0  0  0
   18.7199  -10.7099  -15.5414 C   0  0  1  0  0  0  0  0  0  0  0  0
   19.1267  -11.7542  -16.5029 C   0  0  0  0  0  0  0  0  0  0  0  0
   18.8926  -13.1612  -16.0906 C   0  0  0  0  0  0  0  0  0  0  0  0
   17.4626  -13.5055  -16.3880 C   0  0  0  0  0  0  0  0  0  0  0  0
   16.8551  -14.3673  -15.7068 O   0  0  0  0  0  0  0  0  0  0  0  0
   19.0284   -9.3167  -15.9148 C   0  0  0  0  0  0  0  0  0  0  0  0
   20.2466   -8.9424  -16.0243 O   0  0  0  0  0  0  0  0  0  0  0  0
   16.7629  -12.8942  -17.4136 O   0  0  0  0  0  0  0  0  0  0  0  0
   17.3002   -6.1008  -16.9667 C   0  0  0  0  0  0  0  0  0  0  0  0
   18.4260   -6.9228  -16.4381 C   0  0  2  0  0  0  0  0  0  0  0  0
   18.0698   -8.3023  -16.1750 N   0  0  0  0  0  0  0  0  0  0  0  0
   19.0630   -6.3018  -15.2225 C   0  0  0  0  0  0  0  0  0  0  0  0
   18.4952   -6.3764  -14.0950 O   0  0  0  0  0  0  0  0  0  0  0  0
   25.8328   -7.2828  -17.4595 O   0  0  0  0  0  0  0  0  0  0  0  0
   24.8710   -6.9571  -16.4886 C   0  0  0  0  0  0  0  0  0  0  0  0
   24.7444   -5.6525  -16.0502 C   0  0  0  0  0  0  0  0  0  0  0  0
   23.7956   -5.3414  -15.0949 C   0  0  0  0  0  0  0  0  0  0  0  0
   22.9698   -6.3106  -14.5689 C   0  0  0  0  0  0  0  0  0  0  0  0
   21.9655   -5.9807  -13.5372 C   0  0  0  0  0  0  0  0  0  0  0  0
   20.9547   -5.0489  -14.0997 C   0  0  2  0  0  0  0  0  0  0  0  0
   20.2990   -5.6223  -15.2906 N   0  0  0  0  0  0  0  0  0  0  0  0
   21.4112   -3.6782  -14.3633 C   0  0  0  0  0  0  0  0  0  0  0  0
   21.2262   -3.1751  -15.6706 O   0  0  0  0  0  0  0  0  0  0  0  0
   23.1014   -7.5995  -15.0080 C   0  0  0  0  0  0  0  0  0  0  0  0
   24.0388   -7.9114  -15.9529 C   0  0  0  0  0  0  0  0  0  0  0  0
   21.9444   -2.9102  -13.5585 O   0  0  0  0  0  0  0  0  0  0  0  0
  2  1  1  6
  2  3  1  0
  4  3  1  0
  5  4  1  0
  6  5  2  0
  7  2  1  0
  8  7  2  0
  9  5  1  0
 11 10  1  1
 11 12  1  0
 12  7  1  0
 13 11  1  0
 13 22  1  0
 14 13  2  0
 15 16  1  0
 16 17  2  0
 17 18  1  0
 19 18  2  0
 19 20  1  0
 21 20  1  6
 21 22  1  0
 21 23  1  0
 23 24  1  0
 25 19  1  0
 26 16  1  0
 26 25  2  0
 27 23  2  0
M  END
$$$$
