EAY.pdb
     RDKit          3D

 27 27  0  0  1  0  0  0  0  0999 V2000
   23.8584  -15.9186  -16.8094 N   0  0  0  0  0  0  0  0  0  0  0  0
   23.9685  -14.7156  -17.6142 C   0  0  1  0  0  0  0  0  0  0  0  0
   22.9377  -14.6232  -18.6675 C   0  0  0  0  0  0  0  0  0  0  0  0
   21.8910  -15.6762  -18.6637 C   0  0  0  0  0  0  0  0  0  0  0  0
   20.6596  -15.1113  -18.0185 C   0  0  0  0  0  0  0  0  0  0  0  0
   20.4830  -13.8703  -17.9496 O   0  0  0  0  0  0  0  0  0  0  0  0
   24.0815  -13.5618  -16.7023 C   0  0  0  0  0  0  0  0  0  0  0  0
   23.2025  -13.3835  -15.7903 O   0  0  0  0  0  0  0  0  0  0  0  0
   19.6793  -15.9256  -17.4790 O   0  0  0  0  0  0  0  0  0  0  0  0
   26.4905  -10.8254  -15.7015 C   0  0  0  0  0  0  0  0  0  0  0  0
   25.1373  -11.4313  -15.8576 C   0  0  2  0  0  0  0  0  0  0  0  0
   25.1101  -12.5838  -16.7350 N   0  0  0  0  0  0  0  0  0  0  0  0
   24.1058  -10.4196  -16.2839 C   0  0  0  0  0  0  0  0  0  0  0  0
   23.7433  -10.3475  -17.4934 O   0  0  0  0  0  0  0  0  0  0  0  0
   17.3147   -5.5466  -17.8744 O   0  0  0  0  0  0  0  0  0  0  0  0
   18.3124   -6.4683  -17.5156 C   0  0  0  0  0  0  0  0  0  0  0  0
   19.3321   -6.7640  -18.4005 C   0  0  0  0  0  0  0  0  0  0  0  0
   20.3092   -7.6718  -18.0390 C   0  0  0  0  0  0  0  0  0  0  0  0
   20.2865   -8.2906  -16.8083 C   0  0  0  0  0  0  0  0  0  0  0  0
   21.3228   -9.2719  -16.4276 C   0  0  0  0  0  0  0  0  0  0  0  0
   22.4520   -8.5763  -15.7587 C   0  0  2  0  0  0  0  0  0  0  0  0
   23.5115   -9.5255  -15.3668 N   0  0  0  0  0  0  0  0  0  0  0  0
   22.0991   -7.6949  -14.6383 C   0  0  0  0  0  0  0  0  0  0  0  0
   21.8036   -6.3474  -14.9437 O   0  0  0  0  0  0  0  0  0  0  0  0
   19.2739   -7.9927  -15.9381 C   0  0  0  0  0  0  0  0  0  0  0  0
   18.3053   -7.0951  -16.2919 C   0  0  0  0  0  0  0  0  0  0  0  0
   22.0320   -8.0068  -13.4467 O   0  0  0  0  0  0  0  0  0  0  0  0
  2  1  1  1
  2  3  1  0
  4  3  1  0
  5  4  1  0
  6  5  2  0
  7  2  1  0
  8  7  2  0
  9  5  1  0
 11 10  1  6
 11 12  1  0
 12  7  1  0
 13 11  1  0
 13 22  1  0
 14 13  2  0
 15 16  1  0
 16 17  2  0
 17 18  1  0
 19 18  2  0
 19 20  1  0
 21 20  1  1
 21 22  1  0
 21 23  1  0
 23 24  1  0
 25 19  1  0
 26 16  1  0
 26 25  2  0
 27 23  2  0
M  END
$$$$
