EAY.pdb
     RDKit          3D

 27 27  0  0  1  0  0  0  0  0999 V2000
   18.8343  -12.5657  -17.0744 N   0  0  0  0  0  0  0  0  0  0  0  0
   19.5974  -11.4615  -17.6271 C   0  0  1  0  0  0  0  0  0  0  0  0
   18.8525  -10.6889  -18.6414 C   0  0  0  0  0  0  0  0  0  0  0  0
   18.5797  -11.3765  -19.9287 C   0  0  0  0  0  0  0  0  0  0  0  0
   19.8863  -11.5806  -20.6377 C   0  0  0  0  0  0  0  0  0  0  0  0
   20.4904  -10.6125  -21.1611 O   0  0  0  0  0  0  0  0  0  0  0  0
   20.1710  -10.6931  -16.5063 C   0  0  0  0  0  0  0  0  0  0  0  0
   19.4064  -10.2511  -15.5810 O   0  0  0  0  0  0  0  0  0  0  0  0
   20.4725  -12.8298  -20.7426 O   0  0  0  0  0  0  0  0  0  0  0  0
   23.4616   -9.8342  -14.8935 C   0  0  0  0  0  0  0  0  0  0  0  0
   22.0460   -9.5491  -15.2642 C   0  0  2  0  0  0  0  0  0  0  0  0
   21.5454  -10.3776  -16.3421 N   0  0  0  0  0  0  0  0  0  0  0  0
   21.8198   -8.0917  -15.5706 C   0  0  0  0  0  0  0  0  0  0  0  0
   22.0785   -7.6329  -16.7204 O   0  0  0  0  0  0  0  0  0  0  0  0
   17.1382   -7.1069  -19.4694 O   0  0  0  0  0  0  0  0  0  0  0  0
   17.8057   -6.6558  -18.3185 C   0  0  0  0  0  0  0  0  0  0  0  0
   17.5895   -7.2789  -17.1039 C   0  0  0  0  0  0  0  0  0  0  0  0
   18.2505   -6.8283  -15.9771 C   0  0  0  0  0  0  0  0  0  0  0  0
   19.1245   -5.7654  -16.0413 C   0  0  0  0  0  0  0  0  0  0  0  0
   19.8199   -5.2744  -14.8341 C   0  0  0  0  0  0  0  0  0  0  0  0
   21.2305   -5.7398  -14.8425 C   0  0  2  0  0  0  0  0  0  0  0  0
   21.3184   -7.1932  -14.6037 N   0  0  0  0  0  0  0  0  0  0  0  0
   22.1601   -5.0096  -13.9711 C   0  0  0  0  0  0  0  0  0  0  0  0
   22.2988   -3.6211  -14.1926 O   0  0  0  0  0  0  0  0  0  0  0  0
   19.3331   -5.1539  -17.2471 C   0  0  0  0  0  0  0  0  0  0  0  0
   18.6811   -5.5966  -18.3642 C   0  0  0  0  0  0  0  0  0  0  0  0
   22.8402   -5.4822  -13.0569 O   0  0  0  0  0  0  0  0  0  0  0  0
  2  1  1  1
  2  3  1  0
  4  3  1  0
  5  4  1  0
  6  5  2  0
  7  2  1  0
  8  7  2  0
  9  5  1  0
 11 10  1  6
 11 12  1  0
 12  7  1  0
 13 11  1  0
 13 22  1  0
 14 13  2  0
 15 16  1  0
 16 17  2  0
 17 18  1  0
 19 18  2  0
 19 20  1  0
 21 20  1  1
 21 22  1  0
 21 23  1  0
 23 24  1  0
 25 19  1  0
 26 16  1  0
 26 25  2  0
 27 23  2  0
M  END
$$$$
