EAY.pdb
     RDKit          3D

 27 27  0  0  1  0  0  0  0  0999 V2000
   20.0568  -16.4861  -15.4376 N   0  0  0  0  0  0  0  0  0  0  0  0
   20.6604  -15.5338  -16.3520 C   0  0  1  0  0  0  0  0  0  0  0  0
   19.7387  -15.0803  -17.4127 C   0  0  0  0  0  0  0  0  0  0  0  0
   19.2178  -16.1262  -18.3289 C   0  0  0  0  0  0  0  0  0  0  0  0
   18.3537  -15.4596  -19.3588 C   0  0  0  0  0  0  0  0  0  0  0  0
   18.8647  -14.8906  -20.3543 O   0  0  0  0  0  0  0  0  0  0  0  0
   21.3121  -14.4793  -15.5525 C   0  0  0  0  0  0  0  0  0  0  0  0
   20.6166  -13.7721  -14.7450 O   0  0  0  0  0  0  0  0  0  0  0  0
   16.9738  -15.4448  -19.2547 O   0  0  0  0  0  0  0  0  0  0  0  0
   24.7395  -12.9739  -14.8908 C   0  0  0  0  0  0  0  0  0  0  0  0
   23.2495  -12.9831  -14.9403 C   0  0  2  0  0  0  0  0  0  0  0  0
   22.6931  -14.1524  -15.5900 N   0  0  0  0  0  0  0  0  0  0  0  0
   22.6920  -11.7246  -15.5521 C   0  0  0  0  0  0  0  0  0  0  0  0
   22.4320  -11.6761  -16.7888 O   0  0  0  0  0  0  0  0  0  0  0  0
   18.1389   -4.9476  -17.9726 O   0  0  0  0  0  0  0  0  0  0  0  0
   18.7243   -6.1281  -17.4855 C   0  0  0  0  0  0  0  0  0  0  0  0
   18.2588   -6.7004  -16.3168 C   0  0  0  0  0  0  0  0  0  0  0  0
   18.8407   -7.8617  -15.8451 C   0  0  0  0  0  0  0  0  0  0  0  0
   19.8805   -8.4625  -16.5203 C   0  0  0  0  0  0  0  0  0  0  0  0
   20.5122   -9.6957  -16.0084 C   0  0  0  0  0  0  0  0  0  0  0  0
   21.8010   -9.3637  -15.3488 C   0  0  2  0  0  0  0  0  0  0  0  0
   22.4411  -10.5670  -14.7835 N   0  0  0  0  0  0  0  0  0  0  0  0
   21.7635   -8.2782  -14.3603 C   0  0  0  0  0  0  0  0  0  0  0  0
   22.0416   -6.9725  -14.8229 O   0  0  0  0  0  0  0  0  0  0  0  0
   20.3357   -7.8898  -17.6762 C   0  0  0  0  0  0  0  0  0  0  0  0
   19.7626   -6.7410  -18.1462 C   0  0  0  0  0  0  0  0  0  0  0  0
   21.5127   -8.3840  -13.1572 O   0  0  0  0  0  0  0  0  0  0  0  0
  2  1  1  1
  2  3  1  0
  4  3  1  0
  5  4  1  0
  6  5  2  0
  7  2  1  0
  8  7  2  0
  9  5  1  0
 11 10  1  6
 11 12  1  0
 12  7  1  0
 13 11  1  0
 13 22  1  0
 14 13  2  0
 15 16  1  0
 16 17  2  0
 17 18  1  0
 19 18  2  0
 19 20  1  0
 21 20  1  1
 21 22  1  0
 21 23  1  0
 23 24  1  0
 25 19  1  0
 26 16  1  0
 26 25  2  0
 27 23  2  0
M  END
$$$$
