EAY.pdb
     RDKit          3D

 27 27  0  0  1  0  0  0  0  0999 V2000
   18.9043  -11.3123  -16.2946 N   0  0  0  0  0  0  0  0  0  0  0  0
   19.9064  -10.2919  -16.5425 C   0  0  1  0  0  0  0  0  0  0  0  0
   20.4000  -10.2863  -17.9342 C   0  0  0  0  0  0  0  0  0  0  0  0
   19.3938  -10.5468  -18.9946 C   0  0  0  0  0  0  0  0  0  0  0  0
   19.5412   -9.4912  -20.0508 C   0  0  0  0  0  0  0  0  0  0  0  0
   20.6223   -9.3535  -20.6740 O   0  0  0  0  0  0  0  0  0  0  0  0
   19.3952   -9.0101  -16.0215 C   0  0  0  0  0  0  0  0  0  0  0  0
   19.5432   -7.9405  -16.7071 O   0  0  0  0  0  0  0  0  0  0  0  0
   18.5036   -8.6358  -20.3775 O   0  0  0  0  0  0  0  0  0  0  0  0
   17.0569   -7.6038  -13.4532 C   0  0  0  0  0  0  0  0  0  0  0  0
   18.2853   -7.5415  -14.2957 C   0  0  2  0  0  0  0  0  0  0  0  0
   18.7278   -8.8328  -14.7810 N   0  0  0  0  0  0  0  0  0  0  0  0
   19.4144   -6.8229  -13.6043 C   0  0  0  0  0  0  0  0  0  0  0  0
   20.1181   -7.4207  -12.7401 O   0  0  0  0  0  0  0  0  0  0  0  0
   23.8035   -5.0416  -18.9189 O   0  0  0  0  0  0  0  0  0  0  0  0
   23.3897   -5.1685  -17.5823 C   0  0  0  0  0  0  0  0  0  0  0  0
   23.6667   -4.1646  -16.6737 C   0  0  0  0  0  0  0  0  0  0  0  0
   23.2558   -4.2981  -15.3611 C   0  0  0  0  0  0  0  0  0  0  0  0
   22.5724   -5.4173  -14.9388 C   0  0  0  0  0  0  0  0  0  0  0  0
   22.1459   -5.5665  -13.5325 C   0  0  0  0  0  0  0  0  0  0  0  0
   20.8983   -4.7944  -13.3011 C   0  0  2  0  0  0  0  0  0  0  0  0
   19.7281   -5.4756  -13.8873 N   0  0  0  0  0  0  0  0  0  0  0  0
   20.9291   -3.3790  -13.6915 C   0  0  0  0  0  0  0  0  0  0  0  0
   21.8733   -2.5502  -13.0452 O   0  0  0  0  0  0  0  0  0  0  0  0
   22.3020   -6.4065  -15.8442 C   0  0  0  0  0  0  0  0  0  0  0  0
   22.7068   -6.2783  -17.1437 C   0  0  0  0  0  0  0  0  0  0  0  0
   20.2122   -2.8294  -14.5316 O   0  0  0  0  0  0  0  0  0  0  0  0
  2  1  1  6
  2  3  1  0
  4  3  1  0
  5  4  1  0
  6  5  2  0
  7  2  1  0
  8  7  2  0
  9  5  1  0
 11 10  1  1
 11 12  1  0
 12  7  1  0
 13 11  1  0
 13 22  1  0
 14 13  2  0
 15 16  1  0
 16 17  2  0
 17 18  1  0
 19 18  2  0
 19 20  1  0
 21 20  1  6
 21 22  1  0
 21 23  1  0
 23 24  1  0
 25 19  1  0
 26 16  1  0
 26 25  2  0
 27 23  2  0
M  END
$$$$
