EAY.pdb
     RDKit          3D

 27 27  0  0  1  0  0  0  0  0999 V2000
   18.2010  -13.3753  -15.6112 N   0  0  0  0  0  0  0  0  0  0  0  0
   18.3382  -12.1833  -16.4282 C   0  0  1  0  0  0  0  0  0  0  0  0
   17.0702  -11.4464  -16.6006 C   0  0  0  0  0  0  0  0  0  0  0  0
   16.0095  -12.1282  -17.3845 C   0  0  0  0  0  0  0  0  0  0  0  0
   14.8172  -11.2194  -17.4501 C   0  0  0  0  0  0  0  0  0  0  0  0
   14.0156  -11.1419  -16.4871 O   0  0  0  0  0  0  0  0  0  0  0  0
   19.4852  -11.4077  -15.9198 C   0  0  0  0  0  0  0  0  0  0  0  0
   19.4667  -10.9547  -14.7238 O   0  0  0  0  0  0  0  0  0  0  0  0
   14.5552  -10.4384  -18.5620 O   0  0  0  0  0  0  0  0  0  0  0  0
   23.0375  -10.4749  -16.8095 C   0  0  0  0  0  0  0  0  0  0  0  0
   21.7261  -10.2671  -16.1316 C   0  0  2  0  0  0  0  0  0  0  0  0
   20.6594  -11.0964  -16.6546 N   0  0  0  0  0  0  0  0  0  0  0  0
   21.3121   -8.8188  -16.1235 C   0  0  0  0  0  0  0  0  0  0  0  0
   20.5126   -8.3778  -16.9986 O   0  0  0  0  0  0  0  0  0  0  0  0
   19.9845   -0.4231  -14.1714 O   0  0  0  0  0  0  0  0  0  0  0  0
   20.3395   -1.7795  -14.0832 C   0  0  0  0  0  0  0  0  0  0  0  0
   21.6620   -2.1587  -14.2149 C   0  0  0  0  0  0  0  0  0  0  0  0
   22.0020   -3.4952  -14.1268 C   0  0  0  0  0  0  0  0  0  0  0  0
   21.0440   -4.4612  -13.9093 C   0  0  0  0  0  0  0  0  0  0  0  0
   21.4056   -5.8911  -13.8296 C   0  0  0  0  0  0  0  0  0  0  0  0
   21.4752   -6.4688  -15.1963 C   0  0  2  0  0  0  0  0  0  0  0  0
   21.7914   -7.9094  -15.1554 N   0  0  0  0  0  0  0  0  0  0  0  0
   22.3432   -5.7699  -16.1528 C   0  0  0  0  0  0  0  0  0  0  0  0
   23.7100   -6.1275  -16.1667 O   0  0  0  0  0  0  0  0  0  0  0  0
   19.7373   -4.0777  -13.7800 C   0  0  0  0  0  0  0  0  0  0  0  0
   19.3968   -2.7565  -13.8666 C   0  0  0  0  0  0  0  0  0  0  0  0
   22.0046   -4.8953  -16.9541 O   0  0  0  0  0  0  0  0  0  0  0  0
  2  1  1  1
  2  3  1  0
  4  3  1  0
  5  4  1  0
  6  5  2  0
  7  2  1  0
  8  7  2  0
  9  5  1  0
 11 10  1  6
 11 12  1  0
 12  7  1  0
 13 11  1  0
 13 22  1  0
 14 13  2  0
 15 16  1  0
 16 17  2  0
 17 18  1  0
 19 18  2  0
 19 20  1  0
 21 20  1  1
 21 22  1  0
 21 23  1  0
 23 24  1  0
 25 19  1  0
 26 16  1  0
 26 25  2  0
 27 23  2  0
M  END
$$$$
