EAY.pdb
     RDKit          3D

 27 27  0  0  1  0  0  0  0  0999 V2000
   24.1952  -23.7045  -13.7824 N   0  0  0  0  0  0  0  0  0  0  0  0
   23.9681  -23.5743  -15.2102 C   0  0  1  0  0  0  0  0  0  0  0  0
   23.1249  -24.6513  -15.7664 C   0  0  0  0  0  0  0  0  0  0  0  0
   23.2881  -25.9982  -15.1631 C   0  0  0  0  0  0  0  0  0  0  0  0
   22.0030  -26.3656  -14.4810 C   0  0  0  0  0  0  0  0  0  0  0  0
   21.0004  -26.7191  -15.1486 O   0  0  0  0  0  0  0  0  0  0  0  0
   23.5317  -22.1916  -15.4815 C   0  0  0  0  0  0  0  0  0  0  0  0
   23.4300  -21.7822  -16.6890 O   0  0  0  0  0  0  0  0  0  0  0  0
   21.8717  -26.3302  -13.1038 O   0  0  0  0  0  0  0  0  0  0  0  0
   21.9277  -19.2428  -13.7754 C   0  0  0  0  0  0  0  0  0  0  0  0
   22.7854  -19.8741  -14.8186 C   0  0  2  0  0  0  0  0  0  0  0  0
   23.2000  -21.2245  -14.4966 N   0  0  0  0  0  0  0  0  0  0  0  0
   23.9800  -19.0243  -15.1647 C   0  0  0  0  0  0  0  0  0  0  0  0
   23.8228  -17.8844  -15.6895 O   0  0  0  0  0  0  0  0  0  0  0  0
   26.5672  -22.1455   -9.9429 O   0  0  0  0  0  0  0  0  0  0  0  0
   26.7040  -21.1592  -10.9340 C   0  0  0  0  0  0  0  0  0  0  0  0
   27.8239  -21.1423  -11.7437 C   0  0  0  0  0  0  0  0  0  0  0  0
   27.9500  -20.1684  -12.7159 C   0  0  0  0  0  0  0  0  0  0  0  0
   26.9768  -19.2098  -12.8944 C   0  0  0  0  0  0  0  0  0  0  0  0
   27.1184  -18.1601  -13.9239 C   0  0  0  0  0  0  0  0  0  0  0  0
   26.4767  -18.6054  -15.1873 C   0  0  2  0  0  0  0  0  0  0  0  0
   25.3018  -19.4577  -14.9220 N   0  0  0  0  0  0  0  0  0  0  0  0
   27.3613  -19.2288  -16.1801 C   0  0  0  0  0  0  0  0  0  0  0  0
   28.4421  -18.4553  -16.6594 O   0  0  0  0  0  0  0  0  0  0  0  0
   25.8714  -19.2332  -12.0889 C   0  0  0  0  0  0  0  0  0  0  0  0
   25.7428  -20.1951  -11.1260 C   0  0  0  0  0  0  0  0  0  0  0  0
   27.2619  -20.3667  -16.6458 O   0  0  0  0  0  0  0  0  0  0  0  0
  2  1  1  1
  2  3  1  0
  4  3  1  0
  5  4  1  0
  6  5  2  0
  7  2  1  0
  8  7  2  0
  9  5  1  0
 11 10  1  1
 11 12  1  0
 12  7  1  0
 13 11  1  0
 13 22  1  0
 14 13  2  0
 15 16  1  0
 16 17  2  0
 17 18  1  0
 19 18  2  0
 19 20  1  0
 21 20  1  1
 21 22  1  0
 21 23  1  0
 23 24  1  0
 25 19  1  0
 26 16  1  0
 26 25  2  0
 27 23  2  0
M  END
$$$$
