EAY.pdb
     RDKit          3D

 27 27  0  0  1  0  0  0  0  0999 V2000
   23.8797  -11.8651  -21.8479 N   0  0  0  0  0  0  0  0  0  0  0  0
   24.5219  -12.0693  -20.5622 C   0  0  1  0  0  0  0  0  0  0  0  0
   25.4720  -10.9956  -20.2088 C   0  0  0  0  0  0  0  0  0  0  0  0
   26.5736  -10.7429  -21.1718 C   0  0  0  0  0  0  0  0  0  0  0  0
   27.5564  -11.8720  -21.0672 C   0  0  0  0  0  0  0  0  0  0  0  0
   27.4762  -12.7082  -20.1343 O   0  0  0  0  0  0  0  0  0  0  0  0
   23.4747  -12.3733  -19.5690 C   0  0  0  0  0  0  0  0  0  0  0  0
   23.7965  -12.5797  -18.3484 O   0  0  0  0  0  0  0  0  0  0  0  0
   28.5797  -12.0361  -21.9842 O   0  0  0  0  0  0  0  0  0  0  0  0
   19.7229  -12.2391  -19.1790 C   0  0  0  0  0  0  0  0  0  0  0  0
   21.0902  -12.7086  -18.8147 C   0  0  2  0  0  0  0  0  0  0  0  0
   22.0843  -12.4666  -19.8404 N   0  0  0  0  0  0  0  0  0  0  0  0
   21.1034  -14.1564  -18.3988 C   0  0  0  0  0  0  0  0  0  0  0  0
   21.2701  -15.0672  -19.2603 O   0  0  0  0  0  0  0  0  0  0  0  0
   21.2022  -21.4975  -13.6087 O   0  0  0  0  0  0  0  0  0  0  0  0
   21.2847  -20.1546  -14.0131 C   0  0  0  0  0  0  0  0  0  0  0  0
   20.2610  -19.2767  -13.7110 C   0  0  0  0  0  0  0  0  0  0  0  0
   20.3508  -17.9576  -14.1128 C   0  0  0  0  0  0  0  0  0  0  0  0
   21.4457  -17.4987  -14.8117 C   0  0  0  0  0  0  0  0  0  0  0  0
   21.5351  -16.0921  -15.2539 C   0  0  0  0  0  0  0  0  0  0  0  0
   20.9855  -15.9614  -16.6276 C   0  0  2  0  0  0  0  0  0  0  0  0
   20.9330  -14.5496  -17.0534 N   0  0  0  0  0  0  0  0  0  0  0  0
   19.7035  -16.6316  -16.8804 C   0  0  0  0  0  0  0  0  0  0  0  0
   18.5265  -15.9155  -16.5672 O   0  0  0  0  0  0  0  0  0  0  0  0
   22.4548  -18.3739  -15.1068 C   0  0  0  0  0  0  0  0  0  0  0  0
   22.3698  -19.6797  -14.7111 C   0  0  0  0  0  0  0  0  0  0  0  0
   19.5411  -17.7642  -17.3414 O   0  0  0  0  0  0  0  0  0  0  0  0
  2  1  1  6
  2  3  1  0
  4  3  1  0
  5  4  1  0
  6  5  2  0
  7  2  1  0
  8  7  2  0
  9  5  1  0
 11 10  1  6
 11 12  1  0
 12  7  1  0
 13 11  1  0
 13 22  1  0
 14 13  2  0
 15 16  1  0
 16 17  2  0
 17 18  1  0
 19 18  2  0
 19 20  1  0
 21 20  1  1
 21 22  1  0
 21 23  1  0
 23 24  1  0
 25 19  1  0
 26 16  1  0
 26 25  2  0
 27 23  2  0
M  END
$$$$
