EAY.pdb
     RDKit          3D

 27 27  0  0  1  0  0  0  0  0999 V2000
   21.2295  -12.7294  -17.0635 N   0  0  0  0  0  0  0  0  0  0  0  0
   19.8866  -12.1785  -17.0748 C   0  0  1  0  0  0  0  0  0  0  0  0
   18.8853  -13.0720  -16.4588 C   0  0  0  0  0  0  0  0  0  0  0  0
   18.7990  -14.4486  -17.0087 C   0  0  0  0  0  0  0  0  0  0  0  0
   18.8275  -15.4149  -15.8610 C   0  0  0  0  0  0  0  0  0  0  0  0
   19.9075  -15.9320  -15.4842 O   0  0  0  0  0  0  0  0  0  0  0  0
   19.9505  -10.8018  -16.5491 C   0  0  0  0  0  0  0  0  0  0  0  0
   20.5826  -10.5646  -15.4627 O   0  0  0  0  0  0  0  0  0  0  0  0
   17.6777  -15.7716  -15.1787 O   0  0  0  0  0  0  0  0  0  0  0  0
   19.0385   -7.2448  -17.5004 C   0  0  0  0  0  0  0  0  0  0  0  0
   19.3857   -8.3425  -16.5532 C   0  0  2  0  0  0  0  0  0  0  0  0
   19.3546   -9.6621  -17.1504 N   0  0  0  0  0  0  0  0  0  0  0  0
   18.5407   -8.3078  -15.3067 C   0  0  0  0  0  0  0  0  0  0  0  0
   17.9647   -9.3561  -14.8958 O   0  0  0  0  0  0  0  0  0  0  0  0
   14.0541   -7.6562   -8.1195 O   0  0  0  0  0  0  0  0  0  0  0  0
   14.9723   -7.7619   -9.1775 C   0  0  0  0  0  0  0  0  0  0  0  0
   16.1374   -7.0186   -9.1596 C   0  0  0  0  0  0  0  0  0  0  0  0
   17.0348   -7.1290  -10.2046 C   0  0  0  0  0  0  0  0  0  0  0  0
   16.7896   -7.9693  -11.2685 C   0  0  0  0  0  0  0  0  0  0  0  0
   17.7420   -8.0763  -12.3925 C   0  0  0  0  0  0  0  0  0  0  0  0
   17.4317   -7.0438  -13.4142 C   0  0  2  0  0  0  0  0  0  0  0  0
   18.3597   -7.1240  -14.5585 N   0  0  0  0  0  0  0  0  0  0  0  0
   17.3194   -5.6627  -12.9279 C   0  0  0  0  0  0  0  0  0  0  0  0
   16.0321   -5.2076  -12.5644 O   0  0  0  0  0  0  0  0  0  0  0  0
   15.6342   -8.7016  -11.2788 C   0  0  0  0  0  0  0  0  0  0  0  0
   14.7438   -8.5952  -10.2469 C   0  0  0  0  0  0  0  0  0  0  0  0
   18.2370   -4.8480  -12.8011 O   0  0  0  0  0  0  0  0  0  0  0  0
  2  1  1  1
  2  3  1  0
  4  3  1  0
  5  4  1  0
  6  5  2  0
  7  2  1  0
  8  7  2  0
  9  5  1  0
 11 10  1  6
 11 12  1  0
 12  7  1  0
 13 11  1  0
 13 22  1  0
 14 13  2  0
 15 16  1  0
 16 17  2  0
 17 18  1  0
 19 18  2  0
 19 20  1  0
 21 20  1  1
 21 22  1  0
 21 23  1  0
 23 24  1  0
 25 19  1  0
 26 16  1  0
 26 25  2  0
 27 23  2  0
M  END
$$$$
