EAY.pdb
     RDKit          3D

 27 27  0  0  1  0  0  0  0  0999 V2000
   20.4571  -13.6855  -16.7955 N   0  0  0  0  0  0  0  0  0  0  0  0
   19.4530  -12.6471  -16.6528 C   0  0  1  0  0  0  0  0  0  0  0  0
   18.1744  -13.1444  -16.1067 C   0  0  0  0  0  0  0  0  0  0  0  0
   17.6944  -14.4490  -16.6285 C   0  0  0  0  0  0  0  0  0  0  0  0
   17.4780  -15.3694  -15.4632 C   0  0  0  0  0  0  0  0  0  0  0  0
   16.8111  -14.9973  -14.4669 O   0  0  0  0  0  0  0  0  0  0  0  0
   20.0689  -11.5064  -15.9490 C   0  0  0  0  0  0  0  0  0  0  0  0
   19.3581  -10.4870  -15.6463 O   0  0  0  0  0  0  0  0  0  0  0  0
   17.9986  -16.6513  -15.4392 O   0  0  0  0  0  0  0  0  0  0  0  0
   23.4206  -10.4272  -14.4975 C   0  0  0  0  0  0  0  0  0  0  0  0
   21.9869  -10.2682  -14.8741 C   0  0  2  0  0  0  0  0  0  0  0  0
   21.4305  -11.4185  -15.5571 N   0  0  0  0  0  0  0  0  0  0  0  0
   21.7429   -9.0132  -15.6707 C   0  0  0  0  0  0  0  0  0  0  0  0
   22.0468   -8.9658  -16.8974 O   0  0  0  0  0  0  0  0  0  0  0  0
   18.8540   -2.1501  -19.8115 O   0  0  0  0  0  0  0  0  0  0  0  0
   19.1520   -3.3444  -19.1342 C   0  0  0  0  0  0  0  0  0  0  0  0
   18.1940   -3.9482  -18.3418 C   0  0  0  0  0  0  0  0  0  0  0  0
   18.4960   -5.1227  -17.6793 C   0  0  0  0  0  0  0  0  0  0  0  0
   19.7389   -5.7059  -17.7938 C   0  0  0  0  0  0  0  0  0  0  0  0
   20.0664   -6.9535  -17.0741 C   0  0  0  0  0  0  0  0  0  0  0  0
   20.8814   -6.6412  -15.8723 C   0  0  2  0  0  0  0  0  0  0  0  0
   21.1748   -7.8579  -15.0907 N   0  0  0  0  0  0  0  0  0  0  0  0
   20.3735   -5.5717  -15.0035 C   0  0  0  0  0  0  0  0  0  0  0  0
   20.6800   -4.2416  -15.3685 O   0  0  0  0  0  0  0  0  0  0  0  0
   20.6816   -5.1021  -18.5800 C   0  0  0  0  0  0  0  0  0  0  0  0
   20.3868   -3.9400  -19.2371 C   0  0  0  0  0  0  0  0  0  0  0  0
   19.7010   -5.7101  -13.9787 O   0  0  0  0  0  0  0  0  0  0  0  0
  2  1  1  1
  2  3  1  0
  4  3  1  0
  5  4  1  0
  6  5  2  0
  7  2  1  0
  8  7  2  0
  9  5  1  0
 11 10  1  6
 11 12  1  0
 12  7  1  0
 13 11  1  0
 13 22  1  0
 14 13  2  0
 15 16  1  0
 16 17  2  0
 17 18  1  0
 19 18  2  0
 19 20  1  0
 21 20  1  6
 21 22  1  0
 21 23  1  0
 23 24  1  0
 25 19  1  0
 26 16  1  0
 26 25  2  0
 27 23  2  0
M  END
$$$$
