RAA.pdb
     RDKit          3D

 22 21  0  0  1  0  0  0  0  0999 V2000
    7.0764  -12.5023   20.0736 N   0  0  0  0  0  0  0  0  0  0  0  0
    8.0339  -13.1152   19.2272 C   0  0  0  0  0  0  0  0  0  0  0  0
    7.7801  -13.1427   17.9606 N   0  0  0  0  0  0  0  0  0  0  0  0
    9.2271  -13.6886   19.6853 N   0  0  0  0  0  0  0  0  0  0  0  0
    9.3260  -14.3526   20.9747 C   0  0  0  0  0  0  0  0  0  0  0  0
    8.0742  -15.1873   21.1930 C   0  0  0  0  0  0  0  0  0  0  0  0
    7.7902  -15.3149   22.6539 C   0  0  0  0  0  0  0  0  0  0  0  0
    8.7617  -16.2331   23.3277 C   0  0  2  0  0  0  0  0  0  0  0  0
    8.7386  -17.5317   22.6290 N   0  0  0  0  0  0  0  0  0  0  0  0
    8.4412  -16.4010   24.7470 C   0  0  0  0  0  0  0  0  0  0  0  0
    8.4054  -15.4402   25.5330 O   0  0  0  0  0  0  0  0  0  0  0  0
    8.4474  -13.4553   17.2271 C   0  0  0  0  0  0  0  0  0  0  0  0
    6.5715  -18.5653   26.8050 C   0  0  2  0  0  0  0  0  0  0  0  0
    7.9420  -17.9228   26.6549 N   0  0  0  0  0  0  0  0  0  0  0  0
    8.1619  -17.7181   25.2365 C   0  0  0  0  0  0  0  0  0  0  0  0
    9.0036  -18.8114   27.1642 O   0  0  0  0  0  0  0  0  0  0  0  0
    8.9380  -19.2775   28.3034 C   0  0  0  0  0  0  0  0  0  0  0  0
   11.9913  -20.6633   25.7517 C   0  0  2  0  0  0  0  0  0  0  0  0
   11.1569  -20.0611   26.8577 N   0  0  0  0  0  0  0  0  0  0  0  0
   10.1470  -19.1679   26.3617 C   0  0  0  0  0  0  0  0  0  0  0  0
   12.0706  -19.3197   27.7548 O   0  0  0  0  0  0  0  0  0  0  0  0
   11.9058  -18.0868   27.9120 O   0  0  0  0  0  0  0  0  0  0  0  0
  1  2  1  0
  2  4  1  0
  3  2  2  0
  4  5  1  0
  5  6  1  0
  6  7  1  0
  7  8  1  0
  8 10  1  0
  8  9  1  6
 10 14  1  0
 10 11  2  0
 13 15  1  0
 13 12  1  1
 14 13  1  0
 15 16  2  0
 18 17  1  6
 19 18  1  0
 19 15  1  0
 20 22  1  0
 20 18  1  0
 21 20  2  0
M  END
$$$$
