RAA.pdb
     RDKit          3D

 22 21  0  0  1  0  0  0  0  0999 V2000
    7.7702  -13.0738   17.4311 N   0  0  0  0  0  0  0  0  0  0  0  0
    8.2289  -14.3890   17.1689 C   0  0  0  0  0  0  0  0  0  0  0  0
    8.7182  -14.6280   15.9972 N   0  0  0  0  0  0  0  0  0  0  0  0
    8.1792  -15.4334   18.1013 N   0  0  0  0  0  0  0  0  0  0  0  0
    7.3868  -15.3530   19.3174 C   0  0  0  0  0  0  0  0  0  0  0  0
    8.2841  -14.8989   20.4575 C   0  0  0  0  0  0  0  0  0  0  0  0
    7.4954  -14.7952   21.7219 C   0  0  0  0  0  0  0  0  0  0  0  0
    7.3162  -13.3709   22.1462 C   0  0  2  0  0  0  0  0  0  0  0  0
    8.0613  -12.5077   21.2110 N   0  0  0  0  0  0  0  0  0  0  0  0
    7.7732  -13.1624   23.5221 C   0  0  0  0  0  0  0  0  0  0  0  0
    8.9769  -13.1818   23.8272 O   0  0  0  0  0  0  0  0  0  0  0  0
    9.0625  -15.5543   15.6742 C   0  0  0  0  0  0  0  0  0  0  0  0
    6.0748  -12.0960   26.6624 C   0  0  2  0  0  0  0  0  0  0  0  0
    7.2213  -12.7634   25.9182 N   0  0  0  0  0  0  0  0  0  0  0  0
    6.7949  -12.9298   24.5426 C   0  0  0  0  0  0  0  0  0  0  0  0
    7.5119  -14.0973   26.4772 O   0  0  0  0  0  0  0  0  0  0  0  0
    7.9569  -14.2146   27.6206 C   0  0  0  0  0  0  0  0  0  0  0  0
    6.8412  -17.7035   25.4952 C   0  0  2  0  0  0  0  0  0  0  0  0
    7.4707  -16.6000   26.3126 N   0  0  0  0  0  0  0  0  0  0  0  0
    7.2901  -15.3039   25.7199 C   0  0  0  0  0  0  0  0  0  0  0  0
    8.9169  -16.8930   26.4217 O   0  0  0  0  0  0  0  0  0  0  0  0
    9.7388  -16.1339   25.8557 O   0  0  0  0  0  0  0  0  0  0  0  0
  1  2  1  0
  2  4  1  0
  3  2  2  0
  4  5  1  0
  5  6  1  0
  6  7  1  0
  7  8  1  0
  8 10  1  0
  8  9  1  6
 10 14  1  0
 10 11  2  0
 13 15  1  0
 13 12  1  6
 14 13  1  0
 15 16  2  0
 18 17  1  1
 19 18  1  0
 19 15  1  0
 20 22  1  0
 20 18  1  0
 21 20  2  0
M  END
$$$$
