RAA.pdb
     RDKit          3D

 22 21  0  0  1  0  0  0  0  0999 V2000
    9.6689  -13.4325   18.6945 N   0  0  0  0  0  0  0  0  0  0  0  0
    8.4553  -13.2260   17.9922 C   0  0  0  0  0  0  0  0  0  0  0  0
    8.5199  -13.1255   16.7056 N   0  0  0  0  0  0  0  0  0  0  0  0
    7.2028  -13.1242   18.6113 N   0  0  0  0  0  0  0  0  0  0  0  0
    7.0231  -13.3235   20.0399 C   0  0  0  0  0  0  0  0  0  0  0  0
    7.0873  -14.8128   20.3386 C   0  0  0  0  0  0  0  0  0  0  0  0
    6.9139  -15.0511   21.8030 C   0  0  0  0  0  0  0  0  0  0  0  0
    6.9092  -16.5121   22.1285 C   0  0  2  0  0  0  0  0  0  0  0  0
    5.6803  -17.1101   21.5742 N   0  0  0  0  0  0  0  0  0  0  0  0
    6.9905  -16.7373   23.5736 C   0  0  0  0  0  0  0  0  0  0  0  0
    6.0270  -16.5283   24.3286 O   0  0  0  0  0  0  0  0  0  0  0  0
    7.7119  -12.9227   16.0837 C   0  0  0  0  0  0  0  0  0  0  0  0
    8.9786  -18.6978   25.8385 C   0  0  1  0  0  0  0  0  0  0  0  0
    8.3649  -17.3334   25.5637 N   0  0  0  0  0  0  0  0  0  0  0  0
    8.2238  -17.2132   24.1258 C   0  0  0  0  0  0  0  0  0  0  0  0
    9.2479  -16.2495   26.0342 O   0  0  0  0  0  0  0  0  0  0  0  0
   10.2218  -15.8991   25.3648 C   0  0  0  0  0  0  0  0  0  0  0  0
    9.1255  -13.3377   28.3020 C   0  0  2  0  0  0  0  0  0  0  0  0
    9.8828  -14.5125   27.7288 N   0  0  0  0  0  0  0  0  0  0  0  0
    9.0120  -15.5631   27.2799 C   0  0  0  0  0  0  0  0  0  0  0  0
   10.7728  -15.0323   28.7905 O   0  0  0  0  0  0  0  0  0  0  0  0
   10.5559  -16.1719   29.2663 O   0  0  0  0  0  0  0  0  0  0  0  0
  1  2  1  0
  2  4  1  0
  3  2  2  0
  4  5  1  0
  5  6  1  0
  6  7  1  0
  7  8  1  0
  8 10  1  0
  8  9  1  1
 10 14  1  0
 10 11  2  0
 13 15  1  0
 13 12  1  1
 14 13  1  0
 15 16  2  0
 18 17  1  6
 19 18  1  0
 19 15  1  0
 20 22  1  0
 20 18  1  0
 21 20  2  0
M  END
$$$$
