RAA.pdb
     RDKit          3D

 22 21  0  0  1  0  0  0  0  0999 V2000
    8.9272  -15.0088   17.9207 N   0  0  0  0  0  0  0  0  0  0  0  0
    8.5760  -13.6371   17.8574 C   0  0  0  0  0  0  0  0  0  0  0  0
    8.5073  -13.0920   16.6880 N   0  0  0  0  0  0  0  0  0  0  0  0
    8.3040  -12.8482   18.9827 N   0  0  0  0  0  0  0  0  0  0  0  0
    8.5356  -13.3206   20.3378 C   0  0  0  0  0  0  0  0  0  0  0  0
    7.2694  -13.9915   20.8457 C   0  0  0  0  0  0  0  0  0  0  0  0
    7.4854  -14.5178   22.2269 C   0  0  0  0  0  0  0  0  0  0  0  0
    7.7732  -15.9868   22.2199 C   0  0  2  0  0  0  0  0  0  0  0  0
    6.7668  -16.6558   21.3746 N   0  0  0  0  0  0  0  0  0  0  0  0
    7.7626  -16.5392   23.5764 C   0  0  0  0  0  0  0  0  0  0  0  0
    6.7060  -16.7516   24.1935 O   0  0  0  0  0  0  0  0  0  0  0  0
    8.2894  -12.0911   16.5103 C   0  0  0  0  0  0  0  0  0  0  0  0
   10.1281  -18.4972   25.5174 C   0  0  1  0  0  0  0  0  0  0  0  0
    9.0264  -17.4485   25.5209 N   0  0  0  0  0  0  0  0  0  0  0  0
    9.0143  -16.8410   24.2045 C   0  0  0  0  0  0  0  0  0  0  0  0
    9.3008  -16.3935   26.5148 O   0  0  0  0  0  0  0  0  0  0  0  0
    9.3150  -16.6553   27.7192 C   0  0  0  0  0  0  0  0  0  0  0  0
    8.5317  -13.2235   27.4229 C   0  0  1  0  0  0  0  0  0  0  0  0
    9.7852  -14.0040   27.1046 N   0  0  0  0  0  0  0  0  0  0  0  0
    9.5611  -15.0302   26.1246 C   0  0  0  0  0  0  0  0  0  0  0  0
   10.2597  -14.6215   28.3627 O   0  0  0  0  0  0  0  0  0  0  0  0
   10.3233  -15.8710   28.4444 O   0  0  0  0  0  0  0  0  0  0  0  0
  1  2  1  0
  2  4  1  0
  3  2  2  0
  4  5  1  0
  5  6  1  0
  6  7  1  0
  7  8  1  0
  8 10  1  0
  8  9  1  6
 10 14  1  0
 10 11  2  0
 13 15  1  0
 13 12  1  6
 14 13  1  0
 15 16  2  0
 18 17  1  6
 19 18  1  0
 19 15  1  0
 20 22  1  0
 20 18  1  0
 21 20  2  0
M  END
$$$$
