RAA.pdb
     RDKit          3D

 22 21  0  0  1  0  0  0  0  0999 V2000
    8.6014  -20.8921   15.3150 N   0  0  0  0  0  0  0  0  0  0  0  0
    9.7681  -21.1223   16.0860 C   0  0  0  0  0  0  0  0  0  0  0  0
   10.7469  -21.7442   15.5162 N   0  0  0  0  0  0  0  0  0  0  0  0
    9.9151  -20.7179   17.4191 N   0  0  0  0  0  0  0  0  0  0  0  0
    8.8862  -19.9700   18.1228 C   0  0  0  0  0  0  0  0  0  0  0  0
    8.8954  -18.5345   17.6223 C   0  0  0  0  0  0  0  0  0  0  0  0
    7.9060  -17.7175   18.3870 C   0  0  0  0  0  0  0  0  0  0  0  0
    7.7566  -16.3454   17.8074 C   0  0  2  0  0  0  0  0  0  0  0  0
    8.3603  -16.3385   16.4619 N   0  0  0  0  0  0  0  0  0  0  0  0
    8.3818  -15.3338   18.6626 C   0  0  0  0  0  0  0  0  0  0  0  0
    9.6141  -15.1935   18.7250 O   0  0  0  0  0  0  0  0  0  0  0  0
   11.6235  -22.0365   15.9926 C   0  0  0  0  0  0  0  0  0  0  0  0
    6.9903  -12.4801   20.6292 C   0  0  1  0  0  0  0  0  0  0  0  0
    8.1269  -13.4018   20.2142 N   0  0  0  0  0  0  0  0  0  0  0  0
    7.5385  -14.4837   19.4491 C   0  0  0  0  0  0  0  0  0  0  0  0
    8.7984  -13.9807   21.3931 O   0  0  0  0  0  0  0  0  0  0  0  0
    9.4245  -13.2615   22.1742 C   0  0  0  0  0  0  0  0  0  0  0  0
    8.6958  -17.2454   23.2832 C   0  0  2  0  0  0  0  0  0  0  0  0
    9.3221  -15.9306   22.8817 N   0  0  0  0  0  0  0  0  0  0  0  0
    8.7508  -15.3932   21.6783 C   0  0  0  0  0  0  0  0  0  0  0  0
   10.7680  -16.1680   22.6755 O   0  0  0  0  0  0  0  0  0  0  0  0
   11.4656  -16.5657   23.6385 O   0  0  0  0  0  0  0  0  0  0  0  0
  1  2  1  0
  2  4  1  0
  3  2  2  0
  4  5  1  0
  5  6  1  0
  6  7  1  0
  7  8  1  0
  8 10  1  0
  8  9  1  6
 10 14  1  0
 10 11  2  0
 13 15  1  0
 13 12  1  6
 14 13  1  0
 15 16  2  0
 18 17  1  1
 19 18  1  0
 19 15  1  0
 20 22  1  0
 20 18  1  0
 21 20  2  0
M  END
$$$$
