RAA.pdb
     RDKit          3D

 22 21  0  0  1  0  0  0  0  0999 V2000
    8.2513  -15.6158   15.6896 N   0  0  0  0  0  0  0  0  0  0  0  0
    8.1996  -14.2480   16.0572 C   0  0  0  0  0  0  0  0  0  0  0  0
    7.5571  -13.4439   15.2761 N   0  0  0  0  0  0  0  0  0  0  0  0
    8.8028  -13.7258   17.2087 N   0  0  0  0  0  0  0  0  0  0  0  0
    8.7711  -14.4195   18.4858 C   0  0  0  0  0  0  0  0  0  0  0  0
    7.4650  -14.0892   19.1903 C   0  0  0  0  0  0  0  0  0  0  0  0
    7.3062  -14.9438   20.4050 C   0  0  0  0  0  0  0  0  0  0  0  0
    7.9684  -14.3334   21.6007 C   0  0  2  0  0  0  0  0  0  0  0  0
    9.4140  -14.2252   21.3295 N   0  0  0  0  0  0  0  0  0  0  0  0
    7.7243  -15.1254   22.8085 C   0  0  0  0  0  0  0  0  0  0  0  0
    6.5913  -15.5340   23.1111 O   0  0  0  0  0  0  0  0  0  0  0  0
    7.5020  -12.4130   15.3989 C   0  0  0  0  0  0  0  0  0  0  0  0
    9.8851  -16.8377   25.2837 C   0  0  2  0  0  0  0  0  0  0  0  0
    8.5978  -16.1127   24.9221 N   0  0  0  0  0  0  0  0  0  0  0  0
    8.8323  -15.4338   23.6627 C   0  0  0  0  0  0  0  0  0  0  0  0
    8.2561  -15.0990   25.9377 O   0  0  0  0  0  0  0  0  0  0  0  0
    8.1211  -15.4174   27.1208 C   0  0  0  0  0  0  0  0  0  0  0  0
    7.9397  -11.3301   26.1619 C   0  0  2  0  0  0  0  0  0  0  0  0
    7.6391  -12.7522   26.5734 N   0  0  0  0  0  0  0  0  0  0  0  0
    8.0686  -13.7114   25.5941 C   0  0  0  0  0  0  0  0  0  0  0  0
    6.1758  -12.8639   26.7615 O   0  0  0  0  0  0  0  0  0  0  0  0
    5.5194  -13.6249   26.0118 O   0  0  0  0  0  0  0  0  0  0  0  0
  1  2  1  0
  2  4  1  0
  3  2  2  0
  4  5  1  0
  5  6  1  0
  6  7  1  0
  7  8  1  0
  8 10  1  0
  8  9  1  6
 10 14  1  0
 10 11  2  0
 13 15  1  0
 13 12  1  6
 14 13  1  0
 15 16  2  0
 18 17  1  1
 19 18  1  0
 19 15  1  0
 20 22  1  0
 20 18  1  0
 21 20  2  0
M  END
$$$$
