RAA.pdb
     RDKit          3D

 22 21  0  0  1  0  0  0  0  0999 V2000
    8.6708  -13.9867   16.1158 N   0  0  0  0  0  0  0  0  0  0  0  0
    7.9141  -15.1497   15.8266 C   0  0  0  0  0  0  0  0  0  0  0  0
    7.4864  -15.2978   14.6164 N   0  0  0  0  0  0  0  0  0  0  0  0
    7.6064  -16.1360   16.7726 N   0  0  0  0  0  0  0  0  0  0  0  0
    8.0618  -16.0604   18.1510 C   0  0  0  0  0  0  0  0  0  0  0  0
    7.6528  -14.7150   18.7289 C   0  0  0  0  0  0  0  0  0  0  0  0
    8.0928  -14.6123   20.1527 C   0  0  0  0  0  0  0  0  0  0  0  0
    7.7432  -13.2825   20.7446 C   0  0  2  0  0  0  0  0  0  0  0  0
    8.4246  -12.2313   19.9665 N   0  0  0  0  0  0  0  0  0  0  0  0
    8.1221  -13.2111   22.1577 C   0  0  0  0  0  0  0  0  0  0  0  0
    9.2990  -13.0445   22.5171 O   0  0  0  0  0  0  0  0  0  0  0  0
    6.9212  -16.1029   14.2798 C   0  0  0  0  0  0  0  0  0  0  0  0
    6.1887  -12.8910   25.3142 C   0  0  1  0  0  0  0  0  0  0  0  0
    7.4497  -13.2755   24.5554 N   0  0  0  0  0  0  0  0  0  0  0  0
    7.0971  -13.3388   23.1505 C   0  0  0  0  0  0  0  0  0  0  0  0
    7.9348  -14.6051   24.9711 O   0  0  0  0  0  0  0  0  0  0  0  0
    8.2222  -14.8277   26.1489 C   0  0  0  0  0  0  0  0  0  0  0  0
    8.3272  -18.0413   23.3918 C   0  0  2  0  0  0  0  0  0  0  0  0
    8.5295  -16.9866   24.4542 N   0  0  0  0  0  0  0  0  0  0  0  0
    8.0906  -15.6862   24.0300 C   0  0  0  0  0  0  0  0  0  0  0  0
    9.9746  -16.9391   24.7684 O   0  0  0  0  0  0  0  0  0  0  0  0
   10.6068  -15.8733   24.5778 O   0  0  0  0  0  0  0  0  0  0  0  0
  1  2  1  0
  2  4  1  0
  3  2  2  0
  4  5  1  0
  5  6  1  0
  6  7  1  0
  7  8  1  0
  8 10  1  0
  8  9  1  6
 10 14  1  0
 10 11  2  0
 13 15  1  0
 13 12  1  6
 14 13  1  0
 15 16  2  0
 18 17  1  1
 19 18  1  0
 19 15  1  0
 20 22  1  0
 20 18  1  0
 21 20  2  0
M  END
$$$$
