RAA.pdb
     RDKit          3D

 22 21  0  0  1  0  0  0  0  0999 V2000
   14.8237  -21.2684   20.8109 N   0  0  0  0  0  0  0  0  0  0  0  0
   14.0421  -22.4438   20.9392 C   0  0  0  0  0  0  0  0  0  0  0  0
   13.5214  -22.6910   22.0956 N   0  0  0  0  0  0  0  0  0  0  0  0
   13.8075  -23.3435   19.8914 N   0  0  0  0  0  0  0  0  0  0  0  0
   14.1827  -23.0519   18.5176 C   0  0  0  0  0  0  0  0  0  0  0  0
   13.1363  -22.1324   17.9087 C   0  0  0  0  0  0  0  0  0  0  0  0
   13.5188  -21.7741   16.5099 C   0  0  0  0  0  0  0  0  0  0  0  0
   12.4741  -20.9285   15.8506 C   0  0  2  0  0  0  0  0  0  0  0  0
   13.0856  -20.2483   14.6938 N   0  0  0  0  0  0  0  0  0  0  0  0
   11.9072  -19.9545   16.7861 C   0  0  0  0  0  0  0  0  0  0  0  0
   12.5069  -18.9123   17.0967 O   0  0  0  0  0  0  0  0  0  0  0  0
   12.9045  -23.5001   22.3093 C   0  0  0  0  0  0  0  0  0  0  0  0
    8.4725  -19.4804   18.0972 C   0  0  1  0  0  0  0  0  0  0  0  0
    9.9663  -19.1991   18.1526 N   0  0  0  0  0  0  0  0  0  0  0  0
   10.6203  -20.2196   17.3571 C   0  0  0  0  0  0  0  0  0  0  0  0
   10.4735  -19.2940   19.5346 O   0  0  0  0  0  0  0  0  0  0  0  0
   10.0980  -18.4969   20.3964 C   0  0  0  0  0  0  0  0  0  0  0  0
   11.3475  -21.5229   22.0596 C   0  0  2  0  0  0  0  0  0  0  0  0
   11.9272  -20.3717   21.2717 N   0  0  0  0  0  0  0  0  0  0  0  0
   11.4169  -20.3100   19.9304 C   0  0  0  0  0  0  0  0  0  0  0  0
   13.3953  -20.5514   21.2309 O   0  0  0  0  0  0  0  0  0  0  0  0
   13.8975  -21.2799   20.3425 O   0  0  0  0  0  0  0  0  0  0  0  0
  1  2  1  0
  2  4  1  0
  3  2  2  0
  4  5  1  0
  5  6  1  0
  6  7  1  0
  7  8  1  0
  8 10  1  0
  8  9  1  6
 10 14  1  0
 10 11  2  0
 13 15  1  0
 13 12  1  6
 14 13  1  0
 15 16  2  0
 18 17  1  1
 19 18  1  0
 19 15  1  0
 20 22  1  0
 20 18  1  0
 21 20  2  0
M  END
$$$$
