RAA.pdb
     RDKit          3D

 22 21  0  0  1  0  0  0  0  0999 V2000
    7.2198  -13.2796   19.5359 N   0  0  0  0  0  0  0  0  0  0  0  0
    8.2847  -12.9657   18.6550 C   0  0  0  0  0  0  0  0  0  0  0  0
    8.0035  -12.8375   17.4004 N   0  0  0  0  0  0  0  0  0  0  0  0
    9.6123  -12.7906   19.0664 N   0  0  0  0  0  0  0  0  0  0  0  0
   10.1599  -13.4631   20.2331 C   0  0  0  0  0  0  0  0  0  0  0  0
    9.9954  -14.9640   20.0554 C   0  0  0  0  0  0  0  0  0  0  0  0
   10.7774  -15.6935   21.0983 C   0  0  0  0  0  0  0  0  0  0  0  0
    9.9352  -16.7014   21.8164 C   0  0  2  0  0  0  0  0  0  0  0  0
    8.7635  -17.0139   20.9772 N   0  0  0  0  0  0  0  0  0  0  0  0
    9.5165  -16.2081   23.1305 C   0  0  0  0  0  0  0  0  0  0  0  0
    9.6152  -15.0115   23.4476 O   0  0  0  0  0  0  0  0  0  0  0  0
    8.7041  -12.6963   16.6453 C   0  0  0  0  0  0  0  0  0  0  0  0
    7.0680  -16.6687   25.4298 C   0  0  2  0  0  0  0  0  0  0  0  0
    8.5885  -16.6818   25.3931 N   0  0  0  0  0  0  0  0  0  0  0  0
    8.9774  -17.1415   24.0742 C   0  0  0  0  0  0  0  0  0  0  0  0
    9.1355  -17.6211   26.3904 O   0  0  0  0  0  0  0  0  0  0  0  0
    8.8852  -17.4789   27.5889 C   0  0  0  0  0  0  0  0  0  0  0  0
   10.7953  -20.9972   26.4545 C   0  0  2  0  0  0  0  0  0  0  0  0
   10.5382  -19.6105   26.9958 N   0  0  0  0  0  0  0  0  0  0  0  0
    9.9742  -18.7305   26.0105 C   0  0  0  0  0  0  0  0  0  0  0  0
   11.8327  -19.0638   27.4593 O   0  0  0  0  0  0  0  0  0  0  0  0
   12.2603  -17.9970   26.9582 O   0  0  0  0  0  0  0  0  0  0  0  0
  1  2  1  0
  2  4  1  0
  3  2  2  0
  4  5  1  0
  5  6  1  0
  6  7  1  0
  7  8  1  0
  8 10  1  0
  8  9  1  6
 10 14  1  0
 10 11  2  0
 13 15  1  0
 13 12  1  6
 14 13  1  0
 15 16  2  0
 18 17  1  1
 19 18  1  0
 19 15  1  0
 20 22  1  0
 20 18  1  0
 21 20  2  0
M  END
$$$$
