RAA.pdb
     RDKit          3D

 22 21  0  0  1  0  0  0  0  0999 V2000
   10.3640  -12.7451   19.6028 N   0  0  0  0  0  0  0  0  0  0  0  0
    9.0420  -13.0238   19.1745 C   0  0  0  0  0  0  0  0  0  0  0  0
    8.8974  -13.6525   18.0550 N   0  0  0  0  0  0  0  0  0  0  0  0
    7.8957  -12.6566   19.8911 N   0  0  0  0  0  0  0  0  0  0  0  0
    7.4523  -13.3790   21.0721 C   0  0  0  0  0  0  0  0  0  0  0  0
    8.1484  -14.7300   21.1099 C   0  0  0  0  0  0  0  0  0  0  0  0
    7.6057  -15.5564   22.2296 C   0  0  0  0  0  0  0  0  0  0  0  0
    8.2870  -16.8866   22.3155 C   0  0  2  0  0  0  0  0  0  0  0  0
    7.4588  -17.8818   21.6093 N   0  0  0  0  0  0  0  0  0  0  0  0
    8.5048  -17.2859   23.7078 C   0  0  0  0  0  0  0  0  0  0  0  0
    7.6006  -17.7793   24.4014 O   0  0  0  0  0  0  0  0  0  0  0  0
    7.9844  -13.8584   17.6023 C   0  0  0  0  0  0  0  0  0  0  0  0
   11.5538  -18.0854   25.5733 C   0  0  1  0  0  0  0  0  0  0  0  0
   10.0967  -17.6494   25.5890 N   0  0  0  0  0  0  0  0  0  0  0  0
    9.8045  -17.0976   24.2805 C   0  0  0  0  0  0  0  0  0  0  0  0
    9.8683  -16.5967   26.5967 O   0  0  0  0  0  0  0  0  0  0  0  0
   10.0421  -16.8274   27.7950 C   0  0  0  0  0  0  0  0  0  0  0  0
    7.8150  -13.9432   27.4968 C   0  0  1  0  0  0  0  0  0  0  0  0
    9.2689  -14.2403   27.2138 N   0  0  0  0  0  0  0  0  0  0  0  0
    9.4385  -15.2709   26.2275 C   0  0  0  0  0  0  0  0  0  0  0  0
    9.8938  -14.6690   28.4846 O   0  0  0  0  0  0  0  0  0  0  0  0
    9.8826  -13.8880   29.4653 O   0  0  0  0  0  0  0  0  0  0  0  0
  1  2  1  0
  2  4  1  0
  3  2  2  0
  4  5  1  0
  5  6  1  0
  6  7  1  0
  7  8  1  0
  8 10  1  0
  8  9  1  1
 10 14  1  0
 10 11  2  0
 13 15  1  0
 13 12  1  6
 14 13  1  0
 15 16  2  0
 18 17  1  6
 19 18  1  0
 19 15  1  0
 20 22  1  0
 20 18  1  0
 21 20  2  0
M  END
$$$$
