RAA.pdb
     RDKit          3D

 22 21  0  0  1  0  0  0  0  0999 V2000
    7.7385  -12.8779   17.1413 N   0  0  0  0  0  0  0  0  0  0  0  0
    8.4399  -13.9196   16.4842 C   0  0  0  0  0  0  0  0  0  0  0  0
    7.9375  -14.3764   15.3849 N   0  0  0  0  0  0  0  0  0  0  0  0
    9.6349  -14.4761   16.9582 N   0  0  0  0  0  0  0  0  0  0  0  0
    9.7644  -15.0086   18.3046 C   0  0  0  0  0  0  0  0  0  0  0  0
    9.2729  -13.9640   19.2938 C   0  0  0  0  0  0  0  0  0  0  0  0
    9.4537  -14.4559   20.6926 C   0  0  0  0  0  0  0  0  0  0  0  0
    8.1657  -14.4390   21.4553 C   0  0  2  0  0  0  0  0  0  0  0  0
    7.2708  -13.4421   20.8385 N   0  0  0  0  0  0  0  0  0  0  0  0
    8.3873  -14.1331   22.8705 C   0  0  0  0  0  0  0  0  0  0  0  0
    9.4482  -13.6330   23.2787 O   0  0  0  0  0  0  0  0  0  0  0  0
    8.3479  -15.1452   14.8179 C   0  0  0  0  0  0  0  0  0  0  0  0
    6.1735  -13.5220   25.6853 C   0  0  2  0  0  0  0  0  0  0  0  0
    7.5108  -14.0613   25.2011 N   0  0  0  0  0  0  0  0  0  0  0  0
    7.3429  -14.4234   23.8072 C   0  0  0  0  0  0  0  0  0  0  0  0
    7.8978  -15.2718   25.9501 O   0  0  0  0  0  0  0  0  0  0  0  0
    8.0690  -15.2262   27.1699 C   0  0  0  0  0  0  0  0  0  0  0  0
    7.9317  -18.9847   25.4345 C   0  0  2  0  0  0  0  0  0  0  0  0
    8.4773  -17.7108   26.0357 N   0  0  0  0  0  0  0  0  0  0  0  0
    8.0889  -16.5423   25.2960 C   0  0  0  0  0  0  0  0  0  0  0  0
    9.9531  -17.8172   26.0466 O   0  0  0  0  0  0  0  0  0  0  0  0
   10.6289  -17.0145   25.3604 O   0  0  0  0  0  0  0  0  0  0  0  0
  1  2  1  0
  2  4  1  0
  3  2  2  0
  4  5  1  0
  5  6  1  0
  6  7  1  0
  7  8  1  0
  8 10  1  0
  8  9  1  6
 10 14  1  0
 10 11  2  0
 13 15  1  0
 13 12  1  6
 14 13  1  0
 15 16  2  0
 18 17  1  1
 19 18  1  0
 19 15  1  0
 20 22  1  0
 20 18  1  0
 21 20  2  0
M  END
$$$$
