ICL.pdb
     RDKit          3D

 23 22  0  0  1  0  0  0  0  0999 V2000
    7.2179  -21.8154   25.1700 C   0  0  0  0  0  0  0  0  0  0  0  0
    6.3695  -20.7419   24.5365 C   0  0  0  0  0  0  0  0  0  0  0  0
    7.0587  -19.4357   24.3697 C   0  0  2  0  0  0  0  0  0  0  0  0
    7.5866  -19.0110   25.7400 C   0  0  0  0  0  0  0  0  0  0  0  0
    6.2565  -18.3359   23.7535 C   0  0  2  0  0  0  0  0  0  0  0  0
    5.8696  -18.8281   22.4134 N   0  0  0  0  0  0  0  0  0  0  0  0
    6.9226  -17.0538   23.5722 C   0  0  0  0  0  0  0  0  0  0  0  0
    7.8111  -16.9475   22.6449 O   0  0  0  0  0  0  0  0  0  0  0  0
    6.7284  -15.8522   24.2943 N   0  0  0  0  0  0  0  0  0  0  0  0
    7.5653  -14.6944   24.1576 C   0  0  1  0  0  0  0  0  0  0  0  0
    6.6920  -13.5155   24.6287 C   0  0  0  0  0  0  0  0  0  0  0  0
    6.0716  -13.8415   26.3040 S   0  0  0  0  0  0  0  0  0  0  0  0
    8.8411  -14.7373   24.8673 C   0  0  0  0  0  0  0  0  0  0  0  0
    9.7275  -13.8360   24.6450 O   0  0  0  0  0  0  0  0  0  0  0  0
   10.3380  -13.1460   27.7148 C   0  0  0  0  0  0  0  0  0  0  0  0
    9.7752  -14.4603   28.2862 C   0  0  2  0  0  0  0  0  0  0  0  0
    9.6843  -14.2972   29.7614 C   0  0  0  0  0  0  0  0  0  0  0  0
   10.6600  -15.5516   27.8177 C   0  0  0  0  0  0  0  0  0  0  0  0
   10.6123  -15.8073   26.3391 C   0  0  2  0  0  0  0  0  0  0  0  0
    9.2511  -15.7008   25.8258 N   0  0  0  0  0  0  0  0  0  0  0  0
   11.2482  -17.0695   25.9675 C   0  0  0  0  0  0  0  0  0  0  0  0
   10.4485  -18.0330   25.3213 O   0  0  0  0  0  0  0  0  0  0  0  0
   12.4388  -17.4019   26.1583 O   0  0  0  0  0  0  0  0  0  0  0  0
  2  1  1  0
  2  3  1  0
  3  4  1  1
  5  7  1  0
  5  3  1  0
  5  6  1  6
  7  8  2  0
  9 10  1  0
  9  7  1  0
 10 11  1  1
 11 12  1  0
 13 10  1  0
 14 13  2  0
 16 15  1  6
 17 16  1  0
 18 16  1  0
 19 18  1  1
 19 20  1  0
 20 13  1  0
 21 22  1  0
 21 19  1  0
 23 21  2  0
M  END
$$$$
