ICL.pdb
     RDKit          3D

 23 22  0  0  1  0  0  0  0  0999 V2000
    7.6547  -11.8393   18.2967 C   0  0  0  0  0  0  0  0  0  0  0  0
    8.2973  -13.2027   18.3396 C   0  0  0  0  0  0  0  0  0  0  0  0
    7.9424  -14.0095   19.5362 C   0  0  2  0  0  0  0  0  0  0  0  0
    8.2620  -13.1704   20.7734 C   0  0  0  0  0  0  0  0  0  0  0  0
    8.5774  -15.3582   19.6395 C   0  0  2  0  0  0  0  0  0  0  0  0
    8.0400  -16.1392   18.5042 N   0  0  0  0  0  0  0  0  0  0  0  0
    8.3190  -16.1189   20.8541 C   0  0  0  0  0  0  0  0  0  0  0  0
    7.1537  -16.6449   21.0147 O   0  0  0  0  0  0  0  0  0  0  0  0
    9.1986  -16.3803   21.9316 N   0  0  0  0  0  0  0  0  0  0  0  0
    8.7703  -16.8685   23.2113 C   0  0  1  0  0  0  0  0  0  0  0  0
    9.4365  -18.2508   23.3522 C   0  0  0  0  0  0  0  0  0  0  0  0
   11.2403  -18.0785   23.2319 S   0  0  0  0  0  0  0  0  0  0  0  0
    9.0627  -16.0102   24.3564 C   0  0  0  0  0  0  0  0  0  0  0  0
   10.1508  -15.3299   24.3847 O   0  0  0  0  0  0  0  0  0  0  0  0
    8.2529  -12.1507   25.8371 C   0  0  0  0  0  0  0  0  0  0  0  0
    7.1357  -13.1825   26.0772 C   0  0  2  0  0  0  0  0  0  0  0  0
    5.8984  -12.4254   26.4047 C   0  0  0  0  0  0  0  0  0  0  0  0
    7.6166  -14.1064   27.1301 C   0  0  0  0  0  0  0  0  0  0  0  0
    8.6786  -15.0689   26.6833 C   0  0  2  0  0  0  0  0  0  0  0  0
    8.2536  -15.8196   25.5071 N   0  0  0  0  0  0  0  0  0  0  0  0
    9.1349  -15.9412   27.7632 C   0  0  0  0  0  0  0  0  0  0  0  0
    9.8061  -15.3373   28.8450 O   0  0  0  0  0  0  0  0  0  0  0  0
    8.9982  -17.1820   27.8427 O   0  0  0  0  0  0  0  0  0  0  0  0
  2  1  1  0
  2  3  1  0
  3  4  1  1
  5  7  1  0
  5  3  1  0
  5  6  1  6
  7  8  2  0
  9 10  1  0
  9  7  1  0
 10 11  1  1
 11 12  1  0
 13 10  1  0
 14 13  2  0
 16 15  1  1
 17 16  1  0
 18 16  1  0
 19 18  1  1
 19 20  1  0
 20 13  1  0
 21 22  1  0
 21 19  1  0
 23 21  2  0
M  END
$$$$
