ICL.pdb
     RDKit          3D

 23 22  0  0  1  0  0  0  0  0999 V2000
    8.6777  -11.8990   19.8601 C   0  0  0  0  0  0  0  0  0  0  0  0
    8.3281  -13.1866   20.5627 C   0  0  0  0  0  0  0  0  0  0  0  0
    7.8836  -14.2775   19.6564 C   0  0  2  0  0  0  0  0  0  0  0  0
    6.6068  -13.8096   18.9582 C   0  0  0  0  0  0  0  0  0  0  0  0
    7.6769  -15.6181   20.2831 C   0  0  2  0  0  0  0  0  0  0  0  0
    6.6035  -15.4290   21.2830 N   0  0  0  0  0  0  0  0  0  0  0  0
    8.8161  -16.2084   20.9718 C   0  0  0  0  0  0  0  0  0  0  0  0
    9.5327  -17.0762   20.3442 O   0  0  0  0  0  0  0  0  0  0  0  0
    9.2753  -15.9569   22.2867 N   0  0  0  0  0  0  0  0  0  0  0  0
   10.4184  -16.5995   22.8698 C   0  0  1  0  0  0  0  0  0  0  0  0
   11.5671  -16.3455   21.8746 C   0  0  0  0  0  0  0  0  0  0  0  0
   12.8959  -17.5525   22.1492 S   0  0  0  0  0  0  0  0  0  0  0  0
   10.7730  -16.1754   24.2216 C   0  0  0  0  0  0  0  0  0  0  0  0
   11.7148  -15.3212   24.3979 O   0  0  0  0  0  0  0  0  0  0  0  0
    6.5477  -13.4432   25.9902 C   0  0  0  0  0  0  0  0  0  0  0  0
    7.8520  -13.8904   26.6754 C   0  0  2  0  0  0  0  0  0  0  0  0
    8.6244  -12.6617   26.9989 C   0  0  0  0  0  0  0  0  0  0  0  0
    8.5203  -14.8419   25.7581 C   0  0  0  0  0  0  0  0  0  0  0  0
    9.5606  -15.7107   26.4039 C   0  0  2  0  0  0  0  0  0  0  0  0
   10.1773  -16.6097   25.4348 N   0  0  0  0  0  0  0  0  0  0  0  0
    9.0495  -16.4220   27.5736 C   0  0  0  0  0  0  0  0  0  0  0  0
    8.2176  -17.5357   27.3431 O   0  0  0  0  0  0  0  0  0  0  0  0
    9.2666  -16.1551   28.7762 O   0  0  0  0  0  0  0  0  0  0  0  0
  2  1  1  0
  2  3  1  0
  3  4  1  1
  5  7  1  0
  5  3  1  0
  5  6  1  1
  7  8  2  0
  9 10  1  0
  9  7  1  0
 10 11  1  6
 11 12  1  0
 13 10  1  0
 14 13  2  0
 16 15  1  6
 17 16  1  0
 18 16  1  0
 19 18  1  6
 19 20  1  0
 20 13  1  0
 21 22  1  0
 21 19  1  0
 23 21  2  0
M  END
$$$$
