ICL.pdb
     RDKit          3D

 23 22  0  0  1  0  0  0  0  0999 V2000
    7.6704  -12.1944   18.5273 C   0  0  0  0  0  0  0  0  0  0  0  0
    8.0025  -13.6547   18.7029 C   0  0  0  0  0  0  0  0  0  0  0  0
    7.6586  -14.2043   20.0403 C   0  0  2  0  0  0  0  0  0  0  0  0
    8.4652  -13.4292   21.0821 C   0  0  0  0  0  0  0  0  0  0  0  0
    7.8456  -15.6757   20.2213 C   0  0  2  0  0  0  0  0  0  0  0  0
    6.8940  -16.3158   19.2873 N   0  0  0  0  0  0  0  0  0  0  0  0
    7.5857  -16.2165   21.5482 C   0  0  0  0  0  0  0  0  0  0  0  0
    6.3692  -16.2499   21.9718 O   0  0  0  0  0  0  0  0  0  0  0  0
    8.5127  -16.7367   22.4826 N   0  0  0  0  0  0  0  0  0  0  0  0
    8.2074  -16.9683   23.8656 C   0  0  1  0  0  0  0  0  0  0  0  0
    8.6881  -18.4058   24.1429 C   0  0  0  0  0  0  0  0  0  0  0  0
    8.4506  -18.8051   25.8985 S   0  0  0  0  0  0  0  0  0  0  0  0
    8.7765  -16.0170   24.8166 C   0  0  0  0  0  0  0  0  0  0  0  0
   10.0027  -15.6547   24.7031 O   0  0  0  0  0  0  0  0  0  0  0  0
    6.4256  -11.6208   27.4474 C   0  0  0  0  0  0  0  0  0  0  0  0
    7.4441  -12.4681   26.6630 C   0  0  2  0  0  0  0  0  0  0  0  0
    6.8069  -12.8416   25.3725 C   0  0  0  0  0  0  0  0  0  0  0  0
    7.8308  -13.6005   27.5357 C   0  0  0  0  0  0  0  0  0  0  0  0
    8.7817  -14.5791   26.9096 C   0  0  2  0  0  0  0  0  0  0  0  0
    8.1118  -15.4060   25.9120 N   0  0  0  0  0  0  0  0  0  0  0  0
    9.4981  -15.3778   27.9017 C   0  0  0  0  0  0  0  0  0  0  0  0
   10.3797  -14.6993   28.7666 O   0  0  0  0  0  0  0  0  0  0  0  0
    9.4204  -16.6138   28.0774 O   0  0  0  0  0  0  0  0  0  0  0  0
  2  1  1  0
  2  3  1  0
  3  4  1  1
  5  7  1  0
  5  3  1  0
  5  6  1  6
  7  8  2  0
  9 10  1  0
  9  7  1  0
 10 11  1  1
 11 12  1  0
 13 10  1  0
 14 13  2  0
 16 15  1  1
 17 16  1  0
 18 16  1  0
 19 18  1  1
 19 20  1  0
 20 13  1  0
 21 22  1  0
 21 19  1  0
 23 21  2  0
M  END
$$$$
