ICL.pdb
     RDKit          3D

 23 22  0  0  1  0  0  0  0  0999 V2000
    7.5455  -12.1931   18.3022 C   0  0  0  0  0  0  0  0  0  0  0  0
    8.0105  -13.6246   18.3932 C   0  0  0  0  0  0  0  0  0  0  0  0
    7.9449  -14.2039   19.7603 C   0  0  2  0  0  0  0  0  0  0  0  0
    8.8600  -13.3741   20.6606 C   0  0  0  0  0  0  0  0  0  0  0  0
    8.2687  -15.6576   19.8814 C   0  0  2  0  0  0  0  0  0  0  0  0
    7.2208  -16.3642   19.1130 N   0  0  0  0  0  0  0  0  0  0  0  0
    8.2815  -16.2222   21.2236 C   0  0  0  0  0  0  0  0  0  0  0  0
    7.1549  -16.4535   21.8048 O   0  0  0  0  0  0  0  0  0  0  0  0
    9.3982  -16.5728   22.0193 N   0  0  0  0  0  0  0  0  0  0  0  0
    9.3024  -16.9962   23.3872 C   0  0  1  0  0  0  0  0  0  0  0  0
   10.4319  -18.0295   23.5629 C   0  0  0  0  0  0  0  0  0  0  0  0
   10.4700  -18.6115   25.2828 S   0  0  0  0  0  0  0  0  0  0  0  0
    9.3773  -15.9397   24.3928 C   0  0  0  0  0  0  0  0  0  0  0  0
   10.4042  -15.1709   24.4379 O   0  0  0  0  0  0  0  0  0  0  0  0
    5.8184  -12.1386   26.7898 C   0  0  0  0  0  0  0  0  0  0  0  0
    7.2981  -12.5638   26.8098 C   0  0  2  0  0  0  0  0  0  0  0  0
    7.9432  -11.9743   25.6067 C   0  0  0  0  0  0  0  0  0  0  0  0
    7.3240  -14.0425   26.8884 C   0  0  0  0  0  0  0  0  0  0  0  0
    8.6173  -14.6714   26.4573 C   0  0  2  0  0  0  0  0  0  0  0  0
    8.4066  -15.6351   25.3828 N   0  0  0  0  0  0  0  0  0  0  0  0
    9.3635  -15.2426   27.5764 C   0  0  0  0  0  0  0  0  0  0  0  0
    9.4607  -16.6468   27.6417 O   0  0  0  0  0  0  0  0  0  0  0  0
    9.9361  -14.6223   28.4994 O   0  0  0  0  0  0  0  0  0  0  0  0
  2  1  1  0
  2  3  1  0
  3  4  1  1
  5  7  1  0
  5  3  1  0
  5  6  1  6
  7  8  2  0
  9 10  1  0
  9  7  1  0
 10 11  1  1
 11 12  1  0
 13 10  1  0
 14 13  2  0
 16 15  1  6
 17 16  1  0
 18 16  1  0
 19 18  1  1
 19 20  1  0
 20 13  1  0
 21 22  1  0
 21 19  1  0
 23 21  2  0
M  END
$$$$
