ICL.pdb
     RDKit          3D

 23 22  0  0  1  0  0  0  0  0999 V2000
    8.3098  -12.2984   18.6308 C   0  0  0  0  0  0  0  0  0  0  0  0
    8.2562  -13.7960   18.7980 C   0  0  0  0  0  0  0  0  0  0  0  0
    7.6699  -14.2476   20.0870 C   0  0  2  0  0  0  0  0  0  0  0  0
    8.4836  -13.6129   21.2147 C   0  0  0  0  0  0  0  0  0  0  0  0
    7.5621  -15.7246   20.2858 C   0  0  2  0  0  0  0  0  0  0  0  0
    6.5680  -16.1883   19.2935 N   0  0  0  0  0  0  0  0  0  0  0  0
    7.1197  -16.1846   21.5947 C   0  0  0  0  0  0  0  0  0  0  0  0
    5.9420  -15.8520   21.9983 O   0  0  0  0  0  0  0  0  0  0  0  0
    7.8221  -16.9809   22.5304 N   0  0  0  0  0  0  0  0  0  0  0  0
    7.4751  -17.0734   23.9198 C   0  0  1  0  0  0  0  0  0  0  0  0
    7.5746  -18.5741   24.2549 C   0  0  0  0  0  0  0  0  0  0  0  0
    7.2698  -18.8295   26.0268 S   0  0  0  0  0  0  0  0  0  0  0  0
    8.2729  -16.2627   24.8360 C   0  0  0  0  0  0  0  0  0  0  0  0
    9.5442  -16.1827   24.6781 O   0  0  0  0  0  0  0  0  0  0  0  0
    7.3715  -12.0432   25.6195 C   0  0  0  0  0  0  0  0  0  0  0  0
    6.7236  -13.0044   26.6328 C   0  0  2  0  0  0  0  0  0  0  0  0
    5.7052  -12.2282   27.3888 C   0  0  0  0  0  0  0  0  0  0  0  0
    7.8189  -13.5820   27.4453 C   0  0  0  0  0  0  0  0  0  0  0  0
    8.6379  -14.6261   26.7430 C   0  0  2  0  0  0  0  0  0  0  0  0
    7.7979  -15.5085   25.9409 N   0  0  0  0  0  0  0  0  0  0  0  0
    9.5059  -15.3659   27.6566 C   0  0  0  0  0  0  0  0  0  0  0  0
    9.3426  -16.7642   27.7169 O   0  0  0  0  0  0  0  0  0  0  0  0
   10.3922  -14.8971   28.4045 O   0  0  0  0  0  0  0  0  0  0  0  0
  2  1  1  0
  2  3  1  0
  3  4  1  1
  5  7  1  0
  5  3  1  0
  5  6  1  6
  7  8  2  0
  9 10  1  0
  9  7  1  0
 10 11  1  1
 11 12  1  0
 13 10  1  0
 14 13  2  0
 16 15  1  6
 17 16  1  0
 18 16  1  0
 19 18  1  1
 19 20  1  0
 20 13  1  0
 21 22  1  0
 21 19  1  0
 23 21  2  0
M  END
$$$$
