ICL.pdb
     RDKit          3D

 23 22  0  0  1  0  0  0  0  0999 V2000
    8.8791  -11.7031   19.5726 C   0  0  0  0  0  0  0  0  0  0  0  0
    9.2351  -13.1394   19.8618 C   0  0  0  0  0  0  0  0  0  0  0  0
    8.3205  -14.1336   19.2420 C   0  0  2  0  0  0  0  0  0  0  0  0
    6.9014  -13.8158   19.7130 C   0  0  0  0  0  0  0  0  0  0  0  0
    8.6427  -15.5726   19.4832 C   0  0  2  0  0  0  0  0  0  0  0  0
    7.7778  -16.3350   18.5566 N   0  0  0  0  0  0  0  0  0  0  0  0
    8.4056  -16.0870   20.8247 C   0  0  0  0  0  0  0  0  0  0  0  0
    7.1958  -16.3611   21.1739 O   0  0  0  0  0  0  0  0  0  0  0  0
    9.3496  -16.3447   21.8472 N   0  0  0  0  0  0  0  0  0  0  0  0
    8.9976  -16.7926   23.1644 C   0  0  1  0  0  0  0  0  0  0  0  0
    9.8373  -18.0651   23.3886 C   0  0  0  0  0  0  0  0  0  0  0  0
    9.5515  -18.7023   25.0649 S   0  0  0  0  0  0  0  0  0  0  0  0
    9.1860  -15.8258   24.2428 C   0  0  0  0  0  0  0  0  0  0  0  0
   10.3321  -15.2740   24.4145 O   0  0  0  0  0  0  0  0  0  0  0  0
    5.4290  -12.4208   26.6711 C   0  0  0  0  0  0  0  0  0  0  0  0
    6.9487  -12.6092   26.5116 C   0  0  2  0  0  0  0  0  0  0  0  0
    7.2881  -12.2853   25.1006 C   0  0  0  0  0  0  0  0  0  0  0  0
    7.2628  -13.9908   26.9429 C   0  0  0  0  0  0  0  0  0  0  0  0
    8.5125  -14.5670   26.3428 C   0  0  2  0  0  0  0  0  0  0  0  0
    8.2105  -15.3922   25.1785 N   0  0  0  0  0  0  0  0  0  0  0  0
    9.3325  -15.2725   27.3252 C   0  0  0  0  0  0  0  0  0  0  0  0
   10.1376  -14.4919   28.1785 O   0  0  0  0  0  0  0  0  0  0  0  0
    9.4061  -16.5086   27.5017 O   0  0  0  0  0  0  0  0  0  0  0  0
  2  1  1  0
  2  3  1  0
  3  4  1  1
  5  7  1  0
  5  3  1  0
  5  6  1  6
  7  8  2  0
  9 10  1  0
  9  7  1  0
 10 11  1  1
 11 12  1  0
 13 10  1  0
 14 13  2  0
 16 15  1  6
 17 16  1  0
 18 16  1  0
 19 18  1  1
 19 20  1  0
 20 13  1  0
 21 22  1  0
 21 19  1  0
 23 21  2  0
M  END
$$$$
