ICL.pdb
     RDKit          3D

 23 22  0  0  1  0  0  0  0  0999 V2000
    6.2592  -12.0343   26.3968 C   0  0  0  0  0  0  0  0  0  0  0  0
    5.8679  -13.4350   25.9987 C   0  0  0  0  0  0  0  0  0  0  0  0
    6.8917  -14.1515   25.1941 C   0  0  2  0  0  0  0  0  0  0  0  0
    7.2158  -13.2848   23.9773 C   0  0  0  0  0  0  0  0  0  0  0  0
    6.5485  -15.5426   24.7701 C   0  0  2  0  0  0  0  0  0  0  0  0
    6.3016  -16.2908   26.0219 N   0  0  0  0  0  0  0  0  0  0  0  0
    7.5593  -16.2723   24.0174 C   0  0  0  0  0  0  0  0  0  0  0  0
    7.2799  -17.4600   23.6029 O   0  0  0  0  0  0  0  0  0  0  0  0
    8.8606  -15.8503   23.6549 N   0  0  0  0  0  0  0  0  0  0  0  0
   10.0126  -16.7059   23.6777 C   0  0  1  0  0  0  0  0  0  0  0  0
   10.8589  -16.2645   22.4680 C   0  0  0  0  0  0  0  0  0  0  0  0
   10.1762  -14.7352   21.7659 S   0  0  0  0  0  0  0  0  0  0  0  0
   10.7928  -16.6992   24.9124 C   0  0  0  0  0  0  0  0  0  0  0  0
   12.0670  -16.5528   24.8633 O   0  0  0  0  0  0  0  0  0  0  0  0
   10.1364  -13.9862   29.3632 C   0  0  0  0  0  0  0  0  0  0  0  0
   11.1195  -14.7908   28.4933 C   0  0  2  0  0  0  0  0  0  0  0  0
   11.1076  -14.1830   27.1362 C   0  0  0  0  0  0  0  0  0  0  0  0
   10.6991  -16.2093   28.5615 C   0  0  0  0  0  0  0  0  0  0  0  0
   11.1452  -17.0525   27.4022 C   0  0  2  0  0  0  0  0  0  0  0  0
   10.2965  -16.8413   26.2347 N   0  0  0  0  0  0  0  0  0  0  0  0
   11.2667  -18.4663   27.7512 C   0  0  0  0  0  0  0  0  0  0  0  0
   10.3935  -19.3693   27.1129 O   0  0  0  0  0  0  0  0  0  0  0  0
   12.0679  -18.9791   28.5635 O   0  0  0  0  0  0  0  0  0  0  0  0
  2  1  1  0
  2  3  1  0
  3  4  1  6
  5  7  1  0
  5  3  1  0
  5  6  1  1
  7  8  2  0
  9 10  1  0
  9  7  1  0
 10 11  1  6
 11 12  1  0
 13 10  1  0
 14 13  2  0
 16 15  1  1
 17 16  1  0
 18 16  1  0
 19 18  1  1
 19 20  1  0
 20 13  1  0
 21 22  1  0
 21 19  1  0
 23 21  2  0
M  END
$$$$
