ICL.pdb
     RDKit          3D

 23 22  0  0  1  0  0  0  0  0999 V2000
    7.5361  -11.8824   18.4064 C   0  0  0  0  0  0  0  0  0  0  0  0
    8.1247  -13.2701   18.4472 C   0  0  0  0  0  0  0  0  0  0  0  0
    8.0581  -13.9244   19.7801 C   0  0  2  0  0  0  0  0  0  0  0  0
    8.7068  -12.9813   20.7932 C   0  0  0  0  0  0  0  0  0  0  0  0
    8.6548  -15.2907   19.8793 C   0  0  2  0  0  0  0  0  0  0  0  0
    7.8773  -16.1335   18.9449 N   0  0  0  0  0  0  0  0  0  0  0  0
    8.6160  -15.9355   21.1844 C   0  0  0  0  0  0  0  0  0  0  0  0
    7.4987  -16.4299   21.5937 O   0  0  0  0  0  0  0  0  0  0  0  0
    9.6719  -16.1099   22.1106 N   0  0  0  0  0  0  0  0  0  0  0  0
    9.5102  -16.7180   23.4003 C   0  0  1  0  0  0  0  0  0  0  0  0
   10.5635  -17.8419   23.4442 C   0  0  0  0  0  0  0  0  0  0  0  0
    9.9287  -19.3126   22.5886 S   0  0  0  0  0  0  0  0  0  0  0  0
    9.6268  -15.8250   24.5502 C   0  0  0  0  0  0  0  0  0  0  0  0
   10.6991  -15.1409   24.7229 O   0  0  0  0  0  0  0  0  0  0  0  0
    7.8150  -12.0519   26.0009 C   0  0  0  0  0  0  0  0  0  0  0  0
    6.9670  -13.3203   26.2074 C   0  0  2  0  0  0  0  0  0  0  0  0
    5.5886  -12.8790   26.5487 C   0  0  0  0  0  0  0  0  0  0  0  0
    7.6498  -14.1363   27.2377 C   0  0  0  0  0  0  0  0  0  0  0  0
    8.8987  -14.8241   26.7674 C   0  0  2  0  0  0  0  0  0  0  0  0
    8.6528  -15.6025   25.5586 N   0  0  0  0  0  0  0  0  0  0  0  0
    9.5318  -15.6172   27.8189 C   0  0  0  0  0  0  0  0  0  0  0  0
   10.1335  -14.9190   28.8846 O   0  0  0  0  0  0  0  0  0  0  0  0
    9.6042  -16.8641   27.8864 O   0  0  0  0  0  0  0  0  0  0  0  0
  2  1  1  0
  2  3  1  0
  3  4  1  1
  5  7  1  0
  5  3  1  0
  5  6  1  6
  7  8  2  0
  9 10  1  0
  9  7  1  0
 10 11  1  1
 11 12  1  0
 13 10  1  0
 14 13  2  0
 16 15  1  1
 17 16  1  0
 18 16  1  0
 19 18  1  1
 19 20  1  0
 20 13  1  0
 21 22  1  0
 21 19  1  0
 23 21  2  0
M  END
$$$$
