MMS.pdb
     RDKit          3D

 23 22  0  0  1  0  0  0  0  0999 V2000
   16.6336  -14.8789  -16.1900 C   0  0  0  0  0  0  0  0  0  0  0  0
   16.9886  -14.3527  -17.8941 S   0  0  0  0  0  0  0  0  0  0  0  0
   18.7808  -14.2308  -18.1230 C   0  0  0  0  0  0  0  0  0  0  0  0
   19.4238  -13.3188  -17.1048 C   0  0  0  0  0  0  0  0  0  0  0  0
   20.9086  -13.2337  -17.2412 C   0  0  2  0  0  0  0  0  0  0  0  0
   21.5811  -14.3664  -16.6669 N   0  0  0  0  0  0  0  0  0  0  0  0
   21.3588  -11.9928  -16.5593 C   0  0  0  0  0  0  0  0  0  0  0  0
   21.3558  -11.9365  -15.2918 O   0  0  0  0  0  0  0  0  0  0  0  0
   26.4317  -10.7170  -14.8487 C   0  0  0  0  0  0  0  0  0  0  0  0
   25.0078   -9.6907  -15.2713 S   0  0  0  0  0  0  0  0  0  0  0  0
   24.6165   -9.8587  -17.0254 C   0  0  0  0  0  0  0  0  0  0  0  0
   23.3960   -9.0158  -17.4159 C   0  0  0  0  0  0  0  0  0  0  0  0
   22.2155   -9.6463  -16.7061 C   0  0  2  0  0  0  0  0  0  0  0  0
   21.7925  -10.8682  -17.3197 N   0  0  0  0  0  0  0  0  0  0  0  0
   21.0988   -8.6731  -16.5390 C   0  0  0  0  0  0  0  0  0  0  0  0
   20.6164   -8.1406  -17.5629 O   0  0  0  0  0  0  0  0  0  0  0  0
   19.3290   -8.0756  -12.7927 O   0  0  0  0  0  0  0  0  0  0  0  0
   18.5933   -7.8598  -13.9569 C   0  0  0  0  0  0  0  0  0  0  0  0
   19.5056   -7.3704  -15.0772 C   0  0  2  0  0  0  0  0  0  0  0  0
   20.5631   -8.3275  -15.2812 N   0  0  0  0  0  0  0  0  0  0  0  0
   20.0054   -6.0135  -14.8003 C   0  0  0  0  0  0  0  0  0  0  0  0
   21.3603   -5.7183  -14.7415 O   0  0  0  0  0  0  0  0  0  0  0  0
   19.2011   -5.0654  -14.6052 O   0  0  0  0  0  0  0  0  0  0  0  0
  1  2  1  0
  2  3  1  0
  4  5  1  0
  4  3  1  0
  5  7  1  0
  5  6  1  1
  7  8  2  0
  9 10  1  0
 10 11  1  0
 11 12  1  0
 13 12  1  6
 13 15  1  0
 14  7  1  0
 14 13  1  0
 15 20  1  0
 16 15  2  0
 18 17  1  0
 19 18  1  1
 20 19  1  0
 21 19  1  0
 22 21  1  0
 23 21  2  0
M  END
$$$$
