MMS.pdb
     RDKit          3D

 23 22  0  0  1  0  0  0  0  0999 V2000
   31.9278   -9.4995  -19.1881 C   0  0  0  0  0  0  0  0  0  0  0  0
   30.1620   -9.9073  -19.3386 S   0  0  0  0  0  0  0  0  0  0  0  0
   29.2974   -9.3934  -17.8327 C   0  0  0  0  0  0  0  0  0  0  0  0
   27.8541   -9.8391  -17.8248 C   0  0  0  0  0  0  0  0  0  0  0  0
   27.5117  -10.7145  -16.6643 C   0  0  2  0  0  0  0  0  0  0  0  0
   27.9134  -12.0795  -16.8656 N   0  0  0  0  0  0  0  0  0  0  0  0
   26.0403  -10.6556  -16.4671 C   0  0  0  0  0  0  0  0  0  0  0  0
   25.2817  -11.3808  -17.1802 O   0  0  0  0  0  0  0  0  0  0  0  0
   19.7348  -11.6088  -13.9324 C   0  0  0  0  0  0  0  0  0  0  0  0
   21.5393  -11.6445  -13.8886 S   0  0  0  0  0  0  0  0  0  0  0  0
   22.1921   -9.9710  -13.7106 C   0  0  0  0  0  0  0  0  0  0  0  0
   23.7243   -9.9515  -13.7780 C   0  0  0  0  0  0  0  0  0  0  0  0
   24.0699   -9.7268  -15.2357 C   0  0  2  0  0  0  0  0  0  0  0  0
   25.4780   -9.7905  -15.4840 N   0  0  0  0  0  0  0  0  0  0  0  0
   23.4535   -8.4720  -15.7532 C   0  0  0  0  0  0  0  0  0  0  0  0
   23.9824   -7.3803  -15.4478 O   0  0  0  0  0  0  0  0  0  0  0  0
   19.7398   -8.6005  -17.6233 O   0  0  0  0  0  0  0  0  0  0  0  0
   20.6294   -7.6459  -18.1139 C   0  0  0  0  0  0  0  0  0  0  0  0
   21.6466   -7.2690  -17.0414 C   0  0  2  0  0  0  0  0  0  0  0  0
   22.3042   -8.4611  -16.5701 N   0  0  0  0  0  0  0  0  0  0  0  0
   21.0151   -6.4960  -15.9591 C   0  0  0  0  0  0  0  0  0  0  0  0
   20.9644   -6.9549  -14.6502 O   0  0  0  0  0  0  0  0  0  0  0  0
   20.4935   -5.3755  -16.1965 O   0  0  0  0  0  0  0  0  0  0  0  0
  1  2  1  0
  2  3  1  0
  4  5  1  0
  4  3  1  0
  5  7  1  0
  5  6  1  6
  7  8  2  0
  9 10  1  0
 10 11  1  0
 11 12  1  0
 13 12  1  1
 13 15  1  0
 14  7  1  0
 14 13  1  0
 15 20  1  0
 16 15  2  0
 18 17  1  0
 19 18  1  6
 20 19  1  0
 21 19  1  0
 22 21  1  0
 23 21  2  0
M  END
$$$$
