MMS.pdb
     RDKit          3D

 23 22  0  0  1  0  0  0  0  0999 V2000
   25.5387   -8.5572  -15.3648 C   0  0  0  0  0  0  0  0  0  0  0  0
   25.9333  -10.3317  -15.4136 S   0  0  0  0  0  0  0  0  0  0  0  0
   24.4773  -11.2839  -14.9107 C   0  0  0  0  0  0  0  0  0  0  0  0
   23.1927  -10.5232  -15.1406 C   0  0  0  0  0  0  0  0  0  0  0  0
   21.9756  -11.2736  -14.7092 C   0  0  2  0  0  0  0  0  0  0  0  0
   21.7402  -12.4470  -15.5046 N   0  0  0  0  0  0  0  0  0  0  0  0
   20.8113  -10.3576  -14.8218 C   0  0  0  0  0  0  0  0  0  0  0  0
   20.3861  -10.0207  -15.9687 O   0  0  0  0  0  0  0  0  0  0  0  0
   15.4508   -9.9673  -10.8973 C   0  0  0  0  0  0  0  0  0  0  0  0
   15.7294   -8.2657  -11.4325 S   0  0  0  0  0  0  0  0  0  0  0  0
   16.9176   -8.2256  -12.7907 C   0  0  0  0  0  0  0  0  0  0  0  0
   18.0779   -9.2011  -12.5561 C   0  0  0  0  0  0  0  0  0  0  0  0
   19.0342   -8.9896  -13.7118 C   0  0  2  0  0  0  0  0  0  0  0  0
   20.1715   -9.8563  -13.6511 N   0  0  0  0  0  0  0  0  0  0  0  0
   19.4145   -7.5546  -13.8468 C   0  0  0  0  0  0  0  0  0  0  0  0
   20.2262   -7.0751  -13.0246 O   0  0  0  0  0  0  0  0  0  0  0  0
   18.4469   -5.4266  -17.2738 O   0  0  0  0  0  0  0  0  0  0  0  0
   19.5238   -5.0332  -16.4809 C   0  0  0  0  0  0  0  0  0  0  0  0
   19.2334   -5.3225  -15.0116 C   0  0  2  0  0  0  0  0  0  0  0  0
   18.9018   -6.7161  -14.8581 N   0  0  0  0  0  0  0  0  0  0  0  0
   18.1906   -4.4237  -14.4897 C   0  0  0  0  0  0  0  0  0  0  0  0
   18.3960   -3.0601  -14.3315 O   0  0  0  0  0  0  0  0  0  0  0  0
   17.0620   -4.8768  -14.1661 O   0  0  0  0  0  0  0  0  0  0  0  0
  1  2  1  0
  2  3  1  0
  4  5  1  0
  4  3  1  0
  5  7  1  0
  5  6  1  6
  7  8  2  0
  9 10  1  0
 10 11  1  0
 11 12  1  0
 13 12  1  1
 13 15  1  0
 14  7  1  0
 14 13  1  0
 15 20  1  0
 16 15  2  0
 18 17  1  0
 19 18  1  6
 20 19  1  0
 21 19  1  0
 22 21  1  0
 23 21  2  0
M  END
$$$$
