MMS.pdb
     RDKit          3D

 23 22  0  0  1  0  0  0  0  0999 V2000
   26.7814  -16.3088  -14.9413 C   0  0  0  0  0  0  0  0  0  0  0  0
   28.2173  -16.9529  -15.8524 S   0  0  0  0  0  0  0  0  0  0  0  0
   27.7393  -18.4580  -16.7386 C   0  0  0  0  0  0  0  0  0  0  0  0
   26.7772  -19.3067  -15.9412 C   0  0  0  0  0  0  0  0  0  0  0  0
   27.4290  -20.4750  -15.2776 C   0  0  2  0  0  0  0  0  0  0  0  0
   27.7359  -21.5330  -16.2003 N   0  0  0  0  0  0  0  0  0  0  0  0
   26.5016  -20.9824  -14.2336 C   0  0  0  0  0  0  0  0  0  0  0  0
   25.6868  -21.9131  -14.5162 O   0  0  0  0  0  0  0  0  0  0  0  0
   26.1866  -19.2818   -7.4857 C   0  0  0  0  0  0  0  0  0  0  0  0
   25.8036  -21.0190   -7.7939 S   0  0  0  0  0  0  0  0  0  0  0  0
   25.2535  -21.2435   -9.4984 C   0  0  0  0  0  0  0  0  0  0  0  0
   26.1987  -20.5577  -10.4928 C   0  0  0  0  0  0  0  0  0  0  0  0
   25.6827  -20.9214  -11.8699 C   0  0  2  0  0  0  0  0  0  0  0  0
   26.5220  -20.4302  -12.9199 N   0  0  0  0  0  0  0  0  0  0  0  0
   24.2576  -20.5184  -12.0401 C   0  0  0  0  0  0  0  0  0  0  0  0
   24.0125  -19.3766  -12.4883 O   0  0  0  0  0  0  0  0  0  0  0  0
   20.0711  -19.5711  -11.0736 O   0  0  0  0  0  0  0  0  0  0  0  0
   21.4317  -19.8604  -10.9825 C   0  0  0  0  0  0  0  0  0  0  0  0
   21.7885  -21.0245  -11.9015 C   0  0  2  0  0  0  0  0  0  0  0  0
   23.1765  -21.3653  -11.7198 N   0  0  0  0  0  0  0  0  0  0  0  0
   21.4514  -20.7181  -13.3015 C   0  0  0  0  0  0  0  0  0  0  0  0
   22.4139  -20.3660  -14.2376 O   0  0  0  0  0  0  0  0  0  0  0  0
   20.2571  -20.7681  -13.6953 O   0  0  0  0  0  0  0  0  0  0  0  0
  1  2  1  0
  2  3  1  0
  4  5  1  0
  4  3  1  0
  5  7  1  0
  5  6  1  6
  7  8  2  0
  9 10  1  0
 10 11  1  0
 11 12  1  0
 13 12  1  1
 13 15  1  0
 14  7  1  0
 14 13  1  0
 15 20  1  0
 16 15  2  0
 18 17  1  0
 19 18  1  1
 20 19  1  0
 21 19  1  0
 22 21  1  0
 23 21  2  0
M  END
$$$$
