MMS.pdb
     RDKit          3D

 23 22  0  0  1  0  0  0  0  0999 V2000
   27.3166  -15.2113  -15.2108 C   0  0  0  0  0  0  0  0  0  0  0  0
   27.4064  -16.3959  -16.5876 S   0  0  0  0  0  0  0  0  0  0  0  0
   28.0901  -17.9618  -15.9877 C   0  0  0  0  0  0  0  0  0  0  0  0
   27.0180  -18.8859  -15.4601 C   0  0  0  0  0  0  0  0  0  0  0  0
   27.5641  -20.0829  -14.7535 C   0  0  2  0  0  0  0  0  0  0  0  0
   28.2411  -20.9868  -15.6420 N   0  0  0  0  0  0  0  0  0  0  0  0
   26.4283  -20.7861  -14.1031 C   0  0  0  0  0  0  0  0  0  0  0  0
   25.8726  -21.7617  -14.6941 O   0  0  0  0  0  0  0  0  0  0  0  0
   27.7732  -20.8900   -7.6746 C   0  0  0  0  0  0  0  0  0  0  0  0
   26.1439  -20.5060   -8.3510 S   0  0  0  0  0  0  0  0  0  0  0  0
   26.0442  -21.0324  -10.0747 C   0  0  0  0  0  0  0  0  0  0  0  0
   24.7200  -20.6060  -10.7206 C   0  0  0  0  0  0  0  0  0  0  0  0
   24.8350  -20.9821  -12.1836 C   0  0  2  0  0  0  0  0  0  0  0  0
   25.9607  -20.3713  -12.8223 N   0  0  0  0  0  0  0  0  0  0  0  0
   23.5583  -20.7315  -12.9111 C   0  0  0  0  0  0  0  0  0  0  0  0
   23.2043  -19.5466  -13.0992 O   0  0  0  0  0  0  0  0  0  0  0  0
   21.0640  -23.9214  -14.1211 O   0  0  0  0  0  0  0  0  0  0  0  0
   21.2045  -22.8115  -14.9528 C   0  0  0  0  0  0  0  0  0  0  0  0
   21.5094  -21.5658  -14.1268 C   0  0  2  0  0  0  0  0  0  0  0  0
   22.7345  -21.7682  -13.3961 N   0  0  0  0  0  0  0  0  0  0  0  0
   20.3742  -21.2142  -13.2577 C   0  0  0  0  0  0  0  0  0  0  0  0
   19.1248  -20.8845  -13.7644 O   0  0  0  0  0  0  0  0  0  0  0  0
   20.5089  -21.2027  -12.0065 O   0  0  0  0  0  0  0  0  0  0  0  0
  1  2  1  0
  2  3  1  0
  4  5  1  0
  4  3  1  0
  5  7  1  0
  5  6  1  6
  7  8  2  0
  9 10  1  0
 10 11  1  0
 11 12  1  0
 13 12  1  1
 13 15  1  0
 14  7  1  0
 14 13  1  0
 15 20  1  0
 16 15  2  0
 18 17  1  0
 19 18  1  1
 20 19  1  0
 21 19  1  0
 22 21  1  0
 23 21  2  0
M  END
$$$$
