MMS.pdb
     RDKit          3D

 23 22  0  0  1  0  0  0  0  0999 V2000
   26.2084  -17.1353  -18.7401 C   0  0  0  0  0  0  0  0  0  0  0  0
   27.8483  -16.7283  -18.0676 S   0  0  0  0  0  0  0  0  0  0  0  0
   28.5756  -18.2100  -17.3228 C   0  0  0  0  0  0  0  0  0  0  0  0
   27.5539  -19.0277  -16.5682 C   0  0  0  0  0  0  0  0  0  0  0  0
   28.1543  -20.1507  -15.7880 C   0  0  2  0  0  0  0  0  0  0  0  0
   28.6356  -21.2115  -16.6294 N   0  0  0  0  0  0  0  0  0  0  0  0
   27.1101  -20.6798  -14.8731 C   0  0  0  0  0  0  0  0  0  0  0  0
   26.3915  -21.6590  -15.2399 O   0  0  0  0  0  0  0  0  0  0  0  0
   23.9460  -21.0631   -7.6761 C   0  0  0  0  0  0  0  0  0  0  0  0
   25.3127  -20.3739   -8.6336 S   0  0  0  0  0  0  0  0  0  0  0  0
   25.1358  -20.8101  -10.3762 C   0  0  0  0  0  0  0  0  0  0  0  0
   26.2465  -20.1868  -11.2309 C   0  0  0  0  0  0  0  0  0  0  0  0
   25.9491  -20.5991  -12.6579 C   0  0  2  0  0  0  0  0  0  0  0  0
   26.9116  -20.0942  -13.5890 N   0  0  0  0  0  0  0  0  0  0  0  0
   24.5491  -20.2595  -13.0411 C   0  0  0  0  0  0  0  0  0  0  0  0
   24.2709  -19.0627  -13.2758 O   0  0  0  0  0  0  0  0  0  0  0  0
   22.0975  -22.1762  -15.5380 O   0  0  0  0  0  0  0  0  0  0  0  0
   21.5643  -22.1129  -14.2516 C   0  0  0  0  0  0  0  0  0  0  0  0
   22.1578  -20.9322  -13.4895 C   0  0  2  0  0  0  0  0  0  0  0  0
   23.5273  -21.2251  -13.1511 N   0  0  0  0  0  0  0  0  0  0  0  0
   21.3370  -20.5913  -12.3158 C   0  0  0  0  0  0  0  0  0  0  0  0
   20.1568  -19.8680  -12.4192 O   0  0  0  0  0  0  0  0  0  0  0  0
   21.6905  -20.9536  -11.1636 O   0  0  0  0  0  0  0  0  0  0  0  0
  1  2  1  0
  2  3  1  0
  4  5  1  0
  4  3  1  0
  5  7  1  0
  5  6  1  6
  7  8  2  0
  9 10  1  0
 10 11  1  0
 11 12  1  0
 13 12  1  1
 13 15  1  0
 14  7  1  0
 14 13  1  0
 15 20  1  0
 16 15  2  0
 18 17  1  0
 19 18  1  1
 20 19  1  0
 21 19  1  0
 22 21  1  0
 23 21  2  0
M  END
$$$$
