MMS.pdb
     RDKit          3D

 23 22  0  0  1  0  0  0  0  0999 V2000
   23.3001  -22.1235  -20.1008 C   0  0  0  0  0  0  0  0  0  0  0  0
   24.2133  -20.5554  -19.9828 S   0  0  0  0  0  0  0  0  0  0  0  0
   24.8152  -20.3381  -18.2887 C   0  0  0  0  0  0  0  0  0  0  0  0
   23.7290  -20.5694  -17.2648 C   0  0  0  0  0  0  0  0  0  0  0  0
   24.1939  -20.3853  -15.8575 C   0  0  2  0  0  0  0  0  0  0  0  0
   25.0973  -21.4199  -15.4352 N   0  0  0  0  0  0  0  0  0  0  0  0
   22.9964  -20.3848  -14.9781 C   0  0  0  0  0  0  0  0  0  0  0  0
   22.8184  -21.3372  -14.1590 O   0  0  0  0  0  0  0  0  0  0  0  0
   19.7980  -20.2976  -10.4186 C   0  0  0  0  0  0  0  0  0  0  0  0
   20.4491  -18.6492  -10.7626 S   0  0  0  0  0  0  0  0  0  0  0  0
   19.8157  -18.0453  -12.3413 C   0  0  0  0  0  0  0  0  0  0  0  0
   20.9321  -17.9114  -13.3847 C   0  0  0  0  0  0  0  0  0  0  0  0
   20.9433  -19.2207  -14.1466 C   0  0  2  0  0  0  0  0  0  0  0  0
   22.0487  -19.3227  -15.0499 N   0  0  0  0  0  0  0  0  0  0  0  0
   19.6340  -19.4727  -14.8132 C   0  0  0  0  0  0  0  0  0  0  0  0
   19.3779  -18.8571  -15.8717 O   0  0  0  0  0  0  0  0  0  0  0  0
   17.5553  -22.9087  -14.2280 O   0  0  0  0  0  0  0  0  0  0  0  0
   16.7194  -21.7935  -14.1971 C   0  0  0  0  0  0  0  0  0  0  0  0
   17.3840  -20.6137  -14.8995 C   0  0  2  0  0  0  0  0  0  0  0  0
   18.6742  -20.3723  -14.3054 N   0  0  0  0  0  0  0  0  0  0  0  0
   16.5132  -19.4266  -14.8822 C   0  0  0  0  0  0  0  0  0  0  0  0
   15.6331  -19.1357  -15.9153 O   0  0  0  0  0  0  0  0  0  0  0  0
   16.5442  -18.6273  -13.9106 O   0  0  0  0  0  0  0  0  0  0  0  0
  1  2  1  0
  2  3  1  0
  4  5  1  0
  4  3  1  0
  5  7  1  0
  5  6  1  1
  7  8  2  0
  9 10  1  0
 10 11  1  0
 11 12  1  0
 13 12  1  6
 13 15  1  0
 14  7  1  0
 14 13  1  0
 15 20  1  0
 16 15  2  0
 18 17  1  0
 19 18  1  1
 20 19  1  0
 21 19  1  0
 22 21  1  0
 23 21  2  0
M  END
$$$$
