HNT.pdb
     RDKit          3D

 26 26  0  0  1  0  0  0  0  0999 V2000
   18.8098  -12.2571  -18.0703 N   0  0  0  0  0  0  0  0  0  0  0  0
   18.8245  -11.7461  -16.7360 C   0  0  1  0  0  0  0  0  0  0  0  0
   19.7103  -12.5222  -15.7905 C   0  0  0  0  0  0  0  0  0  0  0  0
   19.2015  -13.9053  -15.7231 C   0  0  0  0  0  0  0  0  0  0  0  0
   19.8464  -15.0329  -16.1730 C   0  0  0  0  0  0  0  0  0  0  0  0
   19.0578  -16.0803  -15.9314 N   0  0  0  0  0  0  0  0  0  0  0  0
   17.9399  -15.6385  -15.3438 C   0  0  0  0  0  0  0  0  0  0  0  0
   18.0262  -14.3009  -15.2147 N   0  0  0  0  0  0  0  0  0  0  0  0
   19.1883  -10.2789  -16.6735 C   0  0  0  0  0  0  0  0  0  0  0  0
   20.2478   -9.9667  -17.2301 O   0  0  0  0  0  0  0  0  0  0  0  0
   16.8250   -7.6770  -18.0860 N   0  0  0  0  0  0  0  0  0  0  0  0
   16.3801   -7.1022  -16.8797 C   0  0  0  0  0  0  0  0  0  0  0  0
   15.2203   -6.5747  -16.8689 O   0  0  0  0  0  0  0  0  0  0  0  0
   17.2513   -7.1351  -15.7137 C   0  0  0  0  0  0  0  0  0  0  0  0
   18.5353   -7.9255  -15.8778 C   0  0  2  0  0  0  0  0  0  0  0  0
   18.3822   -9.3399  -16.0302 N   0  0  0  0  0  0  0  0  0  0  0  0
   19.5181   -7.4881  -14.8862 C   0  0  0  0  0  0  0  0  0  0  0  0
   19.3508   -7.7410  -13.6466 O   0  0  0  0  0  0  0  0  0  0  0  0
   22.9716   -8.5441  -14.4394 C   0  0  0  0  0  0  0  0  0  0  0  0
   23.0251   -7.0351  -14.5817 C   0  0  1  0  0  0  0  0  0  0  0  0
   23.3595   -6.7144  -15.8897 O   0  0  0  0  0  0  0  0  0  0  0  0
   21.6824   -6.4503  -14.1879 C   0  0  2  0  0  0  0  0  0  0  0  0
   20.7032   -6.7692  -15.2176 N   0  0  0  0  0  0  0  0  0  0  0  0
   21.8504   -4.9864  -14.0646 C   0  0  0  0  0  0  0  0  0  0  0  0
   22.6033   -4.3886  -13.0684 O   0  0  0  0  0  0  0  0  0  0  0  0
   21.2826   -4.2470  -14.9049 O   0  0  0  0  0  0  0  0  0  0  0  0
  2  3  1  0
  2  9  1  0
  2  1  1  6
  4  5  2  0
  4  3  1  0
  6  5  1  0
  7  8  2  0
  7  6  1  0
  8  4  1  0
  9 16  1  0
 10  9  2  0
 12 14  1  0
 12 11  1  0
 13 12  2  0
 15 14  1  1
 16 15  1  0
 17 23  1  0
 17 15  1  0
 18 17  2  0
 20 19  1  6
 20 22  1  0
 21 20  1  0
 22 24  1  0
 22 23  1  6
 24 25  1  0
 26 24  2  0
M  END
$$$$
