HNT.pdb
     RDKit          3D

 26 26  0  0  1  0  0  0  0  0999 V2000
   22.5641  -12.9395  -17.2211 N   0  0  0  0  0  0  0  0  0  0  0  0
   23.0540  -12.0245  -16.2391 C   0  0  1  0  0  0  0  0  0  0  0  0
   24.4893  -11.6053  -16.4515 C   0  0  0  0  0  0  0  0  0  0  0  0
   25.3333  -12.8118  -16.3601 C   0  0  0  0  0  0  0  0  0  0  0  0
   25.9094  -13.4840  -17.4119 C   0  0  0  0  0  0  0  0  0  0  0  0
   26.5902  -14.5170  -16.9149 N   0  0  0  0  0  0  0  0  0  0  0  0
   26.4554  -14.5082  -15.5838 C   0  0  0  0  0  0  0  0  0  0  0  0
   25.6827  -13.4602  -15.2404 N   0  0  0  0  0  0  0  0  0  0  0  0
   22.1870  -10.7924  -16.1008 C   0  0  0  0  0  0  0  0  0  0  0  0
   21.8354  -10.2644  -17.1626 O   0  0  0  0  0  0  0  0  0  0  0  0
   18.8471   -7.9317  -11.8407 N   0  0  0  0  0  0  0  0  0  0  0  0
   18.9909   -8.3801  -13.1680 C   0  0  0  0  0  0  0  0  0  0  0  0
   18.2994   -7.7987  -14.0664 O   0  0  0  0  0  0  0  0  0  0  0  0
   19.9102   -9.4726  -13.4527 C   0  0  0  0  0  0  0  0  0  0  0  0
   20.9534   -9.1901  -14.5169 C   0  0  2  0  0  0  0  0  0  0  0  0
   21.8092  -10.2848  -14.8579 N   0  0  0  0  0  0  0  0  0  0  0  0
   21.6180   -7.9175  -14.2357 C   0  0  0  0  0  0  0  0  0  0  0  0
   22.4398   -7.8114  -13.2652 O   0  0  0  0  0  0  0  0  0  0  0  0
   21.3239   -4.5367  -16.8401 C   0  0  0  0  0  0  0  0  0  0  0  0
   22.5972   -4.9503  -16.1275 C   0  0  1  0  0  0  0  0  0  0  0  0
   23.4178   -3.8405  -15.9841 O   0  0  0  0  0  0  0  0  0  0  0  0
   22.2408   -5.5597  -14.7852 C   0  0  2  0  0  0  0  0  0  0  0  0
   21.4071   -6.7341  -15.0013 N   0  0  0  0  0  0  0  0  0  0  0  0
   21.5078   -4.5364  -14.0094 C   0  0  0  0  0  0  0  0  0  0  0  0
   22.0979   -3.3807  -13.5269 O   0  0  0  0  0  0  0  0  0  0  0  0
   20.2890   -4.7234  -13.7757 O   0  0  0  0  0  0  0  0  0  0  0  0
  2  3  1  0
  2  9  1  0
  2  1  1  6
  4  5  2  0
  4  3  1  0
  6  5  1  0
  7  8  2  0
  7  6  1  0
  8  4  1  0
  9 16  1  0
 10  9  2  0
 12 14  1  0
 12 11  1  0
 13 12  2  0
 15 14  1  1
 16 15  1  0
 17 23  1  0
 17 15  1  0
 18 17  2  0
 20 19  1  1
 20 22  1  0
 21 20  1  0
 22 24  1  0
 22 23  1  6
 24 25  1  0
 26 24  2  0
M  END
$$$$
