HNT.pdb
     RDKit          3D

 26 26  0  0  1  0  0  0  0  0999 V2000
   37.9420  -11.3293  -16.0806 N   0  0  0  0  0  0  0  0  0  0  0  0
   36.5158  -11.4016  -16.0329 C   0  0  1  0  0  0  0  0  0  0  0  0
   35.8591  -10.1873  -15.4203 C   0  0  0  0  0  0  0  0  0  0  0  0
   36.4059  -10.0119  -14.0613 C   0  0  0  0  0  0  0  0  0  0  0  0
   36.6728  -11.0114  -13.1559 C   0  0  0  0  0  0  0  0  0  0  0  0
   37.1536  -10.4444  -12.0492 N   0  0  0  0  0  0  0  0  0  0  0  0
   37.1943   -9.1205  -12.2384 C   0  0  0  0  0  0  0  0  0  0  0  0
   36.7348   -8.8523  -13.4754 N   0  0  0  0  0  0  0  0  0  0  0  0
   35.8966  -11.6777  -17.3854 C   0  0  0  0  0  0  0  0  0  0  0  0
   36.5134  -11.2263  -18.3578 O   0  0  0  0  0  0  0  0  0  0  0  0
   32.9727  -14.2268  -20.9678 N   0  0  0  0  0  0  0  0  0  0  0  0
   32.3073  -14.3425  -19.7321 C   0  0  0  0  0  0  0  0  0  0  0  0
   31.1324  -14.8357  -19.7374 O   0  0  0  0  0  0  0  0  0  0  0  0
   32.9803  -13.9006  -18.5190 C   0  0  0  0  0  0  0  0  0  0  0  0
   33.9809  -12.7749  -18.6984 C   0  0  2  0  0  0  0  0  0  0  0  0
   34.7082  -12.3939  -17.5267 N   0  0  0  0  0  0  0  0  0  0  0  0
   33.3708  -11.6846  -19.4596 C   0  0  0  0  0  0  0  0  0  0  0  0
   32.5101  -10.9133  -18.9184 O   0  0  0  0  0  0  0  0  0  0  0  0
   33.4440   -8.3863  -23.0332 C   0  0  0  0  0  0  0  0  0  0  0  0
   34.0509   -9.6446  -22.4428 C   0  0  1  0  0  0  0  0  0  0  0  0
   35.2251   -9.3144  -21.7812 O   0  0  0  0  0  0  0  0  0  0  0  0
   33.0456  -10.2914  -21.5094 C   0  0  2  0  0  0  0  0  0  0  0  0
   33.6820  -11.4065  -20.8222 N   0  0  0  0  0  0  0  0  0  0  0  0
   31.9117  -10.7651  -22.3316 C   0  0  0  0  0  0  0  0  0  0  0  0
   31.9410  -11.9406  -23.0624 O   0  0  0  0  0  0  0  0  0  0  0  0
   30.8690  -10.0676  -22.3699 O   0  0  0  0  0  0  0  0  0  0  0  0
  2  3  1  0
  2  9  1  0
  2  1  1  6
  4  5  2  0
  4  3  1  0
  6  5  1  0
  7  8  2  0
  7  6  1  0
  8  4  1  0
  9 16  1  0
 10  9  2  0
 12 14  1  0
 12 11  1  0
 13 12  2  0
 15 14  1  1
 16 15  1  0
 17 23  1  0
 17 15  1  0
 18 17  2  0
 20 19  1  1
 20 22  1  0
 21 20  1  0
 22 24  1  0
 22 23  1  6
 24 25  1  0
 26 24  2  0
M  END
$$$$
