HNT.pdb
     RDKit          3D

 26 26  0  0  1  0  0  0  0  0999 V2000
   16.6683  -24.7825   -5.6699 N   0  0  0  0  0  0  0  0  0  0  0  0
   15.4501  -24.3805   -5.0405 C   0  0  1  0  0  0  0  0  0  0  0  0
   14.2779  -25.2860   -5.3357 C   0  0  0  0  0  0  0  0  0  0  0  0
   13.7633  -24.9412   -6.6747 C   0  0  0  0  0  0  0  0  0  0  0  0
   14.4513  -25.0376   -7.8610 C   0  0  0  0  0  0  0  0  0  0  0  0
   13.6411  -24.6318   -8.8390 N   0  0  0  0  0  0  0  0  0  0  0  0
   12.4681  -24.2853   -8.2968 C   0  0  0  0  0  0  0  0  0  0  0  0
   12.5410  -24.4748   -6.9656 N   0  0  0  0  0  0  0  0  0  0  0  0
   15.5903  -24.2138   -3.5434 C   0  0  0  0  0  0  0  0  0  0  0  0
   16.4496  -24.9220   -3.0049 O   0  0  0  0  0  0  0  0  0  0  0  0
   14.8976  -22.1171    1.2328 N   0  0  0  0  0  0  0  0  0  0  0  0
   14.0387  -21.4101    0.3692 C   0  0  0  0  0  0  0  0  0  0  0  0
   13.4207  -20.4025    0.8449 O   0  0  0  0  0  0  0  0  0  0  0  0
   13.8960  -21.8539   -1.0101 C   0  0  0  0  0  0  0  0  0  0  0  0
   14.7856  -23.0116   -1.4208 C   0  0  2  0  0  0  0  0  0  0  0  0
   14.8021  -23.3208   -2.8177 N   0  0  0  0  0  0  0  0  0  0  0  0
   14.5806  -24.1415   -0.5144 C   0  0  0  0  0  0  0  0  0  0  0  0
   13.7329  -25.0543   -0.7915 O   0  0  0  0  0  0  0  0  0  0  0  0
   16.1519  -26.9193    3.2548 C   0  0  0  0  0  0  0  0  0  0  0  0
   16.1907  -25.5645    2.5740 C   0  0  1  0  0  0  0  0  0  0  0  0
   17.4547  -25.3619    2.0386 O   0  0  0  0  0  0  0  0  0  0  0  0
   15.1157  -25.5137    1.5054 C   0  0  2  0  0  0  0  0  0  0  0  0
   15.2910  -24.3065    0.7100 N   0  0  0  0  0  0  0  0  0  0  0  0
   13.8048  -25.5009    2.1892 C   0  0  0  0  0  0  0  0  0  0  0  0
   13.0610  -26.6437    2.4292 O   0  0  0  0  0  0  0  0  0  0  0  0
   13.3416  -24.3992    2.5724 O   0  0  0  0  0  0  0  0  0  0  0  0
  2  3  1  0
  2  9  1  0
  2  1  1  1
  4  5  2  0
  4  3  1  0
  6  5  1  0
  7  8  2  0
  7  6  1  0
  8  4  1  0
  9 16  1  0
 10  9  2  0
 12 14  1  0
 12 11  1  0
 13 12  2  0
 15 14  1  6
 16 15  1  0
 17 23  1  0
 17 15  1  0
 18 17  2  0
 20 19  1  6
 20 22  1  0
 21 20  1  0
 22 24  1  0
 22 23  1  1
 24 25  1  0
 26 24  2  0
M  END
$$$$
