HNT.pdb
     RDKit          3D

 26 26  0  0  1  0  0  0  0  0999 V2000
   26.2973  -19.2082  -16.9156 N   0  0  0  0  0  0  0  0  0  0  0  0
   25.3869  -18.3559  -16.2182 C   0  0  1  0  0  0  0  0  0  0  0  0
   25.3362  -16.9437  -16.7513 C   0  0  0  0  0  0  0  0  0  0  0  0
   26.7037  -16.3919  -16.7073 C   0  0  0  0  0  0  0  0  0  0  0  0
   27.2262  -15.5886  -15.7216 C   0  0  0  0  0  0  0  0  0  0  0  0
   28.4866  -15.3039  -16.0499 N   0  0  0  0  0  0  0  0  0  0  0  0
   28.7651  -15.9065  -17.2115 C   0  0  0  0  0  0  0  0  0  0  0  0
   27.6698  -16.5763  -17.6177 N   0  0  0  0  0  0  0  0  0  0  0  0
   23.9843  -18.9197  -16.1578 C   0  0  0  0  0  0  0  0  0  0  0  0
   23.5083  -19.2857  -17.2391 O   0  0  0  0  0  0  0  0  0  0  0  0
   19.5870  -20.8969  -14.1210 N   0  0  0  0  0  0  0  0  0  0  0  0
   20.3958  -20.5536  -13.0204 C   0  0  0  0  0  0  0  0  0  0  0  0
   19.9613  -20.8370  -11.8566 O   0  0  0  0  0  0  0  0  0  0  0  0
   21.6750  -19.8995  -13.2558 C   0  0  0  0  0  0  0  0  0  0  0  0
   21.9580  -19.5135  -14.6951 C   0  0  2  0  0  0  0  0  0  0  0  0
   23.2743  -19.0200  -14.9615 N   0  0  0  0  0  0  0  0  0  0  0  0
   20.8523  -18.7130  -15.2214 C   0  0  0  0  0  0  0  0  0  0  0  0
   20.6041  -17.5536  -14.7493 O   0  0  0  0  0  0  0  0  0  0  0  0
   20.1293  -17.8411  -18.9571 C   0  0  0  0  0  0  0  0  0  0  0  0
   18.8978  -18.4490  -18.3135 C   0  0  1  0  0  0  0  0  0  0  0  0
   18.8223  -19.7913  -18.6572 O   0  0  0  0  0  0  0  0  0  0  0  0
   18.9769  -18.2598  -16.8108 C   0  0  2  0  0  0  0  0  0  0  0  0
   19.9938  -19.1516  -16.2710 N   0  0  0  0  0  0  0  0  0  0  0  0
   17.6484  -18.5837  -16.2482 C   0  0  0  0  0  0  0  0  0  0  0  0
   16.5070  -17.8495  -16.5220 O   0  0  0  0  0  0  0  0  0  0  0  0
   17.5487  -19.5741  -15.4839 O   0  0  0  0  0  0  0  0  0  0  0  0
  2  3  1  0
  2  9  1  0
  2  1  1  6
  4  5  2  0
  4  3  1  0
  6  5  1  0
  7  8  2  0
  7  6  1  0
  8  4  1  0
  9 16  1  0
 10  9  2  0
 12 14  1  0
 12 11  1  0
 13 12  2  0
 15 14  1  1
 16 15  1  0
 17 23  1  0
 17 15  1  0
 18 17  2  0
 20 19  1  6
 20 22  1  0
 21 20  1  0
 22 24  1  0
 22 23  1  1
 24 25  1  0
 26 24  2  0
M  END
$$$$
