HNT.pdb
     RDKit          3D

 26 26  0  0  1  0  0  0  0  0999 V2000
   18.6372   -9.2605  -16.3952 N   0  0  0  0  0  0  0  0  0  0  0  0
   19.2560   -9.6433  -15.1655 C   0  0  1  0  0  0  0  0  0  0  0  0
   20.1069  -10.8870  -15.2667 C   0  0  0  0  0  0  0  0  0  0  0  0
   19.2606  -11.9751  -15.7921 C   0  0  0  0  0  0  0  0  0  0  0  0
   17.8880  -12.0339  -15.7455 C   0  0  0  0  0  0  0  0  0  0  0  0
   17.5064  -13.1735  -16.3227 N   0  0  0  0  0  0  0  0  0  0  0  0
   18.6014  -13.8269  -16.7280 C   0  0  0  0  0  0  0  0  0  0  0  0
   19.6816  -13.0916  -16.4026 N   0  0  0  0  0  0  0  0  0  0  0  0
   20.0693   -8.5282  -14.5458 C   0  0  0  0  0  0  0  0  0  0  0  0
   20.5171   -8.7576  -13.4159 O   0  0  0  0  0  0  0  0  0  0  0  0
   22.5721   -3.9657  -13.9914 N   0  0  0  0  0  0  0  0  0  0  0  0
   23.2159   -4.9208  -14.8016 C   0  0  0  0  0  0  0  0  0  0  0  0
   24.4347   -4.7105  -15.1082 O   0  0  0  0  0  0  0  0  0  0  0  0
   22.4726   -6.0906  -15.2476 C   0  0  0  0  0  0  0  0  0  0  0  0
   21.0257   -6.1576  -14.7976 C   0  0  2  0  0  0  0  0  0  0  0  0
   20.2989   -7.3208  -15.2050 N   0  0  0  0  0  0  0  0  0  0  0  0
   20.3702   -4.8722  -15.0393 C   0  0  0  0  0  0  0  0  0  0  0  0
   20.8747   -3.7886  -14.5922 O   0  0  0  0  0  0  0  0  0  0  0  0
   18.5200   -3.3409  -18.2127 C   0  0  0  0  0  0  0  0  0  0  0  0
   17.5928   -3.3614  -17.0126 C   0  0  1  0  0  0  0  0  0  0  0  0
   16.7051   -4.4199  -17.1433 O   0  0  0  0  0  0  0  0  0  0  0  0
   18.4199   -3.4777  -15.7467 C   0  0  2  0  0  0  0  0  0  0  0  0
   19.1556   -4.7343  -15.7719 N   0  0  0  0  0  0  0  0  0  0  0  0
   17.4887   -3.4424  -14.5987 C   0  0  0  0  0  0  0  0  0  0  0  0
   16.7609   -2.3194  -14.2441 O   0  0  0  0  0  0  0  0  0  0  0  0
   17.3497   -4.4824  -13.9100 O   0  0  0  0  0  0  0  0  0  0  0  0
  2  3  1  0
  2  9  1  0
  2  1  1  6
  4  5  2  0
  4  3  1  0
  6  5  1  0
  7  8  2  0
  7  6  1  0
  8  4  1  0
  9 16  1  0
 10  9  2  0
 12 14  1  0
 12 11  1  0
 13 12  2  0
 15 14  1  6
 16 15  1  0
 17 23  1  0
 17 15  1  0
 18 17  2  0
 20 19  1  6
 20 22  1  0
 21 20  1  0
 22 24  1  0
 22 23  1  6
 24 25  1  0
 26 24  2  0
M  END
$$$$
