HNT.pdb
     RDKit          3D

 26 26  0  0  1  0  0  0  0  0999 V2000
   14.1923  -12.5028  -13.1791 N   0  0  0  0  0  0  0  0  0  0  0  0
   15.1733  -11.9672  -12.2889 C   0  0  1  0  0  0  0  0  0  0  0  0
   16.5784  -11.9811  -12.8426 C   0  0  0  0  0  0  0  0  0  0  0  0
   16.9033  -13.3690  -13.2228 C   0  0  0  0  0  0  0  0  0  0  0  0
   17.2746  -14.3811  -12.3698 C   0  0  0  0  0  0  0  0  0  0  0  0
   17.4817  -15.4774  -13.0998 N   0  0  0  0  0  0  0  0  0  0  0  0
   17.2502  -15.1780  -14.3831 C   0  0  0  0  0  0  0  0  0  0  0  0
   16.8944  -13.8816  -14.4611 N   0  0  0  0  0  0  0  0  0  0  0  0
   14.8351  -10.5711  -11.8142 C   0  0  0  0  0  0  0  0  0  0  0  0
   14.4074   -9.8005  -12.6820 O   0  0  0  0  0  0  0  0  0  0  0  0
   13.3962   -6.8294   -8.4597 N   0  0  0  0  0  0  0  0  0  0  0  0
   13.2074   -8.0920   -7.8651 C   0  0  0  0  0  0  0  0  0  0  0  0
   12.5302   -8.1422   -6.7870 O   0  0  0  0  0  0  0  0  0  0  0  0
   13.7854   -9.2687   -8.4984 C   0  0  0  0  0  0  0  0  0  0  0  0
   14.5332   -9.0147   -9.7932 C   0  0  2  0  0  0  0  0  0  0  0  0
   14.9954  -10.1784  -10.4855 N   0  0  0  0  0  0  0  0  0  0  0  0
   15.5169   -7.9495   -9.5981 C   0  0  0  0  0  0  0  0  0  0  0  0
   16.4868   -8.0989   -8.7822 O   0  0  0  0  0  0  0  0  0  0  0  0
   17.8158   -6.4089  -12.0880 C   0  0  0  0  0  0  0  0  0  0  0  0
   17.0404   -5.2720  -11.4504 C   0  0  1  0  0  0  0  0  0  0  0  0
   16.0022   -4.9023  -12.2935 O   0  0  0  0  0  0  0  0  0  0  0  0
   16.5283   -5.7180  -10.0943 C   0  0  2  0  0  0  0  0  0  0  0  0
   15.4708   -6.7011  -10.2840 N   0  0  0  0  0  0  0  0  0  0  0  0
   16.0087   -4.5223   -9.3967 C   0  0  0  0  0  0  0  0  0  0  0  0
   16.8154   -3.4837   -8.9640 O   0  0  0  0  0  0  0  0  0  0  0  0
   14.7741   -4.4433   -9.1854 O   0  0  0  0  0  0  0  0  0  0  0  0
  2  3  1  0
  2  9  1  0
  2  1  1  6
  4  5  2  0
  4  3  1  0
  6  5  1  0
  7  8  2  0
  7  6  1  0
  8  4  1  0
  9 16  1  0
 10  9  2  0
 12 14  1  0
 12 11  1  0
 13 12  2  0
 15 14  1  1
 16 15  1  0
 17 23  1  0
 17 15  1  0
 18 17  2  0
 20 19  1  6
 20 22  1  0
 21 20  1  0
 22 24  1  0
 22 23  1  6
 24 25  1  0
 26 24  2  0
M  END
$$$$
