HNT.pdb
     RDKit          3D

 26 26  0  0  1  0  0  0  0  0999 V2000
   29.1224  -20.6646  -13.9384 N   0  0  0  0  0  0  0  0  0  0  0  0
   27.9879  -20.7330  -13.0723 C   0  0  1  0  0  0  0  0  0  0  0  0
   28.2581  -20.2512  -11.6666 C   0  0  0  0  0  0  0  0  0  0  0  0
   29.4468  -20.9645  -11.1622 C   0  0  0  0  0  0  0  0  0  0  0  0
   30.2145  -21.8644  -11.8628 C   0  0  0  0  0  0  0  0  0  0  0  0
   31.1907  -22.2847  -11.0579 N   0  0  0  0  0  0  0  0  0  0  0  0
   31.0540  -21.6729   -9.8760 C   0  0  0  0  0  0  0  0  0  0  0  0
   29.9820  -20.8603   -9.9379 N   0  0  0  0  0  0  0  0  0  0  0  0
   26.7813  -20.0088  -13.6275 C   0  0  0  0  0  0  0  0  0  0  0  0
   27.0168  -18.9362  -14.1967 O   0  0  0  0  0  0  0  0  0  0  0  0
   22.8500  -18.3495  -16.6212 N   0  0  0  0  0  0  0  0  0  0  0  0
   22.9829  -19.6991  -16.2416 C   0  0  0  0  0  0  0  0  0  0  0  0
   21.9944  -20.4737  -16.4569 O   0  0  0  0  0  0  0  0  0  0  0  0
   24.2259  -20.1453  -15.6287 C   0  0  0  0  0  0  0  0  0  0  0  0
   24.2607  -20.1029  -14.1130 C   0  0  2  0  0  0  0  0  0  0  0  0
   25.4881  -20.5167  -13.5052 N   0  0  0  0  0  0  0  0  0  0  0  0
   23.0408  -20.7017  -13.5711 C   0  0  0  0  0  0  0  0  0  0  0  0
   22.8530  -21.9628  -13.6268 O   0  0  0  0  0  0  0  0  0  0  0  0
   21.3320  -19.7524  -10.1119 C   0  0  0  0  0  0  0  0  0  0  0  0
   20.3084  -19.7836  -11.2307 C   0  0  1  0  0  0  0  0  0  0  0  0
   20.0350  -18.4836  -11.6316 O   0  0  0  0  0  0  0  0  0  0  0  0
   20.8473  -20.6204  -12.3749 C   0  0  2  0  0  0  0  0  0  0  0  0
   22.0000  -19.9467  -12.9565 N   0  0  0  0  0  0  0  0  0  0  0  0
   19.7669  -20.7605  -13.3747 C   0  0  0  0  0  0  0  0  0  0  0  0
   18.6069  -21.4803  -13.1450 O   0  0  0  0  0  0  0  0  0  0  0  0
   19.9070  -20.1989  -14.4883 O   0  0  0  0  0  0  0  0  0  0  0  0
  2  3  1  0
  2  9  1  0
  2  1  1  6
  4  5  2  0
  4  3  1  0
  6  5  1  0
  7  8  2  0
  7  6  1  0
  8  4  1  0
  9 16  1  0
 10  9  2  0
 12 14  1  0
 12 11  1  0
 13 12  2  0
 15 14  1  6
 16 15  1  0
 17 23  1  0
 17 15  1  0
 18 17  2  0
 20 19  1  1
 20 22  1  0
 21 20  1  0
 22 24  1  0
 22 23  1  6
 24 25  1  0
 26 24  2  0
M  END
$$$$
