ERM.pdb
     RDKit          3D

 29 28  0  0  1  0  0  0  0  0999 V2000
   19.9464  -26.2646  -14.0649 N   0  0  0  0  0  0  0  0  0  0  0  0
   20.9306  -25.7985  -14.9703 C   0  0  1  0  0  0  0  0  0  0  0  0
   20.7174  -26.0447  -16.4183 C   0  0  0  0  0  0  0  0  0  0  0  0
   20.6078  -24.8586  -17.3018 C   0  0  0  0  0  0  0  0  0  0  0  0
   21.7862  -24.6162  -18.1150 C   0  0  0  0  0  0  0  0  0  0  0  0
   22.8190  -25.3064  -17.8933 O   0  0  0  0  0  0  0  0  0  0  0  0
   21.1446  -24.3331  -14.6825 C   0  0  0  0  0  0  0  0  0  0  0  0
   20.1862  -23.5665  -14.3590 O   0  0  0  0  0  0  0  0  0  0  0  0
   21.8134  -23.6690  -19.1130 O   0  0  0  0  0  0  0  0  0  0  0  0
   27.4336  -24.3270  -16.3465 N   0  0  0  0  0  0  0  0  0  0  0  0
   27.5592  -23.0918  -17.0808 C   0  0  0  0  0  0  0  0  0  0  0  0
   27.9741  -23.1096  -18.3037 N   0  0  0  0  0  0  0  0  0  0  0  0
   27.2313  -21.8736  -16.4592 N   0  0  0  0  0  0  0  0  0  0  0  0
   26.3833  -21.8518  -15.2938 C   0  0  0  0  0  0  0  0  0  0  0  0
   24.9512  -22.2981  -15.6166 C   0  0  0  0  0  0  0  0  0  0  0  0
   24.1365  -21.9923  -14.3975 C   0  0  0  0  0  0  0  0  0  0  0  0
   22.7020  -22.3652  -14.4659 C   0  0  2  0  0  0  0  0  0  0  0  0
   22.4218  -23.7301  -14.7565 N   0  0  0  0  0  0  0  0  0  0  0  0
   22.0717  -21.4379  -15.4755 C   0  0  0  0  0  0  0  0  0  0  0  0
   21.8747  -21.8782  -16.6286 O   0  0  0  0  0  0  0  0  0  0  0  0
   28.0842  -22.2185  -18.8231 C   0  0  0  0  0  0  0  0  0  0  0  0
   17.7454  -22.0179  -18.0768 S   0  0  0  0  0  0  0  0  0  0  0  0
   17.3081  -20.2793  -17.7009 C   0  0  0  0  0  0  0  0  0  0  0  0
   18.8716  -19.3517  -17.4719 C   0  0  0  0  0  0  0  0  0  0  0  0
   19.6460  -20.0402  -16.4112 C   0  0  2  0  0  0  0  0  0  0  0  0
   20.9646  -19.3436  -16.1708 N   0  0  0  0  0  0  0  0  0  0  0  0
   21.7110  -20.1232  -15.1550 C   0  0  0  0  0  0  0  0  0  0  0  0
   20.6963  -17.9841  -15.6426 O   0  0  0  0  0  0  0  0  0  0  0  0
   20.2827  -16.9034  -16.3839 O   0  0  0  0  0  0  0  0  0  0  0  0
  2  7  1  0
  2  1  1  1
  3  2  1  0
  4  3  1  0
  4  5  1  0
  5  6  2  0
  5  9  1  0
  7  8  2  0
 10 11  1  0
 11 13  1  0
 12 11  2  0
 13 14  1  0
 14 15  1  0
 15 16  1  0
 17 19  1  0
 17 16  1  6
 18 17  1  0
 18  7  1  0
 19 26  1  0
 19 20  2  0
 22 21  1  0
 23 24  1  0
 23 22  1  0
 25 24  1  6
 26 25  1  0
 27 28  1  0
 27 25  1  0
 29 27  2  0
M  END
$$$$
