ERM.pdb
     RDKit          3D

 29 28  0  0  1  0  0  0  0  0999 V2000
   22.8613  -21.4631  -15.6533 N   0  0  0  0  0  0  0  0  0  0  0  0
   22.6792  -21.1980  -14.2741 C   0  0  1  0  0  0  0  0  0  0  0  0
   21.4786  -21.7625  -13.6088 C   0  0  0  0  0  0  0  0  0  0  0  0
   20.1532  -21.3210  -14.1068 C   0  0  0  0  0  0  0  0  0  0  0  0
   19.8275  -19.9442  -13.7799 C   0  0  0  0  0  0  0  0  0  0  0  0
   20.0943  -19.5250  -12.6200 O   0  0  0  0  0  0  0  0  0  0  0  0
   23.9483  -21.6078  -13.5687 C   0  0  0  0  0  0  0  0  0  0  0  0
   24.3004  -22.8236  -13.4747 O   0  0  0  0  0  0  0  0  0  0  0  0
   19.2453  -19.0873  -14.6858 O   0  0  0  0  0  0  0  0  0  0  0  0
   28.8334  -21.0212  -16.6639 N   0  0  0  0  0  0  0  0  0  0  0  0
   28.6791  -19.6084  -16.9109 C   0  0  0  0  0  0  0  0  0  0  0  0
   28.5095  -19.1810  -18.1178 N   0  0  0  0  0  0  0  0  0  0  0  0
   28.7171  -18.7032  -15.8352 N   0  0  0  0  0  0  0  0  0  0  0  0
   28.5992  -19.1743  -14.4780 C   0  0  0  0  0  0  0  0  0  0  0  0
   27.2902  -19.9408  -14.2473 C   0  0  0  0  0  0  0  0  0  0  0  0
   27.2413  -20.2471  -12.7820 C   0  0  0  0  0  0  0  0  0  0  0  0
   26.0380  -20.9766  -12.3117 C   0  0  2  0  0  0  0  0  0  0  0  0
   24.8168  -20.6639  -12.9727 N   0  0  0  0  0  0  0  0  0  0  0  0
   25.9481  -20.7309  -10.8259 C   0  0  0  0  0  0  0  0  0  0  0  0
   25.7044  -19.5671  -10.4407 O   0  0  0  0  0  0  0  0  0  0  0  0
   28.4412  -18.1619  -18.2984 C   0  0  0  0  0  0  0  0  0  0  0  0
   29.7921  -19.8875   -6.9086 S   0  0  0  0  0  0  0  0  0  0  0  0
   28.3423  -18.9966   -6.2307 C   0  0  0  0  0  0  0  0  0  0  0  0
   26.8434  -19.9422   -6.6962 C   0  0  0  0  0  0  0  0  0  0  0  0
   27.0478  -20.4494   -8.0746 C   0  0  1  0  0  0  0  0  0  0  0  0
   25.9573  -21.4227   -8.4559 N   0  0  0  0  0  0  0  0  0  0  0  0
   26.1285  -21.7568   -9.8897 C   0  0  0  0  0  0  0  0  0  0  0  0
   24.6423  -20.7654   -8.2613 O   0  0  0  0  0  0  0  0  0  0  0  0
   23.4353  -21.4098   -8.1327 O   0  0  0  0  0  0  0  0  0  0  0  0
  2  7  1  0
  2  1  1  6
  3  2  1  0
  4  3  1  0
  4  5  1  0
  5  6  2  0
  5  9  1  0
  7  8  2  0
 10 11  1  0
 11 13  1  0
 12 11  2  0
 13 14  1  0
 14 15  1  0
 15 16  1  0
 17 19  1  0
 17 16  1  6
 18 17  1  0
 18  7  1  0
 19 26  1  0
 19 20  2  0
 22 21  1  0
 23 24  1  0
 23 22  1  0
 25 24  1  1
 26 25  1  0
 27 28  1  0
 27 25  1  0
 29 27  2  0
M  END
$$$$
