ERM.pdb
     RDKit          3D

 29 28  0  0  1  0  0  0  0  0999 V2000
   23.7014  -20.9557  -14.8887 N   0  0  0  0  0  0  0  0  0  0  0  0
   23.3739  -19.5810  -14.7966 C   0  0  1  0  0  0  0  0  0  0  0  0
   23.3467  -18.7859  -16.0496 C   0  0  0  0  0  0  0  0  0  0  0  0
   23.6440  -19.4993  -17.3154 C   0  0  0  0  0  0  0  0  0  0  0  0
   23.5817  -18.6575  -18.4970 C   0  0  0  0  0  0  0  0  0  0  0  0
   23.8193  -19.1825  -19.6194 O   0  0  0  0  0  0  0  0  0  0  0  0
   22.0675  -19.4818  -14.0485 C   0  0  0  0  0  0  0  0  0  0  0  0
   21.5279  -18.3631  -13.7871 O   0  0  0  0  0  0  0  0  0  0  0  0
   23.2721  -17.3180  -18.4347 O   0  0  0  0  0  0  0  0  0  0  0  0
   16.1558  -23.7185  -15.3937 N   0  0  0  0  0  0  0  0  0  0  0  0
   17.0044  -23.2421  -16.4585 C   0  0  0  0  0  0  0  0  0  0  0  0
   17.2301  -23.9918  -17.4857 N   0  0  0  0  0  0  0  0  0  0  0  0
   17.5840  -21.9637  -16.3705 N   0  0  0  0  0  0  0  0  0  0  0  0
   17.2225  -21.0686  -15.3001 C   0  0  0  0  0  0  0  0  0  0  0  0
   18.4393  -20.3186  -14.7423 C   0  0  0  0  0  0  0  0  0  0  0  0
   18.9601  -21.1541  -13.6134 C   0  0  0  0  0  0  0  0  0  0  0  0
   20.1345  -20.6073  -12.8902 C   0  0  2  0  0  0  0  0  0  0  0  0
   21.3704  -20.6262  -13.5960 N   0  0  0  0  0  0  0  0  0  0  0  0
   20.2219  -21.3673  -11.5898 C   0  0  0  0  0  0  0  0  0  0  0  0
   20.5082  -22.5829  -11.6426 O   0  0  0  0  0  0  0  0  0  0  0  0
   17.9170  -23.6905  -18.2021 C   0  0  0  0  0  0  0  0  0  0  0  0
   20.5372  -21.1139   -3.7499 S   0  0  0  0  0  0  0  0  0  0  0  0
   20.3858  -20.1853   -5.3214 C   0  0  0  0  0  0  0  0  0  0  0  0
   20.2740  -21.4097   -6.6800 C   0  0  0  0  0  0  0  0  0  0  0  0
   20.3308  -20.6613   -7.9590 C   0  0  1  0  0  0  0  0  0  0  0  0
   20.1156  -21.5872   -9.1330 N   0  0  0  0  0  0  0  0  0  0  0  0
   19.9935  -20.7531  -10.3521 C   0  0  0  0  0  0  0  0  0  0  0  0
   18.8524  -22.3355   -8.9247 O   0  0  0  0  0  0  0  0  0  0  0  0
   18.7091  -23.4704   -8.1631 O   0  0  0  0  0  0  0  0  0  0  0  0
  2  7  1  0
  2  1  1  6
  3  2  1  0
  4  3  1  0
  4  5  1  0
  5  6  2  0
  5  9  1  0
  7  8  2  0
 10 11  1  0
 11 13  1  0
 12 11  2  0
 13 14  1  0
 14 15  1  0
 15 16  1  0
 17 19  1  0
 17 16  1  6
 18 17  1  0
 18  7  1  0
 19 26  1  0
 19 20  2  0
 22 21  1  0
 23 24  1  0
 23 22  1  0
 25 24  1  6
 26 25  1  0
 27 28  1  0
 27 25  1  0
 29 27  2  0
M  END
$$$$
