ERM.pdb
     RDKit          3D

 29 28  0  0  1  0  0  0  0  0999 V2000
   18.7205  -21.0714  -12.8073 N   0  0  0  0  0  0  0  0  0  0  0  0
   19.7013  -20.0507  -12.8489 C   0  0  1  0  0  0  0  0  0  0  0  0
   19.5694  -18.9188  -11.8979 C   0  0  0  0  0  0  0  0  0  0  0  0
   18.3994  -18.0227  -12.0639 C   0  0  0  0  0  0  0  0  0  0  0  0
   17.1198  -18.7081  -12.0254 C   0  0  0  0  0  0  0  0  0  0  0  0
   16.8281  -19.3742  -10.9943 O   0  0  0  0  0  0  0  0  0  0  0  0
   21.0482  -20.7199  -12.7311 C   0  0  0  0  0  0  0  0  0  0  0  0
   21.3184  -21.5210  -11.7844 O   0  0  0  0  0  0  0  0  0  0  0  0
   16.2206  -18.6536  -13.0658 O   0  0  0  0  0  0  0  0  0  0  0  0
   28.5481  -20.6221  -15.5941 N   0  0  0  0  0  0  0  0  0  0  0  0
   28.4447  -22.0063  -15.9866 C   0  0  0  0  0  0  0  0  0  0  0  0
   29.4781  -22.7768  -15.9063 N   0  0  0  0  0  0  0  0  0  0  0  0
   27.2184  -22.5087  -16.4577 N   0  0  0  0  0  0  0  0  0  0  0  0
   26.0060  -21.7451  -16.3006 C   0  0  0  0  0  0  0  0  0  0  0  0
   25.4042  -21.9041  -14.8982 C   0  0  0  0  0  0  0  0  0  0  0  0
   24.1131  -21.1449  -14.9121 C   0  0  0  0  0  0  0  0  0  0  0  0
   23.3701  -21.1056  -13.6285 C   0  0  2  0  0  0  0  0  0  0  0  0
   22.0853  -20.4941  -13.6659 N   0  0  0  0  0  0  0  0  0  0  0  0
   24.2813  -20.4312  -12.6328 C   0  0  0  0  0  0  0  0  0  0  0  0
   24.3590  -19.1841  -12.6646 O   0  0  0  0  0  0  0  0  0  0  0  0
   29.4291  -23.7443  -16.2770 C   0  0  0  0  0  0  0  0  0  0  0  0
   28.2707  -19.6051   -6.1525 S   0  0  0  0  0  0  0  0  0  0  0  0
   26.9837  -20.5318   -7.0690 C   0  0  0  0  0  0  0  0  0  0  0  0
   27.3313  -20.3408   -8.8579 C   0  0  0  0  0  0  0  0  0  0  0  0
   26.2189  -20.9836   -9.5983 C   0  0  1  0  0  0  0  0  0  0  0  0
   26.1459  -20.4644  -11.0149 N   0  0  0  0  0  0  0  0  0  0  0  0
   25.0258  -21.1572  -11.6948 C   0  0  0  0  0  0  0  0  0  0  0  0
   27.4152  -20.7915  -11.7086 O   0  0  0  0  0  0  0  0  0  0  0  0
   28.6265  -20.1789  -11.4944 O   0  0  0  0  0  0  0  0  0  0  0  0
  2  7  1  0
  2  1  1  1
  3  2  1  0
  4  3  1  0
  4  5  1  0
  5  6  2  0
  5  9  1  0
  7  8  2  0
 10 11  1  0
 11 13  1  0
 12 11  2  0
 13 14  1  0
 14 15  1  0
 15 16  1  0
 17 19  1  0
 17 16  1  6
 18 17  1  0
 18  7  1  0
 19 26  1  0
 19 20  2  0
 22 21  1  0
 23 24  1  0
 23 22  1  0
 25 24  1  1
 26 25  1  0
 27 28  1  0
 27 25  1  0
 29 27  2  0
M  END
$$$$
