ERM.pdb
     RDKit          3D

 29 28  0  0  1  0  0  0  0  0999 V2000
   26.6035  -23.7447  -15.9213 N   0  0  0  0  0  0  0  0  0  0  0  0
   25.7936  -22.5924  -15.7741 C   0  0  1  0  0  0  0  0  0  0  0  0
   26.1850  -21.3666  -16.5138 C   0  0  0  0  0  0  0  0  0  0  0  0
   27.6090  -20.9573  -16.4484 C   0  0  0  0  0  0  0  0  0  0  0  0
   27.9175  -19.7655  -17.2185 C   0  0  0  0  0  0  0  0  0  0  0  0
   28.2516  -18.7201  -16.5960 O   0  0  0  0  0  0  0  0  0  0  0  0
   24.3752  -22.9999  -16.0873 C   0  0  0  0  0  0  0  0  0  0  0  0
   23.7594  -22.5564  -17.1046 O   0  0  0  0  0  0  0  0  0  0  0  0
   27.8610  -19.7388  -18.5933 O   0  0  0  0  0  0  0  0  0  0  0  0
   24.3553  -29.0547  -17.9723 N   0  0  0  0  0  0  0  0  0  0  0  0
   23.9780  -29.2059  -16.5883 C   0  0  0  0  0  0  0  0  0  0  0  0
   24.7008  -29.9297  -15.7997 N   0  0  0  0  0  0  0  0  0  0  0  0
   22.8225  -28.5657  -16.1056 N   0  0  0  0  0  0  0  0  0  0  0  0
   22.0702  -27.6762  -16.9544 C   0  0  0  0  0  0  0  0  0  0  0  0
   22.5874  -26.2337  -16.8771 C   0  0  0  0  0  0  0  0  0  0  0  0
   21.9356  -25.6230  -15.6747 C   0  0  0  0  0  0  0  0  0  0  0  0
   22.2680  -24.2017  -15.4085 C   0  0  2  0  0  0  0  0  0  0  0  0
   23.6512  -23.8969  -15.2677 N   0  0  0  0  0  0  0  0  0  0  0  0
   21.4808  -23.8053  -14.1840 C   0  0  0  0  0  0  0  0  0  0  0  0
   22.0129  -23.9800  -13.0666 O   0  0  0  0  0  0  0  0  0  0  0  0
   24.4403  -30.0192  -14.7997 C   0  0  0  0  0  0  0  0  0  0  0  0
   21.4431  -18.7225  -12.3624 S   0  0  0  0  0  0  0  0  0  0  0  0
   20.9200  -19.5795  -10.8304 C   0  0  0  0  0  0  0  0  0  0  0  0
   19.8440  -20.9800  -11.3187 C   0  0  0  0  0  0  0  0  0  0  0  0
   20.3980  -21.5513  -12.5699 C   0  0  2  0  0  0  0  0  0  0  0  0
   19.5796  -22.7355  -13.0280 N   0  0  0  0  0  0  0  0  0  0  0  0
   20.1946  -23.2582  -14.2712 C   0  0  0  0  0  0  0  0  0  0  0  0
   18.2002  -22.2769  -13.3211 O   0  0  0  0  0  0  0  0  0  0  0  0
   17.2099  -22.0693  -12.3912 O   0  0  0  0  0  0  0  0  0  0  0  0
  2  7  1  0
  2  1  1  6
  3  2  1  0
  4  3  1  0
  4  5  1  0
  5  6  2  0
  5  9  1  0
  7  8  2  0
 10 11  1  0
 11 13  1  0
 12 11  2  0
 13 14  1  0
 14 15  1  0
 15 16  1  0
 17 19  1  0
 17 16  1  1
 18 17  1  0
 18  7  1  0
 19 26  1  0
 19 20  2  0
 22 21  1  0
 23 24  1  0
 23 22  1  0
 25 24  1  1
 26 25  1  0
 27 28  1  0
 27 25  1  0
 29 27  2  0
M  END
$$$$
