YLN.pdb
     RDKit          3D

 29 29  0  0  1  0  0  0  0  0999 V2000
    6.2660  -10.7294   27.2727 O   0  0  0  0  0  0  0  0  0  0  0  0
    6.3079  -12.0575   26.8359 C   0  0  0  0  0  0  0  0  0  0  0  0
    5.1578  -12.7099   26.4284 C   0  0  0  0  0  0  0  0  0  0  0  0
    5.2354  -14.0249   26.0020 C   0  0  0  0  0  0  0  0  0  0  0  0
    6.4517  -14.6826   25.9829 C   0  0  0  0  0  0  0  0  0  0  0  0
    6.5527  -16.0874   25.5309 C   0  0  0  0  0  0  0  0  0  0  0  0
    7.9677  -16.4790   25.1940 C   0  0  2  0  0  0  0  0  0  0  0  0
    8.8692  -15.4110   25.4896 N   0  0  0  0  0  0  0  0  0  0  0  0
    8.0137  -16.7387   23.7093 C   0  0  0  0  0  0  0  0  0  0  0  0
    7.2891  -17.6479   23.2382 O   0  0  0  0  0  0  0  0  0  0  0  0
    7.5897  -14.0229   26.3908 C   0  0  0  0  0  0  0  0  0  0  0  0
    7.5308  -12.6987   26.8233 C   0  0  0  0  0  0  0  0  0  0  0  0
    7.9211  -12.4309   20.8070 C   0  0  0  0  0  0  0  0  0  0  0  0
    7.8509  -13.8588   21.3540 C   0  0  1  0  0  0  0  0  0  0  0  0
    6.5138  -14.3985   20.8167 C   0  0  0  0  0  0  0  0  0  0  0  0
    8.9909  -14.6713   20.8544 C   0  0  0  0  0  0  0  0  0  0  0  0
    9.0910  -16.0213   21.5469 C   0  0  2  0  0  0  0  0  0  0  0  0
    8.8693  -15.9389   22.9571 N   0  0  0  0  0  0  0  0  0  0  0  0
   10.2345  -16.8133   21.1208 C   0  0  0  0  0  0  0  0  0  0  0  0
   10.5540  -16.8974   19.8802 O   0  0  0  0  0  0  0  0  0  0  0  0
   15.1111  -15.4938   23.5049 N   0  0  0  0  0  0  0  0  0  0  0  0
   14.3869  -15.8403   22.3119 C   0  0  0  0  0  0  0  0  0  0  0  0
   15.0894  -15.9810   21.2886 O   0  0  0  0  0  0  0  0  0  0  0  0
   12.9205  -15.9990   22.3783 C   0  0  0  0  0  0  0  0  0  0  0  0
   12.5026  -17.3890   22.0572 C   0  0  2  0  0  0  0  0  0  0  0  0
   11.0486  -17.5222   22.0080 N   0  0  0  0  0  0  0  0  0  0  0  0
   12.9172  -18.2844   23.1931 C   0  0  0  0  0  0  0  0  0  0  0  0
   14.0070  -18.8623   23.2653 O   0  0  0  0  0  0  0  0  0  0  0  0
   12.0380  -18.5115   24.2727 O   0  0  0  0  0  0  0  0  0  0  0  0
  2  3  2  0
  2  1  1  0
  4  3  1  0
  5  4  2  0
  6  5  1  0
  6  7  1  0
  7  8  1  6
  9  7  1  0
  9 18  1  0
 10  9  2  0
 11  5  1  0
 11 12  2  0
 12  2  1  0
 14 13  1  6
 14 15  1  0
 16 14  1  0
 17 16  1  1
 17 18  1  0
 19 17  1  0
 20 19  2  0
 21 22  1  0
 22 24  1  0
 23 22  2  0
 25 24  1  1
 25 26  1  0
 25 27  1  0
 26 19  1  0
 27 29  1  0
 28 27  2  0
M  END
$$$$
