YLN.pdb
     RDKit          3D

 29 29  0  0  1  0  0  0  0  0999 V2000
    6.5650  -22.8979   29.1026 O   0  0  0  0  0  0  0  0  0  0  0  0
    6.8834  -21.8920   28.1844 C   0  0  0  0  0  0  0  0  0  0  0  0
    7.9400  -22.0403   27.3034 C   0  0  0  0  0  0  0  0  0  0  0  0
    8.2276  -21.0244   26.4076 C   0  0  0  0  0  0  0  0  0  0  0  0
    7.4661  -19.8703   26.3920 C   0  0  0  0  0  0  0  0  0  0  0  0
    7.7596  -18.7750   25.4422 C   0  0  0  0  0  0  0  0  0  0  0  0
    6.5079  -18.1095   24.9328 C   0  0  2  0  0  0  0  0  0  0  0  0
    5.8888  -18.9082   23.9230 N   0  0  0  0  0  0  0  0  0  0  0  0
    6.9242  -16.8006   24.3105 C   0  0  0  0  0  0  0  0  0  0  0  0
    6.8808  -16.6913   23.0616 O   0  0  0  0  0  0  0  0  0  0  0  0
    6.4169  -19.7341   27.2738 C   0  0  0  0  0  0  0  0  0  0  0  0
    6.1125  -20.7465   28.1828 C   0  0  0  0  0  0  0  0  0  0  0  0
    6.7096  -12.2827   27.4331 C   0  0  0  0  0  0  0  0  0  0  0  0
    6.7438  -13.2765   26.2694 C   0  0  1  0  0  0  0  0  0  0  0  0
    5.9998  -12.5490   25.1359 C   0  0  0  0  0  0  0  0  0  0  0  0
    8.1449  -13.5797   25.8762 C   0  0  0  0  0  0  0  0  0  0  0  0
    8.2348  -14.7247   24.8797 C   0  0  2  0  0  0  0  0  0  0  0  0
    7.3329  -15.7929   25.1795 N   0  0  0  0  0  0  0  0  0  0  0  0
    9.5993  -15.1079   24.5514 C   0  0  0  0  0  0  0  0  0  0  0  0
   10.4838  -14.2218   24.2671 O   0  0  0  0  0  0  0  0  0  0  0  0
   10.6285  -18.9146   26.8808 N   0  0  0  0  0  0  0  0  0  0  0  0
   11.6807  -18.1860   26.2253 C   0  0  0  0  0  0  0  0  0  0  0  0
   12.4817  -17.6096   26.9912 O   0  0  0  0  0  0  0  0  0  0  0  0
   11.7376  -18.1712   24.7500 C   0  0  0  0  0  0  0  0  0  0  0  0
   11.4052  -16.8306   24.2002 C   0  0  2  0  0  0  0  0  0  0  0  0
   10.0363  -16.4348   24.5226 N   0  0  0  0  0  0  0  0  0  0  0  0
   11.4210  -16.9157   22.6982 C   0  0  0  0  0  0  0  0  0  0  0  0
   10.4390  -16.7118   21.9764 O   0  0  0  0  0  0  0  0  0  0  0  0
   12.6129  -17.2472   22.0203 O   0  0  0  0  0  0  0  0  0  0  0  0
  2  3  2  0
  2  1  1  0
  4  3  1  0
  5  4  2  0
  6  5  1  0
  6  7  1  0
  7  8  1  6
  9  7  1  0
  9 18  1  0
 10  9  2  0
 11  5  1  0
 11 12  2  0
 12  2  1  0
 14 13  1  1
 14 15  1  0
 16 14  1  0
 17 16  1  1
 17 18  1  0
 19 17  1  0
 20 19  2  0
 21 22  1  0
 22 24  1  0
 23 22  2  0
 25 24  1  1
 25 26  1  0
 25 27  1  0
 26 19  1  0
 27 29  1  0
 28 27  2  0
M  END
$$$$
