YLN.pdb
     RDKit          3D

 29 29  0  0  1  0  0  0  0  0999 V2000
    6.7944  -16.9094   14.8667 O   0  0  0  0  0  0  0  0  0  0  0  0
    7.2330  -16.5713   16.1511 C   0  0  0  0  0  0  0  0  0  0  0  0
    8.4780  -16.0021   16.3517 C   0  0  0  0  0  0  0  0  0  0  0  0
    8.8806  -15.6799   17.6367 C   0  0  0  0  0  0  0  0  0  0  0  0
    8.0463  -15.9242   18.7122 C   0  0  0  0  0  0  0  0  0  0  0  0
    8.4605  -15.5867   20.0915 C   0  0  0  0  0  0  0  0  0  0  0  0
    8.3554  -14.1110   20.3749 C   0  0  2  0  0  0  0  0  0  0  0  0
    9.2750  -13.3765   19.5652 N   0  0  0  0  0  0  0  0  0  0  0  0
    8.7337  -13.9097   21.8206 C   0  0  0  0  0  0  0  0  0  0  0  0
    9.9390  -13.7033   22.1005 O   0  0  0  0  0  0  0  0  0  0  0  0
    6.8093  -16.4912   18.5001 C   0  0  0  0  0  0  0  0  0  0  0  0
    6.3871  -16.8223   17.2132 C   0  0  0  0  0  0  0  0  0  0  0  0
    7.5964  -11.6504   26.3737 C   0  0  0  0  0  0  0  0  0  0  0  0
    6.7603  -12.9266   26.2491 C   0  0  1  0  0  0  0  0  0  0  0  0
    5.4229  -12.5629   26.9176 C   0  0  0  0  0  0  0  0  0  0  0  0
    6.5595  -13.2879   24.8213 C   0  0  0  0  0  0  0  0  0  0  0  0
    7.8283  -13.8158   24.1706 C   0  0  2  0  0  0  0  0  0  0  0  0
    7.7031  -13.9684   22.7545 N   0  0  0  0  0  0  0  0  0  0  0  0
    8.4327  -14.9287   24.8865 C   0  0  0  0  0  0  0  0  0  0  0  0
    8.5625  -14.9000   26.1635 O   0  0  0  0  0  0  0  0  0  0  0  0
    9.4971  -20.6716   25.2293 N   0  0  0  0  0  0  0  0  0  0  0  0
   10.2418  -19.5459   24.7331 C   0  0  0  0  0  0  0  0  0  0  0  0
   11.4768  -19.6095   24.9090 O   0  0  0  0  0  0  0  0  0  0  0  0
    9.5213  -18.4371   24.0762 C   0  0  0  0  0  0  0  0  0  0  0  0
    9.4008  -17.2543   24.9685 C   0  0  2  0  0  0  0  0  0  0  0  0
    8.9040  -16.0815   24.2530 N   0  0  0  0  0  0  0  0  0  0  0  0
   10.7803  -16.8556   25.4180 C   0  0  0  0  0  0  0  0  0  0  0  0
   11.5783  -16.2072   24.7328 O   0  0  0  0  0  0  0  0  0  0  0  0
   11.2408  -17.2226   26.6999 O   0  0  0  0  0  0  0  0  0  0  0  0
  2  3  2  0
  2  1  1  0
  4  3  1  0
  5  4  2  0
  6  5  1  0
  6  7  1  0
  7  8  1  6
  9  7  1  0
  9 18  1  0
 10  9  2  0
 11  5  1  0
 11 12  2  0
 12  2  1  0
 14 13  1  6
 14 15  1  0
 16 14  1  0
 17 16  1  1
 17 18  1  0
 19 17  1  0
 20 19  2  0
 21 22  1  0
 22 24  1  0
 23 22  2  0
 25 24  1  6
 25 26  1  0
 25 27  1  0
 26 19  1  0
 27 29  1  0
 28 27  2  0
M  END
$$$$
