YLN.pdb
     RDKit          3D

 29 29  0  0  1  0  0  0  0  0999 V2000
    7.3766  -12.4534   16.8357 O   0  0  0  0  0  0  0  0  0  0  0  0
    7.6872  -13.1137   18.0289 C   0  0  0  0  0  0  0  0  0  0  0  0
    8.9746  -13.1006   18.5359 C   0  0  0  0  0  0  0  0  0  0  0  0
    9.2472  -13.7650   19.7198 C   0  0  0  0  0  0  0  0  0  0  0  0
    8.2422  -14.4366   20.3914 C   0  0  0  0  0  0  0  0  0  0  0  0
    8.5159  -15.1519   21.6570 C   0  0  0  0  0  0  0  0  0  0  0  0
    9.8361  -14.7547   22.2639 C   0  0  2  0  0  0  0  0  0  0  0  0
   10.9120  -15.4398   21.6206 N   0  0  0  0  0  0  0  0  0  0  0  0
    9.8038  -15.1789   23.7106 C   0  0  0  0  0  0  0  0  0  0  0  0
   10.7910  -15.7984   24.1746 O   0  0  0  0  0  0  0  0  0  0  0  0
    6.9647  -14.4426   19.8770 C   0  0  0  0  0  0  0  0  0  0  0  0
    6.6716  -13.7792   18.6862 C   0  0  0  0  0  0  0  0  0  0  0  0
    5.7935  -12.2938   26.3396 C   0  0  0  0  0  0  0  0  0  0  0  0
    7.1395  -12.9032   25.9395 C   0  0  1  0  0  0  0  0  0  0  0  0
    8.1740  -12.0513   26.6956 C   0  0  0  0  0  0  0  0  0  0  0  0
    7.2179  -14.3278   26.3564 C   0  0  0  0  0  0  0  0  0  0  0  0
    8.4738  -15.0156   25.8449 C   0  0  2  0  0  0  0  0  0  0  0  0
    8.6640  -14.8477   24.4378 N   0  0  0  0  0  0  0  0  0  0  0  0
    8.6537  -16.3634   26.3620 C   0  0  0  0  0  0  0  0  0  0  0  0
    8.4959  -16.6183   27.6104 O   0  0  0  0  0  0  0  0  0  0  0  0
   10.1375  -19.4607   22.5648 N   0  0  0  0  0  0  0  0  0  0  0  0
    9.5952  -19.7532   23.8642 C   0  0  0  0  0  0  0  0  0  0  0  0
    8.4687  -20.2929   23.8580 O   0  0  0  0  0  0  0  0  0  0  0  0
   10.3784  -19.4081   25.0673 C   0  0  0  0  0  0  0  0  0  0  0  0
    9.5493  -18.7024   26.0794 C   0  0  2  0  0  0  0  0  0  0  0  0
    9.0023  -17.4520   25.5582 N   0  0  0  0  0  0  0  0  0  0  0  0
   10.4440  -18.2712   27.2097 C   0  0  0  0  0  0  0  0  0  0  0  0
   10.3536  -18.6865   28.3699 O   0  0  0  0  0  0  0  0  0  0  0  0
   11.4708  -17.3313   26.9807 O   0  0  0  0  0  0  0  0  0  0  0  0
  2  3  2  0
  2  1  1  0
  4  3  1  0
  5  4  2  0
  6  5  1  0
  6  7  1  0
  7  8  1  6
  9  7  1  0
  9 18  1  0
 10  9  2  0
 11  5  1  0
 11 12  2  0
 12  2  1  0
 14 13  1  1
 14 15  1  0
 16 14  1  0
 17 16  1  6
 17 18  1  0
 19 17  1  0
 20 19  2  0
 21 22  1  0
 22 24  1  0
 23 22  2  0
 25 24  1  6
 25 26  1  0
 25 27  1  0
 26 19  1  0
 27 29  1  0
 28 27  2  0
M  END
$$$$
