YLN.pdb
     RDKit          3D

 29 29  0  0  1  0  0  0  0  0999 V2000
    7.6741  -12.2367   16.7961 O   0  0  0  0  0  0  0  0  0  0  0  0
    7.7429  -13.0109   17.9590 C   0  0  0  0  0  0  0  0  0  0  0  0
    6.6614  -13.7659   18.3771 C   0  0  0  0  0  0  0  0  0  0  0  0
    6.7640  -14.5208   19.5333 C   0  0  0  0  0  0  0  0  0  0  0  0
    7.9371  -14.5215   20.2655 C   0  0  0  0  0  0  0  0  0  0  0  0
    8.0638  -15.3217   21.5031 C   0  0  0  0  0  0  0  0  0  0  0  0
    9.3649  -15.0663   22.2180 C   0  0  2  0  0  0  0  0  0  0  0  0
   10.4085  -15.8706   21.6659 N   0  0  0  0  0  0  0  0  0  0  0  0
    9.1666  -15.4722   23.6567 C   0  0  0  0  0  0  0  0  0  0  0  0
    9.9217  -16.3494   24.1404 O   0  0  0  0  0  0  0  0  0  0  0  0
    9.0069  -13.7660   19.8394 C   0  0  0  0  0  0  0  0  0  0  0  0
    8.9219  -12.9997   18.6777 C   0  0  0  0  0  0  0  0  0  0  0  0
    5.8322  -11.8076   26.4308 C   0  0  0  0  0  0  0  0  0  0  0  0
    7.0125  -12.6973   26.0325 C   0  0  1  0  0  0  0  0  0  0  0  0
    8.1309  -12.2922   27.0085 C   0  0  0  0  0  0  0  0  0  0  0  0
    6.6657  -14.1343   26.1890 C   0  0  0  0  0  0  0  0  0  0  0  0
    7.7799  -15.0563   25.7195 C   0  0  2  0  0  0  0  0  0  0  0  0
    8.1448  -14.8349   24.3548 N   0  0  0  0  0  0  0  0  0  0  0  0
    7.5985  -16.4431   26.1198 C   0  0  0  0  0  0  0  0  0  0  0  0
    6.4237  -16.9375   26.2743 O   0  0  0  0  0  0  0  0  0  0  0  0
    7.0587  -19.4778   24.4557 N   0  0  0  0  0  0  0  0  0  0  0  0
    8.4849  -19.5829   24.6071 C   0  0  0  0  0  0  0  0  0  0  0  0
    9.1325  -19.5715   23.5391 O   0  0  0  0  0  0  0  0  0  0  0  0
    9.0604  -19.6927   25.9623 C   0  0  0  0  0  0  0  0  0  0  0  0
    8.4977  -18.6704   26.8833 C   0  0  2  0  0  0  0  0  0  0  0  0
    8.6624  -17.3167   26.3592 N   0  0  0  0  0  0  0  0  0  0  0  0
    9.3072  -18.6763   28.1516 C   0  0  0  0  0  0  0  0  0  0  0  0
   10.0693  -17.7677   28.4984 O   0  0  0  0  0  0  0  0  0  0  0  0
    9.2255  -19.7704   29.0385 O   0  0  0  0  0  0  0  0  0  0  0  0
  2  3  2  0
  2  1  1  0
  4  3  1  0
  5  4  2  0
  6  5  1  0
  6  7  1  0
  7  8  1  6
  9  7  1  0
  9 18  1  0
 10  9  2  0
 11  5  1  0
 11 12  2  0
 12  2  1  0
 14 13  1  1
 14 15  1  0
 16 14  1  0
 17 16  1  6
 17 18  1  0
 19 17  1  0
 20 19  2  0
 21 22  1  0
 22 24  1  0
 23 22  2  0
 25 24  1  6
 25 26  1  0
 25 27  1  0
 26 19  1  0
 27 29  1  0
 28 27  2  0
M  END
$$$$
