YLN.pdb
     RDKit          3D

 29 29  0  0  1  0  0  0  0  0999 V2000
    8.1091  -14.1576   15.7672 O   0  0  0  0  0  0  0  0  0  0  0  0
    8.2476  -14.0613   17.1557 C   0  0  0  0  0  0  0  0  0  0  0  0
    7.9864  -12.8743   17.8169 C   0  0  0  0  0  0  0  0  0  0  0  0
    8.1339  -12.8141   19.1923 C   0  0  0  0  0  0  0  0  0  0  0  0
    8.5388  -13.9302   19.9011 C   0  0  0  0  0  0  0  0  0  0  0  0
    8.7019  -13.8835   21.3706 C   0  0  0  0  0  0  0  0  0  0  0  0
    8.7071  -15.2571   21.9890 C   0  0  2  0  0  0  0  0  0  0  0  0
    7.4782  -15.9343   21.7206 N   0  0  0  0  0  0  0  0  0  0  0  0
    8.8277  -15.0706   23.4804 C   0  0  0  0  0  0  0  0  0  0  0  0
    9.9646  -14.8600   23.9671 O   0  0  0  0  0  0  0  0  0  0  0  0
    8.7959  -15.1062   19.2320 C   0  0  0  0  0  0  0  0  0  0  0  0
    8.6528  -15.1855   17.8474 C   0  0  0  0  0  0  0  0  0  0  0  0
    5.6456  -11.7864   26.2318 C   0  0  0  0  0  0  0  0  0  0  0  0
    6.8058  -12.7097   25.8516 C   0  0  1  0  0  0  0  0  0  0  0  0
    7.9603  -12.2511   26.7596 C   0  0  0  0  0  0  0  0  0  0  0  0
    6.4563  -14.1306   26.1135 C   0  0  0  0  0  0  0  0  0  0  0  0
    7.5376  -15.0916   25.6452 C   0  0  2  0  0  0  0  0  0  0  0  0
    7.6515  -15.1467   24.2210 N   0  0  0  0  0  0  0  0  0  0  0  0
    7.5237  -16.3700   26.3393 C   0  0  0  0  0  0  0  0  0  0  0  0
    6.4176  -16.9155   26.6964 O   0  0  0  0  0  0  0  0  0  0  0  0
    6.3770  -19.9421   26.9413 N   0  0  0  0  0  0  0  0  0  0  0  0
    7.1925  -20.0641   25.7632 C   0  0  0  0  0  0  0  0  0  0  0  0
    6.7427  -20.8307   24.8854 O   0  0  0  0  0  0  0  0  0  0  0  0
    8.4553  -19.3039   25.6778 C   0  0  0  0  0  0  0  0  0  0  0  0
    8.7092  -18.5186   26.9143 C   0  0  2  0  0  0  0  0  0  0  0  0
    8.6835  -17.0802   26.6599 N   0  0  0  0  0  0  0  0  0  0  0  0
   10.1182  -18.7883   27.3677 C   0  0  0  0  0  0  0  0  0  0  0  0
   10.4154  -19.4285   28.3819 O   0  0  0  0  0  0  0  0  0  0  0  0
   11.2089  -18.2988   26.6187 O   0  0  0  0  0  0  0  0  0  0  0  0
  2  3  2  0
  2  1  1  0
  4  3  1  0
  5  4  2  0
  6  5  1  0
  6  7  1  0
  7  8  1  1
  9  7  1  0
  9 18  1  0
 10  9  2  0
 11  5  1  0
 11 12  2  0
 12  2  1  0
 14 13  1  1
 14 15  1  0
 16 14  1  0
 17 16  1  6
 17 18  1  0
 19 17  1  0
 20 19  2  0
 21 22  1  0
 22 24  1  0
 23 22  2  0
 25 24  1  6
 25 26  1  0
 25 27  1  0
 26 19  1  0
 27 29  1  0
 28 27  2  0
M  END
$$$$
