VLG.pdb
     RDKit          3D

 20 19  0  0  1  0  0  0  0  0999 V2000
    5.6310  -20.6683   24.8389 C   0  0  0  0  0  0  0  0  0  0  0  0
    6.6724  -19.5691   24.8584 C   0  0  1  0  0  0  0  0  0  0  0  0
    7.9242  -20.0647   24.2169 C   0  0  0  0  0  0  0  0  0  0  0  0
    6.0754  -18.3672   24.1621 C   0  0  2  0  0  0  0  0  0  0  0  0
    5.7289  -18.6913   22.7930 N   0  0  0  0  0  0  0  0  0  0  0  0
    6.9541  -17.1971   24.1822 C   0  0  0  0  0  0  0  0  0  0  0  0
    7.7094  -16.9568   23.1819 O   0  0  0  0  0  0  0  0  0  0  0  0
    7.0352  -12.2974   24.8106 C   0  0  0  0  0  0  0  0  0  0  0  0
    6.5160  -13.2570   25.8996 C   0  0  2  0  0  0  0  0  0  0  0  0
    5.9533  -12.3909   26.9781 C   0  0  0  0  0  0  0  0  0  0  0  0
    7.6443  -14.1389   26.2548 C   0  0  0  0  0  0  0  0  0  0  0  0
    8.0487  -15.2041   25.3144 C   0  0  2  0  0  0  0  0  0  0  0  0
    7.0492  -16.2733   25.2438 N   0  0  0  0  0  0  0  0  0  0  0  0
    9.3867  -15.7472   25.5928 C   0  0  0  0  0  0  0  0  0  0  0  0
    9.6133  -16.1961   26.7535 O   0  0  0  0  0  0  0  0  0  0  0  0
   10.4623  -15.8021   24.6583 N   0  0  0  0  0  0  0  0  0  0  0  0
   11.7938  -16.2186   24.9132 C   0  0  0  0  0  0  0  0  0  0  0  0
   12.7807  -16.1435   23.8498 C   0  0  0  0  0  0  0  0  0  0  0  0
   14.0033  -16.3098   23.8915 O   0  0  0  0  0  0  0  0  0  0  0  0
   12.2827  -15.8316   22.5532 O   0  0  0  0  0  0  0  0  0  0  0  0
  2  1  1  6
  3  2  1  0
  4  2  1  0
  4  5  1  6
  6 13  1  0
  6  4  1  0
  7  6  2  0
  9  8  1  6
  9 10  1  0
  9 11  1  0
 12 11  1  1
 12 14  1  0
 12 13  1  0
 14 15  2  0
 16 14  1  0
 16 17  1  0
 18 20  1  0
 18 17  1  0
 19 18  2  0
M  END
$$$$
