VLG.pdb
     RDKit          3D

 20 19  0  0  1  0  0  0  0  0999 V2000
    5.8272  -20.6831   24.8884 C   0  0  0  0  0  0  0  0  0  0  0  0
    6.8065  -19.5293   24.8314 C   0  0  1  0  0  0  0  0  0  0  0  0
    8.0079  -19.9408   24.0495 C   0  0  0  0  0  0  0  0  0  0  0  0
    6.0780  -18.3460   24.2357 C   0  0  2  0  0  0  0  0  0  0  0  0
    5.6127  -18.6543   22.8985 N   0  0  0  0  0  0  0  0  0  0  0  0
    6.8897  -17.1287   24.2044 C   0  0  0  0  0  0  0  0  0  0  0  0
    7.5465  -16.8341   23.1504 O   0  0  0  0  0  0  0  0  0  0  0  0
    6.8775  -12.2526   24.8779 C   0  0  0  0  0  0  0  0  0  0  0  0
    6.4542  -13.2299   25.9924 C   0  0  2  0  0  0  0  0  0  0  0  0
    5.9339  -12.3836   27.1073 C   0  0  0  0  0  0  0  0  0  0  0  0
    7.6272  -14.0796   26.2736 C   0  0  0  0  0  0  0  0  0  0  0  0
    8.0045  -15.1291   25.3048 C   0  0  2  0  0  0  0  0  0  0  0  0
    7.0204  -16.2143   25.2703 N   0  0  0  0  0  0  0  0  0  0  0  0
    9.3627  -15.6522   25.5150 C   0  0  0  0  0  0  0  0  0  0  0  0
    9.6451  -16.1248   26.6539 O   0  0  0  0  0  0  0  0  0  0  0  0
   10.3999  -15.6629   24.5366 N   0  0  0  0  0  0  0  0  0  0  0  0
   11.7478  -16.0612   24.7263 C   0  0  0  0  0  0  0  0  0  0  0  0
   12.7019  -15.8878   23.6444 C   0  0  0  0  0  0  0  0  0  0  0  0
   12.5236  -15.4966   22.4871 O   0  0  0  0  0  0  0  0  0  0  0  0
   14.0550  -16.2129   23.9438 O   0  0  0  0  0  0  0  0  0  0  0  0
  2  1  1  6
  3  2  1  0
  4  2  1  0
  4  5  1  6
  6 13  1  0
  6  4  1  0
  7  6  2  0
  9  8  1  6
  9 10  1  0
  9 11  1  0
 12 11  1  1
 12 14  1  0
 12 13  1  0
 14 15  2  0
 16 14  1  0
 16 17  1  0
 18 20  1  0
 18 17  1  0
 19 18  2  0
M  END
$$$$
