VLG.pdb
     RDKit          3D

 20 19  0  0  1  0  0  0  0  0999 V2000
    6.8913  -17.7225   22.0318 C   0  0  0  0  0  0  0  0  0  0  0  0
    7.4718  -16.8923   20.9062 C   0  0  1  0  0  0  0  0  0  0  0  0
    6.8798  -17.3354   19.6110 C   0  0  0  0  0  0  0  0  0  0  0  0
    7.1980  -15.4404   21.2266 C   0  0  2  0  0  0  0  0  0  0  0  0
    7.5917  -14.5911   20.1206 N   0  0  0  0  0  0  0  0  0  0  0  0
    7.8588  -14.9886   22.4518 C   0  0  0  0  0  0  0  0  0  0  0  0
    9.1039  -14.7087   22.4318 O   0  0  0  0  0  0  0  0  0  0  0  0
    7.7180  -11.5778   25.7919 C   0  0  0  0  0  0  0  0  0  0  0  0
    6.4937  -12.5132   25.7405 C   0  0  2  0  0  0  0  0  0  0  0  0
    5.5297  -11.9864   26.7521 C   0  0  0  0  0  0  0  0  0  0  0  0
    7.0038  -13.8838   25.9362 C   0  0  0  0  0  0  0  0  0  0  0  0
    7.9257  -14.4582   24.9350 C   0  0  2  0  0  0  0  0  0  0  0  0
    7.2255  -14.8268   23.7016 N   0  0  0  0  0  0  0  0  0  0  0  0
    8.7159  -15.5854   25.4526 C   0  0  0  0  0  0  0  0  0  0  0  0
    8.1366  -16.4148   26.2119 O   0  0  0  0  0  0  0  0  0  0  0  0
   10.0950  -15.8184   25.1751 N   0  0  0  0  0  0  0  0  0  0  0  0
   10.8922  -16.8900   25.6521 C   0  0  0  0  0  0  0  0  0  0  0  0
   12.2619  -17.0225   25.1862 C   0  0  0  0  0  0  0  0  0  0  0  0
   12.8828  -16.3549   24.3537 O   0  0  0  0  0  0  0  0  0  0  0  0
   13.0219  -18.0773   25.7659 O   0  0  0  0  0  0  0  0  0  0  0  0
  2  1  1  1
  3  2  1  0
  4  2  1  0
  4  5  1  6
  6 13  1  0
  6  4  1  0
  7  6  2  0
  9  8  1  1
  9 10  1  0
  9 11  1  0
 12 11  1  1
 12 14  1  0
 12 13  1  0
 14 15  2  0
 16 14  1  0
 16 17  1  0
 18 20  1  0
 18 17  1  0
 19 18  2  0
M  END
$$$$
