VLG.pdb
     RDKit          3D

 20 19  0  0  1  0  0  0  0  0999 V2000
    6.3343  -16.6073   19.9994 C   0  0  0  0  0  0  0  0  0  0  0  0
    7.1264  -16.2280   21.2331 C   0  0  1  0  0  0  0  0  0  0  0  0
    8.4891  -16.8280   21.1476 C   0  0  0  0  0  0  0  0  0  0  0  0
    7.1385  -14.7185   21.3172 C   0  0  2  0  0  0  0  0  0  0  0  0
    7.8077  -14.1491   20.1650 N   0  0  0  0  0  0  0  0  0  0  0  0
    7.7601  -14.2170   22.5435 C   0  0  0  0  0  0  0  0  0  0  0  0
    8.9249  -13.6973   22.4945 O   0  0  0  0  0  0  0  0  0  0  0  0
    7.4384  -11.0479   26.0045 C   0  0  0  0  0  0  0  0  0  0  0  0
    6.2999  -12.0852   25.9410 C   0  0  2  0  0  0  0  0  0  0  0  0
    5.3059  -11.6702   26.9753 C   0  0  0  0  0  0  0  0  0  0  0  0
    6.9299  -13.4104   26.0961 C   0  0  0  0  0  0  0  0  0  0  0  0
    7.8686  -13.8867   25.0596 C   0  0  2  0  0  0  0  0  0  0  0  0
    7.1713  -14.2548   23.8245 N   0  0  0  0  0  0  0  0  0  0  0  0
    8.7391  -14.9780   25.5219 C   0  0  0  0  0  0  0  0  0  0  0  0
    9.3758  -14.8100   26.6020 O   0  0  0  0  0  0  0  0  0  0  0  0
    8.9346  -16.2170   24.8437 N   0  0  0  0  0  0  0  0  0  0  0  0
    9.6286  -17.3549   25.3283 C   0  0  0  0  0  0  0  0  0  0  0  0
   11.0789  -17.3253   25.4085 C   0  0  0  0  0  0  0  0  0  0  0  0
   11.8688  -16.4193   25.1268 O   0  0  0  0  0  0  0  0  0  0  0  0
   11.7049  -18.5129   25.8819 O   0  0  0  0  0  0  0  0  0  0  0  0
  2  1  1  6
  3  2  1  0
  4  2  1  0
  4  5  1  6
  6 13  1  0
  6  4  1  0
  7  6  2  0
  9  8  1  1
  9 10  1  0
  9 11  1  0
 12 11  1  1
 12 14  1  0
 12 13  1  0
 14 15  2  0
 16 14  1  0
 16 17  1  0
 18 20  1  0
 18 17  1  0
 19 18  2  0
M  END
$$$$
