VLG.pdb
     RDKit          3D

 20 19  0  0  1  0  0  0  0  0999 V2000
    6.2025  -20.6911   25.5264 C   0  0  0  0  0  0  0  0  0  0  0  0
    7.0678  -19.4633   25.3340 C   0  0  1  0  0  0  0  0  0  0  0  0
    8.2776  -19.8319   24.5435 C   0  0  0  0  0  0  0  0  0  0  0  0
    6.2142  -18.4074   24.6690 C   0  0  2  0  0  0  0  0  0  0  0  0
    5.7250  -18.8788   23.3892 N   0  0  0  0  0  0  0  0  0  0  0  0
    6.9131  -17.1342   24.4886 C   0  0  0  0  0  0  0  0  0  0  0  0
    7.4597  -16.8669   23.3667 O   0  0  0  0  0  0  0  0  0  0  0  0
    6.5921  -12.1509   24.8543 C   0  0  0  0  0  0  0  0  0  0  0  0
    6.2700  -13.0654   26.0528 C   0  0  2  0  0  0  0  0  0  0  0  0
    5.8201  -12.1608   27.1525 C   0  0  0  0  0  0  0  0  0  0  0  0
    7.4750  -13.8820   26.2938 C   0  0  0  0  0  0  0  0  0  0  0  0
    7.8485  -14.9208   25.3120 C   0  0  2  0  0  0  0  0  0  0  0  0
    7.0451  -16.1354   25.4756 N   0  0  0  0  0  0  0  0  0  0  0  0
    9.2857  -15.2321   25.3144 C   0  0  0  0  0  0  0  0  0  0  0  0
    9.8050  -15.6219   26.3999 O   0  0  0  0  0  0  0  0  0  0  0  0
   10.1526  -15.1213   24.1876 N   0  0  0  0  0  0  0  0  0  0  0  0
   11.5453  -15.3867   24.1531 C   0  0  0  0  0  0  0  0  0  0  0  0
   12.0105  -16.7626   24.1890 C   0  0  0  0  0  0  0  0  0  0  0  0
   12.2355  -17.4970   25.1555 O   0  0  0  0  0  0  0  0  0  0  0  0
   12.2494  -17.3767   22.9272 O   0  0  0  0  0  0  0  0  0  0  0  0
  2  1  1  6
  3  2  1  0
  4  2  1  0
  4  5  1  6
  6 13  1  0
  6  4  1  0
  7  6  2  0
  9  8  1  6
  9 10  1  0
  9 11  1  0
 12 11  1  1
 12 14  1  0
 12 13  1  0
 14 15  2  0
 16 14  1  0
 16 17  1  0
 18 20  1  0
 18 17  1  0
 19 18  2  0
M  END
$$$$
