VLG.pdb
     RDKit          3D

 20 19  0  0  1  0  0  0  0  0999 V2000
    6.7607  -16.0747   20.8253 C   0  0  0  0  0  0  0  0  0  0  0  0
    7.5289  -15.0134   20.0659 C   0  0  1  0  0  0  0  0  0  0  0  0
    6.9907  -14.9132   18.6787 C   0  0  0  0  0  0  0  0  0  0  0  0
    7.4156  -13.7250   20.8490 C   0  0  2  0  0  0  0  0  0  0  0  0
    8.0541  -12.6372   20.1359 N   0  0  0  0  0  0  0  0  0  0  0  0
    7.9744  -13.8224   22.1981 C   0  0  0  0  0  0  0  0  0  0  0  0
    9.2393  -13.7804   22.3626 O   0  0  0  0  0  0  0  0  0  0  0  0
    7.8306  -11.4568   26.2162 C   0  0  0  0  0  0  0  0  0  0  0  0
    6.5425  -12.2067   25.8229 C   0  0  2  0  0  0  0  0  0  0  0  0
    5.5028  -11.7852   26.8084 C   0  0  0  0  0  0  0  0  0  0  0  0
    6.8898  -13.6398   25.7716 C   0  0  0  0  0  0  0  0  0  0  0  0
    7.8024  -14.1217   24.7146 C   0  0  2  0  0  0  0  0  0  0  0  0
    7.2180  -13.9637   23.3801 N   0  0  0  0  0  0  0  0  0  0  0  0
    8.2643  -15.5010   24.9307 C   0  0  0  0  0  0  0  0  0  0  0  0
    7.3887  -16.4043   25.0635 O   0  0  0  0  0  0  0  0  0  0  0  0
    9.6285  -15.9077   25.0129 N   0  0  0  0  0  0  0  0  0  0  0  0
   10.1154  -17.2131   25.2779 C   0  0  0  0  0  0  0  0  0  0  0  0
   11.5446  -17.4671   25.2190 C   0  0  0  0  0  0  0  0  0  0  0  0
   12.4662  -16.7258   24.8650 O   0  0  0  0  0  0  0  0  0  0  0  0
   11.9684  -18.7630   25.6280 O   0  0  0  0  0  0  0  0  0  0  0  0
  2  1  1  1
  3  2  1  0
  4  2  1  0
  4  5  1  6
  6 13  1  0
  6  4  1  0
  7  6  2  0
  9  8  1  1
  9 10  1  0
  9 11  1  0
 12 11  1  1
 12 14  1  0
 12 13  1  0
 14 15  2  0
 16 14  1  0
 16 17  1  0
 18 20  1  0
 18 17  1  0
 19 18  2  0
M  END
$$$$
