VLG.pdb
     RDKit          3D

 20 19  0  0  1  0  0  0  0  0999 V2000
    7.3113  -16.7400   19.1977 C   0  0  0  0  0  0  0  0  0  0  0  0
    7.4891  -15.6499   20.2338 C   0  0  1  0  0  0  0  0  0  0  0  0
    6.1900  -14.9459   20.4362 C   0  0  0  0  0  0  0  0  0  0  0  0
    8.0216  -16.3016   21.4898 C   0  0  2  0  0  0  0  0  0  0  0  0
    7.0937  -17.3017   21.9781 N   0  0  0  0  0  0  0  0  0  0  0  0
    8.3136  -15.3414   22.5550 C   0  0  0  0  0  0  0  0  0  0  0  0
    9.2518  -14.4903   22.3987 O   0  0  0  0  0  0  0  0  0  0  0  0
    5.6450  -12.3236   27.0664 C   0  0  0  0  0  0  0  0  0  0  0  0
    7.0473  -12.7371   26.5778 C   0  0  2  0  0  0  0  0  0  0  0  0
    7.7622  -11.4668   26.2535 C   0  0  0  0  0  0  0  0  0  0  0  0
    6.8423  -13.7016   25.4803 C   0  0  0  0  0  0  0  0  0  0  0  0
    8.0151  -14.3740   24.8846 C   0  0  2  0  0  0  0  0  0  0  0  0
    7.6298  -15.2642   23.7862 N   0  0  0  0  0  0  0  0  0  0  0  0
    8.8436  -15.0804   25.8732 C   0  0  0  0  0  0  0  0  0  0  0  0
    9.5454  -14.3844   26.6626 O   0  0  0  0  0  0  0  0  0  0  0  0
    8.9298  -16.4969   26.0114 N   0  0  0  0  0  0  0  0  0  0  0  0
    9.8956  -17.3544   25.4253 C   0  0  0  0  0  0  0  0  0  0  0  0
   11.2810  -17.2667   25.8537 C   0  0  0  0  0  0  0  0  0  0  0  0
   12.2081  -16.5889   25.4007 O   0  0  0  0  0  0  0  0  0  0  0  0
   11.6463  -18.0786   26.9644 O   0  0  0  0  0  0  0  0  0  0  0  0
  2  1  1  6
  3  2  1  0
  4  2  1  0
  4  5  1  1
  6 13  1  0
  6  4  1  0
  7  6  2  0
  9  8  1  6
  9 10  1  0
  9 11  1  0
 12 11  1  1
 12 14  1  0
 12 13  1  0
 14 15  2  0
 16 14  1  0
 16 17  1  0
 18 20  1  0
 18 17  1  0
 19 18  2  0
M  END
$$$$
