VLG.pdb
     RDKit          3D

 20 19  0  0  1  0  0  0  0  0999 V2000
    6.7136  -17.6069   21.8996 C   0  0  0  0  0  0  0  0  0  0  0  0
    7.4234  -16.9935   20.7108 C   0  0  1  0  0  0  0  0  0  0  0  0
    6.8985  -17.6029   19.4550 C   0  0  0  0  0  0  0  0  0  0  0  0
    7.2189  -15.4972   20.7839 C   0  0  2  0  0  0  0  0  0  0  0  0
    7.8229  -14.8436   19.6405 N   0  0  0  0  0  0  0  0  0  0  0  0
    7.7384  -14.9066   22.0180 C   0  0  0  0  0  0  0  0  0  0  0  0
    8.9761  -14.6068   22.1028 O   0  0  0  0  0  0  0  0  0  0  0  0
    7.7603  -12.8544   27.1053 C   0  0  0  0  0  0  0  0  0  0  0  0
    7.2104  -12.0405   25.9173 C   0  0  2  0  0  0  0  0  0  0  0  0
    6.2788  -11.0319   26.5045 C   0  0  0  0  0  0  0  0  0  0  0  0
    6.6449  -13.0160   24.9657 C   0  0  0  0  0  0  0  0  0  0  0  0
    7.5208  -14.0650   24.4047 C   0  0  2  0  0  0  0  0  0  0  0  0
    6.9710  -14.6261   23.1677 N   0  0  0  0  0  0  0  0  0  0  0  0
    7.8465  -15.1265   25.3690 C   0  0  0  0  0  0  0  0  0  0  0  0
    6.9955  -15.3922   26.2664 O   0  0  0  0  0  0  0  0  0  0  0  0
    9.0559  -15.8816   25.3828 N   0  0  0  0  0  0  0  0  0  0  0  0
   10.3744  -15.3787   25.5241 C   0  0  0  0  0  0  0  0  0  0  0  0
   11.4987  -16.2967   25.4608 C   0  0  0  0  0  0  0  0  0  0  0  0
   11.9673  -16.9088   24.4965 O   0  0  0  0  0  0  0  0  0  0  0  0
   12.1779  -16.5415   26.6876 O   0  0  0  0  0  0  0  0  0  0  0  0
  2  1  1  1
  3  2  1  0
  4  2  1  0
  4  5  1  6
  6 13  1  0
  6  4  1  0
  7  6  2  0
  9  8  1  1
  9 10  1  0
  9 11  1  0
 12 11  1  1
 12 14  1  0
 12 13  1  0
 14 15  2  0
 16 14  1  0
 16 17  1  0
 18 20  1  0
 18 17  1  0
 19 18  2  0
M  END
$$$$
