VLG.pdb
     RDKit          3D

 20 19  0  0  1  0  0  0  0  0999 V2000
    6.8052  -18.9299   24.8919 C   0  0  0  0  0  0  0  0  0  0  0  0
    6.6085  -18.7518   23.4010 C   0  0  1  0  0  0  0  0  0  0  0  0
    5.7239  -19.8372   22.8875 C   0  0  0  0  0  0  0  0  0  0  0  0
    6.0480  -17.3650   23.1806 C   0  0  2  0  0  0  0  0  0  0  0  0
    5.7254  -17.1617   21.7827 N   0  0  0  0  0  0  0  0  0  0  0  0
    6.9468  -16.3037   23.6363 C   0  0  0  0  0  0  0  0  0  0  0  0
    7.9387  -15.9606   22.9100 O   0  0  0  0  0  0  0  0  0  0  0  0
    7.0781  -11.6600   25.1398 C   0  0  0  0  0  0  0  0  0  0  0  0
    6.2645  -12.6531   25.9931 C   0  0  2  0  0  0  0  0  0  0  0  0
    5.6547  -11.8481   27.0932 C   0  0  0  0  0  0  0  0  0  0  0  0
    7.1911  -13.7357   26.3755 C   0  0  0  0  0  0  0  0  0  0  0  0
    7.7725  -14.5913   25.3209 C   0  0  2  0  0  0  0  0  0  0  0  0
    6.8160  -15.5964   24.8494 N   0  0  0  0  0  0  0  0  0  0  0  0
    9.0449  -15.2146   25.7147 C   0  0  0  0  0  0  0  0  0  0  0  0
    9.0260  -16.0482   26.6659 O   0  0  0  0  0  0  0  0  0  0  0  0
   10.3108  -14.9487   25.1147 N   0  0  0  0  0  0  0  0  0  0  0  0
   11.5660  -15.4874   25.4964 C   0  0  0  0  0  0  0  0  0  0  0  0
   12.0636  -16.6784   24.8297 C   0  0  0  0  0  0  0  0  0  0  0  0
   11.5346  -17.3788   23.9615 O   0  0  0  0  0  0  0  0  0  0  0  0
   13.3575  -17.1227   25.2231 O   0  0  0  0  0  0  0  0  0  0  0  0
  2  1  1  1
  3  2  1  0
  4  2  1  0
  4  5  1  6
  6 13  1  0
  6  4  1  0
  7  6  2  0
  9  8  1  6
  9 10  1  0
  9 11  1  0
 12 11  1  1
 12 14  1  0
 12 13  1  0
 14 15  2  0
 16 14  1  0
 16 17  1  0
 18 20  1  0
 18 17  1  0
 19 18  2  0
M  END
$$$$
