VLG.pdb
     RDKit          3D

 20 19  0  0  1  0  0  0  0  0999 V2000
    7.5642  -19.3158   25.6841 C   0  0  0  0  0  0  0  0  0  0  0  0
    6.9170  -19.3549   24.3156 C   0  0  1  0  0  0  0  0  0  0  0  0
    6.0637  -20.5733   24.2085 C   0  0  0  0  0  0  0  0  0  0  0  0
    6.1477  -18.0651   24.1415 C   0  0  2  0  0  0  0  0  0  0  0  0
    5.4098  -18.0758   22.8945 N   0  0  0  0  0  0  0  0  0  0  0  0
    6.9998  -16.8765   24.1974 C   0  0  0  0  0  0  0  0  0  0  0  0
    7.7067  -16.5577   23.1837 O   0  0  0  0  0  0  0  0  0  0  0  0
    6.7775  -12.1046   24.7262 C   0  0  0  0  0  0  0  0  0  0  0  0
    6.3265  -13.0234   25.8789 C   0  0  2  0  0  0  0  0  0  0  0  0
    5.7236  -12.1263   26.9094 C   0  0  0  0  0  0  0  0  0  0  0  0
    7.5084  -13.8139   26.2729 C   0  0  0  0  0  0  0  0  0  0  0  0
    8.0141  -14.8573   25.3574 C   0  0  2  0  0  0  0  0  0  0  0  0
    7.1186  -16.0162   25.3087 N   0  0  0  0  0  0  0  0  0  0  0  0
    9.3956  -15.2672   25.6507 C   0  0  0  0  0  0  0  0  0  0  0  0
   10.0958  -14.5078   26.3810 O   0  0  0  0  0  0  0  0  0  0  0  0
   10.0204  -16.4549   25.1689 N   0  0  0  0  0  0  0  0  0  0  0  0
   11.3604  -16.8638   25.3892 C   0  0  0  0  0  0  0  0  0  0  0  0
   12.3719  -16.5614   24.3911 C   0  0  0  0  0  0  0  0  0  0  0  0
   12.2549  -16.0375   23.2794 O   0  0  0  0  0  0  0  0  0  0  0  0
   13.7092  -16.9152   24.7267 O   0  0  0  0  0  0  0  0  0  0  0  0
  2  1  1  1
  3  2  1  0
  4  2  1  0
  4  5  1  6
  6 13  1  0
  6  4  1  0
  7  6  2  0
  9  8  1  6
  9 10  1  0
  9 11  1  0
 12 11  1  1
 12 14  1  0
 12 13  1  0
 14 15  2  0
 16 14  1  0
 16 17  1  0
 18 20  1  0
 18 17  1  0
 19 18  2  0
M  END
$$$$
