VLG.pdb
     RDKit          3D

 20 19  0  0  1  0  0  0  0  0999 V2000
    7.9162  -18.4580   22.7618 C   0  0  0  0  0  0  0  0  0  0  0  0
    8.9246  -17.9746   21.7406 C   0  0  1  0  0  0  0  0  0  0  0  0
    8.7903  -18.7829   20.4945 C   0  0  0  0  0  0  0  0  0  0  0  0
    8.6813  -16.4976   21.5280 C   0  0  2  0  0  0  0  0  0  0  0  0
    9.5133  -15.9932   20.4543 N   0  0  0  0  0  0  0  0  0  0  0  0
    8.9010  -15.7001   22.7353 C   0  0  0  0  0  0  0  0  0  0  0  0
   10.0922  -15.4603   23.1260 O   0  0  0  0  0  0  0  0  0  0  0  0
    5.5549  -12.1927   26.5626 C   0  0  0  0  0  0  0  0  0  0  0  0
    6.9906  -12.6965   26.3157 C   0  0  2  0  0  0  0  0  0  0  0  0
    7.8509  -11.4774   26.2563 C   0  0  0  0  0  0  0  0  0  0  0  0
    6.9355  -13.5493   25.1129 C   0  0  0  0  0  0  0  0  0  0  0  0
    8.1269  -14.3359   24.7332 C   0  0  2  0  0  0  0  0  0  0  0  0
    7.8814  -15.1498   23.5396 N   0  0  0  0  0  0  0  0  0  0  0  0
    8.6565  -15.1554   25.8334 C   0  0  0  0  0  0  0  0  0  0  0  0
    9.2616  -14.5639   26.7737 O   0  0  0  0  0  0  0  0  0  0  0  0
    8.5520  -16.5745   25.9253 N   0  0  0  0  0  0  0  0  0  0  0  0
    8.8821  -17.3840   27.0422 C   0  0  0  0  0  0  0  0  0  0  0  0
   10.2654  -17.7716   27.2584 C   0  0  0  0  0  0  0  0  0  0  0  0
   11.2231  -17.7547   26.4794 O   0  0  0  0  0  0  0  0  0  0  0  0
   10.5871  -18.2464   28.5612 O   0  0  0  0  0  0  0  0  0  0  0  0
  2  1  1  1
  3  2  1  0
  4  2  1  0
  4  5  1  6
  6 13  1  0
  6  4  1  0
  7  6  2  0
  9  8  1  6
  9 10  1  0
  9 11  1  0
 12 11  1  1
 12 14  1  0
 12 13  1  0
 14 15  2  0
 16 14  1  0
 16 17  1  0
 18 20  1  0
 18 17  1  0
 19 18  2  0
M  END
$$$$
