VLG.pdb
     RDKit          3D

 20 19  0  0  1  0  0  0  0  0999 V2000
    7.5833  -19.6097   25.8904 C   0  0  0  0  0  0  0  0  0  0  0  0
    6.8488  -19.9555   24.6121 C   0  0  1  0  0  0  0  0  0  0  0  0
    6.1961  -21.2878   24.7637 C   0  0  0  0  0  0  0  0  0  0  0  0
    5.8718  -18.8357   24.3342 C   0  0  2  0  0  0  0  0  0  0  0  0
    5.1416  -19.0885   23.1084 N   0  0  0  0  0  0  0  0  0  0  0  0
    6.5108  -17.5210   24.2625 C   0  0  0  0  0  0  0  0  0  0  0  0
    7.2063  -17.2116   23.2381 O   0  0  0  0  0  0  0  0  0  0  0  0
    6.4177  -12.1307   27.2644 C   0  0  0  0  0  0  0  0  0  0  0  0
    7.2144  -12.9188   26.2060 C   0  0  2  0  0  0  0  0  0  0  0  0
    7.2350  -12.0621   24.9830 C   0  0  0  0  0  0  0  0  0  0  0  0
    6.5733  -14.2433   26.0979 C   0  0  0  0  0  0  0  0  0  0  0  0
    7.1818  -15.2683   25.2253 C   0  0  2  0  0  0  0  0  0  0  0  0
    6.4278  -16.5244   25.2570 N   0  0  0  0  0  0  0  0  0  0  0  0
    8.6068  -15.4986   25.5066 C   0  0  0  0  0  0  0  0  0  0  0  0
    8.9527  -15.6649   26.7120 O   0  0  0  0  0  0  0  0  0  0  0  0
    9.6416  -15.5413   24.5266 N   0  0  0  0  0  0  0  0  0  0  0  0
   11.0370  -15.6351   24.7625 C   0  0  0  0  0  0  0  0  0  0  0  0
   11.9523  -15.6415   23.6343 C   0  0  0  0  0  0  0  0  0  0  0  0
   11.7159  -15.6055   22.4231 O   0  0  0  0  0  0  0  0  0  0  0  0
   13.3387  -15.6975   23.9522 O   0  0  0  0  0  0  0  0  0  0  0  0
  2  1  1  1
  3  2  1  0
  4  2  1  0
  4  5  1  6
  6 13  1  0
  6  4  1  0
  7  6  2  0
  9  8  1  1
  9 10  1  0
  9 11  1  0
 12 11  1  1
 12 14  1  0
 12 13  1  0
 14 15  2  0
 16 14  1  0
 16 17  1  0
 18 20  1  0
 18 17  1  0
 19 18  2  0
M  END
$$$$
