APR.pdb
     RDKit          3D

 24 24  0  0  1  0  0  0  0  0999 V2000
   21.6089   -7.0100  -13.5032 C   0  0  0  0  0  0  0  0  0  0  0  0
   21.2229   -6.6858  -14.9386 C   0  0  2  0  0  0  0  0  0  0  0  0
   20.9039   -5.3105  -15.1391 N   0  0  0  0  0  0  0  0  0  0  0  0
   20.2329   -7.6481  -15.4519 C   0  0  0  0  0  0  0  0  0  0  0  0
   19.0472   -7.4697  -15.1031 O   0  0  0  0  0  0  0  0  0  0  0  0
   20.5587   -8.7571  -16.3143 N   0  0  0  0  0  0  0  0  0  0  0  0
   21.8577   -8.8723  -16.9516 C   0  0  0  0  0  0  0  0  0  0  0  0
   21.7805  -10.1123  -17.8131 C   0  0  0  0  0  0  0  0  0  0  0  0
   20.6930  -10.9349  -17.1597 C   0  0  0  0  0  0  0  0  0  0  0  0
   19.7480   -9.8286  -16.7166 C   0  0  1  0  0  0  0  0  0  0  0  0
   18.8103  -10.3761  -15.6913 C   0  0  0  0  0  0  0  0  0  0  0  0
   19.1896  -10.4557  -14.5131 O   0  0  0  0  0  0  0  0  0  0  0  0
   10.1910   -9.9564  -13.8398 N   0  0  0  0  0  0  0  0  0  0  0  0
   10.8501  -10.6924  -12.8157 C   0  0  0  0  0  0  0  0  0  0  0  0
   10.1918  -11.0920  -11.8006 N   0  0  0  0  0  0  0  0  0  0  0  0
   12.2509  -10.9838  -12.9237 N   0  0  0  0  0  0  0  0  0  0  0  0
   13.0011  -10.4379  -14.0450 C   0  0  0  0  0  0  0  0  0  0  0  0
   14.3717  -11.1078  -13.9914 C   0  0  0  0  0  0  0  0  0  0  0  0
   15.2545  -10.6512  -15.1129 C   0  0  0  0  0  0  0  0  0  0  0  0
   16.5631  -11.3594  -15.0604 C   0  0  2  0  0  0  0  0  0  0  0  0
   17.5038  -10.8029  -16.0372 N   0  0  0  0  0  0  0  0  0  0  0  0
   16.4326  -12.7960  -15.1772 C   0  0  0  0  0  0  0  0  0  0  0  0
   16.6566  -13.4944  -16.3372 O   0  0  0  0  0  0  0  0  0  0  0  0
   16.0864  -13.4485  -14.1457 O   0  0  0  0  0  0  0  0  0  0  0  0
  2  1  1  1
  2  3  1  0
  4  2  1  0
  5  4  2  0
  6 10  1  0
  6  4  1  0
  7  6  1  0
  8  7  1  0
  8  9  1  0
  9 10  1  0
 10 11  1  1
 11 12  2  0
 13 14  1  0
 14 15  2  0
 16 17  1  0
 16 14  1  0
 18 17  1  0
 19 18  1  0
 20 21  1  0
 20 19  1  6
 21 11  1  0
 22 20  1  0
 23 22  1  0
 24 22  2  0
M  END
$$$$
