APR.pdb
     RDKit          3D

 24 24  0  0  1  0  0  0  0  0999 V2000
   26.6323  -19.5687  -15.3958 C   0  0  0  0  0  0  0  0  0  0  0  0
   26.9858  -20.7706  -14.5327 C   0  0  2  0  0  0  0  0  0  0  0  0
   27.6849  -21.7892  -15.2448 N   0  0  0  0  0  0  0  0  0  0  0  0
   25.8208  -21.2258  -13.7546 C   0  0  0  0  0  0  0  0  0  0  0  0
   24.9681  -21.9007  -14.3683 O   0  0  0  0  0  0  0  0  0  0  0  0
   25.6230  -20.9367  -12.3557 N   0  0  0  0  0  0  0  0  0  0  0  0
   26.6634  -20.3269  -11.5479 C   0  0  0  0  0  0  0  0  0  0  0  0
   26.1010  -20.2536  -10.1464 C   0  0  0  0  0  0  0  0  0  0  0  0
   24.6042  -20.2601  -10.3607 C   0  0  0  0  0  0  0  0  0  0  0  0
   24.5065  -21.2034  -11.5498 C   0  0  1  0  0  0  0  0  0  0  0  0
   23.1677  -21.0366  -12.1901 C   0  0  0  0  0  0  0  0  0  0  0  0
   22.9673  -20.0489  -12.9131 O   0  0  0  0  0  0  0  0  0  0  0  0
   19.1288  -24.8934   -8.3031 N   0  0  0  0  0  0  0  0  0  0  0  0
   17.8761  -24.2575   -8.5291 C   0  0  0  0  0  0  0  0  0  0  0  0
   17.1601  -23.9005   -7.5375 N   0  0  0  0  0  0  0  0  0  0  0  0
   17.4189  -24.0190   -9.8682 N   0  0  0  0  0  0  0  0  0  0  0  0
   18.3222  -24.2790  -10.9793 C   0  0  0  0  0  0  0  0  0  0  0  0
   19.1153  -22.9900  -11.1785 C   0  0  0  0  0  0  0  0  0  0  0  0
   19.9826  -23.0573  -12.3986 C   0  0  0  0  0  0  0  0  0  0  0  0
   20.7797  -21.8072  -12.5345 C   0  0  2  0  0  0  0  0  0  0  0  0
   22.1291  -21.9798  -11.9887 N   0  0  0  0  0  0  0  0  0  0  0  0
   20.1083  -20.6474  -11.9883 C   0  0  0  0  0  0  0  0  0  0  0  0
   19.1849  -19.9010  -12.6768 O   0  0  0  0  0  0  0  0  0  0  0  0
   20.3935  -20.2972  -10.8028 O   0  0  0  0  0  0  0  0  0  0  0  0
  2  1  1  6
  2  3  1  0
  4  2  1  0
  5  4  2  0
  6 10  1  0
  6  4  1  0
  7  6  1  0
  8  7  1  0
  8  9  1  0
  9 10  1  0
 10 11  1  6
 11 12  2  0
 13 14  1  0
 14 15  2  0
 16 17  1  0
 16 14  1  0
 18 17  1  0
 19 18  1  0
 20 21  1  0
 20 19  1  1
 21 11  1  0
 22 20  1  0
 23 22  1  0
 24 22  2  0
M  END
$$$$
