APR.pdb
     RDKit          3D

 24 24  0  0  1  0  0  0  0  0999 V2000
   25.5928  -22.2979  -17.9073 C   0  0  0  0  0  0  0  0  0  0  0  0
   26.9218  -22.3355  -17.1677 C   0  0  2  0  0  0  0  0  0  0  0  0
   27.6450  -23.5477  -17.3706 N   0  0  0  0  0  0  0  0  0  0  0  0
   26.7595  -21.9209  -15.7637 C   0  0  0  0  0  0  0  0  0  0  0  0
   26.3163  -22.7813  -14.9746 O   0  0  0  0  0  0  0  0  0  0  0  0
   27.0787  -20.6040  -15.2701 N   0  0  0  0  0  0  0  0  0  0  0  0
   27.8103  -19.6436  -16.0758 C   0  0  0  0  0  0  0  0  0  0  0  0
   28.0012  -18.4317  -15.1922 C   0  0  0  0  0  0  0  0  0  0  0  0
   26.8737  -18.5382  -14.1903 C   0  0  0  0  0  0  0  0  0  0  0  0
   26.8153  -20.0472  -14.0100 C   0  0  1  0  0  0  0  0  0  0  0  0
   25.5095  -20.4085  -13.3819 C   0  0  0  0  0  0  0  0  0  0  0  0
   24.5163  -20.5624  -14.1087 O   0  0  0  0  0  0  0  0  0  0  0  0
   20.0131  -23.3355   -7.0194 N   0  0  0  0  0  0  0  0  0  0  0  0
   20.0149  -22.8199   -8.3457 C   0  0  0  0  0  0  0  0  0  0  0  0
   19.2704  -23.3523   -9.2321 N   0  0  0  0  0  0  0  0  0  0  0  0
   20.8517  -21.7049   -8.6855 N   0  0  0  0  0  0  0  0  0  0  0  0
   22.2733  -21.9294   -8.9018 C   0  0  0  0  0  0  0  0  0  0  0  0
   22.8660  -20.5580   -9.2149 C   0  0  0  0  0  0  0  0  0  0  0  0
   24.2227  -20.6718   -9.8409 C   0  0  0  0  0  0  0  0  0  0  0  0
   24.0991  -20.8147  -11.3177 C   0  0  2  0  0  0  0  0  0  0  0  0
   25.3851  -20.5783  -11.9802 N   0  0  0  0  0  0  0  0  0  0  0  0
   23.0349  -20.0082  -11.8758 C   0  0  0  0  0  0  0  0  0  0  0  0
   21.7953  -20.4964  -12.2058 O   0  0  0  0  0  0  0  0  0  0  0  0
   23.2631  -18.7764  -12.0757 O   0  0  0  0  0  0  0  0  0  0  0  0
  2  1  1  1
  2  3  1  0
  4  2  1  0
  5  4  2  0
  6 10  1  0
  6  4  1  0
  7  6  1  0
  8  7  1  0
  8  9  1  0
  9 10  1  0
 10 11  1  6
 11 12  2  0
 13 14  1  0
 14 15  2  0
 16 17  1  0
 16 14  1  0
 18 17  1  0
 19 18  1  0
 20 21  1  0
 20 19  1  1
 21 11  1  0
 22 20  1  0
 23 22  1  0
 24 22  2  0
M  END
$$$$
