APR.pdb
     RDKit          3D

 24 24  0  0  1  0  0  0  0  0999 V2000
   27.6268  -21.7232  -18.1910 C   0  0  0  0  0  0  0  0  0  0  0  0
   28.1698  -21.6269  -16.7731 C   0  0  2  0  0  0  0  0  0  0  0  0
   28.8077  -22.8236  -16.3319 N   0  0  0  0  0  0  0  0  0  0  0  0
   27.1610  -21.0701  -15.8555 C   0  0  0  0  0  0  0  0  0  0  0  0
   26.4240  -21.8911  -15.2707 O   0  0  0  0  0  0  0  0  0  0  0  0
   26.9882  -19.6601  -15.6072 N   0  0  0  0  0  0  0  0  0  0  0  0
   27.9537  -18.6798  -16.0693 C   0  0  0  0  0  0  0  0  0  0  0  0
   27.4570  -17.3462  -15.5588 C   0  0  0  0  0  0  0  0  0  0  0  0
   25.9726  -17.5652  -15.3716 C   0  0  0  0  0  0  0  0  0  0  0  0
   25.9716  -19.0090  -14.8934 C   0  0  1  0  0  0  0  0  0  0  0  0
   24.5934  -19.5653  -15.0398 C   0  0  0  0  0  0  0  0  0  0  0  0
   24.1937  -19.8884  -16.1686 O   0  0  0  0  0  0  0  0  0  0  0  0
   18.7458  -23.4939   -9.4369 N   0  0  0  0  0  0  0  0  0  0  0  0
   18.3588  -23.7164  -10.7880 C   0  0  0  0  0  0  0  0  0  0  0  0
   17.3672  -24.4741  -11.0452 N   0  0  0  0  0  0  0  0  0  0  0  0
   19.0817  -23.0911  -11.8582 N   0  0  0  0  0  0  0  0  0  0  0  0
   20.2806  -22.3265  -11.5481 C   0  0  0  0  0  0  0  0  0  0  0  0
   20.7249  -21.7003  -12.8674 C   0  0  0  0  0  0  0  0  0  0  0  0
   21.9851  -20.9058  -12.7055 C   0  0  0  0  0  0  0  0  0  0  0  0
   22.4106  -20.3407  -14.0157 C   0  0  2  0  0  0  0  0  0  0  0  0
   23.7399  -19.7304  -13.9204 N   0  0  0  0  0  0  0  0  0  0  0  0
   21.4310  -19.4420  -14.5876 C   0  0  0  0  0  0  0  0  0  0  0  0
   21.4289  -18.0838  -14.3899 O   0  0  0  0  0  0  0  0  0  0  0  0
   20.5167  -19.9404  -15.3123 O   0  0  0  0  0  0  0  0  0  0  0  0
  2  1  1  6
  2  3  1  0
  4  2  1  0
  5  4  2  0
  6 10  1  0
  6  4  1  0
  7  6  1  0
  8  7  1  0
  8  9  1  0
  9 10  1  0
 10 11  1  6
 11 12  2  0
 13 14  1  0
 14 15  2  0
 16 17  1  0
 16 14  1  0
 18 17  1  0
 19 18  1  0
 20 21  1  0
 20 19  1  1
 21 11  1  0
 22 20  1  0
 23 22  1  0
 24 22  2  0
M  END
$$$$
