APR.pdb
     RDKit          3D

 24 24  0  0  1  0  0  0  0  0999 V2000
   15.4338  -11.7339  -16.5558 C   0  0  0  0  0  0  0  0  0  0  0  0
   16.6553  -12.2602  -15.8171 C   0  0  2  0  0  0  0  0  0  0  0  0
   16.5235  -13.6199  -15.4080 N   0  0  0  0  0  0  0  0  0  0  0  0
   17.0861  -11.3208  -14.7676 C   0  0  0  0  0  0  0  0  0  0  0  0
   16.5481  -11.4487  -13.6480 O   0  0  0  0  0  0  0  0  0  0  0  0
   18.0724  -10.2876  -14.9660 N   0  0  0  0  0  0  0  0  0  0  0  0
   18.9630  -10.2926  -16.1122 C   0  0  0  0  0  0  0  0  0  0  0  0
   19.8772   -9.1034  -15.9233 C   0  0  0  0  0  0  0  0  0  0  0  0
   19.0795   -8.1765  -15.0340 C   0  0  0  0  0  0  0  0  0  0  0  0
   18.3795   -9.1927  -14.1450 C   0  0  1  0  0  0  0  0  0  0  0  0
   17.2288   -8.5273  -13.4641 C   0  0  0  0  0  0  0  0  0  0  0  0
   16.1662   -8.3812  -14.0869 O   0  0  0  0  0  0  0  0  0  0  0  0
   14.6501   -5.2235   -7.0403 N   0  0  0  0  0  0  0  0  0  0  0  0
   13.4399   -5.9708   -7.0796 C   0  0  0  0  0  0  0  0  0  0  0  0
   12.3378   -5.4058   -6.7806 N   0  0  0  0  0  0  0  0  0  0  0  0
   13.4587   -7.3559   -7.4539 N   0  0  0  0  0  0  0  0  0  0  0  0
   14.6975   -7.9360   -7.9509 C   0  0  0  0  0  0  0  0  0  0  0  0
   14.8658   -7.3994   -9.3700 C   0  0  0  0  0  0  0  0  0  0  0  0
   16.0702   -7.9839  -10.0430 C   0  0  0  0  0  0  0  0  0  0  0  0
   16.2101   -7.4336  -11.4194 C   0  0  2  0  0  0  0  0  0  0  0  0
   17.3277   -8.0634  -12.1285 N   0  0  0  0  0  0  0  0  0  0  0  0
   16.2854   -5.9886  -11.4446 C   0  0  0  0  0  0  0  0  0  0  0  0
   17.4614   -5.2829  -11.4969 O   0  0  0  0  0  0  0  0  0  0  0  0
   15.1987   -5.3347  -11.4124 O   0  0  0  0  0  0  0  0  0  0  0  0
  2  1  1  1
  2  3  1  0
  4  2  1  0
  5  4  2  0
  6 10  1  0
  6  4  1  0
  7  6  1  0
  8  7  1  0
  8  9  1  0
  9 10  1  0
 10 11  1  6
 11 12  2  0
 13 14  1  0
 14 15  2  0
 16 17  1  0
 16 14  1  0
 18 17  1  0
 19 18  1  0
 20 21  1  0
 20 19  1  1
 21 11  1  0
 22 20  1  0
 23 22  1  0
 24 22  2  0
M  END
$$$$
