APR.pdb
     RDKit          3D

 24 24  0  0  1  0  0  0  0  0999 V2000
   25.3747  -21.6535   -8.9560 C   0  0  0  0  0  0  0  0  0  0  0  0
   25.9297  -20.5213   -9.8072 C   0  0  2  0  0  0  0  0  0  0  0  0
   26.1086  -19.3068   -9.0817 N   0  0  0  0  0  0  0  0  0  0  0  0
   25.1907  -20.3998  -11.0755 C   0  0  0  0  0  0  0  0  0  0  0  0
   24.0298  -19.9453  -11.0044 O   0  0  0  0  0  0  0  0  0  0  0  0
   25.7289  -20.7710  -12.3609 N   0  0  0  0  0  0  0  0  0  0  0  0
   27.1529  -20.9652  -12.5648 C   0  0  0  0  0  0  0  0  0  0  0  0
   27.3159  -21.2724  -14.0361 C   0  0  0  0  0  0  0  0  0  0  0  0
   25.9654  -21.8205  -14.4389 C   0  0  0  0  0  0  0  0  0  0  0  0
   25.0566  -20.9572  -13.5776 C   0  0  1  0  0  0  0  0  0  0  0  0
   23.7098  -21.5983  -13.5031 C   0  0  0  0  0  0  0  0  0  0  0  0
   23.5205  -22.5019  -12.6748 O   0  0  0  0  0  0  0  0  0  0  0  0
   18.7907  -25.0253  -10.2814 N   0  0  0  0  0  0  0  0  0  0  0  0
   18.6952  -23.7145   -9.7358 C   0  0  0  0  0  0  0  0  0  0  0  0
   18.4814  -23.5626   -8.4890 N   0  0  0  0  0  0  0  0  0  0  0  0
   18.8382  -22.5669  -10.5852 N   0  0  0  0  0  0  0  0  0  0  0  0
   19.2511  -22.7590  -11.9675 C   0  0  0  0  0  0  0  0  0  0  0  0
   19.3495  -21.3592  -12.5685 C   0  0  0  0  0  0  0  0  0  0  0  0
   20.7729  -20.9644  -12.8204 C   0  0  0  0  0  0  0  0  0  0  0  0
   21.2501  -21.5467  -14.1049 C   0  0  2  0  0  0  0  0  0  0  0  0
   22.6511  -21.1957  -14.3552 N   0  0  0  0  0  0  0  0  0  0  0  0
   20.3923  -21.2231  -15.2246 C   0  0  0  0  0  0  0  0  0  0  0  0
   20.2709  -19.9648  -15.7590 O   0  0  0  0  0  0  0  0  0  0  0  0
   19.7081  -22.1585  -15.7408 O   0  0  0  0  0  0  0  0  0  0  0  0
  2  1  1  1
  2  3  1  0
  4  2  1  0
  5  4  2  0
  6 10  1  0
  6  4  1  0
  7  6  1  0
  8  7  1  0
  8  9  1  0
  9 10  1  0
 10 11  1  1
 11 12  2  0
 13 14  1  0
 14 15  2  0
 16 17  1  0
 16 14  1  0
 18 17  1  0
 19 18  1  0
 20 21  1  0
 20 19  1  1
 21 11  1  0
 22 20  1  0
 23 22  1  0
 24 22  2  0
M  END
$$$$
