APR.pdb
     RDKit          3D

 24 24  0  0  1  0  0  0  0  0999 V2000
   24.6204  -22.1984  -17.0620 C   0  0  0  0  0  0  0  0  0  0  0  0
   25.0667  -21.2003  -16.0041 C   0  0  2  0  0  0  0  0  0  0  0  0
   26.3290  -21.5215  -15.4237 N   0  0  0  0  0  0  0  0  0  0  0  0
   23.9818  -20.9198  -15.0482 C   0  0  0  0  0  0  0  0  0  0  0  0
   23.8185  -21.7492  -14.1292 O   0  0  0  0  0  0  0  0  0  0  0  0
   23.1218  -19.7644  -15.1212 N   0  0  0  0  0  0  0  0  0  0  0  0
   23.3963  -18.6648  -16.0281 C   0  0  0  0  0  0  0  0  0  0  0  0
   22.3218  -17.6360  -15.7585 C   0  0  0  0  0  0  0  0  0  0  0  0
   21.1881  -18.4477  -15.1732 C   0  0  0  0  0  0  0  0  0  0  0  0
   21.9762  -19.4693  -14.3679 C   0  0  1  0  0  0  0  0  0  0  0  0
   21.0815  -20.6187  -14.0381 C   0  0  0  0  0  0  0  0  0  0  0  0
   20.8608  -21.4757  -14.9071 O   0  0  0  0  0  0  0  0  0  0  0  0
   18.7313  -25.0101   -6.6201 N   0  0  0  0  0  0  0  0  0  0  0  0
   18.2813  -25.6614   -7.8025 C   0  0  0  0  0  0  0  0  0  0  0  0
   17.9650  -26.8950   -7.7635 N   0  0  0  0  0  0  0  0  0  0  0  0
   18.1841  -24.9334   -9.0351 N   0  0  0  0  0  0  0  0  0  0  0  0
   19.0257  -23.7624   -9.2316 C   0  0  0  0  0  0  0  0  0  0  0  0
   18.6379  -23.1981  -10.5960 C   0  0  0  0  0  0  0  0  0  0  0  0
   19.4341  -21.9748  -10.9349 C   0  0  0  0  0  0  0  0  0  0  0  0
   19.5762  -21.8443  -12.4113 C   0  0  2  0  0  0  0  0  0  0  0  0
   20.4844  -20.7477  -12.7592 N   0  0  0  0  0  0  0  0  0  0  0  0
   18.3041  -21.7443  -13.0941 C   0  0  0  0  0  0  0  0  0  0  0  0
   17.6858  -22.7969  -13.7214 O   0  0  0  0  0  0  0  0  0  0  0  0
   17.7278  -20.6144  -13.1176 O   0  0  0  0  0  0  0  0  0  0  0  0
  2  1  1  1
  2  3  1  0
  4  2  1  0
  5  4  2  0
  6 10  1  0
  6  4  1  0
  7  6  1  0
  8  7  1  0
  8  9  1  0
  9 10  1  0
 10 11  1  6
 11 12  2  0
 13 14  1  0
 14 15  2  0
 16 17  1  0
 16 14  1  0
 18 17  1  0
 19 18  1  0
 20 21  1  0
 20 19  1  1
 21 11  1  0
 22 20  1  0
 23 22  1  0
 24 22  2  0
M  END
$$$$
