APR.pdb
     RDKit          3D

 24 24  0  0  1  0  0  0  0  0999 V2000
   25.7380  -18.5409  -18.1069 C   0  0  0  0  0  0  0  0  0  0  0  0
   25.6318  -18.4063  -16.5952 C   0  0  2  0  0  0  0  0  0  0  0  0
   25.2936  -19.6286  -15.9434 N   0  0  0  0  0  0  0  0  0  0  0  0
   24.8120  -17.2406  -16.2228 C   0  0  0  0  0  0  0  0  0  0  0  0
   23.5733  -17.3872  -16.2806 O   0  0  0  0  0  0  0  0  0  0  0  0
   25.3568  -15.9720  -15.8063 N   0  0  0  0  0  0  0  0  0  0  0  0
   26.7674  -15.8090  -15.5052 C   0  0  0  0  0  0  0  0  0  0  0  0
   26.9236  -14.3768  -15.0470 C   0  0  0  0  0  0  0  0  0  0  0  0
   25.7473  -13.6682  -15.6799 C   0  0  0  0  0  0  0  0  0  0  0  0
   24.6912  -14.7582  -15.5807 C   0  0  1  0  0  0  0  0  0  0  0  0
   23.5699  -14.4305  -16.5110 C   0  0  0  0  0  0  0  0  0  0  0  0
   23.6895  -14.7044  -17.7148 O   0  0  0  0  0  0  0  0  0  0  0  0
   14.8952  -14.2345  -16.0849 N   0  0  0  0  0  0  0  0  0  0  0  0
   15.2370  -13.5700  -17.2959 C   0  0  0  0  0  0  0  0  0  0  0  0
   14.3365  -13.3421  -18.1679 N   0  0  0  0  0  0  0  0  0  0  0  0
   16.5903  -13.1580  -17.5360 N   0  0  0  0  0  0  0  0  0  0  0  0
   17.6043  -13.4450  -16.5322 C   0  0  0  0  0  0  0  0  0  0  0  0
   18.8987  -12.8366  -17.0655 C   0  0  0  0  0  0  0  0  0  0  0  0
   20.0530  -13.1000  -16.1470 C   0  0  0  0  0  0  0  0  0  0  0  0
   21.2600  -13.4804  -16.9313 C   0  0  2  0  0  0  0  0  0  0  0  0
   22.3795  -13.8169  -16.0470 N   0  0  0  0  0  0  0  0  0  0  0  0
   21.6209  -12.4934  -17.9263 C   0  0  0  0  0  0  0  0  0  0  0  0
   21.1421  -12.4909  -19.2126 O   0  0  0  0  0  0  0  0  0  0  0  0
   22.4319  -11.5776  -17.5902 O   0  0  0  0  0  0  0  0  0  0  0  0
  2  1  1  6
  2  3  1  0
  4  2  1  0
  5  4  2  0
  6 10  1  0
  6  4  1  0
  7  6  1  0
  8  7  1  0
  8  9  1  0
  9 10  1  0
 10 11  1  6
 11 12  2  0
 13 14  1  0
 14 15  2  0
 16 17  1  0
 16 14  1  0
 18 17  1  0
 19 18  1  0
 20 21  1  0
 20 19  1  1
 21 11  1  0
 22 20  1  0
 23 22  1  0
 24 22  2  0
M  END
$$$$
