APR.pdb
     RDKit          3D

 24 24  0  0  1  0  0  0  0  0999 V2000
   28.4380  -17.6228  -15.7154 C   0  0  0  0  0  0  0  0  0  0  0  0
   28.7349  -19.1088  -15.8498 C   0  0  2  0  0  0  0  0  0  0  0  0
   28.4827  -19.6174  -17.1580 N   0  0  0  0  0  0  0  0  0  0  0  0
   28.1307  -19.8726  -14.7447 C   0  0  0  0  0  0  0  0  0  0  0  0
   26.9064  -20.1035  -14.8289 O   0  0  0  0  0  0  0  0  0  0  0  0
   28.8655  -20.3530  -13.6007 N   0  0  0  0  0  0  0  0  0  0  0  0
   30.3166  -20.3824  -13.5830 C   0  0  0  0  0  0  0  0  0  0  0  0
   30.6957  -21.0064  -12.2591 C   0  0  0  0  0  0  0  0  0  0  0  0
   29.4952  -20.7373  -11.3800 C   0  0  0  0  0  0  0  0  0  0  0  0
   28.3762  -20.8862  -12.3992 C   0  0  1  0  0  0  0  0  0  0  0  0
   27.1359  -20.2618  -11.8496 C   0  0  0  0  0  0  0  0  0  0  0  0
   27.0344  -19.0257  -11.8529 O   0  0  0  0  0  0  0  0  0  0  0  0
   18.4904  -21.6647  -12.3968 N   0  0  0  0  0  0  0  0  0  0  0  0
   18.6925  -20.6679  -11.4016 C   0  0  0  0  0  0  0  0  0  0  0  0
   17.6876  -20.1006  -10.8616 N   0  0  0  0  0  0  0  0  0  0  0  0
   20.0224  -20.3013  -11.0069 N   0  0  0  0  0  0  0  0  0  0  0  0
   21.1544  -20.9470  -11.6550 C   0  0  0  0  0  0  0  0  0  0  0  0
   22.3972  -20.4053  -10.9535 C   0  0  0  0  0  0  0  0  0  0  0  0
   23.6548  -20.9615  -11.5489 C   0  0  0  0  0  0  0  0  0  0  0  0
   24.8424  -20.4722  -10.7959 C   0  0  2  0  0  0  0  0  0  0  0  0
   26.0797  -21.0502  -11.3284 N   0  0  0  0  0  0  0  0  0  0  0  0
   24.7190  -20.6560   -9.3657 C   0  0  0  0  0  0  0  0  0  0  0  0
   24.2458  -19.6954   -8.5073 O   0  0  0  0  0  0  0  0  0  0  0  0
   25.0734  -21.7712   -8.8756 O   0  0  0  0  0  0  0  0  0  0  0  0
  2  1  1  6
  2  3  1  0
  4  2  1  0
  5  4  2  0
  6 10  1  0
  6  4  1  0
  7  6  1  0
  8  7  1  0
  8  9  1  0
  9 10  1  0
 10 11  1  1
 11 12  2  0
 13 14  1  0
 14 15  2  0
 16 17  1  0
 16 14  1  0
 18 17  1  0
 19 18  1  0
 20 21  1  0
 20 19  1  6
 21 11  1  0
 22 20  1  0
 23 22  1  0
 24 22  2  0
M  END
$$$$
