APR.pdb
     RDKit          3D

 24 24  0  0  1  0  0  0  0  0999 V2000
   26.3040  -16.6800  -16.2887 C   0  0  0  0  0  0  0  0  0  0  0  0
   27.0327  -17.9319  -16.7536 C   0  0  2  0  0  0  0  0  0  0  0  0
   26.9396  -18.1482  -18.1600 N   0  0  0  0  0  0  0  0  0  0  0  0
   26.6901  -19.0894  -15.9095 C   0  0  0  0  0  0  0  0  0  0  0  0
   25.5734  -19.6127  -16.1054 O   0  0  0  0  0  0  0  0  0  0  0  0
   27.5589  -19.6323  -14.8946 N   0  0  0  0  0  0  0  0  0  0  0  0
   28.9724  -19.3057  -14.8456 C   0  0  0  0  0  0  0  0  0  0  0  0
   29.5380  -20.1142  -13.7001 C   0  0  0  0  0  0  0  0  0  0  0  0
   28.3388  -20.3678  -12.8146 C   0  0  0  0  0  0  0  0  0  0  0  0
   27.2569  -20.5407  -13.8695 C   0  0  1  0  0  0  0  0  0  0  0  0
   25.9206  -20.3917  -13.2198 C   0  0  0  0  0  0  0  0  0  0  0  0
   25.5863  -19.2799  -12.7834 O   0  0  0  0  0  0  0  0  0  0  0  0
   18.6501  -23.5742  -12.9859 N   0  0  0  0  0  0  0  0  0  0  0  0
   18.4024  -22.4894  -12.0989 C   0  0  0  0  0  0  0  0  0  0  0  0
   17.2864  -22.4135  -11.4889 N   0  0  0  0  0  0  0  0  0  0  0  0
   19.4043  -21.4834  -11.8916 N   0  0  0  0  0  0  0  0  0  0  0  0
   20.6171  -21.5187  -12.6954 C   0  0  0  0  0  0  0  0  0  0  0  0
   21.5822  -22.4358  -11.9487 C   0  0  0  0  0  0  0  0  0  0  0  0
   22.8894  -22.5672  -12.6693 C   0  0  0  0  0  0  0  0  0  0  0  0
   23.7751  -21.4151  -12.3453 C   0  0  2  0  0  0  0  0  0  0  0  0
   25.0330  -21.4896  -13.0941 N   0  0  0  0  0  0  0  0  0  0  0  0
   23.9889  -21.2498  -10.9235 C   0  0  0  0  0  0  0  0  0  0  0  0
   25.0117  -21.8441  -10.2277 O   0  0  0  0  0  0  0  0  0  0  0  0
   23.1793  -20.5141  -10.2809 O   0  0  0  0  0  0  0  0  0  0  0  0
  2  1  1  1
  2  3  1  0
  4  2  1  0
  5  4  2  0
  6 10  1  0
  6  4  1  0
  7  6  1  0
  8  7  1  0
  8  9  1  0
  9 10  1  0
 10 11  1  1
 11 12  2  0
 13 14  1  0
 14 15  2  0
 16 17  1  0
 16 14  1  0
 18 17  1  0
 19 18  1  0
 20 21  1  0
 20 19  1  1
 21 11  1  0
 22 20  1  0
 23 22  1  0
 24 22  2  0
M  END
$$$$
