FFQ.pdb
     RDKit          3D

 32 33  0  0  1  0  0  0  0  0999 V2000
   10.8197  -16.9643   19.8476 N   0  0  0  0  0  0  0  0  0  0  0  0
    9.6029  -17.0231   20.6120 C   0  0  1  0  0  0  0  0  0  0  0  0
    9.3259  -18.4823   20.9102 C   0  0  0  0  0  0  0  0  0  0  0  0
    9.3194  -19.2998   19.6732 C   0  0  0  0  0  0  0  0  0  0  0  0
    8.9484  -20.6100   19.7294 C   0  0  0  0  0  0  0  0  0  0  0  0
    8.9443  -21.3661   18.5734 C   0  0  0  0  0  0  0  0  0  0  0  0
    9.3117  -20.8096   17.3621 C   0  0  0  0  0  0  0  0  0  0  0  0
    9.6799  -19.4932   17.3318 C   0  0  0  0  0  0  0  0  0  0  0  0
    9.6893  -18.7254   18.4762 C   0  0  0  0  0  0  0  0  0  0  0  0
    9.7316  -16.2202   21.8449 C   0  0  0  0  0  0  0  0  0  0  0  0
   10.8686  -16.0359   22.3874 O   0  0  0  0  0  0  0  0  0  0  0  0
    8.6263  -15.6304   22.4689 N   0  0  0  0  0  0  0  0  0  0  0  0
    8.7615  -14.8429   23.7279 C   0  0  1  0  0  0  0  0  0  0  0  0
    7.5101  -14.0428   23.8629 C   0  0  0  0  0  0  0  0  0  0  0  0
    7.3282  -13.2842   25.1030 C   0  0  0  0  0  0  0  0  0  0  0  0
    6.1998  -12.5718   25.4372 C   0  0  0  0  0  0  0  0  0  0  0  0
    6.0849  -11.8770   26.6232 C   0  0  0  0  0  0  0  0  0  0  0  0
    7.1147  -11.8694   27.5359 C   0  0  0  0  0  0  0  0  0  0  0  0
    8.2569  -12.5765   27.2234 C   0  0  0  0  0  0  0  0  0  0  0  0
    8.3610  -13.2654   26.0389 C   0  0  0  0  0  0  0  0  0  0  0  0
    8.8843  -15.8256   24.8081 C   0  0  0  0  0  0  0  0  0  0  0  0
    8.0185  -16.7691   24.8615 O   0  0  0  0  0  0  0  0  0  0  0  0
   12.6961  -20.5878   25.4119 N   0  0  0  0  0  0  0  0  0  0  0  0
   12.1682  -19.3756   24.8686 C   0  0  0  0  0  0  0  0  0  0  0  0
   11.9798  -19.3763   23.6163 O   0  0  0  0  0  0  0  0  0  0  0  0
   11.8610  -18.1930   25.7198 C   0  0  0  0  0  0  0  0  0  0  0  0
   10.3692  -18.1837   25.9530 C   0  0  0  0  0  0  0  0  0  0  0  0
    9.9407  -16.9504   26.7389 C   0  0  2  0  0  0  0  0  0  0  0  0
    9.8869  -15.8363   25.8103 N   0  0  0  0  0  0  0  0  0  0  0  0
   10.8256  -16.7184   27.8906 C   0  0  0  0  0  0  0  0  0  0  0  0
   10.9866  -17.7054   28.8892 O   0  0  0  0  0  0  0  0  0  0  0  0
   11.4943  -15.6754   28.0956 O   0  0  0  0  0  0  0  0  0  0  0  0
  2 10  1  0
  2  3  1  0
  2  1  1  1
  3  4  1  0
  4  5  2  0
  5  6  1  0
  7  6  2  0
  8  7  1  0
  9  8  2  0
  9  4  1  0
 10 11  2  0
 12 13  1  0
 12 10  1  0
 13 21  1  0
 13 14  1  1
 15 14  1  0
 16 15  2  0
 17 16  1  0
 18 17  2  0
 18 19  1  0
 19 20  2  0
 20 15  1  0
 21 22  2  0
 21 29  1  0
 23 24  1  0
 24 26  1  0
 24 25  2  0
 26 27  1  0
 28 27  1  6
 28 30  1  0
 29 28  1  0
 30 32  2  0
 30 31  1  0
M  END
$$$$
