FFQ.pdb
     RDKit          3D

 32 33  0  0  1  0  0  0  0  0999 V2000
    8.5928  -17.4990   20.8384 N   0  0  0  0  0  0  0  0  0  0  0  0
    9.8648  -16.8521   21.0172 C   0  0  1  0  0  0  0  0  0  0  0  0
   10.1023  -15.9777   19.8031 C   0  0  0  0  0  0  0  0  0  0  0  0
    9.0351  -14.9603   19.6467 C   0  0  0  0  0  0  0  0  0  0  0  0
    9.1331  -14.0219   18.6633 C   0  0  0  0  0  0  0  0  0  0  0  0
    8.1354  -13.0769   18.5228 C   0  0  0  0  0  0  0  0  0  0  0  0
    7.0405  -13.0724   19.3672 C   0  0  0  0  0  0  0  0  0  0  0  0
    6.9653  -14.0242   20.3460 C   0  0  0  0  0  0  0  0  0  0  0  0
    7.9523  -14.9737   20.4993 C   0  0  0  0  0  0  0  0  0  0  0  0
    9.8727  -16.0728   22.2716 C   0  0  0  0  0  0  0  0  0  0  0  0
   10.8436  -15.2984   22.5522 O   0  0  0  0  0  0  0  0  0  0  0  0
    8.8284  -16.1456   23.2008 N   0  0  0  0  0  0  0  0  0  0  0  0
    8.8069  -15.2982   24.4276 C   0  0  1  0  0  0  0  0  0  0  0  0
    7.5641  -14.4771   24.3527 C   0  0  0  0  0  0  0  0  0  0  0  0
    7.3124  -13.5379   25.4487 C   0  0  0  0  0  0  0  0  0  0  0  0
    8.1900  -12.5698   25.8790 C   0  0  0  0  0  0  0  0  0  0  0  0
    7.8963  -11.7104   26.9171 C   0  0  0  0  0  0  0  0  0  0  0  0
    6.6905  -11.7897   27.5754 C   0  0  0  0  0  0  0  0  0  0  0  0
    5.7937  -12.7526   27.1622 C   0  0  0  0  0  0  0  0  0  0  0  0
    6.0964  -13.6038   26.1266 C   0  0  0  0  0  0  0  0  0  0  0  0
    8.7638  -16.2274   25.5600 C   0  0  0  0  0  0  0  0  0  0  0  0
    8.7299  -15.7317   26.7414 O   0  0  0  0  0  0  0  0  0  0  0  0
   11.6380  -19.8249   22.5871 N   0  0  0  0  0  0  0  0  0  0  0  0
   12.4956  -19.8420   23.7307 C   0  0  0  0  0  0  0  0  0  0  0  0
   13.5415  -20.5470   23.6169 O   0  0  0  0  0  0  0  0  0  0  0  0
   12.1784  -19.0814   24.9709 C   0  0  0  0  0  0  0  0  0  0  0  0
   10.9311  -18.2759   24.6963 C   0  0  0  0  0  0  0  0  0  0  0  0
    9.9401  -18.3819   25.8491 C   0  0  2  0  0  0  0  0  0  0  0  0
    8.7495  -17.6422   25.4724 N   0  0  0  0  0  0  0  0  0  0  0  0
   10.5422  -17.9300   27.1126 C   0  0  0  0  0  0  0  0  0  0  0  0
   10.7191  -16.5531   27.3776 O   0  0  0  0  0  0  0  0  0  0  0  0
   10.9405  -18.6800   28.0378 O   0  0  0  0  0  0  0  0  0  0  0  0
  2 10  1  0
  2  3  1  0
  2  1  1  6
  3  4  1  0
  4  5  2  0
  5  6  1  0
  7  6  2  0
  8  7  1  0
  9  8  2  0
  9  4  1  0
 10 11  2  0
 12 13  1  0
 12 10  1  0
 13 21  1  0
 13 14  1  6
 15 14  1  0
 16 15  2  0
 17 16  1  0
 18 17  2  0
 18 19  1  0
 19 20  2  0
 20 15  1  0
 21 22  2  0
 21 29  1  0
 23 24  1  0
 24 26  1  0
 24 25  2  0
 26 27  1  0
 28 27  1  6
 28 30  1  0
 29 28  1  0
 30 32  2  0
 30 31  1  0
M  END
$$$$
