FFQ.pdb
     RDKit          3D

 32 33  0  0  1  0  0  0  0  0999 V2000
    9.1680  -17.2180   19.2471 N   0  0  0  0  0  0  0  0  0  0  0  0
    8.0332  -17.2040   20.1306 C   0  0  1  0  0  0  0  0  0  0  0  0
    7.5228  -18.6266   20.2341 C   0  0  0  0  0  0  0  0  0  0  0  0
    6.3217  -18.7133   21.0990 C   0  0  0  0  0  0  0  0  0  0  0  0
    6.4659  -18.8990   22.4414 C   0  0  0  0  0  0  0  0  0  0  0  0
    5.3428  -18.9787   23.2417 C   0  0  0  0  0  0  0  0  0  0  0  0
    4.0764  -18.8724   22.6971 C   0  0  0  0  0  0  0  0  0  0  0  0
    3.9580  -18.6864   21.3477 C   0  0  0  0  0  0  0  0  0  0  0  0
    5.0685  -18.6048   20.5357 C   0  0  0  0  0  0  0  0  0  0  0  0
    8.4145  -16.6546   21.4474 C   0  0  0  0  0  0  0  0  0  0  0  0
    9.5539  -16.9094   21.9552 O   0  0  0  0  0  0  0  0  0  0  0  0
    7.5547  -15.8385   22.1916 N   0  0  0  0  0  0  0  0  0  0  0  0
    8.0124  -15.1279   23.4200 C   0  0  1  0  0  0  0  0  0  0  0  0
    6.9260  -14.1739   23.7864 C   0  0  0  0  0  0  0  0  0  0  0  0
    7.0233  -13.5138   25.0907 C   0  0  0  0  0  0  0  0  0  0  0  0
    8.0336  -13.7093   26.0037 C   0  0  0  0  0  0  0  0  0  0  0  0
    8.0733  -13.0561   27.2179 C   0  0  0  0  0  0  0  0  0  0  0  0
    7.0845  -12.1662   27.5699 C   0  0  0  0  0  0  0  0  0  0  0  0
    6.0604  -11.9532   26.6709 C   0  0  0  0  0  0  0  0  0  0  0  0
    6.0305  -12.6093   25.4637 C   0  0  0  0  0  0  0  0  0  0  0  0
    8.1816  -16.1612   24.4453 C   0  0  0  0  0  0  0  0  0  0  0  0
    7.1576  -16.8631   24.7640 O   0  0  0  0  0  0  0  0  0  0  0  0
    8.1745  -21.8089   26.1327 N   0  0  0  0  0  0  0  0  0  0  0  0
    9.2424  -21.0773   25.5263 C   0  0  0  0  0  0  0  0  0  0  0  0
    9.5225  -21.4077   24.3363 O   0  0  0  0  0  0  0  0  0  0  0  0
    9.9747  -19.9995   26.2472 C   0  0  0  0  0  0  0  0  0  0  0  0
    9.9778  -18.7834   25.3522 C   0  0  0  0  0  0  0  0  0  0  0  0
    9.4028  -17.5681   26.0697 C   0  0  2  0  0  0  0  0  0  0  0  0
    9.3882  -16.4675   25.1236 N   0  0  0  0  0  0  0  0  0  0  0  0
   10.1470  -17.2769   27.3044 C   0  0  0  0  0  0  0  0  0  0  0  0
   10.8145  -16.0425   27.4723 O   0  0  0  0  0  0  0  0  0  0  0  0
   10.2609  -18.0528   28.2853 O   0  0  0  0  0  0  0  0  0  0  0  0
  2 10  1  0
  2  3  1  0
  2  1  1  6
  3  4  1  0
  4  5  2  0
  5  6  1  0
  7  6  2  0
  8  7  1  0
  9  8  2  0
  9  4  1  0
 10 11  2  0
 12 13  1  0
 12 10  1  0
 13 21  1  0
 13 14  1  1
 15 14  1  0
 16 15  2  0
 17 16  1  0
 18 17  2  0
 18 19  1  0
 19 20  2  0
 20 15  1  0
 21 22  2  0
 21 29  1  0
 23 24  1  0
 24 26  1  0
 24 25  2  0
 26 27  1  0
 28 27  1  6
 28 30  1  0
 29 28  1  0
 30 32  2  0
 30 31  1  0
M  END
$$$$
