FFQ.pdb
     RDKit          3D

 32 33  0  0  1  0  0  0  0  0999 V2000
   11.0054  -15.1584   20.1688 N   0  0  0  0  0  0  0  0  0  0  0  0
    9.9631  -14.9089   21.1278 C   0  0  1  0  0  0  0  0  0  0  0  0
    8.7110  -15.5975   20.6249 C   0  0  0  0  0  0  0  0  0  0  0  0
    7.9191  -14.7103   19.7394 C   0  0  0  0  0  0  0  0  0  0  0  0
    7.4604  -13.5170   20.2114 C   0  0  0  0  0  0  0  0  0  0  0  0
    6.7233  -12.6949   19.3813 C   0  0  0  0  0  0  0  0  0  0  0  0
    6.4464  -13.0685   18.0791 C   0  0  0  0  0  0  0  0  0  0  0  0
    6.9177  -14.2705   17.6290 C   0  0  0  0  0  0  0  0  0  0  0  0
    7.6544  -15.1020   18.4447 C   0  0  0  0  0  0  0  0  0  0  0  0
   10.3659  -15.3966   22.4624 C   0  0  0  0  0  0  0  0  0  0  0  0
   11.3549  -16.1871   22.5968 O   0  0  0  0  0  0  0  0  0  0  0  0
    9.6903  -15.0194   23.6288 N   0  0  0  0  0  0  0  0  0  0  0  0
   10.2868  -15.2154   24.9813 C   0  0  1  0  0  0  0  0  0  0  0  0
    9.4064  -14.4888   25.9413 C   0  0  0  0  0  0  0  0  0  0  0  0
    9.6841  -14.6605   27.3695 C   0  0  0  0  0  0  0  0  0  0  0  0
   10.2485  -13.7083   28.1864 C   0  0  0  0  0  0  0  0  0  0  0  0
   10.4845  -13.9267   29.5277 C   0  0  0  0  0  0  0  0  0  0  0  0
   10.1582  -15.1290   30.1121 C   0  0  0  0  0  0  0  0  0  0  0  0
    9.5911  -16.1000   29.3134 C   0  0  0  0  0  0  0  0  0  0  0  0
    9.3602  -15.8719   27.9780 C   0  0  0  0  0  0  0  0  0  0  0  0
   10.2648  -16.6599   25.2272 C   0  0  0  0  0  0  0  0  0  0  0  0
    9.2172  -17.3114   24.8797 O   0  0  0  0  0  0  0  0  0  0  0  0
   11.4552  -21.0170   21.9321 N   0  0  0  0  0  0  0  0  0  0  0  0
   12.2736  -21.2599   23.0787 C   0  0  0  0  0  0  0  0  0  0  0  0
   13.3809  -21.8293   22.8472 O   0  0  0  0  0  0  0  0  0  0  0  0
   11.8506  -20.8687   24.4519 C   0  0  0  0  0  0  0  0  0  0  0  0
   11.7694  -19.3612   24.4836 C   0  0  0  0  0  0  0  0  0  0  0  0
   11.2133  -18.8659   25.8132 C   0  0  2  0  0  0  0  0  0  0  0  0
   11.3087  -17.4176   25.8153 N   0  0  0  0  0  0  0  0  0  0  0  0
   11.8964  -19.5054   26.9479 C   0  0  0  0  0  0  0  0  0  0  0  0
   12.6658  -18.7401   27.8533 O   0  0  0  0  0  0  0  0  0  0  0  0
   11.8688  -20.7319   27.2161 O   0  0  0  0  0  0  0  0  0  0  0  0
  2 10  1  0
  2  3  1  0
  2  1  1  6
  3  4  1  0
  4  5  2  0
  5  6  1  0
  7  6  2  0
  8  7  1  0
  9  8  2  0
  9  4  1  0
 10 11  2  0
 12 13  1  0
 12 10  1  0
 13 21  1  0
 13 14  1  1
 15 14  1  0
 16 15  2  0
 17 16  1  0
 18 17  2  0
 18 19  1  0
 19 20  2  0
 20 15  1  0
 21 22  2  0
 21 29  1  0
 23 24  1  0
 24 26  1  0
 24 25  2  0
 26 27  1  0
 28 27  1  6
 28 30  1  0
 29 28  1  0
 30 32  2  0
 30 31  1  0
M  END
$$$$
