FFQ.pdb
     RDKit          3D

 32 33  0  0  1  0  0  0  0  0999 V2000
    9.8654  -16.9716   19.1631 N   0  0  0  0  0  0  0  0  0  0  0  0
    8.8826  -17.1256   20.2017 C   0  0  1  0  0  0  0  0  0  0  0  0
    8.8734  -18.5864   20.6030 C   0  0  0  0  0  0  0  0  0  0  0  0
    8.2712  -19.4376   19.5489 C   0  0  0  0  0  0  0  0  0  0  0  0
    9.0748  -20.0685   18.6468 C   0  0  0  0  0  0  0  0  0  0  0  0
    8.5075  -20.8602   17.6673 C   0  0  0  0  0  0  0  0  0  0  0  0
    7.1361  -21.0197   17.5920 C   0  0  0  0  0  0  0  0  0  0  0  0
    6.3513  -20.3764   18.5085 C   0  0  0  0  0  0  0  0  0  0  0  0
    6.9018  -19.5829   19.4917 C   0  0  0  0  0  0  0  0  0  0  0  0
    9.1964  -16.2398   21.3410 C   0  0  0  0  0  0  0  0  0  0  0  0
   10.4023  -15.9504   21.6293 O   0  0  0  0  0  0  0  0  0  0  0  0
    8.1982  -15.6823   22.1485 N   0  0  0  0  0  0  0  0  0  0  0  0
    8.5254  -14.8362   23.3320 C   0  0  1  0  0  0  0  0  0  0  0  0
    7.2904  -14.0651   23.6551 C   0  0  0  0  0  0  0  0  0  0  0  0
    7.2608  -13.3486   24.9327 C   0  0  0  0  0  0  0  0  0  0  0  0
    6.5513  -13.7408   26.0442 C   0  0  0  0  0  0  0  0  0  0  0  0
    6.5638  -13.0251   27.2232 C   0  0  0  0  0  0  0  0  0  0  0  0
    7.3007  -11.8684   27.3355 C   0  0  0  0  0  0  0  0  0  0  0  0
    8.0206  -11.4544   26.2343 C   0  0  0  0  0  0  0  0  0  0  0  0
    8.0013  -12.1751   25.0644 C   0  0  0  0  0  0  0  0  0  0  0  0
    8.8700  -15.7663   24.4108 C   0  0  0  0  0  0  0  0  0  0  0  0
    8.0416  -16.7067   24.6791 O   0  0  0  0  0  0  0  0  0  0  0  0
   12.0151  -20.2145   23.0167 N   0  0  0  0  0  0  0  0  0  0  0  0
   12.1771  -19.2294   24.0398 C   0  0  0  0  0  0  0  0  0  0  0  0
   13.3303  -18.7121   24.1205 O   0  0  0  0  0  0  0  0  0  0  0  0
   11.0636  -18.8393   24.9482 C   0  0  0  0  0  0  0  0  0  0  0  0
   11.4942  -17.5865   25.6730 C   0  0  0  0  0  0  0  0  0  0  0  0
   10.2905  -16.7871   26.1571 C   0  0  2  0  0  0  0  0  0  0  0  0
   10.0516  -15.7286   25.1931 N   0  0  0  0  0  0  0  0  0  0  0  0
   10.4906  -16.3019   27.5310 C   0  0  0  0  0  0  0  0  0  0  0  0
    9.6353  -15.3218   28.0835 O   0  0  0  0  0  0  0  0  0  0  0  0
   11.3937  -16.6869   28.3141 O   0  0  0  0  0  0  0  0  0  0  0  0
  2 10  1  0
  2  3  1  0
  2  1  1  6
  3  4  1  0
  4  5  2  0
  5  6  1  0
  7  6  2  0
  8  7  1  0
  9  8  2  0
  9  4  1  0
 10 11  2  0
 12 13  1  0
 12 10  1  0
 13 21  1  0
 13 14  1  1
 15 14  1  0
 16 15  2  0
 17 16  1  0
 18 17  2  0
 18 19  1  0
 19 20  2  0
 20 15  1  0
 21 22  2  0
 21 29  1  0
 23 24  1  0
 24 26  1  0
 24 25  2  0
 26 27  1  0
 28 27  1  6
 28 30  1  0
 29 28  1  0
 30 32  2  0
 30 31  1  0
M  END
$$$$
