FFQ.pdb
     RDKit          3D

 32 33  0  0  1  0  0  0  0  0999 V2000
   10.7607  -17.0272   20.5749 N   0  0  0  0  0  0  0  0  0  0  0  0
    9.8201  -15.9857   20.8896 C   0  0  1  0  0  0  0  0  0  0  0  0
    8.5202  -16.3231   20.1886 C   0  0  0  0  0  0  0  0  0  0  0  0
    8.0933  -15.2340   19.2776 C   0  0  0  0  0  0  0  0  0  0  0  0
    7.7114  -14.0313   19.7923 C   0  0  0  0  0  0  0  0  0  0  0  0
    7.3149  -13.0207   18.9382 C   0  0  0  0  0  0  0  0  0  0  0  0
    7.3015  -13.2152   17.5693 C   0  0  0  0  0  0  0  0  0  0  0  0
    7.6892  -14.4306   17.0774 C   0  0  0  0  0  0  0  0  0  0  0  0
    8.0872  -15.4491   17.9162 C   0  0  0  0  0  0  0  0  0  0  0  0
    9.6483  -15.8737   22.3521 C   0  0  0  0  0  0  0  0  0  0  0  0
   10.5035  -16.3773   23.1497 O   0  0  0  0  0  0  0  0  0  0  0  0
    8.5529  -15.2177   22.9257 N   0  0  0  0  0  0  0  0  0  0  0  0
    8.5649  -14.7610   24.3452 C   0  0  1  0  0  0  0  0  0  0  0  0
    7.5060  -13.7172   24.4626 C   0  0  0  0  0  0  0  0  0  0  0  0
    7.2607  -13.1560   25.7935 C   0  0  0  0  0  0  0  0  0  0  0  0
    8.2203  -12.6003   26.6077 C   0  0  0  0  0  0  0  0  0  0  0  0
    7.9287  -12.0843   27.8531 C   0  0  0  0  0  0  0  0  0  0  0  0
    6.6414  -12.1058   28.3390 C   0  0  0  0  0  0  0  0  0  0  0  0
    5.6614  -12.6581   27.5410 C   0  0  0  0  0  0  0  0  0  0  0  0
    5.9629  -13.1694   26.3016 C   0  0  0  0  0  0  0  0  0  0  0  0
    8.2414  -15.9408   25.1520 C   0  0  0  0  0  0  0  0  0  0  0  0
    8.2241  -15.8090   26.4268 O   0  0  0  0  0  0  0  0  0  0  0  0
    5.9430  -19.4088   22.5868 N   0  0  0  0  0  0  0  0  0  0  0  0
    5.3838  -20.0276   23.7477 C   0  0  0  0  0  0  0  0  0  0  0  0
    4.1897  -20.4322   23.6278 O   0  0  0  0  0  0  0  0  0  0  0  0
    6.1552  -20.1849   25.0116 C   0  0  0  0  0  0  0  0  0  0  0  0
    7.5244  -19.5926   24.7779 C   0  0  0  0  0  0  0  0  0  0  0  0
    7.7202  -18.3171   25.5885 C   0  0  2  0  0  0  0  0  0  0  0  0
    7.9353  -17.2308   24.6503 N   0  0  0  0  0  0  0  0  0  0  0  0
    8.8023  -18.4720   26.5725 C   0  0  0  0  0  0  0  0  0  0  0  0
    8.5959  -19.2007   27.7657 O   0  0  0  0  0  0  0  0  0  0  0  0
    9.9600  -17.9983   26.4611 O   0  0  0  0  0  0  0  0  0  0  0  0
  2 10  1  0
  2  3  1  0
  2  1  1  1
  3  4  1  0
  4  5  2  0
  5  6  1  0
  7  6  2  0
  8  7  1  0
  9  8  2  0
  9  4  1  0
 10 11  2  0
 12 13  1  0
 12 10  1  0
 13 21  1  0
 13 14  1  6
 15 14  1  0
 16 15  2  0
 17 16  1  0
 18 17  2  0
 18 19  1  0
 19 20  2  0
 20 15  1  0
 21 22  2  0
 21 29  1  0
 23 24  1  0
 24 26  1  0
 24 25  2  0
 26 27  1  0
 28 27  1  6
 28 30  1  0
 29 28  1  0
 30 32  2  0
 30 31  1  0
M  END
$$$$
