FFQ.pdb
     RDKit          3D

 32 33  0  0  1  0  0  0  0  0999 V2000
    8.1244  -17.3217   21.2013 N   0  0  0  0  0  0  0  0  0  0  0  0
    9.4461  -16.8139   20.9488 C   0  0  1  0  0  0  0  0  0  0  0  0
    9.3790  -15.9887   19.6801 C   0  0  0  0  0  0  0  0  0  0  0  0
    8.4616  -14.8335   19.8290 C   0  0  0  0  0  0  0  0  0  0  0  0
    7.1190  -15.0438   19.9317 C   0  0  0  0  0  0  0  0  0  0  0  0
    6.2697  -13.9633   20.0703 C   0  0  0  0  0  0  0  0  0  0  0  0
    6.7655  -12.6731   20.1061 C   0  0  0  0  0  0  0  0  0  0  0  0
    8.1162  -12.4881   20.0011 C   0  0  0  0  0  0  0  0  0  0  0  0
    8.9768  -13.5555   19.8622 C   0  0  0  0  0  0  0  0  0  0  0  0
    9.9205  -16.0213   22.1011 C   0  0  0  0  0  0  0  0  0  0  0  0
   10.5209  -14.9122   21.9270 O   0  0  0  0  0  0  0  0  0  0  0  0
    9.7362  -16.4439   23.4227 N   0  0  0  0  0  0  0  0  0  0  0  0
    9.4787  -15.4774   24.5287 C   0  0  1  0  0  0  0  0  0  0  0  0
    8.3124  -14.6502   24.1046 C   0  0  0  0  0  0  0  0  0  0  0  0
    7.7373  -13.7403   25.0985 C   0  0  0  0  0  0  0  0  0  0  0  0
    8.2924  -12.5448   25.4923 C   0  0  0  0  0  0  0  0  0  0  0  0
    7.7024  -11.7269   26.4332 C   0  0  0  0  0  0  0  0  0  0  0  0
    6.5124  -12.0820   27.0261 C   0  0  0  0  0  0  0  0  0  0  0  0
    5.9361  -13.2766   26.6476 C   0  0  0  0  0  0  0  0  0  0  0  0
    6.5324  -14.0840   25.7091 C   0  0  0  0  0  0  0  0  0  0  0  0
    9.1567  -16.2876   25.7066 C   0  0  0  0  0  0  0  0  0  0  0  0
    9.0357  -15.6871   26.8324 O   0  0  0  0  0  0  0  0  0  0  0  0
   10.4040  -21.9291   23.5588 N   0  0  0  0  0  0  0  0  0  0  0  0
    9.5327  -20.8747   23.9739 C   0  0  0  0  0  0  0  0  0  0  0  0
    8.2949  -21.1367   23.9179 O   0  0  0  0  0  0  0  0  0  0  0  0
   10.0479  -19.5578   24.4405 C   0  0  0  0  0  0  0  0  0  0  0  0
   10.2949  -19.6737   25.9257 C   0  0  0  0  0  0  0  0  0  0  0  0
    9.6888  -18.4964   26.6799 C   0  0  2  0  0  0  0  0  0  0  0  0
    8.9572  -17.6910   25.7193 N   0  0  0  0  0  0  0  0  0  0  0  0
   10.7187  -17.7482   27.4165 C   0  0  0  0  0  0  0  0  0  0  0  0
   11.7061  -17.0079   26.7278 O   0  0  0  0  0  0  0  0  0  0  0  0
   10.8227  -17.6923   28.6667 O   0  0  0  0  0  0  0  0  0  0  0  0
  2 10  1  0
  2  3  1  0
  2  1  1  1
  3  4  1  0
  4  5  2  0
  5  6  1  0
  7  6  2  0
  8  7  1  0
  9  8  2  0
  9  4  1  0
 10 11  2  0
 12 13  1  0
 12 10  1  0
 13 21  1  0
 13 14  1  6
 15 14  1  0
 16 15  2  0
 17 16  1  0
 18 17  2  0
 18 19  1  0
 19 20  2  0
 20 15  1  0
 21 22  2  0
 21 29  1  0
 23 24  1  0
 24 26  1  0
 24 25  2  0
 26 27  1  0
 28 27  1  6
 28 30  1  0
 29 28  1  0
 30 32  2  0
 30 31  1  0
M  END
$$$$
