FFQ.pdb
     RDKit          3D

 32 33  0  0  1  0  0  0  0  0999 V2000
   10.5974  -16.8540   19.5520 N   0  0  0  0  0  0  0  0  0  0  0  0
    9.3692  -16.8325   20.3000 C   0  0  1  0  0  0  0  0  0  0  0  0
    8.9683  -18.2713   20.5531 C   0  0  0  0  0  0  0  0  0  0  0  0
    8.3636  -18.8888   19.3483 C   0  0  0  0  0  0  0  0  0  0  0  0
    9.1599  -19.2659   18.3086 C   0  0  0  0  0  0  0  0  0  0  0  0
    8.5904  -19.8408   17.1891 C   0  0  0  0  0  0  0  0  0  0  0  0
    7.2240  -20.0376   17.1117 C   0  0  0  0  0  0  0  0  0  0  0  0
    6.4465  -19.6507   18.1678 C   0  0  0  0  0  0  0  0  0  0  0  0
    6.9992  -19.0757   19.2917 C   0  0  0  0  0  0  0  0  0  0  0  0
    9.5466  -16.0773   21.5568 C   0  0  0  0  0  0  0  0  0  0  0  0
   10.6680  -16.0685   22.1596 O   0  0  0  0  0  0  0  0  0  0  0  0
    8.5060  -15.3443   22.1389 N   0  0  0  0  0  0  0  0  0  0  0  0
    8.6615  -14.6715   23.4605 C   0  0  1  0  0  0  0  0  0  0  0  0
    7.4819  -13.7728   23.6191 C   0  0  0  0  0  0  0  0  0  0  0  0
    7.2825  -13.1512   24.9308 C   0  0  0  0  0  0  0  0  0  0  0  0
    8.2660  -12.5450   25.6774 C   0  0  0  0  0  0  0  0  0  0  0  0
    8.0176  -11.9732   26.9079 C   0  0  0  0  0  0  0  0  0  0  0  0
    6.7515  -11.9876   27.4467 C   0  0  0  0  0  0  0  0  0  0  0  0
    5.7481  -12.5899   26.7169 C   0  0  0  0  0  0  0  0  0  0  0  0
    6.0066  -13.1565   25.4918 C   0  0  0  0  0  0  0  0  0  0  0  0
    8.6543  -15.7414   24.4620 C   0  0  0  0  0  0  0  0  0  0  0  0
    7.6459  -16.5321   24.4873 O   0  0  0  0  0  0  0  0  0  0  0  0
   13.2059  -20.0887   24.7491 N   0  0  0  0  0  0  0  0  0  0  0  0
   11.8483  -19.6554   24.8613 C   0  0  0  0  0  0  0  0  0  0  0  0
   11.0380  -20.1851   24.0448 O   0  0  0  0  0  0  0  0  0  0  0  0
   11.4182  -18.6490   25.8710 C   0  0  0  0  0  0  0  0  0  0  0  0
    9.9546  -18.3676   25.6283 C   0  0  0  0  0  0  0  0  0  0  0  0
    9.5106  -17.0970   26.3430 C   0  0  2  0  0  0  0  0  0  0  0  0
    9.6732  -15.9930   25.4149 N   0  0  0  0  0  0  0  0  0  0  0  0
   10.2361  -16.9168   27.6096 C   0  0  0  0  0  0  0  0  0  0  0  0
   10.1934  -17.9092   28.6150 O   0  0  0  0  0  0  0  0  0  0  0  0
   10.9315  -15.9163   27.9135 O   0  0  0  0  0  0  0  0  0  0  0  0
  2 10  1  0
  2  3  1  0
  2  1  1  1
  3  4  1  0
  4  5  2  0
  5  6  1  0
  7  6  2  0
  8  7  1  0
  9  8  2  0
  9  4  1  0
 10 11  2  0
 12 13  1  0
 12 10  1  0
 13 21  1  0
 13 14  1  1
 15 14  1  0
 16 15  2  0
 17 16  1  0
 18 17  2  0
 18 19  1  0
 19 20  2  0
 20 15  1  0
 21 22  2  0
 21 29  1  0
 23 24  1  0
 24 26  1  0
 24 25  2  0
 26 27  1  0
 28 27  1  6
 28 30  1  0
 29 28  1  0
 30 32  2  0
 30 31  1  0
M  END
$$$$
