FFQ.pdb
     RDKit          3D

 32 33  0  0  1  0  0  0  0  0999 V2000
    8.7366  -17.3545   19.0319 N   0  0  0  0  0  0  0  0  0  0  0  0
    7.9065  -17.4240   20.2043 C   0  0  1  0  0  0  0  0  0  0  0  0
    7.8595  -18.8741   20.6401 C   0  0  0  0  0  0  0  0  0  0  0  0
    7.1021  -19.7087   19.6766 C   0  0  0  0  0  0  0  0  0  0  0  0
    5.7455  -19.5989   19.6059 C   0  0  0  0  0  0  0  0  0  0  0  0
    5.0458  -20.3791   18.7061 C   0  0  0  0  0  0  0  0  0  0  0  0
    5.7051  -21.2686   17.8778 C   0  0  0  0  0  0  0  0  0  0  0  0
    7.0663  -21.3603   17.9678 C   0  0  0  0  0  0  0  0  0  0  0  0
    7.7789  -20.5891   18.8603 C   0  0  0  0  0  0  0  0  0  0  0  0
    8.4395  -16.5438   21.2637 C   0  0  0  0  0  0  0  0  0  0  0  0
    9.6944  -16.3917   21.4151 O   0  0  0  0  0  0  0  0  0  0  0  0
    7.6036  -15.8433   22.1411 N   0  0  0  0  0  0  0  0  0  0  0  0
    8.1500  -14.9552   23.2070 C   0  0  1  0  0  0  0  0  0  0  0  0
    7.0032  -14.1473   23.7135 C   0  0  0  0  0  0  0  0  0  0  0  0
    7.2249  -13.3505   24.9228 C   0  0  0  0  0  0  0  0  0  0  0  0
    8.3160  -12.5444   25.1509 C   0  0  0  0  0  0  0  0  0  0  0  0
    8.4696  -11.8139   26.3107 C   0  0  0  0  0  0  0  0  0  0  0  0
    7.5188  -11.8644   27.3042 C   0  0  0  0  0  0  0  0  0  0  0  0
    6.4153  -12.6659   27.0989 C   0  0  0  0  0  0  0  0  0  0  0  0
    6.2721  -13.3895   25.9394 C   0  0  0  0  0  0  0  0  0  0  0  0
    8.6738  -15.8459   24.2461 C   0  0  0  0  0  0  0  0  0  0  0  0
    7.9924  -16.8911   24.5392 O   0  0  0  0  0  0  0  0  0  0  0  0
   14.0707  -20.1547   25.4528 N   0  0  0  0  0  0  0  0  0  0  0  0
   13.4318  -18.9090   25.1641 C   0  0  0  0  0  0  0  0  0  0  0  0
   13.9741  -18.2167   24.2529 O   0  0  0  0  0  0  0  0  0  0  0  0
   12.2108  -18.4579   25.8875 C   0  0  0  0  0  0  0  0  0  0  0  0
   11.6094  -17.3258   25.0893 C   0  0  0  0  0  0  0  0  0  0  0  0
   10.3830  -16.7493   25.7863 C   0  0  2  0  0  0  0  0  0  0  0  0
    9.8824  -15.6630   24.9640 N   0  0  0  0  0  0  0  0  0  0  0  0
   10.6931  -16.3511   27.1678 C   0  0  0  0  0  0  0  0  0  0  0  0
   10.8747  -17.3235   28.1771 O   0  0  0  0  0  0  0  0  0  0  0  0
   10.8217  -15.1693   27.5727 O   0  0  0  0  0  0  0  0  0  0  0  0
  2 10  1  0
  2  3  1  0
  2  1  1  6
  3  4  1  0
  4  5  2  0
  5  6  1  0
  7  6  2  0
  8  7  1  0
  9  8  2  0
  9  4  1  0
 10 11  2  0
 12 13  1  0
 12 10  1  0
 13 21  1  0
 13 14  1  1
 15 14  1  0
 16 15  2  0
 17 16  1  0
 18 17  2  0
 18 19  1  0
 19 20  2  0
 20 15  1  0
 21 22  2  0
 21 29  1  0
 23 24  1  0
 24 26  1  0
 24 25  2  0
 26 27  1  0
 28 27  1  6
 28 30  1  0
 29 28  1  0
 30 32  2  0
 30 31  1  0
M  END
$$$$
