PWA.pdb
     RDKit          3D

 27 29  0  0  1  0  0  0  0  0999 V2000
   23.3573  -11.2432  -18.5276 N   0  0  0  0  0  0  0  0  0  0  0  0
   24.0799  -12.0810  -19.5003 C   0  0  0  0  0  0  0  0  0  0  0  0
   22.9980  -12.3624  -20.5528 C   0  0  0  0  0  0  0  0  0  0  0  0
   21.9995  -11.2385  -20.3860 C   0  0  0  0  0  0  0  0  0  0  0  0
   22.7597  -10.2918  -19.4759 C   0  0  1  0  0  0  0  0  0  0  0  0
   21.8745   -9.3384  -18.7961 C   0  0  0  0  0  0  0  0  0  0  0  0
   21.2497   -8.4656  -19.4237 O   0  0  0  0  0  0  0  0  0  0  0  0
   21.7077   -9.3867  -17.3927 N   0  0  0  0  0  0  0  0  0  0  0  0
   20.8033   -8.6197  -16.6246 C   0  0  1  0  0  0  0  0  0  0  0  0
   19.8623   -9.3509  -15.7352 C   0  0  0  0  0  0  0  0  0  0  0  0
   18.8546  -10.1232  -16.5503 C   0  0  0  0  0  0  0  0  0  0  0  0
   18.6542  -10.1237  -17.9111 C   0  0  0  0  0  0  0  0  0  0  0  0
   17.6355  -10.9613  -18.1696 N   0  0  0  0  0  0  0  0  0  0  0  0
   17.1590  -11.5110  -17.0390 C   0  0  0  0  0  0  0  0  0  0  0  0
   16.1579  -12.4069  -16.7187 C   0  0  0  0  0  0  0  0  0  0  0  0
   15.9257  -12.7727  -15.3952 C   0  0  0  0  0  0  0  0  0  0  0  0
   16.6849  -12.2540  -14.3666 C   0  0  0  0  0  0  0  0  0  0  0  0
   17.6796  -11.3617  -14.6983 C   0  0  0  0  0  0  0  0  0  0  0  0
   17.9132  -10.9927  -16.0331 C   0  0  0  0  0  0  0  0  0  0  0  0
   21.5294   -7.6018  -15.8434 C   0  0  0  0  0  0  0  0  0  0  0  0
   22.5496   -7.9781  -15.1815 O   0  0  0  0  0  0  0  0  0  0  0  0
   21.4370   -3.8396  -15.3671 C   0  0  0  0  0  0  0  0  0  0  0  0
   21.8994   -5.2431  -15.0004 C   0  0  2  0  0  0  0  0  0  0  0  0
   21.1749   -6.2352  -15.7779 N   0  0  0  0  0  0  0  0  0  0  0  0
   21.7116   -5.4458  -13.5591 C   0  0  0  0  0  0  0  0  0  0  0  0
   22.5628   -4.9009  -12.6269 O   0  0  0  0  0  0  0  0  0  0  0  0
   20.7438   -6.1372  -13.1786 O   0  0  0  0  0  0  0  0  0  0  0  0
  2  1  1  0
  3  2  1  0
  4  5  1  0
  4  3  1  0
  5  1  1  0
  5  6  1  1
  6  7  2  0
  8  6  1  0
  9  8  1  0
 10 11  1  0
  9 10  1  1
 11 19  1  0
 12 11  2  0
 12 13  1  0
 13 14  1  0
 14 15  1  0
 15 16  2  0
 17 16  1  0
 18 17  2  0
 19 14  2  0
 19 18  1  0
 20  9  1  0
 21 20  2  0
 23 22  1  6
 23 24  1  0
 23 25  1  0
 24 20  1  0
 25 26  1  0
 27 25  2  0
M  END
$$$$
