PWA.pdb
     RDKit          3D

 27 29  0  0  1  0  0  0  0  0999 V2000
   28.3796  -22.9232  -16.7359 N   0  0  0  0  0  0  0  0  0  0  0  0
   29.2236  -22.4412  -17.8430 C   0  0  0  0  0  0  0  0  0  0  0  0
   28.2925  -21.4471  -18.5515 C   0  0  0  0  0  0  0  0  0  0  0  0
   27.2849  -21.0470  -17.4967 C   0  0  0  0  0  0  0  0  0  0  0  0
   27.9189  -21.6174  -16.2417 C   0  0  1  0  0  0  0  0  0  0  0  0
   26.9537  -21.7665  -15.1459 C   0  0  0  0  0  0  0  0  0  0  0  0
   26.5559  -22.8841  -14.7736 O   0  0  0  0  0  0  0  0  0  0  0  0
   26.4434  -20.6296  -14.4774 N   0  0  0  0  0  0  0  0  0  0  0  0
   25.5261  -20.6250  -13.4028 C   0  0  1  0  0  0  0  0  0  0  0  0
   25.6890  -19.5750  -12.3625 C   0  0  0  0  0  0  0  0  0  0  0  0
   26.2091  -20.1759  -11.0800 C   0  0  0  0  0  0  0  0  0  0  0  0
   25.5454  -20.4106   -9.8983 C   0  0  0  0  0  0  0  0  0  0  0  0
   26.4273  -20.9494   -9.0393 N   0  0  0  0  0  0  0  0  0  0  0  0
   27.6400  -21.0793   -9.6049 C   0  0  0  0  0  0  0  0  0  0  0  0
   28.8742  -21.5529   -9.2046 C   0  0  0  0  0  0  0  0  0  0  0  0
   29.9592  -21.5412  -10.0775 C   0  0  0  0  0  0  0  0  0  0  0  0
   29.8364  -21.0580  -11.3640 C   0  0  0  0  0  0  0  0  0  0  0  0
   28.6015  -20.5884  -11.7513 C   0  0  0  0  0  0  0  0  0  0  0  0
   27.5075  -20.6000  -10.8706 C   0  0  0  0  0  0  0  0  0  0  0  0
   24.1421  -20.6049  -13.9105 C   0  0  0  0  0  0  0  0  0  0  0  0
   23.8302  -19.6980  -14.7475 O   0  0  0  0  0  0  0  0  0  0  0  0
   21.1474  -22.9136  -13.8388 C   0  0  0  0  0  0  0  0  0  0  0  0
   21.8190  -21.5831  -14.1502 C   0  0  2  0  0  0  0  0  0  0  0  0
   23.1352  -21.5232  -13.5357 N   0  0  0  0  0  0  0  0  0  0  0  0
   20.9559  -20.4922  -13.6827 C   0  0  0  0  0  0  0  0  0  0  0  0
   19.9826  -19.9369  -14.4795 O   0  0  0  0  0  0  0  0  0  0  0  0
   21.1196  -20.0624  -12.5216 O   0  0  0  0  0  0  0  0  0  0  0  0
  2  1  1  0
  3  2  1  0
  4  5  1  0
  4  3  1  0
  5  1  1  0
  5  6  1  1
  6  7  2  0
  8  6  1  0
  9  8  1  0
 10 11  1  0
  9 10  1  1
 11 19  1  0
 12 11  2  0
 12 13  1  0
 13 14  1  0
 14 15  1  0
 15 16  2  0
 17 16  1  0
 18 17  2  0
 19 14  2  0
 19 18  1  0
 20  9  1  0
 21 20  2  0
 23 22  1  1
 23 24  1  0
 23 25  1  0
 24 20  1  0
 25 26  1  0
 27 25  2  0
M  END
$$$$
