PWA.pdb
     RDKit          3D

 27 29  0  0  1  0  0  0  0  0999 V2000
   28.7824  -19.5121  -12.0188 N   0  0  0  0  0  0  0  0  0  0  0  0
   30.0239  -19.4380  -12.8083 C   0  0  0  0  0  0  0  0  0  0  0  0
   30.9800  -20.3202  -11.9928 C   0  0  0  0  0  0  0  0  0  0  0  0
   30.0740  -21.2278  -11.1908 C   0  0  0  0  0  0  0  0  0  0  0  0
   28.7308  -20.9716  -11.8487 C   0  0  1  0  0  0  0  0  0  0  0  0
   27.6052  -21.3749  -10.9972 C   0  0  0  0  0  0  0  0  0  0  0  0
   27.5037  -22.5320  -10.5537 O   0  0  0  0  0  0  0  0  0  0  0  0
   26.5935  -20.4478  -10.6557 N   0  0  0  0  0  0  0  0  0  0  0  0
   25.4048  -20.7220   -9.9431 C   0  0  1  0  0  0  0  0  0  0  0  0
   25.1254  -19.9082   -8.7302 C   0  0  0  0  0  0  0  0  0  0  0  0
   26.4067  -19.5852   -8.0020 C   0  0  0  0  0  0  0  0  0  0  0  0
   27.3422  -18.6152   -8.2775 C   0  0  0  0  0  0  0  0  0  0  0  0
   28.3165  -18.7203   -7.3579 N   0  0  0  0  0  0  0  0  0  0  0  0
   28.0617  -19.7156   -6.4909 C   0  0  0  0  0  0  0  0  0  0  0  0
   28.6932  -20.2532   -5.3864 C   0  0  0  0  0  0  0  0  0  0  0  0
   28.1303  -21.3222   -4.6939 C   0  0  0  0  0  0  0  0  0  0  0  0
   26.9295  -21.8760   -5.0874 C   0  0  0  0  0  0  0  0  0  0  0  0
   26.3096  -21.3319   -6.1899 C   0  0  0  0  0  0  0  0  0  0  0  0
   26.8778  -20.2540   -6.8883 C   0  0  0  0  0  0  0  0  0  0  0  0
   24.2419  -20.6729  -10.8480 C   0  0  0  0  0  0  0  0  0  0  0  0
   24.1955  -19.7319  -11.7040 O   0  0  0  0  0  0  0  0  0  0  0  0
   21.3102  -22.8694  -11.7771 C   0  0  0  0  0  0  0  0  0  0  0  0
   22.0229  -21.5252  -11.7203 C   0  0  2  0  0  0  0  0  0  0  0  0
   23.1738  -21.5984  -10.8349 N   0  0  0  0  0  0  0  0  0  0  0  0
   21.0704  -20.4984  -11.2820 C   0  0  0  0  0  0  0  0  0  0  0  0
   19.9677  -20.1571  -12.0292 O   0  0  0  0  0  0  0  0  0  0  0  0
   21.2780  -19.9229  -10.1934 O   0  0  0  0  0  0  0  0  0  0  0  0
  2  1  1  0
  3  2  1  0
  4  5  1  0
  4  3  1  0
  5  1  1  0
  5  6  1  1
  6  7  2  0
  8  6  1  0
  9  8  1  0
 10 11  1  0
  9 10  1  1
 11 19  1  0
 12 11  2  0
 12 13  1  0
 13 14  1  0
 14 15  1  0
 15 16  2  0
 17 16  1  0
 18 17  2  0
 19 14  2  0
 19 18  1  0
 20  9  1  0
 21 20  2  0
 23 22  1  1
 23 24  1  0
 23 25  1  0
 24 20  1  0
 25 26  1  0
 27 25  2  0
M  END
$$$$
