PWA.pdb
     RDKit          3D

 27 29  0  0  1  0  0  0  0  0999 V2000
   19.9604  -12.7656  -18.9598 N   0  0  0  0  0  0  0  0  0  0  0  0
   19.1110  -13.8607  -19.4590 C   0  0  0  0  0  0  0  0  0  0  0  0
   19.9360  -15.1031  -19.0943 C   0  0  0  0  0  0  0  0  0  0  0  0
   20.8356  -14.6484  -17.9666 C   0  0  0  0  0  0  0  0  0  0  0  0
   20.2258  -13.3035  -17.6174 C   0  0  1  0  0  0  0  0  0  0  0  0
   21.1528  -12.4470  -16.8678 C   0  0  0  0  0  0  0  0  0  0  0  0
   21.5592  -12.7591  -15.7350 O   0  0  0  0  0  0  0  0  0  0  0  0
   21.6126  -11.2290  -17.4199 N   0  0  0  0  0  0  0  0  0  0  0  0
   22.5573  -10.3479  -16.8478 C   0  0  1  0  0  0  0  0  0  0  0  0
   23.7903  -10.0591  -17.6272 C   0  0  0  0  0  0  0  0  0  0  0  0
   24.6966  -11.2651  -17.6514 C   0  0  0  0  0  0  0  0  0  0  0  0
   24.7221  -12.3156  -18.5389 C   0  0  0  0  0  0  0  0  0  0  0  0
   25.6960  -13.1540  -18.1454 N   0  0  0  0  0  0  0  0  0  0  0  0
   26.3111  -12.7000  -17.0396 C   0  0  0  0  0  0  0  0  0  0  0  0
   27.3417  -13.1355  -16.2298 C   0  0  0  0  0  0  0  0  0  0  0  0
   27.7404  -12.3919  -15.1219 C   0  0  0  0  0  0  0  0  0  0  0  0
   27.1212  -11.2019  -14.7993 C   0  0  0  0  0  0  0  0  0  0  0  0
   26.0950  -10.7782  -15.6138 C   0  0  0  0  0  0  0  0  0  0  0  0
   25.6930  -11.5287  -16.7308 C   0  0  0  0  0  0  0  0  0  0  0  0
   21.9092   -9.0806  -16.4636 C   0  0  0  0  0  0  0  0  0  0  0  0
   21.2027   -8.4861  -17.3399 O   0  0  0  0  0  0  0  0  0  0  0  0
   21.1367   -7.2165  -13.2883 C   0  0  0  0  0  0  0  0  0  0  0  0
   21.3070   -7.2690  -14.8004 C   0  0  2  0  0  0  0  0  0  0  0  0
   22.0142   -8.4782  -15.1894 N   0  0  0  0  0  0  0  0  0  0  0  0
   22.0175   -6.0634  -15.2425 C   0  0  0  0  0  0  0  0  0  0  0  0
   23.2455   -6.1226  -15.8580 O   0  0  0  0  0  0  0  0  0  0  0  0
   21.4796   -4.9533  -15.0484 O   0  0  0  0  0  0  0  0  0  0  0  0
  2  1  1  0
  3  2  1  0
  4  5  1  0
  4  3  1  0
  5  1  1  0
  5  6  1  6
  6  7  2  0
  8  6  1  0
  9  8  1  0
 10 11  1  0
  9 10  1  6
 11 19  1  0
 12 11  2  0
 12 13  1  0
 13 14  1  0
 14 15  1  0
 15 16  2  0
 17 16  1  0
 18 17  2  0
 19 14  2  0
 19 18  1  0
 20  9  1  0
 21 20  2  0
 23 22  1  1
 23 24  1  0
 23 25  1  0
 24 20  1  0
 25 26  1  0
 27 25  2  0
M  END
$$$$
