PWA.pdb
     RDKit          3D

 27 29  0  0  1  0  0  0  0  0999 V2000
   29.4206  -20.7198  -12.2551 N   0  0  0  0  0  0  0  0  0  0  0  0
   30.7984  -20.9713  -12.7117 C   0  0  0  0  0  0  0  0  0  0  0  0
   31.5348  -21.2352  -11.3905 C   0  0  0  0  0  0  0  0  0  0  0  0
   30.4510  -21.6648  -10.4268 C   0  0  0  0  0  0  0  0  0  0  0  0
   29.2801  -21.8831  -11.3670 C   0  0  1  0  0  0  0  0  0  0  0  0
   27.9906  -21.8725  -10.6658 C   0  0  0  0  0  0  0  0  0  0  0  0
   27.6585  -22.7902   -9.8955 O   0  0  0  0  0  0  0  0  0  0  0  0
   27.0802  -20.8063  -10.8508 N   0  0  0  0  0  0  0  0  0  0  0  0
   25.9576  -20.5075  -10.0466 C   0  0  1  0  0  0  0  0  0  0  0  0
   26.1412  -19.5258   -8.9449 C   0  0  0  0  0  0  0  0  0  0  0  0
   26.2425  -20.2332   -7.6161 C   0  0  0  0  0  0  0  0  0  0  0  0
   25.5189  -21.3032   -7.1436 C   0  0  0  0  0  0  0  0  0  0  0  0
   25.9591  -21.5730   -5.9029 N   0  0  0  0  0  0  0  0  0  0  0  0
   26.9399  -20.7279   -5.5404 C   0  0  0  0  0  0  0  0  0  0  0  0
   27.7283  -20.5473   -4.4208 C   0  0  0  0  0  0  0  0  0  0  0  0
   28.6849  -19.5361   -4.3786 C   0  0  0  0  0  0  0  0  0  0  0  0
   28.8744  -18.6862   -5.4489 C   0  0  0  0  0  0  0  0  0  0  0  0
   28.0823  -18.8759   -6.5590 C   0  0  0  0  0  0  0  0  0  0  0  0
   27.1174  -19.8956   -6.6011 C   0  0  0  0  0  0  0  0  0  0  0  0
   24.8191  -20.0965  -10.8881 C   0  0  0  0  0  0  0  0  0  0  0  0
   24.8238  -18.9126  -11.3558 O   0  0  0  0  0  0  0  0  0  0  0  0
   22.2137  -21.7336  -12.9615 C   0  0  0  0  0  0  0  0  0  0  0  0
   22.6550  -20.5399  -12.1257 C   0  0  2  0  0  0  0  0  0  0  0  0
   23.7215  -20.9246  -11.2155 N   0  0  0  0  0  0  0  0  0  0  0  0
   21.4941  -20.0092  -11.4017 C   0  0  0  0  0  0  0  0  0  0  0  0
   20.5271  -19.2547  -12.0231 O   0  0  0  0  0  0  0  0  0  0  0  0
   21.3914  -20.2575  -10.1821 O   0  0  0  0  0  0  0  0  0  0  0  0
  2  1  1  0
  3  2  1  0
  4  5  1  0
  4  3  1  0
  5  1  1  0
  5  6  1  1
  6  7  2  0
  8  6  1  0
  9  8  1  0
 10 11  1  0
  9 10  1  1
 11 19  1  0
 12 11  2  0
 12 13  1  0
 13 14  1  0
 14 15  1  0
 15 16  2  0
 17 16  1  0
 18 17  2  0
 19 14  2  0
 19 18  1  0
 20  9  1  0
 21 20  2  0
 23 22  1  1
 23 24  1  0
 23 25  1  0
 24 20  1  0
 25 26  1  0
 27 25  2  0
M  END
$$$$
