PWA.pdb
     RDKit          3D

 27 29  0  0  1  0  0  0  0  0999 V2000
   27.7131  -18.9697  -14.4152 N   0  0  0  0  0  0  0  0  0  0  0  0
   28.6975  -18.6481  -15.4628 C   0  0  0  0  0  0  0  0  0  0  0  0
   29.7048  -19.7987  -15.3255 C   0  0  0  0  0  0  0  0  0  0  0  0
   28.9284  -20.9096  -14.6538 C   0  0  0  0  0  0  0  0  0  0  0  0
   27.5074  -20.3863  -14.7507 C   0  0  1  0  0  0  0  0  0  0  0  0
   26.6045  -21.0402  -13.7958 C   0  0  0  0  0  0  0  0  0  0  0  0
   26.2812  -22.2348  -13.9156 O   0  0  0  0  0  0  0  0  0  0  0  0
   26.0708  -20.3202  -12.7020 N   0  0  0  0  0  0  0  0  0  0  0  0
   25.2395  -20.8324  -11.6809 C   0  0  1  0  0  0  0  0  0  0  0  0
   25.4904  -20.3682  -10.2906 C   0  0  0  0  0  0  0  0  0  0  0  0
   26.9065  -20.6814   -9.8747 C   0  0  0  0  0  0  0  0  0  0  0  0
   27.8594  -21.4277  -10.5280 C   0  0  0  0  0  0  0  0  0  0  0  0
   28.9639  -21.4329   -9.7626 N   0  0  0  0  0  0  0  0  0  0  0  0
   28.7784  -20.7227   -8.6362 C   0  0  0  0  0  0  0  0  0  0  0  0
   29.5418  -20.4005   -7.5312 C   0  0  0  0  0  0  0  0  0  0  0  0
   29.0182  -19.6142   -6.5081 C   0  0  0  0  0  0  0  0  0  0  0  0
   27.7259  -19.1343   -6.5654 C   0  0  0  0  0  0  0  0  0  0  0  0
   26.9746  -19.4623   -7.6717 C   0  0  0  0  0  0  0  0  0  0  0  0
   27.5030  -20.2557   -8.7031 C   0  0  0  0  0  0  0  0  0  0  0  0
   23.8206  -20.6229  -12.0218 C   0  0  0  0  0  0  0  0  0  0  0  0
   23.4308  -19.4294  -12.2320 O   0  0  0  0  0  0  0  0  0  0  0  0
   20.8594  -22.7961  -12.9515 C   0  0  0  0  0  0  0  0  0  0  0  0
   21.5093  -21.4564  -12.6337 C   0  0  2  0  0  0  0  0  0  0  0  0
   22.8603  -21.6538  -12.1344 N   0  0  0  0  0  0  0  0  0  0  0  0
   20.6750  -20.7400  -11.6619 C   0  0  0  0  0  0  0  0  0  0  0  0
   19.5001  -20.1228  -12.0212 O   0  0  0  0  0  0  0  0  0  0  0  0
   21.0543  -20.6964  -10.4729 O   0  0  0  0  0  0  0  0  0  0  0  0
  2  1  1  0
  3  2  1  0
  4  5  1  0
  4  3  1  0
  5  1  1  0
  5  6  1  1
  6  7  2  0
  8  6  1  0
  9  8  1  0
 10 11  1  0
  9 10  1  1
 11 19  1  0
 12 11  2  0
 12 13  1  0
 13 14  1  0
 14 15  1  0
 15 16  2  0
 17 16  1  0
 18 17  2  0
 19 14  2  0
 19 18  1  0
 20  9  1  0
 21 20  2  0
 23 22  1  1
 23 24  1  0
 23 25  1  0
 24 20  1  0
 25 26  1  0
 27 25  2  0
M  END
$$$$
