PWA.pdb
     RDKit          3D

 27 29  0  0  1  0  0  0  0  0999 V2000
   27.4090  -21.2536  -15.3367 N   0  0  0  0  0  0  0  0  0  0  0  0
   28.0885  -20.4989  -16.4038 C   0  0  0  0  0  0  0  0  0  0  0  0
   27.6787  -19.0529  -16.0898 C   0  0  0  0  0  0  0  0  0  0  0  0
   27.3146  -19.0679  -14.6217 C   0  0  0  0  0  0  0  0  0  0  0  0
   27.8332  -20.4288  -14.1959 C   0  0  1  0  0  0  0  0  0  0  0  0
   27.2261  -20.8912  -12.9419 C   0  0  0  0  0  0  0  0  0  0  0  0
   26.2320  -21.6379  -12.9341 O   0  0  0  0  0  0  0  0  0  0  0  0
   27.7609  -20.4938  -11.6946 N   0  0  0  0  0  0  0  0  0  0  0  0
   27.1818  -20.7054  -10.4234 C   0  0  1  0  0  0  0  0  0  0  0  0
   27.9867  -20.3348   -9.2293 C   0  0  0  0  0  0  0  0  0  0  0  0
   27.2183  -20.6204   -7.9627 C   0  0  0  0  0  0  0  0  0  0  0  0
   26.0308  -21.2951   -7.7998 C   0  0  0  0  0  0  0  0  0  0  0  0
   25.7358  -21.2840   -6.4888 N   0  0  0  0  0  0  0  0  0  0  0  0
   26.6772  -20.6325   -5.7840 C   0  0  0  0  0  0  0  0  0  0  0  0
   26.8828  -20.3250   -4.4533 C   0  0  0  0  0  0  0  0  0  0  0  0
   28.0080  -19.6088   -4.0531 C   0  0  0  0  0  0  0  0  0  0  0  0
   28.9489  -19.1853   -4.9690 C   0  0  0  0  0  0  0  0  0  0  0  0
   28.7329  -19.4976   -6.2925 C   0  0  0  0  0  0  0  0  0  0  0  0
   27.5977  -20.2196   -6.6958 C   0  0  0  0  0  0  0  0  0  0  0  0
   25.8603  -20.0562  -10.3477 C   0  0  0  0  0  0  0  0  0  0  0  0
   25.8265  -18.7853  -10.2832 O   0  0  0  0  0  0  0  0  0  0  0  0
   22.9594  -20.6354  -12.1290 C   0  0  0  0  0  0  0  0  0  0  0  0
   23.3611  -20.1489  -10.7434 C   0  0  2  0  0  0  0  0  0  0  0  0
   24.6258  -20.7443  -10.3437 N   0  0  0  0  0  0  0  0  0  0  0  0
   22.2894  -20.4730   -9.7947 C   0  0  0  0  0  0  0  0  0  0  0  0
   21.1403  -19.7233   -9.7054 O   0  0  0  0  0  0  0  0  0  0  0  0
   22.4366  -21.4643   -9.0496 O   0  0  0  0  0  0  0  0  0  0  0  0
  2  1  1  0
  3  2  1  0
  4  5  1  0
  4  3  1  0
  5  1  1  0
  5  6  1  1
  6  7  2  0
  8  6  1  0
  9  8  1  0
 10 11  1  0
  9 10  1  1
 11 19  1  0
 12 11  2  0
 12 13  1  0
 13 14  1  0
 14 15  1  0
 15 16  2  0
 17 16  1  0
 18 17  2  0
 19 14  2  0
 19 18  1  0
 20  9  1  0
 21 20  2  0
 23 22  1  6
 23 24  1  0
 23 25  1  0
 24 20  1  0
 25 26  1  0
 27 25  2  0
M  END
$$$$
