PWA.pdb
     RDKit          3D

 27 29  0  0  1  0  0  0  0  0999 V2000
   24.1920  -12.1114  -15.2629 N   0  0  0  0  0  0  0  0  0  0  0  0
   25.1228  -13.2211  -15.5319 C   0  0  0  0  0  0  0  0  0  0  0  0
   24.4229  -13.9599  -16.6816 C   0  0  0  0  0  0  0  0  0  0  0  0
   23.5166  -12.9234  -17.3078 C   0  0  0  0  0  0  0  0  0  0  0  0
   24.0121  -11.6504  -16.6473 C   0  0  1  0  0  0  0  0  0  0  0  0
   23.0323  -10.5604  -16.7288 C   0  0  0  0  0  0  0  0  0  0  0  0
   22.7892   -9.9795  -17.8008 O   0  0  0  0  0  0  0  0  0  0  0  0
   22.3315  -10.1358  -15.5762 N   0  0  0  0  0  0  0  0  0  0  0  0
   21.3273   -9.1437  -15.5183 C   0  0  1  0  0  0  0  0  0  0  0  0
   20.0256   -9.5160  -14.9034 C   0  0  0  0  0  0  0  0  0  0  0  0
   19.3339  -10.5743  -15.7268 C   0  0  0  0  0  0  0  0  0  0  0  0
   19.3645  -11.9423  -15.5872 C   0  0  0  0  0  0  0  0  0  0  0  0
   18.6013  -12.4655  -16.5617 N   0  0  0  0  0  0  0  0  0  0  0  0
   18.0707  -11.5017  -17.3343 C   0  0  0  0  0  0  0  0  0  0  0  0
   17.2408  -11.4611  -18.4376 C   0  0  0  0  0  0  0  0  0  0  0  0
   16.8747  -10.2454  -19.0096 C   0  0  0  0  0  0  0  0  0  0  0  0
   17.3275   -9.0481  -18.4948 C   0  0  0  0  0  0  0  0  0  0  0  0
   18.1544   -9.1013  -17.3952 C   0  0  0  0  0  0  0  0  0  0  0  0
   18.5237  -10.3276  -16.8189 C   0  0  0  0  0  0  0  0  0  0  0  0
   21.8473   -7.9253  -14.8713 C   0  0  0  0  0  0  0  0  0  0  0  0
   22.4287   -8.0530  -13.7461 O   0  0  0  0  0  0  0  0  0  0  0  0
   23.1381   -4.6288  -15.6712 C   0  0  0  0  0  0  0  0  0  0  0  0
   22.2308   -5.4257  -14.7438 C   0  0  2  0  0  0  0  0  0  0  0  0
   21.7484   -6.6233  -15.4122 N   0  0  0  0  0  0  0  0  0  0  0  0
   21.1224   -4.5682  -14.3083 C   0  0  0  0  0  0  0  0  0  0  0  0
   21.2849   -3.5906  -13.3552 O   0  0  0  0  0  0  0  0  0  0  0  0
   19.9997   -4.7408  -14.8272 O   0  0  0  0  0  0  0  0  0  0  0  0
  2  1  1  0
  3  2  1  0
  4  5  1  0
  4  3  1  0
  5  1  1  0
  5  6  1  1
  6  7  2  0
  8  6  1  0
  9  8  1  0
 10 11  1  0
  9 10  1  1
 11 19  1  0
 12 11  2  0
 12 13  1  0
 13 14  1  0
 14 15  1  0
 15 16  2  0
 17 16  1  0
 18 17  2  0
 19 14  2  0
 19 18  1  0
 20  9  1  0
 21 20  2  0
 23 22  1  6
 23 24  1  0
 23 25  1  0
 24 20  1  0
 25 26  1  0
 27 25  2  0
M  END
$$$$
