PWA.pdb
     RDKit          3D

 27 29  0  0  1  0  0  0  0  0999 V2000
   27.3327  -18.4931  -14.0851 N   0  0  0  0  0  0  0  0  0  0  0  0
   28.3812  -17.6170  -14.6356 C   0  0  0  0  0  0  0  0  0  0  0  0
   29.3950  -18.6306  -15.1855 C   0  0  0  0  0  0  0  0  0  0  0  0
   28.5925  -19.8932  -15.4080 C   0  0  0  0  0  0  0  0  0  0  0  0
   27.1732  -19.3815  -15.2458 C   0  0  1  0  0  0  0  0  0  0  0  0
   26.2177  -20.4612  -14.9701 C   0  0  0  0  0  0  0  0  0  0  0  0
   25.9079  -21.2963  -15.8376 O   0  0  0  0  0  0  0  0  0  0  0  0
   25.6159  -20.5810  -13.6961 N   0  0  0  0  0  0  0  0  0  0  0  0
   24.7383  -21.6035  -13.2714 C   0  0  1  0  0  0  0  0  0  0  0  0
   25.0950  -22.3477  -12.0344 C   0  0  0  0  0  0  0  0  0  0  0  0
   25.7706  -21.4336  -11.0422 C   0  0  0  0  0  0  0  0  0  0  0  0
   25.2070  -20.6021  -10.1027 C   0  0  0  0  0  0  0  0  0  0  0  0
   26.2096  -19.9790   -9.4605 N   0  0  0  0  0  0  0  0  0  0  0  0
   27.4062  -20.3650   -9.9365 C   0  0  0  0  0  0  0  0  0  0  0  0
   28.7258  -20.0636   -9.6616 C   0  0  0  0  0  0  0  0  0  0  0  0
   29.7582  -20.6702  -10.3725 C   0  0  0  0  0  0  0  0  0  0  0  0
   29.4970  -21.5872  -11.3696 C   0  0  0  0  0  0  0  0  0  0  0  0
   28.1778  -21.8793  -11.6347 C   0  0  0  0  0  0  0  0  0  0  0  0
   27.1368  -21.2671  -10.9178 C   0  0  0  0  0  0  0  0  0  0  0  0
   23.3638  -21.0835  -13.1544 C   0  0  0  0  0  0  0  0  0  0  0  0
   23.1932  -19.9962  -12.5148 O   0  0  0  0  0  0  0  0  0  0  0  0
   20.0133  -21.7106  -14.7567 C   0  0  0  0  0  0  0  0  0  0  0  0
   20.8793  -21.1460  -13.6389 C   0  0  2  0  0  0  0  0  0  0  0  0
   22.2197  -21.7052  -13.7040 N   0  0  0  0  0  0  0  0  0  0  0  0
   20.2390  -21.4304  -12.3494 C   0  0  0  0  0  0  0  0  0  0  0  0
   19.1937  -20.6766  -11.8699 O   0  0  0  0  0  0  0  0  0  0  0  0
   20.6653  -22.3907  -11.6745 O   0  0  0  0  0  0  0  0  0  0  0  0
  2  1  1  0
  3  2  1  0
  4  5  1  0
  4  3  1  0
  5  1  1  0
  5  6  1  1
  6  7  2  0
  8  6  1  0
  9  8  1  0
 10 11  1  0
  9 10  1  1
 11 19  1  0
 12 11  2  0
 12 13  1  0
 13 14  1  0
 14 15  1  0
 15 16  2  0
 17 16  1  0
 18 17  2  0
 19 14  2  0
 19 18  1  0
 20  9  1  0
 21 20  2  0
 23 22  1  6
 23 24  1  0
 23 25  1  0
 24 20  1  0
 25 26  1  0
 27 25  2  0
M  END
$$$$
