PWA.pdb
     RDKit          3D

 27 29  0  0  1  0  0  0  0  0999 V2000
   19.6759  -11.8089  -17.9142 N   0  0  0  0  0  0  0  0  0  0  0  0
   18.8885  -13.0299  -18.1571 C   0  0  0  0  0  0  0  0  0  0  0  0
   19.7549  -14.1115  -17.4962 C   0  0  0  0  0  0  0  0  0  0  0  0
   20.6019  -13.3628  -16.4912 C   0  0  0  0  0  0  0  0  0  0  0  0
   19.9257  -12.0045  -16.4786 C   0  0  1  0  0  0  0  0  0  0  0  0
   20.7936  -10.9529  -15.9349 C   0  0  0  0  0  0  0  0  0  0  0  0
   21.1401  -10.9447  -14.7409 O   0  0  0  0  0  0  0  0  0  0  0  0
   21.2632   -9.9080  -16.7640 N   0  0  0  0  0  0  0  0  0  0  0  0
   22.2184   -8.9250  -16.4215 C   0  0  1  0  0  0  0  0  0  0  0  0
   23.2943   -8.6371  -17.4067 C   0  0  0  0  0  0  0  0  0  0  0  0
   24.1509   -9.8592  -17.6283 C   0  0  0  0  0  0  0  0  0  0  0  0
   24.1636  -10.7305  -18.6926 C   0  0  0  0  0  0  0  0  0  0  0  0
   25.0885  -11.6707  -18.4346 N   0  0  0  0  0  0  0  0  0  0  0  0
   25.6837  -11.4548  -17.2486 C   0  0  0  0  0  0  0  0  0  0  0  0
   26.6676  -12.0780  -16.5061 C   0  0  0  0  0  0  0  0  0  0  0  0
   27.0584  -11.5679  -15.2706 C   0  0  0  0  0  0  0  0  0  0  0  0
   26.4777  -10.4293  -14.7513 C   0  0  0  0  0  0  0  0  0  0  0  0
   25.4980   -9.8171  -15.5005 C   0  0  0  0  0  0  0  0  0  0  0  0
   25.1038  -10.3320  -16.7462 C   0  0  0  0  0  0  0  0  0  0  0  0
   21.5472   -7.6680  -16.0435 C   0  0  0  0  0  0  0  0  0  0  0  0
   20.4772   -7.3581  -16.6596 O   0  0  0  0  0  0  0  0  0  0  0  0
   21.8871   -5.0182  -13.3537 C   0  0  0  0  0  0  0  0  0  0  0  0
   21.3110   -5.5654  -14.6526 C   0  0  2  0  0  0  0  0  0  0  0  0
   22.0059   -6.7813  -15.0429 N   0  0  0  0  0  0  0  0  0  0  0  0
   21.4085   -4.5323  -15.6902 C   0  0  0  0  0  0  0  0  0  0  0  0
   20.4889   -3.5160  -15.7990 O   0  0  0  0  0  0  0  0  0  0  0  0
   22.3620   -4.5879  -16.4948 O   0  0  0  0  0  0  0  0  0  0  0  0
  2  1  1  0
  3  2  1  0
  4  5  1  0
  4  3  1  0
  5  1  1  0
  5  6  1  6
  6  7  2  0
  8  6  1  0
  9  8  1  0
 10 11  1  0
  9 10  1  6
 11 19  1  0
 12 11  2  0
 12 13  1  0
 13 14  1  0
 14 15  1  0
 15 16  2  0
 17 16  1  0
 18 17  2  0
 19 14  2  0
 19 18  1  0
 20  9  1  0
 21 20  2  0
 23 22  1  1
 23 24  1  0
 23 25  1  0
 24 20  1  0
 25 26  1  0
 27 25  2  0
M  END
$$$$
