PQV.pdb
     RDKit          3D

 24 24  0  0  1  0  0  0  0  0999 V2000
   21.4467  -12.9835  -17.6777 N   0  0  0  0  0  0  0  0  0  0  0  0
   21.9896  -14.1723  -18.3362 C   0  0  0  0  0  0  0  0  0  0  0  0
   22.1024  -13.8350  -19.7891 C   0  0  0  0  0  0  0  0  0  0  0  0
   21.6661  -12.3893  -19.8693 C   0  0  0  0  0  0  0  0  0  0  0  0
   22.0177  -11.9139  -18.4788 C   0  0  1  0  0  0  0  0  0  0  0  0
   21.4522  -10.5954  -18.1319 C   0  0  0  0  0  0  0  0  0  0  0  0
   21.7704   -9.5618  -18.7339 O   0  0  0  0  0  0  0  0  0  0  0  0
   16.5633  -11.3526  -17.3904 N   0  0  0  0  0  0  0  0  0  0  0  0
   16.6388  -10.1738  -18.1776 C   0  0  0  0  0  0  0  0  0  0  0  0
   15.8951  -10.0619  -19.1718 O   0  0  0  0  0  0  0  0  0  0  0  0
   17.6218   -9.0905  -17.7832 C   0  0  0  0  0  0  0  0  0  0  0  0
   18.3610   -9.5055  -16.5426 C   0  0  0  0  0  0  0  0  0  0  0  0
   19.8363   -9.2751  -16.7267 C   0  0  2  0  0  0  0  0  0  0  0  0
   20.5093  -10.5269  -17.0665 N   0  0  0  0  0  0  0  0  0  0  0  0
   20.5273   -8.6671  -15.5936 C   0  0  0  0  0  0  0  0  0  0  0  0
   20.9546   -9.3396  -14.5951 O   0  0  0  0  0  0  0  0  0  0  0  0
   22.4467   -4.5977  -13.4844 C   0  0  0  0  0  0  0  0  0  0  0  0
   21.7792   -5.2386  -14.7068 C   0  0  2  0  0  0  0  0  0  0  0  0
   20.5919   -4.3997  -15.0992 C   0  0  0  0  0  0  0  0  0  0  0  0
   21.3937   -6.6689  -14.3662 C   0  0  2  0  0  0  0  0  0  0  0  0
   20.7736   -7.2826  -15.5278 N   0  0  0  0  0  0  0  0  0  0  0  0
   20.4910   -6.6326  -13.2031 C   0  0  0  0  0  0  0  0  0  0  0  0
   19.2299   -6.5607  -13.4353 O   0  0  0  0  0  0  0  0  0  0  0  0
   20.8516   -6.6673  -11.8855 O   0  0  0  0  0  0  0  0  0  0  0  0
  1  5  1  0
  1  2  1  0
  2  3  1  0
  4  3  1  0
  5  4  1  0
  5  6  1  1
  6  7  2  0
  9  8  1  0
  9 11  1  0
 10  9  2  0
 12 11  1  0
 13 14  1  0
 13 12  1  1
 14  6  1  0
 15 13  1  0
 16 15  2  0
 18 17  1  1
 18 20  1  0
 19 18  1  0
 20 22  1  0
 20 21  1  6
 21 15  1  0
 22 24  1  0
 23 22  2  0
M  END
$$$$
