PQV.pdb
     RDKit          3D

 24 24  0  0  1  0  0  0  0  0999 V2000
   26.9720  -21.4328  -13.5194 N   0  0  0  0  0  0  0  0  0  0  0  0
   27.3791  -21.4775  -14.9243 C   0  0  0  0  0  0  0  0  0  0  0  0
   27.6997  -20.0697  -15.3154 C   0  0  0  0  0  0  0  0  0  0  0  0
   27.5179  -19.2795  -14.0389 C   0  0  0  0  0  0  0  0  0  0  0  0
   27.7929  -20.3486  -13.0071 C   0  0  1  0  0  0  0  0  0  0  0  0
   27.4181  -19.9684  -11.6310 C   0  0  0  0  0  0  0  0  0  0  0  0
   27.8306  -18.9304  -11.0975 O   0  0  0  0  0  0  0  0  0  0  0  0
   21.7077  -21.2128  -10.1416 N   0  0  0  0  0  0  0  0  0  0  0  0
   22.2261  -20.1703  -10.9535 C   0  0  0  0  0  0  0  0  0  0  0  0
   21.4509  -19.5464  -11.7044 O   0  0  0  0  0  0  0  0  0  0  0  0
   23.7052  -19.8506  -10.8804 C   0  0  0  0  0  0  0  0  0  0  0  0
   24.3606  -20.7222   -9.8468 C   0  0  0  0  0  0  0  0  0  0  0  0
   25.8183  -20.3684   -9.7311 C   0  0  2  0  0  0  0  0  0  0  0  0
   26.5512  -20.8353  -10.9059 N   0  0  0  0  0  0  0  0  0  0  0  0
   26.4948  -20.8592   -8.5342 C   0  0  0  0  0  0  0  0  0  0  0  0
   26.6744  -22.1010   -8.2946 O   0  0  0  0  0  0  0  0  0  0  0  0
   28.0480  -18.1230   -5.6595 C   0  0  0  0  0  0  0  0  0  0  0  0
   28.6875  -19.4979   -5.8852 C   0  0  2  0  0  0  0  0  0  0  0  0
   29.7908  -19.3525   -6.8997 C   0  0  0  0  0  0  0  0  0  0  0  0
   27.6125  -20.4757   -6.3311 C   0  0  2  0  0  0  0  0  0  0  0  0
   27.0024  -19.9847   -7.5548 N   0  0  0  0  0  0  0  0  0  0  0  0
   26.6382  -20.6122   -5.2352 C   0  0  0  0  0  0  0  0  0  0  0  0
   25.4436  -20.1926   -5.4503 O   0  0  0  0  0  0  0  0  0  0  0  0
   26.8676  -21.1433   -3.9973 O   0  0  0  0  0  0  0  0  0  0  0  0
  1  5  1  0
  1  2  1  0
  2  3  1  0
  4  3  1  0
  5  4  1  0
  5  6  1  1
  6  7  2  0
  9  8  1  0
  9 11  1  0
 10  9  2  0
 12 11  1  0
 13 14  1  0
 13 12  1  6
 14  6  1  0
 15 13  1  0
 16 15  2  0
 18 17  1  6
 18 20  1  0
 19 18  1  0
 20 22  1  0
 20 21  1  6
 21 15  1  0
 22 24  1  0
 23 22  2  0
M  END
$$$$
