PQV.pdb
     RDKit          3D

 24 24  0  0  1  0  0  0  0  0999 V2000
   20.4881  -13.0848  -16.9433 N   0  0  0  0  0  0  0  0  0  0  0  0
   20.7895  -14.4843  -17.2463 C   0  0  0  0  0  0  0  0  0  0  0  0
   21.1328  -14.5364  -18.7012 C   0  0  0  0  0  0  0  0  0  0  0  0
   21.0743  -13.0928  -19.1480 C   0  0  0  0  0  0  0  0  0  0  0  0
   21.3840  -12.3857  -17.8491 C   0  0  1  0  0  0  0  0  0  0  0  0
   21.1252  -10.9328  -17.8774 C   0  0  0  0  0  0  0  0  0  0  0  0
   21.7904  -10.1575  -18.5763 O   0  0  0  0  0  0  0  0  0  0  0  0
   15.5448   -8.6699  -18.1229 N   0  0  0  0  0  0  0  0  0  0  0  0
   16.2471   -7.4624  -17.8708 C   0  0  0  0  0  0  0  0  0  0  0  0
   15.6244   -6.3829  -17.9023 O   0  0  0  0  0  0  0  0  0  0  0  0
   17.7310   -7.5260  -17.5720 C   0  0  0  0  0  0  0  0  0  0  0  0
   18.1786   -8.9598  -17.5351 C   0  0  0  0  0  0  0  0  0  0  0  0
   19.6375   -9.0297  -17.1745 C   0  0  2  0  0  0  0  0  0  0  0  0
   20.0704  -10.4214  -17.0683 N   0  0  0  0  0  0  0  0  0  0  0  0
   20.0212   -8.3278  -15.9533 C   0  0  0  0  0  0  0  0  0  0  0  0
   19.9191   -8.8457  -14.7901 O   0  0  0  0  0  0  0  0  0  0  0  0
   22.4659   -4.6562  -13.7695 C   0  0  0  0  0  0  0  0  0  0  0  0
   22.0271   -5.3390  -15.0700 C   0  0  2  0  0  0  0  0  0  0  0  0
   21.6122   -4.2762  -16.0529 C   0  0  0  0  0  0  0  0  0  0  0  0
   20.9041   -6.3156  -14.7610 C   0  0  2  0  0  0  0  0  0  0  0  0
   20.5381   -7.0186  -15.9786 N   0  0  0  0  0  0  0  0  0  0  0  0
   19.7790   -5.5517  -14.1956 C   0  0  0  0  0  0  0  0  0  0  0  0
   18.8497   -5.1835  -15.0020 O   0  0  0  0  0  0  0  0  0  0  0  0
   19.6119   -5.1860  -12.8897 O   0  0  0  0  0  0  0  0  0  0  0  0
  1  5  1  0
  1  2  1  0
  2  3  1  0
  4  3  1  0
  5  4  1  0
  5  6  1  6
  6  7  2  0
  9  8  1  0
  9 11  1  0
 10  9  2  0
 12 11  1  0
 13 14  1  0
 13 12  1  1
 14  6  1  0
 15 13  1  0
 16 15  2  0
 18 17  1  1
 18 20  1  0
 19 18  1  0
 20 22  1  0
 20 21  1  6
 21 15  1  0
 22 24  1  0
 23 22  2  0
M  END
$$$$
