PQV.pdb
     RDKit          3D

 24 24  0  0  1  0  0  0  0  0999 V2000
   20.2986   -9.8230  -13.8997 N   0  0  0  0  0  0  0  0  0  0  0  0
   21.3654   -9.8449  -14.9011 C   0  0  0  0  0  0  0  0  0  0  0  0
   20.9021   -8.9797  -16.0299 C   0  0  0  0  0  0  0  0  0  0  0  0
   19.5731   -8.4340  -15.5577 C   0  0  0  0  0  0  0  0  0  0  0  0
   19.7689   -8.4793  -14.0601 C   0  0  1  0  0  0  0  0  0  0  0  0
   18.5305   -8.2724  -13.2841 C   0  0  0  0  0  0  0  0  0  0  0  0
   17.8644   -7.2326  -13.3690 O   0  0  0  0  0  0  0  0  0  0  0  0
   15.4477  -13.0689  -10.5429 N   0  0  0  0  0  0  0  0  0  0  0  0
   14.5543  -11.9848  -10.3391 C   0  0  0  0  0  0  0  0  0  0  0  0
   13.4388  -12.2082   -9.8292 O   0  0  0  0  0  0  0  0  0  0  0  0
   14.9864  -10.5917  -10.7488 C   0  0  0  0  0  0  0  0  0  0  0  0
   16.3795  -10.6386  -11.3097 C   0  0  0  0  0  0  0  0  0  0  0  0
   16.7978   -9.2630  -11.7526 C   0  0  2  0  0  0  0  0  0  0  0  0
   18.1003   -9.3141  -12.4131 N   0  0  0  0  0  0  0  0  0  0  0  0
   16.8466   -8.2487  -10.7037 C   0  0  0  0  0  0  0  0  0  0  0  0
   17.7953   -8.1719   -9.8519 O   0  0  0  0  0  0  0  0  0  0  0  0
   14.0763   -5.0953  -10.8267 C   0  0  0  0  0  0  0  0  0  0  0  0
   15.5009   -4.8920  -10.2981 C   0  0  2  0  0  0  0  0  0  0  0  0
   16.3864   -4.4922  -11.4486 C   0  0  0  0  0  0  0  0  0  0  0  0
   15.9656   -6.1730   -9.6245 C   0  0  2  0  0  0  0  0  0  0  0  0
   15.8397   -7.2751  -10.5626 N   0  0  0  0  0  0  0  0  0  0  0  0
   15.1508   -6.3722   -8.4138 C   0  0  0  0  0  0  0  0  0  0  0  0
   14.2115   -7.2461   -8.4705 O   0  0  0  0  0  0  0  0  0  0  0  0
   15.2855   -5.7210   -7.2201 O   0  0  0  0  0  0  0  0  0  0  0  0
  1  5  1  0
  1  2  1  0
  2  3  1  0
  4  3  1  0
  5  4  1  0
  5  6  1  1
  6  7  2  0
  9  8  1  0
  9 11  1  0
 10  9  2  0
 12 11  1  0
 13 14  1  0
 13 12  1  1
 14  6  1  0
 15 13  1  0
 16 15  2  0
 18 17  1  6
 18 20  1  0
 19 18  1  0
 20 22  1  0
 20 21  1  6
 21 15  1  0
 22 24  1  0
 23 22  2  0
M  END
$$$$
