PQV.pdb
     RDKit          3D

 24 24  0  0  1  0  0  0  0  0999 V2000
   24.0870  -21.9661  -13.4645 N   0  0  0  0  0  0  0  0  0  0  0  0
   24.6790  -23.2524  -13.0951 C   0  0  0  0  0  0  0  0  0  0  0  0
   25.1309  -23.8904  -14.3704 C   0  0  0  0  0  0  0  0  0  0  0  0
   24.8225  -22.8578  -15.4313 C   0  0  0  0  0  0  0  0  0  0  0  0
   24.8916  -21.5886  -14.6143 C   0  0  1  0  0  0  0  0  0  0  0  0
   24.3550  -20.3986  -15.3032 C   0  0  0  0  0  0  0  0  0  0  0  0
   24.8124  -19.9979  -16.3813 O   0  0  0  0  0  0  0  0  0  0  0  0
   20.5258  -20.7156  -13.4663 N   0  0  0  0  0  0  0  0  0  0  0  0
   20.1928  -20.9445  -14.8270 C   0  0  0  0  0  0  0  0  0  0  0  0
   19.5982  -21.9959  -15.1353 O   0  0  0  0  0  0  0  0  0  0  0  0
   20.5717  -19.9029  -15.8598 C   0  0  0  0  0  0  0  0  0  0  0  0
   21.1128  -18.6817  -15.1717 C   0  0  0  0  0  0  0  0  0  0  0  0
   22.6006  -18.5970  -15.3781 C   0  0  2  0  0  0  0  0  0  0  0  0
   23.2738  -19.6992  -14.6944 N   0  0  0  0  0  0  0  0  0  0  0  0
   23.2254  -17.3430  -14.9678 C   0  0  0  0  0  0  0  0  0  0  0  0
   23.1795  -16.9003  -13.7704 O   0  0  0  0  0  0  0  0  0  0  0  0
   26.3604  -15.7144  -17.1025 C   0  0  0  0  0  0  0  0  0  0  0  0
   26.0465  -15.3772  -15.6403 C   0  0  2  0  0  0  0  0  0  0  0  0
   26.6564  -16.4378  -14.7624 C   0  0  0  0  0  0  0  0  0  0  0  0
   24.5395  -15.2762  -15.4689 C   0  0  2  0  0  0  0  0  0  0  0  0
   23.9305  -16.5308  -15.8760 N   0  0  0  0  0  0  0  0  0  0  0  0
   24.0652  -14.1367  -16.2725 C   0  0  0  0  0  0  0  0  0  0  0  0
   24.3126  -12.9570  -15.8292 O   0  0  0  0  0  0  0  0  0  0  0  0
   23.3815  -14.1963  -17.4540 O   0  0  0  0  0  0  0  0  0  0  0  0
  1  5  1  0
  1  2  1  0
  2  3  1  0
  4  3  1  0
  5  4  1  0
  5  6  1  6
  6  7  2  0
  9  8  1  0
  9 11  1  0
 10  9  2  0
 12 11  1  0
 13 14  1  0
 13 12  1  1
 14  6  1  0
 15 13  1  0
 16 15  2  0
 18 17  1  6
 18 20  1  0
 19 18  1  0
 20 22  1  0
 20 21  1  6
 21 15  1  0
 22 24  1  0
 23 22  2  0
M  END
$$$$
