PQV.pdb
     RDKit          3D

 24 24  0  0  1  0  0  0  0  0999 V2000
   22.3911  -11.8422  -15.9747 N   0  0  0  0  0  0  0  0  0  0  0  0
   23.1839  -13.0410  -16.2497 C   0  0  0  0  0  0  0  0  0  0  0  0
   23.7607  -12.8605  -17.6180 C   0  0  0  0  0  0  0  0  0  0  0  0
   23.3031  -11.4807  -18.0344 C   0  0  0  0  0  0  0  0  0  0  0  0
   23.1422  -10.8206  -16.6847 C   0  0  1  0  0  0  0  0  0  0  0  0
   22.4262   -9.5306  -16.7263 C   0  0  0  0  0  0  0  0  0  0  0  0
   22.8654   -8.5516  -17.3434 O   0  0  0  0  0  0  0  0  0  0  0  0
   17.4545  -10.8652  -15.5917 N   0  0  0  0  0  0  0  0  0  0  0  0
   17.6194  -10.5125  -16.9567 C   0  0  0  0  0  0  0  0  0  0  0  0
   17.0760  -11.2139  -17.8324 O   0  0  0  0  0  0  0  0  0  0  0  0
   18.4512   -9.2948  -17.3040 C   0  0  0  0  0  0  0  0  0  0  0  0
   18.8941   -8.6084  -16.0430 C   0  0  0  0  0  0  0  0  0  0  0  0
   20.3479   -8.2360  -16.1484 C   0  0  2  0  0  0  0  0  0  0  0  0
   21.1889   -9.4250  -16.0287 N   0  0  0  0  0  0  0  0  0  0  0  0
   20.8154   -7.2363  -15.1927 C   0  0  0  0  0  0  0  0  0  0  0  0
   21.0907   -7.5104  -13.9758 O   0  0  0  0  0  0  0  0  0  0  0  0
   22.3981   -3.5641  -16.5317 C   0  0  0  0  0  0  0  0  0  0  0  0
   22.7873   -4.2879  -15.2375 C   0  0  2  0  0  0  0  0  0  0  0  0
   23.8460   -5.3092  -15.5595 C   0  0  0  0  0  0  0  0  0  0  0  0
   21.5431   -4.9125  -14.6272 C   0  0  2  0  0  0  0  0  0  0  0  0
   20.9981   -5.8884  -15.5552 N   0  0  0  0  0  0  0  0  0  0  0  0
   20.5899   -3.8302  -14.3287 C   0  0  0  0  0  0  0  0  0  0  0  0
   19.5965   -3.6800  -15.1286 O   0  0  0  0  0  0  0  0  0  0  0  0
   20.6462   -2.9558  -13.2803 O   0  0  0  0  0  0  0  0  0  0  0  0
  1  5  1  0
  1  2  1  0
  2  3  1  0
  4  3  1  0
  5  4  1  0
  5  6  1  6
  6  7  2  0
  9  8  1  0
  9 11  1  0
 10  9  2  0
 12 11  1  0
 13 14  1  0
 13 12  1  1
 14  6  1  0
 15 13  1  0
 16 15  2  0
 18 17  1  6
 18 20  1  0
 19 18  1  0
 20 22  1  0
 20 21  1  6
 21 15  1  0
 22 24  1  0
 23 22  2  0
M  END
$$$$
