PQV.pdb
     RDKit          3D

 24 24  0  0  1  0  0  0  0  0999 V2000
   29.1005  -20.1836  -11.9911 N   0  0  0  0  0  0  0  0  0  0  0  0
   30.5523  -20.2993  -12.1332 C   0  0  0  0  0  0  0  0  0  0  0  0
   30.7944  -21.4301  -13.0820 C   0  0  0  0  0  0  0  0  0  0  0  0
   29.4082  -21.8673  -13.4994 C   0  0  0  0  0  0  0  0  0  0  0  0
   28.6407  -20.5793  -13.3117 C   0  0  1  0  0  0  0  0  0  0  0  0
   27.1743  -20.7383  -13.3665 C   0  0  0  0  0  0  0  0  0  0  0  0
   26.5935  -21.1603  -14.3748 O   0  0  0  0  0  0  0  0  0  0  0  0
   23.6123  -20.6752   -8.1222 N   0  0  0  0  0  0  0  0  0  0  0  0
   22.7072  -21.1583   -9.1031 C   0  0  0  0  0  0  0  0  0  0  0  0
   21.5817  -21.5561   -8.7437 O   0  0  0  0  0  0  0  0  0  0  0  0
   23.1396  -21.1747  -10.5550 C   0  0  0  0  0  0  0  0  0  0  0  0
   24.5584  -20.6926  -10.6657 C   0  0  0  0  0  0  0  0  0  0  0  0
   24.9983  -20.7276  -12.1040 C   0  0  2  0  0  0  0  0  0  0  0  0
   26.4162  -20.3909  -12.2118 N   0  0  0  0  0  0  0  0  0  0  0  0
   24.2454  -19.8720  -13.0163 C   0  0  0  0  0  0  0  0  0  0  0  0
   24.2921  -18.5962  -12.9740 O   0  0  0  0  0  0  0  0  0  0  0  0
   22.4882  -21.4735  -16.4718 C   0  0  0  0  0  0  0  0  0  0  0  0
   22.8652  -19.9934  -16.3402 C   0  0  2  0  0  0  0  0  0  0  0  0
   24.2966  -19.8229  -16.7758 C   0  0  0  0  0  0  0  0  0  0  0  0
   22.6378  -19.5512  -14.9038 C   0  0  2  0  0  0  0  0  0  0  0  0
   23.4102  -20.4041  -14.0168 N   0  0  0  0  0  0  0  0  0  0  0  0
   21.1925  -19.6207  -14.6294 C   0  0  0  0  0  0  0  0  0  0  0  0
   20.4460  -18.7203  -15.1598 O   0  0  0  0  0  0  0  0  0  0  0  0
   20.5487  -20.5501  -13.8621 O   0  0  0  0  0  0  0  0  0  0  0  0
  1  5  1  0
  1  2  1  0
  2  3  1  0
  4  3  1  0
  5  4  1  0
  5  6  1  1
  6  7  2  0
  9  8  1  0
  9 11  1  0
 10  9  2  0
 12 11  1  0
 13 14  1  0
 13 12  1  1
 14  6  1  0
 15 13  1  0
 16 15  2  0
 18 17  1  1
 18 20  1  0
 19 18  1  0
 20 22  1  0
 20 21  1  1
 21 15  1  0
 22 24  1  0
 23 22  2  0
M  END
$$$$
