PQV.pdb
     RDKit          3D

 24 24  0  0  1  0  0  0  0  0999 V2000
   27.8733  -22.3601  -15.9446 N   0  0  0  0  0  0  0  0  0  0  0  0
   28.5853  -22.6765  -17.1833 C   0  0  0  0  0  0  0  0  0  0  0  0
   28.7367  -21.3860  -17.9243 C   0  0  0  0  0  0  0  0  0  0  0  0
   28.1405  -20.3526  -16.9950 C   0  0  0  0  0  0  0  0  0  0  0  0
   28.3587  -21.0208  -15.6574 C   0  0  1  0  0  0  0  0  0  0  0  0
   27.6261  -20.3899  -14.5421 C   0  0  0  0  0  0  0  0  0  0  0  0
   27.8125  -19.2114  -14.2129 O   0  0  0  0  0  0  0  0  0  0  0  0
   21.7764  -21.3234  -14.0945 N   0  0  0  0  0  0  0  0  0  0  0  0
   21.9385  -20.4053  -13.0242 C   0  0  0  0  0  0  0  0  0  0  0  0
   20.9329  -20.0367  -12.3861 O   0  0  0  0  0  0  0  0  0  0  0  0
   23.3291  -19.9033  -12.6930 C   0  0  0  0  0  0  0  0  0  0  0  0
   24.3317  -20.5531  -13.6041 C   0  0  0  0  0  0  0  0  0  0  0  0
   25.6862  -20.5607  -12.9494 C   0  0  2  0  0  0  0  0  0  0  0  0
   26.6753  -21.1769  -13.8312 N   0  0  0  0  0  0  0  0  0  0  0  0
   25.7542  -21.2129  -11.6451 C   0  0  0  0  0  0  0  0  0  0  0  0
   25.6238  -22.4739  -11.4885 O   0  0  0  0  0  0  0  0  0  0  0  0
   26.2210  -18.8902   -8.0789 C   0  0  0  0  0  0  0  0  0  0  0  0
   26.7292  -20.3340   -8.1643 C   0  0  2  0  0  0  0  0  0  0  0  0
   28.1801  -20.3084   -8.5669 C   0  0  0  0  0  0  0  0  0  0  0  0
   25.8658  -21.1045   -9.1500 C   0  0  2  0  0  0  0  0  0  0  0  0
   25.9735  -20.4855  -10.4599 N   0  0  0  0  0  0  0  0  0  0  0  0
   24.4834  -21.1033   -8.6420 C   0  0  0  0  0  0  0  0  0  0  0  0
   24.2475  -21.7670   -7.5680 O   0  0  0  0  0  0  0  0  0  0  0  0
   23.4087  -20.4654   -9.1945 O   0  0  0  0  0  0  0  0  0  0  0  0
  1  5  1  0
  1  2  1  0
  2  3  1  0
  4  3  1  0
  5  4  1  0
  5  6  1  1
  6  7  2  0
  9  8  1  0
  9 11  1  0
 10  9  2  0
 12 11  1  0
 13 14  1  0
 13 12  1  6
 14  6  1  0
 15 13  1  0
 16 15  2  0
 18 17  1  6
 18 20  1  0
 19 18  1  0
 20 22  1  0
 20 21  1  6
 21 15  1  0
 22 24  1  0
 23 22  2  0
M  END
$$$$
