PQV.pdb
     RDKit          3D

 24 24  0  0  1  0  0  0  0  0999 V2000
   27.8634  -21.6884  -16.8707 N   0  0  0  0  0  0  0  0  0  0  0  0
   28.4971  -21.8897  -18.1743 C   0  0  0  0  0  0  0  0  0  0  0  0
   28.4731  -20.5628  -18.8643 C   0  0  0  0  0  0  0  0  0  0  0  0
   27.8657  -19.6255  -17.8448 C   0  0  0  0  0  0  0  0  0  0  0  0
   28.2505  -20.3225  -16.5605 C   0  0  1  0  0  0  0  0  0  0  0  0
   27.5585  -19.8055  -15.3637 C   0  0  0  0  0  0  0  0  0  0  0  0
   27.6374  -18.6201  -15.0162 O   0  0  0  0  0  0  0  0  0  0  0  0
   21.9586  -20.4771  -15.7623 N   0  0  0  0  0  0  0  0  0  0  0  0
   21.9362  -19.9584  -14.4412 C   0  0  0  0  0  0  0  0  0  0  0  0
   20.8453  -19.6158  -13.9445 O   0  0  0  0  0  0  0  0  0  0  0  0
   23.2398  -19.8381  -13.6786 C   0  0  0  0  0  0  0  0  0  0  0  0
   24.3779  -20.2935  -14.5474 C   0  0  0  0  0  0  0  0  0  0  0  0
   25.6642  -20.2482  -13.7684 C   0  0  2  0  0  0  0  0  0  0  0  0
   26.7768  -20.7136  -14.5936 N   0  0  0  0  0  0  0  0  0  0  0  0
   25.6701  -20.9948  -12.5139 C   0  0  0  0  0  0  0  0  0  0  0  0
   25.7266  -22.2699  -12.4618 O   0  0  0  0  0  0  0  0  0  0  0  0
   25.8569  -18.9750   -8.7604 C   0  0  0  0  0  0  0  0  0  0  0  0
   26.4000  -20.3928   -8.9730 C   0  0  2  0  0  0  0  0  0  0  0  0
   27.8474  -20.2960   -9.3770 C   0  0  0  0  0  0  0  0  0  0  0  0
   25.5500  -21.0959  -10.0189 C   0  0  2  0  0  0  0  0  0  0  0  0
   25.6161  -20.3499  -11.2638 N   0  0  0  0  0  0  0  0  0  0  0  0
   24.1762  -21.1950   -9.4976 C   0  0  0  0  0  0  0  0  0  0  0  0
   23.2833  -20.4466  -10.0379 O   0  0  0  0  0  0  0  0  0  0  0  0
   23.7401  -22.0065   -8.4885 O   0  0  0  0  0  0  0  0  0  0  0  0
  1  5  1  0
  1  2  1  0
  2  3  1  0
  4  3  1  0
  5  4  1  0
  5  6  1  1
  6  7  2  0
  9  8  1  0
  9 11  1  0
 10  9  2  0
 12 11  1  0
 13 14  1  0
 13 12  1  6
 14  6  1  0
 15 13  1  0
 16 15  2  0
 18 17  1  6
 18 20  1  0
 19 18  1  0
 20 22  1  0
 20 21  1  6
 21 15  1  0
 22 24  1  0
 23 22  2  0
M  END
$$$$
