PQV.pdb
     RDKit          3D

 24 24  0  0  1  0  0  0  0  0999 V2000
   17.3543  -11.7899  -14.1484 N   0  0  0  0  0  0  0  0  0  0  0  0
   16.9219  -12.9823  -14.8782 C   0  0  0  0  0  0  0  0  0  0  0  0
   16.1880  -12.4940  -16.0868 C   0  0  0  0  0  0  0  0  0  0  0  0
   16.3099  -10.9886  -16.0117 C   0  0  0  0  0  0  0  0  0  0  0  0
   17.5963  -10.8511  -15.2310 C   0  0  1  0  0  0  0  0  0  0  0  0
   17.8577   -9.4854  -14.7360 C   0  0  0  0  0  0  0  0  0  0  0  0
   18.0832   -8.5383  -15.5003 O   0  0  0  0  0  0  0  0  0  0  0  0
   16.0484   -7.6277   -9.0640 N   0  0  0  0  0  0  0  0  0  0  0  0
   15.2386   -7.5821  -10.2288 C   0  0  0  0  0  0  0  0  0  0  0  0
   14.0089   -7.4189  -10.1043 O   0  0  0  0  0  0  0  0  0  0  0  0
   15.8960   -7.7338  -11.5853 C   0  0  0  0  0  0  0  0  0  0  0  0
   17.3862   -7.8274  -11.4176 C   0  0  0  0  0  0  0  0  0  0  0  0
   18.0457   -7.9324  -12.7657 C   0  0  2  0  0  0  0  0  0  0  0  0
   17.8457   -9.2660  -13.3287 N   0  0  0  0  0  0  0  0  0  0  0  0
   19.4719   -7.6222  -12.7976 C   0  0  0  0  0  0  0  0  0  0  0  0
   20.3565   -8.3498  -12.2321 O   0  0  0  0  0  0  0  0  0  0  0  0
   21.0521   -5.0750  -15.6975 C   0  0  0  0  0  0  0  0  0  0  0  0
   21.8558   -6.1427  -14.9463 C   0  0  2  0  0  0  0  0  0  0  0  0
   21.6721   -7.4626  -15.6475 C   0  0  0  0  0  0  0  0  0  0  0  0
   21.3921   -6.1834  -13.4993 C   0  0  2  0  0  0  0  0  0  0  0  0
   19.9720   -6.4878  -13.4645 N   0  0  0  0  0  0  0  0  0  0  0  0
   21.7008   -4.8807  -12.8854 C   0  0  0  0  0  0  0  0  0  0  0  0
   20.7284   -4.0572  -12.7253 O   0  0  0  0  0  0  0  0  0  0  0  0
   22.9245   -4.4450  -12.4613 O   0  0  0  0  0  0  0  0  0  0  0  0
  1  5  1  0
  1  2  1  0
  2  3  1  0
  4  3  1  0
  5  4  1  0
  5  6  1  1
  6  7  2  0
  9  8  1  0
  9 11  1  0
 10  9  2  0
 12 11  1  0
 13 14  1  0
 13 12  1  1
 14  6  1  0
 15 13  1  0
 16 15  2  0
 18 17  1  6
 18 20  1  0
 19 18  1  0
 20 22  1  0
 20 21  1  6
 21 15  1  0
 22 24  1  0
 23 22  2  0
M  END
$$$$
