CNS.pdb
     RDKit          3D

 21 20  0  0  1  0  0  0  0  0999 V2000
    7.5828  -14.9914   18.0875 N   0  0  0  0  0  0  0  0  0  0  0  0
    8.2871  -14.4461   19.2057 C   0  0  1  0  0  0  0  0  0  0  0  0
    7.5546  -13.2189   19.6802 C   0  0  0  0  0  0  0  0  0  0  0  0
    8.1958  -11.8064   18.7279 S   0  0  0  0  0  0  0  0  0  0  0  0
    8.4954  -15.4487   20.2504 C   0  0  0  0  0  0  0  0  0  0  0  0
    7.5374  -16.2129   20.5331 O   0  0  0  0  0  0  0  0  0  0  0  0
   12.0356  -19.5237   22.5816 N   0  0  0  0  0  0  0  0  0  0  0  0
   10.7838  -18.9010   22.4290 C   0  0  0  0  0  0  0  0  0  0  0  0
    9.7705  -19.2743   23.0692 O   0  0  0  0  0  0  0  0  0  0  0  0
   10.6450  -17.7697   21.4873 C   0  0  0  0  0  0  0  0  0  0  0  0
    9.7705  -16.6584   22.0218 C   0  0  2  0  0  0  0  0  0  0  0  0
    9.6934  -15.6291   20.9723 N   0  0  0  0  0  0  0  0  0  0  0  0
   10.3877  -16.0940   23.2473 C   0  0  0  0  0  0  0  0  0  0  0  0
   11.6006  -15.8143   23.3308 O   0  0  0  0  0  0  0  0  0  0  0  0
    7.9848  -14.7414   26.3432 O   0  0  0  0  0  0  0  0  0  0  0  0
    9.3017  -14.2991   26.3131 C   0  0  0  0  0  0  0  0  0  0  0  0
   10.2058  -15.3069   25.6301 C   0  0  2  0  0  0  0  0  0  0  0  0
    9.6044  -15.8350   24.4266 N   0  0  0  0  0  0  0  0  0  0  0  0
   10.4217  -16.4092   26.5957 C   0  0  0  0  0  0  0  0  0  0  0  0
   11.0617  -16.2144   27.8023 O   0  0  0  0  0  0  0  0  0  0  0  0
   10.0106  -17.5521   26.3071 O   0  0  0  0  0  0  0  0  0  0  0  0
  2  5  1  0
  2  1  1  6
  3  2  1  0
  4  3  1  0
  5 12  1  0
  6  5  2  0
  7  8  1  0
  8 10  1  0
  9  8  2  0
 11 10  1  6
 11 13  1  0
 12 11  1  0
 13 14  2  0
 13 18  1  0
 15 16  1  0
 17 16  1  1
 17 19  1  0
 18 17  1  0
 19 20  1  0
 21 19  2  0
M  END
$$$$
