CNS.pdb
     RDKit          3D

 21 20  0  0  1  0  0  0  0  0999 V2000
    6.2095  -19.2364   17.3279 N   0  0  0  0  0  0  0  0  0  0  0  0
    6.1524  -18.3417   18.4413 C   0  0  1  0  0  0  0  0  0  0  0  0
    5.7328  -19.1205   19.6599 C   0  0  0  0  0  0  0  0  0  0  0  0
    5.1697  -17.9156   20.9026 S   0  0  0  0  0  0  0  0  0  0  0  0
    7.4102  -17.6143   18.6113 C   0  0  0  0  0  0  0  0  0  0  0  0
    8.4721  -18.1801   18.2455 O   0  0  0  0  0  0  0  0  0  0  0  0
    6.4245  -13.0799   18.5988 N   0  0  0  0  0  0  0  0  0  0  0  0
    7.6379  -13.6792   18.2162 C   0  0  0  0  0  0  0  0  0  0  0  0
    7.9610  -13.8215   17.0114 O   0  0  0  0  0  0  0  0  0  0  0  0
    8.5706  -14.1608   19.2575 C   0  0  0  0  0  0  0  0  0  0  0  0
    8.8383  -15.6461   19.1713 C   0  0  2  0  0  0  0  0  0  0  0  0
    7.5293  -16.3191   19.1565 N   0  0  0  0  0  0  0  0  0  0  0  0
    9.6199  -16.0738   20.3577 C   0  0  0  0  0  0  0  0  0  0  0  0
   10.7738  -15.6635   20.5957 O   0  0  0  0  0  0  0  0  0  0  0  0
    8.3042  -19.3452   22.6640 O   0  0  0  0  0  0  0  0  0  0  0  0
    9.0753  -18.3994   23.3287 C   0  0  0  0  0  0  0  0  0  0  0  0
    9.8982  -17.5774   22.3558 C   0  0  2  0  0  0  0  0  0  0  0  0
    9.0774  -17.0023   21.3143 N   0  0  0  0  0  0  0  0  0  0  0  0
   10.8871  -18.4984   21.7494 C   0  0  0  0  0  0  0  0  0  0  0  0
   10.5087  -19.5915   20.9974 O   0  0  0  0  0  0  0  0  0  0  0  0
   12.1032  -18.2773   21.9252 O   0  0  0  0  0  0  0  0  0  0  0  0
  2  5  1  0
  2  1  1  6
  3  2  1  0
  4  3  1  0
  5 12  1  0
  6  5  2  0
  7  8  1  0
  8 10  1  0
  9  8  2  0
 11 10  1  1
 11 13  1  0
 12 11  1  0
 13 14  2  0
 13 18  1  0
 15 16  1  0
 17 16  1  1
 17 19  1  0
 18 17  1  0
 19 20  1  0
 21 19  2  0
M  END
$$$$
