CNS.pdb
     RDKit          3D

 21 20  0  0  1  0  0  0  0  0999 V2000
    7.9629  -13.9774   17.9017 N   0  0  0  0  0  0  0  0  0  0  0  0
    9.1010  -13.4498   18.5870 C   0  0  1  0  0  0  0  0  0  0  0  0
    8.6196  -12.6501   19.7687 C   0  0  0  0  0  0  0  0  0  0  0  0
    7.7987  -13.8098   20.9064 S   0  0  0  0  0  0  0  0  0  0  0  0
   10.0534  -14.5035   18.9374 C   0  0  0  0  0  0  0  0  0  0  0  0
    9.6434  -15.6924   18.9367 O   0  0  0  0  0  0  0  0  0  0  0  0
   13.9295  -16.4710   17.4513 N   0  0  0  0  0  0  0  0  0  0  0  0
   14.0013  -15.2087   18.0673 C   0  0  0  0  0  0  0  0  0  0  0  0
   14.3474  -14.1784   17.4390 O   0  0  0  0  0  0  0  0  0  0  0  0
   13.6604  -15.0789   19.5001 C   0  0  0  0  0  0  0  0  0  0  0  0
   12.2148  -15.4072   19.7968 C   0  0  2  0  0  0  0  0  0  0  0  0
   11.4054  -14.2922   19.2787 N   0  0  0  0  0  0  0  0  0  0  0  0
   12.0311  -15.5341   21.2637 C   0  0  0  0  0  0  0  0  0  0  0  0
   12.3107  -14.6201   22.0654 O   0  0  0  0  0  0  0  0  0  0  0  0
    8.9164  -17.3029   22.8031 O   0  0  0  0  0  0  0  0  0  0  0  0
   10.0224  -17.7138   23.5372 C   0  0  0  0  0  0  0  0  0  0  0  0
   11.2242  -16.8306   23.2633 C   0  0  2  0  0  0  0  0  0  0  0  0
   11.5110  -16.7414   21.8494 N   0  0  0  0  0  0  0  0  0  0  0  0
   12.3757  -17.4494   23.9597 C   0  0  0  0  0  0  0  0  0  0  0  0
   12.3960  -17.6318   25.3271 O   0  0  0  0  0  0  0  0  0  0  0  0
   13.3602  -17.8178   23.2861 O   0  0  0  0  0  0  0  0  0  0  0  0
  2  5  1  0
  2  1  1  1
  3  2  1  0
  4  3  1  0
  5 12  1  0
  6  5  2  0
  7  8  1  0
  8 10  1  0
  9  8  2  0
 11 10  1  1
 11 13  1  0
 12 11  1  0
 13 14  2  0
 13 18  1  0
 15 16  1  0
 17 16  1  6
 17 19  1  0
 18 17  1  0
 19 20  1  0
 21 19  2  0
M  END
$$$$
