CNS.pdb
     RDKit          3D

 21 20  0  0  1  0  0  0  0  0999 V2000
    8.7921  -15.0408   17.4158 N   0  0  0  0  0  0  0  0  0  0  0  0
    9.5290  -14.2679   18.3660 C   0  0  1  0  0  0  0  0  0  0  0  0
    8.5764  -13.7737   19.4225 C   0  0  0  0  0  0  0  0  0  0  0  0
    7.4010  -12.6495   18.6054 S   0  0  0  0  0  0  0  0  0  0  0  0
   10.6660  -15.0164   18.9017 C   0  0  0  0  0  0  0  0  0  0  0  0
   10.5240  -16.2526   19.0847 O   0  0  0  0  0  0  0  0  0  0  0  0
   14.8987  -13.6439   17.4763 N   0  0  0  0  0  0  0  0  0  0  0  0
   14.7637  -14.7777   18.2973 C   0  0  0  0  0  0  0  0  0  0  0  0
   15.0501  -15.9315   17.8938 O   0  0  0  0  0  0  0  0  0  0  0  0
   14.2695  -14.6178   19.6816 C   0  0  0  0  0  0  0  0  0  0  0  0
   12.9316  -15.2825   19.9131 C   0  0  2  0  0  0  0  0  0  0  0  0
   11.9188  -14.4595   19.2322 N   0  0  0  0  0  0  0  0  0  0  0  0
   12.6541  -15.3335   21.3698 C   0  0  0  0  0  0  0  0  0  0  0  0
   12.7195  -14.3313   22.1098 O   0  0  0  0  0  0  0  0  0  0  0  0
   10.0570  -17.9333   22.9305 O   0  0  0  0  0  0  0  0  0  0  0  0
   10.5287  -16.8742   23.6964 C   0  0  0  0  0  0  0  0  0  0  0  0
   11.9996  -16.6162   23.4329 C   0  0  2  0  0  0  0  0  0  0  0  0
   12.2882  -16.5655   22.0175 N   0  0  0  0  0  0  0  0  0  0  0  0
   12.7460  -17.7389   24.0464 C   0  0  0  0  0  0  0  0  0  0  0  0
   13.5164  -18.6051   23.2982 O   0  0  0  0  0  0  0  0  0  0  0  0
   12.6751  -17.9061   25.2815 O   0  0  0  0  0  0  0  0  0  0  0  0
  2  5  1  0
  2  1  1  6
  3  2  1  0
  4  3  1  0
  5 12  1  0
  6  5  2  0
  7  8  1  0
  8 10  1  0
  9  8  2  0
 11 10  1  1
 11 13  1  0
 12 11  1  0
 13 14  2  0
 13 18  1  0
 15 16  1  0
 17 16  1  6
 17 19  1  0
 18 17  1  0
 19 20  1  0
 21 19  2  0
M  END
$$$$
