CNS.pdb
     RDKit          3D

 21 20  0  0  1  0  0  0  0  0999 V2000
    8.2849  -14.6859   16.8080 N   0  0  0  0  0  0  0  0  0  0  0  0
    8.8334  -13.9833   17.9256 C   0  0  1  0  0  0  0  0  0  0  0  0
    7.7001  -13.5189   18.8017 C   0  0  0  0  0  0  0  0  0  0  0  0
    8.4299  -12.5511   20.1596 S   0  0  0  0  0  0  0  0  0  0  0  0
    9.8306  -14.7891   18.6301 C   0  0  0  0  0  0  0  0  0  0  0  0
    9.5713  -16.0029   18.8324 O   0  0  0  0  0  0  0  0  0  0  0  0
   14.4657  -14.1436   17.5062 N   0  0  0  0  0  0  0  0  0  0  0  0
   13.9614  -15.1174   18.3867 C   0  0  0  0  0  0  0  0  0  0  0  0
   13.9973  -16.3430   18.1174 O   0  0  0  0  0  0  0  0  0  0  0  0
   13.3677  -14.6958   19.6735 C   0  0  0  0  0  0  0  0  0  0  0  0
   11.9569  -15.2027   19.8689 C   0  0  2  0  0  0  0  0  0  0  0  0
   11.0696  -14.3109   19.1047 N   0  0  0  0  0  0  0  0  0  0  0  0
   11.6128  -15.1534   21.3113 C   0  0  0  0  0  0  0  0  0  0  0  0
   11.5622  -14.0903   21.9622 O   0  0  0  0  0  0  0  0  0  0  0  0
    8.6678  -15.7273   23.0563 O   0  0  0  0  0  0  0  0  0  0  0  0
    9.5030  -16.6495   23.6749 C   0  0  0  0  0  0  0  0  0  0  0  0
   10.9631  -16.3074   23.4506 C   0  0  2  0  0  0  0  0  0  0  0  0
   11.3136  -16.3523   22.0491 N   0  0  0  0  0  0  0  0  0  0  0  0
   11.7561  -17.3183   24.1877 C   0  0  0  0  0  0  0  0  0  0  0  0
   11.6408  -17.4910   25.5516 O   0  0  0  0  0  0  0  0  0  0  0  0
   12.5550  -18.0374   23.5527 O   0  0  0  0  0  0  0  0  0  0  0  0
  2  5  1  0
  2  1  1  6
  3  2  1  0
  4  3  1  0
  5 12  1  0
  6  5  2  0
  7  8  1  0
  8 10  1  0
  9  8  2  0
 11 10  1  1
 11 13  1  0
 12 11  1  0
 13 14  2  0
 13 18  1  0
 15 16  1  0
 17 16  1  6
 17 19  1  0
 18 17  1  0
 19 20  1  0
 21 19  2  0
M  END
$$$$
