CNS.pdb
     RDKit          3D

 21 20  0  0  1  0  0  0  0  0999 V2000
    8.0789  -13.9416   17.5603 N   0  0  0  0  0  0  0  0  0  0  0  0
    8.6850  -13.5234   18.7856 C   0  0  1  0  0  0  0  0  0  0  0  0
    7.5947  -13.1700   19.7624 C   0  0  0  0  0  0  0  0  0  0  0  0
    8.3991  -12.7568   21.3420 S   0  0  0  0  0  0  0  0  0  0  0  0
    9.6253  -14.5245   19.2891 C   0  0  0  0  0  0  0  0  0  0  0  0
    9.2747  -15.7318   19.2554 O   0  0  0  0  0  0  0  0  0  0  0  0
   14.0133  -13.9047   17.9481 N   0  0  0  0  0  0  0  0  0  0  0  0
   13.6085  -15.0507   18.6556 C   0  0  0  0  0  0  0  0  0  0  0  0
   13.5893  -16.1891   18.1267 O   0  0  0  0  0  0  0  0  0  0  0  0
   13.1899  -14.9228   20.0679 C   0  0  0  0  0  0  0  0  0  0  0  0
   11.7557  -15.3403   20.3004 C   0  0  2  0  0  0  0  0  0  0  0  0
   10.9038  -14.2430   19.8137 N   0  0  0  0  0  0  0  0  0  0  0  0
   11.5355  -15.5534   21.7522 C   0  0  0  0  0  0  0  0  0  0  0  0
   11.5027  -14.6198   22.5791 O   0  0  0  0  0  0  0  0  0  0  0  0
    9.5387  -17.9728   25.2952 O   0  0  0  0  0  0  0  0  0  0  0  0
    9.7477  -17.7317   23.9428 C   0  0  0  0  0  0  0  0  0  0  0  0
   11.0968  -17.0829   23.7012 C   0  0  2  0  0  0  0  0  0  0  0  0
   11.3448  -16.8736   22.2927 N   0  0  0  0  0  0  0  0  0  0  0  0
   12.1180  -18.0063   24.2476 C   0  0  0  0  0  0  0  0  0  0  0  0
   12.3290  -18.1495   25.6035 O   0  0  0  0  0  0  0  0  0  0  0  0
   12.8104  -18.6767   23.4540 O   0  0  0  0  0  0  0  0  0  0  0  0
  2  5  1  0
  2  1  1  6
  3  2  1  0
  4  3  1  0
  5 12  1  0
  6  5  2  0
  7  8  1  0
  8 10  1  0
  9  8  2  0
 11 10  1  1
 11 13  1  0
 12 11  1  0
 13 14  2  0
 13 18  1  0
 15 16  1  0
 17 16  1  6
 17 19  1  0
 18 17  1  0
 19 20  1  0
 21 19  2  0
M  END
$$$$
