CNS.pdb
     RDKit          3D

 21 20  0  0  1  0  0  0  0  0999 V2000
    7.7589  -15.2193   17.5494 N   0  0  0  0  0  0  0  0  0  0  0  0
    8.7560  -14.7009   18.4329 C   0  0  1  0  0  0  0  0  0  0  0  0
    8.1006  -13.7246   19.3736 C   0  0  0  0  0  0  0  0  0  0  0  0
    7.5502  -12.3034   18.3784 S   0  0  0  0  0  0  0  0  0  0  0  0
    9.4839  -15.7738   19.1105 C   0  0  0  0  0  0  0  0  0  0  0  0
    8.8440  -16.8070   19.4341 O   0  0  0  0  0  0  0  0  0  0  0  0
   13.1851  -17.5957   17.2449 N   0  0  0  0  0  0  0  0  0  0  0  0
   12.6540  -18.0310   18.4723 C   0  0  0  0  0  0  0  0  0  0  0  0
   12.0761  -19.1389   18.5938 O   0  0  0  0  0  0  0  0  0  0  0  0
   12.7744  -17.1646   19.6643 C   0  0  0  0  0  0  0  0  0  0  0  0
   11.4378  -16.8040   20.2715 C   0  0  2  0  0  0  0  0  0  0  0  0
   10.8565  -15.7431   19.4328 N   0  0  0  0  0  0  0  0  0  0  0  0
   11.6445  -16.3073   21.6542 C   0  0  0  0  0  0  0  0  0  0  0  0
   12.5071  -15.4554   21.9488 O   0  0  0  0  0  0  0  0  0  0  0  0
    8.8277  -17.2166   24.5234 O   0  0  0  0  0  0  0  0  0  0  0  0
    9.6277  -16.1061   24.7631 C   0  0  0  0  0  0  0  0  0  0  0  0
   10.9741  -16.2391   24.0783 C   0  0  2  0  0  0  0  0  0  0  0  0
   10.8455  -16.7916   22.7489 N   0  0  0  0  0  0  0  0  0  0  0  0
   11.7886  -17.1524   24.9129 C   0  0  0  0  0  0  0  0  0  0  0  0
   12.1738  -16.8272   26.1972 O   0  0  0  0  0  0  0  0  0  0  0  0
   12.1376  -18.2528   24.4376 O   0  0  0  0  0  0  0  0  0  0  0  0
  2  5  1  0
  2  1  1  1
  3  2  1  0
  4  3  1  0
  5 12  1  0
  6  5  2  0
  7  8  1  0
  8 10  1  0
  9  8  2  0
 11 10  1  6
 11 13  1  0
 12 11  1  0
 13 14  2  0
 13 18  1  0
 15 16  1  0
 17 16  1  1
 17 19  1  0
 18 17  1  0
 19 20  1  0
 21 19  2  0
M  END
$$$$
