CNS.pdb
     RDKit          3D

 21 20  0  0  1  0  0  0  0  0999 V2000
    5.6580  -14.5259   26.2249 N   0  0  0  0  0  0  0  0  0  0  0  0
    6.7600  -13.6797   25.8886 C   0  0  1  0  0  0  0  0  0  0  0  0
    6.9485  -12.6769   26.9961 C   0  0  0  0  0  0  0  0  0  0  0  0
    5.3799  -11.7712   27.1763 S   0  0  0  0  0  0  0  0  0  0  0  0
    7.9619  -14.4570   25.5868 C   0  0  0  0  0  0  0  0  0  0  0  0
    9.0198  -13.8288   25.3260 O   0  0  0  0  0  0  0  0  0  0  0  0
    7.8116  -17.8174   27.9004 N   0  0  0  0  0  0  0  0  0  0  0  0
    9.1100  -17.6012   27.4051 C   0  0  0  0  0  0  0  0  0  0  0  0
   10.0551  -17.2375   28.1471 O   0  0  0  0  0  0  0  0  0  0  0  0
    9.3823  -17.8058   25.9663 C   0  0  0  0  0  0  0  0  0  0  0  0
    9.2781  -16.5331   25.1572 C   0  0  2  0  0  0  0  0  0  0  0  0
    8.0310  -15.8654   25.5643 N   0  0  0  0  0  0  0  0  0  0  0  0
    9.2293  -16.8715   23.7135 C   0  0  0  0  0  0  0  0  0  0  0  0
    8.3786  -17.6417   23.2241 O   0  0  0  0  0  0  0  0  0  0  0  0
    8.5017  -14.8535   21.0368 O   0  0  0  0  0  0  0  0  0  0  0  0
    9.6965  -15.3868   20.5687 C   0  0  0  0  0  0  0  0  0  0  0  0
   10.1060  -16.6073   21.3700 C   0  0  2  0  0  0  0  0  0  0  0  0
   10.1792  -16.3185   22.7843 N   0  0  0  0  0  0  0  0  0  0  0  0
   11.4453  -17.0088   20.8809 C   0  0  0  0  0  0  0  0  0  0  0  0
   11.6686  -17.3792   19.5708 O   0  0  0  0  0  0  0  0  0  0  0  0
   12.4032  -17.0118   21.6816 O   0  0  0  0  0  0  0  0  0  0  0  0
  2  5  1  0
  2  1  1  1
  3  2  1  0
  4  3  1  0
  5 12  1  0
  6  5  2  0
  7  8  1  0
  8 10  1  0
  9  8  2  0
 11 10  1  1
 11 13  1  0
 12 11  1  0
 13 14  2  0
 13 18  1  0
 15 16  1  0
 17 16  1  6
 17 19  1  0
 18 17  1  0
 19 20  1  0
 21 19  2  0
M  END
$$$$
