CNS.pdb
     RDKit          3D

 21 20  0  0  1  0  0  0  0  0999 V2000
    3.6967  -20.4849   20.9859 N   0  0  0  0  0  0  0  0  0  0  0  0
    3.9930  -19.0911   20.8717 C   0  0  1  0  0  0  0  0  0  0  0  0
    3.0564  -18.3277   21.7705 C   0  0  0  0  0  0  0  0  0  0  0  0
    1.3955  -18.4336   21.0332 S   0  0  0  0  0  0  0  0  0  0  0  0
    5.4074  -18.8196   21.1279 C   0  0  0  0  0  0  0  0  0  0  0  0
    5.9805  -19.4819   22.0304 O   0  0  0  0  0  0  0  0  0  0  0  0
    8.1272  -18.1332   17.3043 N   0  0  0  0  0  0  0  0  0  0  0  0
    8.5243  -18.3099   18.6419 C   0  0  0  0  0  0  0  0  0  0  0  0
    9.0365  -19.3810   19.0498 O   0  0  0  0  0  0  0  0  0  0  0  0
    8.3372  -17.2058   19.6073 C   0  0  0  0  0  0  0  0  0  0  0  0
    7.5803  -17.6253   20.8470 C   0  0  2  0  0  0  0  0  0  0  0  0
    6.1869  -17.8673   20.4390 N   0  0  0  0  0  0  0  0  0  0  0  0
    7.6373  -16.5335   21.8500 C   0  0  0  0  0  0  0  0  0  0  0  0
    6.8053  -15.6048   21.8922 O   0  0  0  0  0  0  0  0  0  0  0  0
    7.3679  -16.6047   25.3889 O   0  0  0  0  0  0  0  0  0  0  0  0
    7.5183  -15.3998   24.7133 C   0  0  0  0  0  0  0  0  0  0  0  0
    8.7416  -15.4196   23.8174 C   0  0  2  0  0  0  0  0  0  0  0  0
    8.6754  -16.4878   22.8459 N   0  0  0  0  0  0  0  0  0  0  0  0
    9.9128  -15.6300   24.6994 C   0  0  0  0  0  0  0  0  0  0  0  0
   10.3221  -14.6833   25.6157 O   0  0  0  0  0  0  0  0  0  0  0  0
   10.5500  -16.6998   24.6099 O   0  0  0  0  0  0  0  0  0  0  0  0
  2  5  1  0
  2  1  1  1
  3  2  1  0
  4  3  1  0
  5 12  1  0
  6  5  2  0
  7  8  1  0
  8 10  1  0
  9  8  2  0
 11 10  1  6
 11 13  1  0
 12 11  1  0
 13 14  2  0
 13 18  1  0
 15 16  1  0
 17 16  1  1
 17 19  1  0
 18 17  1  0
 19 20  1  0
 21 19  2  0
M  END
$$$$
