HIL.pdb
     RDKit          3D

 27 27  0  0  1  0  0  0  0  0999 V2000
   15.0829  -22.6512   -1.8322 N   0  0  0  0  0  0  0  0  0  0  0  0
   14.6233  -22.4964   -0.4688 C   0  0  1  0  0  0  0  0  0  0  0  0
   14.0108  -23.8143   -0.0418 C   0  0  0  0  0  0  0  0  0  0  0  0
   12.7823  -24.0061   -0.8571 C   0  0  0  0  0  0  0  0  0  0  0  0
   11.5635  -23.3800   -0.6531 C   0  0  0  0  0  0  0  0  0  0  0  0
   10.6784  -23.7947   -1.5836 N   0  0  0  0  0  0  0  0  0  0  0  0
   11.3228  -24.6723   -2.3696 C   0  0  0  0  0  0  0  0  0  0  0  0
   12.5858  -24.7965   -1.9302 N   0  0  0  0  0  0  0  0  0  0  0  0
   15.7500  -22.1050    0.4254 C   0  0  0  0  0  0  0  0  0  0  0  0
   16.9012  -22.4675    0.1128 O   0  0  0  0  0  0  0  0  0  0  0  0
   16.0602  -17.0921    1.8132 C   0  0  0  0  0  0  0  0  0  0  0  0
   16.4692  -18.5092    1.5129 C   0  0  0  0  0  0  0  0  0  0  0  0
   16.3848  -19.3836    2.7711 C   0  0  2  0  0  0  0  0  0  0  0  0
   17.4530  -18.9272    3.7442 C   0  0  0  0  0  0  0  0  0  0  0  0
   16.6805  -20.8182    2.3999 C   0  0  2  0  0  0  0  0  0  0  0  0
   15.5626  -21.3472    1.6004 N   0  0  0  0  0  0  0  0  0  0  0  0
   16.9215  -21.6739    3.5553 C   0  0  0  0  0  0  0  0  0  0  0  0
   15.8590  -22.0812    4.1712 O   0  0  0  0  0  0  0  0  0  0  0  0
   20.5479  -25.6250    3.6311 C   0  0  0  0  0  0  0  0  0  0  0  0
   19.2705  -24.9151    3.9128 C   0  0  1  0  0  0  0  0  0  0  0  0
   18.2391  -25.9668    4.2888 C   0  0  0  0  0  0  0  0  0  0  0  0
   19.3814  -23.9461    5.0200 C   0  0  0  0  0  0  0  0  0  0  0  0
   18.2098  -23.0403    5.2443 C   0  0  2  0  0  0  0  0  0  0  0  0
   18.1222  -22.1269    4.0981 N   0  0  0  0  0  0  0  0  0  0  0  0
   18.2152  -22.2535    6.4742 C   0  0  0  0  0  0  0  0  0  0  0  0
   18.5853  -21.0522    6.4757 O   0  0  0  0  0  0  0  0  0  0  0  0
   17.8177  -22.7958    7.6805 O   0  0  0  0  0  0  0  0  0  0  0  0
  2  1  1  6
  3  2  1  0
  4  3  1  0
  4  8  1  0
  5  6  1  0
  5  4  2  0
  6  7  1  0
  7  8  2  0
  9  2  1  0
 10  9  2  0
 12 11  1  0
 13 12  1  0
 13 14  1  1
 15 13  1  0
 15 16  1  1
 16  9  1  0
 17 15  1  0
 18 17  2  0
 20 19  1  1
 21 20  1  0
 22 20  1  0
 23 22  1  6
 23 24  1  0
 24 17  1  0
 25 27  1  0
 25 23  1  0
 26 25  2  0
M  END
$$$$
