HIL.pdb
     RDKit          3D

 27 27  0  0  1  0  0  0  0  0999 V2000
   20.5129  -17.9314  -14.8735 N   0  0  0  0  0  0  0  0  0  0  0  0
   20.8850  -19.2375  -15.3733 C   0  0  1  0  0  0  0  0  0  0  0  0
   20.4864  -19.2976  -16.8334 C   0  0  0  0  0  0  0  0  0  0  0  0
   19.0005  -19.3278  -16.8764 C   0  0  0  0  0  0  0  0  0  0  0  0
   18.1982  -20.4096  -16.5523 C   0  0  0  0  0  0  0  0  0  0  0  0
   16.9001  -20.0752  -16.7076 N   0  0  0  0  0  0  0  0  0  0  0  0
   16.8744  -18.7990  -17.1246 C   0  0  0  0  0  0  0  0  0  0  0  0
   18.1374  -18.3537  -17.2248 N   0  0  0  0  0  0  0  0  0  0  0  0
   22.3469  -19.4712  -15.1984 C   0  0  0  0  0  0  0  0  0  0  0  0
   23.1303  -18.5539  -15.5135 O   0  0  0  0  0  0  0  0  0  0  0  0
   26.3212  -21.3872  -11.2404 C   0  0  0  0  0  0  0  0  0  0  0  0
   26.0351  -21.2825  -12.7145 C   0  0  0  0  0  0  0  0  0  0  0  0
   24.5487  -20.9963  -12.9665 C   0  0  2  0  0  0  0  0  0  0  0  0
   23.7404  -22.1678  -12.4464 C   0  0  0  0  0  0  0  0  0  0  0  0
   24.3079  -20.8932  -14.4546 C   0  0  2  0  0  0  0  0  0  0  0  0
   22.8706  -20.6803  -14.6945 N   0  0  0  0  0  0  0  0  0  0  0  0
   24.7741  -22.0589  -15.1955 C   0  0  0  0  0  0  0  0  0  0  0  0
   24.0743  -23.1344  -15.0290 O   0  0  0  0  0  0  0  0  0  0  0  0
   27.9022  -21.9171  -19.8200 C   0  0  0  0  0  0  0  0  0  0  0  0
   26.8265  -22.1914  -18.8286 C   0  0  1  0  0  0  0  0  0  0  0  0
   25.6518  -22.7894  -19.5860 C   0  0  0  0  0  0  0  0  0  0  0  0
   27.2405  -23.1389  -17.7760 C   0  0  0  0  0  0  0  0  0  0  0  0
   26.2301  -23.4543  -16.7163 C   0  0  2  0  0  0  0  0  0  0  0  0
   25.8570  -22.1938  -16.0619 N   0  0  0  0  0  0  0  0  0  0  0  0
   26.6312  -24.4154  -15.6929 C   0  0  0  0  0  0  0  0  0  0  0  0
   27.1864  -24.0392  -14.6298 O   0  0  0  0  0  0  0  0  0  0  0  0
   26.4197  -25.7708  -15.8524 O   0  0  0  0  0  0  0  0  0  0  0  0
  2  1  1  6
  3  2  1  0
  4  3  1  0
  4  8  1  0
  5  6  1  0
  5  4  2  0
  6  7  1  0
  7  8  2  0
  9  2  1  0
 10  9  2  0
 12 11  1  0
 13 12  1  0
 13 14  1  6
 15 13  1  0
 15 16  1  1
 16  9  1  0
 17 15  1  0
 18 17  2  0
 20 19  1  6
 21 20  1  0
 22 20  1  0
 23 22  1  6
 23 24  1  0
 24 17  1  0
 25 27  1  0
 25 23  1  0
 26 25  2  0
M  END
$$$$
