HIL.pdb
     RDKit          3D

 27 27  0  0  1  0  0  0  0  0999 V2000
   22.2666  -21.2180  -15.2105 N   0  0  0  0  0  0  0  0  0  0  0  0
   22.7780  -20.3361  -14.1835 C   0  0  1  0  0  0  0  0  0  0  0  0
   21.6651  -20.1098  -13.1813 C   0  0  0  0  0  0  0  0  0  0  0  0
   20.8858  -18.9359  -13.6563 C   0  0  0  0  0  0  0  0  0  0  0  0
   20.0368  -18.9107  -14.7506 C   0  0  0  0  0  0  0  0  0  0  0  0
   19.5012  -17.6790  -14.8818 N   0  0  0  0  0  0  0  0  0  0  0  0
   20.0009  -16.9295  -13.8859 C   0  0  0  0  0  0  0  0  0  0  0  0
   20.8319  -17.6876  -13.1523 N   0  0  0  0  0  0  0  0  0  0  0  0
   23.9829  -20.9270  -13.5342 C   0  0  0  0  0  0  0  0  0  0  0  0
   23.9510  -22.1344  -13.2251 O   0  0  0  0  0  0  0  0  0  0  0  0
   28.8429  -19.5470  -15.2208 C   0  0  0  0  0  0  0  0  0  0  0  0
   27.6429  -20.2519  -14.6472 C   0  0  0  0  0  0  0  0  0  0  0  0
   27.5687  -20.0610  -13.1264 C   0  0  2  0  0  0  0  0  0  0  0  0
   28.7744  -20.7320  -12.5000 C   0  0  0  0  0  0  0  0  0  0  0  0
   26.3311  -20.7490  -12.5991 C   0  0  2  0  0  0  0  0  0  0  0  0
   25.1458  -20.1771  -13.2599 N   0  0  0  0  0  0  0  0  0  0  0  0
   26.1935  -20.6558  -11.1508 C   0  0  0  0  0  0  0  0  0  0  0  0
   25.6299  -19.5742  -10.7188 O   0  0  0  0  0  0  0  0  0  0  0  0
   29.2374  -20.3762   -6.2661 C   0  0  0  0  0  0  0  0  0  0  0  0
   27.8453  -20.5926   -6.7460 C   0  0  1  0  0  0  0  0  0  0  0  0
   27.0955  -19.2815   -6.5724 C   0  0  0  0  0  0  0  0  0  0  0  0
   27.7799  -20.9888   -8.1658 C   0  0  0  0  0  0  0  0  0  0  0  0
   26.4226  -21.2978   -8.7187 C   0  0  2  0  0  0  0  0  0  0  0  0
   26.5713  -21.5559  -10.1565 N   0  0  0  0  0  0  0  0  0  0  0  0
   25.3898  -20.2838   -8.5266 C   0  0  0  0  0  0  0  0  0  0  0  0
   25.5699  -19.0950   -8.8929 O   0  0  0  0  0  0  0  0  0  0  0  0
   24.1796  -20.5884   -7.9351 O   0  0  0  0  0  0  0  0  0  0  0  0
  2  1  1  6
  3  2  1  0
  4  3  1  0
  4  8  1  0
  5  6  1  0
  5  4  2  0
  6  7  1  0
  7  8  2  0
  9  2  1  0
 10  9  2  0
 12 11  1  0
 13 12  1  0
 13 14  1  1
 15 13  1  0
 15 16  1  6
 16  9  1  0
 17 15  1  0
 18 17  2  0
 20 19  1  6
 21 20  1  0
 22 20  1  0
 23 22  1  6
 23 24  1  0
 24 17  1  0
 25 27  1  0
 25 23  1  0
 26 25  2  0
M  END
$$$$
