HIL.pdb
     RDKit          3D

 27 27  0  0  1  0  0  0  0  0999 V2000
   44.4400  -10.8920   -9.3684 N   0  0  0  0  0  0  0  0  0  0  0  0
   43.5604  -10.5159   -8.2825 C   0  0  1  0  0  0  0  0  0  0  0  0
   44.3934   -9.7759   -7.2565 C   0  0  0  0  0  0  0  0  0  0  0  0
   45.3807  -10.7479   -6.7167 C   0  0  0  0  0  0  0  0  0  0  0  0
   46.7593  -10.6368   -6.7949 C   0  0  0  0  0  0  0  0  0  0  0  0
   47.3354  -11.7013   -6.1982 N   0  0  0  0  0  0  0  0  0  0  0  0
   46.3392  -12.4801   -5.7460 C   0  0  0  0  0  0  0  0  0  0  0  0
   45.1671  -11.9042   -6.0592 N   0  0  0  0  0  0  0  0  0  0  0  0
   42.4376   -9.6724   -8.7825 C   0  0  0  0  0  0  0  0  0  0  0  0
   42.6569   -8.9148   -9.7482 O   0  0  0  0  0  0  0  0  0  0  0  0
   39.1984  -12.0683   -9.0824 C   0  0  0  0  0  0  0  0  0  0  0  0
   38.7019  -10.7587   -9.6339 C   0  0  0  0  0  0  0  0  0  0  0  0
   38.7463   -9.6599   -8.5636 C   0  0  2  0  0  0  0  0  0  0  0  0
   37.5952   -8.7054   -8.8089 C   0  0  0  0  0  0  0  0  0  0  0  0
   40.0322   -8.8793   -8.7061 C   0  0  2  0  0  0  0  0  0  0  0  0
   41.1493   -9.6999   -8.2085 N   0  0  0  0  0  0  0  0  0  0  0  0
   40.0056   -7.5951   -8.0167 C   0  0  0  0  0  0  0  0  0  0  0  0
   39.8202   -7.6593   -6.7378 O   0  0  0  0  0  0  0  0  0  0  0  0
   43.5694   -3.6640   -8.5369 C   0  0  0  0  0  0  0  0  0  0  0  0
   42.5684   -4.6333   -8.0141 C   0  0  1  0  0  0  0  0  0  0  0  0
   42.8528   -4.8266   -6.5332 C   0  0  0  0  0  0  0  0  0  0  0  0
   41.1774   -4.1664   -8.1701 C   0  0  0  0  0  0  0  0  0  0  0  0
   40.0979   -5.0912   -7.6982 C   0  0  2  0  0  0  0  0  0  0  0  0
   40.1544   -6.3052   -8.5222 N   0  0  0  0  0  0  0  0  0  0  0  0
   38.7336   -4.5713   -7.7187 C   0  0  0  0  0  0  0  0  0  0  0  0
   37.9774   -4.7690   -8.7030 O   0  0  0  0  0  0  0  0  0  0  0  0
   38.2224   -3.8425   -6.6629 O   0  0  0  0  0  0  0  0  0  0  0  0
  2  1  1  6
  3  2  1  0
  4  3  1  0
  4  8  1  0
  5  6  1  0
  5  4  2  0
  6  7  1  0
  7  8  2  0
  9  2  1  0
 10  9  2  0
 12 11  1  0
 13 12  1  0
 13 14  1  6
 15 13  1  0
 15 16  1  1
 16  9  1  0
 17 15  1  0
 18 17  2  0
 20 19  1  1
 21 20  1  0
 22 20  1  0
 23 22  1  6
 23 24  1  0
 24 17  1  0
 25 27  1  0
 25 23  1  0
 26 25  2  0
M  END
$$$$
