HIL.pdb
     RDKit          3D

 27 27  0  0  1  0  0  0  0  0999 V2000
   21.8152  -15.5283  -16.4808 N   0  0  0  0  0  0  0  0  0  0  0  0
   21.7306  -14.2410  -17.1365 C   0  0  1  0  0  0  0  0  0  0  0  0
   20.3421  -14.1221  -17.7302 C   0  0  0  0  0  0  0  0  0  0  0  0
   20.2422  -15.1420  -18.8074 C   0  0  0  0  0  0  0  0  0  0  0  0
   19.4677  -16.2901  -18.7726 C   0  0  0  0  0  0  0  0  0  0  0  0
   19.6245  -16.9789  -19.9225 N   0  0  0  0  0  0  0  0  0  0  0  0
   20.4862  -16.2807  -20.6797 C   0  0  0  0  0  0  0  0  0  0  0  0
   20.8548  -15.1785  -20.0068 N   0  0  0  0  0  0  0  0  0  0  0  0
   22.0056  -13.1392  -16.1708 C   0  0  0  0  0  0  0  0  0  0  0  0
   21.3073  -13.0737  -15.1399 O   0  0  0  0  0  0  0  0  0  0  0  0
   26.9765  -10.6873  -16.3203 C   0  0  0  0  0  0  0  0  0  0  0  0
   25.4835  -10.6937  -16.5120 C   0  0  0  0  0  0  0  0  0  0  0  0
   24.7610  -10.9772  -15.1882 C   0  0  2  0  0  0  0  0  0  0  0  0
   25.2266  -12.3216  -14.6667 C   0  0  0  0  0  0  0  0  0  0  0  0
   23.2746  -11.0701  -15.4434 C   0  0  2  0  0  0  0  0  0  0  0  0
   23.0168  -12.1779  -16.3789 N   0  0  0  0  0  0  0  0  0  0  0  0
   22.7004   -9.8330  -15.9583 C   0  0  0  0  0  0  0  0  0  0  0  0
   22.5298   -9.7959  -17.2404 O   0  0  0  0  0  0  0  0  0  0  0  0
   18.4155   -7.7096  -18.0361 C   0  0  0  0  0  0  0  0  0  0  0  0
   19.4904   -7.0875  -17.2159 C   0  0  1  0  0  0  0  0  0  0  0  0
   18.8155   -6.2774  -16.1207 C   0  0  0  0  0  0  0  0  0  0  0  0
   20.3829   -8.0797  -16.5867 C   0  0  0  0  0  0  0  0  0  0  0  0
   21.6165   -7.5519  -15.9212 C   0  0  2  0  0  0  0  0  0  0  0  0
   22.3006   -8.6827  -15.2813 N   0  0  0  0  0  0  0  0  0  0  0  0
   21.4268   -6.4953  -14.9316 C   0  0  0  0  0  0  0  0  0  0  0  0
   21.3663   -6.7578  -13.7038 O   0  0  0  0  0  0  0  0  0  0  0  0
   21.3046   -5.1708  -15.3034 O   0  0  0  0  0  0  0  0  0  0  0  0
  2  1  1  1
  3  2  1  0
  4  3  1  0
  4  8  1  0
  5  6  1  0
  5  4  2  0
  6  7  1  0
  7  8  2  0
  9  2  1  0
 10  9  2  0
 12 11  1  0
 13 12  1  0
 13 14  1  6
 15 13  1  0
 15 16  1  6
 16  9  1  0
 17 15  1  0
 18 17  2  0
 20 19  1  1
 21 20  1  0
 22 20  1  0
 23 22  1  1
 23 24  1  0
 24 17  1  0
 25 27  1  0
 25 23  1  0
 26 25  2  0
M  END
$$$$
