HIL.pdb
     RDKit          3D

 27 27  0  0  1  0  0  0  0  0999 V2000
   27.8852  -21.8577  -15.5600 N   0  0  0  0  0  0  0  0  0  0  0  0
   27.1010  -20.7982  -14.9629 C   0  0  1  0  0  0  0  0  0  0  0  0
   26.2305  -20.2061  -16.0520 C   0  0  0  0  0  0  0  0  0  0  0  0
   27.0993  -19.3147  -16.8651 C   0  0  0  0  0  0  0  0  0  0  0  0
   27.8748  -18.2727  -16.3834 C   0  0  0  0  0  0  0  0  0  0  0  0
   28.5301  -17.6838  -17.4056 N   0  0  0  0  0  0  0  0  0  0  0  0
   28.1780  -18.3403  -18.5229 C   0  0  0  0  0  0  0  0  0  0  0  0
   27.3189  -19.3188  -18.1943 N   0  0  0  0  0  0  0  0  0  0  0  0
   26.2796  -21.3228  -13.8349 C   0  0  0  0  0  0  0  0  0  0  0  0
   25.7214  -22.4283  -13.9792 O   0  0  0  0  0  0  0  0  0  0  0  0
   27.3067  -20.9607   -8.4304 C   0  0  0  0  0  0  0  0  0  0  0  0
   27.1130  -20.8068   -9.9152 C   0  0  0  0  0  0  0  0  0  0  0  0
   25.6632  -20.4256  -10.2433 C   0  0  2  0  0  0  0  0  0  0  0  0
   24.7685  -20.9481   -9.1375 C   0  0  0  0  0  0  0  0  0  0  0  0
   25.2506  -21.1019  -11.5299 C   0  0  2  0  0  0  0  0  0  0  0  0
   26.1128  -20.6209  -12.6227 N   0  0  0  0  0  0  0  0  0  0  0  0
   23.8478  -20.8920  -11.8666 C   0  0  0  0  0  0  0  0  0  0  0  0
   23.0029  -21.2365  -10.9492 O   0  0  0  0  0  0  0  0  0  0  0  0
   21.8916  -17.8187  -16.3013 C   0  0  0  0  0  0  0  0  0  0  0  0
   21.5805  -19.0030  -15.4552 C   0  0  1  0  0  0  0  0  0  0  0  0
   22.4917  -20.1343  -15.9038 C   0  0  0  0  0  0  0  0  0  0  0  0
   21.8044  -18.7591  -14.0173 C   0  0  0  0  0  0  0  0  0  0  0  0
   21.8673  -19.9641  -13.1299 C   0  0  2  0  0  0  0  0  0  0  0  0
   23.2740  -20.3717  -13.0247 N   0  0  0  0  0  0  0  0  0  0  0  0
   21.0714  -21.1192  -13.5350 C   0  0  0  0  0  0  0  0  0  0  0  0
   21.6187  -22.1782  -13.9334 O   0  0  0  0  0  0  0  0  0  0  0  0
   19.6910  -21.0937  -13.4991 O   0  0  0  0  0  0  0  0  0  0  0  0
  2  1  1  6
  3  2  1  0
  4  3  1  0
  4  8  1  0
  5  6  1  0
  5  4  2  0
  6  7  1  0
  7  8  2  0
  9  2  1  0
 10  9  2  0
 12 11  1  0
 13 12  1  0
 13 14  1  1
 15 13  1  0
 15 16  1  6
 16  9  1  0
 17 15  1  0
 18 17  2  0
 20 19  1  6
 21 20  1  0
 22 20  1  0
 23 22  1  6
 23 24  1  0
 24 17  1  0
 25 27  1  0
 25 23  1  0
 26 25  2  0
M  END
$$$$
