HIL.pdb
     RDKit          3D

 27 27  0  0  1  0  0  0  0  0999 V2000
   18.0514  -12.2351  -17.2992 N   0  0  0  0  0  0  0  0  0  0  0  0
   18.6520  -10.9503  -17.5871 C   0  0  1  0  0  0  0  0  0  0  0  0
   17.5685  -10.0578  -18.1562 C   0  0  0  0  0  0  0  0  0  0  0  0
   17.3440  -10.4899  -19.5610 C   0  0  0  0  0  0  0  0  0  0  0  0
   16.2694  -11.2321  -20.0230 C   0  0  0  0  0  0  0  0  0  0  0  0
   16.3962  -11.4373  -21.3507 N   0  0  0  0  0  0  0  0  0  0  0  0
   17.5349  -10.8351  -21.7304 C   0  0  0  0  0  0  0  0  0  0  0  0
   18.1011  -10.2674  -20.6530 N   0  0  0  0  0  0  0  0  0  0  0  0
   19.2509  -10.3613  -16.3556 C   0  0  0  0  0  0  0  0  0  0  0  0
   18.6029  -10.4372  -15.2931 O   0  0  0  0  0  0  0  0  0  0  0  0
   22.8073  -10.1882  -12.4304 C   0  0  0  0  0  0  0  0  0  0  0  0
   23.1111   -9.3328  -13.6312 C   0  0  0  0  0  0  0  0  0  0  0  0
   22.4481   -9.9019  -14.8927 C   0  0  2  0  0  0  0  0  0  0  0  0
   23.3467   -9.6128  -16.0782 C   0  0  0  0  0  0  0  0  0  0  0  0
   21.1337   -9.1938  -15.1258 C   0  0  2  0  0  0  0  0  0  0  0  0
   20.5113   -9.7278  -16.3490 N   0  0  0  0  0  0  0  0  0  0  0  0
   21.2690   -7.7455  -15.2215 C   0  0  0  0  0  0  0  0  0  0  0  0
   21.7972   -7.3123  -16.3203 O   0  0  0  0  0  0  0  0  0  0  0  0
   17.4984   -4.2475  -15.2490 C   0  0  0  0  0  0  0  0  0  0  0  0
   18.8162   -4.8935  -15.4963 C   0  0  1  0  0  0  0  0  0  0  0  0
   19.3609   -4.3311  -16.7996 C   0  0  0  0  0  0  0  0  0  0  0  0
   19.7961   -4.6333  -14.4243 C   0  0  0  0  0  0  0  0  0  0  0  0
   21.1235   -5.3170  -14.5426 C   0  0  2  0  0  0  0  0  0  0  0  0
   20.9120   -6.7517  -14.3124 N   0  0  0  0  0  0  0  0  0  0  0  0
   22.1837   -4.8489  -13.6545 C   0  0  0  0  0  0  0  0  0  0  0  0
   22.5021   -5.4958  -12.6249 O   0  0  0  0  0  0  0  0  0  0  0  0
   22.8747   -3.6803  -13.9079 O   0  0  0  0  0  0  0  0  0  0  0  0
  2  1  1  1
  3  2  1  0
  4  3  1  0
  4  8  1  0
  5  6  1  0
  5  4  2  0
  6  7  1  0
  7  8  2  0
  9  2  1  0
 10  9  2  0
 12 11  1  0
 13 12  1  0
 13 14  1  6
 15 13  1  0
 15 16  1  6
 16  9  1  0
 17 15  1  0
 18 17  2  0
 20 19  1  1
 21 20  1  0
 22 20  1  0
 23 22  1  1
 23 24  1  0
 24 17  1  0
 25 27  1  0
 25 23  1  0
 26 25  2  0
M  END
$$$$
