HIL.pdb
     RDKit          3D

 27 27  0  0  1  0  0  0  0  0999 V2000
   20.3644  -13.5712  -19.3738 N   0  0  0  0  0  0  0  0  0  0  0  0
   21.1671  -12.3797  -19.5469 C   0  0  1  0  0  0  0  0  0  0  0  0
   20.4393  -11.4773  -20.5218 C   0  0  0  0  0  0  0  0  0  0  0  0
   20.4878  -12.1446  -21.8496 C   0  0  0  0  0  0  0  0  0  0  0  0
   19.4002  -12.6287  -22.5580 C   0  0  0  0  0  0  0  0  0  0  0  0
   19.8198  -13.1698  -23.7209 N   0  0  0  0  0  0  0  0  0  0  0  0
   21.1553  -13.0330  -23.7540 C   0  0  0  0  0  0  0  0  0  0  0  0
   21.5526  -12.4170  -22.6287 N   0  0  0  0  0  0  0  0  0  0  0  0
   21.3898  -11.7002  -18.2389 C   0  0  0  0  0  0  0  0  0  0  0  0
   20.4363  -11.6411  -17.4378 O   0  0  0  0  0  0  0  0  0  0  0  0
   25.8382  -12.6530  -15.6221 C   0  0  0  0  0  0  0  0  0  0  0  0
   24.4096  -12.2855  -15.9218 C   0  0  0  0  0  0  0  0  0  0  0  0
   24.2615  -10.7705  -16.1164 C   0  0  2  0  0  0  0  0  0  0  0  0
   24.4615  -10.0934  -14.7756 C   0  0  0  0  0  0  0  0  0  0  0  0
   22.8575  -10.4646  -16.5837 C   0  0  2  0  0  0  0  0  0  0  0  0
   22.6276  -11.1275  -17.8785 N   0  0  0  0  0  0  0  0  0  0  0  0
   22.5860   -9.0365  -16.6946 C   0  0  0  0  0  0  0  0  0  0  0  0
   22.9962   -8.4804  -17.7885 O   0  0  0  0  0  0  0  0  0  0  0  0
   20.1948   -5.3662  -19.3422 C   0  0  0  0  0  0  0  0  0  0  0  0
   20.5953   -5.3586  -17.9088 C   0  0  1  0  0  0  0  0  0  0  0  0
   19.4233   -4.8078  -17.1122 C   0  0  0  0  0  0  0  0  0  0  0  0
   20.9250   -6.7019  -17.3951 C   0  0  0  0  0  0  0  0  0  0  0  0
   21.6617   -6.7644  -16.0925 C   0  0  2  0  0  0  0  0  0  0  0  0
   21.9467   -8.1758  -15.8048 N   0  0  0  0  0  0  0  0  0  0  0  0
   20.9978   -6.1725  -14.9345 C   0  0  0  0  0  0  0  0  0  0  0  0
   20.3060   -6.8733  -14.1534 O   0  0  0  0  0  0  0  0  0  0  0  0
   21.1012   -4.8243  -14.6536 O   0  0  0  0  0  0  0  0  0  0  0  0
  2  1  1  1
  3  2  1  0
  4  3  1  0
  4  8  1  0
  5  6  1  0
  5  4  2  0
  6  7  1  0
  7  8  2  0
  9  2  1  0
 10  9  2  0
 12 11  1  0
 13 12  1  0
 13 14  1  1
 15 13  1  0
 15 16  1  6
 16  9  1  0
 17 15  1  0
 18 17  2  0
 20 19  1  6
 21 20  1  0
 22 20  1  0
 23 22  1  6
 23 24  1  0
 24 17  1  0
 25 27  1  0
 25 23  1  0
 26 25  2  0
M  END
$$$$
