IQA.pdb
     RDKit          3D

 23 22  0  0  1  0  0  0  0  0999 V2000
   14.6197   -9.3997  -20.2392 C   0  0  0  0  0  0  0  0  0  0  0  0
   16.0176   -9.5690  -19.7326 C   0  0  0  0  0  0  0  0  0  0  0  0
   16.2776   -8.6703  -18.5759 C   0  0  2  0  0  0  0  0  0  0  0  0
   16.2401   -7.2013  -19.0004 C   0  0  0  0  0  0  0  0  0  0  0  0
   17.5944   -8.9467  -17.9356 C   0  0  2  0  0  0  0  0  0  0  0  0
   17.7258  -10.3012  -17.4825 N   0  0  0  0  0  0  0  0  0  0  0  0
   17.8502   -8.0222  -16.8029 C   0  0  0  0  0  0  0  0  0  0  0  0
   17.3512   -8.2077  -15.6553 O   0  0  0  0  0  0  0  0  0  0  0  0
   22.6765   -6.2953  -14.2439 N   0  0  0  0  0  0  0  0  0  0  0  0
   21.9100   -5.2364  -13.7065 C   0  0  0  0  0  0  0  0  0  0  0  0
   22.3815   -4.5286  -12.7899 O   0  0  0  0  0  0  0  0  0  0  0  0
   20.5413   -5.0033  -14.2684 C   0  0  0  0  0  0  0  0  0  0  0  0
   20.2079   -6.0536  -15.2957 C   0  0  0  0  0  0  0  0  0  0  0  0
   18.8379   -5.9036  -15.9006 C   0  0  2  0  0  0  0  0  0  0  0  0
   18.6731   -6.8924  -16.9866 N   0  0  0  0  0  0  0  0  0  0  0  0
   18.5790   -4.5781  -16.4984 C   0  0  0  0  0  0  0  0  0  0  0  0
   19.0938   -4.2748  -17.5770 O   0  0  0  0  0  0  0  0  0  0  0  0
   16.3561   -1.6077  -15.7710 C   0  0  0  0  0  0  0  0  0  0  0  0
   17.5542   -2.2821  -16.3382 C   0  0  2  0  0  0  0  0  0  0  0  0
   17.7460   -3.6323  -15.8606 N   0  0  0  0  0  0  0  0  0  0  0  0
   18.7231   -1.4250  -16.1353 C   0  0  0  0  0  0  0  0  0  0  0  0
   19.4863   -1.6320  -15.1637 O   0  0  0  0  0  0  0  0  0  0  0  0
   18.9920   -0.3866  -17.0097 O   0  0  0  0  0  0  0  0  0  0  0  0
  1  2  1  0
  3  5  1  0
  3  2  1  0
  3  4  1  6
  5  6  1  1
  7  5  1  0
  7  8  2  0
  9 10  1  0
 10 12  1  0
 11 10  2  0
 12 13  1  0
 14 13  1  6
 14 15  1  0
 15  7  1  0
 16 14  1  0
 17 16  2  0
 19 18  1  1
 19 21  1  0
 19 20  1  0
 20 16  1  0
 21 23  1  0
 22 21  2  0
M  END
$$$$
