IQA.pdb
     RDKit          3D

 23 22  0  0  1  0  0  0  0  0999 V2000
   18.0251  -13.1781    2.8615 C   0  0  0  0  0  0  0  0  0  0  0  0
   17.5425  -14.5868    2.7117 C   0  0  0  0  0  0  0  0  0  0  0  0
   17.3552  -15.2299    4.0400 C   0  0  2  0  0  0  0  0  0  0  0  0
   18.6825  -15.3361    4.7927 C   0  0  0  0  0  0  0  0  0  0  0  0
   16.7633  -16.5925    3.9251 C   0  0  2  0  0  0  0  0  0  0  0  0
   15.4622  -16.5911    3.3214 N   0  0  0  0  0  0  0  0  0  0  0  0
   16.6917  -17.2648    5.2465 C   0  0  0  0  0  0  0  0  0  0  0  0
   15.7776  -17.0110    6.0835 O   0  0  0  0  0  0  0  0  0  0  0  0
   16.6955  -22.9536    6.3560 N   0  0  0  0  0  0  0  0  0  0  0  0
   16.8301  -22.5654    7.7083 C   0  0  0  0  0  0  0  0  0  0  0  0
   16.6839  -23.4118    8.6170 O   0  0  0  0  0  0  0  0  0  0  0  0
   17.1478  -21.1310    8.0000 C   0  0  0  0  0  0  0  0  0  0  0  0
   17.2242  -20.3381    6.7213 C   0  0  0  0  0  0  0  0  0  0  0  0
   17.6001  -18.8942    6.9192 C   0  0  2  0  0  0  0  0  0  0  0  0
   17.6629  -18.2218    5.6046 N   0  0  0  0  0  0  0  0  0  0  0  0
   18.9167  -18.6906    7.5569 C   0  0  0  0  0  0  0  0  0  0  0  0
   19.9496  -18.8022    6.8928 O   0  0  0  0  0  0  0  0  0  0  0  0
   20.1665  -17.6424   10.9817 C   0  0  0  0  0  0  0  0  0  0  0  0
   20.2917  -18.2096    9.6125 C   0  0  2  0  0  0  0  0  0  0  0  0
   19.0293  -18.3669    8.9272 N   0  0  0  0  0  0  0  0  0  0  0  0
   21.0718  -19.4462    9.6796 C   0  0  0  0  0  0  0  0  0  0  0  0
   20.4876  -20.5439    9.8315 O   0  0  0  0  0  0  0  0  0  0  0  0
   22.4514  -19.4118    9.5763 O   0  0  0  0  0  0  0  0  0  0  0  0
  1  2  1  0
  3  5  1  0
  3  2  1  0
  3  4  1  6
  5  6  1  1
  7  5  1  0
  7  8  2  0
  9 10  1  0
 10 12  1  0
 11 10  2  0
 12 13  1  0
 14 13  1  6
 14 15  1  0
 15  7  1  0
 16 14  1  0
 17 16  2  0
 19 18  1  1
 19 21  1  0
 19 20  1  0
 20 16  1  0
 21 23  1  0
 22 21  2  0
M  END
$$$$
