IQA.pdb
     RDKit          3D

 23 22  0  0  1  0  0  0  0  0999 V2000
   10.9734  -21.6815   -3.8172 C   0  0  0  0  0  0  0  0  0  0  0  0
   11.8193  -22.2470   -2.7199 C   0  0  0  0  0  0  0  0  0  0  0  0
   13.1827  -22.5778   -3.2148 C   0  0  2  0  0  0  0  0  0  0  0  0
   13.1275  -23.6435   -4.3105 C   0  0  0  0  0  0  0  0  0  0  0  0
   14.0732  -23.0636   -2.1233 C   0  0  2  0  0  0  0  0  0  0  0  0
   14.3134  -22.0753   -1.1120 N   0  0  0  0  0  0  0  0  0  0  0  0
   15.3712  -23.5458   -2.6579 C   0  0  0  0  0  0  0  0  0  0  0  0
   16.3830  -22.7923   -2.7528 O   0  0  0  0  0  0  0  0  0  0  0  0
   17.4324  -29.1223   -1.5934 N   0  0  0  0  0  0  0  0  0  0  0  0
   18.4795  -28.7240   -2.4551 C   0  0  0  0  0  0  0  0  0  0  0  0
   19.4798  -29.4598   -2.6016 O   0  0  0  0  0  0  0  0  0  0  0  0
   18.3434  -27.4141   -3.1686 C   0  0  0  0  0  0  0  0  0  0  0  0
   17.0615  -26.7292   -2.7721 C   0  0  0  0  0  0  0  0  0  0  0  0
   16.8305  -25.4147   -3.4678 C   0  0  2  0  0  0  0  0  0  0  0  0
   15.5066  -24.8838   -3.0807 N   0  0  0  0  0  0  0  0  0  0  0  0
   16.8330  -25.4984   -4.9424 C   0  0  0  0  0  0  0  0  0  0  0  0
   15.8329  -25.9008   -5.5408 O   0  0  0  0  0  0  0  0  0  0  0  0
   19.2592  -24.5772   -7.7156 C   0  0  0  0  0  0  0  0  0  0  0  0
   17.9979  -25.1198   -7.1440 C   0  0  2  0  0  0  0  0  0  0  0  0
   17.9657  -25.1255   -5.6994 N   0  0  0  0  0  0  0  0  0  0  0  0
   17.7347  -26.4331   -7.7340 C   0  0  0  0  0  0  0  0  0  0  0  0
   17.7224  -27.4522   -7.0054 O   0  0  0  0  0  0  0  0  0  0  0  0
   17.4990  -26.5578   -9.0919 O   0  0  0  0  0  0  0  0  0  0  0  0
  1  2  1  0
  3  5  1  0
  3  2  1  0
  3  4  1  6
  5  6  1  1
  7  5  1  0
  7  8  2  0
  9 10  1  0
 10 12  1  0
 11 10  2  0
 12 13  1  0
 14 13  1  1
 14 15  1  0
 15  7  1  0
 16 14  1  0
 17 16  2  0
 19 18  1  1
 19 21  1  0
 19 20  1  0
 20 16  1  0
 21 23  1  0
 22 21  2  0
M  END
$$$$
