IQA.pdb
     RDKit          3D

 23 22  0  0  1  0  0  0  0  0999 V2000
   27.6125   -7.5505  -20.3195 C   0  0  0  0  0  0  0  0  0  0  0  0
   28.8799   -8.2914  -20.0287 C   0  0  0  0  0  0  0  0  0  0  0  0
   29.5052   -7.8038  -18.7699 C   0  0  2  0  0  0  0  0  0  0  0  0
   29.8658   -6.3209  -18.8724 C   0  0  0  0  0  0  0  0  0  0  0  0
   30.7352   -8.5693  -18.4215 C   0  0  2  0  0  0  0  0  0  0  0  0
   30.4705   -9.9411  -18.0969 N   0  0  0  0  0  0  0  0  0  0  0  0
   31.4702   -7.9317  -17.3006 C   0  0  0  0  0  0  0  0  0  0  0  0
   31.2245   -8.2063  -16.0904 O   0  0  0  0  0  0  0  0  0  0  0  0
   35.5644   -7.0839  -14.1373 N   0  0  0  0  0  0  0  0  0  0  0  0
   35.4970   -8.2940  -14.8644 C   0  0  0  0  0  0  0  0  0  0  0  0
   35.7882   -9.3738  -14.3052 O   0  0  0  0  0  0  0  0  0  0  0  0
   35.0720   -8.2298  -16.2992 C   0  0  0  0  0  0  0  0  0  0  0  0
   34.7418   -6.8121  -16.6876 C   0  0  0  0  0  0  0  0  0  0  0  0
   33.3008   -6.4378  -16.4667 C   0  0  2  0  0  0  0  0  0  0  0  0
   32.4804   -6.9852  -17.5674 N   0  0  0  0  0  0  0  0  0  0  0  0
   33.0478   -4.9829  -16.4395 C   0  0  0  0  0  0  0  0  0  0  0  0
   33.0689   -4.3317  -17.4864 O   0  0  0  0  0  0  0  0  0  0  0  0
   32.0818   -2.4410  -13.7877 C   0  0  0  0  0  0  0  0  0  0  0  0
   32.4331   -2.9034  -15.1570 C   0  0  2  0  0  0  0  0  0  0  0  0
   32.7784   -4.3045  -15.2302 N   0  0  0  0  0  0  0  0  0  0  0  0
   33.4658   -2.0233  -15.7058 C   0  0  0  0  0  0  0  0  0  0  0  0
   34.6479   -2.4288  -15.7930 O   0  0  0  0  0  0  0  0  0  0  0  0
   33.1459   -0.7453  -16.1296 O   0  0  0  0  0  0  0  0  0  0  0  0
  1  2  1  0
  3  5  1  0
  3  2  1  0
  3  4  1  6
  5  6  1  1
  7  5  1  0
  7  8  2  0
  9 10  1  0
 10 12  1  0
 11 10  2  0
 12 13  1  0
 14 13  1  6
 14 15  1  0
 15  7  1  0
 16 14  1  0
 17 16  2  0
 19 18  1  1
 19 21  1  0
 19 20  1  0
 20 16  1  0
 21 23  1  0
 22 21  2  0
M  END
$$$$
