IQA.pdb
     RDKit          3D

 23 22  0  0  1  0  0  0  0  0999 V2000
   12.6744  -13.3629  -11.6135 C   0  0  0  0  0  0  0  0  0  0  0  0
   12.8823  -12.7268  -10.2750 C   0  0  0  0  0  0  0  0  0  0  0  0
   13.1202  -11.2646  -10.4111 C   0  0  2  0  0  0  0  0  0  0  0  0
   14.3600  -10.9851  -11.2622 C   0  0  0  0  0  0  0  0  0  0  0  0
   13.2907  -10.5985   -9.0892 C   0  0  2  0  0  0  0  0  0  0  0  0
   12.1700  -10.7895   -8.2147 N   0  0  0  0  0  0  0  0  0  0  0  0
   13.5511   -9.1454   -9.2448 C   0  0  0  0  0  0  0  0  0  0  0  0
   12.6213   -8.3117   -9.4465 O   0  0  0  0  0  0  0  0  0  0  0  0
   14.9978   -4.0195   -7.7032 N   0  0  0  0  0  0  0  0  0  0  0  0
   14.2068   -4.9191   -6.9530 C   0  0  0  0  0  0  0  0  0  0  0  0
   13.2881   -4.4834   -6.2254 O   0  0  0  0  0  0  0  0  0  0  0  0
   14.5086   -6.3820   -7.0640 C   0  0  0  0  0  0  0  0  0  0  0  0
   15.6118   -6.6178   -8.0625 C   0  0  0  0  0  0  0  0  0  0  0  0
   15.1423   -7.2135   -9.3625 C   0  0  2  0  0  0  0  0  0  0  0  0
   14.8700   -8.6532   -9.1694 N   0  0  0  0  0  0  0  0  0  0  0  0
   16.1211   -7.1166  -10.4644 C   0  0  0  0  0  0  0  0  0  0  0  0
   17.2404   -7.6192  -10.3433 O   0  0  0  0  0  0  0  0  0  0  0  0
   16.0747   -6.1576  -14.0967 C   0  0  0  0  0  0  0  0  0  0  0  0
   16.7335   -6.3134  -12.7724 C   0  0  2  0  0  0  0  0  0  0  0  0
   15.8077   -6.4543  -11.6720 N   0  0  0  0  0  0  0  0  0  0  0  0
   17.6917   -5.2229  -12.5867 C   0  0  0  0  0  0  0  0  0  0  0  0
   17.5114   -4.3837  -11.6741 O   0  0  0  0  0  0  0  0  0  0  0  0
   18.7968   -5.1116  -13.4123 O   0  0  0  0  0  0  0  0  0  0  0  0
  1  2  1  0
  3  5  1  0
  3  2  1  0
  3  4  1  6
  5  6  1  1
  7  5  1  0
  7  8  2  0
  9 10  1  0
 10 12  1  0
 11 10  2  0
 12 13  1  0
 14 13  1  1
 14 15  1  0
 15  7  1  0
 16 14  1  0
 17 16  2  0
 19 18  1  6
 19 21  1  0
 19 20  1  0
 20 16  1  0
 21 23  1  0
 22 21  2  0
M  END
$$$$
