IQA.pdb
     RDKit          3D

 23 22  0  0  1  0  0  0  0  0999 V2000
   25.7021  -13.0334  -16.7847 C   0  0  0  0  0  0  0  0  0  0  0  0
   24.3251  -13.2226  -16.2302 C   0  0  0  0  0  0  0  0  0  0  0  0
   23.5129  -11.9861  -16.3875 C   0  0  2  0  0  0  0  0  0  0  0  0
   24.1554  -10.8080  -15.6535 C   0  0  0  0  0  0  0  0  0  0  0  0
   22.1222  -12.1603  -15.8816 C   0  0  2  0  0  0  0  0  0  0  0  0
   21.4250  -13.2420  -16.5150 N   0  0  0  0  0  0  0  0  0  0  0  0
   21.3321  -10.9124  -16.0294 C   0  0  0  0  0  0  0  0  0  0  0  0
   20.7870  -10.5851  -17.1231 O   0  0  0  0  0  0  0  0  0  0  0  0
   16.9429   -9.1882  -12.7325 N   0  0  0  0  0  0  0  0  0  0  0  0
   16.8630   -9.7958  -14.0061 C   0  0  0  0  0  0  0  0  0  0  0  0
   15.8363  -10.4320  -14.3296 O   0  0  0  0  0  0  0  0  0  0  0  0
   18.0326   -9.6487  -14.9302 C   0  0  0  0  0  0  0  0  0  0  0  0
   19.1415   -8.8818  -14.2580 C   0  0  0  0  0  0  0  0  0  0  0  0
   20.4031   -8.7907  -15.0737 C   0  0  2  0  0  0  0  0  0  0  0  0
   21.1693  -10.0462  -14.9292 N   0  0  0  0  0  0  0  0  0  0  0  0
   21.3106   -7.6976  -14.6700 C   0  0  0  0  0  0  0  0  0  0  0  0
   21.9284   -7.7680  -13.6053 O   0  0  0  0  0  0  0  0  0  0  0  0
   22.6147   -4.5128  -16.2623 C   0  0  0  0  0  0  0  0  0  0  0  0
   22.3919   -5.4729  -15.1484 C   0  0  2  0  0  0  0  0  0  0  0  0
   21.4942   -6.5554  -15.4805 N   0  0  0  0  0  0  0  0  0  0  0  0
   21.9862   -4.7302  -13.9543 C   0  0  0  0  0  0  0  0  0  0  0  0
   22.7984   -3.9573  -13.3955 O   0  0  0  0  0  0  0  0  0  0  0  0
   20.7106   -4.8753  -13.4375 O   0  0  0  0  0  0  0  0  0  0  0  0
  1  2  1  0
  3  5  1  0
  3  2  1  0
  3  4  1  1
  5  6  1  6
  7  5  1  0
  7  8  2  0
  9 10  1  0
 10 12  1  0
 11 10  2  0
 12 13  1  0
 14 13  1  1
 14 15  1  0
 15  7  1  0
 16 14  1  0
 17 16  2  0
 19 18  1  6
 19 21  1  0
 19 20  1  0
 20 16  1  0
 21 23  1  0
 22 21  2  0
M  END
$$$$
