RWE.pdb
     RDKit          3D

 35 36  0  0  1  0  0  0  0  0999 V2000
   31.3689  -25.2863  -18.5325 N   0  0  0  0  0  0  0  0  0  0  0  0
   31.6492  -25.2449  -17.1353 C   0  0  0  0  0  0  0  0  0  0  0  0
   32.8283  -25.5331  -16.7370 N   0  0  0  0  0  0  0  0  0  0  0  0
   30.6473  -24.8918  -16.1969 N   0  0  0  0  0  0  0  0  0  0  0  0
   29.2949  -24.6526  -16.7034 C   0  0  0  0  0  0  0  0  0  0  0  0
   29.0077  -23.1903  -16.4743 C   0  0  0  0  0  0  0  0  0  0  0  0
   27.8992  -22.9736  -15.4758 C   0  0  0  0  0  0  0  0  0  0  0  0
   28.2315  -21.7852  -14.6275 C   0  0  2  0  0  0  0  0  0  0  0  0
   29.6563  -21.7491  -14.3789 N   0  0  0  0  0  0  0  0  0  0  0  0
   27.4692  -21.8155  -13.3290 C   0  0  0  0  0  0  0  0  0  0  0  0
   26.3104  -22.2742  -13.3350 O   0  0  0  0  0  0  0  0  0  0  0  0
   33.1970  -25.4712  -15.7820 N   0  0  0  0  0  0  0  0  0  0  0  0
   28.0367  -21.3442  -12.1418 C   0  0  1  0  0  0  0  0  0  0  0  0
   27.3087  -21.1661  -10.9016 C   0  0  0  0  0  0  0  0  0  0  0  0
   28.2850  -20.5907   -9.9017 C   0  0  0  0  0  0  0  0  0  0  0  0
   27.5624  -20.2415   -8.6720 C   0  0  0  0  0  0  0  0  0  0  0  0
   26.2564  -19.8240   -8.5238 N   0  0  0  0  0  0  0  0  0  0  0  0
   25.9943  -19.6079   -7.2320 C   0  0  0  0  0  0  0  0  0  0  0  0
   27.1032  -19.8742   -6.5174 C   0  0  0  0  0  0  0  0  0  0  0  0
   27.4208  -19.8330   -5.1829 C   0  0  0  0  0  0  0  0  0  0  0  0
   28.6781  -20.1718   -4.7116 C   0  0  0  0  0  0  0  0  0  0  0  0
   29.6657  -20.5674   -5.5841 C   0  0  0  0  0  0  0  0  0  0  0  0
   29.3652  -20.6145   -6.9250 C   0  0  0  0  0  0  0  0  0  0  0  0
   28.0978  -20.2737   -7.4066 C   0  0  0  0  0  0  0  0  0  0  0  0
   26.1156  -20.2805  -11.0949 O   0  0  0  0  0  0  0  0  0  0  0  0
   26.2411  -19.0386  -11.1863 N   0  0  0  0  0  0  0  0  0  0  0  0
   24.8073  -20.7824  -11.1833 C   0  0  1  0  0  0  0  0  0  0  0  0
   23.5860  -20.2053  -11.4983 C   0  0  0  0  0  0  0  0  0  0  0  0
   23.0303  -20.1533  -12.8724 C   0  0  0  0  0  0  0  0  0  0  0  0
   21.9542  -21.1505  -13.1787 C   0  0  0  0  0  0  0  0  0  0  0  0
   22.5133  -22.1870  -14.1251 O   0  0  0  0  0  0  0  0  0  0  0  0
   23.6949  -22.0691  -14.5339 C   0  0  0  0  0  0  0  0  0  0  0  0
   22.5466  -20.5420  -10.5323 O   0  0  0  0  0  0  0  0  0  0  0  0
   22.7570  -21.3910   -9.6412 O   0  0  0  0  0  0  0  0  0  0  0  0
   21.7713  -23.2558  -14.5537 O   0  0  0  0  0  0  0  0  0  0  0  0
  2  1  1  0
  2  3  2  0
  4  2  1  0
  5  6  1  0
  5  4  1  0
  7  6  1  0
  8  7  1  0
  8  9  1  1
 10  8  1  0
 10 12  1  0
 11 10  2  0
 13 12  1  0
 13 14  1  1
 14 15  1  0
 15 16  2  0
 17 16  1  0
 18 17  1  0
 19 18  2  0
 20 19  1  0
 21 22  1  0
 21 20  2  0
 22 23  2  0
 23 18  1  0
 23 15  1  0
 24 13  1  0
 24 25  2  0
 26 24  1  0
 27 26  1  0
 27 32  1  0
 27 28  1  1
 29 28  1  0
 30 29  1  0
 31 30  2  0
 32 33  2  0
 32 35  1  0
 34 30  1  0
M  END
$$$$
