RWE.pdb
     RDKit          3D

 35 36  0  0  1  0  0  0  0  0999 V2000
   23.5688  -24.3389  -16.4099 N   0  0  0  0  0  0  0  0  0  0  0  0
   23.1437  -24.7082  -15.1002 C   0  0  0  0  0  0  0  0  0  0  0  0
   21.9934  -25.2451  -14.9567 N   0  0  0  0  0  0  0  0  0  0  0  0
   23.9728  -24.4891  -13.9715 N   0  0  0  0  0  0  0  0  0  0  0  0
   25.2714  -23.8517  -14.1950 C   0  0  0  0  0  0  0  0  0  0  0  0
   25.2414  -22.5489  -13.4366 C   0  0  0  0  0  0  0  0  0  0  0  0
   26.5210  -21.7668  -13.5903 C   0  0  0  0  0  0  0  0  0  0  0  0
   26.3395  -20.4094  -12.9847 C   0  0  2  0  0  0  0  0  0  0  0  0
   26.0299  -20.5427  -11.5779 N   0  0  0  0  0  0  0  0  0  0  0  0
   25.2563  -19.6397  -13.6936 C   0  0  0  0  0  0  0  0  0  0  0  0
   24.2600  -19.2811  -13.0364 O   0  0  0  0  0  0  0  0  0  0  0  0
   21.5993  -25.6579  -14.1047 N   0  0  0  0  0  0  0  0  0  0  0  0
   25.3554  -19.3300  -15.0529 C   0  0  1  0  0  0  0  0  0  0  0  0
   24.3928  -18.5284  -15.7814 C   0  0  0  0  0  0  0  0  0  0  0  0
   25.1439  -17.8678  -16.9143 C   0  0  0  0  0  0  0  0  0  0  0  0
   26.1071  -16.9097  -16.3568 C   0  0  0  0  0  0  0  0  0  0  0  0
   27.3638  -17.1461  -15.8403 N   0  0  0  0  0  0  0  0  0  0  0  0
   27.9102  -15.9964  -15.4358 C   0  0  0  0  0  0  0  0  0  0  0  0
   27.0392  -14.9985  -15.6738 C   0  0  0  0  0  0  0  0  0  0  0  0
   27.0533  -13.6408  -15.4736 C   0  0  0  0  0  0  0  0  0  0  0  0
   25.9867  -12.8307  -15.8257 C   0  0  0  0  0  0  0  0  0  0  0  0
   24.8592  -13.3733  -16.3978 C   0  0  0  0  0  0  0  0  0  0  0  0
   24.8275  -14.7320  -16.6058 C   0  0  0  0  0  0  0  0  0  0  0  0
   25.9011  -15.5548  -16.2525 C   0  0  0  0  0  0  0  0  0  0  0  0
   23.2529  -19.3657  -16.2762 O   0  0  0  0  0  0  0  0  0  0  0  0
   23.4347  -20.5441  -16.6566 N   0  0  0  0  0  0  0  0  0  0  0  0
   21.9349  -18.8864  -16.3420 C   0  0  1  0  0  0  0  0  0  0  0  0
   20.7402  -19.3064  -15.7762 C   0  0  0  0  0  0  0  0  0  0  0  0
   20.6010  -19.7174  -14.3580 C   0  0  0  0  0  0  0  0  0  0  0  0
   19.2324  -20.1621  -13.9393 C   0  0  0  0  0  0  0  0  0  0  0  0
   19.3305  -21.5632  -13.3827 O   0  0  0  0  0  0  0  0  0  0  0  0
   20.4644  -22.0621  -13.1759 C   0  0  0  0  0  0  0  0  0  0  0  0
   19.6097  -18.4831  -16.1896 O   0  0  0  0  0  0  0  0  0  0  0  0
   19.7893  -17.3228  -16.6147 O   0  0  0  0  0  0  0  0  0  0  0  0
   18.2192  -22.3107  -13.0946 O   0  0  0  0  0  0  0  0  0  0  0  0
  2  1  1  0
  2  3  2  0
  4  2  1  0
  5  6  1  0
  5  4  1  0
  7  6  1  0
  8  7  1  0
  8  9  1  1
 10  8  1  0
 10 12  1  0
 11 10  2  0
 13 12  1  0
 13 14  1  6
 14 15  1  0
 15 16  2  0
 17 16  1  0
 18 17  1  0
 19 18  2  0
 20 19  1  0
 21 22  1  0
 21 20  2  0
 22 23  2  0
 23 18  1  0
 23 15  1  0
 24 13  1  0
 24 25  2  0
 26 24  1  0
 27 26  1  0
 27 32  1  0
 27 28  1  6
 29 28  1  0
 30 29  1  0
 31 30  2  0
 32 33  2  0
 32 35  1  0
 34 30  1  0
M  END
$$$$
