RWE.pdb
     RDKit          3D

 35 36  0  0  1  0  0  0  0  0999 V2000
   28.0585  -28.1244  -18.2081 N   0  0  0  0  0  0  0  0  0  0  0  0
   28.5553  -27.7120  -16.9371 C   0  0  0  0  0  0  0  0  0  0  0  0
   29.2890  -28.5200  -16.2731 N   0  0  0  0  0  0  0  0  0  0  0  0
   28.2482  -26.4324  -16.4102 N   0  0  0  0  0  0  0  0  0  0  0  0
   27.4516  -25.5281  -17.2410 C   0  0  0  0  0  0  0  0  0  0  0  0
   28.3395  -24.3524  -17.5615 C   0  0  0  0  0  0  0  0  0  0  0  0
   27.8206  -23.0651  -16.9728 C   0  0  0  0  0  0  0  0  0  0  0  0
   26.3296  -23.1455  -16.8606 C   0  0  2  0  0  0  0  0  0  0  0  0
   25.7706  -23.5817  -18.1216 N   0  0  0  0  0  0  0  0  0  0  0  0
   25.7440  -21.8190  -16.4536 C   0  0  0  0  0  0  0  0  0  0  0  0
   26.1849  -21.2692  -15.4258 O   0  0  0  0  0  0  0  0  0  0  0  0
   29.7619  -28.3436  -15.3804 N   0  0  0  0  0  0  0  0  0  0  0  0
   24.7320  -21.2109  -17.2019 C   0  0  1  0  0  0  0  0  0  0  0  0
   24.1332  -19.9313  -16.8799 C   0  0  0  0  0  0  0  0  0  0  0  0
   24.6792  -18.9320  -17.8735 C   0  0  0  0  0  0  0  0  0  0  0  0
   25.7048  -18.1126  -17.2156 C   0  0  0  0  0  0  0  0  0  0  0  0
   27.0168  -18.4299  -16.9326 N   0  0  0  0  0  0  0  0  0  0  0  0
   27.6097  -17.4003  -16.3224 C   0  0  0  0  0  0  0  0  0  0  0  0
   26.7154  -16.4029  -16.1940 C   0  0  0  0  0  0  0  0  0  0  0  0
   26.7544  -15.1381  -15.6626 C   0  0  0  0  0  0  0  0  0  0  0  0
   25.6517  -14.3004  -15.6670 C   0  0  0  0  0  0  0  0  0  0  0  0
   24.4610  -14.7192  -16.2146 C   0  0  0  0  0  0  0  0  0  0  0  0
   24.4036  -15.9836  -16.7516 C   0  0  0  0  0  0  0  0  0  0  0  0
   25.5135  -16.8337  -16.7501 C   0  0  0  0  0  0  0  0  0  0  0  0
   22.6373  -20.0058  -16.9226 O   0  0  0  0  0  0  0  0  0  0  0  0
   22.0445  -20.5371  -17.8884 N   0  0  0  0  0  0  0  0  0  0  0  0
   21.8246  -19.4925  -15.8992 C   0  0  1  0  0  0  0  0  0  0  0  0
   20.4517  -19.4436  -15.7085 C   0  0  0  0  0  0  0  0  0  0  0  0
   19.7802  -19.8547  -14.4515 C   0  0  0  0  0  0  0  0  0  0  0  0
   19.8883  -21.3075  -14.0996 C   0  0  0  0  0  0  0  0  0  0  0  0
   18.9125  -21.6072  -12.9858 O   0  0  0  0  0  0  0  0  0  0  0  0
   18.1657  -20.6904  -12.5626 C   0  0  0  0  0  0  0  0  0  0  0  0
   19.8610  -18.2179  -16.2335 O   0  0  0  0  0  0  0  0  0  0  0  0
   20.5850  -17.2684  -16.5988 O   0  0  0  0  0  0  0  0  0  0  0  0
   18.8147  -22.8508  -12.4198 O   0  0  0  0  0  0  0  0  0  0  0  0
  2  1  1  0
  2  3  2  0
  4  2  1  0
  5  6  1  0
  5  4  1  0
  7  6  1  0
  8  7  1  0
  8  9  1  6
 10  8  1  0
 10 12  1  0
 11 10  2  0
 13 12  1  0
 13 14  1  1
 14 15  1  0
 15 16  2  0
 17 16  1  0
 18 17  1  0
 19 18  2  0
 20 19  1  0
 21 22  1  0
 21 20  2  0
 22 23  2  0
 23 18  1  0
 23 15  1  0
 24 13  1  0
 24 25  2  0
 26 24  1  0
 27 26  1  0
 27 32  1  0
 27 28  1  6
 29 28  1  0
 30 29  1  0
 31 30  2  0
 32 33  2  0
 32 35  1  0
 34 30  1  0
M  END
$$$$
