RWE.pdb
     RDKit          3D

 35 36  0  0  1  0  0  0  0  0999 V2000
   13.1184  -20.8177   -2.7015 N   0  0  0  0  0  0  0  0  0  0  0  0
   12.8441  -22.1053   -2.1544 C   0  0  0  0  0  0  0  0  0  0  0  0
   12.2377  -22.9642   -2.8802 N   0  0  0  0  0  0  0  0  0  0  0  0
   13.2321  -22.4378   -0.8323 N   0  0  0  0  0  0  0  0  0  0  0  0
   13.9151  -21.4099   -0.0451 C   0  0  0  0  0  0  0  0  0  0  0  0
   14.0441  -21.9607    1.3525 C   0  0  0  0  0  0  0  0  0  0  0  0
   14.6320  -20.9574    2.3119 C   0  0  0  0  0  0  0  0  0  0  0  0
   16.1029  -20.8414    2.0566 C   0  0  2  0  0  0  0  0  0  0  0  0
   16.6829  -22.1624    1.9498 N   0  0  0  0  0  0  0  0  0  0  0  0
   16.7818  -20.0525    3.1451 C   0  0  0  0  0  0  0  0  0  0  0  0
   17.2624  -20.6738    4.1127 O   0  0  0  0  0  0  0  0  0  0  0  0
   11.9359  -23.9067   -2.6112 N   0  0  0  0  0  0  0  0  0  0  0  0
   16.8764  -18.6594    3.0821 C   0  0  2  0  0  0  0  0  0  0  0  0
   17.4945  -17.8347    4.1008 C   0  0  0  0  0  0  0  0  0  0  0  0
   17.6563  -16.4550    3.5058 C   0  0  0  0  0  0  0  0  0  0  0  0
   18.3413  -15.5915    4.4761 C   0  0  0  0  0  0  0  0  0  0  0  0
   18.8727  -15.9213    5.7052 N   0  0  0  0  0  0  0  0  0  0  0  0
   19.4077  -14.8369    6.2725 C   0  0  0  0  0  0  0  0  0  0  0  0
   19.2418  -13.7905    5.4425 C   0  0  0  0  0  0  0  0  0  0  0  0
   19.5784  -12.4610    5.4913 C   0  0  0  0  0  0  0  0  0  0  0  0
   19.2761  -11.5839    4.4631 C   0  0  0  0  0  0  0  0  0  0  0  0
   18.6163  -12.0279    3.3403 C   0  0  0  0  0  0  0  0  0  0  0  0
   18.2712  -13.3571    3.2744 C   0  0  0  0  0  0  0  0  0  0  0  0
   18.5737  -14.2471    4.3091 C   0  0  0  0  0  0  0  0  0  0  0  0
   16.6732  -17.8131    5.3539 O   0  0  0  0  0  0  0  0  0  0  0  0
   15.4372  -17.6208    5.3127 N   0  0  0  0  0  0  0  0  0  0  0  0
   17.2316  -18.0039    6.6279 C   0  0  1  0  0  0  0  0  0  0  0  0
   16.7192  -17.9188    7.9139 C   0  0  0  0  0  0  0  0  0  0  0  0
   17.0471  -18.8790    8.9957 C   0  0  0  0  0  0  0  0  0  0  0  0
   16.6666  -20.3056    8.7386 C   0  0  0  0  0  0  0  0  0  0  0  0
   17.7987  -21.1959    9.1950 O   0  0  0  0  0  0  0  0  0  0  0  0
   18.8446  -20.6712    9.6513 C   0  0  0  0  0  0  0  0  0  0  0  0
   16.7133  -16.5512    8.4204 O   0  0  0  0  0  0  0  0  0  0  0  0
   17.2448  -15.6287    7.7680 O   0  0  0  0  0  0  0  0  0  0  0  0
   17.7220  -22.5619    9.1277 O   0  0  0  0  0  0  0  0  0  0  0  0
  2  1  1  0
  2  3  2  0
  4  2  1  0
  5  6  1  0
  5  4  1  0
  7  6  1  0
  8  7  1  0
  8  9  1  1
 10  8  1  0
 10 12  1  0
 11 10  2  0
 13 12  1  0
 13 14  1  6
 14 15  1  0
 15 16  2  0
 17 16  1  0
 18 17  1  0
 19 18  2  0
 20 19  1  0
 21 22  1  0
 21 20  2  0
 22 23  2  0
 23 18  1  0
 23 15  1  0
 24 13  1  0
 24 25  2  0
 26 24  1  0
 27 26  1  0
 27 32  1  0
 27 28  1  1
 29 28  1  0
 30 29  1  0
 31 30  2  0
 32 33  2  0
 32 35  1  0
 34 30  1  0
M  END
$$$$
