RWE.pdb
     RDKit          3D

 35 36  0  0  1  0  0  0  0  0999 V2000
   18.0666  -22.4618   -9.5737 N   0  0  0  0  0  0  0  0  0  0  0  0
   18.2653  -23.8705   -9.4815 C   0  0  0  0  0  0  0  0  0  0  0  0
   17.3066  -24.5990   -9.0546 N   0  0  0  0  0  0  0  0  0  0  0  0
   19.4981  -24.4627   -9.8538 N   0  0  0  0  0  0  0  0  0  0  0  0
   20.1867  -23.9202  -11.0260 C   0  0  0  0  0  0  0  0  0  0  0  0
   20.0634  -22.4202  -10.9349 C   0  0  0  0  0  0  0  0  0  0  0  0
   21.3590  -21.7183  -11.2535 C   0  0  0  0  0  0  0  0  0  0  0  0
   21.9267  -21.1448   -9.9922 C   0  0  2  0  0  0  0  0  0  0  0  0
   21.0119  -20.1640   -9.4499 N   0  0  0  0  0  0  0  0  0  0  0  0
   23.2786  -20.5280  -10.2372 C   0  0  0  0  0  0  0  0  0  0  0  0
   23.3292  -19.4311  -10.8266 O   0  0  0  0  0  0  0  0  0  0  0  0
   17.3240  -25.6075   -8.8689 N   0  0  0  0  0  0  0  0  0  0  0  0
   24.4527  -21.1604   -9.8186 C   0  0  2  0  0  0  0  0  0  0  0  0
   25.7866  -20.6413  -10.0449 C   0  0  0  0  0  0  0  0  0  0  0  0
   26.6809  -21.2667   -8.9994 C   0  0  0  0  0  0  0  0  0  0  0  0
   26.9817  -20.2679   -7.9659 C   0  0  0  0  0  0  0  0  0  0  0  0
   26.8643  -18.8952   -8.0277 N   0  0  0  0  0  0  0  0  0  0  0  0
   27.2449  -18.3558   -6.8666 C   0  0  0  0  0  0  0  0  0  0  0  0
   27.6138  -19.3455   -6.0325 C   0  0  0  0  0  0  0  0  0  0  0  0
   28.0805  -19.3931   -4.7428 C   0  0  0  0  0  0  0  0  0  0  0  0
   28.3890  -20.5867   -4.1120 C   0  0  0  0  0  0  0  0  0  0  0  0
   28.2340  -21.7838   -4.7723 C   0  0  0  0  0  0  0  0  0  0  0  0
   27.7676  -21.7551   -6.0654 C   0  0  0  0  0  0  0  0  0  0  0  0
   27.4545  -20.5533   -6.7073 C   0  0  0  0  0  0  0  0  0  0  0  0
   26.2561  -20.9389  -11.4364 O   0  0  0  0  0  0  0  0  0  0  0  0
   26.1788  -22.0945  -11.9107 N   0  0  0  0  0  0  0  0  0  0  0  0
   26.8017  -19.9558  -12.2773 C   0  0  1  0  0  0  0  0  0  0  0  0
   27.2836  -19.9766  -13.5777 C   0  0  0  0  0  0  0  0  0  0  0  0
   27.8123  -18.7812  -14.2786 C   0  0  0  0  0  0  0  0  0  0  0  0
   28.3154  -19.0113  -15.6714 C   0  0  0  0  0  0  0  0  0  0  0  0
   28.4917  -17.6717  -16.3474 O   0  0  0  0  0  0  0  0  0  0  0  0
   28.3230  -16.6217  -15.6793 C   0  0  0  0  0  0  0  0  0  0  0  0
   28.1181  -21.1429  -13.8427 O   0  0  0  0  0  0  0  0  0  0  0  0
   28.8002  -21.6573  -12.9321 O   0  0  0  0  0  0  0  0  0  0  0  0
   28.8310  -17.5637  -17.6702 O   0  0  0  0  0  0  0  0  0  0  0  0
  2  1  1  0
  2  3  2  0
  4  2  1  0
  5  6  1  0
  5  4  1  0
  7  6  1  0
  8  7  1  0
  8  9  1  6
 10  8  1  0
 10 12  1  0
 11 10  2  0
 13 12  1  0
 13 14  1  1
 14 15  1  0
 15 16  2  0
 17 16  1  0
 18 17  1  0
 19 18  2  0
 20 19  1  0
 21 22  1  0
 21 20  2  0
 22 23  2  0
 23 18  1  0
 23 15  1  0
 24 13  1  0
 24 25  2  0
 26 24  1  0
 27 26  1  0
 27 32  1  0
 27 28  1  1
 29 28  1  0
 30 29  1  0
 31 30  2  0
 32 33  2  0
 32 35  1  0
 34 30  1  0
M  END
$$$$
