RWE.pdb
     RDKit          3D

 35 36  0  0  1  0  0  0  0  0999 V2000
   24.2054  -22.6666  -16.3287 N   0  0  0  0  0  0  0  0  0  0  0  0
   24.7018  -22.1067  -17.5421 C   0  0  0  0  0  0  0  0  0  0  0  0
   23.8657  -21.6719  -18.4047 N   0  0  0  0  0  0  0  0  0  0  0  0
   26.0938  -22.0283  -17.7976 N   0  0  0  0  0  0  0  0  0  0  0  0
   26.9970  -22.0141  -16.6458 C   0  0  0  0  0  0  0  0  0  0  0  0
   27.4440  -20.5844  -16.4738 C   0  0  0  0  0  0  0  0  0  0  0  0
   27.2526  -20.0900  -15.0626 C   0  0  0  0  0  0  0  0  0  0  0  0
   28.0799  -20.9261  -14.1358 C   0  0  2  0  0  0  0  0  0  0  0  0
   28.5007  -22.1322  -14.8150 N   0  0  0  0  0  0  0  0  0  0  0  0
   27.3160  -21.2643  -12.8827 C   0  0  0  0  0  0  0  0  0  0  0  0
   26.2929  -21.9683  -12.9867 O   0  0  0  0  0  0  0  0  0  0  0  0
   24.0645  -21.3409  -19.3548 N   0  0  0  0  0  0  0  0  0  0  0  0
   27.7347  -20.8062  -11.6303 C   0  0  2  0  0  0  0  0  0  0  0  0
   27.0445  -21.0813  -10.3862 C   0  0  0  0  0  0  0  0  0  0  0  0
   28.0535  -20.8932   -9.2770 C   0  0  0  0  0  0  0  0  0  0  0  0
   27.3435  -20.7810   -7.9966 C   0  0  0  0  0  0  0  0  0  0  0  0
   26.0972  -21.2609   -7.6523 N   0  0  0  0  0  0  0  0  0  0  0  0
   25.8232  -20.9401   -6.3850 C   0  0  0  0  0  0  0  0  0  0  0  0
   26.8653  -20.2550   -5.8793 C   0  0  0  0  0  0  0  0  0  0  0  0
   27.1429  -19.6861   -4.6616 C   0  0  0  0  0  0  0  0  0  0  0  0
   28.3319  -19.0222   -4.4099 C   0  0  0  0  0  0  0  0  0  0  0  0
   29.2889  -18.9108   -5.3922 C   0  0  0  0  0  0  0  0  0  0  0  0
   29.0276  -19.4748   -6.6186 C   0  0  0  0  0  0  0  0  0  0  0  0
   27.8293  -20.1462   -6.8785 C   0  0  0  0  0  0  0  0  0  0  0  0
   25.8523  -20.1893  -10.2181 O   0  0  0  0  0  0  0  0  0  0  0  0
   25.9780  -18.9449  -10.1735 N   0  0  0  0  0  0  0  0  0  0  0  0
   24.5448  -20.6877  -10.1023 C   0  0  1  0  0  0  0  0  0  0  0  0
   23.3004  -20.1854  -10.4528 C   0  0  0  0  0  0  0  0  0  0  0  0
   22.9830  -19.6347  -11.7929 C   0  0  0  0  0  0  0  0  0  0  0  0
   23.0741  -20.6022  -12.9337 C   0  0  0  0  0  0  0  0  0  0  0  0
   22.1042  -20.1717  -14.0091 O   0  0  0  0  0  0  0  0  0  0  0  0
   21.3697  -19.1730  -13.8073 C   0  0  0  0  0  0  0  0  0  0  0  0
   22.2072  -21.0172   -9.9631 O   0  0  0  0  0  0  0  0  0  0  0  0
   22.4272  -22.1687   -9.5331 O   0  0  0  0  0  0  0  0  0  0  0  0
   21.9988  -20.8368  -15.2020 O   0  0  0  0  0  0  0  0  0  0  0  0
  2  1  1  0
  2  3  2  0
  4  2  1  0
  5  6  1  0
  5  4  1  0
  7  6  1  0
  8  7  1  0
  8  9  1  6
 10  8  1  0
 10 12  1  0
 11 10  2  0
 13 12  1  0
 13 14  1  6
 14 15  1  0
 15 16  2  0
 17 16  1  0
 18 17  1  0
 19 18  2  0
 20 19  1  0
 21 22  1  0
 21 20  2  0
 22 23  2  0
 23 18  1  0
 23 15  1  0
 24 13  1  0
 24 25  2  0
 26 24  1  0
 27 26  1  0
 27 32  1  0
 27 28  1  1
 29 28  1  0
 30 29  1  0
 31 30  2  0
 32 33  2  0
 32 35  1  0
 34 30  1  0
M  END
$$$$
