RWE.pdb
     RDKit          3D

 35 36  0  0  1  0  0  0  0  0999 V2000
   30.4896  -25.3294  -16.8516 N   0  0  0  0  0  0  0  0  0  0  0  0
   31.2637  -24.1405  -16.9907 C   0  0  0  0  0  0  0  0  0  0  0  0
   32.2028  -24.1171  -17.8566 N   0  0  0  0  0  0  0  0  0  0  0  0
   31.0056  -22.9999  -16.1897 N   0  0  0  0  0  0  0  0  0  0  0  0
   29.8436  -23.0420  -15.3006 C   0  0  0  0  0  0  0  0  0  0  0  0
   28.6712  -22.5478  -16.1097 C   0  0  0  0  0  0  0  0  0  0  0  0
   27.3943  -22.5173  -15.3088 C   0  0  0  0  0  0  0  0  0  0  0  0
   27.3201  -21.2243  -14.5572 C   0  0  2  0  0  0  0  0  0  0  0  0
   28.6536  -20.6973  -14.3646 N   0  0  0  0  0  0  0  0  0  0  0  0
   26.6272  -21.4060  -13.2324 C   0  0  0  0  0  0  0  0  0  0  0  0
   25.5054  -21.9488  -13.2223 O   0  0  0  0  0  0  0  0  0  0  0  0
   32.8383  -23.3403  -18.0672 N   0  0  0  0  0  0  0  0  0  0  0  0
   27.2178  -20.9810  -12.0390 C   0  0  1  0  0  0  0  0  0  0  0  0
   26.6028  -21.1048  -10.7327 C   0  0  0  0  0  0  0  0  0  0  0  0
   27.6974  -20.8893   -9.7133 C   0  0  0  0  0  0  0  0  0  0  0  0
   27.0949  -20.7774   -8.3788 C   0  0  0  0  0  0  0  0  0  0  0  0
   25.8376  -21.1606   -7.9613 N   0  0  0  0  0  0  0  0  0  0  0  0
   25.6864  -20.8795   -6.6644 C   0  0  0  0  0  0  0  0  0  0  0  0
   26.8212  -20.3159   -6.2109 C   0  0  0  0  0  0  0  0  0  0  0  0
   27.2373  -19.8348   -4.9948 C   0  0  0  0  0  0  0  0  0  0  0  0
   28.4977  -19.2928   -4.8064 C   0  0  0  0  0  0  0  0  0  0  0  0
   29.3876  -19.2189   -5.8531 C   0  0  0  0  0  0  0  0  0  0  0  0
   28.9876  -19.6962   -7.0789 C   0  0  0  0  0  0  0  0  0  0  0  0
   27.7166  -20.2444   -7.2751 C   0  0  0  0  0  0  0  0  0  0  0  0
   25.4800  -20.1266  -10.5665 O   0  0  0  0  0  0  0  0  0  0  0  0
   25.6995  -18.8960  -10.5041 N   0  0  0  0  0  0  0  0  0  0  0  0
   24.1371  -20.5252  -10.4720 C   0  0  1  0  0  0  0  0  0  0  0  0
   22.9982  -20.2125  -11.1994 C   0  0  0  0  0  0  0  0  0  0  0  0
   22.9440  -20.2077  -12.6816 C   0  0  0  0  0  0  0  0  0  0  0  0
   21.6608  -19.7232  -13.2855 C   0  0  0  0  0  0  0  0  0  0  0  0
   21.7924  -19.7600  -14.7901 O   0  0  0  0  0  0  0  0  0  0  0  0
   22.8691  -20.1563  -15.3012 C   0  0  0  0  0  0  0  0  0  0  0  0
   21.7968  -20.8209  -10.6397 O   0  0  0  0  0  0  0  0  0  0  0  0
   21.8029  -22.0113  -10.2627 O   0  0  0  0  0  0  0  0  0  0  0  0
   20.7723  -19.3743  -15.6190 O   0  0  0  0  0  0  0  0  0  0  0  0
  2  1  1  0
  2  3  2  0
  4  2  1  0
  5  6  1  0
  5  4  1  0
  7  6  1  0
  8  7  1  0
  8  9  1  1
 10  8  1  0
 10 12  1  0
 11 10  2  0
 13 12  1  0
 13 14  1  1
 14 15  1  0
 15 16  2  0
 17 16  1  0
 18 17  1  0
 19 18  2  0
 20 19  1  0
 21 22  1  0
 21 20  2  0
 22 23  2  0
 23 18  1  0
 23 15  1  0
 24 13  1  0
 24 25  2  0
 26 24  1  0
 27 26  1  0
 27 32  1  0
 27 28  1  1
 29 28  1  0
 30 29  1  0
 31 30  2  0
 32 33  2  0
 32 35  1  0
 34 30  1  0
M  END
$$$$
