RWE.pdb
     RDKit          3D

 35 36  0  0  1  0  0  0  0  0999 V2000
   30.1457  -21.0145  -17.7239 N   0  0  0  0  0  0  0  0  0  0  0  0
   30.1838  -19.6339  -18.0772 C   0  0  0  0  0  0  0  0  0  0  0  0
   30.9042  -19.2737  -19.0689 N   0  0  0  0  0  0  0  0  0  0  0  0
   29.4408  -18.6704  -17.3500 N   0  0  0  0  0  0  0  0  0  0  0  0
   28.6196  -19.1447  -16.2350 C   0  0  0  0  0  0  0  0  0  0  0  0
   27.4177  -19.8175  -16.8485 C   0  0  0  0  0  0  0  0  0  0  0  0
   26.4823  -20.3792  -15.8083 C   0  0  0  0  0  0  0  0  0  0  0  0
   27.2866  -21.0632  -14.7465 C   0  0  2  0  0  0  0  0  0  0  0  0
   27.9377  -22.2280  -15.3053 N   0  0  0  0  0  0  0  0  0  0  0  0
   26.4216  -21.4516  -13.5764 C   0  0  0  0  0  0  0  0  0  0  0  0
   25.7474  -22.4963  -13.6615 O   0  0  0  0  0  0  0  0  0  0  0  0
   31.0565  -18.3208  -19.4161 N   0  0  0  0  0  0  0  0  0  0  0  0
   26.3688  -20.6683  -12.4200 C   0  0  2  0  0  0  0  0  0  0  0  0
   25.3336  -20.7685  -11.4110 C   0  0  0  0  0  0  0  0  0  0  0  0
   25.8130  -19.9793  -10.2146 C   0  0  0  0  0  0  0  0  0  0  0  0
   27.0459  -20.5891   -9.7005 C   0  0  0  0  0  0  0  0  0  0  0  0
   27.9401  -21.4143  -10.3497 N   0  0  0  0  0  0  0  0  0  0  0  0
   28.9306  -21.7505   -9.5191 C   0  0  0  0  0  0  0  0  0  0  0  0
   28.7116  -21.1636   -8.3280 C   0  0  0  0  0  0  0  0  0  0  0  0
   29.3752  -21.1474   -7.1269 C   0  0  0  0  0  0  0  0  0  0  0  0
   28.9093  -20.4348   -6.0346 C   0  0  0  0  0  0  0  0  0  0  0  0
   27.7445  -19.7078   -6.1228 C   0  0  0  0  0  0  0  0  0  0  0  0
   27.0662  -19.7127   -7.3187 C   0  0  0  0  0  0  0  0  0  0  0  0
   27.5317  -20.4301   -8.4246 C   0  0  0  0  0  0  0  0  0  0  0  0
   24.0210  -20.2632  -11.9278 O   0  0  0  0  0  0  0  0  0  0  0  0
   23.9123  -19.1064  -12.3930 N   0  0  0  0  0  0  0  0  0  0  0  0
   22.8541  -21.0439  -11.9211 C   0  0  1  0  0  0  0  0  0  0  0  0
   21.5834  -20.8603  -12.4457 C   0  0  0  0  0  0  0  0  0  0  0  0
   20.9870  -21.7362  -13.4835 C   0  0  0  0  0  0  0  0  0  0  0  0
   20.4963  -23.0699  -13.0076 C   0  0  0  0  0  0  0  0  0  0  0  0
   20.9032  -24.1202  -14.0145 O   0  0  0  0  0  0  0  0  0  0  0  0
   21.6233  -23.7884  -14.9886 C   0  0  0  0  0  0  0  0  0  0  0  0
   20.6007  -20.5310  -11.4197 O   0  0  0  0  0  0  0  0  0  0  0  0
   20.8773  -20.6601  -10.2089 O   0  0  0  0  0  0  0  0  0  0  0  0
   20.5116  -25.4279  -13.9000 O   0  0  0  0  0  0  0  0  0  0  0  0
  2  1  1  0
  2  3  2  0
  4  2  1  0
  5  6  1  0
  5  4  1  0
  7  6  1  0
  8  7  1  0
  8  9  1  6
 10  8  1  0
 10 12  1  0
 11 10  2  0
 13 12  1  0
 13 14  1  6
 14 15  1  0
 15 16  2  0
 17 16  1  0
 18 17  1  0
 19 18  2  0
 20 19  1  0
 21 22  1  0
 21 20  2  0
 22 23  2  0
 23 18  1  0
 23 15  1  0
 24 13  1  0
 24 25  2  0
 26 24  1  0
 27 26  1  0
 27 32  1  0
 27 28  1  6
 29 28  1  0
 30 29  1  0
 31 30  2  0
 32 33  2  0
 32 35  1  0
 34 30  1  0
M  END
$$$$
