QIH.pdb
     RDKit          3D

 28 28  0  0  1  0  0  0  0  0999 V2000
   11.9892  -21.0025   18.1706 N   0  0  0  0  0  0  0  0  0  0  0  0
   11.7006  -20.5134   16.8737 C   0  0  0  0  0  0  0  0  0  0  0  0
   12.1197  -21.1308   15.8801 O   0  0  0  0  0  0  0  0  0  0  0  0
   10.9098  -19.2862   16.7224 C   0  0  0  0  0  0  0  0  0  0  0  0
   11.1604  -18.3475   17.8492 C   0  0  0  0  0  0  0  0  0  0  0  0
   11.2113  -16.9019   17.5002 C   0  0  2  0  0  0  0  0  0  0  0  0
   12.4869  -16.5028   16.9305 N   0  0  0  0  0  0  0  0  0  0  0  0
   10.9159  -16.1322   18.7353 C   0  0  0  0  0  0  0  0  0  0  0  0
   11.8616  -15.9393   19.5370 O   0  0  0  0  0  0  0  0  0  0  0  0
    7.2950  -11.9305   19.3007 C   0  0  0  0  0  0  0  0  0  0  0  0
    8.5560  -12.7766   19.3339 C   0  0  0  0  0  0  0  0  0  0  0  0
    8.3002  -13.9264   20.2570 C   0  0  2  0  0  0  0  0  0  0  0  0
    8.1105  -13.3849   21.6554 C   0  0  0  0  0  0  0  0  0  0  0  0
    9.4294  -14.9200   20.3071 C   0  0  2  0  0  0  0  0  0  0  0  0
    9.6442  -15.6021   19.0705 N   0  0  0  0  0  0  0  0  0  0  0  0
    9.2419  -15.8917   21.4443 C   0  0  0  0  0  0  0  0  0  0  0  0
    8.2989  -16.7236   21.4245 O   0  0  0  0  0  0  0  0  0  0  0  0
   10.1183  -15.8909   22.5559 N   0  0  0  0  0  0  0  0  0  0  0  0
    9.9884  -16.8415   23.6422 C   0  0  1  0  0  0  0  0  0  0  0  0
   11.3023  -17.2086   24.2407 C   0  0  0  0  0  0  0  0  0  0  0  0
   12.1129  -18.0038   23.2997 C   0  0  0  0  0  0  0  0  0  0  0  0
   11.7673  -18.7533   22.2208 C   0  0  0  0  0  0  0  0  0  0  0  0
   12.8481  -19.3280   21.6609 N   0  0  0  0  0  0  0  0  0  0  0  0
   13.8969  -18.9376   22.3960 C   0  0  0  0  0  0  0  0  0  0  0  0
   13.4670  -18.1296   23.3999 N   0  0  0  0  0  0  0  0  0  0  0  0
    9.0863  -16.2291   24.6417 C   0  0  0  0  0  0  0  0  0  0  0  0
    8.6484  -14.8929   24.5261 O   0  0  0  0  0  0  0  0  0  0  0  0
    8.6411  -16.8288   25.6568 O   0  0  0  0  0  0  0  0  0  0  0  0
  1  2  1  0
  2  3  2  0
  4  5  1  0
  4  2  1  0
  6  5  1  0
  6  7  1  1
  8  6  1  0
  9  8  2  0
 10 11  1  0
 11 12  1  0
 12 13  1  1
 12 14  1  0
 14 15  1  6
 15  8  1  0
 16 14  1  0
 16 18  1  0
 17 16  2  0
 18 19  1  0
 19 26  1  0
 19 20  1  1
 20 21  1  0
 21 25  1  0
 21 22  2  0
 22 23  1  0
 24 23  1  0
 25 24  2  0
 26 28  2  0
 26 27  1  0
M  END
$$$$
