QIH.pdb
     RDKit          3D

 28 28  0  0  1  0  0  0  0  0999 V2000
    6.5315  -20.0786   23.6751 N   0  0  0  0  0  0  0  0  0  0  0  0
    6.2015  -19.9954   22.3009 C   0  0  0  0  0  0  0  0  0  0  0  0
    5.6988  -20.9791   21.7321 O   0  0  0  0  0  0  0  0  0  0  0  0
    6.4565  -18.7485   21.5695 C   0  0  0  0  0  0  0  0  0  0  0  0
    7.0382  -17.7134   22.4660 C   0  0  0  0  0  0  0  0  0  0  0  0
    7.2714  -16.3751   21.8586 C   0  0  2  0  0  0  0  0  0  0  0  0
    8.0909  -16.4334   20.6603 N   0  0  0  0  0  0  0  0  0  0  0  0
    7.9022  -15.5172   22.8936 C   0  0  0  0  0  0  0  0  0  0  0  0
    9.1558  -15.4977   22.9437 O   0  0  0  0  0  0  0  0  0  0  0  0
    6.8862  -10.9056   26.8035 C   0  0  0  0  0  0  0  0  0  0  0  0
    7.9088  -11.7930   26.1153 C   0  0  0  0  0  0  0  0  0  0  0  0
    7.1733  -12.6389   25.1238 C   0  0  2  0  0  0  0  0  0  0  0  0
    5.8210  -12.9879   25.7018 C   0  0  0  0  0  0  0  0  0  0  0  0
    7.8729  -13.9314   24.7999 C   0  0  2  0  0  0  0  0  0  0  0  0
    7.1892  -14.7215   23.8259 N   0  0  0  0  0  0  0  0  0  0  0  0
    8.1493  -14.7231   26.0527 C   0  0  0  0  0  0  0  0  0  0  0  0
    7.3047  -14.7602   26.9839 O   0  0  0  0  0  0  0  0  0  0  0  0
    9.3597  -15.4398   26.2101 N   0  0  0  0  0  0  0  0  0  0  0  0
    9.4351  -16.6698   26.9730 C   0  0  1  0  0  0  0  0  0  0  0  0
    8.5569  -17.7393   26.4214 C   0  0  0  0  0  0  0  0  0  0  0  0
    8.6374  -18.9671   27.2343 C   0  0  0  0  0  0  0  0  0  0  0  0
    9.3092  -19.2478   28.3811 C   0  0  0  0  0  0  0  0  0  0  0  0
    9.1059  -20.5218   28.7650 N   0  0  0  0  0  0  0  0  0  0  0  0
    8.2924  -21.0591   27.8473 C   0  0  0  0  0  0  0  0  0  0  0  0
    7.9965  -20.1251   26.9061 N   0  0  0  0  0  0  0  0  0  0  0  0
   10.8556  -17.0819   26.9820 C   0  0  0  0  0  0  0  0  0  0  0  0
   11.6696  -16.9648   25.8355 O   0  0  0  0  0  0  0  0  0  0  0  0
   11.4488  -17.5606   27.9855 O   0  0  0  0  0  0  0  0  0  0  0  0
  1  2  1  0
  2  3  2  0
  4  5  1  0
  4  2  1  0
  6  5  1  0
  6  7  1  6
  8  6  1  0
  9  8  2  0
 10 11  1  0
 11 12  1  0
 12 13  1  1
 12 14  1  0
 14 15  1  6
 15  8  1  0
 16 14  1  0
 16 18  1  0
 17 16  2  0
 18 19  1  0
 19 26  1  0
 19 20  1  6
 20 21  1  0
 21 25  1  0
 21 22  2  0
 22 23  1  0
 24 23  1  0
 25 24  2  0
 26 28  2  0
 26 27  1  0
M  END
$$$$
