QIH.pdb
     RDKit          3D

 28 28  0  0  1  0  0  0  0  0999 V2000
    8.6061  -20.9881   15.5626 N   0  0  0  0  0  0  0  0  0  0  0  0
    9.3897  -19.9055   15.0955 C   0  0  0  0  0  0  0  0  0  0  0  0
   10.5548  -20.1127   14.7164 O   0  0  0  0  0  0  0  0  0  0  0  0
    8.8139  -18.5557   15.0645 C   0  0  0  0  0  0  0  0  0  0  0  0
    9.3353  -17.7272   16.1849 C   0  0  0  0  0  0  0  0  0  0  0  0
    8.8428  -18.0776   17.5446 C   0  0  2  0  0  0  0  0  0  0  0  0
    7.4002  -18.2422   17.5981 N   0  0  0  0  0  0  0  0  0  0  0  0
    9.2913  -17.0087   18.4727 C   0  0  0  0  0  0  0  0  0  0  0  0
   10.5119  -16.7183   18.4743 O   0  0  0  0  0  0  0  0  0  0  0  0
    6.6987  -12.3959   20.1644 C   0  0  0  0  0  0  0  0  0  0  0  0
    7.7564  -13.3635   19.6624 C   0  0  0  0  0  0  0  0  0  0  0  0
    8.0403  -14.3306   20.7685 C   0  0  2  0  0  0  0  0  0  0  0  0
    8.6933  -13.5792   21.9060 C   0  0  0  0  0  0  0  0  0  0  0  0
    8.9713  -15.4438   20.3697 C   0  0  2  0  0  0  0  0  0  0  0  0
    8.4393  -16.2959   19.3541 N   0  0  0  0  0  0  0  0  0  0  0  0
    9.4119  -16.2353   21.5747 C   0  0  0  0  0  0  0  0  0  0  0  0
    8.6287  -17.0520   22.1235 O   0  0  0  0  0  0  0  0  0  0  0  0
   10.7111  -16.0789   22.1143 N   0  0  0  0  0  0  0  0  0  0  0  0
   11.1657  -16.8351   23.2643 C   0  0  1  0  0  0  0  0  0  0  0  0
   12.6425  -17.0312   23.2719 C   0  0  0  0  0  0  0  0  0  0  0  0
   13.0633  -17.9522   22.1997 C   0  0  0  0  0  0  0  0  0  0  0  0
   12.3871  -18.9134   21.5184 C   0  0  0  0  0  0  0  0  0  0  0  0
   13.1847  -19.5307   20.6271 N   0  0  0  0  0  0  0  0  0  0  0  0
   14.3868  -18.9528   20.7442 C   0  0  0  0  0  0  0  0  0  0  0  0
   14.3311  -17.9879   21.6989 N   0  0  0  0  0  0  0  0  0  0  0  0
   10.7067  -16.1049   24.4658 C   0  0  0  0  0  0  0  0  0  0  0  0
   10.8157  -16.6599   25.7584 O   0  0  0  0  0  0  0  0  0  0  0  0
   10.1921  -14.9548   24.4432 O   0  0  0  0  0  0  0  0  0  0  0  0
  1  2  1  0
  2  3  2  0
  4  5  1  0
  4  2  1  0
  6  5  1  0
  6  7  1  6
  8  6  1  0
  9  8  2  0
 10 11  1  0
 11 12  1  0
 12 13  1  1
 12 14  1  0
 14 15  1  6
 15  8  1  0
 16 14  1  0
 16 18  1  0
 17 16  2  0
 18 19  1  0
 19 26  1  0
 19 20  1  1
 20 21  1  0
 21 25  1  0
 21 22  2  0
 22 23  1  0
 24 23  1  0
 25 24  2  0
 26 28  2  0
 26 27  1  0
M  END
$$$$
