QIH.pdb
     RDKit          3D

 28 28  0  0  1  0  0  0  0  0999 V2000
    6.3165  -21.5701   21.6494 N   0  0  0  0  0  0  0  0  0  0  0  0
    6.3986  -21.7612   20.2490 C   0  0  0  0  0  0  0  0  0  0  0  0
    5.9957  -22.8267   19.7527 O   0  0  0  0  0  0  0  0  0  0  0  0
    6.9565  -20.6979   19.4049 C   0  0  0  0  0  0  0  0  0  0  0  0
    7.2857  -19.4927   20.2127 C   0  0  0  0  0  0  0  0  0  0  0  0
    7.8354  -18.3305   19.4634 C   0  0  2  0  0  0  0  0  0  0  0  0
    8.9677  -18.6836   18.6243 N   0  0  0  0  0  0  0  0  0  0  0  0
    8.2126  -17.2942   20.4579 C   0  0  0  0  0  0  0  0  0  0  0  0
    9.3847  -17.3206   20.9049 O   0  0  0  0  0  0  0  0  0  0  0  0
    7.3272  -12.0434   20.0195 C   0  0  0  0  0  0  0  0  0  0  0  0
    7.9755  -13.3857   20.3106 C   0  0  0  0  0  0  0  0  0  0  0  0
    7.3701  -13.9114   21.5743 C   0  0  2  0  0  0  0  0  0  0  0  0
    7.8164  -13.0331   22.7207 C   0  0  0  0  0  0  0  0  0  0  0  0
    7.7843  -15.3215   21.8982 C   0  0  2  0  0  0  0  0  0  0  0  0
    7.3437  -16.2807   20.9358 N   0  0  0  0  0  0  0  0  0  0  0  0
    7.3522  -15.7033   23.2911 C   0  0  0  0  0  0  0  0  0  0  0  0
    6.1320  -15.8276   23.5696 O   0  0  0  0  0  0  0  0  0  0  0  0
    8.3046  -15.9300   24.3134 N   0  0  0  0  0  0  0  0  0  0  0  0
    8.0867  -16.8968   25.3711 C   0  0  1  0  0  0  0  0  0  0  0  0
    7.6929  -18.2355   24.8496 C   0  0  0  0  0  0  0  0  0  0  0  0
    7.4116  -19.1749   25.9511 C   0  0  0  0  0  0  0  0  0  0  0  0
    7.4879  -19.0331   27.2999 C   0  0  0  0  0  0  0  0  0  0  0  0
    7.1517  -20.1744   27.9293 N   0  0  0  0  0  0  0  0  0  0  0  0
    6.8575  -21.0555   26.9649 C   0  0  0  0  0  0  0  0  0  0  0  0
    7.0108  -20.4629   25.7520 N   0  0  0  0  0  0  0  0  0  0  0  0
    9.3394  -16.9640   26.1546 C   0  0  0  0  0  0  0  0  0  0  0  0
    9.3428  -17.3216   27.5195 O   0  0  0  0  0  0  0  0  0  0  0  0
   10.4827  -16.7151   25.6867 O   0  0  0  0  0  0  0  0  0  0  0  0
  1  2  1  0
  2  3  2  0
  4  5  1  0
  4  2  1  0
  6  5  1  0
  6  7  1  1
  8  6  1  0
  9  8  2  0
 10 11  1  0
 11 12  1  0
 12 13  1  1
 12 14  1  0
 14 15  1  6
 15  8  1  0
 16 14  1  0
 16 18  1  0
 17 16  2  0
 18 19  1  0
 19 26  1  0
 19 20  1  6
 20 21  1  0
 21 25  1  0
 21 22  2  0
 22 23  1  0
 24 23  1  0
 25 24  2  0
 26 28  2  0
 26 27  1  0
M  END
$$$$
