QIH.pdb
     RDKit          3D

 28 28  0  0  1  0  0  0  0  0999 V2000
   11.1985  -18.4939   14.1528 N   0  0  0  0  0  0  0  0  0  0  0  0
    9.8495  -18.9081   14.0384 C   0  0  0  0  0  0  0  0  0  0  0  0
    9.4674  -19.4655   12.9957 O   0  0  0  0  0  0  0  0  0  0  0  0
    8.9236  -18.6745   15.1531 C   0  0  0  0  0  0  0  0  0  0  0  0
    9.6057  -17.9765   16.2761 C   0  0  0  0  0  0  0  0  0  0  0  0
    9.1819  -18.3696   17.6473 C   0  0  2  0  0  0  0  0  0  0  0  0
    7.7718  -18.7107   17.7269 N   0  0  0  0  0  0  0  0  0  0  0  0
    9.5091  -17.2428   18.5575 C   0  0  0  0  0  0  0  0  0  0  0  0
   10.6999  -16.8484   18.5854 O   0  0  0  0  0  0  0  0  0  0  0  0
    7.3891  -12.2619   21.3235 C   0  0  0  0  0  0  0  0  0  0  0  0
    8.5083  -13.2850   21.2359 C   0  0  0  0  0  0  0  0  0  0  0  0
    7.9825  -14.4604   20.4734 C   0  0  2  0  0  0  0  0  0  0  0  0
    6.7974  -15.0259   21.2221 C   0  0  0  0  0  0  0  0  0  0  0  0
    8.9860  -15.5704   20.3123 C   0  0  2  0  0  0  0  0  0  0  0  0
    8.5729  -16.5839   19.3943 N   0  0  0  0  0  0  0  0  0  0  0  0
    9.3571  -16.1593   21.6494 C   0  0  0  0  0  0  0  0  0  0  0  0
    8.6683  -17.0829   22.1536 O   0  0  0  0  0  0  0  0  0  0  0  0
   10.4839  -15.6892   22.3656 N   0  0  0  0  0  0  0  0  0  0  0  0
   10.8931  -16.2699   23.6290 C   0  0  1  0  0  0  0  0  0  0  0  0
   12.2795  -15.8833   24.0134 C   0  0  0  0  0  0  0  0  0  0  0  0
   13.2768  -16.5659   23.1682 C   0  0  0  0  0  0  0  0  0  0  0  0
   13.1825  -17.6545   22.3612 C   0  0  0  0  0  0  0  0  0  0  0  0
   14.3665  -17.9396   21.7879 N   0  0  0  0  0  0  0  0  0  0  0  0
   15.2268  -17.0176   22.2382 C   0  0  0  0  0  0  0  0  0  0  0  0
   14.5793  -16.1716   23.0812 N   0  0  0  0  0  0  0  0  0  0  0  0
    9.9056  -15.8344   24.6404 C   0  0  0  0  0  0  0  0  0  0  0  0
    9.8278  -16.4419   25.9115 O   0  0  0  0  0  0  0  0  0  0  0  0
    9.0696  -14.9084   24.4625 O   0  0  0  0  0  0  0  0  0  0  0  0
  1  2  1  0
  2  3  2  0
  4  5  1  0
  4  2  1  0
  6  5  1  0
  6  7  1  6
  8  6  1  0
  9  8  2  0
 10 11  1  0
 11 12  1  0
 12 13  1  1
 12 14  1  0
 14 15  1  6
 15  8  1  0
 16 14  1  0
 16 18  1  0
 17 16  2  0
 18 19  1  0
 19 26  1  0
 19 20  1  1
 20 21  1  0
 21 25  1  0
 21 22  2  0
 22 23  1  0
 24 23  1  0
 25 24  2  0
 26 28  2  0
 26 27  1  0
M  END
$$$$
