ANG.pdb
     RDKit          3D

 18 17  0  0  1  0  0  0  0  0999 V2000
    7.5355  -18.7541   19.1586 C   0  0  0  0  0  0  0  0  0  0  0  0
    7.3743  -19.2515   20.5875 C   0  0  2  0  0  0  0  0  0  0  0  0
    5.9589  -19.2104   20.8928 N   0  0  0  0  0  0  0  0  0  0  0  0
    8.1379  -18.3067   21.4517 C   0  0  0  0  0  0  0  0  0  0  0  0
    9.3991  -18.2043   21.3576 O   0  0  0  0  0  0  0  0  0  0  0  0
    6.4731  -14.0894   21.2113 N   0  0  0  0  0  0  0  0  0  0  0  0
    7.5512  -14.5043   22.0186 C   0  0  0  0  0  0  0  0  0  0  0  0
    8.7147  -14.1826   21.6735 O   0  0  0  0  0  0  0  0  0  0  0  0
    7.2665  -15.2977   23.2327 C   0  0  0  0  0  0  0  0  0  0  0  0
    8.0486  -16.6020   23.2777 C   0  0  2  0  0  0  0  0  0  0  0  0
    7.3961  -17.5295   22.3811 N   0  0  0  0  0  0  0  0  0  0  0  0
    7.9083  -17.1159   24.6588 C   0  0  0  0  0  0  0  0  0  0  0  0
    6.7528  -17.2556   25.1313 O   0  0  0  0  0  0  0  0  0  0  0  0
    9.0591  -17.4503   25.4496 N   0  0  0  0  0  0  0  0  0  0  0  0
    8.7983  -17.9951   26.7663 C   0  0  0  0  0  0  0  0  0  0  0  0
   10.0972  -18.2273   27.4379 C   0  0  0  0  0  0  0  0  0  0  0  0
   11.1482  -17.9308   26.8075 O   0  0  0  0  0  0  0  0  0  0  0  0
   10.2380  -18.7443   28.7028 O   0  0  0  0  0  0  0  0  0  0  0  0
  2  1  1  6
  2  3  1  0
  4  5  2  0
  4  2  1  0
  6  7  1  0
  7  8  2  0
  9  7  1  0
 10  9  1  1
 10 11  1  0
 11  4  1  0
 12 10  1  0
 12 14  1  0
 13 12  2  0
 15 14  1  0
 15 16  1  0
 16 17  2  0
 16 18  1  0
M  END
$$$$
