ANG.pdb
     RDKit          3D

 18 17  0  0  1  0  0  0  0  0999 V2000
   -1.3646  -25.5107   27.3098 C   0  0  0  0  0  0  0  0  0  0  0  0
   -1.5337  -26.2213   28.6445 C   0  0  2  0  0  0  0  0  0  0  0  0
   -1.2649  -27.6258   28.4131 N   0  0  0  0  0  0  0  0  0  0  0  0
   -2.9491  -26.0066   29.0603 C   0  0  0  0  0  0  0  0  0  0  0  0
   -3.9129  -26.4197   28.3460 O   0  0  0  0  0  0  0  0  0  0  0  0
   -3.3367  -27.4212   33.4920 N   0  0  0  0  0  0  0  0  0  0  0  0
   -4.3385  -26.9399   32.6253 C   0  0  0  0  0  0  0  0  0  0  0  0
   -5.1480  -27.7632   32.1321 O   0  0  0  0  0  0  0  0  0  0  0  0
   -4.3926  -25.4916   32.3356 C   0  0  0  0  0  0  0  0  0  0  0  0
   -4.4974  -25.1949   30.8470 C   0  0  2  0  0  0  0  0  0  0  0  0
   -3.1714  -25.3227   30.2855 N   0  0  0  0  0  0  0  0  0  0  0  0
   -4.9114  -23.7777   30.7403 C   0  0  0  0  0  0  0  0  0  0  0  0
   -4.0734  -22.8860   31.0240 O   0  0  0  0  0  0  0  0  0  0  0  0
   -6.2376  -23.4185   30.3234 N   0  0  0  0  0  0  0  0  0  0  0  0
   -6.4887  -22.0057   30.1248 C   0  0  0  0  0  0  0  0  0  0  0  0
   -7.9357  -21.8231   29.8698 C   0  0  0  0  0  0  0  0  0  0  0  0
   -8.6362  -22.8547   29.6826 O   0  0  0  0  0  0  0  0  0  0  0  0
   -8.5702  -20.6056   29.8227 O   0  0  0  0  0  0  0  0  0  0  0  0
  2  1  1  6
  2  3  1  0
  4  5  2  0
  4  2  1  0
  6  7  1  0
  7  8  2  0
  9  7  1  0
 10  9  1  1
 10 11  1  0
 11  4  1  0
 12 10  1  0
 12 14  1  0
 13 12  2  0
 15 14  1  0
 15 16  1  0
 16 17  2  0
 16 18  1  0
M  END
$$$$
