ANG.pdb
     RDKit          3D

 18 17  0  0  1  0  0  0  0  0999 V2000
   -1.6223  -26.6244   26.5340 C   0  0  0  0  0  0  0  0  0  0  0  0
   -3.0032  -26.0395   26.2772 C   0  0  2  0  0  0  0  0  0  0  0  0
   -2.8061  -24.7493   25.6487 N   0  0  0  0  0  0  0  0  0  0  0  0
   -3.6542  -25.8937   27.6105 C   0  0  0  0  0  0  0  0  0  0  0  0
   -3.9886  -26.9101   28.2922 O   0  0  0  0  0  0  0  0  0  0  0  0
   -4.7961  -24.8544   32.0479 N   0  0  0  0  0  0  0  0  0  0  0  0
   -3.6519  -24.1071   31.7034 C   0  0  0  0  0  0  0  0  0  0  0  0
   -2.8610  -23.7696   32.6181 O   0  0  0  0  0  0  0  0  0  0  0  0
   -3.4335  -23.7543   30.2848 C   0  0  0  0  0  0  0  0  0  0  0  0
   -4.5015  -24.3293   29.3663 C   0  0  2  0  0  0  0  0  0  0  0  0
   -3.8831  -24.5735   28.0827 N   0  0  0  0  0  0  0  0  0  0  0  0
   -5.5138  -23.2626   29.1978 C   0  0  0  0  0  0  0  0  0  0  0  0
   -5.1395  -22.1450   28.7631 O   0  0  0  0  0  0  0  0  0  0  0  0
   -6.8946  -23.4883   29.5203 N   0  0  0  0  0  0  0  0  0  0  0  0
   -7.8049  -22.3940   29.2516 C   0  0  0  0  0  0  0  0  0  0  0  0
   -9.1508  -22.7817   29.7317 C   0  0  0  0  0  0  0  0  0  0  0  0
  -10.0320  -23.0434   28.8686 O   0  0  0  0  0  0  0  0  0  0  0  0
   -9.5078  -22.8766   31.0549 O   0  0  0  0  0  0  0  0  0  0  0  0
  2  1  1  1
  2  3  1  0
  4  5  2  0
  4  2  1  0
  6  7  1  0
  7  8  2  0
  9  7  1  0
 10  9  1  1
 10 11  1  0
 11  4  1  0
 12 10  1  0
 12 14  1  0
 13 12  2  0
 15 14  1  0
 15 16  1  0
 16 17  2  0
 16 18  1  0
M  END
$$$$
