ANG.pdb
     RDKit          3D

 18 17  0  0  1  0  0  0  0  0999 V2000
    6.8888  -13.0093   18.7999 C   0  0  0  0  0  0  0  0  0  0  0  0
    8.2131  -13.6452   19.1960 C   0  0  2  0  0  0  0  0  0  0  0  0
    9.2199  -12.6062   19.1237 N   0  0  0  0  0  0  0  0  0  0  0  0
    8.4791  -14.7214   18.1991 C   0  0  0  0  0  0  0  0  0  0  0  0
    7.7319  -15.7439   18.1221 O   0  0  0  0  0  0  0  0  0  0  0  0
    8.6255  -16.3402   13.9148 N   0  0  0  0  0  0  0  0  0  0  0  0
    9.1862  -15.0674   14.1425 C   0  0  0  0  0  0  0  0  0  0  0  0
    8.7061  -14.0841   13.5270 O   0  0  0  0  0  0  0  0  0  0  0  0
   10.3115  -14.9457   15.0929 C   0  0  0  0  0  0  0  0  0  0  0  0
   10.0184  -15.5984   16.4357 C   0  0  2  0  0  0  0  0  0  0  0  0
    9.6003  -14.5535   17.3430 N   0  0  0  0  0  0  0  0  0  0  0  0
   11.3084  -16.1416   16.9170 C   0  0  0  0  0  0  0  0  0  0  0  0
   11.8243  -17.1017   16.2926 O   0  0  0  0  0  0  0  0  0  0  0  0
   11.9643  -15.5920   18.0700 N   0  0  0  0  0  0  0  0  0  0  0  0
   13.0578  -16.3678   18.6186 C   0  0  0  0  0  0  0  0  0  0  0  0
   14.2192  -15.4678   18.8015 C   0  0  0  0  0  0  0  0  0  0  0  0
   14.0791  -14.2538   18.4906 O   0  0  0  0  0  0  0  0  0  0  0  0
   15.4416  -15.8635   19.2874 O   0  0  0  0  0  0  0  0  0  0  0  0
  2  1  1  6
  2  3  1  0
  4  5  2  0
  4  2  1  0
  6  7  1  0
  7  8  2  0
  9  7  1  0
 10  9  1  6
 10 11  1  0
 11  4  1  0
 12 10  1  0
 12 14  1  0
 13 12  2  0
 15 14  1  0
 15 16  1  0
 16 17  2  0
 16 18  1  0
M  END
$$$$
