ANG.pdb
     RDKit          3D

 18 17  0  0  1  0  0  0  0  0999 V2000
    9.2906  -17.3464   17.2851 C   0  0  0  0  0  0  0  0  0  0  0  0
    9.7035  -17.5226   18.7389 C   0  0  2  0  0  0  0  0  0  0  0  0
    8.6737  -18.3157   19.3782 N   0  0  0  0  0  0  0  0  0  0  0  0
    9.7707  -16.1543   19.3272 C   0  0  0  0  0  0  0  0  0  0  0  0
   10.6450  -15.3179   18.9453 O   0  0  0  0  0  0  0  0  0  0  0  0
    7.2114  -12.2300   19.2350 N   0  0  0  0  0  0  0  0  0  0  0  0
    6.9852  -13.5682   19.6148 C   0  0  0  0  0  0  0  0  0  0  0  0
    6.4346  -14.3385   18.7904 O   0  0  0  0  0  0  0  0  0  0  0  0
    7.4046  -14.0055   20.9629 C   0  0  0  0  0  0  0  0  0  0  0  0
    8.8280  -14.5424   20.9889 C   0  0  2  0  0  0  0  0  0  0  0  0
    8.8178  -15.8287   20.3292 N   0  0  0  0  0  0  0  0  0  0  0  0
    9.1589  -14.7558   22.4158 C   0  0  0  0  0  0  0  0  0  0  0  0
    9.1579  -13.7633   23.1857 O   0  0  0  0  0  0  0  0  0  0  0  0
    9.4755  -16.0625   22.9196 N   0  0  0  0  0  0  0  0  0  0  0  0
    9.9455  -16.1275   24.2883 C   0  0  0  0  0  0  0  0  0  0  0  0
   11.3619  -16.5588   24.2724 C   0  0  0  0  0  0  0  0  0  0  0  0
   11.9136  -16.7298   23.1516 O   0  0  0  0  0  0  0  0  0  0  0  0
   12.1189  -16.7862   25.3959 O   0  0  0  0  0  0  0  0  0  0  0  0
  2  1  1  6
  2  3  1  0
  4  5  2  0
  4  2  1  0
  6  7  1  0
  7  8  2  0
  9  7  1  0
 10  9  1  1
 10 11  1  0
 11  4  1  0
 12 10  1  0
 12 14  1  0
 13 12  2  0
 15 14  1  0
 15 16  1  0
 16 17  2  0
 16 18  1  0
M  END
$$$$
