ANG.pdb
     RDKit          3D

 18 17  0  0  1  0  0  0  0  0999 V2000
    7.2598  -14.7196   19.5091 C   0  0  0  0  0  0  0  0  0  0  0  0
    7.5832  -15.7810   20.5502 C   0  0  2  0  0  0  0  0  0  0  0  0
    6.3195  -16.2737   21.0589 N   0  0  0  0  0  0  0  0  0  0  0  0
    8.3636  -15.0977   21.6210 C   0  0  0  0  0  0  0  0  0  0  0  0
    9.5236  -14.6362   21.3947 O   0  0  0  0  0  0  0  0  0  0  0  0
    6.2447  -13.2377   26.7814 N   0  0  0  0  0  0  0  0  0  0  0  0
    6.5258  -13.9513   25.5990 C   0  0  0  0  0  0  0  0  0  0  0  0
    6.0426  -15.1024   25.4665 O   0  0  0  0  0  0  0  0  0  0  0  0
    7.3747  -13.3156   24.5695 C   0  0  0  0  0  0  0  0  0  0  0  0
    8.3993  -14.2739   23.9807 C   0  0  2  0  0  0  0  0  0  0  0  0
    7.7553  -14.9859   22.8999 N   0  0  0  0  0  0  0  0  0  0  0  0
    8.7148  -15.2449   25.0525 C   0  0  0  0  0  0  0  0  0  0  0  0
    7.7834  -15.9487   25.5161 O   0  0  0  0  0  0  0  0  0  0  0  0
   10.0509  -15.3878   25.5584 N   0  0  0  0  0  0  0  0  0  0  0  0
   10.2472  -16.3960   26.5800 C   0  0  0  0  0  0  0  0  0  0  0  0
   11.3258  -17.3062   26.1322 C   0  0  0  0  0  0  0  0  0  0  0  0
   11.5535  -17.3867   24.8946 O   0  0  0  0  0  0  0  0  0  0  0  0
   12.0977  -18.0711   26.9725 O   0  0  0  0  0  0  0  0  0  0  0  0
  2  1  1  6
  2  3  1  0
  4  5  2  0
  4  2  1  0
  6  7  1  0
  7  8  2  0
  9  7  1  0
 10  9  1  1
 10 11  1  0
 11  4  1  0
 12 10  1  0
 12 14  1  0
 13 12  2  0
 15 14  1  0
 15 16  1  0
 16 17  2  0
 16 18  1  0
M  END
$$$$
