ANG.pdb
     RDKit          3D

 18 17  0  0  1  0  0  0  0  0999 V2000
    3.2666  -17.5744   11.1441 C   0  0  0  0  0  0  0  0  0  0  0  0
    4.5110  -17.6112   12.0188 C   0  0  2  0  0  0  0  0  0  0  0  0
    5.2718  -18.7789   11.6235 N   0  0  0  0  0  0  0  0  0  0  0  0
    4.0340  -17.7321   13.4261 C   0  0  0  0  0  0  0  0  0  0  0  0
    3.3741  -16.7993   13.9778 O   0  0  0  0  0  0  0  0  0  0  0  0
    1.5399  -19.2071   16.8637 N   0  0  0  0  0  0  0  0  0  0  0  0
    1.9129  -20.4238   16.2580 C   0  0  0  0  0  0  0  0  0  0  0  0
    1.1415  -21.4080   16.3696 O   0  0  0  0  0  0  0  0  0  0  0  0
    3.1919  -20.4881   15.5201 C   0  0  0  0  0  0  0  0  0  0  0  0
    3.9146  -19.1498   15.4813 C   0  0  2  0  0  0  0  0  0  0  0  0
    4.3486  -18.9312   14.1198 N   0  0  0  0  0  0  0  0  0  0  0  0
    5.1162  -19.3088   16.3310 C   0  0  0  0  0  0  0  0  0  0  0  0
    4.9913  -19.1828   17.5746 O   0  0  0  0  0  0  0  0  0  0  0  0
    6.4002  -19.6004   15.7583 N   0  0  0  0  0  0  0  0  0  0  0  0
    7.5177  -19.6532   16.6785 C   0  0  0  0  0  0  0  0  0  0  0  0
    8.0050  -21.0501   16.7368 C   0  0  0  0  0  0  0  0  0  0  0  0
    8.6563  -21.4890   15.7503 O   0  0  0  0  0  0  0  0  0  0  0  0
    7.7970  -21.9037   17.7928 O   0  0  0  0  0  0  0  0  0  0  0  0
  2  1  1  6
  2  3  1  0
  4  5  2  0
  4  2  1  0
  6  7  1  0
  7  8  2  0
  9  7  1  0
 10  9  1  6
 10 11  1  0
 11  4  1  0
 12 10  1  0
 12 14  1  0
 13 12  2  0
 15 14  1  0
 15 16  1  0
 16 17  2  0
 16 18  1  0
M  END
$$$$
