ANG.pdb
     RDKit          3D

 18 17  0  0  1  0  0  0  0  0999 V2000
    8.6951  -12.0386   19.4510 C   0  0  0  0  0  0  0  0  0  0  0  0
    8.4670  -13.3614   18.7347 C   0  0  2  0  0  0  0  0  0  0  0  0
    7.1101  -13.3400   18.2282 N   0  0  0  0  0  0  0  0  0  0  0  0
    8.6415  -14.4311   19.7584 C   0  0  0  0  0  0  0  0  0  0  0  0
    7.8107  -14.5737   20.7067 O   0  0  0  0  0  0  0  0  0  0  0  0
    8.0486  -18.8406   19.7346 N   0  0  0  0  0  0  0  0  0  0  0  0
    8.9890  -18.0507   19.0432 C   0  0  0  0  0  0  0  0  0  0  0  0
    8.7452  -17.7368   17.8523 O   0  0  0  0  0  0  0  0  0  0  0  0
   10.2174  -17.6276   19.7477 C   0  0  0  0  0  0  0  0  0  0  0  0
   10.0193  -16.3565   20.5601 C   0  0  2  0  0  0  0  0  0  0  0  0
    9.7728  -15.2801   19.6271 N   0  0  0  0  0  0  0  0  0  0  0  0
   11.3103  -16.0975   21.2362 C   0  0  0  0  0  0  0  0  0  0  0  0
   11.6641  -16.8646   22.1658 O   0  0  0  0  0  0  0  0  0  0  0  0
   12.1475  -14.9978   20.8470 N   0  0  0  0  0  0  0  0  0  0  0  0
   13.3088  -14.7487   21.6764 C   0  0  0  0  0  0  0  0  0  0  0  0
   14.5185  -15.1000   20.8984 C   0  0  0  0  0  0  0  0  0  0  0  0
   14.7487  -16.3213   20.6857 O   0  0  0  0  0  0  0  0  0  0  0  0
   15.4100  -14.1864   20.3907 O   0  0  0  0  0  0  0  0  0  0  0  0
  2  1  1  1
  2  3  1  0
  4  5  2  0
  4  2  1  0
  6  7  1  0
  7  8  2  0
  9  7  1  0
 10  9  1  6
 10 11  1  0
 11  4  1  0
 12 10  1  0
 12 14  1  0
 13 12  2  0
 15 14  1  0
 15 16  1  0
 16 17  2  0
 16 18  1  0
M  END
$$$$
