ANG.pdb
     RDKit          3D

 18 17  0  0  1  0  0  0  0  0999 V2000
    7.8003  -12.2638   18.8379 C   0  0  0  0  0  0  0  0  0  0  0  0
    9.0833  -12.9023   19.3492 C   0  0  2  0  0  0  0  0  0  0  0  0
    9.4632  -13.9171   18.3879 N   0  0  0  0  0  0  0  0  0  0  0  0
    8.7546  -13.5100   20.6703 C   0  0  0  0  0  0  0  0  0  0  0  0
    8.3582  -12.7955   21.6409 O   0  0  0  0  0  0  0  0  0  0  0  0
    5.9499  -15.7952   21.5727 N   0  0  0  0  0  0  0  0  0  0  0  0
    6.6821  -16.9885   21.4110 C   0  0  0  0  0  0  0  0  0  0  0  0
    6.0755  -18.0123   21.0107 O   0  0  0  0  0  0  0  0  0  0  0  0
    8.1277  -16.9831   21.7186 C   0  0  0  0  0  0  0  0  0  0  0  0
    8.6520  -15.5933   22.0479 C   0  0  2  0  0  0  0  0  0  0  0  0
    8.9037  -14.9172   20.7951 N   0  0  0  0  0  0  0  0  0  0  0  0
    9.9480  -15.7966   22.7335 C   0  0  0  0  0  0  0  0  0  0  0  0
    9.9442  -16.0036   23.9724 O   0  0  0  0  0  0  0  0  0  0  0  0
   11.1875  -15.7601   22.0095 N   0  0  0  0  0  0  0  0  0  0  0  0
   12.3950  -15.9206   22.7934 C   0  0  0  0  0  0  0  0  0  0  0  0
   13.5576  -15.6740   21.9103 C   0  0  0  0  0  0  0  0  0  0  0  0
   14.6740  -16.1446   22.2599 O   0  0  0  0  0  0  0  0  0  0  0  0
   13.5052  -14.9667   20.7338 O   0  0  0  0  0  0  0  0  0  0  0  0
  2  1  1  6
  2  3  1  0
  4  5  2  0
  4  2  1  0
  6  7  1  0
  7  8  2  0
  9  7  1  0
 10  9  1  6
 10 11  1  0
 11  4  1  0
 12 10  1  0
 12 14  1  0
 13 12  2  0
 15 14  1  0
 15 16  1  0
 16 17  2  0
 16 18  1  0
M  END
$$$$
