KFS.pdb
     RDKit          3D

 27 27  0  0  1  0  0  0  0  0999 V2000
   44.1129  -12.2302   -9.1275 N   0  0  0  0  0  0  0  0  0  0  0  0
   43.4999  -11.8771   -7.8899 C   0  0  1  0  0  0  0  0  0  0  0  0
   44.4185  -11.3891   -6.8264 C   0  0  0  0  0  0  0  0  0  0  0  0
   45.2708  -12.4113   -6.1662 C   0  0  0  0  0  0  0  0  0  0  0  0
   46.2745  -13.0897   -7.0322 C   0  0  0  0  0  0  0  0  0  0  0  0
   47.0671  -14.1301   -6.2267 C   0  0  0  0  0  0  0  0  0  0  0  0
   47.9809  -14.7754   -7.1280 N   0  0  0  0  0  0  0  0  0  0  0  0
   42.4555  -10.8340   -8.1478 C   0  0  0  0  0  0  0  0  0  0  0  0
   42.5956  -10.0166   -9.0950 O   0  0  0  0  0  0  0  0  0  0  0  0
   41.2772  -10.7086   -7.3613 N   0  0  0  0  0  0  0  0  0  0  0  0
   40.2949   -9.6712   -7.4969 C   0  0  1  0  0  0  0  0  0  0  0  0
   38.9112  -10.0900   -7.1336 C   0  0  0  0  0  0  0  0  0  0  0  0
   37.8950   -9.0659   -7.1280 C   0  0  0  0  0  0  0  0  0  0  0  0
   37.4538   -8.5298   -8.3151 C   0  0  0  0  0  0  0  0  0  0  0  0
   36.4688   -7.5342   -8.3393 C   0  0  0  0  0  0  0  0  0  0  0  0
   35.9229   -7.0733   -7.1633 C   0  0  0  0  0  0  0  0  0  0  0  0
   36.3541   -7.5988   -5.9823 C   0  0  0  0  0  0  0  0  0  0  0  0
   37.3218   -8.5757   -5.9765 C   0  0  0  0  0  0  0  0  0  0  0  0
   40.7072   -8.3836   -6.8925 C   0  0  0  0  0  0  0  0  0  0  0  0
   41.0098   -8.2870   -5.6563 O   0  0  0  0  0  0  0  0  0  0  0  0
   42.4258   -3.9276   -7.4945 O   0  0  0  0  0  0  0  0  0  0  0  0
   42.0190   -5.1513   -8.0071 C   0  0  0  0  0  0  0  0  0  0  0  0
   41.1999   -5.9349   -6.9795 C   0  0  2  0  0  0  0  0  0  0  0  0
   40.8015   -7.1694   -7.6287 N   0  0  0  0  0  0  0  0  0  0  0  0
   39.9996   -5.1754   -6.6101 C   0  0  0  0  0  0  0  0  0  0  0  0
   38.9823   -5.2384   -7.3343 O   0  0  0  0  0  0  0  0  0  0  0  0
   39.9794   -4.3969   -5.4783 O   0  0  0  0  0  0  0  0  0  0  0  0
  2  1  1  6
  2  8  1  0
  3  2  1  0
  3  4  1  0
  4  5  1  0
  6  5  1  0
  6  7  1  0
  8  9  2  0
 10  8  1  0
 10 11  1  0
 11 19  1  0
 12 13  1  0
 11 12  1  1
 13 14  2  0
 14 15  1  0
 16 15  2  0
 17 16  1  0
 18 13  1  0
 18 17  2  0
 19 20  2  0
 21 22  1  0
 23 22  1  6
 23 25  1  0
 24 23  1  0
 24 19  1  0
 25 26  2  0
 25 27  1  0
M  END
$$$$
