KFS.pdb
     RDKit          3D

 27 27  0  0  1  0  0  0  0  0999 V2000
   27.3427  -18.7500  -13.9334 N   0  0  0  0  0  0  0  0  0  0  0  0
   27.1190  -20.0162  -14.5487 C   0  0  1  0  0  0  0  0  0  0  0  0
   28.3099  -20.8999  -14.6672 C   0  0  0  0  0  0  0  0  0  0  0  0
   28.9893  -20.9232  -15.9882 C   0  0  0  0  0  0  0  0  0  0  0  0
   29.0534  -19.6266  -16.7178 C   0  0  0  0  0  0  0  0  0  0  0  0
   29.7100  -19.8135  -18.0938 C   0  0  0  0  0  0  0  0  0  0  0  0
   29.6823  -18.5443  -18.7661 N   0  0  0  0  0  0  0  0  0  0  0  0
   26.0488  -20.7402  -13.7900 C   0  0  0  0  0  0  0  0  0  0  0  0
   25.7161  -21.9084  -14.1210 O   0  0  0  0  0  0  0  0  0  0  0  0
   25.3645  -20.1679  -12.6822 N   0  0  0  0  0  0  0  0  0  0  0  0
   24.3488  -20.8206  -11.9064 C   0  0  1  0  0  0  0  0  0  0  0  0
   24.4244  -20.5415  -10.4441 C   0  0  0  0  0  0  0  0  0  0  0  0
   25.7185  -20.6632   -9.8180 C   0  0  0  0  0  0  0  0  0  0  0  0
   26.6112  -21.6090  -10.2647 C   0  0  0  0  0  0  0  0  0  0  0  0
   27.8741  -21.7496   -9.6753 C   0  0  0  0  0  0  0  0  0  0  0  0
   28.2433  -20.9348   -8.6298 C   0  0  0  0  0  0  0  0  0  0  0  0
   27.3651  -19.9948   -8.1805 C   0  0  0  0  0  0  0  0  0  0  0  0
   26.1293  -19.8701   -8.7706 C   0  0  0  0  0  0  0  0  0  0  0  0
   22.9880  -20.6760  -12.4724 C   0  0  0  0  0  0  0  0  0  0  0  0
   22.4757  -19.5311  -12.7086 O   0  0  0  0  0  0  0  0  0  0  0  0
   20.5645  -23.9591  -13.1264 O   0  0  0  0  0  0  0  0  0  0  0  0
   20.4456  -22.9089  -14.0256 C   0  0  0  0  0  0  0  0  0  0  0  0
   20.8411  -21.5805  -13.3776 C   0  0  2  0  0  0  0  0  0  0  0  0
   22.1549  -21.7832  -12.7971 N   0  0  0  0  0  0  0  0  0  0  0  0
   19.8908  -21.2393  -12.3124 C   0  0  0  0  0  0  0  0  0  0  0  0
   20.2821  -21.2002  -11.1255 O   0  0  0  0  0  0  0  0  0  0  0  0
   18.5772  -20.9615  -12.6030 O   0  0  0  0  0  0  0  0  0  0  0  0
  2  1  1  1
  2  8  1  0
  3  2  1  0
  3  4  1  0
  4  5  1  0
  6  5  1  0
  6  7  1  0
  8  9  2  0
 10  8  1  0
 10 11  1  0
 11 19  1  0
 12 13  1  0
 11 12  1  1
 13 14  2  0
 14 15  1  0
 16 15  2  0
 17 16  1  0
 18 13  1  0
 18 17  2  0
 19 20  2  0
 21 22  1  0
 23 22  1  1
 23 25  1  0
 24 23  1  0
 24 19  1  0
 25 26  2  0
 25 27  1  0
M  END
$$$$
