KFS.pdb
     RDKit          3D

 27 27  0  0  1  0  0  0  0  0999 V2000
   26.3839  -24.1746  -15.9383 N   0  0  0  0  0  0  0  0  0  0  0  0
   25.2765  -23.4155  -16.4171 C   0  0  1  0  0  0  0  0  0  0  0  0
   24.5144  -24.0188  -17.5434 C   0  0  0  0  0  0  0  0  0  0  0  0
   25.2997  -24.4043  -18.7441 C   0  0  0  0  0  0  0  0  0  0  0  0
   26.5391  -25.1912  -18.4945 C   0  0  0  0  0  0  0  0  0  0  0  0
   27.2454  -25.5201  -19.8183 C   0  0  0  0  0  0  0  0  0  0  0  0
   28.6066  -25.0742  -19.7087 N   0  0  0  0  0  0  0  0  0  0  0  0
   24.3386  -23.1569  -15.2775 C   0  0  0  0  0  0  0  0  0  0  0  0
   24.1187  -24.0530  -14.4210 O   0  0  0  0  0  0  0  0  0  0  0  0
   23.6603  -21.9194  -15.0999 N   0  0  0  0  0  0  0  0  0  0  0  0
   22.8193  -21.5860  -13.9860 C   0  0  1  0  0  0  0  0  0  0  0  0
   23.1688  -20.2983  -13.3215 C   0  0  0  0  0  0  0  0  0  0  0  0
   22.3825  -19.9166  -12.1737 C   0  0  0  0  0  0  0  0  0  0  0  0
   21.2779  -19.1133  -12.3344 C   0  0  0  0  0  0  0  0  0  0  0  0
   20.4967  -18.7269  -11.2379 C   0  0  0  0  0  0  0  0  0  0  0  0
   20.8268  -19.1499   -9.9708 C   0  0  0  0  0  0  0  0  0  0  0  0
   21.9196  -19.9462   -9.8021 C   0  0  0  0  0  0  0  0  0  0  0  0
   22.6756  -20.3163  -10.8895 C   0  0  0  0  0  0  0  0  0  0  0  0
   21.3738  -21.7384  -14.2699 C   0  0  0  0  0  0  0  0  0  0  0  0
   20.8088  -21.1215  -15.2338 O   0  0  0  0  0  0  0  0  0  0  0  0
   18.8708  -24.0750  -11.8819 O   0  0  0  0  0  0  0  0  0  0  0  0
   18.6335  -24.0250  -13.2482 C   0  0  0  0  0  0  0  0  0  0  0  0
   19.1052  -22.6960  -13.8416 C   0  0  2  0  0  0  0  0  0  0  0  0
   20.5112  -22.5738  -13.5061 N   0  0  0  0  0  0  0  0  0  0  0  0
   18.3659  -21.5840  -13.2326 C   0  0  0  0  0  0  0  0  0  0  0  0
   18.8699  -20.9596  -12.2737 O   0  0  0  0  0  0  0  0  0  0  0  0
   17.1277  -21.2199  -13.7034 O   0  0  0  0  0  0  0  0  0  0  0  0
  2  1  1  1
  2  8  1  0
  3  2  1  0
  3  4  1  0
  4  5  1  0
  6  5  1  0
  6  7  1  0
  8  9  2  0
 10  8  1  0
 10 11  1  0
 11 19  1  0
 12 13  1  0
 11 12  1  6
 13 14  2  0
 14 15  1  0
 16 15  2  0
 17 16  1  0
 18 13  1  0
 18 17  2  0
 19 20  2  0
 21 22  1  0
 23 22  1  1
 23 25  1  0
 24 23  1  0
 24 19  1  0
 25 26  2  0
 25 27  1  0
M  END
$$$$
