KFS.pdb
     RDKit          3D

 27 27  0  0  1  0  0  0  0  0999 V2000
   27.7125  -20.0183  -16.3753 N   0  0  0  0  0  0  0  0  0  0  0  0
   27.3583  -21.3980  -16.3193 C   0  0  1  0  0  0  0  0  0  0  0  0
   28.4923  -22.3607  -16.3409 C   0  0  0  0  0  0  0  0  0  0  0  0
   29.4116  -22.2762  -17.5049 C   0  0  0  0  0  0  0  0  0  0  0  0
   28.7986  -22.4947  -18.8444 C   0  0  0  0  0  0  0  0  0  0  0  0
   29.8566  -22.3629  -19.9501 C   0  0  0  0  0  0  0  0  0  0  0  0
   29.7587  -23.5256  -20.7880 N   0  0  0  0  0  0  0  0  0  0  0  0
   26.5394  -21.6374  -15.0876 C   0  0  0  0  0  0  0  0  0  0  0  0
   26.1763  -22.8040  -14.7840 O   0  0  0  0  0  0  0  0  0  0  0  0
   26.1349  -20.5916  -14.2126 N   0  0  0  0  0  0  0  0  0  0  0  0
   25.3270  -20.7574  -13.0382 C   0  0  1  0  0  0  0  0  0  0  0  0
   25.7934  -19.9712  -11.8608 C   0  0  0  0  0  0  0  0  0  0  0  0
   26.9958  -20.4229  -11.2037 C   0  0  0  0  0  0  0  0  0  0  0  0
   28.1645  -20.5443  -11.9182 C   0  0  0  0  0  0  0  0  0  0  0  0
   29.3464  -20.9809  -11.3061 C   0  0  0  0  0  0  0  0  0  0  0  0
   29.3550  -21.2980   -9.9672 C   0  0  0  0  0  0  0  0  0  0  0  0
   28.2014  -21.1808   -9.2514 C   0  0  0  0  0  0  0  0  0  0  0  0
   27.0500  -20.7505   -9.8678 C   0  0  0  0  0  0  0  0  0  0  0  0
   23.8740  -20.6380  -13.2983 C   0  0  0  0  0  0  0  0  0  0  0  0
   23.3887  -19.6697  -13.9736 O   0  0  0  0  0  0  0  0  0  0  0  0
   19.4858  -21.5535  -11.6442 O   0  0  0  0  0  0  0  0  0  0  0  0
   20.8599  -21.7466  -11.6264 C   0  0  0  0  0  0  0  0  0  0  0  0
   21.4942  -21.3185  -12.9512 C   0  0  2  0  0  0  0  0  0  0  0  0
   22.9159  -21.5791  -12.8276 N   0  0  0  0  0  0  0  0  0  0  0  0
   21.2844  -19.8821  -13.1669 C   0  0  0  0  0  0  0  0  0  0  0  0
   21.8784  -19.0557  -12.4406 O   0  0  0  0  0  0  0  0  0  0  0  0
   20.4444  -19.4340  -14.1573 O   0  0  0  0  0  0  0  0  0  0  0  0
  2  1  1  1
  2  8  1  0
  3  2  1  0
  3  4  1  0
  4  5  1  0
  6  5  1  0
  6  7  1  0
  8  9  2  0
 10  8  1  0
 10 11  1  0
 11 19  1  0
 12 13  1  0
 11 12  1  1
 13 14  2  0
 14 15  1  0
 16 15  2  0
 17 16  1  0
 18 13  1  0
 18 17  2  0
 19 20  2  0
 21 22  1  0
 23 22  1  1
 23 25  1  0
 24 23  1  0
 24 19  1  0
 25 26  2  0
 25 27  1  0
M  END
$$$$
