KFS.pdb
     RDKit          3D

 27 27  0  0  1  0  0  0  0  0999 V2000
   27.0004  -36.1076   -8.9948 N   0  0  0  0  0  0  0  0  0  0  0  0
   27.2384  -35.1302   -7.9848 C   0  0  1  0  0  0  0  0  0  0  0  0
   26.0859  -34.8205   -7.0966 C   0  0  0  0  0  0  0  0  0  0  0  0
   24.9480  -34.0935   -7.7161 C   0  0  0  0  0  0  0  0  0  0  0  0
   25.1437  -32.6343   -7.9402 C   0  0  0  0  0  0  0  0  0  0  0  0
   23.8569  -31.9943   -8.4823 C   0  0  0  0  0  0  0  0  0  0  0  0
   24.1164  -30.5956   -8.6823 N   0  0  0  0  0  0  0  0  0  0  0  0
   28.3957  -35.5759   -7.1438 C   0  0  0  0  0  0  0  0  0  0  0  0
   28.7459  -36.7851   -7.1362 O   0  0  0  0  0  0  0  0  0  0  0  0
   29.1465  -34.6855   -6.3275 N   0  0  0  0  0  0  0  0  0  0  0  0
   30.2210  -35.0650   -5.4552 C   0  0  1  0  0  0  0  0  0  0  0  0
   31.3361  -34.0776   -5.3954 C   0  0  0  0  0  0  0  0  0  0  0  0
   32.4758  -34.4223   -4.5808 C   0  0  0  0  0  0  0  0  0  0  0  0
   33.5700  -35.0285   -5.1519 C   0  0  0  0  0  0  0  0  0  0  0  0
   34.6899  -35.3746   -4.3850 C   0  0  0  0  0  0  0  0  0  0  0  0
   34.7113  -35.1102   -3.0348 C   0  0  0  0  0  0  0  0  0  0  0  0
   33.6314  -34.5097   -2.4603 C   0  0  0  0  0  0  0  0  0  0  0  0
   32.5402  -34.1765   -3.2278 C   0  0  0  0  0  0  0  0  0  0  0  0
   29.7662  -35.5333   -4.1259 C   0  0  0  0  0  0  0  0  0  0  0  0
   29.0547  -34.7997   -3.3613 O   0  0  0  0  0  0  0  0  0  0  0  0
   30.8901  -37.9794   -0.2613 O   0  0  0  0  0  0  0  0  0  0  0  0
   31.0804  -37.6097   -1.5853 C   0  0  0  0  0  0  0  0  0  0  0  0
   29.7667  -37.1570   -2.2258 C   0  0  2  0  0  0  0  0  0  0  0  0
   30.0771  -36.8195   -3.6020 N   0  0  0  0  0  0  0  0  0  0  0  0
   29.2591  -35.9633   -1.5393 C   0  0  0  0  0  0  0  0  0  0  0  0
   29.2966  -34.8557   -2.1182 O   0  0  0  0  0  0  0  0  0  0  0  0
   28.7423  -36.0476   -0.2692 O   0  0  0  0  0  0  0  0  0  0  0  0
  2  1  1  6
  2  8  1  0
  3  2  1  0
  3  4  1  0
  4  5  1  0
  6  5  1  0
  6  7  1  0
  8  9  2  0
 10  8  1  0
 10 11  1  0
 11 19  1  0
 12 13  1  0
 11 12  1  1
 13 14  2  0
 14 15  1  0
 16 15  2  0
 17 16  1  0
 18 13  1  0
 18 17  2  0
 19 20  2  0
 21 22  1  0
 23 22  1  1
 23 25  1  0
 24 23  1  0
 24 19  1  0
 25 26  2  0
 25 27  1  0
M  END
$$$$
