KFS.pdb
     RDKit          3D

 27 27  0  0  1  0  0  0  0  0999 V2000
   23.6684  -32.9571  -13.2247 N   0  0  0  0  0  0  0  0  0  0  0  0
   22.4545  -32.5017  -12.6321 C   0  0  1  0  0  0  0  0  0  0  0  0
   21.2044  -32.8644  -13.3524 C   0  0  0  0  0  0  0  0  0  0  0  0
   20.8558  -32.0348  -14.5344 C   0  0  0  0  0  0  0  0  0  0  0  0
   21.9052  -31.0900  -15.0074 C   0  0  0  0  0  0  0  0  0  0  0  0
   21.3926  -30.2660  -16.1981 C   0  0  0  0  0  0  0  0  0  0  0  0
   22.4558  -29.3947  -16.6152 N   0  0  0  0  0  0  0  0  0  0  0  0
   22.3767  -33.0217  -11.2290 C   0  0  0  0  0  0  0  0  0  0  0  0
   22.6615  -34.2226  -10.9807 O   0  0  0  0  0  0  0  0  0  0  0  0
   21.9878  -32.2133  -10.1252 N   0  0  0  0  0  0  0  0  0  0  0  0
   21.7805  -32.6822   -8.7849 C   0  0  1  0  0  0  0  0  0  0  0  0
   22.8473  -32.2782   -7.8253 C   0  0  0  0  0  0  0  0  0  0  0  0
   24.1823  -32.7590   -8.0865 C   0  0  0  0  0  0  0  0  0  0  0  0
   24.5942  -33.9612   -7.5611 C   0  0  0  0  0  0  0  0  0  0  0  0
   25.8846  -34.4519   -7.7979 C   0  0  0  0  0  0  0  0  0  0  0  0
   26.7679  -33.7305   -8.5678 C   0  0  0  0  0  0  0  0  0  0  0  0
   26.3683  -32.5381   -9.0925 C   0  0  0  0  0  0  0  0  0  0  0  0
   25.0979  -32.0710   -8.8502 C   0  0  0  0  0  0  0  0  0  0  0  0
   20.4067  -32.4499   -8.2829 C   0  0  0  0  0  0  0  0  0  0  0  0
   19.7848  -31.3578   -8.5054 O   0  0  0  0  0  0  0  0  0  0  0  0
   17.2586  -34.8312   -8.4181 O   0  0  0  0  0  0  0  0  0  0  0  0
   17.5794  -34.4715   -7.1168 C   0  0  0  0  0  0  0  0  0  0  0  0
   18.3251  -33.1360   -7.0816 C   0  0  2  0  0  0  0  0  0  0  0  0
   19.6781  -33.4106   -7.5269 N   0  0  0  0  0  0  0  0  0  0  0  0
   18.3650  -32.6196   -5.7084 C   0  0  0  0  0  0  0  0  0  0  0  0
   19.4431  -32.6325   -5.0752 O   0  0  0  0  0  0  0  0  0  0  0  0
   17.2330  -32.1213   -5.1103 O   0  0  0  0  0  0  0  0  0  0  0  0
  2  1  1  6
  2  8  1  0
  3  2  1  0
  3  4  1  0
  4  5  1  0
  6  5  1  0
  6  7  1  0
  8  9  2  0
 10  8  1  0
 10 11  1  0
 11 19  1  0
 12 13  1  0
 11 12  1  1
 13 14  2  0
 14 15  1  0
 16 15  2  0
 17 16  1  0
 18 13  1  0
 18 17  2  0
 19 20  2  0
 21 22  1  0
 23 22  1  1
 23 25  1  0
 24 23  1  0
 24 19  1  0
 25 26  2  0
 25 27  1  0
M  END
$$$$
