KFS.pdb
     RDKit          3D

 27 27  0  0  1  0  0  0  0  0999 V2000
   29.1324  -22.5719  -17.9383 N   0  0  0  0  0  0  0  0  0  0  0  0
   28.4512  -21.3689  -17.5908 C   0  0  1  0  0  0  0  0  0  0  0  0
   27.5796  -20.7881  -18.6472 C   0  0  0  0  0  0  0  0  0  0  0  0
   28.1754  -19.7126  -19.4811 C   0  0  0  0  0  0  0  0  0  0  0  0
   29.5990  -19.8994  -19.8766 C   0  0  0  0  0  0  0  0  0  0  0  0
   30.3062  -18.5418  -20.0045 C   0  0  0  0  0  0  0  0  0  0  0  0
   29.9040  -17.9567  -21.2533 N   0  0  0  0  0  0  0  0  0  0  0  0
   27.6294  -21.6161  -16.3625 C   0  0  0  0  0  0  0  0  0  0  0  0
   26.8108  -22.5720  -16.3287 O   0  0  0  0  0  0  0  0  0  0  0  0
   27.7220  -20.8093  -15.1948 N   0  0  0  0  0  0  0  0  0  0  0  0
   26.9213  -20.9628  -14.0139 C   0  0  1  0  0  0  0  0  0  0  0  0
   27.5250  -20.3710  -12.7862 C   0  0  0  0  0  0  0  0  0  0  0  0
   26.7635  -20.4727  -11.5651 C   0  0  0  0  0  0  0  0  0  0  0  0
   25.9373  -19.4418  -11.1832 C   0  0  0  0  0  0  0  0  0  0  0  0
   25.1870  -19.5133  -10.0026 C   0  0  0  0  0  0  0  0  0  0  0  0
   25.2667  -20.6277   -9.1995 C   0  0  0  0  0  0  0  0  0  0  0  0
   26.0828  -21.6541   -9.5700 C   0  0  0  0  0  0  0  0  0  0  0  0
   26.8125  -21.5676  -10.7323 C   0  0  0  0  0  0  0  0  0  0  0  0
   25.4987  -20.6024  -14.2131 C   0  0  0  0  0  0  0  0  0  0  0  0
   25.1518  -19.4702  -14.6893 O   0  0  0  0  0  0  0  0  0  0  0  0
   20.9291  -21.9247  -14.7811 O   0  0  0  0  0  0  0  0  0  0  0  0
   22.2745  -22.2276  -14.6264 C   0  0  0  0  0  0  0  0  0  0  0  0
   23.0438  -21.0402  -14.0440 C   0  0  2  0  0  0  0  0  0  0  0  0
   24.4199  -21.4755  -13.8984 N   0  0  0  0  0  0  0  0  0  0  0  0
   22.5057  -20.6928  -12.7235 C   0  0  0  0  0  0  0  0  0  0  0  0
   23.0492  -21.1521  -11.6954 O   0  0  0  0  0  0  0  0  0  0  0  0
   21.4133  -19.8687  -12.6027 O   0  0  0  0  0  0  0  0  0  0  0  0
  2  1  1  6
  2  8  1  0
  3  2  1  0
  3  4  1  0
  4  5  1  0
  6  5  1  0
  6  7  1  0
  8  9  2  0
 10  8  1  0
 10 11  1  0
 11 19  1  0
 12 13  1  0
 11 12  1  1
 13 14  2  0
 14 15  1  0
 16 15  2  0
 17 16  1  0
 18 13  1  0
 18 17  2  0
 19 20  2  0
 21 22  1  0
 23 22  1  1
 23 25  1  0
 24 23  1  0
 24 19  1  0
 25 26  2  0
 25 27  1  0
M  END
$$$$
