KFS.pdb
     RDKit          3D

 27 27  0  0  1  0  0  0  0  0999 V2000
   26.4187  -18.7722  -13.3373 N   0  0  0  0  0  0  0  0  0  0  0  0
   27.3724  -19.8314  -13.3143 C   0  0  1  0  0  0  0  0  0  0  0  0
   28.7242  -19.4993  -13.8393 C   0  0  0  0  0  0  0  0  0  0  0  0
   28.7743  -18.8213  -15.1602 C   0  0  0  0  0  0  0  0  0  0  0  0
   27.7924  -19.2893  -16.1773 C   0  0  0  0  0  0  0  0  0  0  0  0
   28.0085  -18.5599  -17.5118 C   0  0  0  0  0  0  0  0  0  0  0  0
   28.6317  -19.4841  -18.4178 N   0  0  0  0  0  0  0  0  0  0  0  0
   27.5053  -20.3321  -11.9083 C   0  0  0  0  0  0  0  0  0  0  0  0
   28.2214  -21.3368  -11.6577 O   0  0  0  0  0  0  0  0  0  0  0  0
   26.8496  -19.7203  -10.8044 N   0  0  0  0  0  0  0  0  0  0  0  0
   26.8954  -20.1876   -9.4484 C   0  0  1  0  0  0  0  0  0  0  0  0
   27.1038  -19.1111   -8.4387 C   0  0  0  0  0  0  0  0  0  0  0  0
   27.5549  -19.5164   -7.1297 C   0  0  0  0  0  0  0  0  0  0  0  0
   26.7243  -19.3753   -6.0428 C   0  0  0  0  0  0  0  0  0  0  0  0
   27.1363  -19.7599   -4.7605 C   0  0  0  0  0  0  0  0  0  0  0  0
   28.3914  -20.2900   -4.5679 C   0  0  0  0  0  0  0  0  0  0  0  0
   29.2213  -20.4336   -5.6391 C   0  0  0  0  0  0  0  0  0  0  0  0
   28.8009  -20.0509   -6.8912 C   0  0  0  0  0  0  0  0  0  0  0  0
   25.7980  -21.1218   -9.1075 C   0  0  0  0  0  0  0  0  0  0  0  0
   25.6553  -21.5906   -7.9290 O   0  0  0  0  0  0  0  0  0  0  0  0
   22.0050  -19.3982   -9.3323 O   0  0  0  0  0  0  0  0  0  0  0  0
   23.3251  -19.7899   -9.5044 C   0  0  0  0  0  0  0  0  0  0  0  0
   23.4183  -21.2760   -9.8556 C   0  0  2  0  0  0  0  0  0  0  0  0
   24.8268  -21.5636  -10.0492 N   0  0  0  0  0  0  0  0  0  0  0  0
   22.6956  -21.5426  -11.1049 C   0  0  0  0  0  0  0  0  0  0  0  0
   21.5590  -22.0619  -11.0616 O   0  0  0  0  0  0  0  0  0  0  0  0
   23.2517  -21.2278  -12.3211 O   0  0  0  0  0  0  0  0  0  0  0  0
  2  1  1  1
  2  8  1  0
  3  2  1  0
  3  4  1  0
  4  5  1  0
  6  5  1  0
  6  7  1  0
  8  9  2  0
 10  8  1  0
 10 11  1  0
 11 19  1  0
 12 13  1  0
 11 12  1  1
 13 14  2  0
 14 15  1  0
 16 15  2  0
 17 16  1  0
 18 13  1  0
 18 17  2  0
 19 20  2  0
 21 22  1  0
 23 22  1  6
 23 25  1  0
 24 23  1  0
 24 19  1  0
 25 26  2  0
 25 27  1  0
M  END
$$$$
