FCF.pdb
     RDKit          3D

 29 30  0  0  1  0  0  0  0  0999 V2000
    6.9849  -17.5186   25.3992 N   0  0  0  0  0  0  0  0  0  0  0  0
    6.7101  -17.6312   23.9807 C   0  0  1  0  0  0  0  0  0  0  0  0
    5.7685  -16.5042   23.6077 C   0  0  0  0  0  0  0  0  0  0  0  0
    6.1256  -15.2439   24.2989 C   0  0  0  0  0  0  0  0  0  0  0  0
    6.8289  -14.2378   23.6622 C   0  0  0  0  0  0  0  0  0  0  0  0
    7.1597  -13.0575   24.3200 C   0  0  0  0  0  0  0  0  0  0  0  0
    6.7990  -12.8513   25.6244 C   0  0  0  0  0  0  0  0  0  0  0  0
    6.0970  -13.8402   26.2806 C   0  0  0  0  0  0  0  0  0  0  0  0
    5.7691  -15.0108   25.6277 C   0  0  0  0  0  0  0  0  0  0  0  0
    8.0004  -17.5250   23.2611 C   0  0  0  0  0  0  0  0  0  0  0  0
    8.2565  -18.2605   22.2762 O   0  0  0  0  0  0  0  0  0  0  0  0
    9.0167  -16.5892   23.6427 N   0  0  0  0  0  0  0  0  0  0  0  0
   10.3812  -16.6835   23.1681 C   0  0  1  0  0  0  0  0  0  0  0  0
   10.7285  -15.4278   22.4018 C   0  0  0  0  0  0  0  0  0  0  0  0
    9.3127  -14.8884   21.4045 S   0  0  0  0  0  0  0  0  0  0  0  0
   11.3310  -16.9468   24.2708 C   0  0  0  0  0  0  0  0  0  0  0  0
   12.5478  -16.6570   24.1010 O   0  0  0  0  0  0  0  0  0  0  0  0
   10.9365  -17.5099   25.5097 N   0  0  0  0  0  0  0  0  0  0  0  0
   11.8730  -17.8075   26.5850 C   0  0  1  0  0  0  0  0  0  0  0  0
   12.5156  -16.5425   27.0688 C   0  0  0  0  0  0  0  0  0  0  0  0
   11.5918  -15.5324   27.6018 C   0  0  0  0  0  0  0  0  0  0  0  0
   10.9916  -14.5769   26.7735 C   0  0  0  0  0  0  0  0  0  0  0  0
   10.1147  -13.6419   27.2744 C   0  0  0  0  0  0  0  0  0  0  0  0
    9.7809  -13.5943   28.6098 C   0  0  0  0  0  0  0  0  0  0  0  0
   10.3619  -14.5267   29.4391 C   0  0  0  0  0  0  0  0  0  0  0  0
   11.2392  -15.4643   28.9447 C   0  0  0  0  0  0  0  0  0  0  0  0
   11.2014  -18.4982   27.7037 C   0  0  0  0  0  0  0  0  0  0  0  0
   11.8898  -18.8958   28.6717 O   0  0  0  0  0  0  0  0  0  0  0  0
    9.8301  -18.7387   27.7502 O   0  0  0  0  0  0  0  0  0  0  0  0
  2  1  1  1
  2 10  1  0
  2  3  1  0
  4  3  1  0
  4  9  1  0
  5  4  2  0
  6  5  1  0
  6  7  2  0
  7  8  1  0
  8  9  2  0
 10 11  2  0
 12 13  1  0
 12 10  1  0
 14 15  1  0
 13 14  1  1
 16 13  1  0
 16 17  2  0
 18 16  1  0
 19 18  1  0
 19 27  1  0
 19 20  1  1
 21 20  1  0
 21 22  2  0
 23 22  1  0
 24 23  2  0
 25 26  2  0
 25 24  1  0
 26 21  1  0
 27 28  2  0
 27 29  1  0
M  END
$$$$
