FCF.pdb
     RDKit          3D

 29 30  0  0  1  0  0  0  0  0999 V2000
    5.9212  -17.9479   24.7881 N   0  0  0  0  0  0  0  0  0  0  0  0
    6.5044  -16.6338   24.6055 C   0  0  1  0  0  0  0  0  0  0  0  0
    6.7168  -16.0340   25.9805 C   0  0  0  0  0  0  0  0  0  0  0  0
    6.6709  -14.5541   25.9429 C   0  0  0  0  0  0  0  0  0  0  0  0
    7.7023  -13.8066   25.4045 C   0  0  0  0  0  0  0  0  0  0  0  0
    7.6500  -12.4169   25.3737 C   0  0  0  0  0  0  0  0  0  0  0  0
    6.5720  -11.7396   25.8772 C   0  0  0  0  0  0  0  0  0  0  0  0
    5.5309  -12.4632   26.4195 C   0  0  0  0  0  0  0  0  0  0  0  0
    5.5833  -13.8418   26.4497 C   0  0  0  0  0  0  0  0  0  0  0  0
    7.7850  -16.8050   23.8811 C   0  0  0  0  0  0  0  0  0  0  0  0
    8.5078  -17.8141   24.0704 O   0  0  0  0  0  0  0  0  0  0  0  0
    8.2659  -15.8414   22.9352 N   0  0  0  0  0  0  0  0  0  0  0  0
    9.4701  -16.0457   22.1579 C   0  0  1  0  0  0  0  0  0  0  0  0
    9.5771  -14.9591   21.1127 C   0  0  0  0  0  0  0  0  0  0  0  0
    8.0121  -14.7996   20.2097 S   0  0  0  0  0  0  0  0  0  0  0  0
   10.6732  -16.1179   23.0151 C   0  0  0  0  0  0  0  0  0  0  0  0
   11.6826  -15.4299   22.6972 O   0  0  0  0  0  0  0  0  0  0  0  0
   10.7439  -16.9250   24.1775 N   0  0  0  0  0  0  0  0  0  0  0  0
   11.9273  -17.0040   25.0231 C   0  0  1  0  0  0  0  0  0  0  0  0
   12.2439  -15.6521   25.5880 C   0  0  0  0  0  0  0  0  0  0  0  0
   11.3425  -15.1884   26.6511 C   0  0  0  0  0  0  0  0  0  0  0  0
   10.4056  -14.1727   26.4276 C   0  0  0  0  0  0  0  0  0  0  0  0
    9.5523  -13.7517   27.4220 C   0  0  0  0  0  0  0  0  0  0  0  0
    9.5724  -14.3025   28.6842 C   0  0  0  0  0  0  0  0  0  0  0  0
   10.4876  -15.3029   28.9217 C   0  0  0  0  0  0  0  0  0  0  0  0
   11.3434  -15.7284   27.9319 C   0  0  0  0  0  0  0  0  0  0  0  0
   11.7414  -17.9815   26.1138 C   0  0  0  0  0  0  0  0  0  0  0  0
   10.6224  -18.5264   26.2555 O   0  0  0  0  0  0  0  0  0  0  0  0
   12.7474  -18.3406   27.0079 O   0  0  0  0  0  0  0  0  0  0  0  0
  2  1  1  1
  2 10  1  0
  2  3  1  0
  4  3  1  0
  4  9  1  0
  5  4  2  0
  6  5  1  0
  6  7  2  0
  7  8  1  0
  8  9  2  0
 10 11  2  0
 12 13  1  0
 12 10  1  0
 14 15  1  0
 13 14  1  6
 16 13  1  0
 16 17  2  0
 18 16  1  0
 19 18  1  0
 19 27  1  0
 19 20  1  1
 21 20  1  0
 21 22  2  0
 23 22  1  0
 24 23  2  0
 25 26  2  0
 25 24  1  0
 26 21  1  0
 27 28  2  0
 27 29  1  0
M  END
$$$$
