FCF.pdb
     RDKit          3D

 29 30  0  0  1  0  0  0  0  0999 V2000
    7.7455  -17.8090   17.5545 N   0  0  0  0  0  0  0  0  0  0  0  0
    8.1701  -16.7284   18.4219 C   0  0  1  0  0  0  0  0  0  0  0  0
    7.3022  -15.5260   18.1110 C   0  0  0  0  0  0  0  0  0  0  0  0
    7.5583  -14.4108   19.0514 C   0  0  0  0  0  0  0  0  0  0  0  0
    8.3758  -13.3474   18.7152 C   0  0  0  0  0  0  0  0  0  0  0  0
    8.6103  -12.3046   19.6055 C   0  0  0  0  0  0  0  0  0  0  0  0
    8.0378  -12.2956   20.8490 C   0  0  0  0  0  0  0  0  0  0  0  0
    7.2185  -13.3453   21.2073 C   0  0  0  0  0  0  0  0  0  0  0  0
    6.9862  -14.3795   20.3238 C   0  0  0  0  0  0  0  0  0  0  0  0
    7.9969  -17.1790   19.8223 C   0  0  0  0  0  0  0  0  0  0  0  0
    7.0215  -17.8951   20.1576 O   0  0  0  0  0  0  0  0  0  0  0  0
    8.9203  -16.8279   20.8608 N   0  0  0  0  0  0  0  0  0  0  0  0
    8.8714  -17.4208   22.1807 C   0  0  1  0  0  0  0  0  0  0  0  0
    9.2165  -18.8888   22.0790 C   0  0  0  0  0  0  0  0  0  0  0  0
    9.3712  -19.6141   23.7344 S   0  0  0  0  0  0  0  0  0  0  0  0
    9.7432  -16.7060   23.1381 C   0  0  0  0  0  0  0  0  0  0  0  0
   10.9108  -16.3942   22.7740 O   0  0  0  0  0  0  0  0  0  0  0  0
    9.3265  -16.3555   24.4462 N   0  0  0  0  0  0  0  0  0  0  0  0
   10.2030  -15.7156   25.4179 C   0  0  1  0  0  0  0  0  0  0  0  0
   10.0121  -14.2293   25.3787 C   0  0  0  0  0  0  0  0  0  0  0  0
    8.6854  -13.7549   25.7941 C   0  0  0  0  0  0  0  0  0  0  0  0
    8.4896  -13.0996   27.0154 C   0  0  0  0  0  0  0  0  0  0  0  0
    7.2477  -12.6430   27.3941 C   0  0  0  0  0  0  0  0  0  0  0  0
    6.1355  -12.8042   26.5978 C   0  0  0  0  0  0  0  0  0  0  0  0
    6.3098  -13.4464   25.3929 C   0  0  0  0  0  0  0  0  0  0  0  0
    7.5487  -13.9052   25.0084 C   0  0  0  0  0  0  0  0  0  0  0  0
    9.9537  -16.2258   26.7808 C   0  0  0  0  0  0  0  0  0  0  0  0
   10.6717  -15.8166   27.7221 O   0  0  0  0  0  0  0  0  0  0  0  0
    8.9554  -17.1470   27.0892 O   0  0  0  0  0  0  0  0  0  0  0  0
  2  1  1  6
  2 10  1  0
  2  3  1  0
  4  3  1  0
  4  9  1  0
  5  4  2  0
  6  5  1  0
  6  7  2  0
  7  8  1  0
  8  9  2  0
 10 11  2  0
 12 13  1  0
 12 10  1  0
 14 15  1  0
 13 14  1  6
 16 13  1  0
 16 17  2  0
 18 16  1  0
 19 18  1  0
 19 27  1  0
 19 20  1  1
 21 20  1  0
 21 22  2  0
 23 22  1  0
 24 23  2  0
 25 26  2  0
 25 24  1  0
 26 21  1  0
 27 28  2  0
 27 29  1  0
M  END
$$$$
