FCF.pdb
     RDKit          3D

 29 30  0  0  1  0  0  0  0  0999 V2000
   11.8624  -25.0851   14.6376 N   0  0  0  0  0  0  0  0  0  0  0  0
   13.1577  -25.0666   15.2874 C   0  0  1  0  0  0  0  0  0  0  0  0
   13.6654  -23.6394   15.2521 C   0  0  0  0  0  0  0  0  0  0  0  0
   14.9817  -23.5122   15.9189 C   0  0  0  0  0  0  0  0  0  0  0  0
   15.0922  -23.1642   17.2527 C   0  0  0  0  0  0  0  0  0  0  0  0
   16.3332  -23.0471   17.8701 C   0  0  0  0  0  0  0  0  0  0  0  0
   17.4913  -23.2733   17.1759 C   0  0  0  0  0  0  0  0  0  0  0  0
   17.4068  -23.6218   15.8444 C   0  0  0  0  0  0  0  0  0  0  0  0
   16.1755  -23.7377   15.2324 C   0  0  0  0  0  0  0  0  0  0  0  0
   12.9726  -25.5456   16.6768 C   0  0  0  0  0  0  0  0  0  0  0  0
   11.9056  -25.3277   17.3016 O   0  0  0  0  0  0  0  0  0  0  0  0
   13.9874  -26.2756   17.3779 N   0  0  0  0  0  0  0  0  0  0  0  0
   13.7978  -26.7791   18.7220 C   0  0  1  0  0  0  0  0  0  0  0  0
   12.9816  -28.0501   18.6659 C   0  0  0  0  0  0  0  0  0  0  0  0
   12.6878  -28.6826   20.3403 S   0  0  0  0  0  0  0  0  0  0  0  0
   15.0848  -26.9712   19.4250 C   0  0  0  0  0  0  0  0  0  0  0  0
   16.0412  -27.5047   18.7973 O   0  0  0  0  0  0  0  0  0  0  0  0
   15.2926  -26.5832   20.7717 N   0  0  0  0  0  0  0  0  0  0  0  0
   16.5469  -26.8003   21.4799 C   0  0  1  0  0  0  0  0  0  0  0  0
   16.8861  -25.5935   22.3020 C   0  0  0  0  0  0  0  0  0  0  0  0
   17.2641  -24.3980   21.5369 C   0  0  0  0  0  0  0  0  0  0  0  0
   18.5625  -24.2221   21.0442 C   0  0  0  0  0  0  0  0  0  0  0  0
   18.9087  -23.1077   20.3146 C   0  0  0  0  0  0  0  0  0  0  0  0
   18.0030  -22.1097   20.0303 C   0  0  0  0  0  0  0  0  0  0  0  0
   16.7212  -22.2663   20.5070 C   0  0  0  0  0  0  0  0  0  0  0  0
   16.3687  -23.3781   21.2369 C   0  0  0  0  0  0  0  0  0  0  0  0
   16.4756  -27.9988   22.3392 C   0  0  0  0  0  0  0  0  0  0  0  0
   17.5017  -28.3625   22.9588 O   0  0  0  0  0  0  0  0  0  0  0  0
   15.3218  -28.7612   22.5060 O   0  0  0  0  0  0  0  0  0  0  0  0
  2  1  1  6
  2 10  1  0
  2  3  1  0
  4  3  1  0
  4  9  1  0
  5  4  2  0
  6  5  1  0
  6  7  2  0
  7  8  1  0
  8  9  2  0
 10 11  2  0
 12 13  1  0
 12 10  1  0
 14 15  1  0
 13 14  1  6
 16 13  1  0
 16 17  2  0
 18 16  1  0
 19 18  1  0
 19 27  1  0
 19 20  1  1
 21 20  1  0
 21 22  2  0
 23 22  1  0
 24 23  2  0
 25 26  2  0
 25 24  1  0
 26 21  1  0
 27 28  2  0
 27 29  1  0
M  END
$$$$
