FCF.pdb
     RDKit          3D

 29 30  0  0  1  0  0  0  0  0999 V2000
    6.2906  -17.9359   19.9355 N   0  0  0  0  0  0  0  0  0  0  0  0
    7.0230  -16.8762   20.5996 C   0  0  1  0  0  0  0  0  0  0  0  0
    6.1238  -15.6575   20.6420 C   0  0  0  0  0  0  0  0  0  0  0  0
    6.8879  -14.4265   20.9494 C   0  0  0  0  0  0  0  0  0  0  0  0
    6.9405  -13.9018   22.2278 C   0  0  0  0  0  0  0  0  0  0  0  0
    7.6608  -12.7449   22.5066 C   0  0  0  0  0  0  0  0  0  0  0  0
    8.3445  -12.0843   21.5216 C   0  0  0  0  0  0  0  0  0  0  0  0
    8.3071  -12.5883   20.2386 C   0  0  0  0  0  0  0  0  0  0  0  0
    7.5924  -13.7359   19.9626 C   0  0  0  0  0  0  0  0  0  0  0  0
    7.3659  -17.3489   21.9609 C   0  0  0  0  0  0  0  0  0  0  0  0
    6.5295  -17.9694   22.6622 O   0  0  0  0  0  0  0  0  0  0  0  0
    8.6549  -17.1280   22.5475 N   0  0  0  0  0  0  0  0  0  0  0  0
    9.0083  -17.6215   23.8619 C   0  0  1  0  0  0  0  0  0  0  0  0
    9.8044  -18.8980   23.7157 C   0  0  0  0  0  0  0  0  0  0  0  0
   10.1777  -19.5961   25.3478 S   0  0  0  0  0  0  0  0  0  0  0  0
    9.7259  -16.6026   24.6582 C   0  0  0  0  0  0  0  0  0  0  0  0
   10.6635  -15.9592   24.1104 O   0  0  0  0  0  0  0  0  0  0  0  0
    9.4082  -16.3159   26.0089 N   0  0  0  0  0  0  0  0  0  0  0  0
   10.1745  -15.3874   26.8289 C   0  0  1  0  0  0  0  0  0  0  0  0
    9.2503  -14.5907   27.6997 C   0  0  0  0  0  0  0  0  0  0  0  0
    8.2593  -13.7760   26.9843 C   0  0  0  0  0  0  0  0  0  0  0  0
    8.5340  -12.4596   26.5959 C   0  0  0  0  0  0  0  0  0  0  0  0
    7.6083  -11.7048   25.9122 C   0  0  0  0  0  0  0  0  0  0  0  0
    6.3680  -12.1992   25.5742 C   0  0  0  0  0  0  0  0  0  0  0  0
    6.0808  -13.4924   25.9481 C   0  0  0  0  0  0  0  0  0  0  0  0
    7.0019  -14.2523   26.6317 C   0  0  0  0  0  0  0  0  0  0  0  0
   11.1679  -16.0993   27.6572 C   0  0  0  0  0  0  0  0  0  0  0  0
   11.1010  -17.3470   27.7460 O   0  0  0  0  0  0  0  0  0  0  0  0
   12.1897  -15.4606   28.3561 O   0  0  0  0  0  0  0  0  0  0  0  0
  2  1  1  6
  2 10  1  0
  2  3  1  0
  4  3  1  0
  4  9  1  0
  5  4  2  0
  6  5  1  0
  6  7  2  0
  7  8  1  0
  8  9  2  0
 10 11  2  0
 12 13  1  0
 12 10  1  0
 14 15  1  0
 13 14  1  6
 16 13  1  0
 16 17  2  0
 18 16  1  0
 19 18  1  0
 19 27  1  0
 19 20  1  1
 21 20  1  0
 21 22  2  0
 23 22  1  0
 24 23  2  0
 25 26  2  0
 25 24  1  0
 26 21  1  0
 27 28  2  0
 27 29  1  0
M  END
$$$$
