FCF.pdb
     RDKit          3D

 29 30  0  0  1  0  0  0  0  0999 V2000
   10.9237  -16.6937   17.8843 N   0  0  0  0  0  0  0  0  0  0  0  0
   11.2353  -17.5692   18.9963 C   0  0  1  0  0  0  0  0  0  0  0  0
   12.7142  -17.8905   18.9233 C   0  0  0  0  0  0  0  0  0  0  0  0
   13.1268  -18.8097   20.0089 C   0  0  0  0  0  0  0  0  0  0  0  0
   13.8071  -18.3595   21.1255 C   0  0  0  0  0  0  0  0  0  0  0  0
   14.1905  -19.2307   22.1399 C   0  0  0  0  0  0  0  0  0  0  0  0
   13.9063  -20.5679   22.0671 C   0  0  0  0  0  0  0  0  0  0  0  0
   13.2287  -21.0407   20.9631 C   0  0  0  0  0  0  0  0  0  0  0  0
   12.8486  -20.1761   19.9571 C   0  0  0  0  0  0  0  0  0  0  0  0
   10.8940  -16.8509   20.2459 C   0  0  0  0  0  0  0  0  0  0  0  0
   11.2987  -15.6804   20.4528 O   0  0  0  0  0  0  0  0  0  0  0  0
   10.0930  -17.4429   21.2766 N   0  0  0  0  0  0  0  0  0  0  0  0
    9.7639  -16.7488   22.5038 C   0  0  1  0  0  0  0  0  0  0  0  0
    8.2785  -16.8658   22.7578 C   0  0  0  0  0  0  0  0  0  0  0  0
    7.9751  -17.7239   24.3268 S   0  0  0  0  0  0  0  0  0  0  0  0
   10.5671  -17.2376   23.6454 C   0  0  0  0  0  0  0  0  0  0  0  0
   10.9414  -18.4431   23.6474 O   0  0  0  0  0  0  0  0  0  0  0  0
   10.9355  -16.4134   24.7374 N   0  0  0  0  0  0  0  0  0  0  0  0
   11.8102  -16.8590   25.8137 C   0  0  1  0  0  0  0  0  0  0  0  0
   12.2310  -15.6878   26.6493 C   0  0  0  0  0  0  0  0  0  0  0  0
   11.1597  -15.0559   27.4306 C   0  0  0  0  0  0  0  0  0  0  0  0
   10.2359  -14.1858   26.8399 C   0  0  0  0  0  0  0  0  0  0  0  0
    9.2242  -13.6078   27.5724 C   0  0  0  0  0  0  0  0  0  0  0  0
    9.0651  -13.8514   28.9186 C   0  0  0  0  0  0  0  0  0  0  0  0
    9.9647  -14.7049   29.5160 C   0  0  0  0  0  0  0  0  0  0  0  0
   10.9783  -15.2862   28.7894 C   0  0  0  0  0  0  0  0  0  0  0  0
   11.1474  -17.8743   26.6561 C   0  0  0  0  0  0  0  0  0  0  0  0
   11.8201  -18.4720   27.5276 O   0  0  0  0  0  0  0  0  0  0  0  0
    9.8014  -18.2137   26.5404 O   0  0  0  0  0  0  0  0  0  0  0  0
  2  1  1  6
  2 10  1  0
  2  3  1  0
  4  3  1  0
  4  9  1  0
  5  4  2  0
  6  5  1  0
  6  7  2  0
  7  8  1  0
  8  9  2  0
 10 11  2  0
 12 13  1  0
 12 10  1  0
 14 15  1  0
 13 14  1  1
 16 13  1  0
 16 17  2  0
 18 16  1  0
 19 18  1  0
 19 27  1  0
 19 20  1  1
 21 20  1  0
 21 22  2  0
 23 22  1  0
 24 23  2  0
 25 26  2  0
 25 24  1  0
 26 21  1  0
 27 28  2  0
 27 29  1  0
M  END
$$$$
