WQD.pdb
     RDKit          3D

 32 33  0  0  1  0  0  0  0  0999 V2000
   26.7937  -21.7659  -14.7108 N   0  0  0  0  0  0  0  0  0  0  0  0
   25.4946  -21.8623  -15.3503 C   0  0  1  0  0  0  0  0  0  0  0  0
   25.3382  -23.0998  -16.1541 C   0  0  0  0  0  0  0  0  0  0  0  0
   26.5357  -23.6021  -16.8180 C   0  0  0  0  0  0  0  0  0  0  0  0
   27.1872  -22.8913  -17.8355 C   0  0  0  0  0  0  0  0  0  0  0  0
   28.2588  -23.5916  -18.2366 N   0  0  0  0  0  0  0  0  0  0  0  0
   28.3572  -24.7467  -17.5314 C   0  0  0  0  0  0  0  0  0  0  0  0
   29.2735  -25.7719  -17.5897 C   0  0  0  0  0  0  0  0  0  0  0  0
   29.1437  -26.8548  -16.7537 C   0  0  0  0  0  0  0  0  0  0  0  0
   28.0798  -26.8624  -15.8787 C   0  0  0  0  0  0  0  0  0  0  0  0
   27.1636  -25.8347  -15.8219 C   0  0  0  0  0  0  0  0  0  0  0  0
   27.2808  -24.7365  -16.6571 C   0  0  0  0  0  0  0  0  0  0  0  0
   24.3716  -21.5426  -14.4578 C   0  0  0  0  0  0  0  0  0  0  0  0
   24.3863  -21.9796  -13.2788 O   0  0  0  0  0  0  0  0  0  0  0  0
   19.5876  -17.3777  -15.1157 N   0  0  0  0  0  0  0  0  0  0  0  0
   19.5568  -17.7399  -13.7172 C   0  0  0  0  0  0  0  0  0  0  0  0
   18.6022  -17.2741  -13.0592 O   0  0  0  0  0  0  0  0  0  0  0  0
   20.6090  -18.6106  -13.1615 C   0  0  0  0  0  0  0  0  0  0  0  0
   21.6823  -19.0032  -14.1058 C   0  0  0  0  0  0  0  0  0  0  0  0
   22.1556  -20.4219  -14.0093 C   0  0  2  0  0  0  0  0  0  0  0  0
   23.2554  -20.7509  -14.8598 N   0  0  0  0  0  0  0  0  0  0  0  0
   21.0200  -21.3810  -14.2453 C   0  0  0  0  0  0  0  0  0  0  0  0
   20.7117  -21.7697  -15.4007 O   0  0  0  0  0  0  0  0  0  0  0  0
   20.2517  -21.8826  -13.1528 N   0  0  0  0  0  0  0  0  0  0  0  0
   19.1743  -22.7837  -13.4086 C   0  0  1  0  0  0  0  0  0  0  0  0
   18.9785  -23.7461  -12.2450 C   0  0  0  0  0  0  0  0  0  0  0  0
   18.0774  -24.8647  -12.6007 C   0  0  0  0  0  0  0  0  0  0  0  0
   17.4943  -24.8088  -13.7031 O   0  0  0  0  0  0  0  0  0  0  0  0
   17.9195  -22.0289  -13.6633 C   0  0  0  0  0  0  0  0  0  0  0  0
   17.2081  -22.3144  -14.8216 O   0  0  0  0  0  0  0  0  0  0  0  0
   17.8382  -25.9630  -11.7982 O   0  0  0  0  0  0  0  0  0  0  0  0
   17.4772  -21.1555  -12.8900 O   0  0  0  0  0  0  0  0  0  0  0  0
  2  1  1  1
  2  3  1  0
  3  4  1  0
  4  5  2  0
  5  6  1  0
  7  6  1  0
  8  7  2  0
  9  8  1  0
 10 11  1  0
 10  9  2  0
 11 12  2  0
 12  4  1  0
 12  7  1  0
 13 21  1  0
 13  2  1  0
 14 13  2  0
 16 17  2  0
 16 15  1  0
 18 16  1  0
 19 18  1  0
 20 21  1  0
 20 19  1  6
 22 20  1  0
 23 22  2  0
 24 22  1  0
 25 29  1  0
 25 24  1  0
 26 27  1  0
 25 26  1  1
 27 28  2  0
 29 30  1  0
 31 27  1  0
 32 29  2  0
M  END
$$$$
