WQD.pdb
     RDKit          3D

 32 33  0  0  1  0  0  0  0  0999 V2000
   23.8180  -18.8160  -18.1101 N   0  0  0  0  0  0  0  0  0  0  0  0
   22.5774  -18.3723  -17.5019 C   0  0  1  0  0  0  0  0  0  0  0  0
   21.5990  -17.8623  -18.4943 C   0  0  0  0  0  0  0  0  0  0  0  0
   22.0167  -16.7152  -19.2921 C   0  0  0  0  0  0  0  0  0  0  0  0
   22.8585  -16.8388  -20.4062 C   0  0  0  0  0  0  0  0  0  0  0  0
   23.0505  -15.6240  -20.9420 N   0  0  0  0  0  0  0  0  0  0  0  0
   22.3727  -14.6851  -20.2348 C   0  0  0  0  0  0  0  0  0  0  0  0
   22.2705  -13.3224  -20.3983 C   0  0  0  0  0  0  0  0  0  0  0  0
   21.5096  -12.5830  -19.5250 C   0  0  0  0  0  0  0  0  0  0  0  0
   20.8721  -13.2557  -18.5057 C   0  0  0  0  0  0  0  0  0  0  0  0
   20.9759  -14.6203  -18.3440 C   0  0  0  0  0  0  0  0  0  0  0  0
   21.7381  -15.3793  -19.2159 C   0  0  0  0  0  0  0  0  0  0  0  0
   22.0381  -19.3106  -16.5077 C   0  0  0  0  0  0  0  0  0  0  0  0
   21.7459  -20.4794  -16.8680 O   0  0  0  0  0  0  0  0  0  0  0  0
   18.7798  -20.5632  -10.3068 N   0  0  0  0  0  0  0  0  0  0  0  0
   19.7411  -19.7381  -11.0016 C   0  0  0  0  0  0  0  0  0  0  0  0
   19.5564  -18.5052  -10.9171 O   0  0  0  0  0  0  0  0  0  0  0  0
   20.8502  -20.3681  -11.7413 C   0  0  0  0  0  0  0  0  0  0  0  0
   21.5155  -19.5120  -12.7524 C   0  0  0  0  0  0  0  0  0  0  0  0
   21.1920  -19.8141  -14.1843 C   0  0  2  0  0  0  0  0  0  0  0  0
   21.8298  -18.9647  -15.1398 N   0  0  0  0  0  0  0  0  0  0  0  0
   19.7037  -19.8103  -14.4077 C   0  0  0  0  0  0  0  0  0  0  0  0
   19.0693  -18.7458  -14.6205 O   0  0  0  0  0  0  0  0  0  0  0  0
   18.9610  -21.0283  -14.3844 N   0  0  0  0  0  0  0  0  0  0  0  0
   17.5633  -21.0028  -14.6742 C   0  0  1  0  0  0  0  0  0  0  0  0
   17.1729  -22.1580  -15.5863 C   0  0  0  0  0  0  0  0  0  0  0  0
   17.3503  -23.4686  -14.9224 C   0  0  0  0  0  0  0  0  0  0  0  0
   17.7513  -23.4678  -13.7402 O   0  0  0  0  0  0  0  0  0  0  0  0
   16.7740  -21.0569  -13.4159 C   0  0  0  0  0  0  0  0  0  0  0  0
   15.3947  -20.9188  -13.5025 O   0  0  0  0  0  0  0  0  0  0  0  0
   17.1032  -24.6889  -15.5201 O   0  0  0  0  0  0  0  0  0  0  0  0
   17.2892  -21.2198  -12.2914 O   0  0  0  0  0  0  0  0  0  0  0  0
  2  1  1  6
  2  3  1  0
  3  4  1  0
  4  5  2  0
  5  6  1  0
  7  6  1  0
  8  7  2  0
  9  8  1  0
 10 11  1  0
 10  9  2  0
 11 12  2  0
 12  4  1  0
 12  7  1  0
 13 21  1  0
 13  2  1  0
 14 13  2  0
 16 17  2  0
 16 15  1  0
 18 16  1  0
 19 18  1  0
 20 21  1  0
 20 19  1  1
 22 20  1  0
 23 22  2  0
 24 22  1  0
 25 29  1  0
 25 24  1  0
 26 27  1  0
 25 26  1  6
 27 28  2  0
 29 30  1  0
 31 27  1  0
 32 29  2  0
M  END
$$$$
