WQD.pdb
     RDKit          3D

 32 33  0  0  1  0  0  0  0  0999 V2000
   24.0360  -17.1699  -19.7909 N   0  0  0  0  0  0  0  0  0  0  0  0
   24.0783  -16.7520  -18.4018 C   0  0  1  0  0  0  0  0  0  0  0  0
   23.1269  -15.6536  -18.1011 C   0  0  0  0  0  0  0  0  0  0  0  0
   23.2310  -14.4561  -18.9269 C   0  0  0  0  0  0  0  0  0  0  0  0
   22.1057  -13.7597  -19.3894 C   0  0  0  0  0  0  0  0  0  0  0  0
   22.5142  -12.7000  -20.1034 N   0  0  0  0  0  0  0  0  0  0  0  0
   23.8697  -12.6527  -20.1421 C   0  0  0  0  0  0  0  0  0  0  0  0
   24.7313  -11.7660  -20.7468 C   0  0  0  0  0  0  0  0  0  0  0  0
   26.0890  -11.9476  -20.6374 C   0  0  0  0  0  0  0  0  0  0  0  0
   26.5321  -13.0318  -19.9123 C   0  0  0  0  0  0  0  0  0  0  0  0
   25.6676  -13.9184  -19.3075 C   0  0  0  0  0  0  0  0  0  0  0  0
   24.2970  -13.7488  -19.4080 C   0  0  0  0  0  0  0  0  0  0  0  0
   24.0743  -17.8701  -17.4481 C   0  0  0  0  0  0  0  0  0  0  0  0
   23.3838  -18.8890  -17.7060 O   0  0  0  0  0  0  0  0  0  0  0  0
   26.1596  -21.7855  -14.5483 N   0  0  0  0  0  0  0  0  0  0  0  0
   27.2881  -21.0191  -15.0246 C   0  0  0  0  0  0  0  0  0  0  0  0
   28.2268  -21.6849  -15.5113 O   0  0  0  0  0  0  0  0  0  0  0  0
   27.2727  -19.5484  -14.9208 C   0  0  0  0  0  0  0  0  0  0  0  0
   26.0274  -18.9565  -14.3759 C   0  0  0  0  0  0  0  0  0  0  0  0
   24.8471  -18.9441  -15.2994 C   0  0  2  0  0  0  0  0  0  0  0  0
   24.8229  -17.8638  -16.2341 N   0  0  0  0  0  0  0  0  0  0  0  0
   23.5595  -18.9775  -14.5209 C   0  0  0  0  0  0  0  0  0  0  0  0
   23.2970  -18.1202  -13.6393 O   0  0  0  0  0  0  0  0  0  0  0  0
   22.5885  -19.9943  -14.7632 N   0  0  0  0  0  0  0  0  0  0  0  0
   21.3653  -19.9854  -14.0270 C   0  0  1  0  0  0  0  0  0  0  0  0
   20.2572  -19.3010  -14.8160 C   0  0  0  0  0  0  0  0  0  0  0  0
   18.9633  -19.3434  -14.0992 C   0  0  0  0  0  0  0  0  0  0  0  0
   18.9913  -19.2847  -12.8526 O   0  0  0  0  0  0  0  0  0  0  0  0
   20.9620  -21.3730  -13.6793 C   0  0  0  0  0  0  0  0  0  0  0  0
   20.1709  -21.5615  -12.5533 O   0  0  0  0  0  0  0  0  0  0  0  0
   17.7306  -19.4436  -14.7140 O   0  0  0  0  0  0  0  0  0  0  0  0
   21.2986  -22.3713  -14.3474 O   0  0  0  0  0  0  0  0  0  0  0  0
  2  1  1  6
  2  3  1  0
  3  4  1  0
  4  5  2  0
  5  6  1  0
  7  6  1  0
  8  7  2  0
  9  8  1  0
 10 11  1  0
 10  9  2  0
 11 12  2  0
 12  4  1  0
 12  7  1  0
 13 21  1  0
 13  2  1  0
 14 13  2  0
 16 17  2  0
 16 15  1  0
 18 16  1  0
 19 18  1  0
 20 21  1  0
 20 19  1  1
 22 20  1  0
 23 22  2  0
 24 22  1  0
 25 29  1  0
 25 24  1  0
 26 27  1  0
 25 26  1  6
 27 28  2  0
 29 30  1  0
 31 27  1  0
 32 29  2  0
M  END
$$$$
