WQD.pdb
     RDKit          3D

 32 33  0  0  1  0  0  0  0  0999 V2000
   27.5138  -19.5961  -12.2593 N   0  0  0  0  0  0  0  0  0  0  0  0
   26.7095  -20.7525  -11.9099 C   0  0  1  0  0  0  0  0  0  0  0  0
   26.1691  -20.6830  -10.5297 C   0  0  0  0  0  0  0  0  0  0  0  0
   27.1299  -20.4159   -9.4656 C   0  0  0  0  0  0  0  0  0  0  0  0
   26.8169  -19.6301   -8.3477 C   0  0  0  0  0  0  0  0  0  0  0  0
   27.8867  -19.5789   -7.5399 N   0  0  0  0  0  0  0  0  0  0  0  0
   28.9095  -20.2980   -8.0670 C   0  0  0  0  0  0  0  0  0  0  0  0
   30.1864  -20.5319   -7.6098 C   0  0  0  0  0  0  0  0  0  0  0  0
   31.0475  -21.3064   -8.3494 C   0  0  0  0  0  0  0  0  0  0  0  0
   30.5814  -21.8224   -9.5386 C   0  0  0  0  0  0  0  0  0  0  0  0
   29.3025  -21.5870   -9.9944 C   0  0  0  0  0  0  0  0  0  0  0  0
   28.4227  -20.8093   -9.2605 C   0  0  0  0  0  0  0  0  0  0  0  0
   25.7427  -21.1352  -12.9485 C   0  0  0  0  0  0  0  0  0  0  0  0
   25.1788  -20.2330  -13.6187 O   0  0  0  0  0  0  0  0  0  0  0  0
   26.0224  -25.7344  -16.5959 N   0  0  0  0  0  0  0  0  0  0  0  0
   24.6268  -25.4631  -16.8536 C   0  0  0  0  0  0  0  0  0  0  0  0
   24.1910  -25.8695  -17.9519 O   0  0  0  0  0  0  0  0  0  0  0  0
   23.8189  -24.7533  -15.8449 C   0  0  0  0  0  0  0  0  0  0  0  0
   24.5387  -24.3518  -14.6126 C   0  0  0  0  0  0  0  0  0  0  0  0
   24.5177  -22.8892  -14.2865 C   0  0  2  0  0  0  0  0  0  0  0  0
   25.4087  -22.4901  -13.2434 N   0  0  0  0  0  0  0  0  0  0  0  0
   23.1192  -22.4330  -13.9687 C   0  0  0  0  0  0  0  0  0  0  0  0
   22.6710  -22.4427  -12.7939 O   0  0  0  0  0  0  0  0  0  0  0  0
   22.2515  -21.9711  -15.0027 N   0  0  0  0  0  0  0  0  0  0  0  0
   20.9405  -21.5165  -14.6669 C   0  0  1  0  0  0  0  0  0  0  0  0
   20.5715  -20.2736  -15.4656 C   0  0  0  0  0  0  0  0  0  0  0  0
   19.2060  -19.7998  -15.1481 C   0  0  0  0  0  0  0  0  0  0  0  0
   18.4545  -19.5198  -16.1048 O   0  0  0  0  0  0  0  0  0  0  0  0
   19.9436  -22.5924  -14.9076 C   0  0  0  0  0  0  0  0  0  0  0  0
   18.7813  -22.5892  -14.1471 O   0  0  0  0  0  0  0  0  0  0  0  0
   18.7081  -19.6465  -13.8690 O   0  0  0  0  0  0  0  0  0  0  0  0
   20.1005  -23.4935  -15.7559 O   0  0  0  0  0  0  0  0  0  0  0  0
  2  1  1  6
  2  3  1  0
  3  4  1  0
  4  5  2  0
  5  6  1  0
  7  6  1  0
  8  7  2  0
  9  8  1  0
 10 11  1  0
 10  9  2  0
 11 12  2  0
 12  4  1  0
 12  7  1  0
 13 21  1  0
 13  2  1  0
 14 13  2  0
 16 17  2  0
 16 15  1  0
 18 16  1  0
 19 18  1  0
 20 21  1  0
 20 19  1  1
 22 20  1  0
 23 22  2  0
 24 22  1  0
 25 29  1  0
 25 24  1  0
 26 27  1  0
 25 26  1  6
 27 28  2  0
 29 30  1  0
 31 27  1  0
 32 29  2  0
M  END
$$$$
