WQD.pdb
     RDKit          3D

 32 33  0  0  1  0  0  0  0  0999 V2000
   23.2199  -20.0034  -18.6812 N   0  0  0  0  0  0  0  0  0  0  0  0
   21.9797  -19.4206  -18.2032 C   0  0  1  0  0  0  0  0  0  0  0  0
   20.9857  -19.2130  -19.2852 C   0  0  0  0  0  0  0  0  0  0  0  0
   21.1781  -18.0410  -20.1317 C   0  0  0  0  0  0  0  0  0  0  0  0
   22.4407  -17.6447  -20.5940 C   0  0  0  0  0  0  0  0  0  0  0  0
   22.2996  -16.5512  -21.3583 N   0  0  0  0  0  0  0  0  0  0  0  0
   20.9928  -16.1929  -21.4306 C   0  0  0  0  0  0  0  0  0  0  0  0
   20.3702  -15.1535  -22.0834 C   0  0  0  0  0  0  0  0  0  0  0  0
   19.0072  -15.0053  -21.9912 C   0  0  0  0  0  0  0  0  0  0  0  0
   18.3145  -15.9238  -21.2334 C   0  0  0  0  0  0  0  0  0  0  0  0
   18.9400  -16.9638  -20.5807 C   0  0  0  0  0  0  0  0  0  0  0  0
   20.3125  -17.1272  -20.6643 C   0  0  0  0  0  0  0  0  0  0  0  0
   21.4616  -20.0534  -16.9822 C   0  0  0  0  0  0  0  0  0  0  0  0
   21.2847  -21.2983  -16.9687 O   0  0  0  0  0  0  0  0  0  0  0  0
   20.2302  -19.4058   -9.5845 N   0  0  0  0  0  0  0  0  0  0  0  0
   20.5499  -18.8605  -10.8838 C   0  0  0  0  0  0  0  0  0  0  0  0
   20.9828  -17.6883  -10.8864 O   0  0  0  0  0  0  0  0  0  0  0  0
   20.3614  -19.6844  -12.0920 C   0  0  0  0  0  0  0  0  0  0  0  0
   20.8062  -19.0682  -13.3650 C   0  0  0  0  0  0  0  0  0  0  0  0
   20.6686  -19.9199  -14.5904 C   0  0  2  0  0  0  0  0  0  0  0  0
   21.1490  -19.3243  -15.7969 N   0  0  0  0  0  0  0  0  0  0  0  0
   19.2433  -20.3679  -14.7720 C   0  0  0  0  0  0  0  0  0  0  0  0
   18.4101  -19.6794  -15.4145 O   0  0  0  0  0  0  0  0  0  0  0  0
   18.7911  -21.6007  -14.2142 N   0  0  0  0  0  0  0  0  0  0  0  0
   17.4521  -22.0315  -14.4585 C   0  0  1  0  0  0  0  0  0  0  0  0
   17.3967  -23.5338  -14.7012 C   0  0  0  0  0  0  0  0  0  0  0  0
   16.0267  -23.9895  -15.0253 C   0  0  0  0  0  0  0  0  0  0  0  0
   15.1142  -23.1378  -15.0037 O   0  0  0  0  0  0  0  0  0  0  0  0
   16.5757  -21.6667  -13.3149 C   0  0  0  0  0  0  0  0  0  0  0  0
   17.1631  -21.0778  -12.2024 O   0  0  0  0  0  0  0  0  0  0  0  0
   15.6899  -25.2892  -15.3489 O   0  0  0  0  0  0  0  0  0  0  0  0
   15.3437  -21.8634  -13.3068 O   0  0  0  0  0  0  0  0  0  0  0  0
  2  1  1  6
  2  3  1  0
  3  4  1  0
  4  5  2  0
  5  6  1  0
  7  6  1  0
  8  7  2  0
  9  8  1  0
 10 11  1  0
 10  9  2  0
 11 12  2  0
 12  4  1  0
 12  7  1  0
 13 21  1  0
 13  2  1  0
 14 13  2  0
 16 17  2  0
 16 15  1  0
 18 16  1  0
 19 18  1  0
 20 21  1  0
 20 19  1  1
 22 20  1  0
 23 22  2  0
 24 22  1  0
 25 29  1  0
 25 24  1  0
 26 27  1  0
 25 26  1  1
 27 28  2  0
 29 30  1  0
 31 27  1  0
 32 29  2  0
M  END
$$$$
