WQD.pdb
     RDKit          3D

 32 33  0  0  1  0  0  0  0  0999 V2000
   26.0571  -22.9097  -12.2736 N   0  0  0  0  0  0  0  0  0  0  0  0
   25.4479  -21.6305  -11.9594 C   0  0  1  0  0  0  0  0  0  0  0  0
   26.4363  -20.5271  -11.8731 C   0  0  0  0  0  0  0  0  0  0  0  0
   27.4839  -20.6669  -10.8682 C   0  0  0  0  0  0  0  0  0  0  0  0
   28.7792  -21.0990  -11.1853 C   0  0  0  0  0  0  0  0  0  0  0  0
   29.5190  -21.1111  -10.0663 N   0  0  0  0  0  0  0  0  0  0  0  0
   28.7757  -20.7050   -9.0062 C   0  0  0  0  0  0  0  0  0  0  0  0
   29.0938  -20.5610   -7.6750 C   0  0  0  0  0  0  0  0  0  0  0  0
   28.1393  -20.1295   -6.7855 C   0  0  0  0  0  0  0  0  0  0  0  0
   26.8828  -19.8562   -7.2796 C   0  0  0  0  0  0  0  0  0  0  0  0
   26.5665  -20.0011   -8.6129 C   0  0  0  0  0  0  0  0  0  0  0  0
   27.5172  -20.4342   -9.5218 C   0  0  0  0  0  0  0  0  0  0  0  0
   24.2436  -21.3396  -12.7499 C   0  0  0  0  0  0  0  0  0  0  0  0
   24.1692  -21.7710  -13.9287 O   0  0  0  0  0  0  0  0  0  0  0  0
   18.5098  -20.6765  -10.1614 N   0  0  0  0  0  0  0  0  0  0  0  0
   19.2473  -21.8887  -10.4343 C   0  0  0  0  0  0  0  0  0  0  0  0
   18.8591  -22.9068   -9.8228 O   0  0  0  0  0  0  0  0  0  0  0  0
   20.3725  -21.8642  -11.3868 C   0  0  0  0  0  0  0  0  0  0  0  0
   20.6864  -20.5403  -11.9755 C   0  0  0  0  0  0  0  0  0  0  0  0
   21.8706  -20.4934  -12.8929 C   0  0  2  0  0  0  0  0  0  0  0  0
   23.1405  -20.5894  -12.2453 N   0  0  0  0  0  0  0  0  0  0  0  0
   21.8278  -19.2624  -13.7577 C   0  0  0  0  0  0  0  0  0  0  0  0
   22.1175  -18.1255  -13.3051 O   0  0  0  0  0  0  0  0  0  0  0  0
   21.4531  -19.3505  -15.1315 N   0  0  0  0  0  0  0  0  0  0  0  0
   21.4196  -18.1651  -15.9265 C   0  0  1  0  0  0  0  0  0  0  0  0
   21.9104  -18.4417  -17.3412 C   0  0  0  0  0  0  0  0  0  0  0  0
   21.8473  -17.2329  -18.1925 C   0  0  0  0  0  0  0  0  0  0  0  0
   22.1417  -16.1397  -17.6664 O   0  0  0  0  0  0  0  0  0  0  0  0
   20.0424  -17.6073  -15.9640 C   0  0  0  0  0  0  0  0  0  0  0  0
   19.8973  -16.2297  -16.0653 O   0  0  0  0  0  0  0  0  0  0  0  0
   21.4858  -17.2320  -19.5255 O   0  0  0  0  0  0  0  0  0  0  0  0
   19.0160  -18.3143  -15.9090 O   0  0  0  0  0  0  0  0  0  0  0  0
  2  1  1  6
  2  3  1  0
  3  4  1  0
  4  5  2  0
  5  6  1  0
  7  6  1  0
  8  7  2  0
  9  8  1  0
 10 11  1  0
 10  9  2  0
 11 12  2  0
 12  4  1  0
 12  7  1  0
 13 21  1  0
 13  2  1  0
 14 13  2  0
 16 17  2  0
 16 15  1  0
 18 16  1  0
 19 18  1  0
 20 21  1  0
 20 19  1  1
 22 20  1  0
 23 22  2  0
 24 22  1  0
 25 29  1  0
 25 24  1  0
 26 27  1  0
 25 26  1  6
 27 28  2  0
 29 30  1  0
 31 27  1  0
 32 29  2  0
M  END
$$$$
