WQD.pdb
     RDKit          3D

 32 33  0  0  1  0  0  0  0  0999 V2000
   22.7502  -19.2412  -18.2942 N   0  0  0  0  0  0  0  0  0  0  0  0
   23.1787  -18.5582  -17.0876 C   0  0  1  0  0  0  0  0  0  0  0  0
   22.0614  -17.8899  -16.3758 C   0  0  0  0  0  0  0  0  0  0  0  0
   21.3656  -16.8328  -17.1005 C   0  0  0  0  0  0  0  0  0  0  0  0
   19.9808  -16.8532  -17.3169 C   0  0  0  0  0  0  0  0  0  0  0  0
   19.6305  -15.7481  -17.9920 N   0  0  0  0  0  0  0  0  0  0  0  0
   20.7228  -14.9823  -18.2405 C   0  0  0  0  0  0  0  0  0  0  0  0
   20.8594  -13.7792  -18.8946 C   0  0  0  0  0  0  0  0  0  0  0  0
   22.1012  -13.2038  -19.0177 C   0  0  0  0  0  0  0  0  0  0  0  0
   23.1727  -13.8732  -18.4687 C   0  0  0  0  0  0  0  0  0  0  0  0
   23.0336  -15.0777  -17.8140 C   0  0  0  0  0  0  0  0  0  0  0  0
   21.7890  -15.6701  -17.6811 C   0  0  0  0  0  0  0  0  0  0  0  0
   24.0771  -19.3582  -16.2433 C   0  0  0  0  0  0  0  0  0  0  0  0
   23.8216  -20.5764  -16.0644 O   0  0  0  0  0  0  0  0  0  0  0  0
   28.3166  -21.8270  -15.4239 N   0  0  0  0  0  0  0  0  0  0  0  0
   28.6150  -20.7991  -16.3945 C   0  0  0  0  0  0  0  0  0  0  0  0
   29.1757  -21.1898  -17.4405 O   0  0  0  0  0  0  0  0  0  0  0  0
   28.2519  -19.3977  -16.1143 C   0  0  0  0  0  0  0  0  0  0  0  0
   27.5554  -19.1602  -14.8273 C   0  0  0  0  0  0  0  0  0  0  0  0
   26.1163  -19.5751  -14.7729 C   0  0  2  0  0  0  0  0  0  0  0  0
   25.2386  -18.8226  -15.6122 N   0  0  0  0  0  0  0  0  0  0  0  0
   25.6092  -19.5595  -13.3559 C   0  0  0  0  0  0  0  0  0  0  0  0
   25.5519  -18.4974  -12.6854 O   0  0  0  0  0  0  0  0  0  0  0  0
   25.1739  -20.7629  -12.7253 N   0  0  0  0  0  0  0  0  0  0  0  0
   24.7315  -20.7231  -11.3685 C   0  0  1  0  0  0  0  0  0  0  0  0
   23.4507  -21.5264  -11.1872 C   0  0  0  0  0  0  0  0  0  0  0  0
   22.2829  -20.8449  -11.7886 C   0  0  0  0  0  0  0  0  0  0  0  0
   22.4683  -19.7182  -12.2934 O   0  0  0  0  0  0  0  0  0  0  0  0
   25.7913  -21.2415  -10.4645 C   0  0  0  0  0  0  0  0  0  0  0  0
   25.6153  -21.0887   -9.0951 O   0  0  0  0  0  0  0  0  0  0  0  0
   21.0058  -21.3689  -11.8292 O   0  0  0  0  0  0  0  0  0  0  0  0
   26.8261  -21.8044  -10.8752 O   0  0  0  0  0  0  0  0  0  0  0  0
  2  1  1  6
  2  3  1  0
  3  4  1  0
  4  5  2  0
  5  6  1  0
  7  6  1  0
  8  7  2  0
  9  8  1  0
 10 11  1  0
 10  9  2  0
 11 12  2  0
 12  4  1  0
 12  7  1  0
 13 21  1  0
 13  2  1  0
 14 13  2  0
 16 17  2  0
 16 15  1  0
 18 16  1  0
 19 18  1  0
 20 21  1  0
 20 19  1  1
 22 20  1  0
 23 22  2  0
 24 22  1  0
 25 29  1  0
 25 24  1  0
 26 27  1  0
 25 26  1  6
 27 28  2  0
 29 30  1  0
 31 27  1  0
 32 29  2  0
M  END
$$$$
