WQD.pdb
     RDKit          3D

 32 33  0  0  1  0  0  0  0  0999 V2000
   20.9180  -10.1771  -14.7425 N   0  0  0  0  0  0  0  0  0  0  0  0
   20.0122   -9.3808  -15.5497 C   0  0  1  0  0  0  0  0  0  0  0  0
   18.7064  -10.0475  -15.7784 C   0  0  0  0  0  0  0  0  0  0  0  0
   18.7512  -11.4057  -16.3078 C   0  0  0  0  0  0  0  0  0  0  0  0
   18.4493  -12.5294  -15.5259 C   0  0  0  0  0  0  0  0  0  0  0  0
   18.5594  -13.6293  -16.2859 N   0  0  0  0  0  0  0  0  0  0  0  0
   18.9237  -13.2940  -17.5493 C   0  0  0  0  0  0  0  0  0  0  0  0
   19.1591  -14.0677  -18.6629 C   0  0  0  0  0  0  0  0  0  0  0  0
   19.5285  -13.4722  -19.8449 C   0  0  0  0  0  0  0  0  0  0  0  0
   19.6481  -12.0999  -19.8588 C   0  0  0  0  0  0  0  0  0  0  0  0
   19.4118  -11.3272  -18.7426 C   0  0  0  0  0  0  0  0  0  0  0  0
   19.0383  -11.9120  -17.5444 C   0  0  0  0  0  0  0  0  0  0  0  0
   19.9388   -7.9716  -15.1392 C   0  0  0  0  0  0  0  0  0  0  0  0
   19.7394   -7.6990  -13.9279 O   0  0  0  0  0  0  0  0  0  0  0  0
   22.2932   -2.9454  -18.2737 N   0  0  0  0  0  0  0  0  0  0  0  0
   22.9832   -3.8839  -17.4189 C   0  0  0  0  0  0  0  0  0  0  0  0
   24.2262   -3.9145  -17.5421 O   0  0  0  0  0  0  0  0  0  0  0  0
   22.2158   -4.7209  -16.4782 C   0  0  0  0  0  0  0  0  0  0  0  0
   20.7437   -4.5508  -16.5217 C   0  0  0  0  0  0  0  0  0  0  0  0
   19.9469   -5.5088  -15.6891 C   0  0  2  0  0  0  0  0  0  0  0  0
   20.0874   -6.8841  -16.0499 N   0  0  0  0  0  0  0  0  0  0  0  0
   18.4912   -5.1269  -15.6815 C   0  0  0  0  0  0  0  0  0  0  0  0
   17.6371   -5.7617  -16.3515 O   0  0  0  0  0  0  0  0  0  0  0  0
   18.0327   -4.0212  -14.9053 N   0  0  0  0  0  0  0  0  0  0  0  0
   16.6589   -3.6388  -14.9728 C   0  0  1  0  0  0  0  0  0  0  0  0
   15.7521   -4.7753  -14.5204 C   0  0  0  0  0  0  0  0  0  0  0  0
   14.3380   -4.3490  -14.4287 C   0  0  0  0  0  0  0  0  0  0  0  0
   13.8070   -3.8835  -15.4581 O   0  0  0  0  0  0  0  0  0  0  0  0
   16.4176   -2.4312  -14.1405 C   0  0  0  0  0  0  0  0  0  0  0  0
   15.2116   -1.7599  -14.2959 O   0  0  0  0  0  0  0  0  0  0  0  0
   13.5683   -4.4305  -13.2849 O   0  0  0  0  0  0  0  0  0  0  0  0
   17.2428   -1.9943  -13.3131 O   0  0  0  0  0  0  0  0  0  0  0  0
  2  1  1  1
  2  3  1  0
  3  4  1  0
  4  5  2  0
  5  6  1  0
  7  6  1  0
  8  7  2  0
  9  8  1  0
 10 11  1  0
 10  9  2  0
 11 12  2  0
 12  4  1  0
 12  7  1  0
 13 21  1  0
 13  2  1  0
 14 13  2  0
 16 17  2  0
 16 15  1  0
 18 16  1  0
 19 18  1  0
 20 21  1  0
 20 19  1  6
 22 20  1  0
 23 22  2  0
 24 22  1  0
 25 29  1  0
 25 24  1  0
 26 27  1  0
 25 26  1  1
 27 28  2  0
 29 30  1  0
 31 27  1  0
 32 29  2  0
M  END
$$$$
