WQD.pdb
     RDKit          3D

 32 33  0  0  1  0  0  0  0  0999 V2000
   24.4439  -19.4789   -8.3429 N   0  0  0  0  0  0  0  0  0  0  0  0
   25.5009  -20.1689   -9.0590 C   0  0  1  0  0  0  0  0  0  0  0  0
   26.1155  -21.2624   -8.2664 C   0  0  0  0  0  0  0  0  0  0  0  0
   26.5201  -20.9331   -6.9045 C   0  0  0  0  0  0  0  0  0  0  0  0
   25.6421  -21.0221   -5.8153 C   0  0  0  0  0  0  0  0  0  0  0  0
   26.2993  -20.6751   -4.6985 N   0  0  0  0  0  0  0  0  0  0  0  0
   27.5854  -20.3550   -4.9893 C   0  0  0  0  0  0  0  0  0  0  0  0
   28.6233  -19.9421   -4.1853 C   0  0  0  0  0  0  0  0  0  0  0  0
   29.8519  -19.6713   -4.7381 C   0  0  0  0  0  0  0  0  0  0  0  0
   29.9886  -19.8293   -6.0997 C   0  0  0  0  0  0  0  0  0  0  0  0
   28.9480  -20.2429   -6.9029 C   0  0  0  0  0  0  0  0  0  0  0  0
   27.7043  -20.5203   -6.3610 C   0  0  0  0  0  0  0  0  0  0  0  0
   25.1491  -20.5130  -10.4438 C   0  0  0  0  0  0  0  0  0  0  0  0
   23.9369  -20.6507  -10.7487 O   0  0  0  0  0  0  0  0  0  0  0  0
   29.7428  -19.0959  -14.7224 N   0  0  0  0  0  0  0  0  0  0  0  0
   28.5124  -18.9495  -15.4657 C   0  0  0  0  0  0  0  0  0  0  0  0
   28.6358  -18.5417  -16.6404 O   0  0  0  0  0  0  0  0  0  0  0  0
   27.2254  -19.2807  -14.8270 C   0  0  0  0  0  0  0  0  0  0  0  0
   27.3133  -19.8262  -13.4512 C   0  0  0  0  0  0  0  0  0  0  0  0
   26.0087  -20.1499  -12.7883 C   0  0  2  0  0  0  0  0  0  0  0  0
   26.1189  -20.6973  -11.4733 N   0  0  0  0  0  0  0  0  0  0  0  0
   25.1808  -21.0601  -13.6549 C   0  0  0  0  0  0  0  0  0  0  0  0
   25.5786  -22.2084  -13.9779 O   0  0  0  0  0  0  0  0  0  0  0  0
   23.9061  -20.6420  -14.1406 N   0  0  0  0  0  0  0  0  0  0  0  0
   23.1671  -21.5058  -15.0043 C   0  0  1  0  0  0  0  0  0  0  0  0
   21.6913  -21.1309  -15.0202 C   0  0  0  0  0  0  0  0  0  0  0  0
   21.0000  -21.5614  -13.7847 C   0  0  0  0  0  0  0  0  0  0  0  0
   20.1195  -20.8068  -13.3224 O   0  0  0  0  0  0  0  0  0  0  0  0
   23.7214  -21.4552  -16.3825 C   0  0  0  0  0  0  0  0  0  0  0  0
   24.3373  -20.2813  -16.7971 O   0  0  0  0  0  0  0  0  0  0  0  0
   21.2622  -22.7377  -13.1101 O   0  0  0  0  0  0  0  0  0  0  0  0
   23.6599  -22.4122  -17.1804 O   0  0  0  0  0  0  0  0  0  0  0  0
  2  1  1  1
  2  3  1  0
  3  4  1  0
  4  5  2  0
  5  6  1  0
  7  6  1  0
  8  7  2  0
  9  8  1  0
 10 11  1  0
 10  9  2  0
 11 12  2  0
 12  4  1  0
 12  7  1  0
 13 21  1  0
 13  2  1  0
 14 13  2  0
 16 17  2  0
 16 15  1  0
 18 16  1  0
 19 18  1  0
 20 21  1  0
 20 19  1  6
 22 20  1  0
 23 22  2  0
 24 22  1  0
 25 29  1  0
 25 24  1  0
 26 27  1  0
 25 26  1  6
 27 28  2  0
 29 30  1  0
 31 27  1  0
 32 29  2  0
M  END
$$$$
