WQD.pdb
     RDKit          3D

 32 33  0  0  1  0  0  0  0  0999 V2000
   26.4689  -22.2673  -12.5760 N   0  0  0  0  0  0  0  0  0  0  0  0
   25.6205  -21.3810  -11.8011 C   0  0  1  0  0  0  0  0  0  0  0  0
   26.3453  -20.1924  -11.2875 C   0  0  0  0  0  0  0  0  0  0  0  0
   27.4761  -20.4497  -10.4032 C   0  0  0  0  0  0  0  0  0  0  0  0
   28.7822  -20.6237  -10.8816 C   0  0  0  0  0  0  0  0  0  0  0  0
   29.6028  -20.8254   -9.8397 N   0  0  0  0  0  0  0  0  0  0  0  0
   28.9037  -20.7950   -8.6771 C   0  0  0  0  0  0  0  0  0  0  0  0
   29.3060  -20.9526   -7.3704 C   0  0  0  0  0  0  0  0  0  0  0  0
   28.3817  -20.8811   -6.3560 C   0  0  0  0  0  0  0  0  0  0  0  0
   27.0688  -20.6503   -6.7032 C   0  0  0  0  0  0  0  0  0  0  0  0
   26.6683  -20.4926   -8.0123 C   0  0  0  0  0  0  0  0  0  0  0  0
   27.5875  -20.5614   -9.0456 C   0  0  0  0  0  0  0  0  0  0  0  0
   24.3219  -21.1053  -12.4318 C   0  0  0  0  0  0  0  0  0  0  0  0
   24.2781  -20.8964  -13.6710 O   0  0  0  0  0  0  0  0  0  0  0  0
   17.1462  -23.0532  -11.3203 N   0  0  0  0  0  0  0  0  0  0  0  0
   18.4806  -22.7217  -10.8763 C   0  0  0  0  0  0  0  0  0  0  0  0
   18.6891  -22.8465   -9.6506 O   0  0  0  0  0  0  0  0  0  0  0  0
   19.4897  -22.2756  -11.8544 C   0  0  0  0  0  0  0  0  0  0  0  0
   20.8157  -21.9225  -11.2930 C   0  0  0  0  0  0  0  0  0  0  0  0
   21.8194  -21.3846  -12.2673 C   0  0  2  0  0  0  0  0  0  0  0  0
   23.0943  -21.0657  -11.7068 N   0  0  0  0  0  0  0  0  0  0  0  0
   21.2674  -20.1904  -12.9982 C   0  0  0  0  0  0  0  0  0  0  0  0
   21.3317  -19.0313  -12.5152 O   0  0  0  0  0  0  0  0  0  0  0  0
   20.6483  -20.3405  -14.2748 N   0  0  0  0  0  0  0  0  0  0  0  0
   20.1624  -19.1853  -14.9585 C   0  0  1  0  0  0  0  0  0  0  0  0
   20.3554  -19.3190  -16.4631 C   0  0  0  0  0  0  0  0  0  0  0  0
   21.7054  -18.8852  -16.8862 C   0  0  0  0  0  0  0  0  0  0  0  0
   22.4167  -18.3035  -16.0411 O   0  0  0  0  0  0  0  0  0  0  0  0
   18.7259  -18.9663  -14.6457 C   0  0  0  0  0  0  0  0  0  0  0  0
   18.2630  -17.6585  -14.5794 O   0  0  0  0  0  0  0  0  0  0  0  0
   22.2303  -19.0794  -18.1489 O   0  0  0  0  0  0  0  0  0  0  0  0
   17.9206  -19.8968  -14.4410 O   0  0  0  0  0  0  0  0  0  0  0  0
  2  1  1  6
  2  3  1  0
  3  4  1  0
  4  5  2  0
  5  6  1  0
  7  6  1  0
  8  7  2  0
  9  8  1  0
 10 11  1  0
 10  9  2  0
 11 12  2  0
 12  4  1  0
 12  7  1  0
 13 21  1  0
 13  2  1  0
 14 13  2  0
 16 17  2  0
 16 15  1  0
 18 16  1  0
 19 18  1  0
 20 21  1  0
 20 19  1  1
 22 20  1  0
 23 22  2  0
 24 22  1  0
 25 29  1  0
 25 24  1  0
 26 27  1  0
 25 26  1  6
 27 28  2  0
 29 30  1  0
 31 27  1  0
 32 29  2  0
M  END
$$$$
