VKI.pdb
     RDKit          3D

 25 24  0  0  1  0  0  0  0  0999 V2000
    8.7758  -12.7472   20.2750 C   0  0  0  0  0  0  0  0  0  0  0  0
    7.8644  -13.5010   19.3286 C   0  0  1  0  0  0  0  0  0  0  0  0
    8.1189  -12.9659   17.9350 C   0  0  0  0  0  0  0  0  0  0  0  0
    8.2399  -14.9633   19.4015 C   0  0  2  0  0  0  0  0  0  0  0  0
    7.4981  -15.6987   18.3954 N   0  0  0  0  0  0  0  0  0  0  0  0
    7.9886  -15.5207   20.7641 C   0  0  0  0  0  0  0  0  0  0  0  0
    6.7999  -15.6153   21.2166 O   0  0  0  0  0  0  0  0  0  0  0  0
    9.1033  -15.9377   21.5321 N   0  0  0  0  0  0  0  0  0  0  0  0
    8.9814  -16.5209   22.8502 C   0  0  1  0  0  0  0  0  0  0  0  0
    9.9813  -17.6390   22.9214 C   0  0  0  0  0  0  0  0  0  0  0  0
   10.0452  -18.3473   24.2319 C   0  0  0  0  0  0  0  0  0  0  0  0
   11.1238  -19.4298   24.0879 C   0  0  0  0  0  0  0  0  0  0  0  0
   11.2497  -20.2240   25.3709 C   0  0  0  0  0  0  0  0  0  0  0  0
   12.3793  -21.1297   25.2421 N   0  0  0  0  0  0  0  0  0  0  0  0
    9.2169  -15.4577   23.8630 C   0  0  0  0  0  0  0  0  0  0  0  0
   10.2388  -14.7383   23.7920 O   0  0  0  0  0  0  0  0  0  0  0  0
    6.4033  -11.2422   27.0253 C   0  0  0  0  0  0  0  0  0  0  0  0
    7.5101  -12.2359   27.0392 C   0  0  0  0  0  0  0  0  0  0  0  0
    7.4555  -13.2489   25.9356 C   0  0  2  0  0  0  0  0  0  0  0  0
    6.1257  -13.9731   26.0440 C   0  0  0  0  0  0  0  0  0  0  0  0
    8.5449  -14.2744   25.9922 C   0  0  2  0  0  0  0  0  0  0  0  0
    8.3146  -15.2229   24.9231 N   0  0  0  0  0  0  0  0  0  0  0  0
    8.6686  -14.9675   27.2663 C   0  0  0  0  0  0  0  0  0  0  0  0
    8.3188  -16.3073   27.3380 O   0  0  0  0  0  0  0  0  0  0  0  0
    9.0753  -14.4431   28.3344 O   0  0  0  0  0  0  0  0  0  0  0  0
  2  1  1  1
  2  3  1  0
  4  6  1  0
  4  2  1  0
  4  5  1  6
  6  7  2  0
  8  6  1  0
  8  9  1  0
  9 10  1  6
 11 10  1  0
 12 13  1  0
 12 11  1  0
 13 14  1  0
 15 22  1  0
 15  9  1  0
 16 15  2  0
 18 17  1  0
 18 19  1  0
 19 20  1  1
 19 21  1  0
 21 22  1  6
 23 24  1  0
 23 21  1  0
 25 23  2  0
M  END
$$$$
