VKI.pdb
     RDKit          3D

 25 24  0  0  1  0  0  0  0  0999 V2000
    7.1943  -18.3568   26.3341 C   0  0  0  0  0  0  0  0  0  0  0  0
    7.5198  -19.5439   25.4514 C   0  0  1  0  0  0  0  0  0  0  0  0
    6.8077  -20.7473   26.0328 C   0  0  0  0  0  0  0  0  0  0  0  0
    6.9895  -19.2432   24.0684 C   0  0  2  0  0  0  0  0  0  0  0  0
    7.0476  -20.4467   23.2611 N   0  0  0  0  0  0  0  0  0  0  0  0
    7.7515  -18.1314   23.4251 C   0  0  0  0  0  0  0  0  0  0  0  0
    8.9344  -18.3239   22.9886 O   0  0  0  0  0  0  0  0  0  0  0  0
    7.1242  -16.8662   23.3158 N   0  0  0  0  0  0  0  0  0  0  0  0
    7.7862  -15.6996   22.7744 C   0  0  1  0  0  0  0  0  0  0  0  0
    6.7058  -14.7785   22.2852 C   0  0  0  0  0  0  0  0  0  0  0  0
    7.1885  -13.5115   21.6648 C   0  0  0  0  0  0  0  0  0  0  0  0
    7.5874  -13.8584   20.2239 C   0  0  0  0  0  0  0  0  0  0  0  0
    7.9300  -12.6008   19.4532 C   0  0  0  0  0  0  0  0  0  0  0  0
    8.2960  -12.9774   18.0978 N   0  0  0  0  0  0  0  0  0  0  0  0
    8.6329  -15.0980   23.8388 C   0  0  0  0  0  0  0  0  0  0  0  0
    8.5444  -13.8761   24.0957 O   0  0  0  0  0  0  0  0  0  0  0  0
    9.7346  -12.9799   28.5321 C   0  0  0  0  0  0  0  0  0  0  0  0
   10.5081  -13.8148   27.5743 C   0  0  0  0  0  0  0  0  0  0  0  0
    9.6827  -14.4749   26.5113 C   0  0  2  0  0  0  0  0  0  0  0  0
    8.6774  -15.3760   27.2054 C   0  0  0  0  0  0  0  0  0  0  0  0
   10.4731  -15.3152   25.5569 C   0  0  2  0  0  0  0  0  0  0  0  0
    9.5515  -15.8666   24.5862 N   0  0  0  0  0  0  0  0  0  0  0  0
   11.2522  -16.3776   26.1760 C   0  0  0  0  0  0  0  0  0  0  0  0
   10.9765  -17.6945   25.8408 O   0  0  0  0  0  0  0  0  0  0  0  0
   12.1769  -16.1999   27.0094 O   0  0  0  0  0  0  0  0  0  0  0  0
  2  1  1  1
  2  3  1  0
  4  6  1  0
  4  2  1  0
  4  5  1  6
  6  7  2  0
  8  6  1  0
  8  9  1  0
  9 10  1  1
 11 10  1  0
 12 13  1  0
 12 11  1  0
 13 14  1  0
 15 22  1  0
 15  9  1  0
 16 15  2  0
 18 17  1  0
 18 19  1  0
 19 20  1  1
 19 21  1  0
 21 22  1  6
 23 24  1  0
 23 21  1  0
 25 23  2  0
M  END
$$$$
