VKI.pdb
     RDKit          3D

 25 24  0  0  1  0  0  0  0  0999 V2000
    8.6537  -12.6095   20.4821 C   0  0  0  0  0  0  0  0  0  0  0  0
    7.8671  -13.3067   19.3915 C   0  0  1  0  0  0  0  0  0  0  0  0
    8.2701  -12.6798   18.0733 C   0  0  0  0  0  0  0  0  0  0  0  0
    8.2537  -14.7677   19.4130 C   0  0  2  0  0  0  0  0  0  0  0  0
    7.6530  -15.4387   18.2761 N   0  0  0  0  0  0  0  0  0  0  0  0
    7.8454  -15.4182   20.6939 C   0  0  0  0  0  0  0  0  0  0  0  0
    6.6143  -15.6353   20.9470 O   0  0  0  0  0  0  0  0  0  0  0  0
    8.8604  -15.7836   21.6117 N   0  0  0  0  0  0  0  0  0  0  0  0
    8.5890  -16.4502   22.8665 C   0  0  1  0  0  0  0  0  0  0  0  0
    9.2643  -17.7896   22.7984 C   0  0  0  0  0  0  0  0  0  0  0  0
    8.5625  -18.8098   21.9677 C   0  0  0  0  0  0  0  0  0  0  0  0
    9.3635  -20.1113   22.1105 C   0  0  0  0  0  0  0  0  0  0  0  0
    8.7993  -21.1815   21.1999 C   0  0  0  0  0  0  0  0  0  0  0  0
    9.5829  -22.3933   21.3737 N   0  0  0  0  0  0  0  0  0  0  0  0
    9.0905  -15.5958   23.9757 C   0  0  0  0  0  0  0  0  0  0  0  0
   10.2240  -15.0702   23.9001 O   0  0  0  0  0  0  0  0  0  0  0  0
    5.6348  -12.2286   26.1118 C   0  0  0  0  0  0  0  0  0  0  0  0
    6.8780  -12.9114   25.6634 C   0  0  0  0  0  0  0  0  0  0  0  0
    7.5460  -13.7475   26.7130 C   0  0  2  0  0  0  0  0  0  0  0  0
    7.9963  -12.8153   27.8232 C   0  0  0  0  0  0  0  0  0  0  0  0
    8.7468  -14.4972   26.2251 C   0  0  2  0  0  0  0  0  0  0  0  0
    8.3226  -15.3491   25.1343 N   0  0  0  0  0  0  0  0  0  0  0  0
    9.4350  -15.2801   27.2412 C   0  0  0  0  0  0  0  0  0  0  0  0
   10.3508  -14.6484   28.0688 O   0  0  0  0  0  0  0  0  0  0  0  0
    9.2666  -16.5105   27.4383 O   0  0  0  0  0  0  0  0  0  0  0  0
  2  1  1  1
  2  3  1  0
  4  6  1  0
  4  2  1  0
  4  5  1  6
  6  7  2  0
  8  6  1  0
  8  9  1  0
  9 10  1  6
 11 10  1  0
 12 13  1  0
 12 11  1  0
 13 14  1  0
 15 22  1  0
 15  9  1  0
 16 15  2  0
 18 17  1  0
 18 19  1  0
 19 20  1  1
 19 21  1  0
 21 22  1  6
 23 24  1  0
 23 21  1  0
 25 23  2  0
M  END
$$$$
