VKI.pdb
     RDKit          3D

 25 24  0  0  1  0  0  0  0  0999 V2000
    8.7279  -12.7364   18.3010 C   0  0  0  0  0  0  0  0  0  0  0  0
    8.4767  -13.2735   19.6948 C   0  0  1  0  0  0  0  0  0  0  0  0
    7.1842  -12.6585   20.1893 C   0  0  0  0  0  0  0  0  0  0  0  0
    8.3311  -14.7740   19.5861 C   0  0  2  0  0  0  0  0  0  0  0  0
    7.3221  -15.0864   18.5923 N   0  0  0  0  0  0  0  0  0  0  0  0
    7.9871  -15.3826   20.9059 C   0  0  0  0  0  0  0  0  0  0  0  0
    6.7915  -15.3392   21.3478 O   0  0  0  0  0  0  0  0  0  0  0  0
    9.0224  -16.0048   21.6457 N   0  0  0  0  0  0  0  0  0  0  0  0
    8.8204  -16.5823   22.9564 C   0  0  1  0  0  0  0  0  0  0  0  0
    9.5538  -17.8926   22.9683 C   0  0  0  0  0  0  0  0  0  0  0  0
    9.4866  -18.6428   24.2551 C   0  0  0  0  0  0  0  0  0  0  0  0
   10.3060  -19.9249   24.0532 C   0  0  0  0  0  0  0  0  0  0  0  0
   11.6102  -19.8443   24.8182 C   0  0  0  0  0  0  0  0  0  0  0  0
   12.3081  -21.1110   24.6721 N   0  0  0  0  0  0  0  0  0  0  0  0
    9.3161  -15.6229   23.9790 C   0  0  0  0  0  0  0  0  0  0  0  0
   10.4309  -15.0722   23.8348 O   0  0  0  0  0  0  0  0  0  0  0  0
    5.6369  -12.8882   27.1609 C   0  0  0  0  0  0  0  0  0  0  0  0
    6.6341  -13.9195   26.7672 C   0  0  0  0  0  0  0  0  0  0  0  0
    7.9836  -13.3782   26.4028 C   0  0  2  0  0  0  0  0  0  0  0  0
    7.8307  -12.6000   25.1084 C   0  0  0  0  0  0  0  0  0  0  0  0
    9.0270  -14.4302   26.1878 C   0  0  2  0  0  0  0  0  0  0  0  0
    8.5634  -15.3023   25.1295 N   0  0  0  0  0  0  0  0  0  0  0  0
    9.3676  -15.2065   27.3712 C   0  0  0  0  0  0  0  0  0  0  0  0
    9.0865  -16.5642   27.3868 O   0  0  0  0  0  0  0  0  0  0  0  0
    9.9082  -14.7406   28.4065 O   0  0  0  0  0  0  0  0  0  0  0  0
  2  1  1  6
  2  3  1  0
  4  6  1  0
  4  2  1  0
  4  5  1  6
  6  7  2  0
  8  6  1  0
  8  9  1  0
  9 10  1  6
 11 10  1  0
 12 13  1  0
 12 11  1  0
 13 14  1  0
 15 22  1  0
 15  9  1  0
 16 15  2  0
 18 17  1  0
 18 19  1  0
 19 20  1  6
 19 21  1  0
 21 22  1  6
 23 24  1  0
 23 21  1  0
 25 23  2  0
M  END
$$$$
