VKI.pdb
     RDKit          3D

 25 24  0  0  1  0  0  0  0  0999 V2000
    8.5572  -12.7764   20.4015 C   0  0  0  0  0  0  0  0  0  0  0  0
    7.7837  -13.5089   19.3247 C   0  0  1  0  0  0  0  0  0  0  0  0
    8.3267  -13.0499   17.9876 C   0  0  0  0  0  0  0  0  0  0  0  0
    8.0350  -14.9880   19.5086 C   0  0  2  0  0  0  0  0  0  0  0  0
    7.4639  -15.7133   18.3901 N   0  0  0  0  0  0  0  0  0  0  0  0
    7.4745  -15.4764   20.8039 C   0  0  0  0  0  0  0  0  0  0  0  0
    6.2202  -15.4225   21.0290 O   0  0  0  0  0  0  0  0  0  0  0  0
    8.3727  -15.9975   21.7672 N   0  0  0  0  0  0  0  0  0  0  0  0
    7.9535  -16.4507   23.0754 C   0  0  1  0  0  0  0  0  0  0  0  0
    8.3385  -17.8988   23.1741 C   0  0  0  0  0  0  0  0  0  0  0  0
    8.1113  -18.5236   24.5088 C   0  0  0  0  0  0  0  0  0  0  0  0
    7.2918  -19.7969   24.2580 C   0  0  0  0  0  0  0  0  0  0  0  0
    6.9662  -20.4822   25.5683 C   0  0  0  0  0  0  0  0  0  0  0  0
    6.1363  -21.6420   25.2870 N   0  0  0  0  0  0  0  0  0  0  0  0
    8.6064  -15.5984   24.1044 C   0  0  0  0  0  0  0  0  0  0  0  0
    9.8371  -15.3768   24.0473 O   0  0  0  0  0  0  0  0  0  0  0  0
    5.2986  -12.3238   27.3669 C   0  0  0  0  0  0  0  0  0  0  0  0
    6.1533  -13.4371   26.8739 C   0  0  0  0  0  0  0  0  0  0  0  0
    7.5152  -13.0205   26.4062 C   0  0  2  0  0  0  0  0  0  0  0  0
    7.3422  -12.2850   25.0896 C   0  0  0  0  0  0  0  0  0  0  0  0
    8.4584  -14.1605   26.1770 C   0  0  2  0  0  0  0  0  0  0  0  0
    7.8779  -15.0175   25.1650 N   0  0  0  0  0  0  0  0  0  0  0  0
    8.7875  -14.9323   27.3665 C   0  0  0  0  0  0  0  0  0  0  0  0
    8.4181  -16.2676   27.4233 O   0  0  0  0  0  0  0  0  0  0  0  0
    9.3930  -14.4816   28.3722 O   0  0  0  0  0  0  0  0  0  0  0  0
  2  1  1  1
  2  3  1  0
  4  6  1  0
  4  2  1  0
  4  5  1  6
  6  7  2  0
  8  6  1  0
  8  9  1  0
  9 10  1  1
 11 10  1  0
 12 13  1  0
 12 11  1  0
 13 14  1  0
 15 22  1  0
 15  9  1  0
 16 15  2  0
 18 17  1  0
 18 19  1  0
 19 20  1  6
 19 21  1  0
 21 22  1  6
 23 24  1  0
 23 21  1  0
 25 23  2  0
M  END
$$$$
