VKI.pdb
     RDKit          3D

 25 24  0  0  1  0  0  0  0  0999 V2000
    8.8097  -12.6206   18.1287 C   0  0  0  0  0  0  0  0  0  0  0  0
    8.5005  -13.2166   19.4865 C   0  0  1  0  0  0  0  0  0  0  0  0
    7.2503  -12.5364   20.0039 C   0  0  0  0  0  0  0  0  0  0  0  0
    8.2460  -14.6934   19.2894 C   0  0  2  0  0  0  0  0  0  0  0  0
    7.2499  -14.8730   18.2507 N   0  0  0  0  0  0  0  0  0  0  0  0
    7.8135  -15.3440   20.5623 C   0  0  0  0  0  0  0  0  0  0  0  0
    6.5974  -15.2815   20.9416 O   0  0  0  0  0  0  0  0  0  0  0  0
    8.7888  -16.0273   21.3292 N   0  0  0  0  0  0  0  0  0  0  0  0
    8.4805  -16.7300   22.5553 C   0  0  1  0  0  0  0  0  0  0  0  0
    9.1236  -18.0829   22.4506 C   0  0  0  0  0  0  0  0  0  0  0  0
    8.4565  -19.0288   21.5107 C   0  0  0  0  0  0  0  0  0  0  0  0
    9.2420  -20.3451   21.5896 C   0  0  0  0  0  0  0  0  0  0  0  0
    8.5784  -21.4081   20.7396 C   0  0  0  0  0  0  0  0  0  0  0  0
    9.4020  -22.6053   20.7744 N   0  0  0  0  0  0  0  0  0  0  0  0
    8.9845  -15.9276   23.7015 C   0  0  0  0  0  0  0  0  0  0  0  0
   10.0952  -15.3550   23.6268 O   0  0  0  0  0  0  0  0  0  0  0  0
    7.0270  -11.8224   27.4943 C   0  0  0  0  0  0  0  0  0  0  0  0
    7.9857  -12.9484   27.3342 C   0  0  0  0  0  0  0  0  0  0  0  0
    7.6632  -13.8902   26.2135 C   0  0  2  0  0  0  0  0  0  0  0  0
    6.3260  -14.5362   26.5285 C   0  0  0  0  0  0  0  0  0  0  0  0
    8.6694  -14.9826   26.0237 C   0  0  2  0  0  0  0  0  0  0  0  0
    8.2446  -15.7834   24.8951 N   0  0  0  0  0  0  0  0  0  0  0  0
    8.8859  -15.8259   27.1903 C   0  0  0  0  0  0  0  0  0  0  0  0
    8.4408  -17.1388   27.1610 O   0  0  0  0  0  0  0  0  0  0  0  0
    9.4559  -15.4575   28.2489 O   0  0  0  0  0  0  0  0  0  0  0  0
  2  1  1  6
  2  3  1  0
  4  6  1  0
  4  2  1  0
  4  5  1  6
  6  7  2  0
  8  6  1  0
  8  9  1  0
  9 10  1  6
 11 10  1  0
 12 13  1  0
 12 11  1  0
 13 14  1  0
 15 22  1  0
 15  9  1  0
 16 15  2  0
 18 17  1  0
 18 19  1  0
 19 20  1  1
 19 21  1  0
 21 22  1  6
 23 24  1  0
 23 21  1  0
 25 23  2  0
M  END
$$$$
