VKI.pdb
     RDKit          3D

 25 24  0  0  1  0  0  0  0  0999 V2000
    8.8287  -12.6482   20.1536 C   0  0  0  0  0  0  0  0  0  0  0  0
    7.8500  -13.3910   19.2678 C   0  0  1  0  0  0  0  0  0  0  0  0
    7.9730  -12.8113   17.8741 C   0  0  0  0  0  0  0  0  0  0  0  0
    8.2534  -14.8476   19.2632 C   0  0  2  0  0  0  0  0  0  0  0  0
    7.4789  -15.5557   18.2622 N   0  0  0  0  0  0  0  0  0  0  0  0
    8.0743  -15.4643   20.6116 C   0  0  0  0  0  0  0  0  0  0  0  0
    6.9070  -15.6352   21.0964 O   0  0  0  0  0  0  0  0  0  0  0  0
    9.2325  -15.8504   21.3297 N   0  0  0  0  0  0  0  0  0  0  0  0
    9.1819  -16.5122   22.6149 C   0  0  1  0  0  0  0  0  0  0  0  0
   10.2502  -17.5674   22.5991 C   0  0  0  0  0  0  0  0  0  0  0  0
   10.3453  -18.3891   23.8398 C   0  0  0  0  0  0  0  0  0  0  0  0
   11.4163  -19.4556   23.5727 C   0  0  0  0  0  0  0  0  0  0  0  0
   11.5545  -20.3762   24.7670 C   0  0  0  0  0  0  0  0  0  0  0  0
   10.5226  -21.3965   24.6830 N   0  0  0  0  0  0  0  0  0  0  0  0
    9.3785  -15.4940   23.6809 C   0  0  0  0  0  0  0  0  0  0  0  0
   10.3582  -14.7163   23.6332 O   0  0  0  0  0  0  0  0  0  0  0  0
    6.4250  -11.4186   26.7888 C   0  0  0  0  0  0  0  0  0  0  0  0
    7.4883  -12.4526   26.9029 C   0  0  0  0  0  0  0  0  0  0  0  0
    7.4819  -13.4799   25.8113 C   0  0  2  0  0  0  0  0  0  0  0  0
    6.2152  -14.3026   25.9640 C   0  0  0  0  0  0  0  0  0  0  0  0
    8.6481  -14.4182   25.8475 C   0  0  2  0  0  0  0  0  0  0  0  0
    8.4852  -15.3673   24.7667 N   0  0  0  0  0  0  0  0  0  0  0  0
    8.8339  -15.1165   27.1112 C   0  0  0  0  0  0  0  0  0  0  0  0
    8.6050  -16.4831   27.1625 O   0  0  0  0  0  0  0  0  0  0  0  0
    9.1929  -14.5740   28.1873 O   0  0  0  0  0  0  0  0  0  0  0  0
  2  1  1  1
  2  3  1  0
  4  6  1  0
  4  2  1  0
  4  5  1  6
  6  7  2  0
  8  6  1  0
  8  9  1  0
  9 10  1  6
 11 10  1  0
 12 13  1  0
 12 11  1  0
 13 14  1  0
 15 22  1  0
 15  9  1  0
 16 15  2  0
 18 17  1  0
 18 19  1  0
 19 20  1  1
 19 21  1  0
 21 22  1  6
 23 24  1  0
 23 21  1  0
 25 23  2  0
M  END
$$$$
