VKI.pdb
     RDKit          3D

 25 24  0  0  1  0  0  0  0  0999 V2000
    8.3966  -12.6357   21.1988 C   0  0  0  0  0  0  0  0  0  0  0  0
    7.6129  -13.3391   20.1100 C   0  0  1  0  0  0  0  0  0  0  0  0
    7.8575  -12.5856   18.8194 C   0  0  0  0  0  0  0  0  0  0  0  0
    8.1487  -14.7481   19.9999 C   0  0  2  0  0  0  0  0  0  0  0  0
    7.5414  -15.4032   18.8573 N   0  0  0  0  0  0  0  0  0  0  0  0
    7.9013  -15.5220   21.2530 C   0  0  0  0  0  0  0  0  0  0  0  0
    6.7135  -15.8292   21.6014 O   0  0  0  0  0  0  0  0  0  0  0  0
    9.0187  -15.9014   22.0364 N   0  0  0  0  0  0  0  0  0  0  0  0
    8.8998  -16.6031   23.2957 C   0  0  1  0  0  0  0  0  0  0  0  0
    9.6389  -17.9007   23.1381 C   0  0  0  0  0  0  0  0  0  0  0  0
    8.8658  -18.9924   22.4794 C   0  0  0  0  0  0  0  0  0  0  0  0
    9.7982  -20.2102   22.4212 C   0  0  0  0  0  0  0  0  0  0  0  0
    9.1032  -21.3761   21.7500 C   0  0  0  0  0  0  0  0  0  0  0  0
   10.0315  -22.4931   21.6915 N   0  0  0  0  0  0  0  0  0  0  0  0
    9.4523  -15.7401   24.3736 C   0  0  0  0  0  0  0  0  0  0  0  0
   10.6211  -15.3001   24.2884 O   0  0  0  0  0  0  0  0  0  0  0  0
    6.6344  -11.7668   26.1494 C   0  0  0  0  0  0  0  0  0  0  0  0
    7.7655  -12.6842   25.8465 C   0  0  0  0  0  0  0  0  0  0  0  0
    8.1532  -13.5930   26.9738 C   0  0  2  0  0  0  0  0  0  0  0  0
    8.7019  -12.7263   28.0929 C   0  0  0  0  0  0  0  0  0  0  0  0
    9.2011  -14.6003   26.6148 C   0  0  2  0  0  0  0  0  0  0  0  0
    8.6949  -15.3906   25.5126 N   0  0  0  0  0  0  0  0  0  0  0  0
    9.6197  -15.4654   27.7081 C   0  0  0  0  0  0  0  0  0  0  0  0
   10.7181  -15.0990   28.4708 O   0  0  0  0  0  0  0  0  0  0  0  0
    9.0572  -16.5434   28.0287 O   0  0  0  0  0  0  0  0  0  0  0  0
  2  1  1  1
  2  3  1  0
  4  6  1  0
  4  2  1  0
  4  5  1  6
  6  7  2  0
  8  6  1  0
  8  9  1  0
  9 10  1  6
 11 10  1  0
 12 13  1  0
 12 11  1  0
 13 14  1  0
 15 22  1  0
 15  9  1  0
 16 15  2  0
 18 17  1  0
 18 19  1  0
 19 20  1  1
 19 21  1  0
 21 22  1  6
 23 24  1  0
 23 21  1  0
 25 23  2  0
M  END
$$$$
