VKI.pdb
     RDKit          3D

 25 24  0  0  1  0  0  0  0  0999 V2000
    8.7919  -12.7492   20.2722 C   0  0  0  0  0  0  0  0  0  0  0  0
    7.8943  -13.4159   19.2503 C   0  0  1  0  0  0  0  0  0  0  0  0
    8.2392  -12.8308   17.8968 C   0  0  0  0  0  0  0  0  0  0  0  0
    8.2002  -14.8959   19.2710 C   0  0  2  0  0  0  0  0  0  0  0  0
    7.4682  -15.5510   18.2040 N   0  0  0  0  0  0  0  0  0  0  0  0
    7.8678  -15.5001   20.5958 C   0  0  0  0  0  0  0  0  0  0  0  0
    6.6591  -15.5527   20.9993 O   0  0  0  0  0  0  0  0  0  0  0  0
    8.9290  -16.0090   21.3839 N   0  0  0  0  0  0  0  0  0  0  0  0
    8.7314  -16.5995   22.6895 C   0  0  1  0  0  0  0  0  0  0  0  0
    9.6094  -17.8162   22.7501 C   0  0  0  0  0  0  0  0  0  0  0  0
    9.5756  -18.5562   24.0442 C   0  0  0  0  0  0  0  0  0  0  0  0
   10.5468  -19.7353   23.8952 C   0  0  0  0  0  0  0  0  0  0  0  0
    9.8718  -21.0297   24.2975 C   0  0  0  0  0  0  0  0  0  0  0  0
   10.7832  -22.1283   24.0231 N   0  0  0  0  0  0  0  0  0  0  0  0
    9.0631  -15.5843   23.7245 C   0  0  0  0  0  0  0  0  0  0  0  0
   10.1600  -14.9826   23.6848 O   0  0  0  0  0  0  0  0  0  0  0  0
    6.5440  -11.0827   26.6878 C   0  0  0  0  0  0  0  0  0  0  0  0
    7.4015  -12.2793   26.9015 C   0  0  0  0  0  0  0  0  0  0  0  0
    7.2975  -13.3229   25.8305 C   0  0  2  0  0  0  0  0  0  0  0  0
    6.0272  -14.1145   26.0841 C   0  0  0  0  0  0  0  0  0  0  0  0
    8.4431  -14.2865   25.8021 C   0  0  2  0  0  0  0  0  0  0  0  0
    8.1711  -15.2659   24.7714 N   0  0  0  0  0  0  0  0  0  0  0  0
    8.7192  -14.9479   27.0691 C   0  0  0  0  0  0  0  0  0  0  0  0
    8.4449  -16.3014   27.1932 O   0  0  0  0  0  0  0  0  0  0  0  0
    9.1969  -14.3838   28.0863 O   0  0  0  0  0  0  0  0  0  0  0  0
  2  1  1  1
  2  3  1  0
  4  6  1  0
  4  2  1  0
  4  5  1  6
  6  7  2  0
  8  6  1  0
  8  9  1  0
  9 10  1  1
 11 10  1  0
 12 13  1  0
 12 11  1  0
 13 14  1  0
 15 22  1  0
 15  9  1  0
 16 15  2  0
 18 17  1  0
 18 19  1  0
 19 20  1  1
 19 21  1  0
 21 22  1  6
 23 24  1  0
 23 21  1  0
 25 23  2  0
M  END
$$$$
