QEH.pdb
     RDKit          3D

 29 29  0  0  1  0  0  0  0  0999 V2000
    8.6486  -13.2536   17.7106 N   0  0  0  0  0  0  0  0  0  0  0  0
    8.6462  -13.9606   16.4430 C   0  0  0  0  0  0  0  0  0  0  0  0
    7.6950  -13.6694   15.7035 O   0  0  0  0  0  0  0  0  0  0  0  0
    9.7301  -14.9153   16.1815 C   0  0  0  0  0  0  0  0  0  0  0  0
   10.7855  -14.9214   17.2055 C   0  0  0  0  0  0  0  0  0  0  0  0
   11.5106  -16.1887   17.4796 C   0  0  2  0  0  0  0  0  0  0  0  0
   11.1686  -17.1586   16.3940 N   0  0  0  0  0  0  0  0  0  0  0  0
   11.2821  -16.8651   18.7402 C   0  0  0  0  0  0  0  0  0  0  0  0
   10.2456  -17.5403   18.9244 O   0  0  0  0  0  0  0  0  0  0  0  0
   12.2449  -16.7823   19.8117 N   0  0  0  0  0  0  0  0  0  0  0  0
   12.0782  -17.5209   21.0281 C   0  0  1  0  0  0  0  0  0  0  0  0
   13.2377  -18.3655   21.3927 C   0  0  0  0  0  0  0  0  0  0  0  0
   14.1452  -18.8722   20.3630 C   0  0  0  0  0  0  0  0  0  0  0  0
   15.1691  -19.8476   20.7882 C   0  0  0  0  0  0  0  0  0  0  0  0
   15.4756  -20.8757   20.1684 O   0  0  0  0  0  0  0  0  0  0  0  0
   11.5905  -16.6691   22.1333 C   0  0  0  0  0  0  0  0  0  0  0  0
   12.1909  -15.6234   22.4232 O   0  0  0  0  0  0  0  0  0  0  0  0
   15.8887  -19.6462   21.9873 O   0  0  0  0  0  0  0  0  0  0  0  0
   10.4437  -17.0514   22.8525 N   0  0  0  0  0  0  0  0  0  0  0  0
    9.9774  -16.1889   23.9613 C   0  0  1  0  0  0  0  0  0  0  0  0
    8.5315  -15.8930   23.7089 C   0  0  0  0  0  0  0  0  0  0  0  0
    8.2645  -14.9524   22.6134 C   0  0  0  0  0  0  0  0  0  0  0  0
    9.1062  -14.2683   21.7829 C   0  0  0  0  0  0  0  0  0  0  0  0
    8.4099  -13.5597   20.8509 N   0  0  0  0  0  0  0  0  0  0  0  0
    7.1286  -13.8144   21.1132 C   0  0  0  0  0  0  0  0  0  0  0  0
    7.0035  -14.6336   22.1474 N   0  0  0  0  0  0  0  0  0  0  0  0
   10.1445  -17.0268   25.1880 C   0  0  0  0  0  0  0  0  0  0  0  0
   10.5162  -18.2004   25.1005 O   0  0  0  0  0  0  0  0  0  0  0  0
    9.8669  -16.4404   26.4392 O   0  0  0  0  0  0  0  0  0  0  0  0
  2  3  2  0
  2  1  1  0
  4  2  1  0
  5  4  1  0
  5  6  1  0
  6  8  1  0
  6  7  1  6
  8  9  2  0
 10 11  1  0
 10  8  1  0
 11 12  1  1
 12 13  1  0
 13 14  1  0
 14 18  1  0
 14 15  2  0
 16 19  1  0
 16 11  1  0
 17 16  2  0
 20 21  1  6
 20 19  1  0
 21 22  1  0
 22 23  2  0
 22 26  1  0
 23 24  1  0
 24 25  1  0
 26 25  2  0
 27 29  1  0
 27 20  1  0
 28 27  2  0
M  END
$$$$
