QEH.pdb
     RDKit          3D

 29 29  0  0  1  0  0  0  0  0999 V2000
    5.0250  -18.3669   18.4782 N   0  0  0  0  0  0  0  0  0  0  0  0
    6.4042  -18.6030   18.0928 C   0  0  0  0  0  0  0  0  0  0  0  0
    6.5450  -19.4829   17.2311 O   0  0  0  0  0  0  0  0  0  0  0  0
    7.4505  -17.8059   18.7443 C   0  0  0  0  0  0  0  0  0  0  0  0
    6.9424  -16.8292   19.7192 C   0  0  0  0  0  0  0  0  0  0  0  0
    7.9146  -15.9918   20.4678 C   0  0  2  0  0  0  0  0  0  0  0  0
    9.0013  -15.5915   19.5217 N   0  0  0  0  0  0  0  0  0  0  0  0
    8.5571  -16.5480   21.6411 C   0  0  0  0  0  0  0  0  0  0  0  0
    7.8771  -17.0004   22.5881 O   0  0  0  0  0  0  0  0  0  0  0  0
    9.9954  -16.5996   21.7449 N   0  0  0  0  0  0  0  0  0  0  0  0
   10.6454  -17.3044   22.8096 C   0  0  1  0  0  0  0  0  0  0  0  0
   12.0243  -17.7430   22.4984 C   0  0  0  0  0  0  0  0  0  0  0  0
   12.8334  -17.0210   21.5161 C   0  0  0  0  0  0  0  0  0  0  0  0
   14.0237  -17.7141   20.9838 C   0  0  0  0  0  0  0  0  0  0  0  0
   14.9938  -18.0858   21.6588 O   0  0  0  0  0  0  0  0  0  0  0  0
   10.5225  -16.5964   24.1014 C   0  0  0  0  0  0  0  0  0  0  0  0
   10.9369  -15.4330   24.2141 O   0  0  0  0  0  0  0  0  0  0  0  0
   14.1207  -18.0034   19.6043 O   0  0  0  0  0  0  0  0  0  0  0  0
    9.9340  -17.2493   25.1995 N   0  0  0  0  0  0  0  0  0  0  0  0
    9.7737  -16.5053   26.4689 C   0  0  1  0  0  0  0  0  0  0  0  0
    8.3240  -16.1504   26.5896 C   0  0  0  0  0  0  0  0  0  0  0  0
    7.9731  -14.7888   26.1663 C   0  0  0  0  0  0  0  0  0  0  0  0
    8.7427  -13.7562   25.7110 C   0  0  0  0  0  0  0  0  0  0  0  0
    7.9748  -12.6880   25.3579 N   0  0  0  0  0  0  0  0  0  0  0  0
    6.7218  -13.0720   25.5984 C   0  0  0  0  0  0  0  0  0  0  0  0
    6.6811  -14.3074   26.0763 N   0  0  0  0  0  0  0  0  0  0  0  0
   10.1752  -17.4781   27.5306 C   0  0  0  0  0  0  0  0  0  0  0  0
   10.1287  -17.1608   28.7224 O   0  0  0  0  0  0  0  0  0  0  0  0
   10.6052  -18.7599   27.1327 O   0  0  0  0  0  0  0  0  0  0  0  0
  2  3  2  0
  2  1  1  0
  4  2  1  0
  5  4  1  0
  5  6  1  0
  6  8  1  0
  6  7  1  6
  8  9  2  0
 10 11  1  0
 10  8  1  0
 11 12  1  6
 12 13  1  0
 13 14  1  0
 14 18  1  0
 14 15  2  0
 16 19  1  0
 16 11  1  0
 17 16  2  0
 20 21  1  1
 20 19  1  0
 21 22  1  0
 22 23  2  0
 22 26  1  0
 23 24  1  0
 24 25  1  0
 26 25  2  0
 27 29  1  0
 27 20  1  0
 28 27  2  0
M  END
$$$$
