QEH.pdb
     RDKit          3D

 29 29  0  0  1  0  0  0  0  0999 V2000
   10.0417  -11.2938   18.9623 N   0  0  0  0  0  0  0  0  0  0  0  0
    9.9385  -12.4988   18.1599 C   0  0  0  0  0  0  0  0  0  0  0  0
   11.0300  -12.9543   17.7888 O   0  0  0  0  0  0  0  0  0  0  0  0
    8.5993  -13.0301   17.8788 C   0  0  0  0  0  0  0  0  0  0  0  0
    8.1686  -14.0919   18.8005 C   0  0  0  0  0  0  0  0  0  0  0  0
    8.9550  -15.3508   18.8608 C   0  0  2  0  0  0  0  0  0  0  0  0
    8.3686  -16.3075   17.8722 N   0  0  0  0  0  0  0  0  0  0  0  0
    9.0526  -16.0532   20.1241 C   0  0  0  0  0  0  0  0  0  0  0  0
    8.0291  -16.4977   20.6889 O   0  0  0  0  0  0  0  0  0  0  0  0
   10.3310  -16.2627   20.7596 N   0  0  0  0  0  0  0  0  0  0  0  0
   10.4469  -16.9887   21.9893 C   0  0  1  0  0  0  0  0  0  0  0  0
   11.6079  -17.9049   22.0496 C   0  0  0  0  0  0  0  0  0  0  0  0
   11.9150  -18.7952   20.9299 C   0  0  0  0  0  0  0  0  0  0  0  0
   13.1130  -19.6492   21.0574 C   0  0  0  0  0  0  0  0  0  0  0  0
   13.9297  -19.5978   21.9877 O   0  0  0  0  0  0  0  0  0  0  0  0
   10.3215  -16.1074   23.1693 C   0  0  0  0  0  0  0  0  0  0  0  0
   11.0852  -15.1400   23.3061 O   0  0  0  0  0  0  0  0  0  0  0  0
   13.4030  -20.6194   20.0721 O   0  0  0  0  0  0  0  0  0  0  0  0
    9.3325  -16.3724   24.1338 N   0  0  0  0  0  0  0  0  0  0  0  0
    9.1038  -15.3830   25.2106 C   0  0  1  0  0  0  0  0  0  0  0  0
    7.6353  -15.0915   25.2340 C   0  0  0  0  0  0  0  0  0  0  0  0
    7.1807  -14.2434   26.3431 C   0  0  0  0  0  0  0  0  0  0  0  0
    7.8712  -13.5863   27.3217 C   0  0  0  0  0  0  0  0  0  0  0  0
    7.0352  -12.8471   28.1028 N   0  0  0  0  0  0  0  0  0  0  0  0
    5.8204  -13.0529   27.5955 C   0  0  0  0  0  0  0  0  0  0  0  0
    5.8667  -13.8721   26.5548 N   0  0  0  0  0  0  0  0  0  0  0  0
    9.5294  -16.0810   26.4621 C   0  0  0  0  0  0  0  0  0  0  0  0
    9.4753  -15.5041   27.5518 O   0  0  0  0  0  0  0  0  0  0  0  0
    9.9911  -17.4088   26.3612 O   0  0  0  0  0  0  0  0  0  0  0  0
  2  3  2  0
  2  1  1  0
  4  2  1  0
  5  4  1  0
  5  6  1  0
  6  8  1  0
  6  7  1  6
  8  9  2  0
 10 11  1  0
 10  8  1  0
 11 12  1  6
 12 13  1  0
 13 14  1  0
 14 18  1  0
 14 15  2  0
 16 19  1  0
 16 11  1  0
 17 16  2  0
 20 21  1  1
 20 19  1  0
 21 22  1  0
 22 23  2  0
 22 26  1  0
 23 24  1  0
 24 25  1  0
 26 25  2  0
 27 29  1  0
 27 20  1  0
 28 27  2  0
M  END
$$$$
