QEH.pdb
     RDKit          3D

 29 29  0  0  1  0  0  0  0  0999 V2000
   15.4403  -15.5192   10.8837 N   0  0  0  0  0  0  0  0  0  0  0  0
   14.5720  -16.5873   11.3441 C   0  0  0  0  0  0  0  0  0  0  0  0
   15.0329  -17.7246   11.1689 O   0  0  0  0  0  0  0  0  0  0  0  0
   13.2833  -16.2210   11.9438 C   0  0  0  0  0  0  0  0  0  0  0  0
   13.3628  -15.8662   13.3686 C   0  0  0  0  0  0  0  0  0  0  0  0
   12.5144  -16.6044   14.3393 C   0  0  2  0  0  0  0  0  0  0  0  0
   11.1259  -16.0573   14.2461 N   0  0  0  0  0  0  0  0  0  0  0  0
   12.8827  -16.5904   15.7404 C   0  0  0  0  0  0  0  0  0  0  0  0
   12.7471  -15.5536   16.4264 O   0  0  0  0  0  0  0  0  0  0  0  0
   13.4091  -17.7714   16.3809 N   0  0  0  0  0  0  0  0  0  0  0  0
   13.8036  -17.7645   17.7582 C   0  0  1  0  0  0  0  0  0  0  0  0
   13.0898  -18.7489   18.6021 C   0  0  0  0  0  0  0  0  0  0  0  0
   13.4119  -18.8869   20.0227 C   0  0  0  0  0  0  0  0  0  0  0  0
   12.5918  -19.8285   20.8109 C   0  0  0  0  0  0  0  0  0  0  0  0
   12.9608  -20.4026   21.8449 O   0  0  0  0  0  0  0  0  0  0  0  0
   15.2729  -17.7988   17.9158 C   0  0  0  0  0  0  0  0  0  0  0  0
   15.9619  -18.5064   17.1658 O   0  0  0  0  0  0  0  0  0  0  0  0
   11.2749  -20.1382   20.4034 O   0  0  0  0  0  0  0  0  0  0  0  0
   15.8833  -17.0255   18.9199 N   0  0  0  0  0  0  0  0  0  0  0  0
   17.3557  -17.0756   19.0618 C   0  0  1  0  0  0  0  0  0  0  0  0
   17.8546  -15.6676   18.9597 C   0  0  0  0  0  0  0  0  0  0  0  0
   18.0972  -15.1843   17.5945 C   0  0  0  0  0  0  0  0  0  0  0  0
   18.0038  -15.8093   16.3834 C   0  0  0  0  0  0  0  0  0  0  0  0
   18.2500  -14.9428   15.3617 N   0  0  0  0  0  0  0  0  0  0  0  0
   18.4950  -13.7747   15.9542 C   0  0  0  0  0  0  0  0  0  0  0  0
   18.4134  -13.8783   17.2729 N   0  0  0  0  0  0  0  0  0  0  0  0
   17.5849  -17.6249   20.4331 C   0  0  0  0  0  0  0  0  0  0  0  0
   18.7312  -17.7845   20.8617 O   0  0  0  0  0  0  0  0  0  0  0  0
   16.4603  -17.9528   21.2168 O   0  0  0  0  0  0  0  0  0  0  0  0
  2  3  2  0
  2  1  1  0
  4  2  1  0
  5  4  1  0
  5  6  1  0
  6  8  1  0
  6  7  1  1
  8  9  2  0
 10 11  1  0
 10  8  1  0
 11 12  1  1
 12 13  1  0
 13 14  1  0
 14 18  1  0
 14 15  2  0
 16 19  1  0
 16 11  1  0
 17 16  2  0
 20 21  1  1
 20 19  1  0
 21 22  1  0
 22 23  2  0
 22 26  1  0
 23 24  1  0
 24 25  1  0
 26 25  2  0
 27 29  1  0
 27 20  1  0
 28 27  2  0
M  END
$$$$
