QEH.pdb
     RDKit          3D

 29 29  0  0  1  0  0  0  0  0999 V2000
   10.1434  -13.1527   18.1909 N   0  0  0  0  0  0  0  0  0  0  0  0
    8.8356  -13.0464   17.5704 C   0  0  0  0  0  0  0  0  0  0  0  0
    8.8588  -12.5967   16.4155 O   0  0  0  0  0  0  0  0  0  0  0  0
    7.6642  -13.4642   18.3501 C   0  0  0  0  0  0  0  0  0  0  0  0
    7.9932  -14.1711   19.5969 C   0  0  0  0  0  0  0  0  0  0  0  0
    8.4758  -15.5739   19.5193 C   0  0  2  0  0  0  0  0  0  0  0  0
    7.3947  -16.3987   18.8969 N   0  0  0  0  0  0  0  0  0  0  0  0
    8.8710  -16.2449   20.7410 C   0  0  0  0  0  0  0  0  0  0  0  0
    8.0111  -16.6884   21.5333 O   0  0  0  0  0  0  0  0  0  0  0  0
   10.2641  -16.4235   21.0719 N   0  0  0  0  0  0  0  0  0  0  0  0
   10.6696  -17.0756   22.2815 C   0  0  1  0  0  0  0  0  0  0  0  0
   11.9595  -17.7950   22.1837 C   0  0  0  0  0  0  0  0  0  0  0  0
   12.5114  -18.4985   23.3418 C   0  0  0  0  0  0  0  0  0  0  0  0
   13.7911  -19.2102   23.1506 C   0  0  0  0  0  0  0  0  0  0  0  0
   14.5980  -18.9931   22.2360 O   0  0  0  0  0  0  0  0  0  0  0  0
   10.5735  -16.1813   23.4544 C   0  0  0  0  0  0  0  0  0  0  0  0
   11.2235  -15.1256   23.4857 O   0  0  0  0  0  0  0  0  0  0  0  0
   14.1797  -20.2286   24.0495 O   0  0  0  0  0  0  0  0  0  0  0  0
    9.7420  -16.5345   24.5325 N   0  0  0  0  0  0  0  0  0  0  0  0
    9.4820  -15.5323   25.5903 C   0  0  1  0  0  0  0  0  0  0  0  0
    8.0567  -15.0982   25.4427 C   0  0  0  0  0  0  0  0  0  0  0  0
    7.5638  -14.1933   26.4889 C   0  0  0  0  0  0  0  0  0  0  0  0
    8.1910  -13.6203   27.5587 C   0  0  0  0  0  0  0  0  0  0  0  0
    7.3543  -12.7786   28.2272 N   0  0  0  0  0  0  0  0  0  0  0  0
    6.2035  -12.8362   27.5582 C   0  0  0  0  0  0  0  0  0  0  0  0
    6.2891  -13.6614   26.5248 N   0  0  0  0  0  0  0  0  0  0  0  0
    9.6839  -16.2745   26.8722 C   0  0  0  0  0  0  0  0  0  0  0  0
    9.7224  -17.5079   26.8838 O   0  0  0  0  0  0  0  0  0  0  0  0
    9.8282  -15.5284   28.0592 O   0  0  0  0  0  0  0  0  0  0  0  0
  2  3  2  0
  2  1  1  0
  4  2  1  0
  5  4  1  0
  5  6  1  0
  6  8  1  0
  6  7  1  1
  8  9  2  0
 10 11  1  0
 10  8  1  0
 11 12  1  6
 12 13  1  0
 13 14  1  0
 14 18  1  0
 14 15  2  0
 16 19  1  0
 16 11  1  0
 17 16  2  0
 20 21  1  1
 20 19  1  0
 21 22  1  0
 22 23  2  0
 22 26  1  0
 23 24  1  0
 24 25  1  0
 26 25  2  0
 27 29  1  0
 27 20  1  0
 28 27  2  0
M  END
$$$$
