QEH.pdb
     RDKit          3D

 29 29  0  0  1  0  0  0  0  0999 V2000
    7.4795  -12.5490   16.3015 N   0  0  0  0  0  0  0  0  0  0  0  0
    7.5355  -13.9971   16.3827 C   0  0  0  0  0  0  0  0  0  0  0  0
    6.8009  -14.5778   15.5706 O   0  0  0  0  0  0  0  0  0  0  0  0
    8.4221  -14.5999   17.3853 C   0  0  0  0  0  0  0  0  0  0  0  0
    7.8989  -14.5480   18.7587 C   0  0  0  0  0  0  0  0  0  0  0  0
    8.8477  -14.3189   19.8786 C   0  0  2  0  0  0  0  0  0  0  0  0
   10.2160  -14.1582   19.2970 N   0  0  0  0  0  0  0  0  0  0  0  0
    8.9461  -15.3157   20.9253 C   0  0  0  0  0  0  0  0  0  0  0  0
    7.9258  -15.7054   21.5345 O   0  0  0  0  0  0  0  0  0  0  0  0
   10.2203  -15.8877   21.2875 N   0  0  0  0  0  0  0  0  0  0  0  0
   10.3465  -16.8056   22.3804 C   0  0  1  0  0  0  0  0  0  0  0  0
   11.1225  -18.0260   22.0656 C   0  0  0  0  0  0  0  0  0  0  0  0
   12.4746  -17.9294   21.5150 C   0  0  0  0  0  0  0  0  0  0  0  0
   13.1856  -19.1960   21.2488 C   0  0  0  0  0  0  0  0  0  0  0  0
   13.7555  -19.4844   20.1872 O   0  0  0  0  0  0  0  0  0  0  0  0
   10.7734  -16.1325   23.6253 C   0  0  0  0  0  0  0  0  0  0  0  0
   11.5690  -15.1825   23.5764 O   0  0  0  0  0  0  0  0  0  0  0  0
   13.2550  -20.1956   22.2449 O   0  0  0  0  0  0  0  0  0  0  0  0
   10.2728  -16.5756   24.8628 N   0  0  0  0  0  0  0  0  0  0  0  0
    9.8051  -15.5705   25.8435 C   0  0  1  0  0  0  0  0  0  0  0  0
    8.6697  -14.8310   25.2065 C   0  0  0  0  0  0  0  0  0  0  0  0
    8.0723  -13.7695   26.0265 C   0  0  0  0  0  0  0  0  0  0  0  0
    8.4479  -13.2324   27.2252 C   0  0  0  0  0  0  0  0  0  0  0  0
    7.6310  -12.2020   27.5807 N   0  0  0  0  0  0  0  0  0  0  0  0
    6.7472  -12.1067   26.5881 C   0  0  0  0  0  0  0  0  0  0  0  0
    6.9764  -13.0161   25.6517 N   0  0  0  0  0  0  0  0  0  0  0  0
    9.3303  -16.3741   27.0113 C   0  0  0  0  0  0  0  0  0  0  0  0
    8.7813  -17.4660   26.8400 O   0  0  0  0  0  0  0  0  0  0  0  0
    9.5274  -15.8510   28.3051 O   0  0  0  0  0  0  0  0  0  0  0  0
  2  3  2  0
  2  1  1  0
  4  2  1  0
  5  4  1  0
  5  6  1  0
  6  8  1  0
  6  7  1  6
  8  9  2  0
 10 11  1  0
 10  8  1  0
 11 12  1  6
 12 13  1  0
 13 14  1  0
 14 18  1  0
 14 15  2  0
 16 19  1  0
 16 11  1  0
 17 16  2  0
 20 21  1  6
 20 19  1  0
 21 22  1  0
 22 23  2  0
 22 26  1  0
 23 24  1  0
 24 25  1  0
 26 25  2  0
 27 29  1  0
 27 20  1  0
 28 27  2  0
M  END
$$$$
