QEH.pdb
     RDKit          3D

 29 29  0  0  1  0  0  0  0  0999 V2000
   14.3882  -13.7818   20.4763 N   0  0  0  0  0  0  0  0  0  0  0  0
   14.0133  -13.7240   19.0753 C   0  0  0  0  0  0  0  0  0  0  0  0
   14.9680  -13.5553   18.3029 O   0  0  0  0  0  0  0  0  0  0  0  0
   12.5925  -13.8624   18.7333 C   0  0  0  0  0  0  0  0  0  0  0  0
   11.7435  -14.2911   19.8548 C   0  0  0  0  0  0  0  0  0  0  0  0
   10.7544  -15.3767   19.6306 C   0  0  2  0  0  0  0  0  0  0  0  0
    9.7438  -14.8821   18.6456 N   0  0  0  0  0  0  0  0  0  0  0  0
   10.0206  -15.8979   20.7658 C   0  0  0  0  0  0  0  0  0  0  0  0
    8.7735  -15.8165   20.8125 O   0  0  0  0  0  0  0  0  0  0  0  0
   10.7074  -16.5282   21.8671 N   0  0  0  0  0  0  0  0  0  0  0  0
    9.9905  -17.1508   22.9401 C   0  0  1  0  0  0  0  0  0  0  0  0
   10.1272  -18.6237   22.9914 C   0  0  0  0  0  0  0  0  0  0  0  0
    9.8430  -19.4412   21.8117 C   0  0  0  0  0  0  0  0  0  0  0  0
   10.0934  -20.8923   21.9216 C   0  0  0  0  0  0  0  0  0  0  0  0
    9.2293  -21.7746   21.8227 O   0  0  0  0  0  0  0  0  0  0  0  0
   10.2390  -16.4838   24.2356 C   0  0  0  0  0  0  0  0  0  0  0  0
   11.3507  -15.9900   24.4769 O   0  0  0  0  0  0  0  0  0  0  0  0
   11.4010  -21.3725   22.1577 O   0  0  0  0  0  0  0  0  0  0  0  0
    9.2089  -16.4131   25.1908 N   0  0  0  0  0  0  0  0  0  0  0  0
    9.4809  -15.7469   26.4842 C   0  0  1  0  0  0  0  0  0  0  0  0
    8.1757  -15.2098   26.9842 C   0  0  0  0  0  0  0  0  0  0  0  0
    7.6696  -14.0277   26.2751 C   0  0  0  0  0  0  0  0  0  0  0  0
    8.2081  -13.2766   25.2691 C   0  0  0  0  0  0  0  0  0  0  0  0
    7.3427  -12.3073   24.8608 N   0  0  0  0  0  0  0  0  0  0  0  0
    6.2625  -12.4682   25.6242 C   0  0  0  0  0  0  0  0  0  0  0  0
    6.4186  -13.4751   26.4715 N   0  0  0  0  0  0  0  0  0  0  0  0
    9.9845  -16.8382   27.3731 C   0  0  0  0  0  0  0  0  0  0  0  0
   10.2515  -16.6108   28.5563 O   0  0  0  0  0  0  0  0  0  0  0  0
   10.1440  -18.1261   26.8232 O   0  0  0  0  0  0  0  0  0  0  0  0
  2  3  2  0
  2  1  1  0
  4  2  1  0
  5  4  1  0
  5  6  1  0
  6  8  1  0
  6  7  1  6
  8  9  2  0
 10 11  1  0
 10  8  1  0
 11 12  1  1
 12 13  1  0
 13 14  1  0
 14 18  1  0
 14 15  2  0
 16 19  1  0
 16 11  1  0
 17 16  2  0
 20 21  1  1
 20 19  1  0
 21 22  1  0
 22 23  2  0
 22 26  1  0
 23 24  1  0
 24 25  1  0
 26 25  2  0
 27 29  1  0
 27 20  1  0
 28 27  2  0
M  END
$$$$
