KRC.pdb
     RDKit          3D

 27 26  0  0  1  0  0  0  0  0999 V2000
    6.6454  -15.5750   19.0904 N   0  0  0  0  0  0  0  0  0  0  0  0
    7.4621  -14.8275   20.0166 C   0  0  1  0  0  0  0  0  0  0  0  0
    7.3257  -13.3790   19.7114 C   0  0  0  0  0  0  0  0  0  0  0  0
    8.6673  -12.7298   19.5950 C   0  0  0  0  0  0  0  0  0  0  0  0
    9.7138  -13.6761   19.0763 C   0  0  0  0  0  0  0  0  0  0  0  0
   11.0710  -12.9905   19.0538 C   0  0  0  0  0  0  0  0  0  0  0  0
   12.0620  -13.9820   18.6820 N   0  0  0  0  0  0  0  0  0  0  0  0
    7.1457  -15.1575   21.4307 C   0  0  0  0  0  0  0  0  0  0  0  0
    5.9354  -15.1364   21.7928 O   0  0  0  0  0  0  0  0  0  0  0  0
    6.4077  -20.3624   26.4634 N   0  0  0  0  0  0  0  0  0  0  0  0
    7.5058  -20.1324   27.3415 C   0  0  0  0  0  0  0  0  0  0  0  0
    7.4027  -20.3309   28.6022 N   0  0  0  0  0  0  0  0  0  0  0  0
    8.7518  -19.6720   26.8294 N   0  0  0  0  0  0  0  0  0  0  0  0
    8.9656  -19.2594   25.4611 C   0  0  0  0  0  0  0  0  0  0  0  0
    8.2120  -17.9560   25.2753 C   0  0  0  0  0  0  0  0  0  0  0  0
    8.3608  -17.3663   23.9336 C   0  0  0  0  0  0  0  0  0  0  0  0
    7.7302  -16.0191   23.7402 C   0  0  2  0  0  0  0  0  0  0  0  0
    8.0978  -15.4970   22.4159 N   0  0  0  0  0  0  0  0  0  0  0  0
    8.1602  -14.9855   24.6993 C   0  0  0  0  0  0  0  0  0  0  0  0
    9.2898  -14.4408   24.5595 O   0  0  0  0  0  0  0  0  0  0  0  0
    8.2238  -20.2398   29.2130 N   0  0  0  0  0  0  0  0  0  0  0  0
    7.3967  -14.5286   25.7986 C   0  0  2  0  0  0  0  0  0  0  0  0
    7.9469  -13.4912   26.6986 C   0  0  0  0  0  0  0  0  0  0  0  0
    6.8085  -12.5528   27.1194 S   0  0  0  0  0  0  0  0  0  0  0  0
    5.2869  -13.4683   27.4458 C   0  0  0  0  0  0  0  0  0  0  0  0
    8.6163  -14.1131   27.8433 O   0  0  0  0  0  0  0  0  0  0  0  0
    8.5125  -15.3545   28.0364 O   0  0  0  0  0  0  0  0  0  0  0  0
  2  1  1  6
  2  3  1  0
  2  8  1  0
  4  5  1  0
  4  3  1  0
  5  6  1  0
  7  6  1  0
  8 18  1  0
  8  9  2  0
 10 11  1  0
 11 12  2  0
 13 14  1  0
 13 11  1  0
 14 15  1  0
 15 16  1  0
 17 16  1  1
 18 17  1  0
 19 17  1  0
 19 21  1  0
 20 19  2  0
 22 23  1  6
 22 21  1  0
 22 25  1  0
 24 23  1  0
 25 27  1  0
 26 25  2  0
M  END
$$$$
