KRC.pdb
     RDKit          3D

 27 26  0  0  1  0  0  0  0  0999 V2000
    6.9538  -20.2093   23.9064 N   0  0  0  0  0  0  0  0  0  0  0  0
    6.6620  -18.9167   24.4786 C   0  0  1  0  0  0  0  0  0  0  0  0
    6.7284  -19.0246   25.9597 C   0  0  0  0  0  0  0  0  0  0  0  0
    7.3781  -20.3060   26.3727 C   0  0  0  0  0  0  0  0  0  0  0  0
    7.5698  -20.3925   27.8611 C   0  0  0  0  0  0  0  0  0  0  0  0
    8.3735  -21.6349   28.2116 C   0  0  0  0  0  0  0  0  0  0  0  0
    7.4973  -22.5418   28.9281 N   0  0  0  0  0  0  0  0  0  0  0  0
    7.5440  -17.8530   23.9316 C   0  0  0  0  0  0  0  0  0  0  0  0
    8.6940  -18.1813   23.5240 O   0  0  0  0  0  0  0  0  0  0  0  0
    7.5052  -12.9107   17.4200 N   0  0  0  0  0  0  0  0  0  0  0  0
    8.0081  -14.0931   18.0354 C   0  0  0  0  0  0  0  0  0  0  0  0
    8.2655  -15.1428   17.3488 N   0  0  0  0  0  0  0  0  0  0  0  0
    8.2360  -14.1315   19.4401 N   0  0  0  0  0  0  0  0  0  0  0  0
    7.7622  -13.1302   20.3680 C   0  0  0  0  0  0  0  0  0  0  0  0
    8.2679  -13.5327   21.7405 C   0  0  0  0  0  0  0  0  0  0  0  0
    7.4233  -14.5311   22.4188 C   0  0  0  0  0  0  0  0  0  0  0  0
    8.1364  -15.4573   23.3588 C   0  0  2  0  0  0  0  0  0  0  0  0
    7.1990  -16.4882   23.8282 N   0  0  0  0  0  0  0  0  0  0  0  0
    8.6613  -14.8227   24.5814 C   0  0  0  0  0  0  0  0  0  0  0  0
    8.5623  -13.5728   24.7233 O   0  0  0  0  0  0  0  0  0  0  0  0
    8.6548  -15.9790   17.8013 N   0  0  0  0  0  0  0  0  0  0  0  0
    9.2848  -15.5083   25.6497 C   0  0  1  0  0  0  0  0  0  0  0  0
    9.5897  -14.7923   26.9079 C   0  0  0  0  0  0  0  0  0  0  0  0
    8.2734  -14.3009   27.5242 S   0  0  0  0  0  0  0  0  0  0  0  0
    8.1157  -12.5067   27.3958 C   0  0  0  0  0  0  0  0  0  0  0  0
   10.3478  -15.6568   27.8151 O   0  0  0  0  0  0  0  0  0  0  0  0
   10.7095  -15.2246   28.9428 O   0  0  0  0  0  0  0  0  0  0  0  0
  2  1  1  6
  2  3  1  0
  2  8  1  0
  4  5  1  0
  4  3  1  0
  5  6  1  0
  7  6  1  0
  8 18  1  0
  8  9  2  0
 10 11  1  0
 11 12  2  0
 13 14  1  0
 13 11  1  0
 14 15  1  0
 15 16  1  0
 17 16  1  6
 18 17  1  0
 19 17  1  0
 19 21  1  0
 20 19  2  0
 22 23  1  6
 22 21  1  0
 22 25  1  0
 24 23  1  0
 25 27  1  0
 26 25  2  0
M  END
$$$$
