KRC.pdb
     RDKit          3D

 27 26  0  0  1  0  0  0  0  0999 V2000
    7.1593  -14.7843   18.4009 N   0  0  0  0  0  0  0  0  0  0  0  0
    8.1098  -14.8882   19.4823 C   0  0  1  0  0  0  0  0  0  0  0  0
    8.9366  -13.6532   19.5112 C   0  0  0  0  0  0  0  0  0  0  0  0
   10.2164  -13.8505   18.7641 C   0  0  0  0  0  0  0  0  0  0  0  0
   11.3855  -14.0621   19.6850 C   0  0  0  0  0  0  0  0  0  0  0  0
   12.6849  -14.0164   18.8963 C   0  0  0  0  0  0  0  0  0  0  0  0
   13.7798  -13.9985   19.8472 N   0  0  0  0  0  0  0  0  0  0  0  0
    7.4472  -15.1766   20.7809 C   0  0  0  0  0  0  0  0  0  0  0  0
    6.2796  -14.7316   20.9678 O   0  0  0  0  0  0  0  0  0  0  0  0
    8.7164  -19.0463   26.9847 N   0  0  0  0  0  0  0  0  0  0  0  0
    7.5209  -19.8008   27.1616 C   0  0  0  0  0  0  0  0  0  0  0  0
    7.1491  -20.1965   28.3212 N   0  0  0  0  0  0  0  0  0  0  0  0
    6.7082  -20.1335   26.0411 N   0  0  0  0  0  0  0  0  0  0  0  0
    7.0411  -19.8130   24.6719 C   0  0  0  0  0  0  0  0  0  0  0  0
    7.0491  -18.2996   24.5674 C   0  0  0  0  0  0  0  0  0  0  0  0
    7.3793  -17.7957   23.2231 C   0  0  0  0  0  0  0  0  0  0  0  0
    7.2739  -16.3107   23.0397 C   0  0  2  0  0  0  0  0  0  0  0  0
    8.0219  -15.9162   21.8370 N   0  0  0  0  0  0  0  0  0  0  0  0
    7.8440  -15.5048   24.1345 C   0  0  0  0  0  0  0  0  0  0  0  0
    9.0966  -15.3874   24.2314 O   0  0  0  0  0  0  0  0  0  0  0  0
    6.3200  -20.7939   28.4270 N   0  0  0  0  0  0  0  0  0  0  0  0
    7.0916  -14.8240   25.1196 C   0  0  2  0  0  0  0  0  0  0  0  0
    7.7751  -13.9429   26.0919 C   0  0  0  0  0  0  0  0  0  0  0  0
    6.7679  -12.9072   26.6080 S   0  0  0  0  0  0  0  0  0  0  0  0
    7.4913  -11.8711   27.8979 C   0  0  0  0  0  0  0  0  0  0  0  0
    8.3682  -14.7374   27.1699 O   0  0  0  0  0  0  0  0  0  0  0  0
    7.8963  -15.8724   27.4498 O   0  0  0  0  0  0  0  0  0  0  0  0
  2  1  1  6
  2  3  1  0
  2  8  1  0
  4  5  1  0
  4  3  1  0
  5  6  1  0
  7  6  1  0
  8 18  1  0
  8  9  2  0
 10 11  1  0
 11 12  2  0
 13 14  1  0
 13 11  1  0
 14 15  1  0
 15 16  1  0
 17 16  1  1
 18 17  1  0
 19 17  1  0
 19 21  1  0
 20 19  2  0
 22 23  1  1
 22 21  1  0
 22 25  1  0
 24 23  1  0
 25 27  1  0
 26 25  2  0
M  END
$$$$
