KRC.pdb
     RDKit          3D

 27 26  0  0  1  0  0  0  0  0999 V2000
    6.7224  -17.5790   19.8572 N   0  0  0  0  0  0  0  0  0  0  0  0
    7.5172  -16.5976   20.5563 C   0  0  1  0  0  0  0  0  0  0  0  0
    7.2582  -15.2610   19.9595 C   0  0  0  0  0  0  0  0  0  0  0  0
    8.0422  -15.0782   18.6998 C   0  0  0  0  0  0  0  0  0  0  0  0
    7.8063  -13.7321   18.0737 C   0  0  0  0  0  0  0  0  0  0  0  0
    8.6535  -13.5853   16.8193 C   0  0  0  0  0  0  0  0  0  0  0  0
    8.3637  -12.2885   16.2383 N   0  0  0  0  0  0  0  0  0  0  0  0
    7.2856  -16.6355   22.0238 C   0  0  0  0  0  0  0  0  0  0  0  0
    6.0945  -16.7084   22.4390 O   0  0  0  0  0  0  0  0  0  0  0  0
   11.6219  -18.9867   29.0477 N   0  0  0  0  0  0  0  0  0  0  0  0
   10.2825  -19.2817   29.4333 C   0  0  0  0  0  0  0  0  0  0  0  0
   10.0076  -19.7127   30.6072 N   0  0  0  0  0  0  0  0  0  0  0  0
    9.2127  -19.1020   28.5114 N   0  0  0  0  0  0  0  0  0  0  0  0
    9.3594  -19.1590   27.0749 C   0  0  0  0  0  0  0  0  0  0  0  0
    8.6515  -17.9396   26.5151 C   0  0  0  0  0  0  0  0  0  0  0  0
    8.7425  -17.8167   25.0500 C   0  0  0  0  0  0  0  0  0  0  0  0
    8.0212  -16.6473   24.4480 C   0  0  2  0  0  0  0  0  0  0  0  0
    8.2993  -16.5961   23.0052 N   0  0  0  0  0  0  0  0  0  0  0  0
    8.4256  -15.3291   24.9694 C   0  0  0  0  0  0  0  0  0  0  0  0
    9.5842  -14.8935   24.7239 O   0  0  0  0  0  0  0  0  0  0  0  0
    9.0338  -19.8908   30.8822 N   0  0  0  0  0  0  0  0  0  0  0  0
    7.6065  -14.4751   25.7439 C   0  0  2  0  0  0  0  0  0  0  0  0
    8.1544  -13.2060   26.2710 C   0  0  0  0  0  0  0  0  0  0  0  0
    7.0084  -12.1947   26.4047 S   0  0  0  0  0  0  0  0  0  0  0  0
    5.5337  -12.9603   27.1111 C   0  0  0  0  0  0  0  0  0  0  0  0
    8.8503  -13.4390   27.5385 O   0  0  0  0  0  0  0  0  0  0  0  0
    8.7481  -14.5538   28.1182 O   0  0  0  0  0  0  0  0  0  0  0  0
  2  1  1  6
  2  3  1  0
  2  8  1  0
  4  5  1  0
  4  3  1  0
  5  6  1  0
  7  6  1  0
  8 18  1  0
  8  9  2  0
 10 11  1  0
 11 12  2  0
 13 14  1  0
 13 11  1  0
 14 15  1  0
 15 16  1  0
 17 16  1  1
 18 17  1  0
 19 17  1  0
 19 21  1  0
 20 19  2  0
 22 23  1  6
 22 21  1  0
 22 25  1  0
 24 23  1  0
 25 27  1  0
 26 25  2  0
M  END
$$$$
