KRC.pdb
     RDKit          3D

 27 26  0  0  1  0  0  0  0  0999 V2000
    5.6899  -21.2568   21.0344 N   0  0  0  0  0  0  0  0  0  0  0  0
    5.3215  -20.3295   22.0775 C   0  0  1  0  0  0  0  0  0  0  0  0
    5.0503  -21.0950   23.3225 C   0  0  0  0  0  0  0  0  0  0  0  0
    3.8798  -22.0075   23.1435 C   0  0  0  0  0  0  0  0  0  0  0  0
    3.6440  -22.8731   24.3496 C   0  0  0  0  0  0  0  0  0  0  0  0
    2.4873  -23.8255   24.0893 C   0  0  0  0  0  0  0  0  0  0  0  0
    2.3371  -24.6700   25.2588 N   0  0  0  0  0  0  0  0  0  0  0  0
    6.3395  -19.2622   22.2595 C   0  0  0  0  0  0  0  0  0  0  0  0
    7.5578  -19.5959   22.2811 O   0  0  0  0  0  0  0  0  0  0  0  0
    8.2002  -14.2219   18.3590 N   0  0  0  0  0  0  0  0  0  0  0  0
    8.0920  -13.2147   19.3607 C   0  0  0  0  0  0  0  0  0  0  0  0
    8.4682  -12.0112   19.1378 N   0  0  0  0  0  0  0  0  0  0  0  0
    7.5585  -13.5296   20.6425 N   0  0  0  0  0  0  0  0  0  0  0  0
    8.3487  -13.9931   21.7602 C   0  0  0  0  0  0  0  0  0  0  0  0
    7.3720  -14.3806   22.8544 C   0  0  0  0  0  0  0  0  0  0  0  0
    6.4928  -15.5076   22.4981 C   0  0  0  0  0  0  0  0  0  0  0  0
    7.0934  -16.8743   22.6441 C   0  0  2  0  0  0  0  0  0  0  0  0
    6.0542  -17.8882   22.4124 N   0  0  0  0  0  0  0  0  0  0  0  0
    7.6407  -17.1759   23.9793 C   0  0  0  0  0  0  0  0  0  0  0  0
    6.8691  -17.1893   24.9776 O   0  0  0  0  0  0  0  0  0  0  0  0
    8.3710  -11.2917   19.8647 N   0  0  0  0  0  0  0  0  0  0  0  0
    8.9972  -17.4651   24.2554 C   0  0  2  0  0  0  0  0  0  0  0  0
    9.4198  -17.7679   25.6405 C   0  0  0  0  0  0  0  0  0  0  0  0
   10.5512  -18.8030   25.5931 S   0  0  0  0  0  0  0  0  0  0  0  0
   12.0603  -18.0978   24.8963 C   0  0  0  0  0  0  0  0  0  0  0  0
    9.8102  -16.5385   26.3342 O   0  0  0  0  0  0  0  0  0  0  0  0
    9.9232  -15.4602   25.6908 O   0  0  0  0  0  0  0  0  0  0  0  0
  2  1  1  6
  2  3  1  0
  2  8  1  0
  4  5  1  0
  4  3  1  0
  5  6  1  0
  7  6  1  0
  8 18  1  0
  8  9  2  0
 10 11  1  0
 11 12  2  0
 13 14  1  0
 13 11  1  0
 14 15  1  0
 15 16  1  0
 17 16  1  1
 18 17  1  0
 19 17  1  0
 19 21  1  0
 20 19  2  0
 22 23  1  6
 22 21  1  0
 22 25  1  0
 24 23  1  0
 25 27  1  0
 26 25  2  0
M  END
$$$$
