KRC.pdb
     RDKit          3D

 27 26  0  0  1  0  0  0  0  0999 V2000
    6.6733  -15.9673   19.9100 N   0  0  0  0  0  0  0  0  0  0  0  0
    7.5704  -15.0372   20.5531 C   0  0  1  0  0  0  0  0  0  0  0  0
    7.0268  -13.6627   20.3946 C   0  0  0  0  0  0  0  0  0  0  0  0
    7.6619  -12.9686   19.2329 C   0  0  0  0  0  0  0  0  0  0  0  0
    7.7519  -13.8540   18.0214 C   0  0  0  0  0  0  0  0  0  0  0  0
    8.4537  -13.1193   16.8900 C   0  0  0  0  0  0  0  0  0  0  0  0
    8.5838  -14.0402   15.7773 N   0  0  0  0  0  0  0  0  0  0  0  0
    7.8291  -15.4018   21.9705 C   0  0  0  0  0  0  0  0  0  0  0  0
    6.8422  -15.4902   22.7544 O   0  0  0  0  0  0  0  0  0  0  0  0
   10.7152  -21.1354   23.9627 N   0  0  0  0  0  0  0  0  0  0  0  0
   11.5067  -21.0096   22.7848 C   0  0  0  0  0  0  0  0  0  0  0  0
   11.6502  -21.9882   21.9717 N   0  0  0  0  0  0  0  0  0  0  0  0
   12.1609  -19.7810   22.4859 N   0  0  0  0  0  0  0  0  0  0  0  0
   12.1617  -18.6278   23.3569 C   0  0  0  0  0  0  0  0  0  0  0  0
   10.7890  -17.9924   23.2411 C   0  0  0  0  0  0  0  0  0  0  0  0
   10.6290  -16.7666   24.0424 C   0  0  0  0  0  0  0  0  0  0  0  0
    9.3041  -16.0744   23.9172 C   0  0  2  0  0  0  0  0  0  0  0  0
    9.1028  -15.6610   22.5207 N   0  0  0  0  0  0  0  0  0  0  0  0
    9.1673  -14.8406   24.7121 C   0  0  0  0  0  0  0  0  0  0  0  0
    9.8023  -13.8063   24.3666 O   0  0  0  0  0  0  0  0  0  0  0  0
   12.1721  -21.8654   21.0953 N   0  0  0  0  0  0  0  0  0  0  0  0
    8.3598  -14.7015   25.8648 C   0  0  2  0  0  0  0  0  0  0  0  0
    8.6123  -13.5946   26.8133 C   0  0  0  0  0  0  0  0  0  0  0  0
    7.4104  -12.6414   26.7862 S   0  0  0  0  0  0  0  0  0  0  0  0
    5.8567  -13.5343   27.0073 C   0  0  0  0  0  0  0  0  0  0  0  0
    8.8819  -14.1228   28.1525 O   0  0  0  0  0  0  0  0  0  0  0  0
    8.7473  -15.3548   28.3832 O   0  0  0  0  0  0  0  0  0  0  0  0
  2  1  1  1
  2  3  1  0
  2  8  1  0
  4  5  1  0
  4  3  1  0
  5  6  1  0
  7  6  1  0
  8 18  1  0
  8  9  2  0
 10 11  1  0
 11 12  2  0
 13 14  1  0
 13 11  1  0
 14 15  1  0
 15 16  1  0
 17 16  1  6
 18 17  1  0
 19 17  1  0
 19 21  1  0
 20 19  2  0
 22 23  1  6
 22 21  1  0
 22 25  1  0
 24 23  1  0
 25 27  1  0
 26 25  2  0
M  END
$$$$
