KRC.pdb
     RDKit          3D

 27 26  0  0  1  0  0  0  0  0999 V2000
    7.4508  -17.3571   19.4973 N   0  0  0  0  0  0  0  0  0  0  0  0
    8.0058  -16.2720   20.2707 C   0  0  1  0  0  0  0  0  0  0  0  0
    7.5795  -14.9849   19.6615 C   0  0  0  0  0  0  0  0  0  0  0  0
    8.0907  -14.8619   18.2621 C   0  0  0  0  0  0  0  0  0  0  0  0
    7.7746  -13.5227   17.6569 C   0  0  0  0  0  0  0  0  0  0  0  0
    8.2070  -13.4944   16.1993 C   0  0  0  0  0  0  0  0  0  0  0  0
    7.8853  -12.1843   15.6671 N   0  0  0  0  0  0  0  0  0  0  0  0
    7.6568  -16.3789   21.7114 C   0  0  0  0  0  0  0  0  0  0  0  0
    6.4637  -16.1462   22.0560 O   0  0  0  0  0  0  0  0  0  0  0  0
    9.1760  -21.0987   21.7326 N   0  0  0  0  0  0  0  0  0  0  0  0
    8.0493  -21.7569   22.3043 C   0  0  0  0  0  0  0  0  0  0  0  0
    7.2651  -22.4748   21.5907 N   0  0  0  0  0  0  0  0  0  0  0  0
    7.7698  -21.6277   23.6943 N   0  0  0  0  0  0  0  0  0  0  0  0
    8.3551  -20.6216   24.5508 C   0  0  0  0  0  0  0  0  0  0  0  0
    7.9865  -19.2750   23.9575 C   0  0  0  0  0  0  0  0  0  0  0  0
    8.5106  -18.1253   24.7149 C   0  0  0  0  0  0  0  0  0  0  0  0
    8.1777  -16.7724   24.1592 C   0  0  2  0  0  0  0  0  0  0  0  0
    8.5596  -16.7233   22.7403 N   0  0  0  0  0  0  0  0  0  0  0  0
    8.8871  -15.6460   24.7925 C   0  0  0  0  0  0  0  0  0  0  0  0
    9.4135  -14.7577   24.0672 O   0  0  0  0  0  0  0  0  0  0  0  0
    6.4457  -22.9287   22.0127 N   0  0  0  0  0  0  0  0  0  0  0  0
    9.0354  -15.4593   26.1865 C   0  0  2  0  0  0  0  0  0  0  0  0
    8.9698  -14.0969   26.7595 C   0  0  0  0  0  0  0  0  0  0  0  0
    7.6737  -13.4270   26.2851 S   0  0  0  0  0  0  0  0  0  0  0  0
    7.4863  -11.7779   26.9962 C   0  0  0  0  0  0  0  0  0  0  0  0
    9.0729  -14.1529   28.2194 O   0  0  0  0  0  0  0  0  0  0  0  0
    8.5055  -15.0810   28.8565 O   0  0  0  0  0  0  0  0  0  0  0  0
  2  1  1  6
  2  3  1  0
  2  8  1  0
  4  5  1  0
  4  3  1  0
  5  6  1  0
  7  6  1  0
  8 18  1  0
  8  9  2  0
 10 11  1  0
 11 12  2  0
 13 14  1  0
 13 11  1  0
 14 15  1  0
 15 16  1  0
 17 16  1  1
 18 17  1  0
 19 17  1  0
 19 21  1  0
 20 19  2  0
 22 23  1  6
 22 21  1  0
 22 25  1  0
 24 23  1  0
 25 27  1  0
 26 25  2  0
M  END
$$$$
