LAS.pdb
     RDKit          3D

 20 19  0  0  1  0  0  0  0  0999 V2000
   19.5544  -11.9269  -21.3351 C   0  0  0  0  0  0  0  0  0  0  0  0
   20.4732  -11.7295  -20.1485 C   0  0  1  0  0  0  0  0  0  0  0  0
   21.7770  -11.0788  -20.5499 C   0  0  0  0  0  0  0  0  0  0  0  0
   19.7500  -10.8566  -19.1443 C   0  0  0  0  0  0  0  0  0  0  0  0
   20.6670  -10.6662  -17.9682 C   0  0  2  0  0  0  0  0  0  0  0  0
   20.8285  -11.8497  -17.1841 N   0  0  0  0  0  0  0  0  0  0  0  0
   20.2024   -9.5036  -17.1354 C   0  0  0  0  0  0  0  0  0  0  0  0
   19.0823   -8.9923  -17.3919 O   0  0  0  0  0  0  0  0  0  0  0  0
   21.1424   -7.7981  -13.9285 C   0  0  0  0  0  0  0  0  0  0  0  0
   20.4151   -7.9109  -15.2567 C   0  0  2  0  0  0  0  0  0  0  0  0
   20.9577   -8.9620  -16.0868 N   0  0  0  0  0  0  0  0  0  0  0  0
   20.5699   -6.5850  -15.9560 C   0  0  0  0  0  0  0  0  0  0  0  0
   21.6050   -6.3324  -16.6241 O   0  0  0  0  0  0  0  0  0  0  0  0
   17.3457   -4.4990  -16.6777 O   0  0  0  0  0  0  0  0  0  0  0  0
   18.4731   -4.1270  -17.4265 C   0  0  0  0  0  0  0  0  0  0  0  0
   19.7060   -4.2855  -16.5411 C   0  0  2  0  0  0  0  0  0  0  0  0
   19.5574   -5.5914  -15.8798 N   0  0  0  0  0  0  0  0  0  0  0  0
   19.6494   -3.2169  -15.5319 C   0  0  0  0  0  0  0  0  0  0  0  0
   19.7619   -1.9004  -15.8998 O   0  0  0  0  0  0  0  0  0  0  0  0
   19.4982   -3.5089  -14.3344 O   0  0  0  0  0  0  0  0  0  0  0  0
  2  1  1  6
  3  2  1  0
  4  2  1  0
  4  5  1  0
  5  6  1  1
  7  5  1  0
  7  8  2  0
 10  9  1  1
 10 11  1  0
 10 12  1  0
 11  7  1  0
 12 13  2  0
 15 14  1  0
 16 15  1  6
 17 12  1  0
 17 16  1  0
 18 19  1  0
 18 16  1  0
 20 18  2  0
M  END
$$$$
