LAS.pdb
     RDKit          3D

 20 19  0  0  1  0  0  0  0  0999 V2000
   28.6860  -11.9751  -16.5848 C   0  0  0  0  0  0  0  0  0  0  0  0
   27.3135  -12.6122  -16.6208 C   0  0  1  0  0  0  0  0  0  0  0  0
   27.1016  -13.5559  -15.4593 C   0  0  0  0  0  0  0  0  0  0  0  0
   26.2865  -11.5001  -16.5745 C   0  0  0  0  0  0  0  0  0  0  0  0
   24.9386  -12.1196  -16.8193 C   0  0  2  0  0  0  0  0  0  0  0  0
   24.8892  -12.9046  -18.0121 N   0  0  0  0  0  0  0  0  0  0  0  0
   23.8735  -11.0583  -16.8046 C   0  0  0  0  0  0  0  0  0  0  0  0
   23.7310  -10.3379  -17.8257 O   0  0  0  0  0  0  0  0  0  0  0  0
   20.8568  -10.0979  -14.8260 C   0  0  0  0  0  0  0  0  0  0  0  0
   22.0195   -9.8026  -15.7570 C   0  0  2  0  0  0  0  0  0  0  0  0
   23.0315  -10.8331  -15.7075 N   0  0  0  0  0  0  0  0  0  0  0  0
   22.6137   -8.4902  -15.3147 C   0  0  0  0  0  0  0  0  0  0  0  0
   23.6312   -8.4665  -14.5759 O   0  0  0  0  0  0  0  0  0  0  0  0
   22.6388   -5.3486  -17.7286 O   0  0  0  0  0  0  0  0  0  0  0  0
   22.1531   -4.9845  -16.4630 C   0  0  0  0  0  0  0  0  0  0  0  0
   22.7083   -5.9699  -15.4386 C   0  0  2  0  0  0  0  0  0  0  0  0
   22.0442   -7.2527  -15.7178 N   0  0  0  0  0  0  0  0  0  0  0  0
   22.2984   -5.4854  -14.1116 C   0  0  0  0  0  0  0  0  0  0  0  0
   23.1485   -4.7230  -13.3518 O   0  0  0  0  0  0  0  0  0  0  0  0
   21.1713   -5.7691  -13.6742 O   0  0  0  0  0  0  0  0  0  0  0  0
  2  1  1  1
  3  2  1  0
  4  2  1  0
  4  5  1  0
  5  6  1  6
  7  5  1  0
  7  8  2  0
 10  9  1  1
 10 11  1  0
 10 12  1  0
 11  7  1  0
 12 13  2  0
 15 14  1  0
 16 15  1  6
 17 12  1  0
 17 16  1  0
 18 19  1  0
 18 16  1  0
 20 18  2  0
M  END
$$$$
