LAS.pdb
     RDKit          3D

 20 19  0  0  1  0  0  0  0  0999 V2000
   28.2858  -12.4096  -17.6653 C   0  0  0  0  0  0  0  0  0  0  0  0
   26.9947  -12.4000  -16.8755 C   0  0  1  0  0  0  0  0  0  0  0  0
   27.2376  -12.6157  -15.3994 C   0  0  0  0  0  0  0  0  0  0  0  0
   26.3277  -11.0584  -17.0968 C   0  0  0  0  0  0  0  0  0  0  0  0
   24.9889  -11.1016  -16.4140 C   0  0  2  0  0  0  0  0  0  0  0  0
   24.2168  -12.2521  -16.7630 N   0  0  0  0  0  0  0  0  0  0  0  0
   24.2373   -9.8252  -16.6725 C   0  0  0  0  0  0  0  0  0  0  0  0
   24.7840   -8.7349  -16.3654 O   0  0  0  0  0  0  0  0  0  0  0  0
   21.0025   -8.7156  -18.2746 C   0  0  0  0  0  0  0  0  0  0  0  0
   22.3175   -8.5304  -17.5381 C   0  0  2  0  0  0  0  0  0  0  0  0
   22.9563   -9.7917  -17.2394 N   0  0  0  0  0  0  0  0  0  0  0  0
   22.0032   -7.8073  -16.2537 C   0  0  0  0  0  0  0  0  0  0  0  0
   21.6515   -8.4475  -15.2300 O   0  0  0  0  0  0  0  0  0  0  0  0
   22.6932   -3.8629  -13.6379 O   0  0  0  0  0  0  0  0  0  0  0  0
   22.8977   -4.5839  -14.8247 C   0  0  0  0  0  0  0  0  0  0  0  0
   21.8379   -5.6791  -14.9047 C   0  0  2  0  0  0  0  0  0  0  0  0
   22.0952   -6.3923  -16.1655 N   0  0  0  0  0  0  0  0  0  0  0  0
   20.5317   -5.0070  -14.9806 C   0  0  0  0  0  0  0  0  0  0  0  0
   19.8022   -4.7653  -13.8445 O   0  0  0  0  0  0  0  0  0  0  0  0
   20.0842   -4.6546  -16.0841 O   0  0  0  0  0  0  0  0  0  0  0  0
  2  1  1  6
  3  2  1  0
  4  2  1  0
  4  5  1  0
  5  6  1  6
  7  5  1  0
  7  8  2  0
 10  9  1  1
 10 11  1  0
 10 12  1  0
 11  7  1  0
 12 13  2  0
 15 14  1  0
 16 15  1  6
 17 12  1  0
 17 16  1  0
 18 19  1  0
 18 16  1  0
 20 18  2  0
M  END
$$$$
