LAS.pdb
     RDKit          3D

 20 19  0  0  1  0  0  0  0  0999 V2000
   22.7073  -14.7989  -19.6590 C   0  0  0  0  0  0  0  0  0  0  0  0
   23.3691  -13.9891  -18.5648 C   0  0  1  0  0  0  0  0  0  0  0  0
   24.7693  -13.5675  -18.9468 C   0  0  0  0  0  0  0  0  0  0  0  0
   22.5132  -12.7652  -18.3139 C   0  0  0  0  0  0  0  0  0  0  0  0
   23.0717  -12.0633  -17.1073 C   0  0  2  0  0  0  0  0  0  0  0  0
   23.1769  -12.9114  -15.9623 N   0  0  0  0  0  0  0  0  0  0  0  0
   22.2695  -10.8257  -16.8138 C   0  0  0  0  0  0  0  0  0  0  0  0
   22.2330   -9.9155  -17.6810 O   0  0  0  0  0  0  0  0  0  0  0  0
   19.6918   -9.6768  -14.3422 C   0  0  0  0  0  0  0  0  0  0  0  0
   20.7232   -9.4738  -15.4381 C   0  0  2  0  0  0  0  0  0  0  0  0
   21.5602  -10.6377  -15.6201 N   0  0  0  0  0  0  0  0  0  0  0  0
   21.5741   -8.2995  -15.0280 C   0  0  0  0  0  0  0  0  0  0  0  0
   22.6024   -8.4707  -14.3245 O   0  0  0  0  0  0  0  0  0  0  0  0
   22.3553   -3.5329  -15.6214 O   0  0  0  0  0  0  0  0  0  0  0  0
   21.6079   -4.6745  -15.9503 C   0  0  0  0  0  0  0  0  0  0  0  0
   22.0943   -5.8291  -15.0789 C   0  0  2  0  0  0  0  0  0  0  0  0
   21.2398   -6.9763  -15.4226 N   0  0  0  0  0  0  0  0  0  0  0  0
   21.8539   -5.4415  -13.6805 C   0  0  0  0  0  0  0  0  0  0  0  0
   22.8352   -4.8253  -12.9466 O   0  0  0  0  0  0  0  0  0  0  0  0
   20.7515   -5.6744  -13.1582 O   0  0  0  0  0  0  0  0  0  0  0  0
  2  1  1  6
  3  2  1  0
  4  2  1  0
  4  5  1  0
  5  6  1  1
  7  5  1  0
  7  8  2  0
 10  9  1  1
 10 11  1  0
 10 12  1  0
 11  7  1  0
 12 13  2  0
 15 14  1  0
 16 15  1  6
 17 12  1  0
 17 16  1  0
 18 19  1  0
 18 16  1  0
 20 18  2  0
M  END
$$$$
