LAS.pdb
     RDKit          3D

 20 19  0  0  1  0  0  0  0  0999 V2000
   18.1849  -17.6350  -17.1518 C   0  0  0  0  0  0  0  0  0  0  0  0
   17.8327  -16.5161  -16.1952 C   0  0  1  0  0  0  0  0  0  0  0  0
   18.3086  -16.8073  -14.7905 C   0  0  0  0  0  0  0  0  0  0  0  0
   18.4843  -15.2484  -16.7071 C   0  0  0  0  0  0  0  0  0  0  0  0
   17.9641  -14.1069  -15.8784 C   0  0  2  0  0  0  0  0  0  0  0  0
   16.5471  -14.1428  -15.6987 N   0  0  0  0  0  0  0  0  0  0  0  0
   18.4203  -12.7977  -16.4606 C   0  0  0  0  0  0  0  0  0  0  0  0
   19.6337  -12.6674  -16.7648 O   0  0  0  0  0  0  0  0  0  0  0  0
   16.9742   -9.5864  -17.7643 C   0  0  0  0  0  0  0  0  0  0  0  0
   18.0696  -10.4569  -17.1741 C   0  0  2  0  0  0  0  0  0  0  0  0
   17.5582  -11.7152  -16.6808 N   0  0  0  0  0  0  0  0  0  0  0  0
   18.6824   -9.6806  -16.0369 C   0  0  0  0  0  0  0  0  0  0  0  0
   18.3034   -9.8751  -14.8536 O   0  0  0  0  0  0  0  0  0  0  0  0
   22.2484   -6.6718  -14.7000 O   0  0  0  0  0  0  0  0  0  0  0  0
   21.6399   -7.4421  -15.7033 C   0  0  0  0  0  0  0  0  0  0  0  0
   20.3051   -7.9523  -15.1677 C   0  0  2  0  0  0  0  0  0  0  0  0
   19.6978   -8.7147  -16.2697 N   0  0  0  0  0  0  0  0  0  0  0  0
   19.4795   -6.7700  -14.8776 C   0  0  0  0  0  0  0  0  0  0  0  0
   19.3979   -6.2690  -13.6034 O   0  0  0  0  0  0  0  0  0  0  0  0
   18.8496   -6.2192  -15.7952 O   0  0  0  0  0  0  0  0  0  0  0  0
  2  1  1  6
  3  2  1  0
  4  2  1  0
  4  5  1  0
  5  6  1  6
  7  5  1  0
  7  8  2  0
 10  9  1  1
 10 11  1  0
 10 12  1  0
 11  7  1  0
 12 13  2  0
 15 14  1  0
 16 15  1  6
 17 12  1  0
 17 16  1  0
 18 19  1  0
 18 16  1  0
 20 18  2  0
M  END
$$$$
