LAS.pdb
     RDKit          3D

 20 19  0  0  1  0  0  0  0  0999 V2000
   18.8862  -12.2190  -20.9816 C   0  0  0  0  0  0  0  0  0  0  0  0
   20.0147  -11.9681  -20.0047 C   0  0  1  0  0  0  0  0  0  0  0  0
   21.2468  -11.4306  -20.6958 C   0  0  0  0  0  0  0  0  0  0  0  0
   19.5234  -10.9693  -18.9777 C   0  0  0  0  0  0  0  0  0  0  0  0
   20.6524  -10.7164  -18.0176 C   0  0  2  0  0  0  0  0  0  0  0  0
   21.0765  -11.8926  -17.3262 N   0  0  0  0  0  0  0  0  0  0  0  0
   20.2822   -9.6123  -17.0663 C   0  0  0  0  0  0  0  0  0  0  0  0
   19.8471   -8.5322  -17.5417 O   0  0  0  0  0  0  0  0  0  0  0  0
   19.9283   -9.0797  -13.3500 C   0  0  0  0  0  0  0  0  0  0  0  0
   19.9609   -8.6581  -14.8085 C   0  0  2  0  0  0  0  0  0  0  0  0
   20.3986   -9.7287  -15.6748 N   0  0  0  0  0  0  0  0  0  0  0  0
   20.9223   -7.5019  -14.9098 C   0  0  0  0  0  0  0  0  0  0  0  0
   22.1116   -7.6903  -15.2729 O   0  0  0  0  0  0  0  0  0  0  0  0
   19.7697   -3.8948  -15.9672 O   0  0  0  0  0  0  0  0  0  0  0  0
   20.5511   -3.7962  -14.8052 C   0  0  0  0  0  0  0  0  0  0  0  0
   21.4356   -5.0369  -14.7199 C   0  0  2  0  0  0  0  0  0  0  0  0
   20.5136   -6.1771  -14.6000 N   0  0  0  0  0  0  0  0  0  0  0  0
   22.2266   -4.9154  -13.4858 C   0  0  0  0  0  0  0  0  0  0  0  0
   23.2805   -4.0406  -13.4134 O   0  0  0  0  0  0  0  0  0  0  0  0
   21.9380   -5.6118  -12.4989 O   0  0  0  0  0  0  0  0  0  0  0  0
  2  1  1  6
  3  2  1  0
  4  2  1  0
  4  5  1  0
  5  6  1  1
  7  5  1  0
  7  8  2  0
 10  9  1  1
 10 11  1  0
 10 12  1  0
 11  7  1  0
 12 13  2  0
 15 14  1  0
 16 15  1  1
 17 12  1  0
 17 16  1  0
 18 19  1  0
 18 16  1  0
 20 18  2  0
M  END
$$$$
