LAS.pdb
     RDKit          3D

 20 19  0  0  1  0  0  0  0  0999 V2000
   15.5191  -10.0517  -18.8826 C   0  0  0  0  0  0  0  0  0  0  0  0
   16.4931  -10.9227  -18.1188 C   0  0  1  0  0  0  0  0  0  0  0  0
   17.4560  -11.6324  -19.0429 C   0  0  0  0  0  0  0  0  0  0  0  0
   17.2589  -10.0316  -17.1633 C   0  0  0  0  0  0  0  0  0  0  0  0
   18.1099  -10.9210  -16.3000 C   0  0  2  0  0  0  0  0  0  0  0  0
   17.3463  -11.8286  -15.5035 N   0  0  0  0  0  0  0  0  0  0  0  0
   19.0399  -10.0883  -15.4616 C   0  0  0  0  0  0  0  0  0  0  0  0
   18.5826   -9.5352  -14.4287 O   0  0  0  0  0  0  0  0  0  0  0  0
   22.7201   -9.4737  -15.1070 C   0  0  0  0  0  0  0  0  0  0  0  0
   21.2531   -9.1447  -14.8934 C   0  0  2  0  0  0  0  0  0  0  0  0
   20.3922   -9.8988  -15.7758 N   0  0  0  0  0  0  0  0  0  0  0  0
   21.0893   -7.6716  -15.1661 C   0  0  0  0  0  0  0  0  0  0  0  0
   20.8060   -7.2637  -16.3215 O   0  0  0  0  0  0  0  0  0  0  0  0
   19.6774   -3.4628  -13.7934 O   0  0  0  0  0  0  0  0  0  0  0  0
   19.8203   -4.8532  -13.6639 C   0  0  0  0  0  0  0  0  0  0  0  0
   21.0979   -5.2697  -14.3873 C   0  0  2  0  0  0  0  0  0  0  0  0
   21.2496   -6.7106  -14.1322 N   0  0  0  0  0  0  0  0  0  0  0  0
   22.2069   -4.5411  -13.7526 C   0  0  0  0  0  0  0  0  0  0  0  0
   22.5687   -3.2942  -14.1947 O   0  0  0  0  0  0  0  0  0  0  0  0
   22.8223   -5.0595  -12.8067 O   0  0  0  0  0  0  0  0  0  0  0  0
  2  1  1  6
  3  2  1  0
  4  2  1  0
  4  5  1  0
  5  6  1  1
  7  5  1  0
  7  8  2  0
 10  9  1  6
 10 11  1  0
 10 12  1  0
 11  7  1  0
 12 13  2  0
 15 14  1  0
 16 15  1  1
 17 12  1  0
 17 16  1  0
 18 19  1  0
 18 16  1  0
 20 18  2  0
M  END
$$$$
