LAS.pdb
     RDKit          3D

 20 19  0  0  1  0  0  0  0  0999 V2000
   26.6061   -9.8488  -15.5965 C   0  0  0  0  0  0  0  0  0  0  0  0
   25.2856  -10.5340  -15.8749 C   0  0  1  0  0  0  0  0  0  0  0  0
   24.5006  -10.7772  -14.6064 C   0  0  0  0  0  0  0  0  0  0  0  0
   24.4916   -9.6451  -16.8093 C   0  0  0  0  0  0  0  0  0  0  0  0
   23.1929  -10.3436  -17.1022 C   0  0  2  0  0  0  0  0  0  0  0  0
   23.3603  -11.5542  -17.8424 N   0  0  0  0  0  0  0  0  0  0  0  0
   22.2422   -9.3990  -17.7841 C   0  0  0  0  0  0  0  0  0  0  0  0
   22.4853   -9.0558  -18.9694 O   0  0  0  0  0  0  0  0  0  0  0  0
   18.7808   -8.3489  -17.7899 C   0  0  0  0  0  0  0  0  0  0  0  0
   20.2434   -7.9461  -17.8563 C   0  0  2  0  0  0  0  0  0  0  0  0
   21.0977   -8.8823  -17.1622 N   0  0  0  0  0  0  0  0  0  0  0  0
   20.3544   -6.5882  -17.2120 C   0  0  0  0  0  0  0  0  0  0  0  0
   19.7817   -5.5910  -17.7211 O   0  0  0  0  0  0  0  0  0  0  0  0
   20.0554   -3.5578  -14.0353 O   0  0  0  0  0  0  0  0  0  0  0  0
   19.9140   -4.7416  -14.7761 C   0  0  0  0  0  0  0  0  0  0  0  0
   21.2627   -5.0700  -15.4103 C   0  0  2  0  0  0  0  0  0  0  0  0
   21.1041   -6.3995  -16.0201 N   0  0  0  0  0  0  0  0  0  0  0  0
   22.2433   -5.1473  -14.3166 C   0  0  0  0  0  0  0  0  0  0  0  0
   22.7532   -6.3567  -13.9182 O   0  0  0  0  0  0  0  0  0  0  0  0
   22.6137   -4.1075  -13.7476 O   0  0  0  0  0  0  0  0  0  0  0  0
  2  1  1  1
  3  2  1  0
  4  2  1  0
  4  5  1  0
  5  6  1  6
  7  5  1  0
  7  8  2  0
 10  9  1  1
 10 11  1  0
 10 12  1  0
 11  7  1  0
 12 13  2  0
 15 14  1  0
 16 15  1  1
 17 12  1  0
 17 16  1  0
 18 19  1  0
 18 16  1  0
 20 18  2  0
M  END
$$$$
