LAS.pdb
     RDKit          3D

 20 19  0  0  1  0  0  0  0  0999 V2000
   26.9965  -32.2938  -18.8115 C   0  0  0  0  0  0  0  0  0  0  0  0
   27.7836  -31.2896  -17.9973 C   0  0  1  0  0  0  0  0  0  0  0  0
   29.2213  -31.1989  -18.4549 C   0  0  0  0  0  0  0  0  0  0  0  0
   27.1093  -29.9421  -18.1484 C   0  0  0  0  0  0  0  0  0  0  0  0
   27.9121  -28.9444  -17.3608 C   0  0  2  0  0  0  0  0  0  0  0  0
   28.0437  -29.2924  -15.9813 N   0  0  0  0  0  0  0  0  0  0  0  0
   27.3370  -27.5662  -17.5367 C   0  0  0  0  0  0  0  0  0  0  0  0
   27.2300  -27.1057  -18.7022 O   0  0  0  0  0  0  0  0  0  0  0  0
   25.2017  -25.1832  -15.6915 C   0  0  0  0  0  0  0  0  0  0  0  0
   26.2945  -25.4861  -16.7015 C   0  0  2  0  0  0  0  0  0  0  0  0
   26.9143  -26.7697  -16.4641 N   0  0  0  0  0  0  0  0  0  0  0  0
   27.3267  -24.3956  -16.5717 C   0  0  0  0  0  0  0  0  0  0  0  0
   28.1572  -24.4116  -15.6274 O   0  0  0  0  0  0  0  0  0  0  0  0
   29.9633  -21.0866  -18.7288 O   0  0  0  0  0  0  0  0  0  0  0  0
   29.0086  -22.1145  -18.7778 C   0  0  0  0  0  0  0  0  0  0  0  0
   28.3910  -22.2569  -17.3896 C   0  0  2  0  0  0  0  0  0  0  0  0
   27.3888  -23.3275  -17.5063 N   0  0  0  0  0  0  0  0  0  0  0  0
   27.7157  -20.9853  -17.0883 C   0  0  0  0  0  0  0  0  0  0  0  0
   28.4017  -19.9492  -16.5078 O   0  0  0  0  0  0  0  0  0  0  0  0
   26.5122  -20.8478  -17.3619 O   0  0  0  0  0  0  0  0  0  0  0  0
  2  1  1  6
  3  2  1  0
  4  2  1  0
  4  5  1  0
  5  6  1  1
  7  5  1  0
  7  8  2  0
 10  9  1  1
 10 11  1  0
 10 12  1  0
 11  7  1  0
 12 13  2  0
 15 14  1  0
 16 15  1  6
 17 12  1  0
 17 16  1  0
 18 19  1  0
 18 16  1  0
 20 18  2  0
M  END
$$$$
