LAS.pdb
     RDKit          3D

 20 19  0  0  1  0  0  0  0  0999 V2000
   29.4870  -27.2225  -17.2670 C   0  0  0  0  0  0  0  0  0  0  0  0
   28.1123  -26.5895  -17.2893 C   0  0  1  0  0  0  0  0  0  0  0  0
   27.0301  -27.5844  -16.9379 C   0  0  0  0  0  0  0  0  0  0  0  0
   28.1109  -25.4525  -16.2890 C   0  0  0  0  0  0  0  0  0  0  0  0
   26.8244  -24.6952  -16.4679 C   0  0  2  0  0  0  0  0  0  0  0  0
   26.3919  -24.6355  -17.8283 N   0  0  0  0  0  0  0  0  0  0  0  0
   26.9440  -23.3255  -15.8591 C   0  0  0  0  0  0  0  0  0  0  0  0
   27.2133  -23.2354  -14.6339 O   0  0  0  0  0  0  0  0  0  0  0  0
   27.5040  -19.8194  -16.9164 C   0  0  0  0  0  0  0  0  0  0  0  0
   26.9405  -20.8554  -15.9597 C   0  0  2  0  0  0  0  0  0  0  0  0
   26.7696  -22.1437  -16.5916 N   0  0  0  0  0  0  0  0  0  0  0  0
   25.6030  -20.3407  -15.4933 C   0  0  0  0  0  0  0  0  0  0  0  0
   25.5197  -19.2505  -14.8719 O   0  0  0  0  0  0  0  0  0  0  0  0
   21.2686  -19.2700  -15.9556 O   0  0  0  0  0  0  0  0  0  0  0  0
   22.5510  -19.6898  -16.3423 C   0  0  0  0  0  0  0  0  0  0  0  0
   23.1032  -20.6007  -15.2495 C   0  0  2  0  0  0  0  0  0  0  0  0
   24.4085  -21.0685  -15.7414 N   0  0  0  0  0  0  0  0  0  0  0  0
   22.1839  -21.7436  -15.1389 C   0  0  0  0  0  0  0  0  0  0  0  0
   21.0543  -21.6605  -14.3654 O   0  0  0  0  0  0  0  0  0  0  0  0
   22.4323  -22.7947  -15.7517 O   0  0  0  0  0  0  0  0  0  0  0  0
  2  1  1  1
  3  2  1  0
  4  2  1  0
  4  5  1  0
  5  6  1  6
  7  5  1  0
  7  8  2  0
 10  9  1  6
 10 11  1  0
 10 12  1  0
 11  7  1  0
 12 13  2  0
 15 14  1  0
 16 15  1  6
 17 12  1  0
 17 16  1  0
 18 19  1  0
 18 16  1  0
 20 18  2  0
M  END
$$$$
