LAS.pdb
     RDKit          3D

 20 19  0  0  1  0  0  0  0  0999 V2000
   19.1881  -14.6615  -17.6376 C   0  0  0  0  0  0  0  0  0  0  0  0
   18.5822  -13.5559  -16.8002 C   0  0  1  0  0  0  0  0  0  0  0  0
   18.3446  -13.9972  -15.3742 C   0  0  0  0  0  0  0  0  0  0  0  0
   19.5385  -12.3818  -16.8231 C   0  0  0  0  0  0  0  0  0  0  0  0
   18.8489  -11.2244  -16.1558 C   0  0  2  0  0  0  0  0  0  0  0  0
   17.4717  -11.1063  -16.5176 N   0  0  0  0  0  0  0  0  0  0  0  0
   19.6064   -9.9523  -16.4183 C   0  0  0  0  0  0  0  0  0  0  0  0
   20.8137   -9.8911  -16.0711 O   0  0  0  0  0  0  0  0  0  0  0  0
   19.1738   -6.7173  -18.2800 C   0  0  0  0  0  0  0  0  0  0  0  0
   19.8096   -7.6327  -17.2487 C   0  0  2  0  0  0  0  0  0  0  0  0
   19.0318   -8.8310  -17.0315 N   0  0  0  0  0  0  0  0  0  0  0  0
   19.9004   -6.8503  -15.9638 C   0  0  0  0  0  0  0  0  0  0  0  0
   18.9511   -6.8646  -15.1390 O   0  0  0  0  0  0  0  0  0  0  0  0
   22.7616   -4.4197  -12.9201 O   0  0  0  0  0  0  0  0  0  0  0  0
   22.6174   -5.2263  -14.0598 C   0  0  0  0  0  0  0  0  0  0  0  0
   21.1357   -5.2781  -14.4217 C   0  0  2  0  0  0  0  0  0  0  0  0
   21.0530   -6.0806  -15.6520 N   0  0  0  0  0  0  0  0  0  0  0  0
   20.7159   -3.8979  -14.7087 C   0  0  0  0  0  0  0  0  0  0  0  0
   20.0602   -3.1546  -13.7607 O   0  0  0  0  0  0  0  0  0  0  0  0
   20.9574   -3.3999  -15.8204 O   0  0  0  0  0  0  0  0  0  0  0  0
  2  1  1  6
  3  2  1  0
  4  2  1  0
  4  5  1  0
  5  6  1  6
  7  5  1  0
  7  8  2  0
 10  9  1  6
 10 11  1  0
 10 12  1  0
 11  7  1  0
 12 13  2  0
 15 14  1  0
 16 15  1  6
 17 12  1  0
 17 16  1  0
 18 19  1  0
 18 16  1  0
 20 18  2  0
M  END
$$$$
