LAS.pdb
     RDKit          3D

 20 19  0  0  1  0  0  0  0  0999 V2000
   18.8491  -14.8569  -16.7722 C   0  0  0  0  0  0  0  0  0  0  0  0
   18.1061  -13.5837  -16.4291 C   0  0  1  0  0  0  0  0  0  0  0  0
   17.3840  -13.6940  -15.1058 C   0  0  0  0  0  0  0  0  0  0  0  0
   19.1186  -12.4590  -16.3709 C   0  0  0  0  0  0  0  0  0  0  0  0
   18.3584  -11.1763  -16.1782 C   0  0  2  0  0  0  0  0  0  0  0  0
   17.2096  -11.0718  -17.0211 N   0  0  0  0  0  0  0  0  0  0  0  0
   19.2812  -10.0007  -16.3434 C   0  0  0  0  0  0  0  0  0  0  0  0
   20.3457   -9.9755  -15.6740 O   0  0  0  0  0  0  0  0  0  0  0  0
   19.6711   -7.0266  -18.6168 C   0  0  0  0  0  0  0  0  0  0  0  0
   19.9841   -7.8790  -17.3997 C   0  0  2  0  0  0  0  0  0  0  0  0
   19.0122   -8.9311  -17.2077 N   0  0  0  0  0  0  0  0  0  0  0  0
   19.9748   -6.9595  -16.2056 C   0  0  0  0  0  0  0  0  0  0  0  0
   18.9010   -6.7088  -15.6010 O   0  0  0  0  0  0  0  0  0  0  0  0
   22.6943   -4.8114  -12.8289 O   0  0  0  0  0  0  0  0  0  0  0  0
   22.6185   -5.5951  -13.9909 C   0  0  0  0  0  0  0  0  0  0  0  0
   21.1894   -5.5229  -14.5212 C   0  0  2  0  0  0  0  0  0  0  0  0
   21.1710   -6.3552  -15.7342 N   0  0  0  0  0  0  0  0  0  0  0  0
   20.9379   -4.1204  -14.8864 C   0  0  0  0  0  0  0  0  0  0  0  0
   20.2465   -3.2905  -14.0411 O   0  0  0  0  0  0  0  0  0  0  0  0
   21.3555   -3.6826  -15.9708 O   0  0  0  0  0  0  0  0  0  0  0  0
  2  1  1  1
  3  2  1  0
  4  2  1  0
  4  5  1  0
  5  6  1  6
  7  5  1  0
  7  8  2  0
 10  9  1  6
 10 11  1  0
 10 12  1  0
 11  7  1  0
 12 13  2  0
 15 14  1  0
 16 15  1  6
 17 12  1  0
 17 16  1  0
 18 19  1  0
 18 16  1  0
 20 18  2  0
M  END
$$$$
