LAS.pdb
     RDKit          3D

 20 19  0  0  1  0  0  0  0  0999 V2000
   28.0110  -10.9768  -16.8116 C   0  0  0  0  0  0  0  0  0  0  0  0
   26.6225  -11.5785  -16.8445 C   0  0  1  0  0  0  0  0  0  0  0  0
   26.4135  -12.5702  -15.7232 C   0  0  0  0  0  0  0  0  0  0  0  0
   25.6249  -10.4457  -16.7226 C   0  0  0  0  0  0  0  0  0  0  0  0
   24.2522  -11.0311  -16.9057 C   0  0  2  0  0  0  0  0  0  0  0  0
   24.0987  -11.7274  -18.1439 N   0  0  0  0  0  0  0  0  0  0  0  0
   23.2089   -9.9620  -16.7331 C   0  0  0  0  0  0  0  0  0  0  0  0
   23.0727   -9.1049  -17.6434 O   0  0  0  0  0  0  0  0  0  0  0  0
   20.2770   -9.2179  -14.5152 C   0  0  0  0  0  0  0  0  0  0  0  0
   21.3525   -8.8623  -15.5265 C   0  0  2  0  0  0  0  0  0  0  0  0
   22.3807   -9.8746  -15.6062 N   0  0  0  0  0  0  0  0  0  0  0  0
   21.9617   -7.5584  -15.0794 C   0  0  0  0  0  0  0  0  0  0  0  0
   22.9030   -7.5461  -14.2455 O   0  0  0  0  0  0  0  0  0  0  0  0
   22.2815   -2.8121  -16.0361 O   0  0  0  0  0  0  0  0  0  0  0  0
   21.5583   -4.0052  -16.1897 C   0  0  0  0  0  0  0  0  0  0  0  0
   22.1502   -5.0457  -15.2431 C   0  0  2  0  0  0  0  0  0  0  0  0
   21.4921   -6.3164  -15.5845 N   0  0  0  0  0  0  0  0  0  0  0  0
   21.7702   -4.6492  -13.8785 C   0  0  0  0  0  0  0  0  0  0  0  0
   22.6672   -4.0120  -13.0596 O   0  0  0  0  0  0  0  0  0  0  0  0
   20.6257   -4.8935  -13.4629 O   0  0  0  0  0  0  0  0  0  0  0  0
  2  1  1  1
  3  2  1  0
  4  2  1  0
  4  5  1  0
  5  6  1  6
  7  5  1  0
  7  8  2  0
 10  9  1  1
 10 11  1  0
 10 12  1  0
 11  7  1  0
 12 13  2  0
 15 14  1  0
 16 15  1  6
 17 12  1  0
 17 16  1  0
 18 19  1  0
 18 16  1  0
 20 18  2  0
M  END
$$$$
