LAS.pdb
     RDKit          3D

 20 19  0  0  1  0  0  0  0  0999 V2000
   28.4837  -11.9397  -16.4908 C   0  0  0  0  0  0  0  0  0  0  0  0
   27.0907  -12.5308  -16.5257 C   0  0  1  0  0  0  0  0  0  0  0  0
   26.8891  -13.5582  -15.4357 C   0  0  0  0  0  0  0  0  0  0  0  0
   26.1028  -11.3960  -16.3527 C   0  0  0  0  0  0  0  0  0  0  0  0
   24.7270  -11.9553  -16.5867 C   0  0  2  0  0  0  0  0  0  0  0  0
   24.6061  -12.6483  -17.8303 N   0  0  0  0  0  0  0  0  0  0  0  0
   23.6985  -10.8668  -16.4516 C   0  0  0  0  0  0  0  0  0  0  0  0
   23.6345   -9.9879  -17.3490 O   0  0  0  0  0  0  0  0  0  0  0  0
   20.8456   -9.8972  -14.1853 C   0  0  0  0  0  0  0  0  0  0  0  0
   21.8988   -9.6668  -15.2547 C   0  0  2  0  0  0  0  0  0  0  0  0
   22.8073  -10.7843  -15.3735 N   0  0  0  0  0  0  0  0  0  0  0  0
   22.6664   -8.4326  -14.8563 C   0  0  0  0  0  0  0  0  0  0  0  0
   23.9192   -8.4658  -14.7517 O   0  0  0  0  0  0  0  0  0  0  0  0
   23.4346   -4.5262  -16.5649 O   0  0  0  0  0  0  0  0  0  0  0  0
   22.8263   -5.7648  -16.3074 C   0  0  0  0  0  0  0  0  0  0  0  0
   22.6597   -5.9082  -14.7973 C   0  0  2  0  0  0  0  0  0  0  0  0
   21.9998   -7.2067  -14.5899 N   0  0  0  0  0  0  0  0  0  0  0  0
   21.7620   -4.8280  -14.3604 C   0  0  0  0  0  0  0  0  0  0  0  0
   22.2538   -3.7388  -13.6873 O   0  0  0  0  0  0  0  0  0  0  0  0
   20.5463   -4.9022  -14.6031 O   0  0  0  0  0  0  0  0  0  0  0  0
  2  1  1  1
  3  2  1  0
  4  2  1  0
  4  5  1  0
  5  6  1  6
  7  5  1  0
  7  8  2  0
 10  9  1  1
 10 11  1  0
 10 12  1  0
 11  7  1  0
 12 13  2  0
 15 14  1  0
 16 15  1  6
 17 12  1  0
 17 16  1  0
 18 19  1  0
 18 16  1  0
 20 18  2  0
M  END
$$$$
