ETT.pdb
     RDKit          3D

 24 23  0  0  1  0  0  0  0  0999 V2000
   10.4118  -15.1761   17.6384 N   0  0  0  0  0  0  0  0  0  0  0  0
   10.6429  -15.6712   18.9788 C   0  0  1  0  0  0  0  0  0  0  0  0
   12.1094  -15.6109   19.3363 C   0  0  0  0  0  0  0  0  0  0  0  0
   12.6488  -14.2203   19.3886 C   0  0  0  0  0  0  0  0  0  0  0  0
   14.0774  -14.2977   19.7878 C   0  0  0  0  0  0  0  0  0  0  0  0
   15.0011  -14.4337   18.9194 O   0  0  0  0  0  0  0  0  0  0  0  0
    9.8004  -14.8968   19.9125 C   0  0  0  0  0  0  0  0  0  0  0  0
    9.5792  -13.6887   19.6678 O   0  0  0  0  0  0  0  0  0  0  0  0
   14.4828  -14.2279   21.1028 O   0  0  0  0  0  0  0  0  0  0  0  0
    6.3429  -15.2092   20.6641 C   0  0  0  0  0  0  0  0  0  0  0  0
    7.0023  -15.3869   22.0018 C   0  0  1  0  0  0  0  0  0  0  0  0
    7.1129  -16.7379   22.2545 O   0  0  0  0  0  0  0  0  0  0  0  0
    8.3701  -14.7042   21.9977 C   0  0  2  0  0  0  0  0  0  0  0  0
    9.2148  -15.4384   21.0881 N   0  0  0  0  0  0  0  0  0  0  0  0
    8.8616  -14.7533   23.4011 C   0  0  0  0  0  0  0  0  0  0  0  0
    9.9005  -15.4152   23.5964 O   0  0  0  0  0  0  0  0  0  0  0  0
    8.6405  -11.8289   26.4592 C   0  0  0  0  0  0  0  0  0  0  0  0
    8.0384  -13.2049   26.6752 C   0  0  1  0  0  0  0  0  0  0  0  0
    6.6794  -13.1816   26.3212 O   0  0  0  0  0  0  0  0  0  0  0  0
    8.6867  -14.2490   25.8218 C   0  0  2  0  0  0  0  0  0  0  0  0
    8.2211  -14.1062   24.4682 N   0  0  0  0  0  0  0  0  0  0  0  0
    8.2870  -15.5935   26.3315 C   0  0  0  0  0  0  0  0  0  0  0  0
    8.6492  -15.9848   27.6304 O   0  0  0  0  0  0  0  0  0  0  0  0
    7.6312  -16.4316   25.6718 O   0  0  0  0  0  0  0  0  0  0  0  0
  2  1  1  6
  3  2  1  0
  3  4  1  0
  4  5  1  0
  5  9  1  0
  5  6  2  0
  7  8  2  0
  7  2  1  0
 11 10  1  6
 11 13  1  0
 12 11  1  0
 13 14  1  6
 13 15  1  0
 14  7  1  0
 15 21  1  0
 16 15  2  0
 18 20  1  0
 18 19  1  0
 18 17  1  6
 20 22  1  0
 20 21  1  6
 22 24  2  0
 22 23  1  0
M  END
$$$$
