ETT.pdb
     RDKit          3D

 24 23  0  0  1  0  0  0  0  0999 V2000
    7.0071  -17.5802   16.7846 N   0  0  0  0  0  0  0  0  0  0  0  0
    8.3830  -17.4241   16.3629 C   0  0  1  0  0  0  0  0  0  0  0  0
    8.4629  -16.8880   14.9529 C   0  0  0  0  0  0  0  0  0  0  0  0
    7.9716  -15.4846   14.8249 C   0  0  0  0  0  0  0  0  0  0  0  0
    8.2525  -15.0251   13.4406 C   0  0  0  0  0  0  0  0  0  0  0  0
    9.4232  -15.1037   12.9416 O   0  0  0  0  0  0  0  0  0  0  0  0
    9.0731  -16.5562   17.3384 C   0  0  0  0  0  0  0  0  0  0  0  0
   10.2605  -16.2243   17.1188 O   0  0  0  0  0  0  0  0  0  0  0  0
    7.2770  -14.4940   12.6252 O   0  0  0  0  0  0  0  0  0  0  0  0
    7.8668  -13.2585   18.8523 C   0  0  0  0  0  0  0  0  0  0  0  0
    8.1713  -14.1918   19.9890 C   0  0  1  0  0  0  0  0  0  0  0  0
    6.9852  -14.7406   20.4287 O   0  0  0  0  0  0  0  0  0  0  0  0
    9.1489  -15.2708   19.5230 C   0  0  2  0  0  0  0  0  0  0  0  0
    8.4713  -16.0646   18.5278 N   0  0  0  0  0  0  0  0  0  0  0  0
    9.5070  -16.0562   20.7348 C   0  0  0  0  0  0  0  0  0  0  0  0
    8.5995  -16.7598   21.2214 O   0  0  0  0  0  0  0  0  0  0  0  0
   11.3348  -18.9602   21.2318 C   0  0  0  0  0  0  0  0  0  0  0  0
   12.0075  -17.9255   22.1146 C   0  0  1  0  0  0  0  0  0  0  0  0
   13.0765  -17.3395   21.4169 O   0  0  0  0  0  0  0  0  0  0  0  0
   11.0810  -16.8135   22.4938 C   0  0  2  0  0  0  0  0  0  0  0  0
   10.7798  -16.0322   21.3240 N   0  0  0  0  0  0  0  0  0  0  0  0
   11.7681  -15.9435   23.4929 C   0  0  0  0  0  0  0  0  0  0  0  0
   11.9821  -16.4129   24.7987 O   0  0  0  0  0  0  0  0  0  0  0  0
   12.1845  -14.7873   23.2533 O   0  0  0  0  0  0  0  0  0  0  0  0
  2  1  1  1
  3  2  1  0
  3  4  1  0
  4  5  1  0
  5  9  1  0
  5  6  2  0
  7  8  2  0
  7  2  1  0
 11 10  1  6
 11 13  1  0
 12 11  1  0
 13 14  1  6
 13 15  1  0
 14  7  1  0
 15 21  1  0
 16 15  2  0
 18 20  1  0
 18 19  1  0
 18 17  1  6
 20 22  1  0
 20 21  1  6
 22 24  2  0
 22 23  1  0
M  END
$$$$
