ETT.pdb
     RDKit          3D

 24 23  0  0  1  0  0  0  0  0999 V2000
    8.1652  -20.8346   17.3388 N   0  0  0  0  0  0  0  0  0  0  0  0
    9.3065  -20.2526   18.0125 C   0  0  1  0  0  0  0  0  0  0  0  0
    9.8808  -19.1039   17.2172 C   0  0  0  0  0  0  0  0  0  0  0  0
    9.4455  -19.0967   15.7897 C   0  0  0  0  0  0  0  0  0  0  0  0
   10.1321  -17.9704   15.1068 C   0  0  0  0  0  0  0  0  0  0  0  0
   10.7405  -18.1397   13.9991 O   0  0  0  0  0  0  0  0  0  0  0  0
    8.8889  -19.8481   19.3701 C   0  0  0  0  0  0  0  0  0  0  0  0
    7.6693  -19.6869   19.6050 O   0  0  0  0  0  0  0  0  0  0  0  0
   10.1516  -16.6933   15.6237 O   0  0  0  0  0  0  0  0  0  0  0  0
    9.7787  -19.6944   24.1671 C   0  0  0  0  0  0  0  0  0  0  0  0
   10.0883  -20.1356   22.7651 C   0  0  1  0  0  0  0  0  0  0  0  0
    9.6577  -21.4369   22.6152 O   0  0  0  0  0  0  0  0  0  0  0  0
    9.4044  -19.2009   21.7672 C   0  0  2  0  0  0  0  0  0  0  0  0
    9.7914  -19.6259   20.4446 N   0  0  0  0  0  0  0  0  0  0  0  0
    9.8822  -17.8294   22.0902 C   0  0  0  0  0  0  0  0  0  0  0  0
   11.0704  -17.5802   21.8047 O   0  0  0  0  0  0  0  0  0  0  0  0
    8.0922  -14.2960   21.4417 C   0  0  0  0  0  0  0  0  0  0  0  0
    8.4924  -14.5372   22.8854 C   0  0  1  0  0  0  0  0  0  0  0  0
    7.3936  -15.0474   23.5962 O   0  0  0  0  0  0  0  0  0  0  0  0
    9.5904  -15.5460   23.0097 C   0  0  2  0  0  0  0  0  0  0  0  0
    9.0732  -16.8474   22.6810 N   0  0  0  0  0  0  0  0  0  0  0  0
   10.0660  -15.5575   24.4242 C   0  0  0  0  0  0  0  0  0  0  0  0
   10.7677  -14.4538   24.9349 O   0  0  0  0  0  0  0  0  0  0  0  0
    9.8838  -16.5052   25.2219 O   0  0  0  0  0  0  0  0  0  0  0  0
  2  1  1  6
  3  2  1  0
  3  4  1  0
  4  5  1  0
  5  9  1  0
  5  6  2  0
  7  8  2  0
  7  2  1  0
 11 10  1  1
 11 13  1  0
 12 11  1  0
 13 14  1  6
 13 15  1  0
 14  7  1  0
 15 21  1  0
 16 15  2  0
 18 20  1  0
 18 19  1  0
 18 17  1  6
 20 22  1  0
 20 21  1  1
 22 24  2  0
 22 23  1  0
M  END
$$$$
