ETT.pdb
     RDKit          3D

 24 23  0  0  1  0  0  0  0  0999 V2000
    7.8536  -13.3386   20.5358 N   0  0  0  0  0  0  0  0  0  0  0  0
    7.0947  -13.9516   21.6051 C   0  0  1  0  0  0  0  0  0  0  0  0
    6.7840  -15.3967   21.2934 C   0  0  0  0  0  0  0  0  0  0  0  0
    7.9769  -16.1756   20.8487 C   0  0  0  0  0  0  0  0  0  0  0  0
    7.5263  -17.5493   20.5082 C   0  0  0  0  0  0  0  0  0  0  0  0
    6.3055  -17.7974   20.2366 O   0  0  0  0  0  0  0  0  0  0  0  0
    7.8524  -13.7941   22.8630 C   0  0  0  0  0  0  0  0  0  0  0  0
    9.0927  -13.6300   22.8055 O   0  0  0  0  0  0  0  0  0  0  0  0
    8.3900  -18.6220   20.4663 O   0  0  0  0  0  0  0  0  0  0  0  0
    6.6360  -11.6216   25.9514 C   0  0  0  0  0  0  0  0  0  0  0  0
    7.0054  -13.0087   26.3935 C   0  0  1  0  0  0  0  0  0  0  0  0
    5.8489  -13.7520   26.5003 O   0  0  0  0  0  0  0  0  0  0  0  0
    7.9786  -13.6280   25.3902 C   0  0  2  0  0  0  0  0  0  0  0  0
    7.2601  -13.8167   24.1541 N   0  0  0  0  0  0  0  0  0  0  0  0
    8.4310  -14.9118   25.9908 C   0  0  0  0  0  0  0  0  0  0  0  0
    7.6928  -15.8986   25.7984 O   0  0  0  0  0  0  0  0  0  0  0  0
   12.3894  -15.4597   27.0836 C   0  0  0  0  0  0  0  0  0  0  0  0
   11.4336  -16.5922   26.7573 C   0  0  1  0  0  0  0  0  0  0  0  0
   11.8614  -17.7652   27.4007 O   0  0  0  0  0  0  0  0  0  0  0  0
   10.0439  -16.3198   27.2401 C   0  0  2  0  0  0  0  0  0  0  0  0
    9.6122  -15.0436   26.7358 N   0  0  0  0  0  0  0  0  0  0  0  0
   10.0613  -16.2699   28.7316 C   0  0  0  0  0  0  0  0  0  0  0  0
   10.3494  -17.4309   29.4666 O   0  0  0  0  0  0  0  0  0  0  0  0
    9.8318  -15.2400   29.4055 O   0  0  0  0  0  0  0  0  0  0  0  0
  2  1  1  6
  3  2  1  0
  3  4  1  0
  4  5  1  0
  5  9  1  0
  5  6  2  0
  7  8  2  0
  7  2  1  0
 11 10  1  6
 11 13  1  0
 12 11  1  0
 13 14  1  6
 13 15  1  0
 14  7  1  0
 15 21  1  0
 16 15  2  0
 18 20  1  0
 18 19  1  0
 18 17  1  1
 20 22  1  0
 20 21  1  6
 22 24  2  0
 22 23  1  0
M  END
$$$$
