ETT.pdb
     RDKit          3D

 24 23  0  0  1  0  0  0  0  0999 V2000
   10.2960  -15.9862   18.1709 N   0  0  0  0  0  0  0  0  0  0  0  0
   10.5904  -16.3695   19.5354 C   0  0  1  0  0  0  0  0  0  0  0  0
   11.9830  -15.9403   19.9331 C   0  0  0  0  0  0  0  0  0  0  0  0
   12.3286  -14.5606   19.4811 C   0  0  0  0  0  0  0  0  0  0  0  0
   13.7321  -14.2851   19.8817 C   0  0  0  0  0  0  0  0  0  0  0  0
   14.0329  -14.0008   21.0878 O   0  0  0  0  0  0  0  0  0  0  0  0
    9.5496  -15.7985   20.4139 C   0  0  0  0  0  0  0  0  0  0  0  0
    8.7719  -14.9344   19.9479 O   0  0  0  0  0  0  0  0  0  0  0  0
   14.7778  -14.3203   18.9851 O   0  0  0  0  0  0  0  0  0  0  0  0
    8.2382  -17.9643   23.6524 C   0  0  0  0  0  0  0  0  0  0  0  0
    7.4172  -16.9335   22.9319 C   0  0  1  0  0  0  0  0  0  0  0  0
    6.3474  -16.5941   23.7329 O   0  0  0  0  0  0  0  0  0  0  0  0
    8.2842  -15.7162   22.6100 C   0  0  2  0  0  0  0  0  0  0  0  0
    9.3681  -16.1690   21.7734 N   0  0  0  0  0  0  0  0  0  0  0  0
    8.7542  -15.1851   23.9179 C   0  0  0  0  0  0  0  0  0  0  0  0
    9.9251  -15.4712   24.2381 O   0  0  0  0  0  0  0  0  0  0  0  0
    7.6063  -11.5415   25.7338 C   0  0  0  0  0  0  0  0  0  0  0  0
    7.5246  -12.8367   26.5201 C   0  0  1  0  0  0  0  0  0  0  0  0
    6.2318  -13.3734   26.4041 O   0  0  0  0  0  0  0  0  0  0  0  0
    8.4691  -13.8757   26.0033 C   0  0  2  0  0  0  0  0  0  0  0  0
    7.9562  -14.4051   24.7679 N   0  0  0  0  0  0  0  0  0  0  0  0
    8.5541  -14.9794   27.0042 C   0  0  0  0  0  0  0  0  0  0  0  0
    8.1506  -16.2768   26.6504 O   0  0  0  0  0  0  0  0  0  0  0  0
    8.9709  -14.8379   28.1764 O   0  0  0  0  0  0  0  0  0  0  0  0
  2  1  1  6
  3  2  1  0
  3  4  1  0
  4  5  1  0
  5  9  1  0
  5  6  2  0
  7  8  2  0
  7  2  1  0
 11 10  1  1
 11 13  1  0
 12 11  1  0
 13 14  1  6
 13 15  1  0
 14  7  1  0
 15 21  1  0
 16 15  2  0
 18 20  1  0
 18 19  1  0
 18 17  1  6
 20 22  1  0
 20 21  1  6
 22 24  2  0
 22 23  1  0
M  END
$$$$
