ETT.pdb
     RDKit          3D

 24 23  0  0  1  0  0  0  0  0999 V2000
   12.5952  -17.1259   19.4479 N   0  0  0  0  0  0  0  0  0  0  0  0
   12.0419  -17.6143   20.6932 C   0  0  1  0  0  0  0  0  0  0  0  0
   13.1300  -17.8688   21.7097 C   0  0  0  0  0  0  0  0  0  0  0  0
   14.4807  -18.0437   21.0993 C   0  0  0  0  0  0  0  0  0  0  0  0
   15.4460  -18.3198   22.1939 C   0  0  0  0  0  0  0  0  0  0  0  0
   16.3659  -19.1927   22.0609 O   0  0  0  0  0  0  0  0  0  0  0  0
   11.0385  -16.6412   21.1699 C   0  0  0  0  0  0  0  0  0  0  0  0
   11.1506  -15.4410   20.8301 O   0  0  0  0  0  0  0  0  0  0  0  0
   15.4045  -17.6574   23.4014 O   0  0  0  0  0  0  0  0  0  0  0  0
    6.5067  -15.7434   22.7558 C   0  0  0  0  0  0  0  0  0  0  0  0
    7.5779  -16.6826   22.2801 C   0  0  1  0  0  0  0  0  0  0  0  0
    7.3436  -16.9704   20.9521 O   0  0  0  0  0  0  0  0  0  0  0  0
    8.9517  -16.0425   22.4805 C   0  0  2  0  0  0  0  0  0  0  0  0
    9.9372  -16.9799   22.0011 N   0  0  0  0  0  0  0  0  0  0  0  0
    9.0761  -15.7774   23.9392 C   0  0  0  0  0  0  0  0  0  0  0  0
    9.7973  -16.5666   24.5814 O   0  0  0  0  0  0  0  0  0  0  0  0
    8.5144  -11.9783   25.9488 C   0  0  0  0  0  0  0  0  0  0  0  0
    7.8339  -13.2604   26.3911 C   0  0  1  0  0  0  0  0  0  0  0  0
    6.5786  -13.3621   25.7693 O   0  0  0  0  0  0  0  0  0  0  0  0
    8.6079  -14.4791   25.9982 C   0  0  2  0  0  0  0  0  0  0  0  0
    8.4350  -14.7125   24.5893 N   0  0  0  0  0  0  0  0  0  0  0  0
    8.0670  -15.6479   26.7522 C   0  0  0  0  0  0  0  0  0  0  0  0
    8.2300  -15.7175   28.1451 O   0  0  0  0  0  0  0  0  0  0  0  0
    7.4577  -16.6064   26.2254 O   0  0  0  0  0  0  0  0  0  0  0  0
  2  1  1  6
  3  2  1  0
  3  4  1  0
  4  5  1  0
  5  9  1  0
  5  6  2  0
  7  8  2  0
  7  2  1  0
 11 10  1  6
 11 13  1  0
 12 11  1  0
 13 14  1  1
 13 15  1  0
 14  7  1  0
 15 21  1  0
 16 15  2  0
 18 20  1  0
 18 19  1  0
 18 17  1  6
 20 22  1  0
 20 21  1  6
 22 24  2  0
 22 23  1  0
M  END
$$$$
