ETT.pdb
     RDKit          3D

 24 23  0  0  1  0  0  0  0  0999 V2000
   10.4346  -15.6580   16.3288 N   0  0  0  0  0  0  0  0  0  0  0  0
   10.6514  -16.3409   17.5866 C   0  0  1  0  0  0  0  0  0  0  0  0
   12.0713  -16.8448   17.6950 C   0  0  0  0  0  0  0  0  0  0  0  0
   12.3502  -17.5568   18.9766 C   0  0  0  0  0  0  0  0  0  0  0  0
   13.7386  -18.0811   18.9169 C   0  0  0  0  0  0  0  0  0  0  0  0
   14.7247  -17.3943   19.3433 O   0  0  0  0  0  0  0  0  0  0  0  0
   10.2923  -15.4200   18.6839 C   0  0  0  0  0  0  0  0  0  0  0  0
   10.8728  -14.3127   18.7588 O   0  0  0  0  0  0  0  0  0  0  0  0
   14.0384  -19.3243   18.4040 O   0  0  0  0  0  0  0  0  0  0  0  0
    7.1975  -13.6880   19.4935 C   0  0  0  0  0  0  0  0  0  0  0  0
    7.4806  -14.5543   20.6873 C   0  0  1  0  0  0  0  0  0  0  0  0
    6.7523  -15.7183   20.5607 O   0  0  0  0  0  0  0  0  0  0  0  0
    8.9802  -14.8386   20.7746 C   0  0  2  0  0  0  0  0  0  0  0  0
    9.3176  -15.7098   19.6760 N   0  0  0  0  0  0  0  0  0  0  0  0
    9.2042  -15.4761   22.1001 C   0  0  0  0  0  0  0  0  0  0  0  0
    9.8617  -16.5359   22.0959 O   0  0  0  0  0  0  0  0  0  0  0  0
    9.3677  -13.4939   25.8305 C   0  0  0  0  0  0  0  0  0  0  0  0
    8.4868  -14.7195   25.6740 C   0  0  1  0  0  0  0  0  0  0  0  0
    7.1788  -14.3178   25.3570 O   0  0  0  0  0  0  0  0  0  0  0  0
    8.9443  -15.6096   24.5617 C   0  0  2  0  0  0  0  0  0  0  0  0
    8.7200  -14.9459   23.3052 N   0  0  0  0  0  0  0  0  0  0  0  0
    8.1378  -16.8648   24.5965 C   0  0  0  0  0  0  0  0  0  0  0  0
    8.2552  -17.7412   25.6873 O   0  0  0  0  0  0  0  0  0  0  0  0
    7.3359  -17.2131   23.7003 O   0  0  0  0  0  0  0  0  0  0  0  0
  2  1  1  6
  3  2  1  0
  3  4  1  0
  4  5  1  0
  5  9  1  0
  5  6  2  0
  7  8  2  0
  7  2  1  0
 11 10  1  6
 11 13  1  0
 12 11  1  0
 13 14  1  6
 13 15  1  0
 14  7  1  0
 15 21  1  0
 16 15  2  0
 18 20  1  0
 18 19  1  0
 18 17  1  6
 20 22  1  0
 20 21  1  6
 22 24  2  0
 22 23  1  0
M  END
$$$$
