ETT.pdb
     RDKit          3D

 24 23  0  0  1  0  0  0  0  0999 V2000
    7.8045  -16.4586   16.0858 N   0  0  0  0  0  0  0  0  0  0  0  0
    7.6610  -17.0483   17.3999 C   0  0  1  0  0  0  0  0  0  0  0  0
    8.0242  -18.5145   17.3813 C   0  0  0  0  0  0  0  0  0  0  0  0
    9.4544  -18.7654   17.0364 C   0  0  0  0  0  0  0  0  0  0  0  0
    9.6729  -20.2345   17.0280 C   0  0  0  0  0  0  0  0  0  0  0  0
    8.9038  -21.0146   16.3753 O   0  0  0  0  0  0  0  0  0  0  0  0
    8.4841  -16.2733   18.3501 C   0  0  0  0  0  0  0  0  0  0  0  0
    8.9901  -15.1924   17.9704 O   0  0  0  0  0  0  0  0  0  0  0  0
   10.7060  -20.8327   17.7160 O   0  0  0  0  0  0  0  0  0  0  0  0
    6.8266  -15.4054   21.2575 C   0  0  0  0  0  0  0  0  0  0  0  0
    8.1395  -14.7406   20.9575 C   0  0  1  0  0  0  0  0  0  0  0  0
    8.4586  -13.9144   22.0143 O   0  0  0  0  0  0  0  0  0  0  0  0
    9.2160  -15.8025   20.7320 C   0  0  2  0  0  0  0  0  0  0  0  0
    8.7450  -16.6775   19.6869 N   0  0  0  0  0  0  0  0  0  0  0  0
    9.3844  -16.5041   22.0331 C   0  0  0  0  0  0  0  0  0  0  0  0
    8.3653  -17.0538   22.4967 O   0  0  0  0  0  0  0  0  0  0  0  0
   12.6487  -18.6453   22.6114 C   0  0  0  0  0  0  0  0  0  0  0  0
   12.2328  -17.8945   23.8627 C   0  0  1  0  0  0  0  0  0  0  0  0
   12.9924  -16.7186   23.9767 O   0  0  0  0  0  0  0  0  0  0  0  0
   10.7967  -17.4762   23.8233 C   0  0  2  0  0  0  0  0  0  0  0  0
   10.6018  -16.5652   22.7272 N   0  0  0  0  0  0  0  0  0  0  0  0
   10.4721  -16.7740   25.0995 C   0  0  0  0  0  0  0  0  0  0  0  0
   10.5835  -17.4570   26.3212 O   0  0  0  0  0  0  0  0  0  0  0  0
   10.0949  -15.5824   25.1727 O   0  0  0  0  0  0  0  0  0  0  0  0
  2  1  1  6
  3  2  1  0
  3  4  1  0
  4  5  1  0
  5  9  1  0
  5  6  2  0
  7  8  2  0
  7  2  1  0
 11 10  1  1
 11 13  1  0
 12 11  1  0
 13 14  1  6
 13 15  1  0
 14  7  1  0
 15 21  1  0
 16 15  2  0
 18 20  1  0
 18 19  1  0
 18 17  1  6
 20 22  1  0
 20 21  1  6
 22 24  2  0
 22 23  1  0
M  END
$$$$
