ETT.pdb
     RDKit          3D

 24 23  0  0  1  0  0  0  0  0999 V2000
   10.4670  -14.8827   17.7768 N   0  0  0  0  0  0  0  0  0  0  0  0
   10.7239  -15.3050   19.1373 C   0  0  1  0  0  0  0  0  0  0  0  0
   12.0272  -14.7363   19.6471 C   0  0  0  0  0  0  0  0  0  0  0  0
   13.2149  -15.5664   19.2895 C   0  0  0  0  0  0  0  0  0  0  0  0
   14.4142  -14.9372   19.8994 C   0  0  0  0  0  0  0  0  0  0  0  0
   15.5907  -15.3288   19.6024 O   0  0  0  0  0  0  0  0  0  0  0  0
    9.5704  -14.9128   19.9720 C   0  0  0  0  0  0  0  0  0  0  0  0
    8.5137  -14.5450   19.4092 O   0  0  0  0  0  0  0  0  0  0  0  0
   14.3266  -13.9069   20.8100 O   0  0  0  0  0  0  0  0  0  0  0  0
    7.1683  -15.9800   20.4754 C   0  0  0  0  0  0  0  0  0  0  0  0
    7.4653  -15.9050   21.9458 C   0  0  1  0  0  0  0  0  0  0  0  0
    8.0156  -17.1067   22.3387 O   0  0  0  0  0  0  0  0  0  0  0  0
    8.4134  -14.7380   22.2218 C   0  0  2  0  0  0  0  0  0  0  0  0
    9.5785  -14.9247   21.3926 N   0  0  0  0  0  0  0  0  0  0  0  0
    8.7297  -14.7962   23.6744 C   0  0  0  0  0  0  0  0  0  0  0  0
    9.7521  -15.4376   23.9888 O   0  0  0  0  0  0  0  0  0  0  0  0
    7.6111  -11.6517   26.2870 C   0  0  0  0  0  0  0  0  0  0  0  0
    7.5032  -13.0941   26.7457 C   0  0  1  0  0  0  0  0  0  0  0  0
    6.2035  -13.5667   26.5007 O   0  0  0  0  0  0  0  0  0  0  0  0
    8.4360  -13.9978   26.0027 C   0  0  2  0  0  0  0  0  0  0  0  0
    7.9477  -14.1786   24.6618 N   0  0  0  0  0  0  0  0  0  0  0  0
    8.4621  -15.3218   26.6908 C   0  0  0  0  0  0  0  0  0  0  0  0
    8.9671  -15.4210   27.9971 O   0  0  0  0  0  0  0  0  0  0  0  0
    8.0556  -16.3902   26.1801 O   0  0  0  0  0  0  0  0  0  0  0  0
  2  1  1  6
  3  2  1  0
  3  4  1  0
  4  5  1  0
  5  9  1  0
  5  6  2  0
  7  8  2  0
  7  2  1  0
 11 10  1  6
 11 13  1  0
 12 11  1  0
 13 14  1  6
 13 15  1  0
 14  7  1  0
 15 21  1  0
 16 15  2  0
 18 20  1  0
 18 19  1  0
 18 17  1  6
 20 22  1  0
 20 21  1  6
 22 24  2  0
 22 23  1  0
M  END
$$$$
