ETT.pdb
     RDKit          3D

 24 23  0  0  1  0  0  0  0  0999 V2000
   11.0883  -17.6727   20.2207 N   0  0  0  0  0  0  0  0  0  0  0  0
   12.0919  -16.6829   20.5496 C   0  0  1  0  0  0  0  0  0  0  0  0
   12.5317  -15.9239   19.3198 C   0  0  0  0  0  0  0  0  0  0  0  0
   13.6675  -14.9901   19.5755 C   0  0  0  0  0  0  0  0  0  0  0  0
   13.9663  -14.2741   18.3090 C   0  0  0  0  0  0  0  0  0  0  0  0
   13.9522  -13.0005   18.2492 O   0  0  0  0  0  0  0  0  0  0  0  0
   11.5453  -15.7962   21.5965 C   0  0  0  0  0  0  0  0  0  0  0  0
   12.2458  -14.8432   22.0085 O   0  0  0  0  0  0  0  0  0  0  0  0
   14.2722  -14.9356   17.1397 O   0  0  0  0  0  0  0  0  0  0  0  0
    7.7584  -14.5626   21.8511 C   0  0  0  0  0  0  0  0  0  0  0  0
    8.2061  -15.1857   23.1422 C   0  0  1  0  0  0  0  0  0  0  0  0
    7.7421  -16.4836   23.1809 O   0  0  0  0  0  0  0  0  0  0  0  0
    9.7308  -15.1330   23.2393 C   0  0  2  0  0  0  0  0  0  0  0  0
   10.2583  -15.9536   22.1771 N   0  0  0  0  0  0  0  0  0  0  0  0
   10.0779  -15.6521   24.5897 C   0  0  0  0  0  0  0  0  0  0  0  0
   10.6148  -16.7774   24.6243 O   0  0  0  0  0  0  0  0  0  0  0  0
    8.7030  -13.7434   28.0908 C   0  0  0  0  0  0  0  0  0  0  0  0
   10.0566  -14.4292   28.1001 C   0  0  1  0  0  0  0  0  0  0  0  0
   10.2578  -15.0501   29.3438 O   0  0  0  0  0  0  0  0  0  0  0  0
   10.1565  -15.5029   27.0628 C   0  0  2  0  0  0  0  0  0  0  0  0
    9.8313  -14.9465   25.7767 N   0  0  0  0  0  0  0  0  0  0  0  0
    9.1690  -16.5726   27.3908 C   0  0  0  0  0  0  0  0  0  0  0  0
    9.4318  -17.4693   28.4388 O   0  0  0  0  0  0  0  0  0  0  0  0
    8.0859  -16.7422   26.7860 O   0  0  0  0  0  0  0  0  0  0  0  0
  2  1  1  6
  3  2  1  0
  3  4  1  0
  4  5  1  0
  5  9  1  0
  5  6  2  0
  7  8  2  0
  7  2  1  0
 11 10  1  6
 11 13  1  0
 12 11  1  0
 13 14  1  6
 13 15  1  0
 14  7  1  0
 15 21  1  0
 16 15  2  0
 18 20  1  0
 18 19  1  0
 18 17  1  1
 20 22  1  0
 20 21  1  6
 22 24  2  0
 22 23  1  0
M  END
$$$$
