ALN.pdb
     RDKit          3D

 22 21  0  0  1  0  0  0  0  0999 V2000
    7.3787  -14.6423   20.5199 C   0  0  0  0  0  0  0  0  0  0  0  0
    7.8462  -15.6298   21.5645 C   0  0  2  0  0  0  0  0  0  0  0  0
    6.7444  -16.4437   21.9903 N   0  0  0  0  0  0  0  0  0  0  0  0
    8.3997  -14.8354   22.7047 C   0  0  0  0  0  0  0  0  0  0  0  0
    9.4710  -14.2066   22.5275 O   0  0  0  0  0  0  0  0  0  0  0  0
    5.5305  -12.0785   26.5736 C   0  0  0  0  0  0  0  0  0  0  0  0
    6.5462  -12.4328   25.4804 C   0  0  1  0  0  0  0  0  0  0  0  0
    7.2559  -11.1693   25.1228 C   0  0  0  0  0  0  0  0  0  0  0  0
    7.4198  -13.4995   26.0385 C   0  0  0  0  0  0  0  0  0  0  0  0
    8.4003  -14.0763   25.0420 C   0  0  2  0  0  0  0  0  0  0  0  0
    7.7730  -14.7627   23.9637 N   0  0  0  0  0  0  0  0  0  0  0  0
    9.2607  -15.0206   25.8314 C   0  0  0  0  0  0  0  0  0  0  0  0
    9.7567  -14.6072   26.9077 O   0  0  0  0  0  0  0  0  0  0  0  0
   10.3651  -20.8492   26.3393 N   0  0  0  0  0  0  0  0  0  0  0  0
   10.2786  -19.6126   27.0131 C   0  0  0  0  0  0  0  0  0  0  0  0
   10.7846  -19.4837   28.1364 O   0  0  0  0  0  0  0  0  0  0  0  0
    9.5847  -18.5045   26.3564 C   0  0  0  0  0  0  0  0  0  0  0  0
   10.4057  -17.2525   26.1583 C   0  0  2  0  0  0  0  0  0  0  0  0
    9.5222  -16.3445   25.3986 N   0  0  0  0  0  0  0  0  0  0  0  0
   11.5814  -17.6036   25.3135 C   0  0  0  0  0  0  0  0  0  0  0  0
   12.7589  -18.1353   25.7361 O   0  0  0  0  0  0  0  0  0  0  0  0
   11.4655  -17.3785   24.0608 O   0  0  0  0  0  0  0  0  0  0  0  0
  2  1  1  6
  3  2  1  0
  4  5  2  0
  4  2  1  0
  7  6  1  1
  7  8  1  0
  7  9  1  0
 10  9  1  1
 10 11  1  0
 10 12  1  0
 11  4  1  0
 12 19  1  0
 12 13  2  0
 15 14  1  0
 16 15  2  0
 17 15  1  0
 18 17  1  6
 19 18  1  0
 20 21  1  0
 20 18  1  0
 22 20  2  0
M  END
$$$$
