ALN.pdb
     RDKit          3D

 22 21  0  0  1  0  0  0  0  0999 V2000
    6.8525  -15.1614   20.2640 C   0  0  0  0  0  0  0  0  0  0  0  0
    7.2007  -13.7663   20.7304 C   0  0  2  0  0  0  0  0  0  0  0  0
    8.0715  -13.1396   19.7781 N   0  0  0  0  0  0  0  0  0  0  0  0
    7.8687  -13.9013   22.0620 C   0  0  0  0  0  0  0  0  0  0  0  0
    9.1173  -14.0215   22.0922 O   0  0  0  0  0  0  0  0  0  0  0  0
    5.5444  -12.1531   26.9338 C   0  0  0  0  0  0  0  0  0  0  0  0
    6.5240  -12.2571   25.7581 C   0  0  1  0  0  0  0  0  0  0  0  0
    7.5983  -11.2493   25.9993 C   0  0  0  0  0  0  0  0  0  0  0  0
    6.9934  -13.6679   25.7168 C   0  0  0  0  0  0  0  0  0  0  0  0
    7.8548  -13.9952   24.5176 C   0  0  2  0  0  0  0  0  0  0  0  0
    7.1597  -13.8992   23.2787 N   0  0  0  0  0  0  0  0  0  0  0  0
    8.3303  -15.4020   24.7414 C   0  0  0  0  0  0  0  0  0  0  0  0
    7.4812  -16.3254   24.6994 O   0  0  0  0  0  0  0  0  0  0  0  0
   10.5138  -17.3724   22.5434 N   0  0  0  0  0  0  0  0  0  0  0  0
   11.6823  -17.2152   23.3184 C   0  0  0  0  0  0  0  0  0  0  0  0
   12.7870  -17.1385   22.7633 O   0  0  0  0  0  0  0  0  0  0  0  0
   11.5528  -17.1466   24.7742 C   0  0  0  0  0  0  0  0  0  0  0  0
   10.1372  -17.0830   25.2964 C   0  0  2  0  0  0  0  0  0  0  0  0
    9.6907  -15.7077   24.9945 N   0  0  0  0  0  0  0  0  0  0  0  0
   10.1849  -17.2636   26.7744 C   0  0  0  0  0  0  0  0  0  0  0  0
    9.9797  -16.3081   27.7192 O   0  0  0  0  0  0  0  0  0  0  0  0
   10.4476  -18.4425   27.1922 O   0  0  0  0  0  0  0  0  0  0  0  0
  2  1  1  6
  3  2  1  0
  4  5  2  0
  4  2  1  0
  7  6  1  1
  7  8  1  0
  7  9  1  0
 10  9  1  1
 10 11  1  0
 10 12  1  0
 11  4  1  0
 12 19  1  0
 12 13  2  0
 15 14  1  0
 16 15  2  0
 17 15  1  0
 18 17  1  1
 19 18  1  0
 20 21  1  0
 20 18  1  0
 22 20  2  0
M  END
$$$$
