ALN.pdb
     RDKit          3D

 22 21  0  0  1  0  0  0  0  0999 V2000
    7.4718  -12.8781   20.0852 C   0  0  0  0  0  0  0  0  0  0  0  0
    7.7911  -14.2658   20.5925 C   0  0  2  0  0  0  0  0  0  0  0  0
    6.6065  -15.0747   20.5710 N   0  0  0  0  0  0  0  0  0  0  0  0
    8.3141  -14.1157   21.9858 C   0  0  0  0  0  0  0  0  0  0  0  0
    9.4841  -13.6892   22.1397 O   0  0  0  0  0  0  0  0  0  0  0  0
    5.5221  -12.5908   26.6121 C   0  0  0  0  0  0  0  0  0  0  0  0
    6.6533  -12.6419   25.5776 C   0  0  1  0  0  0  0  0  0  0  0  0
    7.6943  -11.6708   26.0260 C   0  0  0  0  0  0  0  0  0  0  0  0
    7.1095  -14.0562   25.5130 C   0  0  0  0  0  0  0  0  0  0  0  0
    8.1269  -14.3260   24.4271 C   0  0  2  0  0  0  0  0  0  0  0  0
    7.5533  -14.4310   23.1281 N   0  0  0  0  0  0  0  0  0  0  0  0
    8.7865  -15.6189   24.8122 C   0  0  0  0  0  0  0  0  0  0  0  0
    8.4627  -16.1437   25.9054 O   0  0  0  0  0  0  0  0  0  0  0  0
    8.6963  -19.3949   22.6703 N   0  0  0  0  0  0  0  0  0  0  0  0
    9.6898  -18.5169   22.1877 C   0  0  0  0  0  0  0  0  0  0  0  0
    9.6102  -18.0655   21.0369 O   0  0  0  0  0  0  0  0  0  0  0  0
   10.7993  -18.1609   23.0726 C   0  0  0  0  0  0  0  0  0  0  0  0
   10.4042  -17.5148   24.3791 C   0  0  2  0  0  0  0  0  0  0  0  0
    9.7492  -16.2505   23.9860 N   0  0  0  0  0  0  0  0  0  0  0  0
   11.6513  -17.2009   25.1312 C   0  0  0  0  0  0  0  0  0  0  0  0
   12.5314  -16.1990   24.8680 O   0  0  0  0  0  0  0  0  0  0  0  0
   11.9171  -17.9568   26.1269 O   0  0  0  0  0  0  0  0  0  0  0  0
  2  1  1  1
  3  2  1  0
  4  5  2  0
  4  2  1  0
  7  6  1  1
  7  8  1  0
  7  9  1  0
 10  9  1  1
 10 11  1  0
 10 12  1  0
 11  4  1  0
 12 19  1  0
 12 13  2  0
 15 14  1  0
 16 15  2  0
 17 15  1  0
 18 17  1  6
 19 18  1  0
 20 21  1  0
 20 18  1  0
 22 20  2  0
M  END
$$$$
