ALN.pdb
     RDKit          3D

 22 21  0  0  1  0  0  0  0  0999 V2000
    7.4330  -14.5429   20.7063 C   0  0  0  0  0  0  0  0  0  0  0  0
    7.8872  -15.6483   21.6319 C   0  0  2  0  0  0  0  0  0  0  0  0
    6.7591  -16.4370   22.0359 N   0  0  0  0  0  0  0  0  0  0  0  0
    8.5368  -14.9960   22.8109 C   0  0  0  0  0  0  0  0  0  0  0  0
    9.6923  -14.5277   22.6704 O   0  0  0  0  0  0  0  0  0  0  0  0
    5.6235  -12.5006   26.8186 C   0  0  0  0  0  0  0  0  0  0  0  0
    6.6217  -12.7516   25.6815 C   0  0  1  0  0  0  0  0  0  0  0  0
    7.1701  -11.4211   25.2852 C   0  0  0  0  0  0  0  0  0  0  0  0
    7.6324  -13.7096   26.2041 C   0  0  0  0  0  0  0  0  0  0  0  0
    8.5761  -14.2446   25.1504 C   0  0  2  0  0  0  0  0  0  0  0  0
    7.9100  -14.8851   24.0671 N   0  0  0  0  0  0  0  0  0  0  0  0
    9.4621  -15.2214   25.8688 C   0  0  0  0  0  0  0  0  0  0  0  0
    9.5410  -15.1377   27.1186 O   0  0  0  0  0  0  0  0  0  0  0  0
   11.6654  -19.6695   27.1564 N   0  0  0  0  0  0  0  0  0  0  0  0
   10.3005  -19.3215   27.2372 C   0  0  0  0  0  0  0  0  0  0  0  0
    9.5230  -20.0185   27.9035 O   0  0  0  0  0  0  0  0  0  0  0  0
    9.8378  -18.1319   26.5220 C   0  0  0  0  0  0  0  0  0  0  0  0
   10.9239  -17.2856   25.9017 C   0  0  2  0  0  0  0  0  0  0  0  0
   10.1989  -16.2185   25.1823 N   0  0  0  0  0  0  0  0  0  0  0  0
   11.6531  -18.1278   24.9126 C   0  0  0  0  0  0  0  0  0  0  0  0
   11.5490  -18.0694   23.5585 O   0  0  0  0  0  0  0  0  0  0  0  0
   12.4593  -18.9952   25.3932 O   0  0  0  0  0  0  0  0  0  0  0  0
  2  1  1  6
  3  2  1  0
  4  5  2  0
  4  2  1  0
  7  6  1  1
  7  8  1  0
  7  9  1  0
 10  9  1  1
 10 11  1  0
 10 12  1  0
 11  4  1  0
 12 19  1  0
 12 13  2  0
 15 14  1  0
 16 15  2  0
 17 15  1  0
 18 17  1  6
 19 18  1  0
 20 21  1  0
 20 18  1  0
 22 20  2  0
M  END
$$$$
