CWS.pdb
     RDKit          3D

 27 28  0  0  1  0  0  0  0  0999 V2000
   28.7162  -22.0484  -16.6631 N   0  0  0  0  0  0  0  0  0  0  0  0
   28.4785  -20.9044  -15.8402 C   0  0  1  0  0  0  0  0  0  0  0  0
   27.9006  -19.7240  -16.5654 C   0  0  0  0  0  0  0  0  0  0  0  0
   28.6834  -18.1945  -16.0145 S   0  0  0  0  0  0  0  0  0  0  0  0
   27.6123  -21.3157  -14.6972 C   0  0  0  0  0  0  0  0  0  0  0  0
   26.5987  -22.0558  -14.8678 O   0  0  0  0  0  0  0  0  0  0  0  0
   27.8883  -20.8971  -13.3861 N   0  0  0  0  0  0  0  0  0  0  0  0
   26.9820  -21.1798  -12.2705 C   0  0  1  0  0  0  0  0  0  0  0  0
   27.7409  -20.7565  -11.0453 C   0  0  0  0  0  0  0  0  0  0  0  0
   26.9790  -20.6238   -9.8123 C   0  0  0  0  0  0  0  0  0  0  0  0
   25.5888  -20.7519   -9.6906 C   0  0  0  0  0  0  0  0  0  0  0  0
   25.2578  -20.5632   -8.4049 N   0  0  0  0  0  0  0  0  0  0  0  0
   26.3902  -20.3191   -7.7013 C   0  0  0  0  0  0  0  0  0  0  0  0
   26.6054  -20.0862   -6.3586 C   0  0  0  0  0  0  0  0  0  0  0  0
   27.8669  -19.8859   -5.8466 C   0  0  0  0  0  0  0  0  0  0  0  0
   28.9476  -19.9205   -6.7169 C   0  0  0  0  0  0  0  0  0  0  0  0
   28.7576  -20.1508   -8.0618 C   0  0  0  0  0  0  0  0  0  0  0  0
   27.4727  -20.3513   -8.5563 C   0  0  0  0  0  0  0  0  0  0  0  0
   25.7009  -20.5348  -12.4085 C   0  0  0  0  0  0  0  0  0  0  0  0
   25.6795  -19.2616  -12.5521 O   0  0  0  0  0  0  0  0  0  0  0  0
   22.5994  -22.3474  -14.0301 O   0  0  0  0  0  0  0  0  0  0  0  0
   22.6419  -20.9563  -14.0851 C   0  0  0  0  0  0  0  0  0  0  0  0
   23.2119  -20.4022  -12.7630 C   0  0  2  0  0  0  0  0  0  0  0  0
   24.4150  -21.1415  -12.4178 N   0  0  0  0  0  0  0  0  0  0  0  0
   22.2179  -20.5404  -11.6917 C   0  0  0  0  0  0  0  0  0  0  0  0
   21.1141  -19.9532  -11.7967 O   0  0  0  0  0  0  0  0  0  0  0  0
   22.4280  -21.2966  -10.5448 O   0  0  0  0  0  0  0  0  0  0  0  0
  2  1  1  6
  2  3  1  0
  4  3  1  0
  5  2  1  0
  6  5  2  0
  7  5  1  0
  8  7  1  0
  9 10  1  0
  8  9  1  1
 10 18  1  0
 11 10  2  0
 11 12  1  0
 12 13  1  0
 13 14  1  0
 14 15  2  0
 16 15  1  0
 17 16  2  0
 18 13  2  0
 18 17  1  0
 19 24  1  0
 19  8  1  0
 20 19  2  0
 21 22  1  0
 23 22  1  6
 23 24  1  0
 25 23  1  0
 26 25  2  0
 27 25  1  0
M  END
$$$$
