CWS.pdb
     RDKit          3D

 27 28  0  0  1  0  0  0  0  0999 V2000
   29.4322  -20.9110  -15.3756 N   0  0  0  0  0  0  0  0  0  0  0  0
   28.7305  -20.0375  -14.4886 C   0  0  1  0  0  0  0  0  0  0  0  0
   28.3201  -18.7284  -15.0980 C   0  0  0  0  0  0  0  0  0  0  0  0
   27.3562  -17.7553  -13.9234 S   0  0  0  0  0  0  0  0  0  0  0  0
   27.5546  -20.7701  -13.9353 C   0  0  0  0  0  0  0  0  0  0  0  0
   26.7218  -21.3524  -14.6915 O   0  0  0  0  0  0  0  0  0  0  0  0
   27.3255  -20.8422  -12.5523 N   0  0  0  0  0  0  0  0  0  0  0  0
   26.2064  -21.5987  -11.9859 C   0  0  1  0  0  0  0  0  0  0  0  0
   26.6639  -21.9834  -10.6079 C   0  0  0  0  0  0  0  0  0  0  0  0
   26.5461  -20.9712   -9.5686 C   0  0  0  0  0  0  0  0  0  0  0  0
   25.5289  -20.0124   -9.4707 C   0  0  0  0  0  0  0  0  0  0  0  0
   25.7609  -19.2593   -8.3857 N   0  0  0  0  0  0  0  0  0  0  0  0
   26.8922  -19.7053   -7.7873 C   0  0  0  0  0  0  0  0  0  0  0  0
   27.5469  -19.3004   -6.6424 C   0  0  0  0  0  0  0  0  0  0  0  0
   28.6884  -19.9257   -6.1957 C   0  0  0  0  0  0  0  0  0  0  0  0
   29.1874  -20.9944   -6.9276 C   0  0  0  0  0  0  0  0  0  0  0  0
   28.5512  -21.4165   -8.0743 C   0  0  0  0  0  0  0  0  0  0  0  0
   27.3979  -20.7689   -8.5060 C   0  0  0  0  0  0  0  0  0  0  0  0
   24.9664  -20.8647  -11.9993 C   0  0  0  0  0  0  0  0  0  0  0  0
   24.9764  -19.6570  -11.5709 O   0  0  0  0  0  0  0  0  0  0  0  0
   21.8327  -21.6967  -14.3999 O   0  0  0  0  0  0  0  0  0  0  0  0
   21.9699  -20.3977  -13.9163 C   0  0  0  0  0  0  0  0  0  0  0  0
   22.5329  -20.4355  -12.4805 C   0  0  2  0  0  0  0  0  0  0  0  0
   23.6932  -21.3105  -12.4484 N   0  0  0  0  0  0  0  0  0  0  0  0
   21.5087  -20.9323  -11.5536 C   0  0  0  0  0  0  0  0  0  0  0  0
   21.7184  -21.9918  -10.9149 O   0  0  0  0  0  0  0  0  0  0  0  0
   20.2965  -20.2889  -11.3350 O   0  0  0  0  0  0  0  0  0  0  0  0
  2  1  1  6
  2  3  1  0
  4  3  1  0
  5  2  1  0
  6  5  2  0
  7  5  1  0
  8  7  1  0
  9 10  1  0
  8  9  1  1
 10 18  1  0
 11 10  2  0
 11 12  1  0
 12 13  1  0
 13 14  1  0
 14 15  2  0
 16 15  1  0
 17 16  2  0
 18 13  2  0
 18 17  1  0
 19 24  1  0
 19  8  1  0
 20 19  2  0
 21 22  1  0
 23 22  1  6
 23 24  1  0
 25 23  1  0
 26 25  2  0
 27 25  1  0
M  END
$$$$
