CWS.pdb
     RDKit          3D

 27 28  0  0  1  0  0  0  0  0999 V2000
   15.4846  -20.7354    1.0695 N   0  0  0  0  0  0  0  0  0  0  0  0
   14.8029  -20.0950    2.1500 C   0  0  1  0  0  0  0  0  0  0  0  0
   13.7373  -20.9309    2.7977 C   0  0  0  0  0  0  0  0  0  0  0  0
   14.4315  -22.4770    3.4167 S   0  0  0  0  0  0  0  0  0  0  0  0
   15.8165  -19.6415    3.1464 C   0  0  0  0  0  0  0  0  0  0  0  0
   16.9552  -20.1901    3.2287 O   0  0  0  0  0  0  0  0  0  0  0  0
   15.5462  -18.5873    4.0329 N   0  0  0  0  0  0  0  0  0  0  0  0
   16.5263  -18.1280    5.0199 C   0  0  1  0  0  0  0  0  0  0  0  0
   16.4473  -16.6290    4.9677 C   0  0  0  0  0  0  0  0  0  0  0  0
   17.2083  -15.9658    3.9191 C   0  0  0  0  0  0  0  0  0  0  0  0
   17.4193  -16.4579    2.6240 C   0  0  0  0  0  0  0  0  0  0  0  0
   18.1655  -15.5701    1.9508 N   0  0  0  0  0  0  0  0  0  0  0  0
   18.4379  -14.5273    2.7726 C   0  0  0  0  0  0  0  0  0  0  0  0
   19.1374  -13.3557    2.5692 C   0  0  0  0  0  0  0  0  0  0  0  0
   19.2689  -12.4047    3.5551 C   0  0  0  0  0  0  0  0  0  0  0  0
   18.6763  -12.6428    4.7876 C   0  0  0  0  0  0  0  0  0  0  0  0
   17.9732  -13.8056    5.0145 C   0  0  0  0  0  0  0  0  0  0  0  0
   17.8533  -14.7523    4.0020 C   0  0  0  0  0  0  0  0  0  0  0  0
   16.2997  -18.6734    6.3343 C   0  0  0  0  0  0  0  0  0  0  0  0
   15.1342  -18.5388    6.8499 O   0  0  0  0  0  0  0  0  0  0  0  0
   19.0379  -20.8712    8.4695 O   0  0  0  0  0  0  0  0  0  0  0  0
   17.7100  -21.0803    8.8345 C   0  0  0  0  0  0  0  0  0  0  0  0
   16.8756  -19.8277    8.4962 C   0  0  2  0  0  0  0  0  0  0  0  0
   17.2220  -19.3732    7.1596 N   0  0  0  0  0  0  0  0  0  0  0  0
   17.1501  -18.7645    9.4704 C   0  0  0  0  0  0  0  0  0  0  0  0
   16.8474  -18.9404   10.6753 O   0  0  0  0  0  0  0  0  0  0  0  0
   17.7363  -17.5501    9.1341 O   0  0  0  0  0  0  0  0  0  0  0  0
  2  1  1  6
  2  3  1  0
  4  3  1  0
  5  2  1  0
  6  5  2  0
  7  5  1  0
  8  7  1  0
  9 10  1  0
  8  9  1  1
 10 18  1  0
 11 10  2  0
 11 12  1  0
 12 13  1  0
 13 14  1  0
 14 15  2  0
 16 15  1  0
 17 16  2  0
 18 13  2  0
 18 17  1  0
 19 24  1  0
 19  8  1  0
 20 19  2  0
 21 22  1  0
 23 22  1  1
 23 24  1  0
 25 23  1  0
 26 25  2  0
 27 25  1  0
M  END
$$$$
