CWS.pdb
     RDKit          3D

 27 28  0  0  1  0  0  0  0  0999 V2000
   28.2807  -21.3208  -15.5604 N   0  0  0  0  0  0  0  0  0  0  0  0
   28.3177  -20.3440  -14.5181 C   0  0  1  0  0  0  0  0  0  0  0  0
   27.9040  -18.9644  -14.9415 C   0  0  0  0  0  0  0  0  0  0  0  0
   26.2008  -18.9669  -15.5373 S   0  0  0  0  0  0  0  0  0  0  0  0
   27.4860  -20.8342  -13.3806 C   0  0  0  0  0  0  0  0  0  0  0  0
   26.5991  -21.7235  -13.5443 O   0  0  0  0  0  0  0  0  0  0  0  0
   27.6549  -20.3272  -12.0826 N   0  0  0  0  0  0  0  0  0  0  0  0
   26.8374  -20.7822  -10.9555 C   0  0  1  0  0  0  0  0  0  0  0  0
   27.5163  -20.2194   -9.7396 C   0  0  0  0  0  0  0  0  0  0  0  0
   26.8526  -20.4251   -8.4606 C   0  0  0  0  0  0  0  0  0  0  0  0
   25.6005  -21.0264   -8.2750 C   0  0  0  0  0  0  0  0  0  0  0  0
   25.3264  -21.0355   -6.9623 N   0  0  0  0  0  0  0  0  0  0  0  0
   26.3617  -20.4602   -6.3035 C   0  0  0  0  0  0  0  0  0  0  0  0
   26.5897  -20.2447   -4.9600 C   0  0  0  0  0  0  0  0  0  0  0  0
   27.7460  -19.6555   -4.5022 C   0  0  0  0  0  0  0  0  0  0  0  0
   28.7042  -19.2697   -5.4294 C   0  0  0  0  0  0  0  0  0  0  0  0
   28.4987  -19.4740   -6.7762 C   0  0  0  0  0  0  0  0  0  0  0  0
   27.3219  -20.0724   -7.2152 C   0  0  0  0  0  0  0  0  0  0  0  0
   25.4531  -20.4001  -11.0736 C   0  0  0  0  0  0  0  0  0  0  0  0
   25.1863  -19.1729  -11.3287 O   0  0  0  0  0  0  0  0  0  0  0  0
   21.0597  -21.6891  -12.5749 O   0  0  0  0  0  0  0  0  0  0  0  0
   22.3545  -22.0238  -12.1856 C   0  0  0  0  0  0  0  0  0  0  0  0
   23.0019  -20.8291  -11.4554 C   0  0  2  0  0  0  0  0  0  0  0  0
   24.3052  -21.2302  -10.9517 N   0  0  0  0  0  0  0  0  0  0  0  0
   22.1479  -20.4002  -10.3412 C   0  0  0  0  0  0  0  0  0  0  0  0
   22.3874  -20.8222   -9.1841 O   0  0  0  0  0  0  0  0  0  0  0  0
   21.0682  -19.5381  -10.4914 O   0  0  0  0  0  0  0  0  0  0  0  0
  2  1  1  6
  2  3  1  0
  4  3  1  0
  5  2  1  0
  6  5  2  0
  7  5  1  0
  8  7  1  0
  9 10  1  0
  8  9  1  1
 10 18  1  0
 11 10  2  0
 11 12  1  0
 12 13  1  0
 13 14  1  0
 14 15  2  0
 16 15  1  0
 17 16  2  0
 18 13  2  0
 18 17  1  0
 19 24  1  0
 19  8  1  0
 20 19  2  0
 21 22  1  0
 23 22  1  1
 23 24  1  0
 25 23  1  0
 26 25  2  0
 27 25  1  0
M  END
$$$$
