CWS.pdb
     RDKit          3D

 27 28  0  0  1  0  0  0  0  0999 V2000
   34.8090  -27.6116  -18.2668 N   0  0  0  0  0  0  0  0  0  0  0  0
   33.7349  -28.1208  -19.0600 C   0  0  1  0  0  0  0  0  0  0  0  0
   34.0343  -29.4162  -19.7571 C   0  0  0  0  0  0  0  0  0  0  0  0
   34.3467  -30.7262  -18.5564 S   0  0  0  0  0  0  0  0  0  0  0  0
   32.5235  -28.2370  -18.1971 C   0  0  0  0  0  0  0  0  0  0  0  0
   32.6042  -28.1945  -16.9338 O   0  0  0  0  0  0  0  0  0  0  0  0
   31.2449  -28.3983  -18.7536 N   0  0  0  0  0  0  0  0  0  0  0  0
   30.0362  -28.4507  -17.9278 C   0  0  1  0  0  0  0  0  0  0  0  0
   29.0212  -27.6427  -18.6847 C   0  0  0  0  0  0  0  0  0  0  0  0
   27.8499  -27.1969  -17.9444 C   0  0  0  0  0  0  0  0  0  0  0  0
   27.8657  -26.4994  -16.7292 C   0  0  0  0  0  0  0  0  0  0  0  0
   26.5981  -26.2655  -16.3596 N   0  0  0  0  0  0  0  0  0  0  0  0
   25.7733  -26.7901  -17.2984 C   0  0  0  0  0  0  0  0  0  0  0  0
   24.3982  -26.8029  -17.4095 C   0  0  0  0  0  0  0  0  0  0  0  0
   23.7589  -27.3805  -18.4825 C   0  0  0  0  0  0  0  0  0  0  0  0
   24.5312  -27.9658  -19.4764 C   0  0  0  0  0  0  0  0  0  0  0  0
   25.9060  -27.9659  -19.3871 C   0  0  0  0  0  0  0  0  0  0  0  0
   26.5299  -27.3750  -18.2929 C   0  0  0  0  0  0  0  0  0  0  0  0
   29.6074  -29.7964  -17.6422 C   0  0  0  0  0  0  0  0  0  0  0  0
   29.8293  -30.6996  -18.5238 O   0  0  0  0  0  0  0  0  0  0  0  0
   26.9236  -30.8880  -14.7421 O   0  0  0  0  0  0  0  0  0  0  0  0
   27.9080  -31.8545  -14.9348 C   0  0  0  0  0  0  0  0  0  0  0  0
   28.5572  -31.6646  -16.3212 C   0  0  2  0  0  0  0  0  0  0  0  0
   28.9592  -30.2758  -16.4709 N   0  0  0  0  0  0  0  0  0  0  0  0
   27.6008  -32.0226  -17.3757 C   0  0  0  0  0  0  0  0  0  0  0  0
   27.2458  -33.2191  -17.5045 O   0  0  0  0  0  0  0  0  0  0  0  0
   27.0529  -31.0996  -18.2585 O   0  0  0  0  0  0  0  0  0  0  0  0
  2  1  1  1
  2  3  1  0
  4  3  1  0
  5  2  1  0
  6  5  2  0
  7  5  1  0
  8  7  1  0
  9 10  1  0
  8  9  1  6
 10 18  1  0
 11 10  2  0
 11 12  1  0
 12 13  1  0
 13 14  1  0
 14 15  2  0
 16 15  1  0
 17 16  2  0
 18 13  2  0
 18 17  1  0
 19 24  1  0
 19  8  1  0
 20 19  2  0
 21 22  1  0
 23 22  1  1
 23 24  1  0
 25 23  1  0
 26 25  2  0
 27 25  1  0
M  END
$$$$
