CWS.pdb
     RDKit          3D

 27 28  0  0  1  0  0  0  0  0999 V2000
   29.2567  -20.8275  -14.3296 N   0  0  0  0  0  0  0  0  0  0  0  0
   28.3875  -19.8839  -13.7000 C   0  0  1  0  0  0  0  0  0  0  0  0
   27.6895  -18.9510  -14.6466 C   0  0  0  0  0  0  0  0  0  0  0  0
   28.7113  -17.5014  -14.9787 S   0  0  0  0  0  0  0  0  0  0  0  0
   27.4102  -20.6309  -12.8558 C   0  0  0  0  0  0  0  0  0  0  0  0
   27.0128  -21.7911  -13.1728 O   0  0  0  0  0  0  0  0  0  0  0  0
   26.8925  -20.0752  -11.6754 N   0  0  0  0  0  0  0  0  0  0  0  0
   25.9043  -20.7760  -10.8519 C   0  0  1  0  0  0  0  0  0  0  0  0
   26.1024  -20.2274   -9.4678 C   0  0  0  0  0  0  0  0  0  0  0  0
   27.3442  -20.5756   -8.7932 C   0  0  0  0  0  0  0  0  0  0  0  0
   28.3782  -21.3537   -9.3310 C   0  0  0  0  0  0  0  0  0  0  0  0
   29.3516  -21.4551   -8.4143 N   0  0  0  0  0  0  0  0  0  0  0  0
   28.9739  -20.7676   -7.3090 C   0  0  0  0  0  0  0  0  0  0  0  0
   29.6114  -20.5383   -6.1072 C   0  0  0  0  0  0  0  0  0  0  0  0
   29.0430  -19.7727   -5.1150 C   0  0  0  0  0  0  0  0  0  0  0  0
   27.7898  -19.2204   -5.3411 C   0  0  0  0  0  0  0  0  0  0  0  0
   27.1335  -19.4358   -6.5331 C   0  0  0  0  0  0  0  0  0  0  0  0
   27.7286  -20.2130   -7.5218 C   0  0  0  0  0  0  0  0  0  0  0  0
   24.5575  -20.6316  -11.3437 C   0  0  0  0  0  0  0  0  0  0  0  0
   24.0959  -19.4460  -11.4974 O   0  0  0  0  0  0  0  0  0  0  0  0
   20.3477  -22.4362  -13.0818 O   0  0  0  0  0  0  0  0  0  0  0  0
   21.6836  -22.6607  -12.7576 C   0  0  0  0  0  0  0  0  0  0  0  0
   22.2978  -21.3740  -12.1687 C   0  0  2  0  0  0  0  0  0  0  0  0
   23.6448  -21.6607  -11.7035 N   0  0  0  0  0  0  0  0  0  0  0  0
   21.4768  -20.8928  -11.0509 C   0  0  0  0  0  0  0  0  0  0  0  0
   21.8170  -21.1667   -9.8747 O   0  0  0  0  0  0  0  0  0  0  0  0
   20.3224  -20.1374  -11.2181 O   0  0  0  0  0  0  0  0  0  0  0  0
  2  1  1  6
  2  3  1  0
  4  3  1  0
  5  2  1  0
  6  5  2  0
  7  5  1  0
  8  7  1  0
  9 10  1  0
  8  9  1  1
 10 18  1  0
 11 10  2  0
 11 12  1  0
 12 13  1  0
 13 14  1  0
 14 15  2  0
 16 15  1  0
 17 16  2  0
 18 13  2  0
 18 17  1  0
 19 24  1  0
 19  8  1  0
 20 19  2  0
 21 22  1  0
 23 22  1  1
 23 24  1  0
 25 23  1  0
 26 25  2  0
 27 25  1  0
M  END
$$$$
