CWS.pdb
     RDKit          3D

 27 28  0  0  1  0  0  0  0  0999 V2000
   23.8667  -34.0881  -14.3222 N   0  0  0  0  0  0  0  0  0  0  0  0
   23.5615  -33.3198  -13.1566 C   0  0  1  0  0  0  0  0  0  0  0  0
   22.0952  -33.1045  -12.9180 C   0  0  0  0  0  0  0  0  0  0  0  0
   21.4516  -31.8327  -14.0243 S   0  0  0  0  0  0  0  0  0  0  0  0
   24.2131  -33.9658  -11.9802 C   0  0  0  0  0  0  0  0  0  0  0  0
   24.3690  -35.2212  -11.9167 O   0  0  0  0  0  0  0  0  0  0  0  0
   24.6792  -33.2053  -10.8963 N   0  0  0  0  0  0  0  0  0  0  0  0
   25.3104  -33.8207   -9.7265 C   0  0  1  0  0  0  0  0  0  0  0  0
   26.1637  -32.7341   -9.1371 C   0  0  0  0  0  0  0  0  0  0  0  0
   27.0062  -33.0984   -8.0076 C   0  0  0  0  0  0  0  0  0  0  0  0
   28.1653  -33.8836   -8.0699 C   0  0  0  0  0  0  0  0  0  0  0  0
   28.6643  -33.9999   -6.8307 N   0  0  0  0  0  0  0  0  0  0  0  0
   27.8627  -33.3151   -5.9790 C   0  0  0  0  0  0  0  0  0  0  0  0
   27.9393  -33.0991   -4.6185 C   0  0  0  0  0  0  0  0  0  0  0  0
   27.0124  -32.3338   -3.9486 C   0  0  0  0  0  0  0  0  0  0  0  0
   25.9730  -31.7678   -4.6738 C   0  0  0  0  0  0  0  0  0  0  0  0
   25.8752  -31.9698   -6.0331 C   0  0  0  0  0  0  0  0  0  0  0  0
   26.8248  -32.7470   -6.6888 C   0  0  0  0  0  0  0  0  0  0  0  0
   24.3573  -34.3747   -8.7985 C   0  0  0  0  0  0  0  0  0  0  0  0
   23.3190  -33.6795   -8.5142 O   0  0  0  0  0  0  0  0  0  0  0  0
   22.0866  -38.0891   -6.7477 O   0  0  0  0  0  0  0  0  0  0  0  0
   23.2145  -37.6408   -7.4310 C   0  0  0  0  0  0  0  0  0  0  0  0
   23.3325  -36.1092   -7.2889 C   0  0  2  0  0  0  0  0  0  0  0  0
   24.4096  -35.6347   -8.1420 N   0  0  0  0  0  0  0  0  0  0  0  0
   23.6113  -35.7555   -5.8917 C   0  0  0  0  0  0  0  0  0  0  0  0
   24.7957  -35.5475   -5.5340 O   0  0  0  0  0  0  0  0  0  0  0  0
   22.6244  -35.6344   -4.9207 O   0  0  0  0  0  0  0  0  0  0  0  0
  2  1  1  6
  2  3  1  0
  4  3  1  0
  5  2  1  0
  6  5  2  0
  7  5  1  0
  8  7  1  0
  9 10  1  0
  8  9  1  1
 10 18  1  0
 11 10  2  0
 11 12  1  0
 12 13  1  0
 13 14  1  0
 14 15  2  0
 16 15  1  0
 17 16  2  0
 18 13  2  0
 18 17  1  0
 19 24  1  0
 19  8  1  0
 20 19  2  0
 21 22  1  0
 23 22  1  1
 23 24  1  0
 25 23  1  0
 26 25  2  0
 27 25  1  0
M  END
$$$$
