CWS.pdb
     RDKit          3D

 27 28  0  0  1  0  0  0  0  0999 V2000
   27.5810  -23.7753  -16.5548 N   0  0  0  0  0  0  0  0  0  0  0  0
   26.6835  -22.6715  -16.6903 C   0  0  1  0  0  0  0  0  0  0  0  0
   25.8408  -22.7020  -17.9322 C   0  0  0  0  0  0  0  0  0  0  0  0
   24.9496  -21.1461  -18.1335 S   0  0  0  0  0  0  0  0  0  0  0  0
   25.8383  -22.5957  -15.4633 C   0  0  0  0  0  0  0  0  0  0  0  0
   25.3746  -23.6383  -14.9135 O   0  0  0  0  0  0  0  0  0  0  0  0
   25.5239  -21.3630  -14.8698 N   0  0  0  0  0  0  0  0  0  0  0  0
   24.6825  -21.2653  -13.6748 C   0  0  1  0  0  0  0  0  0  0  0  0
   25.2705  -20.1307  -12.8855 C   0  0  0  0  0  0  0  0  0  0  0  0
   26.5206  -20.3926  -12.1875 C   0  0  0  0  0  0  0  0  0  0  0  0
   27.7941  -20.4224  -12.7715 C   0  0  0  0  0  0  0  0  0  0  0  0
   28.6921  -20.6948  -11.8136 N   0  0  0  0  0  0  0  0  0  0  0  0
   28.0347  -20.8398  -10.6373 C   0  0  0  0  0  0  0  0  0  0  0  0
   28.4847  -21.0984   -9.3591 C   0  0  0  0  0  0  0  0  0  0  0  0
   27.6265  -21.1785   -8.2864 C   0  0  0  0  0  0  0  0  0  0  0  0
   26.2692  -20.9927   -8.5094 C   0  0  0  0  0  0  0  0  0  0  0  0
   25.7960  -20.7338   -9.7771 C   0  0  0  0  0  0  0  0  0  0  0  0
   26.6831  -20.6568  -10.8461 C   0  0  0  0  0  0  0  0  0  0  0  0
   23.2854  -21.0925  -13.9824 C   0  0  0  0  0  0  0  0  0  0  0  0
   22.9721  -20.2926  -14.9334 O   0  0  0  0  0  0  0  0  0  0  0  0
   20.2093  -23.2549  -12.2782 O   0  0  0  0  0  0  0  0  0  0  0  0
   20.0050  -22.8209  -13.5859 C   0  0  0  0  0  0  0  0  0  0  0  0
   20.8103  -21.5290  -13.8355 C   0  0  2  0  0  0  0  0  0  0  0  0
   22.1708  -21.7183  -13.3598 N   0  0  0  0  0  0  0  0  0  0  0  0
   20.1868  -20.4049  -13.1267 C   0  0  0  0  0  0  0  0  0  0  0  0
   20.8020  -19.8563  -12.1808 O   0  0  0  0  0  0  0  0  0  0  0  0
   18.9317  -19.9002  -13.4450 O   0  0  0  0  0  0  0  0  0  0  0  0
  2  1  1  1
  2  3  1  0
  4  3  1  0
  5  2  1  0
  6  5  2  0
  7  5  1  0
  8  7  1  0
  9 10  1  0
  8  9  1  1
 10 18  1  0
 11 10  2  0
 11 12  1  0
 12 13  1  0
 13 14  1  0
 14 15  2  0
 16 15  1  0
 17 16  2  0
 18 13  2  0
 18 17  1  0
 19 24  1  0
 19  8  1  0
 20 19  2  0
 21 22  1  0
 23 22  1  1
 23 24  1  0
 25 23  1  0
 26 25  2  0
 27 25  1  0
M  END
$$$$
