CWS.pdb
     RDKit          3D

 27 28  0  0  1  0  0  0  0  0999 V2000
   29.9381  -22.5684  -18.1534 N   0  0  0  0  0  0  0  0  0  0  0  0
   29.0553  -23.1166  -17.1725 C   0  0  1  0  0  0  0  0  0  0  0  0
   29.7352  -23.9150  -16.0984 C   0  0  0  0  0  0  0  0  0  0  0  0
   30.5726  -25.3481  -16.8061 S   0  0  0  0  0  0  0  0  0  0  0  0
   28.2453  -22.0063  -16.5920 C   0  0  0  0  0  0  0  0  0  0  0  0
   28.7618  -20.8820  -16.3205 O   0  0  0  0  0  0  0  0  0  0  0  0
   26.8767  -22.1656  -16.3237 N   0  0  0  0  0  0  0  0  0  0  0  0
   26.0757  -21.1077  -15.7033 C   0  0  1  0  0  0  0  0  0  0  0  0
   25.2160  -20.5777  -16.8152 C   0  0  0  0  0  0  0  0  0  0  0  0
   24.2462  -19.5504  -16.4650 C   0  0  0  0  0  0  0  0  0  0  0  0
   24.5227  -18.3664  -15.7684 C   0  0  0  0  0  0  0  0  0  0  0  0
   23.3800  -17.6771  -15.6361 N   0  0  0  0  0  0  0  0  0  0  0  0
   22.3831  -18.3813  -16.2252 C   0  0  0  0  0  0  0  0  0  0  0  0
   21.0400  -18.1114  -16.3887 C   0  0  0  0  0  0  0  0  0  0  0  0
   20.1996  -18.9722  -17.0568 C   0  0  0  0  0  0  0  0  0  0  0  0
   20.7301  -20.1447  -17.5768 C   0  0  0  0  0  0  0  0  0  0  0  0
   22.0680  -20.4362  -17.4256 C   0  0  0  0  0  0  0  0  0  0  0  0
   22.8985  -19.5501  -16.7468 C   0  0  0  0  0  0  0  0  0  0  0  0
   25.3260  -21.5655  -14.5611 C   0  0  0  0  0  0  0  0  0  0  0  0
   24.7237  -22.6933  -14.6481 O   0  0  0  0  0  0  0  0  0  0  0  0
   26.1499  -21.3108  -10.6275 O   0  0  0  0  0  0  0  0  0  0  0  0
   24.8428  -20.9046  -10.8858 C   0  0  0  0  0  0  0  0  0  0  0  0
   24.3730  -21.4935  -12.2320 C   0  0  2  0  0  0  0  0  0  0  0  0
   25.1676  -20.9186  -13.3048 N   0  0  0  0  0  0  0  0  0  0  0  0
   22.9532  -21.1873  -12.4448 C   0  0  0  0  0  0  0  0  0  0  0  0
   22.6353  -20.2204  -13.1783 O   0  0  0  0  0  0  0  0  0  0  0  0
   21.9181  -21.9169  -11.8723 O   0  0  0  0  0  0  0  0  0  0  0  0
  2  1  1  6
  2  3  1  0
  4  3  1  0
  5  2  1  0
  6  5  2  0
  7  5  1  0
  8  7  1  0
  9 10  1  0
  8  9  1  6
 10 18  1  0
 11 10  2  0
 11 12  1  0
 12 13  1  0
 13 14  1  0
 14 15  2  0
 16 15  1  0
 17 16  2  0
 18 13  2  0
 18 17  1  0
 19 24  1  0
 19  8  1  0
 20 19  2  0
 21 22  1  0
 23 22  1  1
 23 24  1  0
 25 23  1  0
 26 25  2  0
 27 25  1  0
M  END
$$$$
