LVV.pdb
     RDKit          3D

 23 22  0  0  1  0  0  0  0  0999 V2000
    6.8097  -11.1377   24.9915 C   0  0  0  0  0  0  0  0  0  0  0  0
    6.0187  -12.3358   25.4713 C   0  0  1  0  0  0  0  0  0  0  0  0
    4.8517  -11.9662   26.3512 C   0  0  0  0  0  0  0  0  0  0  0  0
    5.7141  -13.3223   24.4023 C   0  0  0  0  0  0  0  0  0  0  0  0
    5.8365  -14.7467   24.8288 C   0  0  2  0  0  0  0  0  0  0  0  0
    5.8376  -14.9629   26.2443 N   0  0  0  0  0  0  0  0  0  0  0  0
    7.0496  -15.3671   24.2472 C   0  0  0  0  0  0  0  0  0  0  0  0
    6.9757  -15.7625   23.0512 O   0  0  0  0  0  0  0  0  0  0  0  0
    8.5856  -15.0666   22.1273 C   0  0  0  0  0  0  0  0  0  0  0  0
    9.7079  -15.2644   23.1082 C   0  0  2  0  0  0  0  0  0  0  0  0
   11.0096  -15.6040   22.4202 C   0  0  0  0  0  0  0  0  0  0  0  0
    9.4060  -16.1840   24.2538 C   0  0  2  0  0  0  0  0  0  0  0  0
    8.2510  -15.5345   24.9394 N   0  0  0  0  0  0  0  0  0  0  0  0
   10.4866  -16.3877   25.2127 C   0  0  0  0  0  0  0  0  0  0  0  0
   11.6531  -16.6506   24.8064 O   0  0  0  0  0  0  0  0  0  0  0  0
   10.1535  -15.3522   29.5257 C   0  0  0  0  0  0  0  0  0  0  0  0
   11.3139  -15.2618   28.5723 C   0  0  2  0  0  0  0  0  0  0  0  0
   11.3189  -13.8963   27.9096 C   0  0  0  0  0  0  0  0  0  0  0  0
   11.3488  -16.3792   27.5791 C   0  0  2  0  0  0  0  0  0  0  0  0
   10.2889  -16.3015   26.5961 N   0  0  0  0  0  0  0  0  0  0  0  0
   11.3226  -17.6597   28.3280 C   0  0  0  0  0  0  0  0  0  0  0  0
   10.3868  -18.4926   28.2954 O   0  0  0  0  0  0  0  0  0  0  0  0
   12.4206  -17.9503   29.1225 O   0  0  0  0  0  0  0  0  0  0  0  0
  2  1  1  6
  2  3  1  0
  4  2  1  0
  4  5  1  0
  5  6  1  1
  7  8  2  0
  7  5  1  0
 10 12  1  0
 10  9  1  6
 11 10  1  0
 12 13  1  1
 13  7  1  0
 14 20  1  0
 14 12  1  0
 15 14  2  0
 17 19  1  0
 17 16  1  6
 18 17  1  0
 19 21  1  0
 19 20  1  6
 21 23  1  0
 22 21  2  0
M  END
$$$$
