LVV.pdb
     RDKit          3D

 23 22  0  0  1  0  0  0  0  0999 V2000
    5.7994  -19.5839   22.1343 C   0  0  0  0  0  0  0  0  0  0  0  0
    6.0511  -18.1491   21.7228 C   0  0  1  0  0  0  0  0  0  0  0  0
    4.7997  -17.4209   21.3026 C   0  0  0  0  0  0  0  0  0  0  0  0
    6.9312  -17.4010   22.6581 C   0  0  0  0  0  0  0  0  0  0  0  0
    7.0865  -15.9540   22.3299 C   0  0  2  0  0  0  0  0  0  0  0  0
    7.6711  -15.6764   21.0525 N   0  0  0  0  0  0  0  0  0  0  0  0
    7.8692  -15.2584   23.3778 C   0  0  0  0  0  0  0  0  0  0  0  0
    9.1231  -15.2358   23.2387 O   0  0  0  0  0  0  0  0  0  0  0  0
    6.1530  -13.1549   26.7617 C   0  0  0  0  0  0  0  0  0  0  0  0
    7.3806  -12.8015   25.9686 C   0  0  2  0  0  0  0  0  0  0  0  0
    7.0794  -11.8108   24.8682 C   0  0  0  0  0  0  0  0  0  0  0  0
    8.1924  -13.9670   25.4868 C   0  0  2  0  0  0  0  0  0  0  0  0
    7.3035  -14.6358   24.4927 N   0  0  0  0  0  0  0  0  0  0  0  0
    8.5932  -14.9319   26.5049 C   0  0  0  0  0  0  0  0  0  0  0  0
    7.7335  -15.6946   27.0286 O   0  0  0  0  0  0  0  0  0  0  0  0
   12.8142  -15.8803   27.2908 C   0  0  0  0  0  0  0  0  0  0  0  0
   11.6128  -16.7811   27.3846 C   0  0  2  0  0  0  0  0  0  0  0  0
   11.4023  -17.4835   26.0557 C   0  0  0  0  0  0  0  0  0  0  0  0
   10.3828  -16.0752   27.8590 C   0  0  2  0  0  0  0  0  0  0  0  0
    9.9183  -15.0586   26.9392 N   0  0  0  0  0  0  0  0  0  0  0  0
   10.6624  -15.5223   29.2071 C   0  0  0  0  0  0  0  0  0  0  0  0
   10.6331  -14.3055   29.5054 O   0  0  0  0  0  0  0  0  0  0  0  0
   10.9795  -16.4268   30.2085 O   0  0  0  0  0  0  0  0  0  0  0  0
  2  1  1  1
  2  3  1  0
  4  2  1  0
  4  5  1  0
  5  6  1  6
  7  8  2  0
  7  5  1  0
 10 12  1  0
 10  9  1  6
 11 10  1  0
 12 13  1  6
 13  7  1  0
 14 20  1  0
 14 12  1  0
 15 14  2  0
 17 19  1  0
 17 16  1  6
 18 17  1  0
 19 21  1  0
 19 20  1  6
 21 23  1  0
 22 21  2  0
M  END
$$$$
