LVV.pdb
     RDKit          3D

 23 22  0  0  1  0  0  0  0  0999 V2000
    6.7751  -12.4912   18.4313 C   0  0  0  0  0  0  0  0  0  0  0  0
    7.8678  -13.3661   19.0074 C   0  0  1  0  0  0  0  0  0  0  0  0
    9.2378  -12.7426   18.9225 C   0  0  0  0  0  0  0  0  0  0  0  0
    7.5279  -13.9628   20.3255 C   0  0  0  0  0  0  0  0  0  0  0  0
    8.6451  -14.7181   20.9636 C   0  0  2  0  0  0  0  0  0  0  0  0
    9.1036  -15.8625   20.2352 N   0  0  0  0  0  0  0  0  0  0  0  0
    8.2791  -15.1375   22.3366 C   0  0  0  0  0  0  0  0  0  0  0  0
    7.7639  -14.2632   23.0863 O   0  0  0  0  0  0  0  0  0  0  0  0
    8.7372  -19.1541   23.8709 C   0  0  0  0  0  0  0  0  0  0  0  0
    7.6471  -18.1697   24.1923 C   0  0  2  0  0  0  0  0  0  0  0  0
    6.4209  -18.3809   23.3349 C   0  0  0  0  0  0  0  0  0  0  0  0
    8.0729  -16.7325   24.2427 C   0  0  2  0  0  0  0  0  0  0  0  0
    8.4698  -16.4273   22.8373 N   0  0  0  0  0  0  0  0  0  0  0  0
    9.1836  -16.4254   25.1375 C   0  0  0  0  0  0  0  0  0  0  0  0
   10.3670  -16.7079   24.7987 O   0  0  0  0  0  0  0  0  0  0  0  0
   11.0027  -13.8061   28.9024 C   0  0  0  0  0  0  0  0  0  0  0  0
    9.9913  -14.0924   27.8260 C   0  0  2  0  0  0  0  0  0  0  0  0
    8.6040  -13.7355   28.3276 C   0  0  0  0  0  0  0  0  0  0  0  0
   10.0674  -15.4913   27.3030 C   0  0  2  0  0  0  0  0  0  0  0  0
    8.9971  -15.8154   26.3838 N   0  0  0  0  0  0  0  0  0  0  0  0
   10.1042  -16.4140   28.4643 C   0  0  0  0  0  0  0  0  0  0  0  0
    9.1849  -17.2031   28.7849 O   0  0  0  0  0  0  0  0  0  0  0  0
   11.2457  -16.3963   29.2504 O   0  0  0  0  0  0  0  0  0  0  0  0
  2  1  1  1
  2  3  1  0
  4  2  1  0
  4  5  1  0
  5  6  1  6
  7  8  2  0
  7  5  1  0
 10 12  1  0
 10  9  1  6
 11 10  1  0
 12 13  1  6
 13  7  1  0
 14 20  1  0
 14 12  1  0
 15 14  2  0
 17 19  1  0
 17 16  1  1
 18 17  1  0
 19 21  1  0
 19 20  1  6
 21 23  1  0
 22 21  2  0
M  END
$$$$
