LVV.pdb
     RDKit          3D

 23 22  0  0  1  0  0  0  0  0999 V2000
    6.1643  -12.2423   26.5107 C   0  0  0  0  0  0  0  0  0  0  0  0
    6.6445  -13.2299   25.4689 C   0  0  1  0  0  0  0  0  0  0  0  0
    8.1342  -13.1808   25.2427 C   0  0  0  0  0  0  0  0  0  0  0  0
    6.0759  -14.5940   25.6264 C   0  0  0  0  0  0  0  0  0  0  0  0
    6.3294  -15.5018   24.4700 C   0  0  2  0  0  0  0  0  0  0  0  0
    5.3664  -16.5462   24.2902 N   0  0  0  0  0  0  0  0  0  0  0  0
    7.6799  -16.1040   24.5607 C   0  0  0  0  0  0  0  0  0  0  0  0
    7.8442  -17.0208   25.4119 O   0  0  0  0  0  0  0  0  0  0  0  0
    9.8662  -16.6967   21.3675 C   0  0  0  0  0  0  0  0  0  0  0  0
   10.6991  -16.2712   22.5448 C   0  0  2  0  0  0  0  0  0  0  0  0
   12.0957  -16.8451   22.4888 C   0  0  0  0  0  0  0  0  0  0  0  0
   10.0556  -16.4539   23.8872 C   0  0  2  0  0  0  0  0  0  0  0  0
    8.7630  -15.7187   23.7675 N   0  0  0  0  0  0  0  0  0  0  0  0
   10.8021  -15.9388   25.0299 C   0  0  0  0  0  0  0  0  0  0  0  0
   11.7573  -15.1322   24.8513 O   0  0  0  0  0  0  0  0  0  0  0  0
    9.4715  -15.2444   28.9577 C   0  0  0  0  0  0  0  0  0  0  0  0
   10.8120  -14.9208   28.3562 C   0  0  2  0  0  0  0  0  0  0  0  0
   10.7330  -13.5898   27.6309 C   0  0  0  0  0  0  0  0  0  0  0  0
   11.3475  -16.0140   27.4876 C   0  0  2  0  0  0  0  0  0  0  0  0
   10.5024  -16.3026   26.3483 N   0  0  0  0  0  0  0  0  0  0  0  0
   11.5657  -17.2101   28.3378 C   0  0  0  0  0  0  0  0  0  0  0  0
   10.9301  -18.2860   28.2420 O   0  0  0  0  0  0  0  0  0  0  0  0
   12.5495  -17.1238   29.3105 O   0  0  0  0  0  0  0  0  0  0  0  0
  2  1  1  1
  2  3  1  0
  4  2  1  0
  4  5  1  0
  5  6  1  1
  7  8  2  0
  7  5  1  0
 10 12  1  0
 10  9  1  6
 11 10  1  0
 12 13  1  6
 13  7  1  0
 14 20  1  0
 14 12  1  0
 15 14  2  0
 17 19  1  0
 17 16  1  6
 18 17  1  0
 19 21  1  0
 19 20  1  6
 21 23  1  0
 22 21  2  0
M  END
$$$$
