LVV.pdb
     RDKit          3D

 23 22  0  0  1  0  0  0  0  0999 V2000
   87.0212  -42.7756   28.9129 C   0  0  0  0  0  0  0  0  0  0  0  0
   86.1857  -43.7461   29.7199 C   0  0  1  0  0  0  0  0  0  0  0  0
   86.8918  -45.0473   30.0048 C   0  0  0  0  0  0  0  0  0  0  0  0
   85.5082  -43.1278   30.8894 C   0  0  0  0  0  0  0  0  0  0  0  0
   86.3773  -42.2188   31.6921 C   0  0  2  0  0  0  0  0  0  0  0  0
   86.1308  -42.2258   33.1027 N   0  0  0  0  0  0  0  0  0  0  0  0
   86.2826  -40.8265   31.1948 C   0  0  0  0  0  0  0  0  0  0  0  0
   87.1918  -40.0267   31.5492 O   0  0  0  0  0  0  0  0  0  0  0  0
   82.8732  -43.1891   30.6123 C   0  0  0  0  0  0  0  0  0  0  0  0
   83.8948  -42.2506   30.0325 C   0  0  2  0  0  0  0  0  0  0  0  0
   85.2829  -42.8475   30.0407 C   0  0  0  0  0  0  0  0  0  0  0  0
   83.8665  -40.8534   30.5769 C   0  0  2  0  0  0  0  0  0  0  0  0
   85.2587  -40.3594   30.3678 N   0  0  0  0  0  0  0  0  0  0  0  0
   83.5126  -40.7229   31.9863 C   0  0  0  0  0  0  0  0  0  0  0  0
   83.9638  -39.7591   32.6663 O   0  0  0  0  0  0  0  0  0  0  0  0
   79.2050  -42.4131   33.5341 C   0  0  0  0  0  0  0  0  0  0  0  0
   80.6055  -42.8410   33.1890 C   0  0  2  0  0  0  0  0  0  0  0  0
   81.3894  -43.0841   34.4657 C   0  0  0  0  0  0  0  0  0  0  0  0
   81.2999  -41.8935   32.2636 C   0  0  2  0  0  0  0  0  0  0  0  0
   82.6744  -41.6360   32.6376 N   0  0  0  0  0  0  0  0  0  0  0  0
   80.4972  -40.6476   32.1957 C   0  0  0  0  0  0  0  0  0  0  0  0
   80.9002  -39.5574   31.7271 O   0  0  0  0  0  0  0  0  0  0  0  0
   79.2034  -40.7009   32.6902 O   0  0  0  0  0  0  0  0  0  0  0  0
  2  1  1  1
  2  3  1  0
  4  2  1  0
  4  5  1  0
  5  6  1  1
  7  8  2  0
  7  5  1  0
 10 12  1  0
 10  9  1  1
 11 10  1  0
 12 13  1  1
 13  7  1  0
 14 20  1  0
 14 12  1  0
 15 14  2  0
 17 19  1  0
 17 16  1  1
 18 17  1  0
 19 21  1  0
 19 20  1  1
 21 23  1  0
 22 21  2  0
M  END
$$$$
