LVV.pdb
     RDKit          3D

 23 22  0  0  1  0  0  0  0  0999 V2000
    7.5473  -11.9719   18.7045 C   0  0  0  0  0  0  0  0  0  0  0  0
    8.1999  -13.3350   18.7905 C   0  0  1  0  0  0  0  0  0  0  0  0
    9.7062  -13.2752   18.8020 C   0  0  0  0  0  0  0  0  0  0  0  0
    7.5969  -14.2266   19.8155 C   0  0  0  0  0  0  0  0  0  0  0  0
    8.2864  -15.5408   19.9676 C   0  0  2  0  0  0  0  0  0  0  0  0
    7.8368  -16.5729   19.0827 N   0  0  0  0  0  0  0  0  0  0  0  0
    8.1873  -16.0278   21.3633 C   0  0  0  0  0  0  0  0  0  0  0  0
    7.0459  -16.3812   21.7688 O   0  0  0  0  0  0  0  0  0  0  0  0
    9.7136  -18.8959   22.9875 C   0  0  0  0  0  0  0  0  0  0  0  0
    9.9841  -17.6887   23.8420 C   0  0  2  0  0  0  0  0  0  0  0  0
   10.1667  -18.0528   25.2971 C   0  0  0  0  0  0  0  0  0  0  0  0
    9.0383  -16.5405   23.6508 C   0  0  2  0  0  0  0  0  0  0  0  0
    9.2711  -16.1162   22.2396 N   0  0  0  0  0  0  0  0  0  0  0  0
    9.2306  -15.3986   24.5382 C   0  0  0  0  0  0  0  0  0  0  0  0
   10.3415  -14.7986   24.5672 O   0  0  0  0  0  0  0  0  0  0  0  0
    7.3383  -11.7278   27.2322 C   0  0  0  0  0  0  0  0  0  0  0  0
    7.1398  -12.9606   26.3932 C   0  0  2  0  0  0  0  0  0  0  0  0
    5.9428  -13.7373   26.9105 C   0  0  0  0  0  0  0  0  0  0  0  0
    8.3685  -13.8067   26.2893 C   0  0  2  0  0  0  0  0  0  0  0  0
    8.2174  -14.9220   25.3788 N   0  0  0  0  0  0  0  0  0  0  0  0
    8.7382  -14.2486   27.6565 C   0  0  0  0  0  0  0  0  0  0  0  0
    8.5592  -15.4022   28.1122 O   0  0  0  0  0  0  0  0  0  0  0  0
    9.3261  -13.3081   28.4879 O   0  0  0  0  0  0  0  0  0  0  0  0
  2  1  1  1
  2  3  1  0
  4  2  1  0
  4  5  1  0
  5  6  1  6
  7  8  2  0
  7  5  1  0
 10 12  1  0
 10  9  1  6
 11 10  1  0
 12 13  1  6
 13  7  1  0
 14 20  1  0
 14 12  1  0
 15 14  2  0
 17 19  1  0
 17 16  1  1
 18 17  1  0
 19 21  1  0
 19 20  1  6
 21 23  1  0
 22 21  2  0
M  END
$$$$
