LVV.pdb
     RDKit          3D

 23 22  0  0  1  0  0  0  0  0999 V2000
    9.6467  -13.1334   19.4768 C   0  0  0  0  0  0  0  0  0  0  0  0
    8.2239  -13.4402   19.8929 C   0  0  1  0  0  0  0  0  0  0  0  0
    7.3126  -12.2408   19.8301 C   0  0  0  0  0  0  0  0  0  0  0  0
    7.6747  -14.6811   19.2869 C   0  0  0  0  0  0  0  0  0  0  0  0
    8.3524  -15.9334   19.7322 C   0  0  2  0  0  0  0  0  0  0  0  0
    7.9812  -17.1168   19.0165 N   0  0  0  0  0  0  0  0  0  0  0  0
    8.1379  -16.1606   21.1804 C   0  0  0  0  0  0  0  0  0  0  0  0
    6.9464  -16.3068   21.5688 O   0  0  0  0  0  0  0  0  0  0  0  0
    9.3209  -18.9864   23.0053 C   0  0  0  0  0  0  0  0  0  0  0  0
    9.6642  -17.7731   23.8244 C   0  0  2  0  0  0  0  0  0  0  0  0
    9.7440  -18.0886   25.2999 C   0  0  0  0  0  0  0  0  0  0  0  0
    8.8407  -16.5520   23.5411 C   0  0  2  0  0  0  0  0  0  0  0  0
    9.1665  -16.2216   22.1232 N   0  0  0  0  0  0  0  0  0  0  0  0
    9.1077  -15.3908   24.3829 C   0  0  0  0  0  0  0  0  0  0  0  0
   10.2470  -14.8461   24.3684 O   0  0  0  0  0  0  0  0  0  0  0  0
    5.9776  -13.3712   26.6919 C   0  0  0  0  0  0  0  0  0  0  0  0
    7.2939  -12.7774   26.2698 C   0  0  2  0  0  0  0  0  0  0  0  0
    7.1106  -12.0118   24.9722 C   0  0  0  0  0  0  0  0  0  0  0  0
    8.3957  -13.7852   26.1880 C   0  0  2  0  0  0  0  0  0  0  0  0
    8.1374  -14.8354   25.2258 N   0  0  0  0  0  0  0  0  0  0  0  0
    8.6282  -14.3223   27.5514 C   0  0  0  0  0  0  0  0  0  0  0  0
    8.3539  -15.4879   27.9214 O   0  0  0  0  0  0  0  0  0  0  0  0
    9.1924  -13.4636   28.4818 O   0  0  0  0  0  0  0  0  0  0  0  0
  2  1  1  6
  2  3  1  0
  4  2  1  0
  4  5  1  0
  5  6  1  6
  7  8  2  0
  7  5  1  0
 10 12  1  0
 10  9  1  6
 11 10  1  0
 12 13  1  6
 13  7  1  0
 14 20  1  0
 14 12  1  0
 15 14  2  0
 17 19  1  0
 17 16  1  6
 18 17  1  0
 19 21  1  0
 19 20  1  6
 21 23  1  0
 22 21  2  0
M  END
$$$$
