LVV.pdb
     RDKit          3D

 23 22  0  0  1  0  0  0  0  0999 V2000
    6.9107  -12.1495   19.0112 C   0  0  0  0  0  0  0  0  0  0  0  0
    7.8148  -13.2652   19.4899 C   0  0  1  0  0  0  0  0  0  0  0  0
    9.2788  -12.9846   19.2643 C   0  0  0  0  0  0  0  0  0  0  0  0
    7.4727  -13.7777   20.8424 C   0  0  0  0  0  0  0  0  0  0  0  0
    8.3549  -14.8811   21.3217 C   0  0  2  0  0  0  0  0  0  0  0  0
    8.3228  -16.0758   20.5329 N   0  0  0  0  0  0  0  0  0  0  0  0
    8.0471  -15.2264   22.7292 C   0  0  0  0  0  0  0  0  0  0  0  0
    7.7776  -14.2720   23.5092 O   0  0  0  0  0  0  0  0  0  0  0  0
    6.7697  -18.6336   26.0775 C   0  0  0  0  0  0  0  0  0  0  0  0
    7.1668  -18.1385   24.7144 C   0  0  2  0  0  0  0  0  0  0  0  0
    8.0160  -19.1431   23.9710 C   0  0  0  0  0  0  0  0  0  0  0  0
    7.7460  -16.7556   24.6762 C   0  0  2  0  0  0  0  0  0  0  0  0
    8.0385  -16.5298   23.2308 N   0  0  0  0  0  0  0  0  0  0  0  0
    8.9626  -16.5498   25.4547 C   0  0  0  0  0  0  0  0  0  0  0  0
   10.0678  -16.9910   25.0317 O   0  0  0  0  0  0  0  0  0  0  0  0
    9.1420  -14.0338   29.1428 C   0  0  0  0  0  0  0  0  0  0  0  0
   10.1468  -14.1950   28.0347 C   0  0  2  0  0  0  0  0  0  0  0  0
    9.9260  -13.1157   26.9906 C   0  0  0  0  0  0  0  0  0  0  0  0
   10.1565  -15.5686   27.4434 C   0  0  2  0  0  0  0  0  0  0  0  0
    8.9651  -15.8681   26.6776 N   0  0  0  0  0  0  0  0  0  0  0  0
   10.3715  -16.5402   28.5439 C   0  0  0  0  0  0  0  0  0  0  0  0
    9.5116  -17.3467   28.9690 O   0  0  0  0  0  0  0  0  0  0  0  0
   11.6214  -16.5510   29.1430 O   0  0  0  0  0  0  0  0  0  0  0  0
  2  1  1  1
  2  3  1  0
  4  2  1  0
  4  5  1  0
  5  6  1  6
  7  8  2  0
  7  5  1  0
 10 12  1  0
 10  9  1  1
 11 10  1  0
 12 13  1  6
 13  7  1  0
 14 20  1  0
 14 12  1  0
 15 14  2  0
 17 19  1  0
 17 16  1  1
 18 17  1  0
 19 21  1  0
 19 20  1  1
 21 23  1  0
 22 21  2  0
M  END
$$$$
