CLS.pdb
     RDKit          3D

 21 20  0  0  1  0  0  0  0  0999 V2000
   16.2653  -12.0962  -13.8092 N   0  0  0  0  0  0  0  0  0  0  0  0
   17.0419  -10.9729  -13.3788 C   0  0  1  0  0  0  0  0  0  0  0  0
   17.7600  -10.3952  -14.5808 C   0  0  0  0  0  0  0  0  0  0  0  0
   19.2309  -11.4350  -14.8847 S   0  0  0  0  0  0  0  0  0  0  0  0
   16.1751   -9.9206  -12.7456 C   0  0  0  0  0  0  0  0  0  0  0  0
   15.0646   -9.6089  -13.2431 O   0  0  0  0  0  0  0  0  0  0  0  0
   13.6472   -6.9432   -9.2241 C   0  0  0  0  0  0  0  0  0  0  0  0
   15.1398   -6.8224   -9.0179 C   0  0  1  0  0  0  0  0  0  0  0  0
   15.4007   -6.5194   -7.5884 C   0  0  0  0  0  0  0  0  0  0  0  0
   15.8920   -7.9948   -9.5686 C   0  0  0  0  0  0  0  0  0  0  0  0
   15.8011   -8.1713  -11.0507 C   0  0  2  0  0  0  0  0  0  0  0  0
   16.5819   -9.2487  -11.5706 N   0  0  0  0  0  0  0  0  0  0  0  0
   16.3539   -6.9062  -11.6591 C   0  0  0  0  0  0  0  0  0  0  0  0
   17.5663   -6.5898  -11.5698 O   0  0  0  0  0  0  0  0  0  0  0  0
   13.9852   -4.7039  -14.1762 O   0  0  0  0  0  0  0  0  0  0  0  0
   15.3731   -4.5970  -14.3501 C   0  0  0  0  0  0  0  0  0  0  0  0
   16.0256   -4.8005  -12.9781 C   0  0  2  0  0  0  0  0  0  0  0  0
   15.5100   -6.0083  -12.3690 N   0  0  0  0  0  0  0  0  0  0  0  0
   15.8537   -3.6173  -12.1195 C   0  0  0  0  0  0  0  0  0  0  0  0
   16.5083   -2.4240  -12.3597 O   0  0  0  0  0  0  0  0  0  0  0  0
   15.0872   -3.6801  -11.1291 O   0  0  0  0  0  0  0  0  0  0  0  0
  2  5  1  0
  2  3  1  0
  2  1  1  6
  4  3  1  0
  5  6  2  0
  8  7  1  1
  8  9  1  0
  8 10  1  0
 11 10  1  1
 11 12  1  0
 11 13  1  0
 12  5  1  0
 13 18  1  0
 13 14  2  0
 16 15  1  0
 17 16  1  6
 18 17  1  0
 19 20  1  0
 19 17  1  0
 21 19  2  0
M  END
$$$$
