CLS.pdb
     RDKit          3D

 21 20  0  0  1  0  0  0  0  0999 V2000
   23.3225  -12.1087  -17.5561 N   0  0  0  0  0  0  0  0  0  0  0  0
   23.4139  -11.4152  -16.3068 C   0  0  1  0  0  0  0  0  0  0  0  0
   24.6909  -10.6007  -16.3005 C   0  0  0  0  0  0  0  0  0  0  0  0
   26.0655  -11.7511  -15.9480 S   0  0  0  0  0  0  0  0  0  0  0  0
   22.2301  -10.5132  -16.0954 C   0  0  0  0  0  0  0  0  0  0  0  0
   21.4971  -10.1688  -17.0556 O   0  0  0  0  0  0  0  0  0  0  0  0
   17.7651   -8.8607  -14.0328 C   0  0  0  0  0  0  0  0  0  0  0  0
   18.8700   -8.5463  -13.0503 C   0  0  1  0  0  0  0  0  0  0  0  0
   18.3134   -8.5954  -11.6750 C   0  0  0  0  0  0  0  0  0  0  0  0
   20.0920   -9.3831  -13.2736 C   0  0  0  0  0  0  0  0  0  0  0  0
   20.7306   -9.2329  -14.6173 C   0  0  2  0  0  0  0  0  0  0  0  0
   21.9044  -10.0239  -14.8102 N   0  0  0  0  0  0  0  0  0  0  0  0
   21.1620   -7.7907  -14.7186 C   0  0  0  0  0  0  0  0  0  0  0  0
   22.1235   -7.3272  -14.0564 O   0  0  0  0  0  0  0  0  0  0  0  0
   22.0727   -6.0126  -17.8188 O   0  0  0  0  0  0  0  0  0  0  0  0
   21.0337   -5.2342  -17.2874 C   0  0  0  0  0  0  0  0  0  0  0  0
   20.9577   -5.5321  -15.7857 C   0  0  2  0  0  0  0  0  0  0  0  0
   20.4856   -6.8853  -15.5819 N   0  0  0  0  0  0  0  0  0  0  0  0
   20.1362   -4.5352  -15.0801 C   0  0  0  0  0  0  0  0  0  0  0  0
   20.6864   -3.4539  -14.4181 O   0  0  0  0  0  0  0  0  0  0  0  0
   18.8884   -4.6590  -15.0712 O   0  0  0  0  0  0  0  0  0  0  0  0
  2  5  1  0
  2  3  1  0
  2  1  1  6
  4  3  1  0
  5  6  2  0
  8  7  1  6
  8  9  1  0
  8 10  1  0
 11 10  1  1
 11 12  1  0
 11 13  1  0
 12  5  1  0
 13 18  1  0
 13 14  2  0
 16 15  1  0
 17 16  1  6
 18 17  1  0
 19 20  1  0
 19 17  1  0
 21 19  2  0
M  END
$$$$
