CLS.pdb
     RDKit          3D

 21 20  0  0  1  0  0  0  0  0999 V2000
   24.9369  -25.1803  -15.0329 N   0  0  0  0  0  0  0  0  0  0  0  0
   25.6265  -23.9670  -14.7126 C   0  0  1  0  0  0  0  0  0  0  0  0
   26.1485  -23.3564  -15.9967 C   0  0  0  0  0  0  0  0  0  0  0  0
   27.6810  -24.2480  -16.4368 S   0  0  0  0  0  0  0  0  0  0  0  0
   24.7203  -22.9925  -14.0135 C   0  0  0  0  0  0  0  0  0  0  0  0
   23.4743  -23.1511  -14.0122 O   0  0  0  0  0  0  0  0  0  0  0  0
   26.3425  -20.1231   -9.4283 C   0  0  0  0  0  0  0  0  0  0  0  0
   25.4628  -20.9395  -10.3474 C   0  0  1  0  0  0  0  0  0  0  0  0
   24.3582  -21.5295   -9.5503 C   0  0  0  0  0  0  0  0  0  0  0  0
   25.0345  -20.1741  -11.5615 C   0  0  0  0  0  0  0  0  0  0  0  0
   24.3685  -20.9869  -12.6254 C   0  0  2  0  0  0  0  0  0  0  0  0
   25.2412  -21.8670  -13.3357 N   0  0  0  0  0  0  0  0  0  0  0  0
   23.8357  -20.0011  -13.6356 C   0  0  0  0  0  0  0  0  0  0  0  0
   22.9269  -19.1790  -13.3598 O   0  0  0  0  0  0  0  0  0  0  0  0
   24.1893  -18.1094  -18.0889 O   0  0  0  0  0  0  0  0  0  0  0  0
   24.7513  -18.9998  -17.1620 C   0  0  0  0  0  0  0  0  0  0  0  0
   23.7929  -19.0871  -15.9688 C   0  0  2  0  0  0  0  0  0  0  0  0
   24.3503  -19.9639  -14.9608 N   0  0  0  0  0  0  0  0  0  0  0  0
   22.4439  -19.4977  -16.3910 C   0  0  0  0  0  0  0  0  0  0  0  0
   21.4604  -18.5856  -16.7245 O   0  0  0  0  0  0  0  0  0  0  0  0
   22.1623  -20.7179  -16.4550 O   0  0  0  0  0  0  0  0  0  0  0  0
  2  5  1  0
  2  3  1  0
  2  1  1  6
  4  3  1  0
  5  6  2  0
  8  7  1  1
  8  9  1  0
  8 10  1  0
 11 10  1  1
 11 12  1  0
 11 13  1  0
 12  5  1  0
 13 18  1  0
 13 14  2  0
 16 15  1  0
 17 16  1  6
 18 17  1  0
 19 20  1  0
 19 17  1  0
 21 19  2  0
M  END
$$$$
