CLS.pdb
     RDKit          3D

 21 20  0  0  1  0  0  0  0  0999 V2000
   17.7828  -12.3621  -16.3568 N   0  0  0  0  0  0  0  0  0  0  0  0
   18.5133  -11.3186  -17.0107 C   0  0  1  0  0  0  0  0  0  0  0  0
   17.5239  -10.3397  -17.6083 C   0  0  0  0  0  0  0  0  0  0  0  0
   16.6172  -11.2223  -18.9260 S   0  0  0  0  0  0  0  0  0  0  0  0
   19.4232  -10.6048  -16.0503 C   0  0  0  0  0  0  0  0  0  0  0  0
   19.0562  -10.3499  -14.8764 O   0  0  0  0  0  0  0  0  0  0  0  0
   24.9842  -11.2612  -15.7034 C   0  0  0  0  0  0  0  0  0  0  0  0
   23.5350  -11.0560  -15.3254 C   0  0  1  0  0  0  0  0  0  0  0  0
   23.3631  -11.3983  -13.8913 C   0  0  0  0  0  0  0  0  0  0  0  0
   23.0235   -9.7059  -15.7243 C   0  0  0  0  0  0  0  0  0  0  0  0
   21.5576   -9.4935  -15.5193 C   0  0  2  0  0  0  0  0  0  0  0  0
   20.7202  -10.1981  -16.4374 N   0  0  0  0  0  0  0  0  0  0  0  0
   21.3096   -8.0235  -15.7513 C   0  0  0  0  0  0  0  0  0  0  0  0
   21.2444   -7.5249  -16.9023 O   0  0  0  0  0  0  0  0  0  0  0  0
   20.0739   -3.7541  -13.8131 O   0  0  0  0  0  0  0  0  0  0  0  0
   20.2425   -5.1295  -13.5949 C   0  0  0  0  0  0  0  0  0  0  0  0
   20.8730   -5.7221  -14.8602 C   0  0  2  0  0  0  0  0  0  0  0  0
   21.1371   -7.1309  -14.6577 N   0  0  0  0  0  0  0  0  0  0  0  0
   22.0751   -4.9744  -15.2633 C   0  0  0  0  0  0  0  0  0  0  0  0
   22.0410   -3.9677  -16.2097 O   0  0  0  0  0  0  0  0  0  0  0  0
   23.1789   -5.2506  -14.7363 O   0  0  0  0  0  0  0  0  0  0  0  0
  2  5  1  0
  2  3  1  0
  2  1  1  1
  4  3  1  0
  5  6  2  0
  8  7  1  1
  8  9  1  0
  8 10  1  0
 11 10  1  6
 11 12  1  0
 11 13  1  0
 12  5  1  0
 13 18  1  0
 13 14  2  0
 16 15  1  0
 17 16  1  1
 18 17  1  0
 19 20  1  0
 19 17  1  0
 21 19  2  0
M  END
$$$$
