VLL.pdb
     RDKit          3D

 24 23  0  0  1  0  0  0  0  0999 V2000
    9.9880  -18.9119   21.9400 C   0  0  0  0  0  0  0  0  0  0  0  0
    8.6684  -18.4322   21.3882 C   0  0  2  0  0  0  0  0  0  0  0  0
    8.3612  -19.2327   20.1377 C   0  0  0  0  0  0  0  0  0  0  0  0
    8.7629  -16.9724   20.9829 C   0  0  2  0  0  0  0  0  0  0  0  0
    9.8005  -16.8649   19.9794 N   0  0  0  0  0  0  0  0  0  0  0  0
    9.0546  -16.0802   22.1126 C   0  0  0  0  0  0  0  0  0  0  0  0
   10.2339  -15.7553   22.3645 O   0  0  0  0  0  0  0  0  0  0  0  0
    6.0091  -11.9759   25.4417 C   0  0  0  0  0  0  0  0  0  0  0  0
    7.2784  -12.8611   25.5101 C   0  0  1  0  0  0  0  0  0  0  0  0
    7.1732  -13.5409   26.8698 C   0  0  0  0  0  0  0  0  0  0  0  0
    7.1633  -13.8087   24.3775 C   0  0  0  0  0  0  0  0  0  0  0  0
    8.3101  -14.7012   24.0837 C   0  0  2  0  0  0  0  0  0  0  0  0
    8.0534  -15.5412   22.9702 N   0  0  0  0  0  0  0  0  0  0  0  0
    8.8527  -15.4004   25.2634 C   0  0  0  0  0  0  0  0  0  0  0  0
    8.2145  -16.2367   25.9544 O   0  0  0  0  0  0  0  0  0  0  0  0
   10.9816  -13.2168   28.1254 C   0  0  0  0  0  0  0  0  0  0  0  0
    9.9446  -14.2900   28.4564 C   0  0  2  0  0  0  0  0  0  0  0  0
    9.5903  -14.1738   29.9140 C   0  0  0  0  0  0  0  0  0  0  0  0
   10.4683  -15.6571   28.1257 C   0  0  0  0  0  0  0  0  0  0  0  0
   10.8665  -15.8806   26.7193 C   0  0  2  0  0  0  0  0  0  0  0  0
   10.1995  -15.1503   25.7033 N   0  0  0  0  0  0  0  0  0  0  0  0
   10.8800  -17.3493   26.4701 C   0  0  0  0  0  0  0  0  0  0  0  0
   11.9186  -17.9996   25.8343 O   0  0  0  0  0  0  0  0  0  0  0  0
    9.8988  -18.0259   26.8576 O   0  0  0  0  0  0  0  0  0  0  0  0
  2  1  1  6
  3  2  1  0
  4  6  1  0
  4  2  1  0
  4  5  1  6
  6  7  2  0
  9  8  1  6
  9 11  1  0
  9 10  1  0
 12 11  1  1
 13 12  1  0
 13  6  1  0
 14 12  1  0
 14 15  2  0
 17 16  1  1
 17 19  1  0
 18 17  1  0
 20 19  1  1
 20 21  1  0
 20 22  1  0
 21 14  1  0
 22 24  2  0
 22 23  1  0
M  END
$$$$
