VLL.pdb
     RDKit          3D

 24 23  0  0  1  0  0  0  0  0999 V2000
   13.0168  -20.4045   20.4826 C   0  0  0  0  0  0  0  0  0  0  0  0
   12.5190  -19.2355   21.2960 C   0  0  2  0  0  0  0  0  0  0  0  0
   11.3845  -19.7224   22.1761 C   0  0  0  0  0  0  0  0  0  0  0  0
   11.9592  -18.1571   20.3861 C   0  0  2  0  0  0  0  0  0  0  0  0
   13.0432  -17.6854   19.5510 N   0  0  0  0  0  0  0  0  0  0  0  0
   11.3614  -17.0363   21.1236 C   0  0  0  0  0  0  0  0  0  0  0  0
   12.0902  -16.2491   21.7632 O   0  0  0  0  0  0  0  0  0  0  0  0
    8.3764  -12.9359   22.0756 C   0  0  0  0  0  0  0  0  0  0  0  0
    7.4316  -14.1609   22.1528 C   0  0  1  0  0  0  0  0  0  0  0  0
    6.1646  -13.6861   21.4518 C   0  0  0  0  0  0  0  0  0  0  0  0
    8.1269  -15.2456   21.4220 C   0  0  0  0  0  0  0  0  0  0  0  0
    9.3371  -15.8459   22.0326 C   0  0  2  0  0  0  0  0  0  0  0  0
    9.9620  -16.7751   21.1621 N   0  0  0  0  0  0  0  0  0  0  0  0
    9.1426  -16.3357   23.4101 C   0  0  0  0  0  0  0  0  0  0  0  0
    8.9508  -17.5405   23.7195 O   0  0  0  0  0  0  0  0  0  0  0  0
   10.8408  -14.0501   27.8918 C   0  0  0  0  0  0  0  0  0  0  0  0
    9.7246  -13.6336   26.9339 C   0  0  2  0  0  0  0  0  0  0  0  0
    9.1518  -12.3271   27.4124 C   0  0  0  0  0  0  0  0  0  0  0  0
    8.6696  -14.6979   26.8500 C   0  0  0  0  0  0  0  0  0  0  0  0
    8.9082  -15.7767   25.8674 C   0  0  2  0  0  0  0  0  0  0  0  0
    9.1634  -15.4194   24.5191 N   0  0  0  0  0  0  0  0  0  0  0  0
    7.8170  -16.7810   26.0089 C   0  0  0  0  0  0  0  0  0  0  0  0
    6.7756  -16.8990   25.1103 O   0  0  0  0  0  0  0  0  0  0  0  0
    7.8480  -17.5561   26.9933 O   0  0  0  0  0  0  0  0  0  0  0  0
  2  1  1  6
  3  2  1  0
  4  6  1  0
  4  2  1  0
  4  5  1  1
  6  7  2  0
  9  8  1  6
  9 11  1  0
  9 10  1  0
 12 11  1  6
 13 12  1  0
 13  6  1  0
 14 12  1  0
 14 15  2  0
 17 16  1  1
 17 19  1  0
 18 17  1  0
 20 19  1  1
 20 21  1  0
 20 22  1  0
 21 14  1  0
 22 24  2  0
 22 23  1  0
M  END
$$$$
