VLL.pdb
     RDKit          3D

 24 23  0  0  1  0  0  0  0  0999 V2000
    6.9671  -15.9668   20.0737 C   0  0  0  0  0  0  0  0  0  0  0  0
    8.1481  -16.9055   20.0704 C   0  0  2  0  0  0  0  0  0  0  0  0
    7.7206  -18.1989   19.4047 C   0  0  0  0  0  0  0  0  0  0  0  0
    8.5629  -17.2400   21.4917 C   0  0  2  0  0  0  0  0  0  0  0  0
    7.4552  -17.9297   22.1183 N   0  0  0  0  0  0  0  0  0  0  0  0
    8.9325  -16.0547   22.2765 C   0  0  0  0  0  0  0  0  0  0  0  0
   10.0010  -15.4542   22.0367 O   0  0  0  0  0  0  0  0  0  0  0  0
    6.0854  -12.0515   25.9317 C   0  0  0  0  0  0  0  0  0  0  0  0
    7.5020  -12.5023   25.4966 C   0  0  1  0  0  0  0  0  0  0  0  0
    8.2147  -12.7798   26.8146 C   0  0  0  0  0  0  0  0  0  0  0  0
    7.2975  -13.7212   24.6801 C   0  0  0  0  0  0  0  0  0  0  0  0
    8.4892  -14.4146   24.1352 C   0  0  2  0  0  0  0  0  0  0  0  0
    8.1310  -15.5238   23.3273 N   0  0  0  0  0  0  0  0  0  0  0  0
    9.5351  -14.7003   25.1350 C   0  0  0  0  0  0  0  0  0  0  0  0
   10.2340  -13.8243   25.7080 O   0  0  0  0  0  0  0  0  0  0  0  0
   11.1011  -13.8854   28.1896 C   0  0  0  0  0  0  0  0  0  0  0  0
    9.8616  -14.7671   28.3412 C   0  0  2  0  0  0  0  0  0  0  0  0
    9.3671  -14.6508   29.7575 C   0  0  0  0  0  0  0  0  0  0  0  0
   10.1734  -16.1910   27.9835 C   0  0  0  0  0  0  0  0  0  0  0  0
   10.6577  -16.4266   26.6065 C   0  0  2  0  0  0  0  0  0  0  0  0
    9.8219  -16.0558   25.5227 N   0  0  0  0  0  0  0  0  0  0  0  0
   11.1372  -17.8344   26.5192 C   0  0  0  0  0  0  0  0  0  0  0  0
   12.4613  -18.1722   26.3228 O   0  0  0  0  0  0  0  0  0  0  0  0
   10.2951  -18.7560   26.6299 O   0  0  0  0  0  0  0  0  0  0  0  0
  2  1  1  1
  3  2  1  0
  4  6  1  0
  4  2  1  0
  4  5  1  1
  6  7  2  0
  9  8  1  1
  9 11  1  0
  9 10  1  0
 12 11  1  1
 13 12  1  0
 13  6  1  0
 14 12  1  0
 14 15  2  0
 17 16  1  1
 17 19  1  0
 18 17  1  0
 20 19  1  1
 20 21  1  0
 20 22  1  0
 21 14  1  0
 22 24  2  0
 22 23  1  0
M  END
$$$$
