VLL.pdb
     RDKit          3D

 24 23  0  0  1  0  0  0  0  0999 V2000
    7.5833  -12.6519   18.7520 C   0  0  0  0  0  0  0  0  0  0  0  0
    7.6841  -13.4348   20.0376 C   0  0  2  0  0  0  0  0  0  0  0  0
    8.4862  -12.6136   21.0281 C   0  0  0  0  0  0  0  0  0  0  0  0
    8.4353  -14.7339   19.8090 C   0  0  2  0  0  0  0  0  0  0  0  0
    7.7473  -15.4568   18.7606 N   0  0  0  0  0  0  0  0  0  0  0  0
    8.5316  -15.5624   21.0181 C   0  0  0  0  0  0  0  0  0  0  0  0
    7.5044  -16.0797   21.5050 O   0  0  0  0  0  0  0  0  0  0  0  0
   11.9981  -19.5848   22.0589 C   0  0  0  0  0  0  0  0  0  0  0  0
   10.7308  -18.7069   21.9089 C   0  0  1  0  0  0  0  0  0  0  0  0
    9.5933  -19.6427   22.2996 C   0  0  0  0  0  0  0  0  0  0  0  0
   10.9105  -17.5845   22.8586 C   0  0  0  0  0  0  0  0  0  0  0  0
    9.8635  -16.5366   22.9202 C   0  0  2  0  0  0  0  0  0  0  0  0
    9.7551  -15.8263   21.6974 N   0  0  0  0  0  0  0  0  0  0  0  0
    9.9315  -15.6806   24.1193 C   0  0  0  0  0  0  0  0  0  0  0  0
   10.8746  -14.8889   24.3793 O   0  0  0  0  0  0  0  0  0  0  0  0
    7.9677  -12.0777   25.8967 C   0  0  0  0  0  0  0  0  0  0  0  0
    7.0584  -13.3063   25.9211 C   0  0  2  0  0  0  0  0  0  0  0  0
    5.6970  -12.8793   26.3986 C   0  0  0  0  0  0  0  0  0  0  0  0
    7.6360  -14.3795   26.7969 C   0  0  0  0  0  0  0  0  0  0  0  0
    8.8915  -15.0016   26.3245 C   0  0  2  0  0  0  0  0  0  0  0  0
    8.8753  -15.7091   25.0958 N   0  0  0  0  0  0  0  0  0  0  0  0
    9.4662  -15.7941   27.4474 C   0  0  0  0  0  0  0  0  0  0  0  0
    9.8953  -15.2283   28.6314 O   0  0  0  0  0  0  0  0  0  0  0  0
    9.5641  -17.0358   27.3081 O   0  0  0  0  0  0  0  0  0  0  0  0
  2  1  1  6
  3  2  1  0
  4  6  1  0
  4  2  1  0
  4  5  1  6
  6  7  2  0
  9  8  1  1
  9 11  1  0
  9 10  1  0
 12 11  1  6
 13 12  1  0
 13  6  1  0
 14 12  1  0
 14 15  2  0
 17 16  1  1
 17 19  1  0
 18 17  1  0
 20 19  1  1
 20 21  1  0
 20 22  1  0
 21 14  1  0
 22 24  2  0
 22 23  1  0
M  END
$$$$
