VLL.pdb
     RDKit          3D

 24 23  0  0  1  0  0  0  0  0999 V2000
    9.0177  -19.9206   20.6329 C   0  0  0  0  0  0  0  0  0  0  0  0
    9.3764  -18.8287   21.6102 C   0  0  2  0  0  0  0  0  0  0  0  0
    8.8902  -19.2471   22.9840 C   0  0  0  0  0  0  0  0  0  0  0  0
    8.6636  -17.5385   21.2480 C   0  0  2  0  0  0  0  0  0  0  0  0
    9.0441  -17.1953   19.8943 N   0  0  0  0  0  0  0  0  0  0  0  0
    8.9797  -16.4317   22.1605 C   0  0  0  0  0  0  0  0  0  0  0  0
   10.0979  -15.8778   22.1079 O   0  0  0  0  0  0  0  0  0  0  0  0
    7.6841  -12.1322   25.1972 C   0  0  0  0  0  0  0  0  0  0  0  0
    7.3206  -13.4684   25.8912 C   0  0  1  0  0  0  0  0  0  0  0  0
    6.0154  -13.1581   26.6139 C   0  0  0  0  0  0  0  0  0  0  0  0
    7.1575  -14.4530   24.7967 C   0  0  0  0  0  0  0  0  0  0  0  0
    8.3635  -14.8883   24.0524 C   0  0  2  0  0  0  0  0  0  0  0  0
    8.0702  -15.9285   23.1340 N   0  0  0  0  0  0  0  0  0  0  0  0
    9.5432  -15.1385   24.9014 C   0  0  0  0  0  0  0  0  0  0  0  0
   10.6065  -14.4663   24.8631 O   0  0  0  0  0  0  0  0  0  0  0  0
   10.2502  -13.2237   27.9926 C   0  0  0  0  0  0  0  0  0  0  0  0
   10.0691  -14.7024   28.3353 C   0  0  2  0  0  0  0  0  0  0  0  0
   10.1237  -14.8527   29.8314 C   0  0  0  0  0  0  0  0  0  0  0  0
   11.1176  -15.5380   27.6608 C   0  0  0  0  0  0  0  0  0  0  0  0
   10.6271  -16.5502   26.7009 C   0  0  2  0  0  0  0  0  0  0  0  0
    9.5372  -16.2121   25.8593 N   0  0  0  0  0  0  0  0  0  0  0  0
   10.4201  -17.8269   27.4402 C   0  0  0  0  0  0  0  0  0  0  0  0
    9.2691  -18.5824   27.3385 O   0  0  0  0  0  0  0  0  0  0  0  0
   11.3376  -18.2332   28.1911 O   0  0  0  0  0  0  0  0  0  0  0  0
  2  1  1  6
  3  2  1  0
  4  6  1  0
  4  2  1  0
  4  5  1  6
  6  7  2  0
  9  8  1  6
  9 11  1  0
  9 10  1  0
 12 11  1  1
 13 12  1  0
 13  6  1  0
 14 12  1  0
 14 15  2  0
 17 16  1  1
 17 19  1  0
 18 17  1  0
 20 19  1  1
 20 21  1  0
 20 22  1  0
 21 14  1  0
 22 24  2  0
 22 23  1  0
M  END
$$$$
