VLL.pdb
     RDKit          3D

 24 23  0  0  1  0  0  0  0  0999 V2000
   12.8171  -19.0561   21.8143 C   0  0  0  0  0  0  0  0  0  0  0  0
   11.8103  -19.0082   20.6918 C   0  0  2  0  0  0  0  0  0  0  0  0
   12.3289  -19.8687   19.5562 C   0  0  0  0  0  0  0  0  0  0  0  0
   11.6725  -17.5917   20.1639 C   0  0  2  0  0  0  0  0  0  0  0  0
   12.9758  -17.1729   19.6938 N   0  0  0  0  0  0  0  0  0  0  0  0
   11.1692  -16.6493   21.1718 C   0  0  0  0  0  0  0  0  0  0  0  0
   11.9704  -16.0113   21.8865 O   0  0  0  0  0  0  0  0  0  0  0  0
    6.0551  -14.1998   21.1176 C   0  0  0  0  0  0  0  0  0  0  0  0
    7.5908  -14.4019   21.1304 C   0  0  1  0  0  0  0  0  0  0  0  0
    8.1407  -12.9898   21.2912 C   0  0  0  0  0  0  0  0  0  0  0  0
    7.8676  -15.2686   22.2993 C   0  0  0  0  0  0  0  0  0  0  0  0
    9.2600  -15.7232   22.5277 C   0  0  2  0  0  0  0  0  0  0  0  0
    9.7850  -16.4034   21.3994 N   0  0  0  0  0  0  0  0  0  0  0  0
    9.4683  -16.4192   23.8112 C   0  0  0  0  0  0  0  0  0  0  0  0
    9.6705  -17.6558   23.9288 O   0  0  0  0  0  0  0  0  0  0  0  0
   10.8233  -13.7752   28.7903 C   0  0  0  0  0  0  0  0  0  0  0  0
   10.1978  -14.1158   27.4378 C   0  0  2  0  0  0  0  0  0  0  0  0
    9.3324  -12.9613   27.0112 C   0  0  0  0  0  0  0  0  0  0  0  0
    9.4105  -15.3910   27.5207 C   0  0  0  0  0  0  0  0  0  0  0  0
    9.4762  -16.2762   26.3381 C   0  0  2  0  0  0  0  0  0  0  0  0
    9.4501  -15.6861   25.0491 N   0  0  0  0  0  0  0  0  0  0  0  0
    8.4601  -17.3522   26.5087 C   0  0  0  0  0  0  0  0  0  0  0  0
    8.5683  -18.3526   27.4539 O   0  0  0  0  0  0  0  0  0  0  0  0
    7.4582  -17.3470   25.7556 O   0  0  0  0  0  0  0  0  0  0  0  0
  2  1  1  1
  3  2  1  0
  4  6  1  0
  4  2  1  0
  4  5  1  1
  6  7  2  0
  9  8  1  1
  9 11  1  0
  9 10  1  0
 12 11  1  6
 13 12  1  0
 13  6  1  0
 14 12  1  0
 14 15  2  0
 17 16  1  1
 17 19  1  0
 18 17  1  0
 20 19  1  1
 20 21  1  0
 20 22  1  0
 21 14  1  0
 22 24  2  0
 22 23  1  0
M  END
$$$$
