VLL.pdb
     RDKit          3D

 24 23  0  0  1  0  0  0  0  0999 V2000
    7.5224  -19.5805   24.3121 C   0  0  0  0  0  0  0  0  0  0  0  0
    6.3686  -18.9500   23.5725 C   0  0  2  0  0  0  0  0  0  0  0  0
    5.2584  -19.9772   23.4668 C   0  0  0  0  0  0  0  0  0  0  0  0
    6.7834  -18.5806   22.1598 C   0  0  2  0  0  0  0  0  0  0  0  0
    7.2407  -19.7901   21.5093 N   0  0  0  0  0  0  0  0  0  0  0  0
    7.8331  -17.5540   22.1191 C   0  0  0  0  0  0  0  0  0  0  0  0
    9.0360  -17.8899   22.1066 O   0  0  0  0  0  0  0  0  0  0  0  0
    6.9703  -12.5785   19.8192 C   0  0  0  0  0  0  0  0  0  0  0  0
    7.5449  -13.9844   20.1236 C   0  0  1  0  0  0  0  0  0  0  0  0
    8.6055  -14.1830   19.0476 C   0  0  0  0  0  0  0  0  0  0  0  0
    8.1131  -13.8943   21.4885 C   0  0  0  0  0  0  0  0  0  0  0  0
    8.5585  -15.1428   22.1522 C   0  0  2  0  0  0  0  0  0  0  0  0
    7.5671  -16.1552   22.0919 N   0  0  0  0  0  0  0  0  0  0  0  0
    9.1457  -14.9427   23.4902 C   0  0  0  0  0  0  0  0  0  0  0  0
   10.2727  -14.4255   23.7056 O   0  0  0  0  0  0  0  0  0  0  0  0
    8.4454  -11.8198   26.2415 C   0  0  0  0  0  0  0  0  0  0  0  0
    7.4124  -12.9435   26.1575 C   0  0  2  0  0  0  0  0  0  0  0  0
    6.1388  -12.4659   26.8007 C   0  0  0  0  0  0  0  0  0  0  0  0
    7.9264  -14.1903   26.8162 C   0  0  0  0  0  0  0  0  0  0  0  0
    8.8172  -15.0407   25.9978 C   0  0  2  0  0  0  0  0  0  0  0  0
    8.4272  -15.3468   24.6694 N   0  0  0  0  0  0  0  0  0  0  0  0
    9.1665  -16.2484   26.7971 C   0  0  0  0  0  0  0  0  0  0  0  0
    9.7462  -16.1862   28.0485 O   0  0  0  0  0  0  0  0  0  0  0  0
    8.9211  -17.3755   26.3071 O   0  0  0  0  0  0  0  0  0  0  0  0
  2  1  1  1
  3  2  1  0
  4  6  1  0
  4  2  1  0
  4  5  1  1
  6  7  2  0
  9  8  1  6
  9 11  1  0
  9 10  1  0
 12 11  1  1
 13 12  1  0
 13  6  1  0
 14 12  1  0
 14 15  2  0
 17 16  1  1
 17 19  1  0
 18 17  1  0
 20 19  1  1
 20 21  1  0
 20 22  1  0
 21 14  1  0
 22 24  2  0
 22 23  1  0
M  END
$$$$
