VLL.pdb
     RDKit          3D

 24 23  0  0  1  0  0  0  0  0999 V2000
    9.7990  -21.3639   19.7148 C   0  0  0  0  0  0  0  0  0  0  0  0
    9.9896  -19.8677   19.7469 C   0  0  2  0  0  0  0  0  0  0  0  0
   11.4401  -19.5700   19.4212 C   0  0  0  0  0  0  0  0  0  0  0  0
    9.7154  -19.3286   21.1392 C   0  0  2  0  0  0  0  0  0  0  0  0
    8.3573  -19.6889   21.4867 N   0  0  0  0  0  0  0  0  0  0  0  0
    9.8961  -17.8742   21.2381 C   0  0  0  0  0  0  0  0  0  0  0  0
   11.0235  -17.3701   21.0520 O   0  0  0  0  0  0  0  0  0  0  0  0
    8.8466  -12.9973   19.7390 C   0  0  0  0  0  0  0  0  0  0  0  0
    7.9795  -13.3397   20.9761 C   0  0  1  0  0  0  0  0  0  0  0  0
    6.6390  -12.6819   20.6723 C   0  0  0  0  0  0  0  0  0  0  0  0
    7.9049  -14.8186   21.0118 C   0  0  0  0  0  0  0  0  0  0  0  0
    8.9958  -15.5651   21.6832 C   0  0  2  0  0  0  0  0  0  0  0  0
    8.8405  -16.9677   21.5416 N   0  0  0  0  0  0  0  0  0  0  0  0
    9.2788  -15.1184   23.0600 C   0  0  0  0  0  0  0  0  0  0  0  0
   10.2560  -14.3973   23.3904 O   0  0  0  0  0  0  0  0  0  0  0  0
    8.1269  -12.1122   26.3330 C   0  0  0  0  0  0  0  0  0  0  0  0
    7.0789  -13.0982   25.8171 C   0  0  2  0  0  0  0  0  0  0  0  0
    5.7380  -12.6975   26.3698 C   0  0  0  0  0  0  0  0  0  0  0  0
    7.4342  -14.5043   26.2033 C   0  0  0  0  0  0  0  0  0  0  0  0
    8.5840  -15.1049   25.4936 C   0  0  2  0  0  0  0  0  0  0  0  0
    8.4130  -15.5018   24.1431 N   0  0  0  0  0  0  0  0  0  0  0  0
    9.1455  -16.1845   26.3531 C   0  0  0  0  0  0  0  0  0  0  0  0
    9.5968  -15.9697   27.6400 O   0  0  0  0  0  0  0  0  0  0  0  0
    9.2105  -17.3442   25.8824 O   0  0  0  0  0  0  0  0  0  0  0  0
  2  1  1  1
  3  2  1  0
  4  6  1  0
  4  2  1  0
  4  5  1  6
  6  7  2  0
  9  8  1  6
  9 11  1  0
  9 10  1  0
 12 11  1  1
 13 12  1  0
 13  6  1  0
 14 12  1  0
 14 15  2  0
 17 16  1  1
 17 19  1  0
 18 17  1  0
 20 19  1  1
 20 21  1  0
 20 22  1  0
 21 14  1  0
 22 24  2  0
 22 23  1  0
M  END
$$$$
