VLL.pdb
     RDKit          3D

 24 23  0  0  1  0  0  0  0  0999 V2000
   11.6701  -21.0418   21.1463 C   0  0  0  0  0  0  0  0  0  0  0  0
   11.4347  -19.6199   21.5922 C   0  0  2  0  0  0  0  0  0  0  0  0
   10.2667  -19.6161   22.5590 C   0  0  0  0  0  0  0  0  0  0  0  0
   11.0494  -18.7507   20.4089 C   0  0  2  0  0  0  0  0  0  0  0  0
   12.1457  -18.7890   19.4645 N   0  0  0  0  0  0  0  0  0  0  0  0
   10.7537  -17.3627   20.7876 C   0  0  0  0  0  0  0  0  0  0  0  0
   11.6654  -16.6229   21.2135 O   0  0  0  0  0  0  0  0  0  0  0  0
    8.6633  -12.7234   19.9871 C   0  0  0  0  0  0  0  0  0  0  0  0
    7.5878  -13.5180   20.7690 C   0  0  1  0  0  0  0  0  0  0  0  0
    6.2781  -13.0961   20.1141 C   0  0  0  0  0  0  0  0  0  0  0  0
    7.9119  -14.9466   20.5499 C   0  0  0  0  0  0  0  0  0  0  0  0
    9.1027  -15.5129   21.2276 C   0  0  2  0  0  0  0  0  0  0  0  0
    9.4566  -16.7812   20.7006 N   0  0  0  0  0  0  0  0  0  0  0  0
    9.0461  -15.4582   22.7003 C   0  0  0  0  0  0  0  0  0  0  0  0
    9.9839  -15.8049   23.4647 O   0  0  0  0  0  0  0  0  0  0  0  0
    5.6530  -12.2109   26.8400 C   0  0  0  0  0  0  0  0  0  0  0  0
    6.9184  -12.9992   26.5021 C   0  0  2  0  0  0  0  0  0  0  0  0
    8.1114  -12.1336   26.8042 C   0  0  0  0  0  0  0  0  0  0  0  0
    6.9064  -13.4364   25.0663 C   0  0  0  0  0  0  0  0  0  0  0  0
    7.8140  -14.5499   24.7159 C   0  0  2  0  0  0  0  0  0  0  0  0
    7.8625  -14.9842   23.3670 N   0  0  0  0  0  0  0  0  0  0  0  0
    7.5762  -15.6612   25.6792 C   0  0  0  0  0  0  0  0  0  0  0  0
    7.1015  -16.9014   25.3018 O   0  0  0  0  0  0  0  0  0  0  0  0
    7.8199  -15.4578   26.8916 O   0  0  0  0  0  0  0  0  0  0  0  0
  2  1  1  6
  3  2  1  0
  4  6  1  0
  4  2  1  0
  4  5  1  6
  6  7  2  0
  9  8  1  6
  9 11  1  0
  9 10  1  0
 12 11  1  6
 13 12  1  0
 13  6  1  0
 14 12  1  0
 14 15  2  0
 17 16  1  6
 17 19  1  0
 18 17  1  0
 20 19  1  6
 20 21  1  0
 20 22  1  0
 21 14  1  0
 22 24  2  0
 22 23  1  0
M  END
$$$$
