VLL.pdb
     RDKit          3D

 24 23  0  0  1  0  0  0  0  0999 V2000
    8.0409  -18.4258   20.0373 C   0  0  0  0  0  0  0  0  0  0  0  0
    8.4269  -17.7646   21.3373 C   0  0  2  0  0  0  0  0  0  0  0  0
    7.4745  -18.2484   22.4133 C   0  0  0  0  0  0  0  0  0  0  0  0
    8.2691  -16.2585   21.2329 C   0  0  2  0  0  0  0  0  0  0  0  0
    9.1680  -15.7968   20.1966 N   0  0  0  0  0  0  0  0  0  0  0  0
    8.5495  -15.5625   22.4956 C   0  0  0  0  0  0  0  0  0  0  0  0
    9.7248  -15.4604   22.9057 O   0  0  0  0  0  0  0  0  0  0  0  0
    7.7302  -11.7082   26.2282 C   0  0  0  0  0  0  0  0  0  0  0  0
    6.7381  -12.8913   26.3529 C   0  0  1  0  0  0  0  0  0  0  0  0
    5.4301  -12.2257   26.7630 C   0  0  0  0  0  0  0  0  0  0  0  0
    6.6795  -13.5042   25.0057 C   0  0  0  0  0  0  0  0  0  0  0  0
    7.7631  -14.4329   24.6043 C   0  0  2  0  0  0  0  0  0  0  0  0
    7.5416  -14.9758   23.3129 N   0  0  0  0  0  0  0  0  0  0  0  0
    8.1207  -15.4286   25.6318 C   0  0  0  0  0  0  0  0  0  0  0  0
    7.3895  -16.3931   25.9770 O   0  0  0  0  0  0  0  0  0  0  0  0
   13.1321  -17.1598   25.1500 C   0  0  0  0  0  0  0  0  0  0  0  0
   12.1090  -16.2618   25.8454 C   0  0  2  0  0  0  0  0  0  0  0  0
   12.8501  -15.2865   26.7191 C   0  0  0  0  0  0  0  0  0  0  0  0
   11.1344  -17.0808   26.6406 C   0  0  0  0  0  0  0  0  0  0  0  0
    9.9315  -16.3721   27.1274 C   0  0  2  0  0  0  0  0  0  0  0  0
    9.3802  -15.3434   26.3221 N   0  0  0  0  0  0  0  0  0  0  0  0
   10.1839  -15.9428   28.5315 C   0  0  0  0  0  0  0  0  0  0  0  0
   10.5891  -16.8096   29.5267 O   0  0  0  0  0  0  0  0  0  0  0  0
   10.0197  -14.7346   28.8212 O   0  0  0  0  0  0  0  0  0  0  0  0
  2  1  1  6
  3  2  1  0
  4  6  1  0
  4  2  1  0
  4  5  1  6
  6  7  2  0
  9  8  1  6
  9 11  1  0
  9 10  1  0
 12 11  1  1
 13 12  1  0
 13  6  1  0
 14 12  1  0
 14 15  2  0
 17 16  1  1
 17 19  1  0
 18 17  1  0
 20 19  1  6
 20 21  1  0
 20 22  1  0
 21 14  1  0
 22 24  2  0
 22 23  1  0
M  END
$$$$
