WIN.pdb
     RDKit          3D

 31 32  0  0  1  0  0  0  0  0999 V2000
   19.0679  -14.8823    4.4219 N   0  0  0  0  0  0  0  0  0  0  0  0
   18.3926  -15.3976    5.5661 C   0  0  1  0  0  0  0  0  0  0  0  0
   17.1228  -16.0572    5.0629 C   0  0  0  0  0  0  0  0  0  0  0  0
   16.2090  -15.1346    4.3674 C   0  0  0  0  0  0  0  0  0  0  0  0
   15.0148  -14.6212    4.8248 C   0  0  0  0  0  0  0  0  0  0  0  0
   14.4850  -13.7971    3.8885 N   0  0  0  0  0  0  0  0  0  0  0  0
   15.3158  -13.7546    2.8086 C   0  0  0  0  0  0  0  0  0  0  0  0
   15.2399  -13.0780    1.6136 C   0  0  0  0  0  0  0  0  0  0  0  0
   16.2299  -13.2029    0.6645 C   0  0  0  0  0  0  0  0  0  0  0  0
   17.2834  -14.0311    0.9731 C   0  0  0  0  0  0  0  0  0  0  0  0
   17.3768  -14.7104    2.1519 C   0  0  0  0  0  0  0  0  0  0  0  0
   16.3714  -14.5819    3.1161 C   0  0  0  0  0  0  0  0  0  0  0  0
   19.1882  -16.4531    6.2960 C   0  0  0  0  0  0  0  0  0  0  0  0
   19.5831  -17.4863    5.7106 O   0  0  0  0  0  0  0  0  0  0  0  0
   21.5530  -14.2916   10.5621 C   0  0  0  0  0  0  0  0  0  0  0  0
   21.7421  -15.3018    9.4210 C   0  0  0  0  0  0  0  0  0  0  0  0
   20.9143  -16.4990    9.6990 C   0  0  2  0  0  0  0  0  0  0  0  0
   21.7334  -17.4929   10.4929 C   0  0  0  0  0  0  0  0  0  0  0  0
   20.2587  -17.1352    8.5030 C   0  0  2  0  0  0  0  0  0  0  0  0
   19.5088  -16.2909    7.6691 N   0  0  0  0  0  0  0  0  0  0  0  0
   19.7151  -18.4445    8.8848 C   0  0  0  0  0  0  0  0  0  0  0  0
   18.4347  -18.5220    8.7394 O   0  0  0  0  0  0  0  0  0  0  0  0
   18.4378  -23.4729    9.6388 N   0  0  0  0  0  0  0  0  0  0  0  0
   18.4686  -22.7301    8.4233 C   0  0  0  0  0  0  0  0  0  0  0  0
   17.9023  -23.2445    7.4026 O   0  0  0  0  0  0  0  0  0  0  0  0
   19.1081  -21.4268    8.2891 C   0  0  0  0  0  0  0  0  0  0  0  0
   19.6998  -20.8668    9.5758 C   0  0  2  0  0  0  0  0  0  0  0  0
   20.3640  -19.5814    9.3698 N   0  0  0  0  0  0  0  0  0  0  0  0
   20.5902  -21.8915   10.1176 C   0  0  0  0  0  0  0  0  0  0  0  0
   20.1494  -23.0934   10.6226 O   0  0  0  0  0  0  0  0  0  0  0  0
   21.8706  -21.7211   10.1508 O   0  0  0  0  0  0  0  0  0  0  0  0
  2 13  1  0
  2  1  1  6
  2  3  1  0
  4  3  1  0
  4  5  2  0
  6  5  1  0
  7  6  1  0
  8  7  2  0
  9  8  1  0
 10  9  2  0
 10 11  1  0
 11 12  2  0
 12  7  1  0
 12  4  1  0
 13 14  2  0
 16 15  1  0
 17 16  1  0
 17 18  1  6
 19 17  1  0
 19 20  1  1
 20 13  1  0
 21 19  1  0
 22 21  2  0
 24 23  1  0
 24 26  1  0
 25 24  2  0
 27 26  1  6
 27 28  1  0
 28 21  1  0
 29 30  1  0
 29 27  1  0
 31 29  2  0
M  END
$$$$
