WIN.pdb
     RDKit          3D

 31 32  0  0  1  0  0  0  0  0999 V2000
   14.9298  -22.8068    1.4408 N   0  0  0  0  0  0  0  0  0  0  0  0
   15.7189  -23.0998    2.5907 C   0  0  1  0  0  0  0  0  0  0  0  0
   14.7513  -23.3438    3.7330 C   0  0  0  0  0  0  0  0  0  0  0  0
   13.9651  -22.1565    4.1102 C   0  0  0  0  0  0  0  0  0  0  0  0
   14.2933  -20.8308    3.9265 C   0  0  0  0  0  0  0  0  0  0  0  0
   13.2953  -20.0450    4.3989 N   0  0  0  0  0  0  0  0  0  0  0  0
   12.3018  -20.8347    4.8964 C   0  0  0  0  0  0  0  0  0  0  0  0
   11.0917  -20.5365    5.4781 C   0  0  0  0  0  0  0  0  0  0  0  0
   10.2459  -21.5356    5.9061 C   0  0  0  0  0  0  0  0  0  0  0  0
   10.6731  -22.8298    5.7233 C   0  0  0  0  0  0  0  0  0  0  0  0
   11.8690  -23.1459    5.1489 C   0  0  0  0  0  0  0  0  0  0  0  0
   12.7269  -22.1304    4.7131 C   0  0  0  0  0  0  0  0  0  0  0  0
   16.5517  -24.3493    2.4328 C   0  0  0  0  0  0  0  0  0  0  0  0
   16.1225  -25.3372    1.7955 O   0  0  0  0  0  0  0  0  0  0  0  0
   21.9274  -24.0682    1.4951 C   0  0  0  0  0  0  0  0  0  0  0  0
   20.4454  -24.4703    1.5165 C   0  0  0  0  0  0  0  0  0  0  0  0
   20.1755  -25.2388    2.7544 C   0  0  2  0  0  0  0  0  0  0  0  0
   21.0087  -26.5017    2.7437 C   0  0  0  0  0  0  0  0  0  0  0  0
   18.7267  -25.5208    3.0485 C   0  0  2  0  0  0  0  0  0  0  0  0
   17.8481  -24.4268    3.0054 N   0  0  0  0  0  0  0  0  0  0  0  0
   18.6325  -26.4818    4.1545 C   0  0  0  0  0  0  0  0  0  0  0  0
   18.3956  -25.9207    5.2928 O   0  0  0  0  0  0  0  0  0  0  0  0
   17.6693  -30.2880    7.6017 N   0  0  0  0  0  0  0  0  0  0  0  0
   16.7644  -29.3540    7.0193 C   0  0  0  0  0  0  0  0  0  0  0  0
   15.6052  -29.2509    7.5414 O   0  0  0  0  0  0  0  0  0  0  0  0
   17.0933  -28.5205    5.8692 C   0  0  0  0  0  0  0  0  0  0  0  0
   18.5008  -28.7111    5.3199 C   0  0  2  0  0  0  0  0  0  0  0  0
   18.7610  -27.8718    4.1521 N   0  0  0  0  0  0  0  0  0  0  0  0
   18.6632  -30.1379    5.0477 C   0  0  0  0  0  0  0  0  0  0  0  0
   18.5909  -31.1111    6.0182 O   0  0  0  0  0  0  0  0  0  0  0  0
   18.8871  -30.5736    3.8521 O   0  0  0  0  0  0  0  0  0  0  0  0
  2 13  1  0
  2  1  1  6
  2  3  1  0
  4  3  1  0
  4  5  2  0
  6  5  1  0
  7  6  1  0
  8  7  2  0
  9  8  1  0
 10  9  2  0
 10 11  1  0
 11 12  2  0
 12  7  1  0
 12  4  1  0
 13 14  2  0
 16 15  1  0
 17 16  1  0
 17 18  1  6
 19 17  1  0
 19 20  1  1
 20 13  1  0
 21 19  1  0
 22 21  2  0
 24 23  1  0
 24 26  1  0
 25 24  2  0
 27 26  1  6
 27 28  1  0
 28 21  1  0
 29 30  1  0
 29 27  1  0
 31 29  2  0
M  END
$$$$
