WIN.pdb
     RDKit          3D

 31 32  0  0  1  0  0  0  0  0999 V2000
   28.2158  -20.9469  -15.2545 N   0  0  0  0  0  0  0  0  0  0  0  0
   27.3382  -20.1385  -14.4753 C   0  0  1  0  0  0  0  0  0  0  0  0
   26.3222  -19.5482  -15.4344 C   0  0  0  0  0  0  0  0  0  0  0  0
   26.8869  -18.5495  -16.3583 C   0  0  0  0  0  0  0  0  0  0  0  0
   27.0791  -18.6673  -17.7177 C   0  0  0  0  0  0  0  0  0  0  0  0
   27.6104  -17.5193  -18.2037 N   0  0  0  0  0  0  0  0  0  0  0  0
   27.7743  -16.6340  -17.1802 C   0  0  0  0  0  0  0  0  0  0  0  0
   28.2641  -15.3494  -17.1424 C   0  0  0  0  0  0  0  0  0  0  0  0
   28.3267  -14.6495  -15.9580 C   0  0  0  0  0  0  0  0  0  0  0  0
   27.8796  -15.2977  -14.8307 C   0  0  0  0  0  0  0  0  0  0  0  0
   27.3906  -16.5707  -14.8475 C   0  0  0  0  0  0  0  0  0  0  0  0
   27.3261  -17.2805  -16.0513 C   0  0  0  0  0  0  0  0  0  0  0  0
   26.5731  -20.9265  -13.4393 C   0  0  0  0  0  0  0  0  0  0  0  0
   26.3394  -22.1459  -13.5958 O   0  0  0  0  0  0  0  0  0  0  0  0
   26.8364  -19.8826   -8.0295 C   0  0  0  0  0  0  0  0  0  0  0  0
   26.6824  -20.6409   -9.3560 C   0  0  0  0  0  0  0  0  0  0  0  0
   25.3316  -20.3766   -9.9048 C   0  0  2  0  0  0  0  0  0  0  0  0
   24.2984  -21.0215   -9.0071 C   0  0  0  0  0  0  0  0  0  0  0  0
   25.1285  -20.7400  -11.3510 C   0  0  2  0  0  0  0  0  0  0  0  0
   26.1037  -20.2954  -12.2578 N   0  0  0  0  0  0  0  0  0  0  0  0
   23.7071  -20.6040  -11.6923 C   0  0  0  0  0  0  0  0  0  0  0  0
   23.3687  -19.3904  -11.9736 O   0  0  0  0  0  0  0  0  0  0  0  0
   19.6688  -20.0763  -14.2651 N   0  0  0  0  0  0  0  0  0  0  0  0
   20.1772  -21.3909  -14.4739 C   0  0  0  0  0  0  0  0  0  0  0  0
   19.8463  -21.9875  -15.5517 O   0  0  0  0  0  0  0  0  0  0  0  0
   21.0462  -22.0805  -13.5279 C   0  0  0  0  0  0  0  0  0  0  0  0
   21.3534  -21.3035  -12.2546 C   0  0  2  0  0  0  0  0  0  0  0  0
   22.6998  -21.5687  -11.7519 N   0  0  0  0  0  0  0  0  0  0  0  0
   20.3062  -21.6338  -11.2899 C   0  0  0  0  0  0  0  0  0  0  0  0
   19.0988  -20.9769  -11.2224 O   0  0  0  0  0  0  0  0  0  0  0  0
   20.4603  -22.5846  -10.4288 O   0  0  0  0  0  0  0  0  0  0  0  0
  2 13  1  0
  2  1  1  6
  2  3  1  0
  4  3  1  0
  4  5  2  0
  6  5  1  0
  7  6  1  0
  8  7  2  0
  9  8  1  0
 10  9  2  0
 10 11  1  0
 11 12  2  0
 12  7  1  0
 12  4  1  0
 13 14  2  0
 16 15  1  0
 17 16  1  0
 17 18  1  1
 19 17  1  0
 19 20  1  6
 20 13  1  0
 21 19  1  0
 22 21  2  0
 24 23  1  0
 24 26  1  0
 25 24  2  0
 27 26  1  6
 27 28  1  0
 28 21  1  0
 29 30  1  0
 29 27  1  0
 31 29  2  0
M  END
$$$$
