WIN.pdb
     RDKit          3D

 31 32  0  0  1  0  0  0  0  0999 V2000
   27.5652  -21.4717  -17.1183 N   0  0  0  0  0  0  0  0  0  0  0  0
   26.9709  -20.5678  -16.1906 C   0  0  1  0  0  0  0  0  0  0  0  0
   25.9801  -19.7278  -16.9737 C   0  0  0  0  0  0  0  0  0  0  0  0
   26.5961  -18.9269  -18.0456 C   0  0  0  0  0  0  0  0  0  0  0  0
   26.2148  -18.8460  -19.3673 C   0  0  0  0  0  0  0  0  0  0  0  0
   27.0309  -17.9869  -20.0249 N   0  0  0  0  0  0  0  0  0  0  0  0
   27.9546  -17.4918  -19.1533 C   0  0  0  0  0  0  0  0  0  0  0  0
   28.9884  -16.5992  -19.3147 C   0  0  0  0  0  0  0  0  0  0  0  0
   29.7968  -16.2521  -18.2552 C   0  0  0  0  0  0  0  0  0  0  0  0
   29.5179  -16.8405  -17.0440 C   0  0  0  0  0  0  0  0  0  0  0  0
   28.4979  -17.7277  -16.8638 C   0  0  0  0  0  0  0  0  0  0  0  0
   27.6762  -18.0785  -17.9402 C   0  0  0  0  0  0  0  0  0  0  0  0
   26.2009  -21.2666  -15.0958 C   0  0  0  0  0  0  0  0  0  0  0  0
   25.6096  -22.3486  -15.3095 O   0  0  0  0  0  0  0  0  0  0  0  0
   27.5988  -20.9715   -9.6349 C   0  0  0  0  0  0  0  0  0  0  0  0
   27.1597  -21.4157  -11.0378 C   0  0  0  0  0  0  0  0  0  0  0  0
   25.8356  -20.8211  -11.3361 C   0  0  2  0  0  0  0  0  0  0  0  0
   24.8522  -21.2428  -10.2663 C   0  0  0  0  0  0  0  0  0  0  0  0
   25.3028  -21.0680  -12.7217 C   0  0  2  0  0  0  0  0  0  0  0  0
   26.1353  -20.7072  -13.7929 N   0  0  0  0  0  0  0  0  0  0  0  0
   23.8769  -20.7207  -12.7642 C   0  0  0  0  0  0  0  0  0  0  0  0
   23.6683  -19.4481  -12.8248 O   0  0  0  0  0  0  0  0  0  0  0  0
   18.6577  -20.4766  -13.7650 N   0  0  0  0  0  0  0  0  0  0  0  0
   19.3612  -21.5066  -14.4538 C   0  0  0  0  0  0  0  0  0  0  0  0
   18.7372  -22.1359  -15.3712 O   0  0  0  0  0  0  0  0  0  0  0  0
   20.7424  -21.8735  -14.1653 C   0  0  0  0  0  0  0  0  0  0  0  0
   21.3989  -21.0735  -13.0480 C   0  0  2  0  0  0  0  0  0  0  0  0
   22.7495  -21.5436  -12.7464 N   0  0  0  0  0  0  0  0  0  0  0  0
   20.5011  -21.1325  -11.8963 C   0  0  0  0  0  0  0  0  0  0  0  0
   20.8600  -21.6618  -10.6776 O   0  0  0  0  0  0  0  0  0  0  0  0
   19.2932  -20.6784  -11.9608 O   0  0  0  0  0  0  0  0  0  0  0  0
  2 13  1  0
  2  1  1  6
  2  3  1  0
  4  3  1  0
  4  5  2  0
  6  5  1  0
  7  6  1  0
  8  7  2  0
  9  8  1  0
 10  9  2  0
 10 11  1  0
 11 12  2  0
 12  7  1  0
 12  4  1  0
 13 14  2  0
 16 15  1  0
 17 16  1  0
 17 18  1  1
 19 17  1  0
 19 20  1  6
 20 13  1  0
 21 19  1  0
 22 21  2  0
 24 23  1  0
 24 26  1  0
 25 24  2  0
 27 26  1  6
 27 28  1  0
 28 21  1  0
 29 30  1  0
 29 27  1  0
 31 29  2  0
M  END
$$$$
