WIN.pdb
     RDKit          3D

 31 32  0  0  1  0  0  0  0  0999 V2000
   26.6979  -18.3810   -8.1280 N   0  0  0  0  0  0  0  0  0  0  0  0
   26.7161  -19.7394   -8.5585 C   0  0  1  0  0  0  0  0  0  0  0  0
   26.2726  -20.5779   -7.3750 C   0  0  0  0  0  0  0  0  0  0  0  0
   27.0477  -20.3303   -6.1470 C   0  0  0  0  0  0  0  0  0  0  0  0
   26.5892  -19.8522   -4.9387 C   0  0  0  0  0  0  0  0  0  0  0  0
   27.6165  -19.7809   -4.0578 N   0  0  0  0  0  0  0  0  0  0  0  0
   28.7585  -20.2085   -4.6671 C   0  0  0  0  0  0  0  0  0  0  0  0
   30.0523  -20.3316   -4.2172 C   0  0  0  0  0  0  0  0  0  0  0  0
   31.0486  -20.8001   -5.0447 C   0  0  0  0  0  0  0  0  0  0  0  0
   30.6833  -21.1321   -6.3281 C   0  0  0  0  0  0  0  0  0  0  0  0
   29.4063  -21.0172   -6.7929 C   0  0  0  0  0  0  0  0  0  0  0  0
   28.3946  -20.5426   -5.9513 C   0  0  0  0  0  0  0  0  0  0  0  0
   25.7538  -20.0137   -9.6892 C   0  0  0  0  0  0  0  0  0  0  0  0
   24.5901  -19.5536   -9.6748 O   0  0  0  0  0  0  0  0  0  0  0  0
   29.0836  -20.7031  -14.0731 C   0  0  0  0  0  0  0  0  0  0  0  0
   28.0641  -20.1841  -13.0485 C   0  0  0  0  0  0  0  0  0  0  0  0
   26.8105  -20.9626  -13.1836 C   0  0  2  0  0  0  0  0  0  0  0  0
   26.2742  -20.7961  -14.5885 C   0  0  0  0  0  0  0  0  0  0  0  0
   25.7574  -20.6961  -12.1420 C   0  0  2  0  0  0  0  0  0  0  0  0
   26.1546  -20.8014  -10.7997 N   0  0  0  0  0  0  0  0  0  0  0  0
   24.4868  -21.2943  -12.5701 C   0  0  0  0  0  0  0  0  0  0  0  0
   24.5573  -22.5741  -12.7241 O   0  0  0  0  0  0  0  0  0  0  0  0
   19.4211  -22.6537  -13.4821 N   0  0  0  0  0  0  0  0  0  0  0  0
   19.5129  -21.3286  -12.9663 C   0  0  0  0  0  0  0  0  0  0  0  0
   18.4242  -20.7341  -12.6691 O   0  0  0  0  0  0  0  0  0  0  0  0
   20.7743  -20.6261  -12.7642 C   0  0  0  0  0  0  0  0  0  0  0  0
   22.0214  -21.4474  -13.0637 C   0  0  2  0  0  0  0  0  0  0  0  0
   23.2525  -20.6957  -12.8288 N   0  0  0  0  0  0  0  0  0  0  0  0
   21.8965  -21.9273  -14.4385 C   0  0  0  0  0  0  0  0  0  0  0  0
   21.4075  -23.1704  -14.7694 O   0  0  0  0  0  0  0  0  0  0  0  0
   22.2451  -21.1919  -15.4421 O   0  0  0  0  0  0  0  0  0  0  0  0
  2 13  1  0
  2  1  1  1
  2  3  1  0
  4  3  1  0
  4  5  2  0
  6  5  1  0
  7  6  1  0
  8  7  2  0
  9  8  1  0
 10  9  2  0
 10 11  1  0
 11 12  2  0
 12  7  1  0
 12  4  1  0
 13 14  2  0
 16 15  1  0
 17 16  1  0
 17 18  1  6
 19 17  1  0
 19 20  1  1
 20 13  1  0
 21 19  1  0
 22 21  2  0
 24 23  1  0
 24 26  1  0
 25 24  2  0
 27 26  1  6
 27 28  1  0
 28 21  1  0
 29 30  1  0
 29 27  1  0
 31 29  2  0
M  END
$$$$
