WIN.pdb
     RDKit          3D

 31 32  0  0  1  0  0  0  0  0999 V2000
   26.2283  -21.9193   -9.1618 N   0  0  0  0  0  0  0  0  0  0  0  0
   25.7196  -20.5881   -9.1614 C   0  0  1  0  0  0  0  0  0  0  0  0
   26.6515  -19.7652   -8.2925 C   0  0  0  0  0  0  0  0  0  0  0  0
   26.7251  -20.2276   -6.8958 C   0  0  0  0  0  0  0  0  0  0  0  0
   25.8421  -21.0484   -6.2283 C   0  0  0  0  0  0  0  0  0  0  0  0
   26.2756  -21.2475   -4.9598 N   0  0  0  0  0  0  0  0  0  0  0  0
   27.4420  -20.5671   -4.7738 C   0  0  0  0  0  0  0  0  0  0  0  0
   28.2739  -20.4447   -3.6855 C   0  0  0  0  0  0  0  0  0  0  0  0
   29.4199  -19.6837   -3.7516 C   0  0  0  0  0  0  0  0  0  0  0  0
   29.6818  -19.0607   -4.9492 C   0  0  0  0  0  0  0  0  0  0  0  0
   28.8696  -19.1696   -6.0393 C   0  0  0  0  0  0  0  0  0  0  0  0
   27.7065  -19.9440   -5.9717 C   0  0  0  0  0  0  0  0  0  0  0  0
   25.7120  -19.9584  -10.5337 C   0  0  0  0  0  0  0  0  0  0  0  0
   25.4455  -18.7454  -10.6880 O   0  0  0  0  0  0  0  0  0  0  0  0
   29.7380  -20.9693  -13.9979 C   0  0  0  0  0  0  0  0  0  0  0  0
   28.5929  -20.4848  -13.0966 C   0  0  0  0  0  0  0  0  0  0  0  0
   27.3058  -20.7068  -13.7964 C   0  0  2  0  0  0  0  0  0  0  0  0
   27.3571  -20.0343  -15.1508 C   0  0  0  0  0  0  0  0  0  0  0  0
   26.0677  -20.3325  -13.0269 C   0  0  2  0  0  0  0  0  0  0  0  0
   26.0126  -20.7350  -11.6831 N   0  0  0  0  0  0  0  0  0  0  0  0
   24.8893  -20.5093  -13.8845 C   0  0  0  0  0  0  0  0  0  0  0  0
   24.7660  -21.7139  -14.3319 O   0  0  0  0  0  0  0  0  0  0  0  0
   20.0606  -20.3294  -16.1475 N   0  0  0  0  0  0  0  0  0  0  0  0
   20.1787  -19.5868  -14.9372 C   0  0  0  0  0  0  0  0  0  0  0  0
   19.1068  -19.1311  -14.4171 O   0  0  0  0  0  0  0  0  0  0  0  0
   21.4489  -19.3243  -14.2713 C   0  0  0  0  0  0  0  0  0  0  0  0
   22.6634  -19.9646  -14.9304 C   0  0  2  0  0  0  0  0  0  0  0  0
   23.9147  -19.5894  -14.2753 N   0  0  0  0  0  0  0  0  0  0  0  0
   22.6246  -19.5976  -16.3447 C   0  0  0  0  0  0  0  0  0  0  0  0
   21.7209  -20.1194  -17.2420 O   0  0  0  0  0  0  0  0  0  0  0  0
   23.4554  -18.7414  -16.8406 O   0  0  0  0  0  0  0  0  0  0  0  0
  2 13  1  0
  2  1  1  6
  2  3  1  0
  4  3  1  0
  4  5  2  0
  6  5  1  0
  7  6  1  0
  8  7  2  0
  9  8  1  0
 10  9  2  0
 10 11  1  0
 11 12  2  0
 12  7  1  0
 12  4  1  0
 13 14  2  0
 16 15  1  0
 17 16  1  0
 17 18  1  6
 19 17  1  0
 19 20  1  1
 20 13  1  0
 21 19  1  0
 22 21  2  0
 24 23  1  0
 24 26  1  0
 25 24  2  0
 27 26  1  1
 27 28  1  0
 28 21  1  0
 29 30  1  0
 29 27  1  0
 31 29  2  0
M  END
$$$$
