WIN.pdb
     RDKit          3D

 31 32  0  0  1  0  0  0  0  0999 V2000
   25.7891  -19.0644  -18.0082 N   0  0  0  0  0  0  0  0  0  0  0  0
   25.5932  -18.6869  -16.6480 C   0  0  1  0  0  0  0  0  0  0  0  0
   24.5528  -17.5833  -16.6472 C   0  0  0  0  0  0  0  0  0  0  0  0
   24.9144  -16.4247  -17.4820 C   0  0  0  0  0  0  0  0  0  0  0  0
   24.1818  -15.8532  -18.4997 C   0  0  0  0  0  0  0  0  0  0  0  0
   24.8583  -14.7952  -19.0090 N   0  0  0  0  0  0  0  0  0  0  0  0
   26.0372  -14.6538  -18.3395 C   0  0  0  0  0  0  0  0  0  0  0  0
   27.0660  -13.7499  -18.4658 C   0  0  0  0  0  0  0  0  0  0  0  0
   28.1738  -13.8188  -17.6506 C   0  0  0  0  0  0  0  0  0  0  0  0
   28.1946  -14.8283  -16.7171 C   0  0  0  0  0  0  0  0  0  0  0  0
   27.1848  -15.7341  -16.5764 C   0  0  0  0  0  0  0  0  0  0  0  0
   26.0591  -15.6625  -17.4039 C   0  0  0  0  0  0  0  0  0  0  0  0
   25.0565  -19.8109  -15.7946 C   0  0  0  0  0  0  0  0  0  0  0  0
   24.4813  -20.7963  -16.3087 O   0  0  0  0  0  0  0  0  0  0  0  0
   27.9537  -19.8845  -11.8107 C   0  0  0  0  0  0  0  0  0  0  0  0
   27.1538  -21.0636  -12.3835 C   0  0  0  0  0  0  0  0  0  0  0  0
   25.7085  -20.8021  -12.1876 C   0  0  2  0  0  0  0  0  0  0  0  0
   25.1618  -21.7828  -11.1734 C   0  0  0  0  0  0  0  0  0  0  0  0
   24.8739  -20.7604  -13.4393 C   0  0  2  0  0  0  0  0  0  0  0  0
   25.1981  -19.7728  -14.3828 N   0  0  0  0  0  0  0  0  0  0  0  0
   23.4668  -20.9980  -13.0945 C   0  0  0  0  0  0  0  0  0  0  0  0
   23.2779  -22.1218  -12.4878 O   0  0  0  0  0  0  0  0  0  0  0  0
   18.0155  -21.6029  -13.7901 N   0  0  0  0  0  0  0  0  0  0  0  0
   19.1673  -22.2929  -13.3131 C   0  0  0  0  0  0  0  0  0  0  0  0
   18.9790  -23.3220  -12.5834 O   0  0  0  0  0  0  0  0  0  0  0  0
   20.5347  -21.8858  -13.6134 C   0  0  0  0  0  0  0  0  0  0  0  0
   20.9847  -20.5986  -12.9352 C   0  0  2  0  0  0  0  0  0  0  0  0
   22.3385  -20.2086  -13.3238 N   0  0  0  0  0  0  0  0  0  0  0  0
   20.8378  -20.8010  -11.4952 C   0  0  0  0  0  0  0  0  0  0  0  0
   19.6291  -21.0293  -10.8780 O   0  0  0  0  0  0  0  0  0  0  0  0
   21.8596  -20.7778  -10.7047 O   0  0  0  0  0  0  0  0  0  0  0  0
  2 13  1  0
  2  1  1  6
  2  3  1  0
  4  3  1  0
  4  5  2  0
  6  5  1  0
  7  6  1  0
  8  7  2  0
  9  8  1  0
 10  9  2  0
 10 11  1  0
 11 12  2  0
 12  7  1  0
 12  4  1  0
 13 14  2  0
 16 15  1  0
 17 16  1  0
 17 18  1  1
 19 17  1  0
 19 20  1  1
 20 13  1  0
 21 19  1  0
 22 21  2  0
 24 23  1  0
 24 26  1  0
 25 24  2  0
 27 26  1  6
 27 28  1  0
 28 21  1  0
 29 30  1  0
 29 27  1  0
 31 29  2  0
M  END
$$$$
