WIN.pdb
     RDKit          3D

 31 32  0  0  1  0  0  0  0  0999 V2000
   27.2471  -19.4880  -16.8158 N   0  0  0  0  0  0  0  0  0  0  0  0
   26.4493  -18.9270  -15.7767 C   0  0  1  0  0  0  0  0  0  0  0  0
   25.3637  -18.1113  -16.4525 C   0  0  0  0  0  0  0  0  0  0  0  0
   25.8651  -16.9110  -17.1437 C   0  0  0  0  0  0  0  0  0  0  0  0
   25.7729  -16.6058  -18.4843 C   0  0  0  0  0  0  0  0  0  0  0  0
   26.3464  -15.4003  -18.7173 N   0  0  0  0  0  0  0  0  0  0  0  0
   26.8207  -14.8962  -17.5430 C   0  0  0  0  0  0  0  0  0  0  0  0
   27.4733  -13.7241  -17.2400 C   0  0  0  0  0  0  0  0  0  0  0  0
   27.8558  -13.4396  -15.9480 C   0  0  0  0  0  0  0  0  0  0  0  0
   27.5544  -14.3800  -14.9910 C   0  0  0  0  0  0  0  0  0  0  0  0
   26.9082  -15.5478  -15.2713 C   0  0  0  0  0  0  0  0  0  0  0  0
   26.5187  -15.8354  -16.5838 C   0  0  0  0  0  0  0  0  0  0  0  0
   25.7642  -19.9716  -14.9287 C   0  0  0  0  0  0  0  0  0  0  0  0
   25.3825  -21.0569  -15.4213 O   0  0  0  0  0  0  0  0  0  0  0  0
   27.3843  -21.1511   -9.8103 C   0  0  0  0  0  0  0  0  0  0  0  0
   26.8578  -21.1938  -11.2522 C   0  0  0  0  0  0  0  0  0  0  0  0
   25.4578  -20.7082  -11.2655 C   0  0  2  0  0  0  0  0  0  0  0  0
   24.6197  -21.5917  -10.3676 C   0  0  0  0  0  0  0  0  0  0  0  0
   24.8368  -20.5342  -12.6253 C   0  0  2  0  0  0  0  0  0  0  0  0
   25.5416  -19.7425  -13.5458 N   0  0  0  0  0  0  0  0  0  0  0  0
   23.3867  -20.3572  -12.4793 C   0  0  0  0  0  0  0  0  0  0  0  0
   23.0413  -19.1230  -12.3243 O   0  0  0  0  0  0  0  0  0  0  0  0
   19.0484  -20.4090  -16.0210 N   0  0  0  0  0  0  0  0  0  0  0  0
   19.5936  -20.0480  -14.7551 C   0  0  0  0  0  0  0  0  0  0  0  0
   18.8655  -19.3468  -13.9770 O   0  0  0  0  0  0  0  0  0  0  0  0
   20.9268  -20.4349  -14.3098 C   0  0  0  0  0  0  0  0  0  0  0  0
   20.9910  -21.0113  -12.9016 C   0  0  2  0  0  0  0  0  0  0  0  0
   22.3601  -21.3031  -12.4815 N   0  0  0  0  0  0  0  0  0  0  0  0
   20.1226  -22.1868  -12.8815 C   0  0  0  0  0  0  0  0  0  0  0  0
   18.8099  -22.1564  -12.4695 O   0  0  0  0  0  0  0  0  0  0  0  0
   20.5502  -23.3457  -13.2603 O   0  0  0  0  0  0  0  0  0  0  0  0
  2 13  1  0
  2  1  1  6
  2  3  1  0
  4  3  1  0
  4  5  2  0
  6  5  1  0
  7  6  1  0
  8  7  2  0
  9  8  1  0
 10  9  2  0
 10 11  1  0
 11 12  2  0
 12  7  1  0
 12  4  1  0
 13 14  2  0
 16 15  1  0
 17 16  1  0
 17 18  1  1
 19 17  1  0
 19 20  1  1
 20 13  1  0
 21 19  1  0
 22 21  2  0
 24 23  1  0
 24 26  1  0
 25 24  2  0
 27 26  1  6
 27 28  1  0
 28 21  1  0
 29 30  1  0
 29 27  1  0
 31 29  2  0
M  END
$$$$
