WIN.pdb
     RDKit          3D

 31 32  0  0  1  0  0  0  0  0999 V2000
   28.2512  -21.6830  -10.1884 N   0  0  0  0  0  0  0  0  0  0  0  0
   26.9462  -21.1288  -10.0443 C   0  0  1  0  0  0  0  0  0  0  0  0
   27.1198  -19.7649   -9.4040 C   0  0  0  0  0  0  0  0  0  0  0  0
   28.0927  -19.7467   -8.2981 C   0  0  0  0  0  0  0  0  0  0  0  0
   29.4546  -19.5500   -8.3721 C   0  0  0  0  0  0  0  0  0  0  0  0
   29.9890  -19.5921   -7.1275 N   0  0  0  0  0  0  0  0  0  0  0  0
   28.9952  -19.8145   -6.2214 C   0  0  0  0  0  0  0  0  0  0  0  0
   29.0079  -19.9384   -4.8517 C   0  0  0  0  0  0  0  0  0  0  0  0
   27.8446  -20.1642   -4.1499 C   0  0  0  0  0  0  0  0  0  0  0  0
   26.6860  -20.2589   -4.8846 C   0  0  0  0  0  0  0  0  0  0  0  0
   26.6528  -20.1390   -6.2427 C   0  0  0  0  0  0  0  0  0  0  0  0
   27.8347  -19.9082   -6.9546 C   0  0  0  0  0  0  0  0  0  0  0  0
   26.2444  -20.9193  -11.3647 C   0  0  0  0  0  0  0  0  0  0  0  0
   26.8461  -20.4305  -12.3472 O   0  0  0  0  0  0  0  0  0  0  0  0
   24.6815  -24.7853  -13.3994 C   0  0  0  0  0  0  0  0  0  0  0  0
   24.8944  -23.3203  -13.8076 C   0  0  0  0  0  0  0  0  0  0  0  0
   23.7405  -22.5191  -13.3359 C   0  0  2  0  0  0  0  0  0  0  0  0
   22.7647  -22.3381  -14.4779 C   0  0  0  0  0  0  0  0  0  0  0  0
   24.0778  -21.2127  -12.6691 C   0  0  2  0  0  0  0  0  0  0  0  0
   24.8800  -21.2784  -11.5190 N   0  0  0  0  0  0  0  0  0  0  0  0
   22.8959  -20.3418  -12.6786 C   0  0  0  0  0  0  0  0  0  0  0  0
   22.1516  -20.4885  -11.6341 O   0  0  0  0  0  0  0  0  0  0  0  0
   22.6711  -17.0242  -16.4392 N   0  0  0  0  0  0  0  0  0  0  0  0
   22.0035  -16.9286  -15.1841 C   0  0  0  0  0  0  0  0  0  0  0  0
   22.3684  -15.9990  -14.3906 O   0  0  0  0  0  0  0  0  0  0  0  0
   20.9366  -17.8302  -14.7660 C   0  0  0  0  0  0  0  0  0  0  0  0
   21.2358  -18.6401  -13.5114 C   0  0  2  0  0  0  0  0  0  0  0  0
   22.4734  -19.4086  -13.6270 N   0  0  0  0  0  0  0  0  0  0  0  0
   20.0645  -19.4754  -13.2532 C   0  0  0  0  0  0  0  0  0  0  0  0
   19.1477  -19.2149  -12.2605 O   0  0  0  0  0  0  0  0  0  0  0  0
   19.8195  -20.5280  -13.9613 O   0  0  0  0  0  0  0  0  0  0  0  0
  2 13  1  0
  2  1  1  6
  2  3  1  0
  4  3  1  0
  4  5  2  0
  6  5  1  0
  7  6  1  0
  8  7  2  0
  9  8  1  0
 10  9  2  0
 10 11  1  0
 11 12  2  0
 12  7  1  0
 12  4  1  0
 13 14  2  0
 16 15  1  0
 17 16  1  0
 17 18  1  6
 19 17  1  0
 19 20  1  1
 20 13  1  0
 21 19  1  0
 22 21  2  0
 24 23  1  0
 24 26  1  0
 25 24  2  0
 27 26  1  6
 27 28  1  0
 28 21  1  0
 29 30  1  0
 29 27  1  0
 31 29  2  0
M  END
$$$$
