QGD.pdb
     RDKit          3D

 22 21  0  0  1  0  0  0  0  0999 V2000
   15.2745  -14.6143  -14.0820 N   0  0  0  0  0  0  0  0  0  0  0  0
   16.3054  -15.3050  -14.7603 C   0  0  0  0  0  0  0  0  0  0  0  0
   16.4440  -16.5466  -14.5775 O   0  0  0  0  0  0  0  0  0  0  0  0
   17.2055  -14.5568  -15.6744 C   0  0  0  0  0  0  0  0  0  0  0  0
   16.7936  -13.1096  -15.7665 C   0  0  0  0  0  0  0  0  0  0  0  0
   17.7409  -12.3027  -16.6241 C   0  0  2  0  0  0  0  0  0  0  0  0
   19.1156  -12.5761  -16.3533 N   0  0  0  0  0  0  0  0  0  0  0  0
   17.4184  -10.8730  -16.3852 C   0  0  0  0  0  0  0  0  0  0  0  0
   16.2330  -10.4752  -16.5095 O   0  0  0  0  0  0  0  0  0  0  0  0
   18.4515   -9.9761  -16.0200 N   0  0  0  0  0  0  0  0  0  0  0  0
   18.2487   -8.6125  -15.6594 C   0  0  0  0  0  0  0  0  0  0  0  0
   19.4732   -7.8671  -15.3010 C   0  0  0  0  0  0  0  0  0  0  0  0
   20.6126   -8.4591  -15.2790 O   0  0  0  0  0  0  0  0  0  0  0  0
   19.5040   -6.4883  -14.9654 N   0  0  0  0  0  0  0  0  0  0  0  0
   20.7569   -5.7885  -14.7076 C   0  0  1  0  0  0  0  0  0  0  0  0
   20.5342   -4.2810  -14.7356 C   0  0  0  0  0  0  0  0  0  0  0  0
   21.7832   -3.5068  -14.6228 C   0  0  0  0  0  0  0  0  0  0  0  0
   22.9006   -4.0720  -14.5989 O   0  0  0  0  0  0  0  0  0  0  0  0
   21.4004   -6.2594  -13.4737 C   0  0  0  0  0  0  0  0  0  0  0  0
   20.7855   -6.4056  -12.3893 O   0  0  0  0  0  0  0  0  0  0  0  0
   21.7533   -2.1271  -14.5397 O   0  0  0  0  0  0  0  0  0  0  0  0
   22.7708   -6.5832  -13.4228 O   0  0  0  0  0  0  0  0  0  0  0  0
  2  4  1  0
  2  1  1  0
  3  2  2  0
  5  6  1  0
  5  4  1  0
  6  7  1  1
  8  6  1  0
  9  8  2  0
 10  8  1  0
 11 10  1  0
 11 12  1  0
 12 14  1  0
 13 12  2  0
 14 15  1  0
 15 19  1  0
 15 16  1  1
 16 17  1  0
 17 18  2  0
 17 21  1  0
 19 22  1  0
 20 19  2  0
M  END
$$$$
