QGD.pdb
     RDKit          3D

 22 21  0  0  1  0  0  0  0  0999 V2000
   21.9068  -29.4798  -10.1901 N   0  0  0  0  0  0  0  0  0  0  0  0
   20.6695  -29.9354  -10.7014 C   0  0  0  0  0  0  0  0  0  0  0  0
   20.1809  -31.0167  -10.2696 O   0  0  0  0  0  0  0  0  0  0  0  0
   19.9685  -29.1337  -11.7365 C   0  0  0  0  0  0  0  0  0  0  0  0
   20.7356  -27.8744  -12.0498 C   0  0  0  0  0  0  0  0  0  0  0  0
   19.8984  -26.6332  -11.8440 C   0  0  2  0  0  0  0  0  0  0  0  0
   18.5700  -26.7610  -12.3507 N   0  0  0  0  0  0  0  0  0  0  0  0
   20.6222  -25.5173  -12.5045 C   0  0  0  0  0  0  0  0  0  0  0  0
   21.8693  -25.5828  -12.6436 O   0  0  0  0  0  0  0  0  0  0  0  0
   19.8971  -24.3933  -12.9694 N   0  0  0  0  0  0  0  0  0  0  0  0
   20.4886  -23.2266  -13.5346 C   0  0  0  0  0  0  0  0  0  0  0  0
   19.5368  -22.1716  -13.9403 C   0  0  0  0  0  0  0  0  0  0  0  0
   18.2746  -22.4072  -13.9626 O   0  0  0  0  0  0  0  0  0  0  0  0
   19.9113  -20.8573  -14.3235 N   0  0  0  0  0  0  0  0  0  0  0  0
   18.9242  -19.8676  -14.7385 C   0  0  1  0  0  0  0  0  0  0  0  0
   19.4736  -18.4598  -14.5406 C   0  0  0  0  0  0  0  0  0  0  0  0
   19.4996  -18.0394  -13.1283 C   0  0  0  0  0  0  0  0  0  0  0  0
   19.1083  -18.8007  -12.2141 O   0  0  0  0  0  0  0  0  0  0  0  0
   18.4418  -20.1181  -16.1033 C   0  0  0  0  0  0  0  0  0  0  0  0
   19.1799  -20.5360  -17.0284 O   0  0  0  0  0  0  0  0  0  0  0  0
   19.9599  -16.7848  -12.7738 O   0  0  0  0  0  0  0  0  0  0  0  0
   17.0988  -19.9031  -16.4719 O   0  0  0  0  0  0  0  0  0  0  0  0
  2  4  1  0
  2  1  1  0
  3  2  2  0
  5  6  1  0
  5  4  1  0
  6  7  1  6
  8  6  1  0
  9  8  2  0
 10  8  1  0
 11 10  1  0
 11 12  1  0
 12 14  1  0
 13 12  2  0
 14 15  1  0
 15 19  1  0
 15 16  1  6
 16 17  1  0
 17 18  2  0
 17 21  1  0
 19 22  1  0
 20 19  2  0
M  END
$$$$
