QGD.pdb
     RDKit          3D

 22 21  0  0  1  0  0  0  0  0999 V2000
   15.3798  -12.6124  -19.2712 N   0  0  0  0  0  0  0  0  0  0  0  0
   15.2963  -12.0498  -17.9764 C   0  0  0  0  0  0  0  0  0  0  0  0
   14.5967  -11.0145  -17.7945 O   0  0  0  0  0  0  0  0  0  0  0  0
   16.0331  -12.6872  -16.8554 C   0  0  0  0  0  0  0  0  0  0  0  0
   16.3710  -11.6742  -15.7914 C   0  0  0  0  0  0  0  0  0  0  0  0
   17.8376  -11.3096  -15.7994 C   0  0  2  0  0  0  0  0  0  0  0  0
   18.6268  -12.1361  -14.9439 N   0  0  0  0  0  0  0  0  0  0  0  0
   17.9235   -9.8822  -15.3990 C   0  0  0  0  0  0  0  0  0  0  0  0
   17.3300   -9.0096  -16.0811 O   0  0  0  0  0  0  0  0  0  0  0  0
   18.6734   -9.5227  -14.2529 N   0  0  0  0  0  0  0  0  0  0  0  0
   18.8953   -8.1837  -13.8188 C   0  0  0  0  0  0  0  0  0  0  0  0
   17.8495   -7.6263  -12.9362 C   0  0  0  0  0  0  0  0  0  0  0  0
   16.6971   -8.1876  -12.8574 O   0  0  0  0  0  0  0  0  0  0  0  0
   18.0140   -6.4719  -12.1270 N   0  0  0  0  0  0  0  0  0  0  0  0
   16.9753   -6.0248  -11.2065 C   0  0  1  0  0  0  0  0  0  0  0  0
   17.4254   -6.2282   -9.7646 C   0  0  0  0  0  0  0  0  0  0  0  0
   16.4105   -5.8219   -8.7762 C   0  0  0  0  0  0  0  0  0  0  0  0
   15.2477   -5.5138   -9.1248 O   0  0  0  0  0  0  0  0  0  0  0  0
   16.5468   -4.6495  -11.4945 C   0  0  0  0  0  0  0  0  0  0  0  0
   17.2420   -3.8348  -12.1489 O   0  0  0  0  0  0  0  0  0  0  0  0
   16.7181   -5.7700   -7.4293 O   0  0  0  0  0  0  0  0  0  0  0  0
   15.3091   -4.1442  -11.0492 O   0  0  0  0  0  0  0  0  0  0  0  0
  2  4  1  0
  2  1  1  0
  3  2  2  0
  5  6  1  0
  5  4  1  0
  6  7  1  1
  8  6  1  0
  9  8  2  0
 10  8  1  0
 11 10  1  0
 11 12  1  0
 12 14  1  0
 13 12  2  0
 14 15  1  0
 15 19  1  0
 15 16  1  1
 16 17  1  0
 17 18  2  0
 17 21  1  0
 19 22  1  0
 20 19  2  0
M  END
$$$$
