QGD.pdb
     RDKit          3D

 22 21  0  0  1  0  0  0  0  0999 V2000
   16.0261  -14.8710  -16.4695 N   0  0  0  0  0  0  0  0  0  0  0  0
   16.4555  -14.1374  -15.3393 C   0  0  0  0  0  0  0  0  0  0  0  0
   15.7129  -14.0788  -14.3198 O   0  0  0  0  0  0  0  0  0  0  0  0
   17.7715  -13.4498  -15.3730 C   0  0  0  0  0  0  0  0  0  0  0  0
   18.4423  -13.6414  -16.7093 C   0  0  0  0  0  0  0  0  0  0  0  0
   19.7518  -12.8926  -16.8002 C   0  0  2  0  0  0  0  0  0  0  0  0
   20.5061  -12.9304  -15.5888 N   0  0  0  0  0  0  0  0  0  0  0  0
   19.4186  -11.4974  -17.1843 C   0  0  0  0  0  0  0  0  0  0  0  0
   18.9029  -11.2694  -18.3073 O   0  0  0  0  0  0  0  0  0  0  0  0
   19.6861  -10.4415  -16.2796 N   0  0  0  0  0  0  0  0  0  0  0  0
   19.2781   -9.0897  -16.4708 C   0  0  0  0  0  0  0  0  0  0  0  0
   19.7635   -8.1354  -15.4524 C   0  0  0  0  0  0  0  0  0  0  0  0
   20.0927   -8.5453  -14.2807 O   0  0  0  0  0  0  0  0  0  0  0  0
   19.9076   -6.7395  -15.6649 N   0  0  0  0  0  0  0  0  0  0  0  0
   20.3816   -5.8474  -14.6134 C   0  0  1  0  0  0  0  0  0  0  0  0
   21.8991   -5.7195  -14.6748 C   0  0  0  0  0  0  0  0  0  0  0  0
   22.4561   -4.8847  -13.5954 C   0  0  0  0  0  0  0  0  0  0  0  0
   22.7930   -5.3804  -12.4958 O   0  0  0  0  0  0  0  0  0  0  0  0
   19.6864   -4.5536  -14.6418 C   0  0  0  0  0  0  0  0  0  0  0  0
   19.0793   -4.1204  -15.6513 O   0  0  0  0  0  0  0  0  0  0  0  0
   22.6221   -3.5233  -13.7704 O   0  0  0  0  0  0  0  0  0  0  0  0
   19.6534   -3.6988  -13.5221 O   0  0  0  0  0  0  0  0  0  0  0  0
  2  4  1  0
  2  1  1  0
  3  2  2  0
  5  6  1  0
  5  4  1  0
  6  7  1  1
  8  6  1  0
  9  8  2  0
 10  8  1  0
 11 10  1  0
 11 12  1  0
 12 14  1  0
 13 12  2  0
 14 15  1  0
 15 19  1  0
 15 16  1  6
 16 17  1  0
 17 18  2  0
 17 21  1  0
 19 22  1  0
 20 19  2  0
M  END
$$$$
