QGD.pdb
     RDKit          3D

 22 21  0  0  1  0  0  0  0  0999 V2000
   26.9572  -32.1302  -16.2811 N   0  0  0  0  0  0  0  0  0  0  0  0
   26.1457  -32.4124  -15.1578 C   0  0  0  0  0  0  0  0  0  0  0  0
   24.9186  -32.6578  -15.3258 O   0  0  0  0  0  0  0  0  0  0  0  0
   26.7521  -32.4144  -13.8021 C   0  0  0  0  0  0  0  0  0  0  0  0
   25.7513  -32.8628  -12.7679 C   0  0  0  0  0  0  0  0  0  0  0  0
   26.1770  -34.1402  -12.0817 C   0  0  2  0  0  0  0  0  0  0  0  0
   26.2959  -35.2461  -12.9765 N   0  0  0  0  0  0  0  0  0  0  0  0
   25.1718  -34.4097  -11.0223 C   0  0  0  0  0  0  0  0  0  0  0  0
   24.0139  -34.7765  -11.3445 O   0  0  0  0  0  0  0  0  0  0  0  0
   25.5314  -34.2501   -9.6621 N   0  0  0  0  0  0  0  0  0  0  0  0
   24.6597  -34.4924   -8.5613 C   0  0  0  0  0  0  0  0  0  0  0  0
   25.2762  -34.3479   -7.2261 C   0  0  0  0  0  0  0  0  0  0  0  0
   26.5062  -33.9969   -7.1116 O   0  0  0  0  0  0  0  0  0  0  0  0
   24.5965  -34.5707   -6.0001 N   0  0  0  0  0  0  0  0  0  0  0  0
   25.2697  -34.4374   -4.7136 C   0  0  1  0  0  0  0  0  0  0  0  0
   24.2503  -34.1870   -3.6086 C   0  0  0  0  0  0  0  0  0  0  0  0
   23.9369  -32.7593   -3.4197 C   0  0  0  0  0  0  0  0  0  0  0  0
   24.5551  -31.8678   -4.0454 O   0  0  0  0  0  0  0  0  0  0  0  0
   26.1557  -35.5771   -4.4413 C   0  0  0  0  0  0  0  0  0  0  0  0
   27.0411  -35.5635   -3.5519 O   0  0  0  0  0  0  0  0  0  0  0  0
   22.9454  -32.3647   -2.5406 O   0  0  0  0  0  0  0  0  0  0  0  0
   26.0708  -36.7799   -5.1705 O   0  0  0  0  0  0  0  0  0  0  0  0
  2  4  1  0
  2  1  1  0
  3  2  2  0
  5  6  1  0
  5  4  1  0
  6  7  1  6
  8  6  1  0
  9  8  2  0
 10  8  1  0
 11 10  1  0
 11 12  1  0
 12 14  1  0
 13 12  2  0
 14 15  1  0
 15 19  1  0
 15 16  1  1
 16 17  1  0
 17 18  2  0
 17 21  1  0
 19 22  1  0
 20 19  2  0
M  END
$$$$
