QGD.pdb
     RDKit          3D

 22 21  0  0  1  0  0  0  0  0999 V2000
   12.0871   -9.5553   -6.4596 N   0  0  0  0  0  0  0  0  0  0  0  0
   11.6657   -9.9939   -7.7363 C   0  0  0  0  0  0  0  0  0  0  0  0
   10.8422  -10.9472   -7.8235 O   0  0  0  0  0  0  0  0  0  0  0  0
   12.1999   -9.3254   -8.9501 C   0  0  0  0  0  0  0  0  0  0  0  0
   13.2458   -8.3037   -8.5830 C   0  0  0  0  0  0  0  0  0  0  0  0
   13.8754   -7.6717   -9.8028 C   0  0  2  0  0  0  0  0  0  0  0  0
   13.9553   -8.5595  -10.9178 N   0  0  0  0  0  0  0  0  0  0  0  0
   15.2222   -7.2009   -9.3910 C   0  0  0  0  0  0  0  0  0  0  0  0
   15.3966   -6.7605   -8.2271 O   0  0  0  0  0  0  0  0  0  0  0  0
   16.2933   -7.2545  -10.3157 N   0  0  0  0  0  0  0  0  0  0  0  0
   17.6192   -6.8089  -10.0442 C   0  0  0  0  0  0  0  0  0  0  0  0
   18.5757   -6.9613  -11.1603 C   0  0  0  0  0  0  0  0  0  0  0  0
   18.5751   -8.0269  -11.8771 O   0  0  0  0  0  0  0  0  0  0  0  0
   19.5393   -5.9870  -11.5299 N   0  0  0  0  0  0  0  0  0  0  0  0
   20.3905   -6.1547  -12.7019 C   0  0  1  0  0  0  0  0  0  0  0  0
   20.9961   -4.8168  -13.1095 C   0  0  0  0  0  0  0  0  0  0  0  0
   21.7580   -4.8835  -14.3693 C   0  0  0  0  0  0  0  0  0  0  0  0
   21.3103   -5.4876  -15.3708 O   0  0  0  0  0  0  0  0  0  0  0  0
   21.3921   -7.2105  -12.5015 C   0  0  0  0  0  0  0  0  0  0  0  0
   21.9850   -7.3989  -11.4114 O   0  0  0  0  0  0  0  0  0  0  0  0
   22.9954   -4.2765  -14.4786 O   0  0  0  0  0  0  0  0  0  0  0  0
   21.7607   -8.0959  -13.5339 O   0  0  0  0  0  0  0  0  0  0  0  0
  2  4  1  0
  2  1  1  0
  3  2  2  0
  5  6  1  0
  5  4  1  0
  6  7  1  6
  8  6  1  0
  9  8  2  0
 10  8  1  0
 11 10  1  0
 11 12  1  0
 12 14  1  0
 13 12  2  0
 14 15  1  0
 15 19  1  0
 15 16  1  1
 16 17  1  0
 17 18  2  0
 17 21  1  0
 19 22  1  0
 20 19  2  0
M  END
$$$$
