QGD.pdb
     RDKit          3D

 22 21  0  0  1  0  0  0  0  0999 V2000
   22.6903  -14.9771  -19.9763 N   0  0  0  0  0  0  0  0  0  0  0  0
   21.4605  -14.4434  -19.5261 C   0  0  0  0  0  0  0  0  0  0  0  0
   20.4366  -15.1819  -19.5011 O   0  0  0  0  0  0  0  0  0  0  0  0
   21.3966  -13.0247  -19.0916 C   0  0  0  0  0  0  0  0  0  0  0  0
   20.0592  -12.4190  -19.4337 C   0  0  0  0  0  0  0  0  0  0  0  0
   20.1855  -10.9838  -19.8898 C   0  0  2  0  0  0  0  0  0  0  0  0
   21.5376  -10.5788  -20.1033 N   0  0  0  0  0  0  0  0  0  0  0  0
   19.5301  -10.1481  -18.8518 C   0  0  0  0  0  0  0  0  0  0  0  0
   18.3357  -10.3762  -18.5347 O   0  0  0  0  0  0  0  0  0  0  0  0
   20.2599   -9.1048  -18.2323 N   0  0  0  0  0  0  0  0  0  0  0  0
   19.7442   -8.2502  -17.2154 C   0  0  0  0  0  0  0  0  0  0  0  0
   20.6829   -7.2212  -16.7217 C   0  0  0  0  0  0  0  0  0  0  0  0
   21.8638   -7.1260  -17.2173 O   0  0  0  0  0  0  0  0  0  0  0  0
   20.3800   -6.2821  -15.7015 N   0  0  0  0  0  0  0  0  0  0  0  0
   21.3312   -5.2534  -15.2976 C   0  0  1  0  0  0  0  0  0  0  0  0
   20.6287   -3.9068  -15.1695 C   0  0  0  0  0  0  0  0  0  0  0  0
   19.9873   -3.4648  -16.4206 C   0  0  0  0  0  0  0  0  0  0  0  0
   18.7578   -3.2333  -16.4765 O   0  0  0  0  0  0  0  0  0  0  0  0
   22.0727   -5.6407  -14.0900 C   0  0  0  0  0  0  0  0  0  0  0  0
   21.7633   -6.6277  -13.3791 O   0  0  0  0  0  0  0  0  0  0  0  0
   20.7317   -3.2930  -17.5729 O   0  0  0  0  0  0  0  0  0  0  0  0
   23.1975   -4.9202  -13.6412 O   0  0  0  0  0  0  0  0  0  0  0  0
  2  4  1  0
  2  1  1  0
  3  2  2  0
  5  6  1  0
  5  4  1  0
  6  7  1  1
  8  6  1  0
  9  8  2  0
 10  8  1  0
 11 10  1  0
 11 12  1  0
 12 14  1  0
 13 12  2  0
 14 15  1  0
 15 19  1  0
 15 16  1  1
 16 17  1  0
 17 18  2  0
 17 21  1  0
 19 22  1  0
 20 19  2  0
M  END
$$$$
