QGD.pdb
     RDKit          3D

 22 21  0  0  1  0  0  0  0  0999 V2000
   15.9307  -14.9220  -16.1820 N   0  0  0  0  0  0  0  0  0  0  0  0
   17.0773  -15.6685  -16.5397 C   0  0  0  0  0  0  0  0  0  0  0  0
   16.9377  -16.7612  -17.1568 O   0  0  0  0  0  0  0  0  0  0  0  0
   18.4236  -15.1532  -16.1826 C   0  0  0  0  0  0  0  0  0  0  0  0
   18.3231  -13.7988  -15.5285 C   0  0  0  0  0  0  0  0  0  0  0  0
   18.6964  -12.6816  -16.4752 C   0  0  2  0  0  0  0  0  0  0  0  0
   20.0645  -12.7221  -16.8808 N   0  0  0  0  0  0  0  0  0  0  0  0
   18.3781  -11.4092  -15.7787 C   0  0  0  0  0  0  0  0  0  0  0  0
   17.1865  -11.1483  -15.4770 O   0  0  0  0  0  0  0  0  0  0  0  0
   19.4221  -10.5062  -15.4632 N   0  0  0  0  0  0  0  0  0  0  0  0
   19.2314   -9.2247  -14.8701 C   0  0  0  0  0  0  0  0  0  0  0  0
   20.4639   -8.4357  -14.6655 C   0  0  0  0  0  0  0  0  0  0  0  0
   21.6152   -9.0028  -14.7128 O   0  0  0  0  0  0  0  0  0  0  0  0
   20.4900   -7.0394  -14.4119 N   0  0  0  0  0  0  0  0  0  0  0  0
   21.7269   -6.2700  -14.4769 C   0  0  1  0  0  0  0  0  0  0  0  0
   22.0915   -5.9796  -15.9280 C   0  0  0  0  0  0  0  0  0  0  0  0
   23.3949   -5.3079  -16.0763 C   0  0  0  0  0  0  0  0  0  0  0  0
   23.4726   -4.0811  -16.3163 O   0  0  0  0  0  0  0  0  0  0  0  0
   21.6634   -5.0644  -13.6398 C   0  0  0  0  0  0  0  0  0  0  0  0
   22.6654   -4.3558  -13.3765 O   0  0  0  0  0  0  0  0  0  0  0  0
   24.5738   -6.0198  -15.9537 O   0  0  0  0  0  0  0  0  0  0  0  0
   20.4567   -4.6153  -13.0674 O   0  0  0  0  0  0  0  0  0  0  0  0
  2  4  1  0
  2  1  1  0
  3  2  2  0
  5  6  1  0
  5  4  1  0
  6  7  1  1
  8  6  1  0
  9  8  2  0
 10  8  1  0
 11 10  1  0
 11 12  1  0
 12 14  1  0
 13 12  2  0
 14 15  1  0
 15 19  1  0
 15 16  1  6
 16 17  1  0
 17 18  2  0
 17 21  1  0
 19 22  1  0
 20 19  2  0
M  END
$$$$
