QGD.pdb
     RDKit          3D

 22 21  0  0  1  0  0  0  0  0999 V2000
   20.1638  -16.4474  -15.0623 N   0  0  0  0  0  0  0  0  0  0  0  0
   19.3767  -15.4114  -15.6164 C   0  0  0  0  0  0  0  0  0  0  0  0
   18.1250  -15.5582  -15.6943 O   0  0  0  0  0  0  0  0  0  0  0  0
   20.0371  -14.1708  -16.0963 C   0  0  0  0  0  0  0  0  0  0  0  0
   19.4195  -13.7001  -17.3884 C   0  0  0  0  0  0  0  0  0  0  0  0
   19.9104  -12.3272  -17.7858 C   0  0  2  0  0  0  0  0  0  0  0  0
   21.2586  -12.0759  -17.3894 N   0  0  0  0  0  0  0  0  0  0  0  0
   18.9771  -11.3477  -17.1736 C   0  0  0  0  0  0  0  0  0  0  0  0
   17.7435  -11.4458  -17.3922 O   0  0  0  0  0  0  0  0  0  0  0  0
   19.4895  -10.3155  -16.3508 N   0  0  0  0  0  0  0  0  0  0  0  0
   18.6902   -9.3548  -15.6663 C   0  0  0  0  0  0  0  0  0  0  0  0
   19.4435   -8.3176  -14.9314 C   0  0  0  0  0  0  0  0  0  0  0  0
   20.3165   -8.6489  -14.0497 O   0  0  0  0  0  0  0  0  0  0  0  0
   19.2824   -6.9207  -15.1245 N   0  0  0  0  0  0  0  0  0  0  0  0
   20.3568   -5.9770  -14.8394 C   0  0  1  0  0  0  0  0  0  0  0  0
   21.6415   -6.4157  -15.5321 C   0  0  0  0  0  0  0  0  0  0  0  0
   22.7871   -5.5343  -15.2443 C   0  0  0  0  0  0  0  0  0  0  0  0
   22.6757   -4.5493  -14.4788 O   0  0  0  0  0  0  0  0  0  0  0  0
   19.9673   -4.5961  -15.1549 C   0  0  0  0  0  0  0  0  0  0  0  0
   19.1621   -4.3002  -16.0711 O   0  0  0  0  0  0  0  0  0  0  0  0
   24.0229   -5.7737  -15.8161 O   0  0  0  0  0  0  0  0  0  0  0  0
   20.4785   -3.4943  -14.4405 O   0  0  0  0  0  0  0  0  0  0  0  0
  2  4  1  0
  2  1  1  0
  3  2  2  0
  5  6  1  0
  5  4  1  0
  6  7  1  1
  8  6  1  0
  9  8  2  0
 10  8  1  0
 11 10  1  0
 11 12  1  0
 12 14  1  0
 13 12  2  0
 14 15  1  0
 15 19  1  0
 15 16  1  6
 16 17  1  0
 17 18  2  0
 17 21  1  0
 19 22  1  0
 20 19  2  0
M  END
$$$$
