QGD.pdb
     RDKit          3D

 22 21  0  0  1  0  0  0  0  0999 V2000
   20.6964  -24.0216  -14.0721 N   0  0  0  0  0  0  0  0  0  0  0  0
   19.8600  -22.8874  -13.9542 C   0  0  0  0  0  0  0  0  0  0  0  0
   20.0266  -21.9105  -14.7366 O   0  0  0  0  0  0  0  0  0  0  0  0
   18.8018  -22.8668  -12.9123 C   0  0  0  0  0  0  0  0  0  0  0  0
   18.8273  -24.1347  -12.0972 C   0  0  0  0  0  0  0  0  0  0  0  0
   17.8151  -24.1093  -10.9753 C   0  0  2  0  0  0  0  0  0  0  0  0
   17.2773  -22.8093  -10.7329 N   0  0  0  0  0  0  0  0  0  0  0  0
   18.5011  -24.6419   -9.7709 C   0  0  0  0  0  0  0  0  0  0  0  0
   19.1343  -25.7248   -9.8454 O   0  0  0  0  0  0  0  0  0  0  0  0
   18.4333  -23.9222   -8.5533 N   0  0  0  0  0  0  0  0  0  0  0  0
   18.9296  -24.3964   -7.3047 C   0  0  0  0  0  0  0  0  0  0  0  0
   17.9612  -25.1610   -6.4915 C   0  0  0  0  0  0  0  0  0  0  0  0
   16.9188  -25.6773   -7.0355 O   0  0  0  0  0  0  0  0  0  0  0  0
   18.0882  -25.3886   -5.0963 N   0  0  0  0  0  0  0  0  0  0  0  0
   17.0496  -26.0687   -4.3314 C   0  0  1  0  0  0  0  0  0  0  0  0
   17.5898  -26.4942   -2.9712 C   0  0  0  0  0  0  0  0  0  0  0  0
   18.8534  -27.2477   -3.0576 C   0  0  0  0  0  0  0  0  0  0  0  0
   19.0279  -28.1304   -3.9288 O   0  0  0  0  0  0  0  0  0  0  0  0
   15.8221  -25.2663   -4.2456 C   0  0  0  0  0  0  0  0  0  0  0  0
   15.7987  -24.0234   -4.4185 O   0  0  0  0  0  0  0  0  0  0  0  0
   19.8860  -26.9979   -2.1728 O   0  0  0  0  0  0  0  0  0  0  0  0
   14.5699  -25.8454   -3.9592 O   0  0  0  0  0  0  0  0  0  0  0  0
  2  4  1  0
  2  1  1  0
  3  2  2  0
  5  6  1  0
  5  4  1  0
  6  7  1  1
  8  6  1  0
  9  8  2  0
 10  8  1  0
 11 10  1  0
 11 12  1  0
 12 14  1  0
 13 12  2  0
 14 15  1  0
 15 19  1  0
 15 16  1  1
 16 17  1  0
 17 18  2  0
 17 21  1  0
 19 22  1  0
 20 19  2  0
M  END
$$$$
