LYE.pdb
     RDKit          3D

 30 30  0  0  1  0  0  0  0  0999 V2000
   29.0949  -19.0573   -5.9720 C   0  0  0  0  0  0  0  0  0  0  0  0
   28.3398  -20.0776   -6.7972 C   0  0  1  0  0  0  0  0  0  0  0  0
   27.7292  -21.1683   -5.9186 C   0  0  0  0  0  0  0  0  0  0  0  0
   27.2888  -19.4431   -7.6917 C   0  0  0  0  0  0  0  0  0  0  0  0
   26.6108  -20.5020   -8.4820 C   0  0  2  0  0  0  0  0  0  0  0  0
   27.4058  -20.9284   -9.5835 N   0  0  0  0  0  0  0  0  0  0  0  0
   25.2604  -20.1336   -8.9598 C   0  0  0  0  0  0  0  0  0  0  0  0
   24.7909  -18.9691   -8.8440 O   0  0  0  0  0  0  0  0  0  0  0  0
   18.1957  -20.1835  -14.1411 O   0  0  0  0  0  0  0  0  0  0  0  0
   19.3809  -20.5018  -13.5171 C   0  0  0  0  0  0  0  0  0  0  0  0
   19.6600  -21.7629  -13.0435 C   0  0  0  0  0  0  0  0  0  0  0  0
   20.8476  -22.0697  -12.4176 C   0  0  0  0  0  0  0  0  0  0  0  0
   21.8230  -21.0789  -12.2454 C   0  0  0  0  0  0  0  0  0  0  0  0
   23.0695  -21.3433  -11.5263 C   0  0  0  0  0  0  0  0  0  0  0  0
   23.1165  -20.8068  -10.1578 C   0  0  2  0  0  0  0  0  0  0  0  0
   24.4519  -21.0973   -9.5686 N   0  0  0  0  0  0  0  0  0  0  0  0
   22.1638  -21.4011   -9.2256 C   0  0  0  0  0  0  0  0  0  0  0  0
   22.4890  -22.5295   -8.7071 O   0  0  0  0  0  0  0  0  0  0  0  0
   21.5384  -19.8222  -12.7206 C   0  0  0  0  0  0  0  0  0  0  0  0
   20.3544  -19.5424  -13.3384 C   0  0  0  0  0  0  0  0  0  0  0  0
   20.9118  -20.8819   -8.7990 N   0  0  0  0  0  0  0  0  0  0  0  0
   19.8094  -21.6682   -8.3936 C   0  0  1  0  0  0  0  0  0  0  0  0
   18.4445  -21.3498   -8.8279 C   0  0  0  0  0  0  0  0  0  0  0  0
   17.4101  -22.1904   -8.1218 C   0  0  0  0  0  0  0  0  0  0  0  0
   16.1401  -22.1923   -8.8909 C   0  0  0  0  0  0  0  0  0  0  0  0
   16.0725  -21.5451   -9.9611 O   0  0  0  0  0  0  0  0  0  0  0  0
   20.0037  -23.1542   -8.5611 C   0  0  0  0  0  0  0  0  0  0  0  0
   20.1292  -23.6487   -9.8362 O   0  0  0  0  0  0  0  0  0  0  0  0
   15.0650  -22.9095   -8.4051 O   0  0  0  0  0  0  0  0  0  0  0  0
   20.0454  -23.8871   -7.5793 O   0  0  0  0  0  0  0  0  0  0  0  0
  2  1  1  1
  2  3  1  0
  4  2  1  0
  5  4  1  0
  5  6  1  6
  7  5  1  0
  7  8  2  0
  9 10  1  0
 10 11  2  0
 11 12  1  0
 13 12  2  0
 13 14  1  0
 15 14  1  6
 15 16  1  0
 16  7  1  0
 17 15  1  0
 18 17  2  0
 19 13  1  0
 20 10  1  0
 20 19  2  0
 21 17  1  0
 22 21  1  0
 23 24  1  0
 22 23  1  6
 24 25  1  0
 25 26  2  0
 27 22  1  0
 27 28  1  0
 29 25  1  0
 30 27  2  0
M  END
$$$$
