LYE.pdb
     RDKit          3D

 30 30  0  0  1  0  0  0  0  0999 V2000
   31.2663  -20.7039  -19.6117 C   0  0  0  0  0  0  0  0  0  0  0  0
   29.8317  -20.4236  -19.2170 C   0  0  1  0  0  0  0  0  0  0  0  0
   28.8466  -21.0460  -20.2052 C   0  0  0  0  0  0  0  0  0  0  0  0
   29.5231  -20.8528  -17.7930 C   0  0  0  0  0  0  0  0  0  0  0  0
   28.0849  -20.6161  -17.5083 C   0  0  2  0  0  0  0  0  0  0  0  0
   27.7563  -19.2320  -17.5692 N   0  0  0  0  0  0  0  0  0  0  0  0
   27.6189  -21.1791  -16.2225 C   0  0  0  0  0  0  0  0  0  0  0  0
   27.8214  -22.3786  -15.8907 O   0  0  0  0  0  0  0  0  0  0  0  0
   24.9604  -20.5832   -7.7157 O   0  0  0  0  0  0  0  0  0  0  0  0
   25.4617  -20.4551   -8.9915 C   0  0  0  0  0  0  0  0  0  0  0  0
   26.5713  -21.1401   -9.4297 C   0  0  0  0  0  0  0  0  0  0  0  0
   27.0666  -21.0020  -10.7071 C   0  0  0  0  0  0  0  0  0  0  0  0
   26.4347  -20.1391  -11.6120 C   0  0  0  0  0  0  0  0  0  0  0  0
   26.9662  -19.9102  -12.9559 C   0  0  0  0  0  0  0  0  0  0  0  0
   26.4551  -20.8283  -13.9848 C   0  0  2  0  0  0  0  0  0  0  0  0
   26.9236  -20.3690  -15.3205 N   0  0  0  0  0  0  0  0  0  0  0  0
   25.0014  -20.8821  -14.1012 C   0  0  0  0  0  0  0  0  0  0  0  0
   24.4159  -19.8233  -14.5299 O   0  0  0  0  0  0  0  0  0  0  0  0
   25.3274  -19.4584  -11.1685 C   0  0  0  0  0  0  0  0  0  0  0  0
   24.8546  -19.6125   -9.8978 C   0  0  0  0  0  0  0  0  0  0  0  0
   24.1367  -21.9719  -13.8116 N   0  0  0  0  0  0  0  0  0  0  0  0
   22.7250  -21.9120  -13.8475 C   0  0  1  0  0  0  0  0  0  0  0  0
   21.9065  -23.1223  -13.7134 C   0  0  0  0  0  0  0  0  0  0  0  0
   20.4428  -22.8515  -13.9569 C   0  0  0  0  0  0  0  0  0  0  0  0
   19.7484  -24.1042  -14.3478 C   0  0  0  0  0  0  0  0  0  0  0  0
   20.3896  -25.1801  -14.3610 O   0  0  0  0  0  0  0  0  0  0  0  0
   22.1195  -20.8543  -12.9595 C   0  0  0  0  0  0  0  0  0  0  0  0
   20.9652  -20.2412  -13.3812 O   0  0  0  0  0  0  0  0  0  0  0  0
   18.4110  -24.0500  -14.6867 O   0  0  0  0  0  0  0  0  0  0  0  0
   22.6532  -20.5599  -11.8959 O   0  0  0  0  0  0  0  0  0  0  0  0
  2  1  1  6
  2  3  1  0
  4  2  1  0
  5  4  1  0
  5  6  1  1
  7  5  1  0
  7  8  2  0
  9 10  1  0
 10 11  2  0
 11 12  1  0
 13 12  2  0
 13 14  1  0
 15 14  1  1
 15 16  1  0
 16  7  1  0
 17 15  1  0
 18 17  2  0
 19 13  1  0
 20 10  1  0
 20 19  2  0
 21 17  1  0
 22 21  1  0
 23 24  1  0
 22 23  1  1
 24 25  1  0
 25 26  2  0
 27 22  1  0
 27 28  1  0
 29 25  1  0
 30 27  2  0
M  END
$$$$
