LYE.pdb
     RDKit          3D

 30 30  0  0  1  0  0  0  0  0999 V2000
   26.1762  -22.8425  -20.4872 C   0  0  0  0  0  0  0  0  0  0  0  0
   27.0800  -22.9442  -19.2767 C   0  0  1  0  0  0  0  0  0  0  0  0
   28.2094  -21.9168  -19.3323 C   0  0  0  0  0  0  0  0  0  0  0  0
   26.3159  -22.8473  -17.9675 C   0  0  0  0  0  0  0  0  0  0  0  0
   27.1663  -23.3583  -16.8624 C   0  0  2  0  0  0  0  0  0  0  0  0
   27.5445  -24.7149  -17.0723 N   0  0  0  0  0  0  0  0  0  0  0  0
   26.5674  -23.2141  -15.5177 C   0  0  0  0  0  0  0  0  0  0  0  0
   25.8938  -24.1286  -14.9703 O   0  0  0  0  0  0  0  0  0  0  0  0
   25.7545  -20.2495   -7.2734 O   0  0  0  0  0  0  0  0  0  0  0  0
   26.0529  -20.3505   -8.6136 C   0  0  0  0  0  0  0  0  0  0  0  0
   25.2960  -19.7521   -9.5942 C   0  0  0  0  0  0  0  0  0  0  0  0
   25.6016  -19.8625  -10.9323 C   0  0  0  0  0  0  0  0  0  0  0  0
   26.7191  -20.6052  -11.3349 C   0  0  0  0  0  0  0  0  0  0  0  0
   27.0414  -20.8054  -12.7480 C   0  0  0  0  0  0  0  0  0  0  0  0
   26.1965  -21.7914  -13.4385 C   0  0  2  0  0  0  0  0  0  0  0  0
   26.7411  -22.0254  -14.8036 N   0  0  0  0  0  0  0  0  0  0  0  0
   24.8141  -21.3783  -13.6578 C   0  0  0  0  0  0  0  0  0  0  0  0
   24.5970  -20.5842  -14.6427 O   0  0  0  0  0  0  0  0  0  0  0  0
   27.4707  -21.1999  -10.3513 C   0  0  0  0  0  0  0  0  0  0  0  0
   27.1484  -21.0755   -9.0312 C   0  0  0  0  0  0  0  0  0  0  0  0
   23.6576  -21.7551  -12.9231 N   0  0  0  0  0  0  0  0  0  0  0  0
   22.3427  -21.3262  -13.2144 C   0  0  1  0  0  0  0  0  0  0  0  0
   21.2149  -22.2647  -13.2064 C   0  0  0  0  0  0  0  0  0  0  0  0
   19.9131  -21.5959  -13.5714 C   0  0  0  0  0  0  0  0  0  0  0  0
   18.8016  -22.5792  -13.5251 C   0  0  0  0  0  0  0  0  0  0  0  0
   19.0532  -23.7733  -13.2429 O   0  0  0  0  0  0  0  0  0  0  0  0
   21.9079  -20.0882  -12.4714 C   0  0  0  0  0  0  0  0  0  0  0  0
   21.1069  -19.1881  -13.1305 O   0  0  0  0  0  0  0  0  0  0  0  0
   17.5173  -22.1501  -13.7945 O   0  0  0  0  0  0  0  0  0  0  0  0
   22.2671  -19.9033  -11.3140 O   0  0  0  0  0  0  0  0  0  0  0  0
  2  1  1  6
  2  3  1  0
  4  2  1  0
  5  4  1  0
  5  6  1  6
  7  5  1  0
  7  8  2  0
  9 10  1  0
 10 11  2  0
 11 12  1  0
 13 12  2  0
 13 14  1  0
 15 14  1  6
 15 16  1  0
 16  7  1  0
 17 15  1  0
 18 17  2  0
 19 13  1  0
 20 10  1  0
 20 19  2  0
 21 17  1  0
 22 21  1  0
 23 24  1  0
 22 23  1  1
 24 25  1  0
 25 26  2  0
 27 22  1  0
 27 28  1  0
 29 25  1  0
 30 27  2  0
M  END
$$$$
