LYE.pdb
     RDKit          3D

 30 30  0  0  1  0  0  0  0  0999 V2000
   26.7436  -21.0310  -20.7209 C   0  0  0  0  0  0  0  0  0  0  0  0
   27.4050  -21.4129  -19.4136 C   0  0  1  0  0  0  0  0  0  0  0  0
   28.4172  -20.3585  -18.9684 C   0  0  0  0  0  0  0  0  0  0  0  0
   26.3992  -21.7047  -18.3134 C   0  0  0  0  0  0  0  0  0  0  0  0
   27.1050  -22.2838  -17.1421 C   0  0  2  0  0  0  0  0  0  0  0  0
   27.7585  -23.5052  -17.4713 N   0  0  0  0  0  0  0  0  0  0  0  0
   26.2473  -22.4861  -15.9543 C   0  0  0  0  0  0  0  0  0  0  0  0
   25.6216  -23.5598  -15.7407 O   0  0  0  0  0  0  0  0  0  0  0  0
   23.0394  -20.4589   -7.8594 O   0  0  0  0  0  0  0  0  0  0  0  0
   23.7651  -20.5847   -9.0225 C   0  0  0  0  0  0  0  0  0  0  0  0
   25.0342  -21.1146   -9.0569 C   0  0  0  0  0  0  0  0  0  0  0  0
   25.7528  -21.2328  -10.2256 C   0  0  0  0  0  0  0  0  0  0  0  0
   25.1927  -20.8055  -11.4365 C   0  0  0  0  0  0  0  0  0  0  0  0
   25.9457  -20.8492  -12.6903 C   0  0  0  0  0  0  0  0  0  0  0  0
   25.2786  -21.5709  -13.7843 C   0  0  2  0  0  0  0  0  0  0  0  0
   26.1084  -21.4609  -15.0148 N   0  0  0  0  0  0  0  0  0  0  0  0
   23.9736  -21.0438  -14.1700 C   0  0  0  0  0  0  0  0  0  0  0  0
   23.9645  -19.9238  -14.7971 O   0  0  0  0  0  0  0  0  0  0  0  0
   23.9254  -20.2778  -11.3955 C   0  0  0  0  0  0  0  0  0  0  0  0
   23.2324  -20.1717  -10.2249 C   0  0  0  0  0  0  0  0  0  0  0  0
   22.6936  -21.6213  -13.9522 N   0  0  0  0  0  0  0  0  0  0  0  0
   21.4683  -21.0362  -14.3445 C   0  0  1  0  0  0  0  0  0  0  0  0
   21.0534  -21.0061  -15.7516 C   0  0  0  0  0  0  0  0  0  0  0  0
   21.1703  -22.3581  -16.4103 C   0  0  0  0  0  0  0  0  0  0  0  0
   20.8858  -22.2462  -17.8631 C   0  0  0  0  0  0  0  0  0  0  0  0
   19.7465  -21.8840  -18.2369 O   0  0  0  0  0  0  0  0  0  0  0  0
   20.2764  -21.4707  -13.5293 C   0  0  0  0  0  0  0  0  0  0  0  0
   20.4428  -22.5090  -12.6461 O   0  0  0  0  0  0  0  0  0  0  0  0
   21.8871  -22.5444  -18.7657 O   0  0  0  0  0  0  0  0  0  0  0  0
   19.1969  -20.9052  -13.6623 O   0  0  0  0  0  0  0  0  0  0  0  0
  2  1  1  6
  2  3  1  0
  4  2  1  0
  5  4  1  0
  5  6  1  6
  7  5  1  0
  7  8  2  0
  9 10  1  0
 10 11  2  0
 11 12  1  0
 13 12  2  0
 13 14  1  0
 15 14  1  1
 15 16  1  0
 16  7  1  0
 17 15  1  0
 18 17  2  0
 19 13  1  0
 20 10  1  0
 20 19  2  0
 21 17  1  0
 22 21  1  0
 23 24  1  0
 22 23  1  6
 24 25  1  0
 25 26  2  0
 27 22  1  0
 27 28  1  0
 29 25  1  0
 30 27  2  0
M  END
$$$$
