LYE.pdb
     RDKit          3D

 30 30  0  0  1  0  0  0  0  0999 V2000
   26.1392  -19.1348  -21.8892 C   0  0  0  0  0  0  0  0  0  0  0  0
   25.2279  -18.7635  -20.7385 C   0  0  1  0  0  0  0  0  0  0  0  0
   23.9515  -18.0834  -21.2312 C   0  0  0  0  0  0  0  0  0  0  0  0
   24.9064  -19.9472  -19.8425 C   0  0  0  0  0  0  0  0  0  0  0  0
   23.9869  -19.5105  -18.7611 C   0  0  2  0  0  0  0  0  0  0  0  0
   24.5525  -18.4639  -17.9787 N   0  0  0  0  0  0  0  0  0  0  0  0
   23.5315  -20.6017  -17.8726 C   0  0  0  0  0  0  0  0  0  0  0  0
   23.0576  -21.6846  -18.3113 O   0  0  0  0  0  0  0  0  0  0  0  0
   27.8144  -25.6373  -16.9557 O   0  0  0  0  0  0  0  0  0  0  0  0
   26.9537  -24.7028  -16.4253 C   0  0  0  0  0  0  0  0  0  0  0  0
   27.1795  -23.3483  -16.5077 C   0  0  0  0  0  0  0  0  0  0  0  0
   26.3136  -22.4221  -15.9705 C   0  0  0  0  0  0  0  0  0  0  0  0
   25.1535  -22.8498  -15.3118 C   0  0  0  0  0  0  0  0  0  0  0  0
   24.2417  -21.9042  -14.6675 C   0  0  0  0  0  0  0  0  0  0  0  0
   23.1217  -21.4578  -15.5095 C   0  0  2  0  0  0  0  0  0  0  0  0
   23.6201  -20.4514  -16.4860 N   0  0  0  0  0  0  0  0  0  0  0  0
   22.0426  -20.7799  -14.7982 C   0  0  0  0  0  0  0  0  0  0  0  0
   22.1829  -19.5194  -14.6000 O   0  0  0  0  0  0  0  0  0  0  0  0
   24.9337  -24.2032  -15.2332 C   0  0  0  0  0  0  0  0  0  0  0  0
   25.8062  -25.1021  -15.7742 C   0  0  0  0  0  0  0  0  0  0  0  0
   20.8333  -21.3359  -14.3007 N   0  0  0  0  0  0  0  0  0  0  0  0
   19.6205  -20.6252  -14.1529 C   0  0  1  0  0  0  0  0  0  0  0  0
   19.1867  -19.6411  -15.1511 C   0  0  0  0  0  0  0  0  0  0  0  0
   17.9040  -18.9534  -14.7548 C   0  0  0  0  0  0  0  0  0  0  0  0
   16.8178  -19.3106  -15.7018 C   0  0  0  0  0  0  0  0  0  0  0  0
   17.1106  -19.6171  -16.8805 O   0  0  0  0  0  0  0  0  0  0  0  0
   18.4279  -21.4835  -13.8141 C   0  0  0  0  0  0  0  0  0  0  0  0
   17.3876  -20.9021  -13.1317 O   0  0  0  0  0  0  0  0  0  0  0  0
   15.5108  -19.2959  -15.2570 O   0  0  0  0  0  0  0  0  0  0  0  0
   18.4020  -22.6640  -14.1435 O   0  0  0  0  0  0  0  0  0  0  0  0
  2  1  1  6
  2  3  1  0
  4  2  1  0
  5  4  1  0
  5  6  1  1
  7  5  1  0
  7  8  2  0
  9 10  1  0
 10 11  2  0
 11 12  1  0
 13 12  2  0
 13 14  1  0
 15 14  1  1
 15 16  1  0
 16  7  1  0
 17 15  1  0
 18 17  2  0
 19 13  1  0
 20 10  1  0
 20 19  2  0
 21 17  1  0
 22 21  1  0
 23 24  1  0
 22 23  1  6
 24 25  1  0
 25 26  2  0
 27 22  1  0
 27 28  1  0
 29 25  1  0
 30 27  2  0
M  END
$$$$
