LYE.pdb
     RDKit          3D

 30 30  0  0  1  0  0  0  0  0999 V2000
   36.1764   -7.2175  -13.6830 C   0  0  0  0  0  0  0  0  0  0  0  0
   37.5728   -7.7362  -13.4118 C   0  0  1  0  0  0  0  0  0  0  0  0
   38.6365   -6.7058  -13.7877 C   0  0  0  0  0  0  0  0  0  0  0  0
   37.7520   -8.2103  -11.9798 C   0  0  0  0  0  0  0  0  0  0  0  0
   39.1323   -8.7286  -11.8021 C   0  0  2  0  0  0  0  0  0  0  0  0
   39.3475   -9.9221  -12.5480 N   0  0  0  0  0  0  0  0  0  0  0  0
   39.5221   -8.9491  -10.3925 C   0  0  0  0  0  0  0  0  0  0  0  0
   38.9395   -9.7824   -9.6468 O   0  0  0  0  0  0  0  0  0  0  0  0
   44.5965  -10.2626   -3.4853 O   0  0  0  0  0  0  0  0  0  0  0  0
   43.9669  -10.1215   -4.7015 C   0  0  0  0  0  0  0  0  0  0  0  0
   44.6292   -9.7388   -5.8449 C   0  0  0  0  0  0  0  0  0  0  0  0
   43.9890   -9.5974   -7.0559 C   0  0  0  0  0  0  0  0  0  0  0  0
   42.6139   -9.8470   -7.1526 C   0  0  0  0  0  0  0  0  0  0  0  0
   41.8811   -9.6433   -8.4026 C   0  0  0  0  0  0  0  0  0  0  0  0
   41.0834   -8.4090   -8.4545 C   0  0  2  0  0  0  0  0  0  0  0  0
   40.5768   -8.2168   -9.8406 N   0  0  0  0  0  0  0  0  0  0  0  0
   41.8170   -7.1833   -8.1557 C   0  0  0  0  0  0  0  0  0  0  0  0
   42.6508   -6.7773   -9.0433 O   0  0  0  0  0  0  0  0  0  0  0  0
   41.9586  -10.2289   -6.0077 C   0  0  0  0  0  0  0  0  0  0  0  0
   42.6149  -10.3632   -4.8189 C   0  0  0  0  0  0  0  0  0  0  0  0
   41.7193   -6.3602   -7.0015 N   0  0  0  0  0  0  0  0  0  0  0  0
   42.5556   -5.2542   -6.7274 C   0  0  1  0  0  0  0  0  0  0  0  0
   42.1578   -4.2160   -5.7699 C   0  0  0  0  0  0  0  0  0  0  0  0
   40.7847   -3.6649   -6.0631 C   0  0  0  0  0  0  0  0  0  0  0  0
   40.4125   -2.6495   -5.0459 C   0  0  0  0  0  0  0  0  0  0  0  0
   41.2237   -1.7364   -4.7683 O   0  0  0  0  0  0  0  0  0  0  0  0
   43.9922   -5.6105   -6.4394 C   0  0  0  0  0  0  0  0  0  0  0  0
   44.9123   -4.5920   -6.3910 O   0  0  0  0  0  0  0  0  0  0  0  0
   39.1790   -2.7385   -4.4320 O   0  0  0  0  0  0  0  0  0  0  0  0
   44.3150   -6.7789   -6.2568 O   0  0  0  0  0  0  0  0  0  0  0  0
  2  1  1  1
  2  3  1  0
  4  2  1  0
  5  4  1  0
  5  6  1  6
  7  5  1  0
  7  8  2  0
  9 10  1  0
 10 11  2  0
 11 12  1  0
 13 12  2  0
 13 14  1  0
 15 14  1  6
 15 16  1  0
 16  7  1  0
 17 15  1  0
 18 17  2  0
 19 13  1  0
 20 10  1  0
 20 19  2  0
 21 17  1  0
 22 21  1  0
 23 24  1  0
 22 23  1  1
 24 25  1  0
 25 26  2  0
 27 22  1  0
 27 28  1  0
 29 25  1  0
 30 27  2  0
M  END
$$$$
