DIQ.pdb
     RDKit          3D

 26 25  0  0  1  0  0  0  0  0999 V2000
    9.1244  -15.2944   20.5251 N   0  0  0  0  0  0  0  0  0  0  0  0
    8.1782  -15.7196   21.5379 C   0  0  1  0  0  0  0  0  0  0  0  0
    8.0291  -17.2211   21.5490 C   0  0  0  0  0  0  0  0  0  0  0  0
    7.4828  -17.7354   20.2786 C   0  0  0  0  0  0  0  0  0  0  0  0
    6.3585  -17.3627   19.8591 O   0  0  0  0  0  0  0  0  0  0  0  0
    8.7313  -15.2963   22.8620 C   0  0  0  0  0  0  0  0  0  0  0  0
    9.9707  -15.3201   23.0702 O   0  0  0  0  0  0  0  0  0  0  0  0
    8.1780  -18.6464   19.4947 O   0  0  0  0  0  0  0  0  0  0  0  0
    6.0533  -11.5218   25.7806 C   0  0  0  0  0  0  0  0  0  0  0  0
    7.1738  -12.3066   25.0734 C   0  0  0  0  0  0  0  0  0  0  0  0
    7.3763  -13.5465   25.8936 C   0  0  2  0  0  0  0  0  0  0  0  0
    7.9036  -13.1153   27.2591 C   0  0  0  0  0  0  0  0  0  0  0  0
    8.2877  -14.4791   25.2295 C   0  0  2  0  0  0  0  0  0  0  0  0
    7.8992  -14.8692   23.8929 N   0  0  0  0  0  0  0  0  0  0  0  0
    8.3875  -15.7582   25.9973 C   0  0  0  0  0  0  0  0  0  0  0  0
    7.4653  -16.5878   26.1396 O   0  0  0  0  0  0  0  0  0  0  0  0
   12.3025  -19.8016   24.6088 N   0  0  0  0  0  0  0  0  0  0  0  0
   12.7845  -18.6205   25.2413 C   0  0  0  0  0  0  0  0  0  0  0  0
   13.9604  -18.2401   24.9317 O   0  0  0  0  0  0  0  0  0  0  0  0
   11.9753  -17.8541   26.2085 C   0  0  0  0  0  0  0  0  0  0  0  0
   10.5532  -18.2255   26.3084 C   0  0  0  0  0  0  0  0  0  0  0  0
    9.7460  -17.4358   27.2596 C   0  0  2  0  0  0  0  0  0  0  0  0
    9.6152  -16.0826   26.6275 N   0  0  0  0  0  0  0  0  0  0  0  0
   10.3942  -17.1721   28.5389 C   0  0  0  0  0  0  0  0  0  0  0  0
   10.7694  -15.9076   28.9435 O   0  0  0  0  0  0  0  0  0  0  0  0
   10.6398  -18.1251   29.3432 O   0  0  0  0  0  0  0  0  0  0  0  0
  2  3  1  0
  2  1  1  6
  4  8  1  0
  4  3  1  0
  5  4  2  0
  6  2  1  0
  7  6  2  0
  9 10  1  0
 10 11  1  0
 11 13  1  0
 11 12  1  1
 13 14  1  6
 14  6  1  0
 15 13  1  0
 15 23  1  0
 16 15  2  0
 18 17  1  0
 19 18  2  0
 20 18  1  0
 22 21  1  6
 21 20  1  0
 22 24  1  0
 22 23  1  0
 24 25  1  0
 26 24  2  0
M  END
$$$$
