DIQ.pdb
     RDKit          3D

 26 25  0  0  1  0  0  0  0  0999 V2000
    8.2440  -17.8246   17.3992 N   0  0  0  0  0  0  0  0  0  0  0  0
    9.6867  -17.7138   17.4906 C   0  0  1  0  0  0  0  0  0  0  0  0
   10.2723  -17.1523   16.2183 C   0  0  0  0  0  0  0  0  0  0  0  0
   10.2765  -18.1416   15.1237 C   0  0  0  0  0  0  0  0  0  0  0  0
    9.5750  -19.1821   15.1885 O   0  0  0  0  0  0  0  0  0  0  0  0
    9.9849  -16.7582   18.6024 C   0  0  0  0  0  0  0  0  0  0  0  0
   11.1739  -16.4744   18.8951 O   0  0  0  0  0  0  0  0  0  0  0  0
   11.0481  -17.9714   13.9821 O   0  0  0  0  0  0  0  0  0  0  0  0
    6.7741  -12.4852   19.6899 C   0  0  0  0  0  0  0  0  0  0  0  0
    8.0788  -13.2912   19.5501 C   0  0  0  0  0  0  0  0  0  0  0  0
    8.0459  -14.3050   20.6556 C   0  0  2  0  0  0  0  0  0  0  0  0
    8.1754  -13.5518   21.9763 C   0  0  0  0  0  0  0  0  0  0  0  0
    9.1049  -15.3019   20.4931 C   0  0  2  0  0  0  0  0  0  0  0  0
    8.9657  -16.1619   19.3394 N   0  0  0  0  0  0  0  0  0  0  0  0
    9.1461  -16.2261   21.6676 C   0  0  0  0  0  0  0  0  0  0  0  0
    8.2630  -17.0582   21.9619 O   0  0  0  0  0  0  0  0  0  0  0  0
   13.0301  -21.3354   23.9694 N   0  0  0  0  0  0  0  0  0  0  0  0
   13.0386  -19.9133   23.9005 C   0  0  0  0  0  0  0  0  0  0  0  0
   14.1246  -19.3612   23.5272 O   0  0  0  0  0  0  0  0  0  0  0  0
   11.8555  -19.0975   24.2354 C   0  0  0  0  0  0  0  0  0  0  0  0
   11.4498  -18.0951   23.2350 C   0  0  0  0  0  0  0  0  0  0  0  0
   10.3497  -17.1949   23.6339 C   0  0  2  0  0  0  0  0  0  0  0  0
   10.2647  -16.1762   22.5372 N   0  0  0  0  0  0  0  0  0  0  0  0
   10.6089  -16.4080   24.8339 C   0  0  0  0  0  0  0  0  0  0  0  0
   10.3864  -16.8876   26.1083 O   0  0  0  0  0  0  0  0  0  0  0  0
   11.0607  -15.2237   24.7405 O   0  0  0  0  0  0  0  0  0  0  0  0
  2  3  1  0
  2  1  1  6
  4  8  1  0
  4  3  1  0
  5  4  2  0
  6  2  1  0
  7  6  2  0
  9 10  1  0
 10 11  1  0
 11 13  1  0
 11 12  1  1
 13 14  1  6
 14  6  1  0
 15 13  1  0
 15 23  1  0
 16 15  2  0
 18 17  1  0
 19 18  2  0
 20 18  1  0
 22 21  1  6
 21 20  1  0
 22 24  1  0
 22 23  1  0
 24 25  1  0
 26 24  2  0
M  END
$$$$
