DIQ.pdb
     RDKit          3D

 26 25  0  0  1  0  0  0  0  0999 V2000
    7.9643  -14.6638   20.8986 N   0  0  0  0  0  0  0  0  0  0  0  0
    8.0510  -15.8507   21.7266 C   0  0  1  0  0  0  0  0  0  0  0  0
    8.9631  -16.8816   21.1083 C   0  0  0  0  0  0  0  0  0  0  0  0
    8.4794  -17.3331   19.7896 C   0  0  0  0  0  0  0  0  0  0  0  0
    7.8716  -16.5482   19.0193 O   0  0  0  0  0  0  0  0  0  0  0  0
    8.6412  -15.4315   23.0359 C   0  0  0  0  0  0  0  0  0  0  0  0
    9.8852  -15.4669   23.2129 O   0  0  0  0  0  0  0  0  0  0  0  0
    8.6709  -18.6334   19.3421 O   0  0  0  0  0  0  0  0  0  0  0  0
    5.9143  -11.7464   26.0743 C   0  0  0  0  0  0  0  0  0  0  0  0
    7.0736  -12.4477   25.3424 C   0  0  0  0  0  0  0  0  0  0  0  0
    7.3337  -13.7075   26.1145 C   0  0  2  0  0  0  0  0  0  0  0  0
    7.8666  -13.3058   27.4868 C   0  0  0  0  0  0  0  0  0  0  0  0
    8.2676  -14.5820   25.4042 C   0  0  2  0  0  0  0  0  0  0  0  0
    7.8393  -14.9955   24.0868 N   0  0  0  0  0  0  0  0  0  0  0  0
    8.4836  -15.8524   26.1624 C   0  0  0  0  0  0  0  0  0  0  0  0
    7.6235  -16.7392   26.3437 O   0  0  0  0  0  0  0  0  0  0  0  0
   12.4575  -19.5724   24.3158 N   0  0  0  0  0  0  0  0  0  0  0  0
   12.2931  -20.0929   25.6309 C   0  0  0  0  0  0  0  0  0  0  0  0
   12.8718  -21.1982   25.8894 O   0  0  0  0  0  0  0  0  0  0  0  0
   11.4994  -19.3989   26.6633 C   0  0  0  0  0  0  0  0  0  0  0  0
   10.9154  -18.1032   26.2758 C   0  0  0  0  0  0  0  0  0  0  0  0
   10.0331  -17.4690   27.2754 C   0  0  2  0  0  0  0  0  0  0  0  0
    9.7569  -16.0980   26.7352 N   0  0  0  0  0  0  0  0  0  0  0  0
   10.6551  -17.2244   28.5714 C   0  0  0  0  0  0  0  0  0  0  0  0
   10.7947  -18.2034   29.5335 O   0  0  0  0  0  0  0  0  0  0  0  0
   11.1006  -16.0702   28.8627 O   0  0  0  0  0  0  0  0  0  0  0  0
  2  3  1  0
  2  1  1  6
  4  8  1  0
  4  3  1  0
  5  4  2  0
  6  2  1  0
  7  6  2  0
  9 10  1  0
 10 11  1  0
 11 13  1  0
 11 12  1  1
 13 14  1  6
 14  6  1  0
 15 13  1  0
 15 23  1  0
 16 15  2  0
 18 17  1  0
 19 18  2  0
 20 18  1  0
 22 21  1  6
 21 20  1  0
 22 24  1  0
 22 23  1  0
 24 25  1  0
 26 24  2  0
M  END
$$$$
