DIQ.pdb
     RDKit          3D

 26 25  0  0  1  0  0  0  0  0999 V2000
    8.3832  -14.6322   20.2257 N   0  0  0  0  0  0  0  0  0  0  0  0
    7.6159  -15.2248   21.3037 C   0  0  1  0  0  0  0  0  0  0  0  0
    7.5578  -16.7267   21.1703 C   0  0  0  0  0  0  0  0  0  0  0  0
    6.5081  -17.1615   20.2291 C   0  0  0  0  0  0  0  0  0  0  0  0
    5.3185  -17.3054   20.6072 O   0  0  0  0  0  0  0  0  0  0  0  0
    8.3248  -14.8972   22.5798 C   0  0  0  0  0  0  0  0  0  0  0  0
    9.5787  -14.9563   22.6438 O   0  0  0  0  0  0  0  0  0  0  0  0
    6.7825  -17.4298   18.8948 O   0  0  0  0  0  0  0  0  0  0  0  0
    5.9422  -11.5550   26.2958 C   0  0  0  0  0  0  0  0  0  0  0  0
    7.0311  -12.1593   25.3899 C   0  0  0  0  0  0  0  0  0  0  0  0
    7.3019  -13.5271   25.9437 C   0  0  2  0  0  0  0  0  0  0  0  0
    7.9345  -13.3503   27.3211 C   0  0  0  0  0  0  0  0  0  0  0  0
    8.1608  -14.3021   25.0474 C   0  0  2  0  0  0  0  0  0  0  0  0
    7.6246  -14.5223   23.7230 N   0  0  0  0  0  0  0  0  0  0  0  0
    8.4080  -15.6684   25.6019 C   0  0  0  0  0  0  0  0  0  0  0  0
    7.5639  -16.5866   25.6602 O   0  0  0  0  0  0  0  0  0  0  0  0
   13.6086  -18.4451   24.8624 N   0  0  0  0  0  0  0  0  0  0  0  0
   12.8339  -19.4646   25.4851 C   0  0  0  0  0  0  0  0  0  0  0  0
   13.4273  -20.5620   25.7437 O   0  0  0  0  0  0  0  0  0  0  0  0
   11.4109  -19.2786   25.8289 C   0  0  0  0  0  0  0  0  0  0  0  0
   10.8329  -17.9587   25.5226 C   0  0  0  0  0  0  0  0  0  0  0  0
    9.9556  -17.3825   26.5609 C   0  0  2  0  0  0  0  0  0  0  0  0
    9.6944  -15.9762   26.1118 N   0  0  0  0  0  0  0  0  0  0  0  0
   10.5780  -17.2301   27.8708 C   0  0  0  0  0  0  0  0  0  0  0  0
   11.1347  -16.0442   28.3037 O   0  0  0  0  0  0  0  0  0  0  0  0
   10.6279  -18.2117   28.6766 O   0  0  0  0  0  0  0  0  0  0  0  0
  2  3  1  0
  2  1  1  6
  4  8  1  0
  4  3  1  0
  5  4  2  0
  6  2  1  0
  7  6  2  0
  9 10  1  0
 10 11  1  0
 11 13  1  0
 11 12  1  1
 13 14  1  6
 14  6  1  0
 15 13  1  0
 15 23  1  0
 16 15  2  0
 18 17  1  0
 19 18  2  0
 20 18  1  0
 22 21  1  6
 21 20  1  0
 22 24  1  0
 22 23  1  0
 24 25  1  0
 26 24  2  0
M  END
$$$$
