DIQ.pdb
     RDKit          3D

 26 25  0  0  1  0  0  0  0  0999 V2000
    6.7645  -16.3724   22.0759 N   0  0  0  0  0  0  0  0  0  0  0  0
    8.0953  -15.9959   21.6411 C   0  0  1  0  0  0  0  0  0  0  0  0
    8.0392  -15.0870   20.4379 C   0  0  0  0  0  0  0  0  0  0  0  0
    7.5981  -15.7987   19.2230 C   0  0  0  0  0  0  0  0  0  0  0  0
    7.2814  -17.0140   19.2635 O   0  0  0  0  0  0  0  0  0  0  0  0
    8.7285  -15.2406   22.7666 C   0  0  0  0  0  0  0  0  0  0  0  0
    9.7646  -14.5567   22.5699 O   0  0  0  0  0  0  0  0  0  0  0  0
    7.5132  -15.1656   17.9903 O   0  0  0  0  0  0  0  0  0  0  0  0
    5.7468  -12.3690   26.0569 C   0  0  0  0  0  0  0  0  0  0  0  0
    6.9589  -12.8062   25.2135 C   0  0  0  0  0  0  0  0  0  0  0  0
    7.6263  -13.8944   26.0018 C   0  0  2  0  0  0  0  0  0  0  0  0
    8.1901  -13.2644   27.2722 C   0  0  0  0  0  0  0  0  0  0  0  0
    8.6680  -14.5566   25.2158 C   0  0  2  0  0  0  0  0  0  0  0  0
    8.1961  -15.2732   24.0523 N   0  0  0  0  0  0  0  0  0  0  0  0
    9.3844  -15.5774   26.0404 C   0  0  0  0  0  0  0  0  0  0  0  0
   10.0360  -15.3380   27.0783 O   0  0  0  0  0  0  0  0  0  0  0  0
   13.9838  -17.3484   23.8085 N   0  0  0  0  0  0  0  0  0  0  0  0
   13.9814  -18.1847   24.9609 C   0  0  0  0  0  0  0  0  0  0  0  0
   15.0838  -18.7444   25.2686 O   0  0  0  0  0  0  0  0  0  0  0  0
   12.7723  -18.4024   25.7783 C   0  0  0  0  0  0  0  0  0  0  0  0
   11.5522  -17.7048   25.3371 C   0  0  0  0  0  0  0  0  0  0  0  0
   10.3662  -17.8717   26.2006 C   0  0  2  0  0  0  0  0  0  0  0  0
    9.3403  -16.9354   25.6361 N   0  0  0  0  0  0  0  0  0  0  0  0
   10.5438  -17.4209   27.5760 C   0  0  0  0  0  0  0  0  0  0  0  0
   10.6212  -18.2886   28.6459 O   0  0  0  0  0  0  0  0  0  0  0  0
   10.6357  -16.1809   27.8390 O   0  0  0  0  0  0  0  0  0  0  0  0
  2  3  1  0
  2  1  1  1
  4  8  1  0
  4  3  1  0
  5  4  2  0
  6  2  1  0
  7  6  2  0
  9 10  1  0
 10 11  1  0
 11 13  1  0
 11 12  1  1
 13 14  1  6
 14  6  1  0
 15 13  1  0
 15 23  1  0
 16 15  2  0
 18 17  1  0
 19 18  2  0
 20 18  1  0
 22 21  1  6
 21 20  1  0
 22 24  1  0
 22 23  1  0
 24 25  1  0
 26 24  2  0
M  END
$$$$
