DIQ.pdb
     RDKit          3D

 26 25  0  0  1  0  0  0  0  0999 V2000
    9.9255  -17.7763   16.7493 N   0  0  0  0  0  0  0  0  0  0  0  0
    9.0268  -17.9967   17.8653 C   0  0  1  0  0  0  0  0  0  0  0  0
    9.1590  -19.4003   18.4031 C   0  0  0  0  0  0  0  0  0  0  0  0
    8.8959  -20.4194   17.3691 C   0  0  0  0  0  0  0  0  0  0  0  0
    9.3581  -21.5831   17.4744 O   0  0  0  0  0  0  0  0  0  0  0  0
    9.4267  -17.0435   18.9469 C   0  0  0  0  0  0  0  0  0  0  0  0
   10.6402  -16.8722   19.2267 O   0  0  0  0  0  0  0  0  0  0  0  0
    8.1331  -20.1434   16.2424 O   0  0  0  0  0  0  0  0  0  0  0  0
    6.4310  -12.5418   19.7385 C   0  0  0  0  0  0  0  0  0  0  0  0
    7.6713  -13.4412   19.5829 C   0  0  0  0  0  0  0  0  0  0  0  0
    7.7049  -14.2971   20.8147 C   0  0  2  0  0  0  0  0  0  0  0  0
    7.9661  -13.3804   22.0063 C   0  0  0  0  0  0  0  0  0  0  0  0
    8.7191  -15.3463   20.7043 C   0  0  2  0  0  0  0  0  0  0  0  0
    8.4774  -16.3263   19.6694 N   0  0  0  0  0  0  0  0  0  0  0  0
    8.8083  -16.1313   21.9737 C   0  0  0  0  0  0  0  0  0  0  0  0
    7.9751  -16.9780   22.3581 O   0  0  0  0  0  0  0  0  0  0  0  0
   11.3023  -20.7518   21.0212 N   0  0  0  0  0  0  0  0  0  0  0  0
   12.1016  -20.1880   22.0557 C   0  0  0  0  0  0  0  0  0  0  0  0
   13.3357  -20.5047   22.0676 O   0  0  0  0  0  0  0  0  0  0  0  0
   11.5491  -19.2731   23.0733 C   0  0  0  0  0  0  0  0  0  0  0  0
   10.9468  -18.0260   22.5710 C   0  0  0  0  0  0  0  0  0  0  0  0
   10.4481  -17.0912   23.5993 C   0  0  2  0  0  0  0  0  0  0  0  0
    9.9161  -15.9181   22.8322 N   0  0  0  0  0  0  0  0  0  0  0  0
   11.4796  -16.5199   24.4572 C   0  0  0  0  0  0  0  0  0  0  0  0
   12.1169  -15.3295   24.1736 O   0  0  0  0  0  0  0  0  0  0  0  0
   11.8329  -17.1168   25.5222 O   0  0  0  0  0  0  0  0  0  0  0  0
  2  3  1  0
  2  1  1  6
  4  8  1  0
  4  3  1  0
  5  4  2  0
  6  2  1  0
  7  6  2  0
  9 10  1  0
 10 11  1  0
 11 13  1  0
 11 12  1  1
 13 14  1  6
 14  6  1  0
 15 13  1  0
 15 23  1  0
 16 15  2  0
 18 17  1  0
 19 18  2  0
 20 18  1  0
 22 21  1  6
 21 20  1  0
 22 24  1  0
 22 23  1  0
 24 25  1  0
 26 24  2  0
M  END
$$$$
