QCY.pdb
     RDKit          3D

 28 28  0  0  1  0  0  0  0  0999 V2000
   19.6211  -38.6287   -8.9487 N   0  0  0  0  0  0  0  0  0  0  0  0
   20.8397  -38.2294   -8.3480 C   0  0  0  0  0  0  0  0  0  0  0  0
   21.2667  -38.5921   -7.2312 O   0  0  0  0  0  0  0  0  0  0  0  0
   21.6690  -37.2645   -9.1883 C   0  0  0  0  0  0  0  0  0  0  0  0
   22.1429  -36.1288   -8.3547 C   0  0  0  0  0  0  0  0  0  0  0  0
   21.1958  -34.9871   -8.2276 C   0  0  2  0  0  0  0  0  0  0  0  0
   21.0355  -34.3542   -9.5460 N   0  0  0  0  0  0  0  0  0  0  0  0
   21.6149  -33.9874   -7.2422 C   0  0  0  0  0  0  0  0  0  0  0  0
   22.3054  -32.9630   -7.5795 O   0  0  0  0  0  0  0  0  0  0  0  0
   21.2997  -34.0553   -5.8496 N   0  0  0  0  0  0  0  0  0  0  0  0
   21.6525  -32.9988   -4.9327 C   0  0  1  0  0  0  0  0  0  0  0  0
   20.5590  -32.1399   -4.4580 C   0  0  0  0  0  0  0  0  0  0  0  0
   20.8019  -31.2158   -2.9467 S   0  0  0  0  0  0  0  0  0  0  0  0
   22.6539  -33.4191   -3.9324 C   0  0  0  0  0  0  0  0  0  0  0  0
   22.6413  -34.5692   -3.3922 O   0  0  0  0  0  0  0  0  0  0  0  0
   29.9168  -33.4820    0.9886 O   0  0  0  0  0  0  0  0  0  0  0  0
   28.8528  -33.0673    0.2002 C   0  0  0  0  0  0  0  0  0  0  0  0
   28.8536  -33.5355   -1.1088 C   0  0  0  0  0  0  0  0  0  0  0  0
   27.8612  -33.2089   -2.0096 C   0  0  0  0  0  0  0  0  0  0  0  0
   26.8395  -32.3911   -1.5931 C   0  0  0  0  0  0  0  0  0  0  0  0
   25.7679  -32.0195   -2.5128 C   0  0  0  0  0  0  0  0  0  0  0  0
   24.6574  -33.0367   -2.4635 C   0  0  2  0  0  0  0  0  0  0  0  0
   23.7079  -32.5819   -3.4951 N   0  0  0  0  0  0  0  0  0  0  0  0
   24.0506  -33.0456   -1.1301 C   0  0  0  0  0  0  0  0  0  0  0  0
   24.2955  -33.9566   -0.1404 O   0  0  0  0  0  0  0  0  0  0  0  0
   26.8449  -31.9319   -0.3012 C   0  0  0  0  0  0  0  0  0  0  0  0
   27.8395  -32.2548    0.6133 C   0  0  0  0  0  0  0  0  0  0  0  0
   23.2152  -32.1160   -0.8750 O   0  0  0  0  0  0  0  0  0  0  0  0
  2  1  1  0
  3  2  2  0
  4  2  1  0
  5  6  1  0
  5  4  1  0
  6  7  1  6
  8  6  1  0
  9  8  2  0
 10  8  1  0
 11 14  1  0
 11 10  1  0
 11 12  1  1
 13 12  1  0
 14 23  1  0
 15 14  2  0
 16 17  1  0
 17 18  2  0
 17 27  1  0
 18 19  1  0
 19 20  2  0
 20 21  1  0
 22 21  1  1
 22 24  1  0
 23 22  1  0
 24 28  2  0
 24 25  1  0
 26 20  1  0
 27 26  2  0
M  END
$$$$
