QCY.pdb
     RDKit          3D

 28 28  0  0  1  0  0  0  0  0999 V2000
   18.2197  -16.2160  -15.4349 N   0  0  0  0  0  0  0  0  0  0  0  0
   18.4453  -15.6537  -16.7148 C   0  0  0  0  0  0  0  0  0  0  0  0
   18.5779  -16.2835  -17.7857 O   0  0  0  0  0  0  0  0  0  0  0  0
   18.5250  -14.1311  -16.7279 C   0  0  0  0  0  0  0  0  0  0  0  0
   18.2387  -13.5867  -15.3749 C   0  0  0  0  0  0  0  0  0  0  0  0
   17.3275  -12.4099  -15.3363 C   0  0  2  0  0  0  0  0  0  0  0  0
   17.1370  -11.9117  -16.7074 N   0  0  0  0  0  0  0  0  0  0  0  0
   17.8080  -11.3270  -14.4745 C   0  0  0  0  0  0  0  0  0  0  0  0
   18.2658  -11.5580  -13.3010 O   0  0  0  0  0  0  0  0  0  0  0  0
   17.8149   -9.9481  -14.8508 N   0  0  0  0  0  0  0  0  0  0  0  0
   18.2215   -8.9076  -13.9377 C   0  0  1  0  0  0  0  0  0  0  0  0
   19.2079   -7.9382  -14.4335 C   0  0  0  0  0  0  0  0  0  0  0  0
   19.6166   -6.5393  -13.3976 S   0  0  0  0  0  0  0  0  0  0  0  0
   17.0980   -8.3708  -13.1442 C   0  0  0  0  0  0  0  0  0  0  0  0
   15.9974   -8.0140  -13.6696 O   0  0  0  0  0  0  0  0  0  0  0  0
   11.6386   -6.8151   -6.5314 O   0  0  0  0  0  0  0  0  0  0  0  0
   12.7802   -7.1067   -7.2644 C   0  0  0  0  0  0  0  0  0  0  0  0
   12.7017   -8.2281   -8.0825 C   0  0  0  0  0  0  0  0  0  0  0  0
   13.7558   -8.6416   -8.8703 C   0  0  0  0  0  0  0  0  0  0  0  0
   14.9219   -7.9166   -8.8404 C   0  0  0  0  0  0  0  0  0  0  0  0
   16.0633   -8.3178   -9.6580 C   0  0  0  0  0  0  0  0  0  0  0  0
   16.0149   -7.6330  -10.9993 C   0  0  2  0  0  0  0  0  0  0  0  0
   17.1512   -8.2114  -11.7389 N   0  0  0  0  0  0  0  0  0  0  0  0
   16.1588   -6.1857  -10.8237 C   0  0  0  0  0  0  0  0  0  0  0  0
   17.3376   -5.5009  -10.7186 O   0  0  0  0  0  0  0  0  0  0  0  0
   14.9933   -6.8123   -8.0310 C   0  0  0  0  0  0  0  0  0  0  0  0
   13.9377   -6.3878   -7.2339 C   0  0  0  0  0  0  0  0  0  0  0  0
   15.0809   -5.5065  -10.7613 O   0  0  0  0  0  0  0  0  0  0  0  0
  2  1  1  0
  3  2  2  0
  4  2  1  0
  5  6  1  0
  5  4  1  0
  6  7  1  6
  8  6  1  0
  9  8  2  0
 10  8  1  0
 11 14  1  0
 11 10  1  0
 11 12  1  6
 13 12  1  0
 14 23  1  0
 15 14  2  0
 16 17  1  0
 17 18  2  0
 17 27  1  0
 18 19  1  0
 19 20  2  0
 20 21  1  0
 22 21  1  1
 22 24  1  0
 23 22  1  0
 24 28  2  0
 24 25  1  0
 26 20  1  0
 27 26  2  0
M  END
$$$$
