QCY.pdb
     RDKit          3D

 28 28  0  0  1  0  0  0  0  0999 V2000
   37.4819  -32.4679  -22.2006 N   0  0  0  0  0  0  0  0  0  0  0  0
   38.2840  -33.6235  -22.3635 C   0  0  0  0  0  0  0  0  0  0  0  0
   39.4679  -33.6510  -22.7617 O   0  0  0  0  0  0  0  0  0  0  0  0
   37.5852  -34.9302  -22.0043 C   0  0  0  0  0  0  0  0  0  0  0  0
   36.2296  -34.6586  -21.4587 C   0  0  0  0  0  0  0  0  0  0  0  0
   36.0525  -34.9441  -20.0083 C   0  0  2  0  0  0  0  0  0  0  0  0
   35.9547  -36.3999  -19.8195 N   0  0  0  0  0  0  0  0  0  0  0  0
   34.8826  -34.2856  -19.4219 C   0  0  0  0  0  0  0  0  0  0  0  0
   33.7109  -34.7938  -19.5154 O   0  0  0  0  0  0  0  0  0  0  0  0
   34.9352  -33.0493  -18.7064 N   0  0  0  0  0  0  0  0  0  0  0  0
   33.7679  -32.4768  -18.0809 C   0  0  1  0  0  0  0  0  0  0  0  0
   33.8308  -32.2639  -16.6286 C   0  0  0  0  0  0  0  0  0  0  0  0
   34.7100  -33.4613  -15.6334 S   0  0  0  0  0  0  0  0  0  0  0  0
   33.1546  -31.4027  -18.8874 C   0  0  0  0  0  0  0  0  0  0  0  0
   33.8077  -30.7355  -19.7494 O   0  0  0  0  0  0  0  0  0  0  0  0
   27.8657  -32.4118  -14.8809 O   0  0  0  0  0  0  0  0  0  0  0  0
   28.3182  -31.8299  -16.0567 C   0  0  0  0  0  0  0  0  0  0  0  0
   28.7277  -32.7140  -17.0485 C   0  0  0  0  0  0  0  0  0  0  0  0
   29.2006  -32.2836  -18.2707 C   0  0  0  0  0  0  0  0  0  0  0  0
   29.2681  -30.9328  -18.5101 C   0  0  0  0  0  0  0  0  0  0  0  0
   29.7623  -30.4323  -19.7898 C   0  0  0  0  0  0  0  0  0  0  0  0
   31.2067  -30.0202  -19.6699 C   0  0  2  0  0  0  0  0  0  0  0  0
   31.7944  -31.0294  -18.7706 N   0  0  0  0  0  0  0  0  0  0  0  0
   31.2932  -28.6710  -19.1058 C   0  0  0  0  0  0  0  0  0  0  0  0
   31.7328  -28.3496  -17.8517 O   0  0  0  0  0  0  0  0  0  0  0  0
   28.8636  -30.0662  -17.5277 C   0  0  0  0  0  0  0  0  0  0  0  0
   28.3861  -30.4895  -16.2938 C   0  0  0  0  0  0  0  0  0  0  0  0
   30.9202  -27.7108  -19.8582 O   0  0  0  0  0  0  0  0  0  0  0  0
  2  1  1  0
  3  2  2  0
  4  2  1  0
  5  6  1  0
  5  4  1  0
  6  7  1  6
  8  6  1  0
  9  8  2  0
 10  8  1  0
 11 14  1  0
 11 10  1  0
 11 12  1  1
 13 12  1  0
 14 23  1  0
 15 14  2  0
 16 17  1  0
 17 18  2  0
 17 27  1  0
 18 19  1  0
 19 20  2  0
 20 21  1  0
 22 21  1  1
 22 24  1  0
 23 22  1  0
 24 28  2  0
 24 25  1  0
 26 20  1  0
 27 26  2  0
M  END
$$$$
