QCY.pdb
     RDKit          3D

 28 28  0  0  1  0  0  0  0  0999 V2000
   14.5840  -12.4750  -15.0077 N   0  0  0  0  0  0  0  0  0  0  0  0
   13.9173  -11.7884  -16.0514 C   0  0  0  0  0  0  0  0  0  0  0  0
   12.8517  -12.1372  -16.6028 O   0  0  0  0  0  0  0  0  0  0  0  0
   14.6104  -10.5087  -16.5060 C   0  0  0  0  0  0  0  0  0  0  0  0
   15.8722  -10.3065  -15.7470 C   0  0  0  0  0  0  0  0  0  0  0  0
   17.0962  -10.1217  -16.5743 C   0  0  2  0  0  0  0  0  0  0  0  0
   17.3865  -11.3795  -17.2801 N   0  0  0  0  0  0  0  0  0  0  0  0
   18.2671   -9.7029  -15.7998 C   0  0  0  0  0  0  0  0  0  0  0  0
   18.7282  -10.4185  -14.8431 O   0  0  0  0  0  0  0  0  0  0  0  0
   18.9889   -8.4914  -16.0327 N   0  0  0  0  0  0  0  0  0  0  0  0
   20.2342   -8.2019  -15.3642 C   0  0  1  0  0  0  0  0  0  0  0  0
   21.2659   -9.2473  -15.4019 C   0  0  0  0  0  0  0  0  0  0  0  0
   22.9004   -8.8476  -14.7971 S   0  0  0  0  0  0  0  0  0  0  0  0
   20.6851   -6.8110  -15.5702 C   0  0  0  0  0  0  0  0  0  0  0  0
   21.0452   -6.3689  -16.7057 O   0  0  0  0  0  0  0  0  0  0  0  0
   15.7824   -2.2669  -16.7368 O   0  0  0  0  0  0  0  0  0  0  0  0
   16.9820   -2.5138  -16.0842 C   0  0  0  0  0  0  0  0  0  0  0  0
   17.0094   -3.6483  -15.2811 C   0  0  0  0  0  0  0  0  0  0  0  0
   18.1316   -4.0228  -14.5716 C   0  0  0  0  0  0  0  0  0  0  0  0
   19.2582   -3.2428  -14.6650 C   0  0  0  0  0  0  0  0  0  0  0  0
   20.4688   -3.6013  -13.9314 C   0  0  0  0  0  0  0  0  0  0  0  0
   21.3299   -4.5217  -14.7571 C   0  0  2  0  0  0  0  0  0  0  0  0
   20.7515   -5.8577  -14.5263 N   0  0  0  0  0  0  0  0  0  0  0  0
   22.7199   -4.4433  -14.3014 C   0  0  0  0  0  0  0  0  0  0  0  0
   23.4337   -5.4527  -13.7174 O   0  0  0  0  0  0  0  0  0  0  0  0
   19.2245   -2.1248  -15.4580 C   0  0  0  0  0  0  0  0  0  0  0  0
   18.0996   -1.7392  -16.1762 C   0  0  0  0  0  0  0  0  0  0  0  0
   23.3140   -3.3264  -14.4649 O   0  0  0  0  0  0  0  0  0  0  0  0
  2  1  1  0
  3  2  2  0
  4  2  1  0
  5  6  1  0
  5  4  1  0
  6  7  1  1
  8  6  1  0
  9  8  2  0
 10  8  1  0
 11 14  1  0
 11 10  1  0
 11 12  1  6
 13 12  1  0
 14 23  1  0
 15 14  2  0
 16 17  1  0
 17 18  2  0
 17 27  1  0
 18 19  1  0
 19 20  2  0
 20 21  1  0
 22 21  1  1
 22 24  1  0
 23 22  1  0
 24 28  2  0
 24 25  1  0
 26 20  1  0
 27 26  2  0
M  END
$$$$
