QCY.pdb
     RDKit          3D

 28 28  0  0  1  0  0  0  0  0999 V2000
   16.9287  -15.0886  -13.9076 N   0  0  0  0  0  0  0  0  0  0  0  0
   15.9043  -14.9652  -14.8774 C   0  0  0  0  0  0  0  0  0  0  0  0
   15.3175  -15.9043  -15.4561 O   0  0  0  0  0  0  0  0  0  0  0  0
   15.5212  -13.5269  -15.2084 C   0  0  0  0  0  0  0  0  0  0  0  0
   16.2479  -12.5811  -14.3216 C   0  0  0  0  0  0  0  0  0  0  0  0
   17.0254  -11.5185  -15.0165 C   0  0  2  0  0  0  0  0  0  0  0  0
   18.2378  -12.1186  -15.5948 N   0  0  0  0  0  0  0  0  0  0  0  0
   17.3901  -10.3978  -14.1463 C   0  0  0  0  0  0  0  0  0  0  0  0
   18.1326  -10.5639  -13.1161 O   0  0  0  0  0  0  0  0  0  0  0  0
   16.9672   -9.0491  -14.3588 N   0  0  0  0  0  0  0  0  0  0  0  0
   17.3602   -7.9760  -13.4782 C   0  0  1  0  0  0  0  0  0  0  0  0
   18.1705   -6.8998  -14.0645 C   0  0  0  0  0  0  0  0  0  0  0  0
   18.4718   -5.4351  -13.0842 S   0  0  0  0  0  0  0  0  0  0  0  0
   16.2840   -7.5724  -12.5513 C   0  0  0  0  0  0  0  0  0  0  0  0
   15.0847   -7.3933  -12.9309 O   0  0  0  0  0  0  0  0  0  0  0  0
   11.3104   -6.3106   -5.5624 O   0  0  0  0  0  0  0  0  0  0  0  0
   12.3021   -6.6871   -6.4572 C   0  0  0  0  0  0  0  0  0  0  0  0
   13.4995   -5.9873   -6.3599 C   0  0  0  0  0  0  0  0  0  0  0  0
   14.5762   -6.2501   -7.1812 C   0  0  0  0  0  0  0  0  0  0  0  0
   14.4547   -7.2384   -8.1272 C   0  0  0  0  0  0  0  0  0  0  0  0
   15.5688   -7.5505   -9.0180 C   0  0  0  0  0  0  0  0  0  0  0  0
   15.4278   -6.8009  -10.3175 C   0  0  2  0  0  0  0  0  0  0  0  0
   16.4961   -7.3546  -11.1690 N   0  0  0  0  0  0  0  0  0  0  0  0
   15.6051   -5.3655  -10.0849 C   0  0  0  0  0  0  0  0  0  0  0  0
   14.6140   -4.4677   -9.8001 O   0  0  0  0  0  0  0  0  0  0  0  0
   13.2709   -7.9242   -8.2186 C   0  0  0  0  0  0  0  0  0  0  0  0
   12.1811   -7.6670   -7.3966 C   0  0  0  0  0  0  0  0  0  0  0  0
   16.7969   -4.9164  -10.1582 O   0  0  0  0  0  0  0  0  0  0  0  0
  2  1  1  0
  3  2  2  0
  4  2  1  0
  5  6  1  0
  5  4  1  0
  6  7  1  1
  8  6  1  0
  9  8  2  0
 10  8  1  0
 11 14  1  0
 11 10  1  0
 11 12  1  6
 13 12  1  0
 14 23  1  0
 15 14  2  0
 16 17  1  0
 17 18  2  0
 17 27  1  0
 18 19  1  0
 19 20  2  0
 20 21  1  0
 22 21  1  1
 22 24  1  0
 23 22  1  0
 24 28  2  0
 24 25  1  0
 26 20  1  0
 27 26  2  0
M  END
$$$$
