QCY.pdb
     RDKit          3D

 28 28  0  0  1  0  0  0  0  0999 V2000
   32.8118  -33.2504  -16.2456 N   0  0  0  0  0  0  0  0  0  0  0  0
   33.3585  -33.2389  -17.5518 C   0  0  0  0  0  0  0  0  0  0  0  0
   34.1380  -34.0879  -18.0342 O   0  0  0  0  0  0  0  0  0  0  0  0
   32.9202  -32.0550  -18.4069 C   0  0  0  0  0  0  0  0  0  0  0  0
   32.0815  -31.1231  -17.6088 C   0  0  0  0  0  0  0  0  0  0  0  0
   31.4872  -29.9867  -18.3652 C   0  0  2  0  0  0  0  0  0  0  0  0
   32.5140  -28.9490  -18.5475 N   0  0  0  0  0  0  0  0  0  0  0  0
   30.3048  -29.4104  -17.7201 C   0  0  0  0  0  0  0  0  0  0  0  0
   30.1333  -29.4784  -16.4528 O   0  0  0  0  0  0  0  0  0  0  0  0
   29.2602  -28.7331  -18.4224 N   0  0  0  0  0  0  0  0  0  0  0  0
   28.1580  -28.1052  -17.7352 C   0  0  1  0  0  0  0  0  0  0  0  0
   28.0300  -26.6486  -17.8790 C   0  0  0  0  0  0  0  0  0  0  0  0
   26.9095  -25.7840  -16.7862 S   0  0  0  0  0  0  0  0  0  0  0  0
   26.9129  -28.8954  -17.8077 C   0  0  0  0  0  0  0  0  0  0  0  0
   26.5814  -29.5579  -18.8401 O   0  0  0  0  0  0  0  0  0  0  0  0
   20.2002  -34.0258  -15.9736 O   0  0  0  0  0  0  0  0  0  0  0  0
   21.3574  -33.2601  -15.9946 C   0  0  0  0  0  0  0  0  0  0  0  0
   21.4154  -32.2292  -15.0635 C   0  0  0  0  0  0  0  0  0  0  0  0
   22.5020  -31.3852  -14.9644 C   0  0  0  0  0  0  0  0  0  0  0  0
   23.5604  -31.5741  -15.8190 C   0  0  0  0  0  0  0  0  0  0  0  0
   24.7313  -30.7044  -15.7497 C   0  0  0  0  0  0  0  0  0  0  0  0
   24.7228  -29.7205  -16.8908 C   0  0  2  0  0  0  0  0  0  0  0  0
   25.9899  -28.9830  -16.7384 N   0  0  0  0  0  0  0  0  0  0  0  0
   23.5603  -28.8364  -16.7758 C   0  0  0  0  0  0  0  0  0  0  0  0
   22.3219  -29.0615  -17.3097 O   0  0  0  0  0  0  0  0  0  0  0  0
   23.4966  -32.5919  -16.7355 C   0  0  0  0  0  0  0  0  0  0  0  0
   22.4071  -33.4469  -16.8434 C   0  0  0  0  0  0  0  0  0  0  0  0
   23.7252  -27.7565  -16.1171 O   0  0  0  0  0  0  0  0  0  0  0  0
  2  1  1  0
  3  2  2  0
  4  2  1  0
  5  6  1  0
  5  4  1  0
  6  7  1  1
  8  6  1  0
  9  8  2  0
 10  8  1  0
 11 14  1  0
 11 10  1  0
 11 12  1  6
 13 12  1  0
 14 23  1  0
 15 14  2  0
 16 17  1  0
 17 18  2  0
 17 27  1  0
 18 19  1  0
 19 20  2  0
 20 21  1  0
 22 21  1  1
 22 24  1  0
 23 22  1  0
 24 28  2  0
 24 25  1  0
 26 20  1  0
 27 26  2  0
M  END
$$$$
