QCY.pdb
     RDKit          3D

 28 28  0  0  1  0  0  0  0  0999 V2000
   19.6688  -14.9063  -17.3258 N   0  0  0  0  0  0  0  0  0  0  0  0
   18.3797  -14.9192  -17.9115 C   0  0  0  0  0  0  0  0  0  0  0  0
   17.8947  -15.8343  -18.6106 O   0  0  0  0  0  0  0  0  0  0  0  0
   17.5480  -13.6728  -17.6297 C   0  0  0  0  0  0  0  0  0  0  0  0
   18.3230  -12.7097  -16.8045 C   0  0  0  0  0  0  0  0  0  0  0  0
   18.7603  -11.4709  -17.5050 C   0  0  2  0  0  0  0  0  0  0  0  0
   19.9450  -11.7799  -18.3208 N   0  0  0  0  0  0  0  0  0  0  0  0
   19.0560  -10.3598  -16.5972 C   0  0  0  0  0  0  0  0  0  0  0  0
   18.1735   -9.9013  -15.7903 O   0  0  0  0  0  0  0  0  0  0  0  0
   20.3226   -9.7014  -16.5242 N   0  0  0  0  0  0  0  0  0  0  0  0
   20.5549   -8.5849  -15.6406 C   0  0  1  0  0  0  0  0  0  0  0  0
   21.5956   -8.7540  -14.6174 C   0  0  0  0  0  0  0  0  0  0  0  0
   21.5417   -7.7035  -13.1715 S   0  0  0  0  0  0  0  0  0  0  0  0
   20.5085   -7.2839  -16.3372 C   0  0  0  0  0  0  0  0  0  0  0  0
   21.3443   -6.9589  -17.2376 O   0  0  0  0  0  0  0  0  0  0  0  0
   17.7798    0.6900  -18.8318 O   0  0  0  0  0  0  0  0  0  0  0  0
   17.8857   -0.5883  -18.3020 C   0  0  0  0  0  0  0  0  0  0  0  0
   18.1963   -0.6564  -16.9486 C   0  0  0  0  0  0  0  0  0  0  0  0
   18.3336   -1.8567  -16.2829 C   0  0  0  0  0  0  0  0  0  0  0  0
   18.1570   -3.0223  -16.9874 C   0  0  0  0  0  0  0  0  0  0  0  0
   18.2927   -4.3157  -16.3234 C   0  0  0  0  0  0  0  0  0  0  0  0
   19.5864   -4.9774  -16.7220 C   0  0  2  0  0  0  0  0  0  0  0  0
   19.5332   -6.2953  -16.0641 N   0  0  0  0  0  0  0  0  0  0  0  0
   20.7195   -4.1779  -16.2499 C   0  0  0  0  0  0  0  0  0  0  0  0
   21.3829   -3.2204  -16.9658 O   0  0  0  0  0  0  0  0  0  0  0  0
   17.8517   -2.9484  -18.3221 C   0  0  0  0  0  0  0  0  0  0  0  0
   17.7116   -1.7449  -19.0015 C   0  0  0  0  0  0  0  0  0  0  0  0
   21.1218   -4.4014  -15.0601 O   0  0  0  0  0  0  0  0  0  0  0  0
  2  1  1  0
  3  2  2  0
  4  2  1  0
  5  6  1  0
  5  4  1  0
  6  7  1  1
  8  6  1  0
  9  8  2  0
 10  8  1  0
 11 14  1  0
 11 10  1  0
 11 12  1  6
 13 12  1  0
 14 23  1  0
 15 14  2  0
 16 17  1  0
 17 18  2  0
 17 27  1  0
 18 19  1  0
 19 20  2  0
 20 21  1  0
 22 21  1  1
 22 24  1  0
 23 22  1  0
 24 28  2  0
 24 25  1  0
 26 20  1  0
 27 26  2  0
M  END
$$$$
