QCY.pdb
     RDKit          3D

 28 28  0  0  1  0  0  0  0  0999 V2000
   28.9344  -29.5268  -18.7821 N   0  0  0  0  0  0  0  0  0  0  0  0
   30.3158  -29.2851  -18.5855 C   0  0  0  0  0  0  0  0  0  0  0  0
   30.9295  -28.2339  -18.8673 O   0  0  0  0  0  0  0  0  0  0  0  0
   31.0773  -30.4530  -17.9683 C   0  0  0  0  0  0  0  0  0  0  0  0
   30.1534  -31.5834  -17.6900 C   0  0  0  0  0  0  0  0  0  0  0  0
   30.1516  -32.0802  -16.2865 C   0  0  2  0  0  0  0  0  0  0  0  0
   31.4132  -32.7937  -16.0338 N   0  0  0  0  0  0  0  0  0  0  0  0
   29.0153  -32.9514  -15.9766 C   0  0  0  0  0  0  0  0  0  0  0  0
   29.0263  -34.1973  -16.2730 O   0  0  0  0  0  0  0  0  0  0  0  0
   27.8204  -32.5084  -15.3293 N   0  0  0  0  0  0  0  0  0  0  0  0
   26.8303  -33.4334  -14.8339 C   0  0  1  0  0  0  0  0  0  0  0  0
   27.2643  -34.3750  -13.7928 C   0  0  0  0  0  0  0  0  0  0  0  0
   28.0080  -33.7129  -12.3076 S   0  0  0  0  0  0  0  0  0  0  0  0
   25.5020  -32.8123  -14.6608 C   0  0  0  0  0  0  0  0  0  0  0  0
   25.3382  -31.6990  -14.0707 O   0  0  0  0  0  0  0  0  0  0  0  0
   23.4263  -29.8170  -20.4257 O   0  0  0  0  0  0  0  0  0  0  0  0
   23.0445  -30.5706  -19.3248 C   0  0  0  0  0  0  0  0  0  0  0  0
   23.7360  -31.7626  -19.1407 C   0  0  0  0  0  0  0  0  0  0  0  0
   23.4682  -32.6159  -18.0904 C   0  0  0  0  0  0  0  0  0  0  0  0
   22.4819  -32.2709  -17.1991 C   0  0  0  0  0  0  0  0  0  0  0  0
   22.1648  -33.1441  -16.0724 C   0  0  0  0  0  0  0  0  0  0  0  0
   22.9976  -32.7755  -14.8720 C   0  0  2  0  0  0  0  0  0  0  0  0
   24.3060  -33.4003  -15.1372 N   0  0  0  0  0  0  0  0  0  0  0  0
   22.3771  -33.3055  -13.6553 C   0  0  0  0  0  0  0  0  0  0  0  0
   21.3763  -32.7115  -12.9378 O   0  0  0  0  0  0  0  0  0  0  0  0
   21.8031  -31.0945  -17.3867 C   0  0  0  0  0  0  0  0  0  0  0  0
   22.0650  -30.2287  -18.4410 C   0  0  0  0  0  0  0  0  0  0  0  0
   22.8169  -34.4245  -13.2290 O   0  0  0  0  0  0  0  0  0  0  0  0
  2  1  1  0
  3  2  2  0
  4  2  1  0
  5  6  1  0
  5  4  1  0
  6  7  1  6
  8  6  1  0
  9  8  2  0
 10  8  1  0
 11 14  1  0
 11 10  1  0
 11 12  1  1
 13 12  1  0
 14 23  1  0
 15 14  2  0
 16 17  1  0
 17 18  2  0
 17 27  1  0
 18 19  1  0
 19 20  2  0
 20 21  1  0
 22 21  1  6
 22 24  1  0
 23 22  1  0
 24 28  2  0
 24 25  1  0
 26 20  1  0
 27 26  2  0
M  END
$$$$
