HSN.pdb
     RDKit          3D

 25 25  0  0  1  0  0  0  0  0999 V2000
   10.5730  -17.8469   15.7260 N   0  0  0  0  0  0  0  0  0  0  0  0
   10.0843  -18.2786   17.0090 C   0  0  1  0  0  0  0  0  0  0  0  0
    9.3026  -19.5527   16.7898 C   0  0  0  0  0  0  0  0  0  0  0  0
    8.2177  -19.3506   15.7947 C   0  0  0  0  0  0  0  0  0  0  0  0
    6.9989  -18.7494   15.9411 C   0  0  0  0  0  0  0  0  0  0  0  0
    6.3695  -18.8141   14.7480 N   0  0  0  0  0  0  0  0  0  0  0  0
    7.1592  -19.4398   13.8545 C   0  0  0  0  0  0  0  0  0  0  0  0
    8.2893  -19.7654   14.5023 N   0  0  0  0  0  0  0  0  0  0  0  0
   11.2283  -18.5099   17.9422 C   0  0  0  0  0  0  0  0  0  0  0  0
   12.3575  -17.9674   17.7391 O   0  0  0  0  0  0  0  0  0  0  0  0
   10.7081  -17.2281   22.0165 O   0  0  0  0  0  0  0  0  0  0  0  0
   10.4049  -17.6373   20.7245 C   0  0  0  0  0  0  0  0  0  0  0  0
   11.2525  -18.8569   20.4352 C   0  0  2  0  0  0  0  0  0  0  0  0
   11.1362  -19.3337   19.0953 N   0  0  0  0  0  0  0  0  0  0  0  0
   11.0593  -19.9226   21.4518 C   0  0  0  0  0  0  0  0  0  0  0  0
    9.8807  -20.2764   21.7441 O   0  0  0  0  0  0  0  0  0  0  0  0
   12.0674  -23.1802   20.6851 N   0  0  0  0  0  0  0  0  0  0  0  0
   13.1206  -23.3399   21.6165 C   0  0  0  0  0  0  0  0  0  0  0  0
   14.0769  -24.1172   21.3168 O   0  0  0  0  0  0  0  0  0  0  0  0
   13.1063  -22.6181   22.9007 C   0  0  0  0  0  0  0  0  0  0  0  0
   11.9173  -21.6963   23.0457 C   0  0  2  0  0  0  0  0  0  0  0  0
   12.1165  -20.5689   22.1151 N   0  0  0  0  0  0  0  0  0  0  0  0
   11.7623  -21.1763   24.4204 C   0  0  0  0  0  0  0  0  0  0  0  0
   12.0617  -20.0012   24.6843 O   0  0  0  0  0  0  0  0  0  0  0  0
   11.2833  -21.9786   25.4436 O   0  0  0  0  0  0  0  0  0  0  0  0
  2  3  1  0
  2  1  1  6
  4  3  1  0
  5  4  2  0
  6  5  1  0
  6  7  1  0
  7  8  2  0
  8  4  1  0
  9  2  1  0
 10  9  2  0
 11 12  1  0
 13 12  1  1
 13 14  1  0
 14  9  1  0
 15 13  1  0
 15 22  1  0
 16 15  2  0
 17 18  1  0
 18 19  2  0
 21 20  1  1
 20 18  1  0
 21 22  1  0
 21 23  1  0
 23 25  1  0
 24 23  2  0
M  END
$$$$
