HSN.pdb
     RDKit          3D

 25 25  0  0  1  0  0  0  0  0999 V2000
    9.2235  -16.3306   16.8680 N   0  0  0  0  0  0  0  0  0  0  0  0
    9.2150  -15.2022   17.7613 C   0  0  1  0  0  0  0  0  0  0  0  0
    7.8528  -14.5565   17.6611 C   0  0  0  0  0  0  0  0  0  0  0  0
    7.5394  -14.1828   16.2575 C   0  0  0  0  0  0  0  0  0  0  0  0
    7.8025  -13.0237   15.5826 C   0  0  0  0  0  0  0  0  0  0  0  0
    7.3213  -13.1669   14.3288 N   0  0  0  0  0  0  0  0  0  0  0  0
    6.7624  -14.3849   14.1964 C   0  0  0  0  0  0  0  0  0  0  0  0
    6.8996  -15.0015   15.3812 N   0  0  0  0  0  0  0  0  0  0  0  0
    9.4890  -15.6528   19.1594 C   0  0  0  0  0  0  0  0  0  0  0  0
    9.5153  -14.8239   20.1201 O   0  0  0  0  0  0  0  0  0  0  0  0
    9.9235  -19.6740   20.1760 O   0  0  0  0  0  0  0  0  0  0  0  0
    9.6897  -18.7814   21.2140 C   0  0  0  0  0  0  0  0  0  0  0  0
   10.2280  -17.4378   20.7730 C   0  0  2  0  0  0  0  0  0  0  0  0
    9.7341  -17.0082   19.5050 N   0  0  0  0  0  0  0  0  0  0  0  0
   11.7084  -17.3709   20.8748 C   0  0  0  0  0  0  0  0  0  0  0  0
   12.3998  -17.6264   19.8471 O   0  0  0  0  0  0  0  0  0  0  0  0
   14.9495  -13.7357   19.6617 N   0  0  0  0  0  0  0  0  0  0  0  0
   14.5227  -14.9943   20.1475 C   0  0  0  0  0  0  0  0  0  0  0  0
   14.9955  -16.0400   19.6077 O   0  0  0  0  0  0  0  0  0  0  0  0
   13.5552  -15.0857   21.2548 C   0  0  0  0  0  0  0  0  0  0  0  0
   13.7025  -16.3542   22.0633 C   0  0  2  0  0  0  0  0  0  0  0  0
   12.3949  -17.0374   22.0551 N   0  0  0  0  0  0  0  0  0  0  0  0
   14.1129  -16.0968   23.4595 C   0  0  0  0  0  0  0  0  0  0  0  0
   13.2616  -15.8530   24.3290 O   0  0  0  0  0  0  0  0  0  0  0  0
   15.4470  -16.1200   23.8334 O   0  0  0  0  0  0  0  0  0  0  0  0
  2  3  1  0
  2  1  1  6
  4  3  1  0
  5  4  2  0
  6  5  1  0
  6  7  1  0
  7  8  2  0
  8  4  1  0
  9  2  1  0
 10  9  2  0
 11 12  1  0
 13 12  1  6
 13 14  1  0
 14  9  1  0
 15 13  1  0
 15 22  1  0
 16 15  2  0
 17 18  1  0
 18 19  2  0
 21 20  1  6
 20 18  1  0
 21 22  1  0
 21 23  1  0
 23 25  1  0
 24 23  2  0
M  END
$$$$
