HSN.pdb
     RDKit          3D

 25 25  0  0  1  0  0  0  0  0999 V2000
   13.5896  -15.9009   15.4356 N   0  0  0  0  0  0  0  0  0  0  0  0
   13.1861  -17.2185   15.8509 C   0  0  1  0  0  0  0  0  0  0  0  0
   14.3356  -18.1554   15.5623 C   0  0  0  0  0  0  0  0  0  0  0  0
   14.5681  -18.2832   14.1003 C   0  0  0  0  0  0  0  0  0  0  0  0
   13.6674  -18.4195   13.0812 C   0  0  0  0  0  0  0  0  0  0  0  0
   14.3680  -18.4970   11.9292 N   0  0  0  0  0  0  0  0  0  0  0  0
   15.6854  -18.4132   12.1957 C   0  0  0  0  0  0  0  0  0  0  0  0
   15.8005  -18.2823   13.5270 N   0  0  0  0  0  0  0  0  0  0  0  0
   12.8529  -17.2175   17.3075 C   0  0  0  0  0  0  0  0  0  0  0  0
   13.5254  -16.5250   18.1315 O   0  0  0  0  0  0  0  0  0  0  0  0
    9.6198  -19.4321   19.0882 O   0  0  0  0  0  0  0  0  0  0  0  0
   10.0183  -18.1893   19.5630 C   0  0  0  0  0  0  0  0  0  0  0  0
   11.4933  -18.0493   19.2558 C   0  0  2  0  0  0  0  0  0  0  0  0
   11.7857  -17.9734   17.8611 N   0  0  0  0  0  0  0  0  0  0  0  0
   12.3088  -19.0665   19.9676 C   0  0  0  0  0  0  0  0  0  0  0  0
   12.9290  -19.9328   19.2862 O   0  0  0  0  0  0  0  0  0  0  0  0
   16.8423  -20.0413   22.9016 N   0  0  0  0  0  0  0  0  0  0  0  0
   15.7452  -20.6425   22.2404 C   0  0  0  0  0  0  0  0  0  0  0  0
   15.6545  -21.9075   22.2523 O   0  0  0  0  0  0  0  0  0  0  0  0
   14.7330  -19.8177   21.5579 C   0  0  0  0  0  0  0  0  0  0  0  0
   13.3296  -20.0740   22.0570 C   0  0  2  0  0  0  0  0  0  0  0  0
   12.4352  -19.1255   21.3662 N   0  0  0  0  0  0  0  0  0  0  0  0
   13.2015  -19.8937   23.5183 C   0  0  0  0  0  0  0  0  0  0  0  0
   12.7691  -18.8275   23.9835 O   0  0  0  0  0  0  0  0  0  0  0  0
   13.5575  -20.9003   24.4015 O   0  0  0  0  0  0  0  0  0  0  0  0
  2  3  1  0
  2  1  1  1
  4  3  1  0
  5  4  2  0
  6  5  1  0
  6  7  1  0
  7  8  2  0
  8  4  1  0
  9  2  1  0
 10  9  2  0
 11 12  1  0
 13 12  1  6
 13 14  1  0
 14  9  1  0
 15 13  1  0
 15 22  1  0
 16 15  2  0
 17 18  1  0
 18 19  2  0
 21 20  1  6
 20 18  1  0
 21 22  1  0
 21 23  1  0
 23 25  1  0
 24 23  2  0
M  END
$$$$
