HSN.pdb
     RDKit          3D

 25 25  0  0  1  0  0  0  0  0999 V2000
   11.7467  -15.4449   14.9685 N   0  0  0  0  0  0  0  0  0  0  0  0
   10.5395  -15.8191   15.6570 C   0  0  1  0  0  0  0  0  0  0  0  0
   10.4257  -17.3238   15.5846 C   0  0  0  0  0  0  0  0  0  0  0  0
    9.8903  -17.7575   14.2680 C   0  0  0  0  0  0  0  0  0  0  0  0
    9.3761  -17.0108   13.2452 C   0  0  0  0  0  0  0  0  0  0  0  0
    9.0233  -17.8633   12.2589 N   0  0  0  0  0  0  0  0  0  0  0  0
    9.3016  -19.1265   12.6334 C   0  0  0  0  0  0  0  0  0  0  0  0
    9.8324  -19.0542   13.8646 N   0  0  0  0  0  0  0  0  0  0  0  0
   10.5948  -15.3571   17.0769 C   0  0  0  0  0  0  0  0  0  0  0  0
   11.6872  -15.3592   17.7230 O   0  0  0  0  0  0  0  0  0  0  0  0
    7.2193  -15.0126   19.6332 O   0  0  0  0  0  0  0  0  0  0  0  0
    8.1457  -13.9783   19.6620 C   0  0  0  0  0  0  0  0  0  0  0  0
    9.4599  -14.5464   19.1724 C   0  0  2  0  0  0  0  0  0  0  0  0
    9.4564  -14.8940   17.7883 N   0  0  0  0  0  0  0  0  0  0  0  0
    9.9531  -15.6411   20.0469 C   0  0  0  0  0  0  0  0  0  0  0  0
   10.4911  -16.6518   19.5096 O   0  0  0  0  0  0  0  0  0  0  0  0
   12.8114  -18.1962   21.7722 N   0  0  0  0  0  0  0  0  0  0  0  0
   13.1595  -16.8253   21.7313 C   0  0  0  0  0  0  0  0  0  0  0  0
   14.3383  -16.5133   21.3828 O   0  0  0  0  0  0  0  0  0  0  0  0
   12.1746  -15.7873   22.0826 C   0  0  0  0  0  0  0  0  0  0  0  0
   10.7926  -16.3461   22.3318 C   0  0  2  0  0  0  0  0  0  0  0  0
    9.8579  -15.6223   21.4490 N   0  0  0  0  0  0  0  0  0  0  0  0
   10.3594  -16.1925   23.7364 C   0  0  0  0  0  0  0  0  0  0  0  0
    9.8116  -15.1446   24.1131 O   0  0  0  0  0  0  0  0  0  0  0  0
   10.5514  -17.2043   24.6634 O   0  0  0  0  0  0  0  0  0  0  0  0
  2  3  1  0
  2  1  1  6
  4  3  1  0
  5  4  2  0
  6  5  1  0
  6  7  1  0
  7  8  2  0
  8  4  1  0
  9  2  1  0
 10  9  2  0
 11 12  1  0
 13 12  1  1
 13 14  1  0
 14  9  1  0
 15 13  1  0
 15 22  1  0
 16 15  2  0
 17 18  1  0
 18 19  2  0
 21 20  1  1
 20 18  1  0
 21 22  1  0
 21 23  1  0
 23 25  1  0
 24 23  2  0
M  END
$$$$
