HSN.pdb
     RDKit          3D

 25 25  0  0  1  0  0  0  0  0999 V2000
    6.8954  -16.9404   20.6467 N   0  0  0  0  0  0  0  0  0  0  0  0
    7.4874  -15.9882   21.5490 C   0  0  1  0  0  0  0  0  0  0  0  0
    6.8647  -14.6426   21.2589 C   0  0  0  0  0  0  0  0  0  0  0  0
    7.4269  -14.0489   20.0182 C   0  0  0  0  0  0  0  0  0  0  0  0
    8.4048  -14.5221   19.1886 C   0  0  0  0  0  0  0  0  0  0  0  0
    8.5623  -13.6224   18.1938 N   0  0  0  0  0  0  0  0  0  0  0  0
    7.7100  -12.5956   18.3748 C   0  0  0  0  0  0  0  0  0  0  0  0
    7.0178  -12.8634   19.4937 N   0  0  0  0  0  0  0  0  0  0  0  0
    7.2356  -16.3973   22.9640 C   0  0  0  0  0  0  0  0  0  0  0  0
    6.0756  -16.3134   23.4722 O   0  0  0  0  0  0  0  0  0  0  0  0
    8.3820  -19.5989   24.7980 O   0  0  0  0  0  0  0  0  0  0  0  0
    7.4343  -18.7054   25.2800 C   0  0  0  0  0  0  0  0  0  0  0  0
    8.0325  -17.3202   25.1661 C   0  0  2  0  0  0  0  0  0  0  0  0
    8.2517  -16.8971   23.8210 N   0  0  0  0  0  0  0  0  0  0  0  0
    9.2299  -17.1586   26.0302 C   0  0  0  0  0  0  0  0  0  0  0  0
   10.3752  -17.3080   25.5149 O   0  0  0  0  0  0  0  0  0  0  0  0
   10.3306  -14.1382   27.3369 N   0  0  0  0  0  0  0  0  0  0  0  0
   10.0912  -14.3386   28.7170 C   0  0  0  0  0  0  0  0  0  0  0  0
    9.8637  -13.3235   29.4425 O   0  0  0  0  0  0  0  0  0  0  0  0
   10.1034  -15.6939   29.2946 C   0  0  0  0  0  0  0  0  0  0  0  0
   10.3593  -16.7710   28.2656 C   0  0  2  0  0  0  0  0  0  0  0  0
    9.1675  -16.8461   27.3991 N   0  0  0  0  0  0  0  0  0  0  0  0
   10.6076  -18.0947   28.8742 C   0  0  0  0  0  0  0  0  0  0  0  0
    9.7392  -18.9800   28.8269 O   0  0  0  0  0  0  0  0  0  0  0  0
   11.8054  -18.3816   29.5092 O   0  0  0  0  0  0  0  0  0  0  0  0
  2  3  1  0
  2  1  1  6
  4  3  1  0
  5  4  2  0
  6  5  1  0
  6  7  1  0
  7  8  2  0
  8  4  1  0
  9  2  1  0
 10  9  2  0
 11 12  1  0
 13 12  1  6
 13 14  1  0
 14  9  1  0
 15 13  1  0
 15 22  1  0
 16 15  2  0
 17 18  1  0
 18 19  2  0
 21 20  1  1
 20 18  1  0
 21 22  1  0
 21 23  1  0
 23 25  1  0
 24 23  2  0
M  END
$$$$
