HSN.pdb
     RDKit          3D

 25 25  0  0  1  0  0  0  0  0999 V2000
    8.4046  -13.7788   16.9774 N   0  0  0  0  0  0  0  0  0  0  0  0
    9.3146  -14.7703   17.4875 C   0  0  1  0  0  0  0  0  0  0  0  0
   10.3864  -14.9799   16.4435 C   0  0  0  0  0  0  0  0  0  0  0  0
    9.9237  -15.9091   15.3803 C   0  0  0  0  0  0  0  0  0  0  0  0
    8.7061  -16.5068   15.2116 C   0  0  0  0  0  0  0  0  0  0  0  0
    8.7774  -17.2630   14.0949 N   0  0  0  0  0  0  0  0  0  0  0  0
   10.0071  -17.1575   13.5562 C   0  0  0  0  0  0  0  0  0  0  0  0
   10.7036  -16.3269   14.3484 N   0  0  0  0  0  0  0  0  0  0  0  0
    9.9106  -14.3047   18.7762 C   0  0  0  0  0  0  0  0  0  0  0  0
   10.2521  -13.0932   18.9386 O   0  0  0  0  0  0  0  0  0  0  0  0
    9.2335  -15.9455   22.4105 O   0  0  0  0  0  0  0  0  0  0  0  0
    9.8167  -14.6916   22.2817 C   0  0  0  0  0  0  0  0  0  0  0  0
   10.7607  -14.7608   21.1012 C   0  0  2  0  0  0  0  0  0  0  0  0
   10.1325  -15.1639   19.8850 N   0  0  0  0  0  0  0  0  0  0  0  0
   11.9842  -15.5437   21.4123 C   0  0  0  0  0  0  0  0  0  0  0  0
   12.0649  -16.7351   20.9958 O   0  0  0  0  0  0  0  0  0  0  0  0
   15.3377  -15.3884   19.9898 N   0  0  0  0  0  0  0  0  0  0  0  0
   15.9492  -14.7357   21.0862 C   0  0  0  0  0  0  0  0  0  0  0  0
   16.9310  -13.9660   20.8577 O   0  0  0  0  0  0  0  0  0  0  0  0
   15.4545  -14.9441   22.4583 C   0  0  0  0  0  0  0  0  0  0  0  0
   14.2443  -15.8477   22.5177 C   0  0  2  0  0  0  0  0  0  0  0  0
   13.0688  -15.0363   22.1483 N   0  0  0  0  0  0  0  0  0  0  0  0
   14.0346  -16.4334   23.8583 C   0  0  0  0  0  0  0  0  0  0  0  0
   13.2484  -15.9031   24.6588 O   0  0  0  0  0  0  0  0  0  0  0  0
   14.7038  -17.5800   24.2554 O   0  0  0  0  0  0  0  0  0  0  0  0
  2  3  1  0
  2  1  1  6
  4  3  1  0
  5  4  2  0
  6  5  1  0
  6  7  1  0
  7  8  2  0
  8  4  1  0
  9  2  1  0
 10  9  2  0
 11 12  1  0
 13 12  1  1
 13 14  1  0
 14  9  1  0
 15 13  1  0
 15 22  1  0
 16 15  2  0
 17 18  1  0
 18 19  2  0
 21 20  1  1
 20 18  1  0
 21 22  1  0
 21 23  1  0
 23 25  1  0
 24 23  2  0
M  END
$$$$
