HSN.pdb
     RDKit          3D

 25 25  0  0  1  0  0  0  0  0999 V2000
    8.9949  -15.8614   20.9967 N   0  0  0  0  0  0  0  0  0  0  0  0
    8.3451  -14.6995   21.5438 C   0  0  1  0  0  0  0  0  0  0  0  0
    7.1947  -14.3518   20.6284 C   0  0  0  0  0  0  0  0  0  0  0  0
    7.6853  -13.8685   19.3118 C   0  0  0  0  0  0  0  0  0  0  0  0
    8.9643  -13.7636   18.8410 C   0  0  0  0  0  0  0  0  0  0  0  0
    8.8947  -13.2700   17.5858 N   0  0  0  0  0  0  0  0  0  0  0  0
    7.6063  -13.0614   17.2538 C   0  0  0  0  0  0  0  0  0  0  0  0
    6.8714  -13.4301   18.3153 N   0  0  0  0  0  0  0  0  0  0  0  0
    7.8570  -14.9883   22.9263 C   0  0  0  0  0  0  0  0  0  0  0  0
    7.1990  -14.1229   23.5813 O   0  0  0  0  0  0  0  0  0  0  0  0
    7.1263  -18.7130   24.5347 O   0  0  0  0  0  0  0  0  0  0  0  0
    6.6279  -17.5352   25.0761 C   0  0  0  0  0  0  0  0  0  0  0  0
    7.7142  -16.4906   24.9409 C   0  0  2  0  0  0  0  0  0  0  0  0
    8.0890  -16.2218   23.5905 N   0  0  0  0  0  0  0  0  0  0  0  0
    8.8752  -16.7781   25.8218 C   0  0  0  0  0  0  0  0  0  0  0  0
    9.8956  -17.3318   25.3199 O   0  0  0  0  0  0  0  0  0  0  0  0
   11.8262  -17.4935   30.1165 N   0  0  0  0  0  0  0  0  0  0  0  0
   10.8914  -16.4622   30.3711 C   0  0  0  0  0  0  0  0  0  0  0  0
   10.9578  -15.8492   31.4794 O   0  0  0  0  0  0  0  0  0  0  0  0
    9.8688  -16.1088   29.3711 C   0  0  0  0  0  0  0  0  0  0  0  0
    9.9978  -16.9011   28.0905 C   0  0  2  0  0  0  0  0  0  0  0  0
    8.9099  -16.4691   27.1924 N   0  0  0  0  0  0  0  0  0  0  0  0
    9.9033  -18.3596   28.3095 C   0  0  0  0  0  0  0  0  0  0  0  0
    8.7995  -18.8965   28.4920 O   0  0  0  0  0  0  0  0  0  0  0  0
   11.0339  -19.1608   28.3175 O   0  0  0  0  0  0  0  0  0  0  0  0
  2  3  1  0
  2  1  1  6
  4  3  1  0
  5  4  2  0
  6  5  1  0
  6  7  1  0
  7  8  2  0
  8  4  1  0
  9  2  1  0
 10  9  2  0
 11 12  1  0
 13 12  1  6
 13 14  1  0
 14  9  1  0
 15 13  1  0
 15 22  1  0
 16 15  2  0
 17 18  1  0
 18 19  2  0
 21 20  1  1
 20 18  1  0
 21 22  1  0
 21 23  1  0
 23 25  1  0
 24 23  2  0
M  END
$$$$
