DNC.pdb
     RDKit          3D

 23 22  0  0  1  0  0  0  0  0999 V2000
    8.5490  -18.4439   19.5375 N   0  0  0  0  0  0  0  0  0  0  0  0
    8.7103  -16.9966   19.7911 C   0  0  1  0  0  0  0  0  0  0  0  0
    8.2016  -16.2665   18.5877 C   0  0  0  0  0  0  0  0  0  0  0  0
    9.1030  -16.3144   17.4380 C   0  0  0  0  0  0  0  0  0  0  0  0
   10.2109  -16.8586   17.4206 O   0  0  0  0  0  0  0  0  0  0  0  0
    7.9723  -16.6549   21.0341 C   0  0  0  0  0  0  0  0  0  0  0  0
    6.8059  -16.2348   20.9921 O   0  0  0  0  0  0  0  0  0  0  0  0
    8.7007  -15.6990   16.2404 O   0  0  0  0  0  0  0  0  0  0  0  0
    7.2687  -18.0376   26.8155 N   0  0  0  0  0  0  0  0  0  0  0  0
    6.7952  -17.4702   25.5879 C   0  0  0  0  0  0  0  0  0  0  0  0
    5.7617  -16.7578   25.6333 O   0  0  0  0  0  0  0  0  0  0  0  0
    7.4897  -17.7086   24.3132 C   0  0  0  0  0  0  0  0  0  0  0  0
    7.7926  -16.4726   23.5252 C   0  0  2  0  0  0  0  0  0  0  0  0
    8.5739  -16.7950   22.3245 N   0  0  0  0  0  0  0  0  0  0  0  0
    8.4685  -15.4154   24.3102 C   0  0  0  0  0  0  0  0  0  0  0  0
    9.6864  -15.4427   24.5529 O   0  0  0  0  0  0  0  0  0  0  0  0
    7.6972  -14.3001   24.8216 N   0  0  0  0  0  0  0  0  0  0  0  0
    8.2031  -13.2922   25.6848 C   0  0  1  0  0  0  0  0  0  0  0  0
    7.3198  -12.0704   25.7851 C   0  0  0  0  0  0  0  0  0  0  0  0
    5.7046  -12.6059   26.4560 S   0  0  0  0  0  0  0  0  0  0  0  0
    8.3230  -13.8394   27.0568 C   0  0  0  0  0  0  0  0  0  0  0  0
    8.9745  -13.0882   28.0182 O   0  0  0  0  0  0  0  0  0  0  0  0
    7.8593  -14.9553   27.3857 O   0  0  0  0  0  0  0  0  0  0  0  0
  2  1  1  6
  3  2  1  0
  3  4  1  0
  4  5  2  0
  6  7  2  0
  6  2  1  0
  8  4  1  0
  9 10  1  0
 10 11  2  0
 10 12  1  0
 13 12  1  1
 13 15  1  0
 13 14  1  0
 14  6  1  0
 15 17  1  0
 16 15  2  0
 17 18  1  0
 18 21  1  0
 19 20  1  0
 18 19  1  1
 21 23  2  0
 21 22  1  0
M  END
$$$$
