DNC.pdb
     RDKit          3D

 23 22  0  0  1  0  0  0  0  0999 V2000
    9.7674  -12.6515   19.6829 N   0  0  0  0  0  0  0  0  0  0  0  0
    8.3338  -12.8822   19.9594 C   0  0  1  0  0  0  0  0  0  0  0  0
    7.6873  -13.3034   18.6769 C   0  0  0  0  0  0  0  0  0  0  0  0
    8.4100  -14.3552   17.9641 C   0  0  0  0  0  0  0  0  0  0  0  0
    9.3377  -15.0250   18.4272 O   0  0  0  0  0  0  0  0  0  0  0  0
    8.2233  -13.9058   21.0302 C   0  0  0  0  0  0  0  0  0  0  0  0
    7.1166  -14.2935   21.4347 O   0  0  0  0  0  0  0  0  0  0  0  0
    8.0388  -14.6500   16.6411 O   0  0  0  0  0  0  0  0  0  0  0  0
    9.9477  -17.9407   20.1499 N   0  0  0  0  0  0  0  0  0  0  0  0
    9.3598  -17.6426   21.4222 C   0  0  0  0  0  0  0  0  0  0  0  0
    8.2656  -18.1915   21.7036 O   0  0  0  0  0  0  0  0  0  0  0  0
   10.0087  -16.7265   22.3726 C   0  0  0  0  0  0  0  0  0  0  0  0
    9.2216  -15.4935   22.6897 C   0  0  2  0  0  0  0  0  0  0  0  0
    9.3834  -14.4832   21.6365 N   0  0  0  0  0  0  0  0  0  0  0  0
    9.5337  -14.9106   24.0139 C   0  0  0  0  0  0  0  0  0  0  0  0
   10.6228  -14.3670   24.2616 O   0  0  0  0  0  0  0  0  0  0  0  0
    8.5446  -14.9665   25.0715 N   0  0  0  0  0  0  0  0  0  0  0  0
    8.7223  -14.4364   26.3771 C   0  0  1  0  0  0  0  0  0  0  0  0
    7.4937  -13.7570   26.9357 C   0  0  0  0  0  0  0  0  0  0  0  0
    7.0468  -12.3950   25.7996 S   0  0  0  0  0  0  0  0  0  0  0  0
    9.0556  -15.5384   27.3103 C   0  0  0  0  0  0  0  0  0  0  0  0
    9.4655  -15.2229   28.5930 O   0  0  0  0  0  0  0  0  0  0  0  0
    8.9825  -16.7464   26.9883 O   0  0  0  0  0  0  0  0  0  0  0  0
  2  1  1  6
  3  2  1  0
  3  4  1  0
  4  5  2  0
  6  7  2  0
  6  2  1  0
  8  4  1  0
  9 10  1  0
 10 11  2  0
 10 12  1  0
 13 12  1  6
 13 15  1  0
 13 14  1  0
 14  6  1  0
 15 17  1  0
 16 15  2  0
 17 18  1  0
 18 21  1  0
 19 20  1  0
 18 19  1  1
 21 23  2  0
 21 22  1  0
M  END
$$$$
