DNC.pdb
     RDKit          3D

 23 22  0  0  1  0  0  0  0  0999 V2000
   10.5711  -17.2985   19.4512 N   0  0  0  0  0  0  0  0  0  0  0  0
   11.5312  -18.0346   20.3006 C   0  0  1  0  0  0  0  0  0  0  0  0
   12.8852  -17.8966   19.6779 C   0  0  0  0  0  0  0  0  0  0  0  0
   12.9258  -18.2473   18.2594 C   0  0  0  0  0  0  0  0  0  0  0  0
   13.0830  -17.4500   17.3302 O   0  0  0  0  0  0  0  0  0  0  0  0
   11.4632  -17.4755   21.6751 C   0  0  0  0  0  0  0  0  0  0  0  0
   12.4939  -17.2534   22.3285 O   0  0  0  0  0  0  0  0  0  0  0  0
   12.7769  -19.5962   17.8943 O   0  0  0  0  0  0  0  0  0  0  0  0
    9.1464  -13.9881   25.6966 N   0  0  0  0  0  0  0  0  0  0  0  0
    8.8436  -15.3309   25.2987 C   0  0  0  0  0  0  0  0  0  0  0  0
    8.4235  -16.1212   26.1800 O   0  0  0  0  0  0  0  0  0  0  0  0
    9.0158  -15.7773   23.9077 C   0  0  0  0  0  0  0  0  0  0  0  0
   10.1949  -16.6705   23.6787 C   0  0  2  0  0  0  0  0  0  0  0  0
   10.2119  -17.1725   22.2989 N   0  0  0  0  0  0  0  0  0  0  0  0
   10.2861  -17.7952   24.6365 C   0  0  0  0  0  0  0  0  0  0  0  0
    9.5307  -18.7797   24.5806 O   0  0  0  0  0  0  0  0  0  0  0  0
   11.2875  -17.7641   25.6836 N   0  0  0  0  0  0  0  0  0  0  0  0
   11.4981  -18.7969   26.6354 C   0  0  1  0  0  0  0  0  0  0  0  0
   12.9464  -19.1960   26.7970 C   0  0  0  0  0  0  0  0  0  0  0  0
   13.0264  -20.4854   28.0919 S   0  0  0  0  0  0  0  0  0  0  0  0
   11.0369  -18.3360   27.9662 C   0  0  0  0  0  0  0  0  0  0  0  0
   10.9997  -19.2440   29.0087 O   0  0  0  0  0  0  0  0  0  0  0  0
   10.6780  -17.1571   28.1897 O   0  0  0  0  0  0  0  0  0  0  0  0
  2  1  1  6
  3  2  1  0
  3  4  1  0
  4  5  2  0
  6  7  2  0
  6  2  1  0
  8  4  1  0
  9 10  1  0
 10 11  2  0
 10 12  1  0
 13 12  1  1
 13 15  1  0
 13 14  1  0
 14  6  1  0
 15 17  1  0
 16 15  2  0
 17 18  1  0
 18 21  1  0
 19 20  1  0
 18 19  1  1
 21 23  2  0
 21 22  1  0
M  END
$$$$
