DNC.pdb
     RDKit          3D

 23 22  0  0  1  0  0  0  0  0999 V2000
    9.4434  -17.0051   20.3627 N   0  0  0  0  0  0  0  0  0  0  0  0
    8.2811  -16.0957   20.2778 C   0  0  1  0  0  0  0  0  0  0  0  0
    7.3288  -16.6705   19.2763 C   0  0  0  0  0  0  0  0  0  0  0  0
    7.9361  -16.9666   17.9801 C   0  0  0  0  0  0  0  0  0  0  0  0
    8.7310  -17.8841   17.7561 O   0  0  0  0  0  0  0  0  0  0  0  0
    7.6901  -15.9650   21.6342 C   0  0  0  0  0  0  0  0  0  0  0  0
    6.6253  -15.3544   21.8135 O   0  0  0  0  0  0  0  0  0  0  0  0
    7.6053  -16.1566   16.8803 O   0  0  0  0  0  0  0  0  0  0  0  0
    7.1749  -19.9393   23.4745 N   0  0  0  0  0  0  0  0  0  0  0  0
    6.6863  -18.7507   24.1084 C   0  0  0  0  0  0  0  0  0  0  0  0
    5.4462  -18.5512   24.1003 O   0  0  0  0  0  0  0  0  0  0  0  0
    7.5988  -17.7915   24.7496 C   0  0  0  0  0  0  0  0  0  0  0  0
    7.6582  -16.4486   24.0912 C   0  0  2  0  0  0  0  0  0  0  0  0
    8.3222  -16.5346   22.7843 N   0  0  0  0  0  0  0  0  0  0  0  0
    8.2948  -15.4036   24.9238 C   0  0  0  0  0  0  0  0  0  0  0  0
    9.5278  -15.2719   24.9986 O   0  0  0  0  0  0  0  0  0  0  0  0
    7.4653  -14.4918   25.6858 N   0  0  0  0  0  0  0  0  0  0  0  0
    7.9565  -13.4945   26.5696 C   0  0  1  0  0  0  0  0  0  0  0  0
    6.8974  -12.5361   27.0624 C   0  0  0  0  0  0  0  0  0  0  0  0
    5.8715  -12.0554   25.6264 S   0  0  0  0  0  0  0  0  0  0  0  0
    8.5276  -14.1460   27.7720 C   0  0  0  0  0  0  0  0  0  0  0  0
    8.3962  -15.5157   27.9123 O   0  0  0  0  0  0  0  0  0  0  0  0
    9.1255  -13.5097   28.6698 O   0  0  0  0  0  0  0  0  0  0  0  0
  2  1  1  1
  3  2  1  0
  3  4  1  0
  4  5  2  0
  6  7  2  0
  6  2  1  0
  8  4  1  0
  9 10  1  0
 10 11  2  0
 10 12  1  0
 13 12  1  1
 13 15  1  0
 13 14  1  0
 14  6  1  0
 15 17  1  0
 16 15  2  0
 17 18  1  0
 18 21  1  0
 19 20  1  0
 18 19  1  1
 21 23  2  0
 21 22  1  0
M  END
$$$$
