DNC.pdb
     RDKit          3D

 23 22  0  0  1  0  0  0  0  0999 V2000
   10.0768  -19.0463   21.0418 N   0  0  0  0  0  0  0  0  0  0  0  0
   10.4633  -17.6658   21.4025 C   0  0  1  0  0  0  0  0  0  0  0  0
   10.7130  -16.9184   20.1300 C   0  0  0  0  0  0  0  0  0  0  0  0
   12.0155  -17.1918   19.5255 C   0  0  0  0  0  0  0  0  0  0  0  0
   12.8846  -17.9272   20.0026 O   0  0  0  0  0  0  0  0  0  0  0  0
    9.3738  -17.0742   22.2206 C   0  0  0  0  0  0  0  0  0  0  0  0
    8.5591  -16.2806   21.7256 O   0  0  0  0  0  0  0  0  0  0  0  0
   12.3309  -16.5811   18.2998 O   0  0  0  0  0  0  0  0  0  0  0  0
    6.7004  -18.8779   23.1129 N   0  0  0  0  0  0  0  0  0  0  0  0
    6.7638  -18.8489   24.5441 C   0  0  0  0  0  0  0  0  0  0  0  0
    6.2001  -19.7784   25.1733 O   0  0  0  0  0  0  0  0  0  0  0  0
    7.4633  -17.7711   25.2603 C   0  0  0  0  0  0  0  0  0  0  0  0
    8.1381  -16.7685   24.3772 C   0  0  2  0  0  0  0  0  0  0  0  0
    9.2207  -17.3934   23.6068 N   0  0  0  0  0  0  0  0  0  0  0  0
    8.6417  -15.5796   25.1008 C   0  0  0  0  0  0  0  0  0  0  0  0
    9.7919  -15.5216   25.5662 O   0  0  0  0  0  0  0  0  0  0  0  0
    7.7754  -14.4320   25.2818 N   0  0  0  0  0  0  0  0  0  0  0  0
    8.1190  -13.2637   26.0126 C   0  0  1  0  0  0  0  0  0  0  0  0
    7.0852  -12.1645   25.9335 C   0  0  0  0  0  0  0  0  0  0  0  0
    5.4853  -12.8662   26.4751 S   0  0  0  0  0  0  0  0  0  0  0  0
    8.2586  -13.6085   27.4471 C   0  0  0  0  0  0  0  0  0  0  0  0
    8.7844  -12.6644   28.3102 O   0  0  0  0  0  0  0  0  0  0  0  0
    7.9209  -14.7203   27.9142 O   0  0  0  0  0  0  0  0  0  0  0  0
  2  1  1  6
  3  2  1  0
  3  4  1  0
  4  5  2  0
  6  7  2  0
  6  2  1  0
  8  4  1  0
  9 10  1  0
 10 11  2  0
 10 12  1  0
 13 12  1  1
 13 15  1  0
 13 14  1  0
 14  6  1  0
 15 17  1  0
 16 15  2  0
 17 18  1  0
 18 21  1  0
 19 20  1  0
 18 19  1  1
 21 23  2  0
 21 22  1  0
M  END
$$$$
