DNC.pdb
     RDKit          3D

 23 22  0  0  1  0  0  0  0  0999 V2000
   11.5861  -17.8516   21.3324 N   0  0  0  0  0  0  0  0  0  0  0  0
   10.5700  -16.7997   21.1168 C   0  0  1  0  0  0  0  0  0  0  0  0
    9.8063  -17.1547   19.8795 C   0  0  0  0  0  0  0  0  0  0  0  0
   10.5909  -17.0629   18.6496 C   0  0  0  0  0  0  0  0  0  0  0  0
   11.4943  -17.8362   18.3187 O   0  0  0  0  0  0  0  0  0  0  0  0
    9.7130  -16.7228   22.3276 C   0  0  0  0  0  0  0  0  0  0  0  0
    8.8167  -15.8709   22.4255 O   0  0  0  0  0  0  0  0  0  0  0  0
   10.3150  -16.0182   17.7509 O   0  0  0  0  0  0  0  0  0  0  0  0
    6.4217  -18.1916   26.4598 N   0  0  0  0  0  0  0  0  0  0  0  0
    7.8050  -18.5644   26.4361 C   0  0  0  0  0  0  0  0  0  0  0  0
    8.3693  -18.7881   27.5358 O   0  0  0  0  0  0  0  0  0  0  0  0
    8.5468  -18.6838   25.1715 C   0  0  0  0  0  0  0  0  0  0  0  0
    9.1338  -17.4026   24.6672 C   0  0  2  0  0  0  0  0  0  0  0  0
    9.8859  -17.6236   23.4256 N   0  0  0  0  0  0  0  0  0  0  0  0
    9.9766  -16.7006   25.6610 C   0  0  0  0  0  0  0  0  0  0  0  0
   11.2005  -16.8937   25.7505 O   0  0  0  0  0  0  0  0  0  0  0  0
    9.3691  -15.7498   26.5704 N   0  0  0  0  0  0  0  0  0  0  0  0
   10.0703  -15.0153   27.5633 C   0  0  1  0  0  0  0  0  0  0  0  0
    9.2892  -13.8543   28.1335 C   0  0  0  0  0  0  0  0  0  0  0  0
    8.9249  -12.7018   26.7607 S   0  0  0  0  0  0  0  0  0  0  0  0
   10.3856  -15.9106   28.7014 C   0  0  0  0  0  0  0  0  0  0  0  0
   11.1300  -15.4111   29.7545 O   0  0  0  0  0  0  0  0  0  0  0  0
   10.0070  -17.1033   28.7522 O   0  0  0  0  0  0  0  0  0  0  0  0
  2  1  1  1
  3  2  1  0
  3  4  1  0
  4  5  2  0
  6  7  2  0
  6  2  1  0
  8  4  1  0
  9 10  1  0
 10 11  2  0
 10 12  1  0
 13 12  1  1
 13 15  1  0
 13 14  1  0
 14  6  1  0
 15 17  1  0
 16 15  2  0
 17 18  1  0
 18 21  1  0
 19 20  1  0
 18 19  1  1
 21 23  2  0
 21 22  1  0
M  END
$$$$
