DNC.pdb
     RDKit          3D

 23 22  0  0  1  0  0  0  0  0999 V2000
   14.1023  -16.4545   15.9812 N   0  0  0  0  0  0  0  0  0  0  0  0
   14.7541  -15.3855   16.7671 C   0  0  1  0  0  0  0  0  0  0  0  0
   15.0357  -14.2472   15.8370 C   0  0  0  0  0  0  0  0  0  0  0  0
   15.9031  -14.5977   14.7139 C   0  0  0  0  0  0  0  0  0  0  0  0
   15.6265  -14.4410   13.5211 O   0  0  0  0  0  0  0  0  0  0  0  0
   13.8520  -15.0126   17.8867 C   0  0  0  0  0  0  0  0  0  0  0  0
   14.1503  -14.1017   18.6741 O   0  0  0  0  0  0  0  0  0  0  0  0
   17.1619  -15.1605   14.9849 O   0  0  0  0  0  0  0  0  0  0  0  0
   10.3949  -13.2651   18.0727 N   0  0  0  0  0  0  0  0  0  0  0  0
    9.6972  -14.4779   18.3815 C   0  0  0  0  0  0  0  0  0  0  0  0
    8.4887  -14.5583   18.0484 O   0  0  0  0  0  0  0  0  0  0  0  0
   10.3655  -15.5958   19.0651 C   0  0  0  0  0  0  0  0  0  0  0  0
   11.8281  -15.3940   19.3114 C   0  0  2  0  0  0  0  0  0  0  0  0
   12.6083  -15.6860   18.1022 N   0  0  0  0  0  0  0  0  0  0  0  0
   12.3517  -16.1662   20.4604 C   0  0  0  0  0  0  0  0  0  0  0  0
   12.3042  -17.4067   20.5055 O   0  0  0  0  0  0  0  0  0  0  0  0
   12.9453  -15.4664   21.5820 N   0  0  0  0  0  0  0  0  0  0  0  0
   13.5375  -16.0956   22.7091 C   0  0  1  0  0  0  0  0  0  0  0  0
   14.4290  -15.1856   23.5216 C   0  0  0  0  0  0  0  0  0  0  0  0
   15.8997  -14.7968   22.5062 S   0  0  0  0  0  0  0  0  0  0  0  0
   12.4698  -16.5655   23.6231 C   0  0  0  0  0  0  0  0  0  0  0  0
   12.8231  -17.3221   24.7257 O   0  0  0  0  0  0  0  0  0  0  0  0
   11.2579  -16.3075   23.4410 O   0  0  0  0  0  0  0  0  0  0  0  0
  2  1  1  6
  3  2  1  0
  3  4  1  0
  4  5  2  0
  6  7  2  0
  6  2  1  0
  8  4  1  0
  9 10  1  0
 10 11  2  0
 10 12  1  0
 13 12  1  6
 13 15  1  0
 13 14  1  0
 14  6  1  0
 15 17  1  0
 16 15  2  0
 17 18  1  0
 18 21  1  0
 19 20  1  0
 18 19  1  1
 21 23  2  0
 21 22  1  0
M  END
$$$$
