DNC.pdb
     RDKit          3D

 23 22  0  0  1  0  0  0  0  0999 V2000
    9.4081  -18.6724   21.5491 N   0  0  0  0  0  0  0  0  0  0  0  0
    9.0695  -17.3288   21.0341 C   0  0  1  0  0  0  0  0  0  0  0  0
    8.3993  -17.5078   19.7079 C   0  0  0  0  0  0  0  0  0  0  0  0
    9.3002  -17.9361   18.6393 C   0  0  0  0  0  0  0  0  0  0  0  0
   10.5049  -18.1705   18.7713 O   0  0  0  0  0  0  0  0  0  0  0  0
    8.2076  -16.6485   22.0345 C   0  0  0  0  0  0  0  0  0  0  0  0
    7.6553  -15.5684   21.7759 O   0  0  0  0  0  0  0  0  0  0  0  0
    8.7787  -18.1033   17.3451 O   0  0  0  0  0  0  0  0  0  0  0  0
    7.4447  -19.5722   24.2675 N   0  0  0  0  0  0  0  0  0  0  0  0
    7.0321  -18.7473   25.3640 C   0  0  0  0  0  0  0  0  0  0  0  0
    7.2607  -19.1632   26.5270 O   0  0  0  0  0  0  0  0  0  0  0  0
    6.3632  -17.4557   25.1445 C   0  0  0  0  0  0  0  0  0  0  0  0
    7.1257  -16.4940   24.2877 C   0  0  2  0  0  0  0  0  0  0  0  0
    7.9808  -17.2084   23.3313 N   0  0  0  0  0  0  0  0  0  0  0  0
    7.9227  -15.5123   25.0568 C   0  0  0  0  0  0  0  0  0  0  0  0
    9.1649  -15.5178   25.0570 O   0  0  0  0  0  0  0  0  0  0  0  0
    7.2463  -14.5003   25.8433 N   0  0  0  0  0  0  0  0  0  0  0  0
    7.8987  -13.5128   26.6283 C   0  0  1  0  0  0  0  0  0  0  0  0
    6.9883  -12.4016   27.0968 C   0  0  0  0  0  0  0  0  0  0  0  0
    6.1602  -11.7031   25.6232 S   0  0  0  0  0  0  0  0  0  0  0  0
    8.4528  -14.1464   27.8481 C   0  0  0  0  0  0  0  0  0  0  0  0
    8.2220  -15.4932   28.0618 O   0  0  0  0  0  0  0  0  0  0  0  0
    9.1226  -13.5146   28.6970 O   0  0  0  0  0  0  0  0  0  0  0  0
  2  1  1  1
  3  2  1  0
  3  4  1  0
  4  5  2  0
  6  7  2  0
  6  2  1  0
  8  4  1  0
  9 10  1  0
 10 11  2  0
 10 12  1  0
 13 12  1  1
 13 15  1  0
 13 14  1  0
 14  6  1  0
 15 17  1  0
 16 15  2  0
 17 18  1  0
 18 21  1  0
 19 20  1  0
 18 19  1  1
 21 23  2  0
 21 22  1  0
M  END
$$$$
