LGT.pdb
     RDKit          3D

 20 19  0  0  1  0  0  0  0  0999 V2000
   28.9723  -20.0344   -5.8557 C   0  0  0  0  0  0  0  0  0  0  0  0
   27.6397  -19.9866   -6.5322 C   0  0  1  0  0  0  0  0  0  0  0  0
   27.0626  -18.5873   -6.3453 C   0  0  0  0  0  0  0  0  0  0  0  0
   27.6795  -20.2537   -8.0025 C   0  0  0  0  0  0  0  0  0  0  0  0
   26.3419  -20.1497   -8.6806 C   0  0  2  0  0  0  0  0  0  0  0  0
   25.4320  -21.0820   -8.0681 N   0  0  0  0  0  0  0  0  0  0  0  0
   26.5499  -20.4301  -10.1223 C   0  0  0  0  0  0  0  0  0  0  0  0
   26.9766  -19.5343  -10.8885 O   0  0  0  0  0  0  0  0  0  0  0  0
   26.2690  -21.7321  -10.6786 N   0  0  0  0  0  0  0  0  0  0  0  0
   26.4679  -21.8963  -12.0744 C   0  0  0  0  0  0  0  0  0  0  0  0
   25.2667  -22.1377  -12.8867 C   0  0  0  0  0  0  0  0  0  0  0  0
   24.7889  -23.3298  -12.8914 O   0  0  0  0  0  0  0  0  0  0  0  0
   22.0666  -20.9161  -11.9226 C   0  0  0  0  0  0  0  0  0  0  0  0
   22.2353  -20.4455  -13.3606 C   0  0  1  0  0  0  0  0  0  0  0  0
   22.4526  -19.0713  -13.4177 O   0  0  0  0  0  0  0  0  0  0  0  0
   23.2271  -21.2411  -14.1178 C   0  0  2  0  0  0  0  0  0  0  0  0
   24.5762  -21.1842  -13.6709 N   0  0  0  0  0  0  0  0  0  0  0  0
   23.0170  -21.0565  -15.5761 C   0  0  0  0  0  0  0  0  0  0  0  0
   23.9455  -20.5404  -16.2428 O   0  0  0  0  0  0  0  0  0  0  0  0
   21.8605  -21.4219  -16.2056 O   0  0  0  0  0  0  0  0  0  0  0  0
  2  4  1  0
  2  1  1  6
  3  2  1  0
  4  5  1  0
  5  7  1  0
  5  6  1  1
  7  9  1  0
  8  7  2  0
  9 10  1  0
 10 11  1  0
 11 17  1  0
 11 12  2  0
 14 13  1  1
 14 16  1  0
 15 14  1  0
 16 18  1  0
 16 17  1  1
 18 19  2  0
 18 20  1  0
M  END
$$$$
