LGT.pdb
     RDKit          3D

 20 19  0  0  1  0  0  0  0  0999 V2000
   18.0614  -14.4933  -18.7244 C   0  0  0  0  0  0  0  0  0  0  0  0
   18.1036  -13.8663  -17.3677 C   0  0  1  0  0  0  0  0  0  0  0  0
   18.3886  -14.9629  -16.3468 C   0  0  0  0  0  0  0  0  0  0  0  0
   19.1599  -12.8220  -17.1984 C   0  0  0  0  0  0  0  0  0  0  0  0
   19.0916  -12.0880  -15.8884 C   0  0  2  0  0  0  0  0  0  0  0  0
   17.7157  -11.7874  -15.5905 N   0  0  0  0  0  0  0  0  0  0  0  0
   19.9201  -10.8644  -16.0191 C   0  0  0  0  0  0  0  0  0  0  0  0
   21.1667  -10.9493  -16.1209 O   0  0  0  0  0  0  0  0  0  0  0  0
   19.3184   -9.5525  -16.0327 N   0  0  0  0  0  0  0  0  0  0  0  0
   20.1796   -8.4477  -16.2620 C   0  0  0  0  0  0  0  0  0  0  0  0
   20.1452   -7.3680  -15.2650 C   0  0  0  0  0  0  0  0  0  0  0  0
   19.4022   -7.5437  -14.2323 O   0  0  0  0  0  0  0  0  0  0  0  0
   23.0872   -4.1508  -15.1377 C   0  0  0  0  0  0  0  0  0  0  0  0
   22.2897   -4.6730  -13.9507 C   0  0  1  0  0  0  0  0  0  0  0  0
   22.3031   -3.7633  -12.8966 O   0  0  0  0  0  0  0  0  0  0  0  0
   20.9353   -5.1392  -14.3229 C   0  0  2  0  0  0  0  0  0  0  0  0
   20.8522   -6.1443  -15.3257 N   0  0  0  0  0  0  0  0  0  0  0  0
   20.0283   -3.9757  -14.4919 C   0  0  0  0  0  0  0  0  0  0  0  0
   19.7149   -3.6396  -15.6588 O   0  0  0  0  0  0  0  0  0  0  0  0
   19.5341   -3.2674  -13.4330 O   0  0  0  0  0  0  0  0  0  0  0  0
  2  4  1  0
  2  1  1  6
  3  2  1  0
  4  5  1  0
  5  7  1  0
  5  6  1  6
  7  9  1  0
  8  7  2  0
  9 10  1  0
 10 11  1  0
 11 17  1  0
 11 12  2  0
 14 13  1  6
 14 16  1  0
 15 14  1  0
 16 18  1  0
 16 17  1  6
 18 19  2  0
 18 20  1  0
M  END
$$$$
