LGT.pdb
     RDKit          3D

 20 19  0  0  1  0  0  0  0  0999 V2000
   19.4765  -17.7104  -18.5758 C   0  0  0  0  0  0  0  0  0  0  0  0
   18.7377  -16.9800  -17.5004 C   0  0  1  0  0  0  0  0  0  0  0  0
   18.6947  -17.8721  -16.2642 C   0  0  0  0  0  0  0  0  0  0  0  0
   19.3610  -15.6854  -17.0877 C   0  0  0  0  0  0  0  0  0  0  0  0
   18.5308  -14.8858  -16.1227 C   0  0  2  0  0  0  0  0  0  0  0  0
   17.1823  -14.8047  -16.6196 N   0  0  0  0  0  0  0  0  0  0  0  0
   19.1637  -13.5507  -15.9901 C   0  0  0  0  0  0  0  0  0  0  0  0
   20.3390  -13.4440  -15.5673 O   0  0  0  0  0  0  0  0  0  0  0  0
   18.4491  -12.3468  -16.3416 N   0  0  0  0  0  0  0  0  0  0  0  0
   19.1522  -11.1193  -16.2248 C   0  0  0  0  0  0  0  0  0  0  0  0
   18.3600   -9.9402  -15.8466 C   0  0  0  0  0  0  0  0  0  0  0  0
   17.2275   -9.7796  -16.4307 O   0  0  0  0  0  0  0  0  0  0  0  0
   16.9296   -9.0273  -12.4437 C   0  0  0  0  0  0  0  0  0  0  0  0
   17.6701   -7.8069  -12.9728 C   0  0  1  0  0  0  0  0  0  0  0  0
   18.8051   -7.5385  -12.2120 O   0  0  0  0  0  0  0  0  0  0  0  0
   17.9261   -7.8709  -14.4290 C   0  0  2  0  0  0  0  0  0  0  0  0
   18.7190   -8.9548  -14.8973 N   0  0  0  0  0  0  0  0  0  0  0  0
   18.2981   -6.5262  -14.9371 C   0  0  0  0  0  0  0  0  0  0  0  0
   19.4230   -6.3919  -15.4752 O   0  0  0  0  0  0  0  0  0  0  0  0
   17.4684   -5.4453  -14.8358 O   0  0  0  0  0  0  0  0  0  0  0  0
  2  4  1  0
  2  1  1  6
  3  2  1  0
  4  5  1  0
  5  7  1  0
  5  6  1  6
  7  9  1  0
  8  7  2  0
  9 10  1  0
 10 11  1  0
 11 17  1  0
 11 12  2  0
 14 13  1  1
 14 16  1  0
 15 14  1  0
 16 18  1  0
 16 17  1  1
 18 19  2  0
 18 20  1  0
M  END
$$$$
