LGT.pdb
     RDKit          3D

 20 19  0  0  1  0  0  0  0  0999 V2000
   29.9563  -18.4912   -4.8412 C   0  0  0  0  0  0  0  0  0  0  0  0
   30.0016  -19.9854   -4.8076 C   0  0  1  0  0  0  0  0  0  0  0  0
   31.4624  -20.4139   -4.7164 C   0  0  0  0  0  0  0  0  0  0  0  0
   29.2885  -20.6028   -3.6479 C   0  0  0  0  0  0  0  0  0  0  0  0
   29.7357  -22.0018   -3.3277 C   0  0  2  0  0  0  0  0  0  0  0  0
   28.9261  -22.9337   -4.0681 N   0  0  0  0  0  0  0  0  0  0  0  0
   29.6084  -22.1859   -1.8613 C   0  0  0  0  0  0  0  0  0  0  0  0
   28.4901  -22.0875   -1.3034 O   0  0  0  0  0  0  0  0  0  0  0  0
   30.7600  -22.4811   -1.0425 N   0  0  0  0  0  0  0  0  0  0  0  0
   30.5630  -22.5168    0.3627 C   0  0  0  0  0  0  0  0  0  0  0  0
   31.7474  -22.7981    1.1866 C   0  0  0  0  0  0  0  0  0  0  0  0
   32.8337  -23.1011    0.5721 O   0  0  0  0  0  0  0  0  0  0  0  0
   33.0475  -20.4813    4.1832 C   0  0  0  0  0  0  0  0  0  0  0  0
   33.0564  -21.9518    4.5774 C   0  0  1  0  0  0  0  0  0  0  0  0
   32.1101  -22.2135    5.5648 O   0  0  0  0  0  0  0  0  0  0  0  0
   32.9771  -22.8637    3.4145 C   0  0  2  0  0  0  0  0  0  0  0  0
   31.8154  -22.7695    2.5993 N   0  0  0  0  0  0  0  0  0  0  0  0
   33.3784  -24.2350    3.8183 C   0  0  0  0  0  0  0  0  0  0  0  0
   32.5622  -25.1673    3.6243 O   0  0  0  0  0  0  0  0  0  0  0  0
   34.5889  -24.5099    4.3895 O   0  0  0  0  0  0  0  0  0  0  0  0
  2  4  1  0
  2  1  1  1
  3  2  1  0
  4  5  1  0
  5  7  1  0
  5  6  1  6
  7  9  1  0
  8  7  2  0
  9 10  1  0
 10 11  1  0
 11 17  1  0
 11 12  2  0
 14 13  1  6
 14 16  1  0
 15 14  1  0
 16 18  1  0
 16 17  1  1
 18 19  2  0
 18 20  1  0
M  END
$$$$
