LGT.pdb
     RDKit          3D

 20 19  0  0  1  0  0  0  0  0999 V2000
   26.0464  -19.8300   -8.7006 C   0  0  0  0  0  0  0  0  0  0  0  0
   25.5326  -20.8679   -9.6464 C   0  0  1  0  0  0  0  0  0  0  0  0
   24.3694  -21.5890   -8.9734 C   0  0  0  0  0  0  0  0  0  0  0  0
   25.0243  -20.3284  -10.9446 C   0  0  0  0  0  0  0  0  0  0  0  0
   24.5493  -21.3844  -11.9032 C   0  0  2  0  0  0  0  0  0  0  0  0
   25.6824  -22.1435  -12.3636 N   0  0  0  0  0  0  0  0  0  0  0  0
   23.8445  -20.6956  -13.0120 C   0  0  0  0  0  0  0  0  0  0  0  0
   22.9644  -19.8367  -12.7687 O   0  0  0  0  0  0  0  0  0  0  0  0
   24.1503  -20.9931  -14.3909 N   0  0  0  0  0  0  0  0  0  0  0  0
   23.5099  -20.2029  -15.3809 C   0  0  0  0  0  0  0  0  0  0  0  0
   24.2617  -19.0458  -15.8877 C   0  0  0  0  0  0  0  0  0  0  0  0
   23.7768  -17.8799  -15.6531 O   0  0  0  0  0  0  0  0  0  0  0  0
   27.7555  -17.7774  -15.0679 C   0  0  0  0  0  0  0  0  0  0  0  0
   27.6514  -17.9070  -16.5812 C   0  0  1  0  0  0  0  0  0  0  0  0
   28.4655  -18.9325  -17.0552 O   0  0  0  0  0  0  0  0  0  0  0  0
   26.2536  -17.9808  -17.0615 C   0  0  2  0  0  0  0  0  0  0  0  0
   25.4752  -19.0837  -16.6136 N   0  0  0  0  0  0  0  0  0  0  0  0
   26.2035  -17.6988  -18.5185 C   0  0  0  0  0  0  0  0  0  0  0  0
   26.7106  -16.6270  -18.9273 O   0  0  0  0  0  0  0  0  0  0  0  0
   25.6281  -18.5547  -19.4149 O   0  0  0  0  0  0  0  0  0  0  0  0
  2  4  1  0
  2  1  1  1
  3  2  1  0
  4  5  1  0
  5  7  1  0
  5  6  1  6
  7  9  1  0
  8  7  2  0
  9 10  1  0
 10 11  1  0
 11 17  1  0
 11 12  2  0
 14 13  1  1
 14 16  1  0
 15 14  1  0
 16 18  1  0
 16 17  1  6
 18 19  2  0
 18 20  1  0
M  END
$$$$
