LGT.pdb
     RDKit          3D

 20 19  0  0  1  0  0  0  0  0999 V2000
   17.3150  -30.5112   -3.4282 C   0  0  0  0  0  0  0  0  0  0  0  0
   16.9836  -29.0602   -3.5716 C   0  0  1  0  0  0  0  0  0  0  0  0
   15.5358  -28.9480   -4.0378 C   0  0  0  0  0  0  0  0  0  0  0  0
   17.1023  -28.2681   -2.3093 C   0  0  0  0  0  0  0  0  0  0  0  0
   16.8834  -26.7918   -2.4893 C   0  0  2  0  0  0  0  0  0  0  0  0
   17.7798  -26.3055   -3.5053 N   0  0  0  0  0  0  0  0  0  0  0  0
   17.1157  -26.1432   -1.1756 C   0  0  0  0  0  0  0  0  0  0  0  0
   18.2824  -25.9566   -0.7567 O   0  0  0  0  0  0  0  0  0  0  0  0
   16.0131  -25.7125   -0.3496 N   0  0  0  0  0  0  0  0  0  0  0  0
   16.3339  -25.0659    0.8726 C   0  0  0  0  0  0  0  0  0  0  0  0
   15.6069  -23.8236    1.1709 C   0  0  0  0  0  0  0  0  0  0  0  0
   15.1997  -23.1255    0.1728 O   0  0  0  0  0  0  0  0  0  0  0  0
   12.8390  -23.4605    4.1880 C   0  0  0  0  0  0  0  0  0  0  0  0
   13.7567  -22.2520    4.0661 C   0  0  1  0  0  0  0  0  0  0  0  0
   14.5837  -22.1342    5.1802 O   0  0  0  0  0  0  0  0  0  0  0  0
   14.4790  -22.2010    2.7755 C   0  0  2  0  0  0  0  0  0  0  0  0
   15.3065  -23.3126    2.4553 N   0  0  0  0  0  0  0  0  0  0  0  0
   15.0905  -20.8606    2.5903 C   0  0  0  0  0  0  0  0  0  0  0  0
   14.3237  -19.8720    2.5027 O   0  0  0  0  0  0  0  0  0  0  0  0
   16.4415  -20.6723    2.5097 O   0  0  0  0  0  0  0  0  0  0  0  0
  2  4  1  0
  2  1  1  1
  3  2  1  0
  4  5  1  0
  5  7  1  0
  5  6  1  6
  7  9  1  0
  8  7  2  0
  9 10  1  0
 10 11  1  0
 11 17  1  0
 11 12  2  0
 14 13  1  1
 14 16  1  0
 15 14  1  0
 16 18  1  0
 16 17  1  1
 18 19  2  0
 18 20  1  0
M  END
$$$$
