LGT.pdb
     RDKit          3D

 20 19  0  0  1  0  0  0  0  0999 V2000
   28.9300  -20.2049   -5.1589 C   0  0  0  0  0  0  0  0  0  0  0  0
   27.7615  -19.7963   -5.9975 C   0  0  1  0  0  0  0  0  0  0  0  0
   27.6998  -18.2725   -6.0150 C   0  0  0  0  0  0  0  0  0  0  0  0
   27.8285  -20.2506   -7.4201 C   0  0  0  0  0  0  0  0  0  0  0  0
   26.6246  -19.8782   -8.2397 C   0  0  2  0  0  0  0  0  0  0  0  0
   25.4537  -20.4721   -7.6496 N   0  0  0  0  0  0  0  0  0  0  0  0
   26.8623  -20.3563   -9.6237 C   0  0  0  0  0  0  0  0  0  0  0  0
   27.6439  -19.7378  -10.3840 O   0  0  0  0  0  0  0  0  0  0  0  0
   26.2051  -21.5379  -10.1293 N   0  0  0  0  0  0  0  0  0  0  0  0
   26.4405  -21.8786  -11.4870 C   0  0  0  0  0  0  0  0  0  0  0  0
   25.2945  -21.7706  -12.4012 C   0  0  0  0  0  0  0  0  0  0  0  0
   25.5093  -22.0068  -13.6451 O   0  0  0  0  0  0  0  0  0  0  0  0
   21.1800  -20.6128  -11.1803 C   0  0  0  0  0  0  0  0  0  0  0  0
   21.5105  -21.6221  -12.2711 C   0  0  1  0  0  0  0  0  0  0  0  0
   20.4637  -21.7392  -13.1817 O   0  0  0  0  0  0  0  0  0  0  0  0
   22.8286  -21.3839  -12.9005 C   0  0  2  0  0  0  0  0  0  0  0  0
   23.9673  -21.4302  -12.0495 N   0  0  0  0  0  0  0  0  0  0  0  0
   22.7487  -20.2182  -13.8167 C   0  0  0  0  0  0  0  0  0  0  0  0
   21.8614  -20.2273  -14.7032 O   0  0  0  0  0  0  0  0  0  0  0  0
   23.6002  -19.1531  -13.7293 O   0  0  0  0  0  0  0  0  0  0  0  0
  2  4  1  0
  2  1  1  1
  3  2  1  0
  4  5  1  0
  5  7  1  0
  5  6  1  1
  7  9  1  0
  8  7  2  0
  9 10  1  0
 10 11  1  0
 11 17  1  0
 11 12  2  0
 14 13  1  1
 14 16  1  0
 15 14  1  0
 16 18  1  0
 16 17  1  1
 18 19  2  0
 18 20  1  0
M  END
$$$$
