LGT.pdb
     RDKit          3D

 20 19  0  0  1  0  0  0  0  0999 V2000
   21.1596  -19.4322  -10.0952 C   0  0  0  0  0  0  0  0  0  0  0  0
   22.3460  -20.1803   -9.5772 C   0  0  1  0  0  0  0  0  0  0  0  0
   22.0001  -21.6655   -9.5601 C   0  0  0  0  0  0  0  0  0  0  0  0
   23.5851  -20.0262  -10.3992 C   0  0  0  0  0  0  0  0  0  0  0  0
   24.7403  -20.8658   -9.9297 C   0  0  2  0  0  0  0  0  0  0  0  0
   25.1766  -20.3862   -8.6445 N   0  0  0  0  0  0  0  0  0  0  0  0
   25.8060  -20.7724  -10.9575 C   0  0  0  0  0  0  0  0  0  0  0  0
   26.4449  -19.7053  -11.1149 O   0  0  0  0  0  0  0  0  0  0  0  0
   26.1342  -21.8989  -11.7981 N   0  0  0  0  0  0  0  0  0  0  0  0
   27.1838  -21.7218  -12.7371 C   0  0  0  0  0  0  0  0  0  0  0  0
   26.7880  -21.3737  -14.1093 C   0  0  0  0  0  0  0  0  0  0  0  0
   27.6417  -21.5958  -15.0427 O   0  0  0  0  0  0  0  0  0  0  0  0
   23.1366  -22.3144  -15.6811 C   0  0  0  0  0  0  0  0  0  0  0  0
   23.5875  -20.8986  -16.0129 C   0  0  1  0  0  0  0  0  0  0  0  0
   22.8030  -19.9541  -15.3560 O   0  0  0  0  0  0  0  0  0  0  0  0
   25.0428  -20.6975  -15.8346 C   0  0  2  0  0  0  0  0  0  0  0  0
   25.5527  -20.8144  -14.5120 N   0  0  0  0  0  0  0  0  0  0  0  0
   25.4862  -19.5044  -16.5993 C   0  0  0  0  0  0  0  0  0  0  0  0
   25.3145  -19.5055  -17.8417 O   0  0  0  0  0  0  0  0  0  0  0  0
   26.0702  -18.4226  -16.0027 O   0  0  0  0  0  0  0  0  0  0  0  0
  2  4  1  0
  2  1  1  6
  3  2  1  0
  4  5  1  0
  5  7  1  0
  5  6  1  1
  7  9  1  0
  8  7  2  0
  9 10  1  0
 10 11  1  0
 11 17  1  0
 11 12  2  0
 14 13  1  1
 14 16  1  0
 15 14  1  0
 16 18  1  0
 16 17  1  1
 18 19  2  0
 18 20  1  0
M  END
$$$$
