CGN.pdb
     RDKit          3D

 19 18  0  0  1  0  0  0  0  0999 V2000
   17.6039  -14.7890  -16.8076 N   0  0  0  0  0  0  0  0  0  0  0  0
   18.9216  -14.9584  -17.3344 C   0  0  1  0  0  0  0  0  0  0  0  0
   18.8498  -15.4266  -18.7721 C   0  0  0  0  0  0  0  0  0  0  0  0
   18.4025  -17.1819  -18.7434 S   0  0  0  0  0  0  0  0  0  0  0  0
   19.7434  -13.7205  -17.2287 C   0  0  0  0  0  0  0  0  0  0  0  0
   20.9773  -13.7563  -17.4640 O   0  0  0  0  0  0  0  0  0  0  0  0
   19.1777  -12.4725  -16.8649 N   0  0  0  0  0  0  0  0  0  0  0  0
   19.9179  -11.2491  -16.7946 C   0  0  0  0  0  0  0  0  0  0  0  0
   19.0641  -10.0872  -16.4406 C   0  0  0  0  0  0  0  0  0  0  0  0
   18.3094   -9.6226  -17.3301 O   0  0  0  0  0  0  0  0  0  0  0  0
   16.6504  -10.1601  -13.5975 N   0  0  0  0  0  0  0  0  0  0  0  0
   17.3503   -9.2492  -12.7325 C   0  0  0  0  0  0  0  0  0  0  0  0
   17.1971   -9.3777  -11.5056 O   0  0  0  0  0  0  0  0  0  0  0  0
   18.2066   -8.2172  -13.3238 C   0  0  0  0  0  0  0  0  0  0  0  0
   18.2262   -8.3422  -14.8318 C   0  0  2  0  0  0  0  0  0  0  0  0
   19.0529   -9.4798  -15.1695 N   0  0  0  0  0  0  0  0  0  0  0  0
   18.6572   -7.0756  -15.4430 C   0  0  0  0  0  0  0  0  0  0  0  0
   19.8247   -6.9693  -15.8722 O   0  0  0  0  0  0  0  0  0  0  0  0
   17.7848   -6.0253  -15.5389 O   0  0  0  0  0  0  0  0  0  0  0  0
  2  1  1  6
  2  3  1  0
  4  3  1  0
  5  2  1  0
  6  5  2  0
  7  5  1  0
  8  7  1  0
  9 16  1  0
  9  8  1  0
 10  9  2  0
 11 12  1  0
 12 13  2  0
 12 14  1  0
 15 14  1  1
 15 17  1  0
 15 16  1  0
 17 19  1  0
 18 17  2  0
M  END
$$$$
