CGN.pdb
     RDKit          3D

 19 18  0  0  1  0  0  0  0  0999 V2000
   27.0758  -11.8477  -17.9210 N   0  0  0  0  0  0  0  0  0  0  0  0
   27.1808  -11.5484  -16.5275 C   0  0  1  0  0  0  0  0  0  0  0  0
   28.5998  -11.7776  -16.0527 C   0  0  0  0  0  0  0  0  0  0  0  0
   28.9046  -13.5623  -16.1137 S   0  0  0  0  0  0  0  0  0  0  0  0
   26.7397  -10.1626  -16.2052 C   0  0  0  0  0  0  0  0  0  0  0  0
   26.7177   -9.7650  -15.0133 O   0  0  0  0  0  0  0  0  0  0  0  0
   26.3336   -9.2506  -17.2118 N   0  0  0  0  0  0  0  0  0  0  0  0
   25.8393   -7.9337  -16.9456 C   0  0  0  0  0  0  0  0  0  0  0  0
   24.3572   -7.8620  -16.9936 C   0  0  0  0  0  0  0  0  0  0  0  0
   23.8234   -7.4929  -18.0685 O   0  0  0  0  0  0  0  0  0  0  0  0
   19.4141   -8.6538  -16.1161 N   0  0  0  0  0  0  0  0  0  0  0  0
   20.1236   -9.3856  -15.1018 C   0  0  0  0  0  0  0  0  0  0  0  0
   19.4711  -10.1542  -14.3747 O   0  0  0  0  0  0  0  0  0  0  0  0
   21.5709   -9.1992  -14.9662 C   0  0  0  0  0  0  0  0  0  0  0  0
   22.0762   -8.2005  -15.9848 C   0  0  2  0  0  0  0  0  0  0  0  0
   23.5202   -8.1830  -15.9068 N   0  0  0  0  0  0  0  0  0  0  0  0
   21.4408   -6.8908  -15.7736 C   0  0  0  0  0  0  0  0  0  0  0  0
   20.3206   -6.6657  -16.2769 O   0  0  0  0  0  0  0  0  0  0  0  0
   22.0735   -5.9298  -15.0321 O   0  0  0  0  0  0  0  0  0  0  0  0
  2  1  1  6
  2  3  1  0
  4  3  1  0
  5  2  1  0
  6  5  2  0
  7  5  1  0
  8  7  1  0
  9 16  1  0
  9  8  1  0
 10  9  2  0
 11 12  1  0
 12 13  2  0
 12 14  1  0
 15 14  1  1
 15 17  1  0
 15 16  1  0
 17 19  1  0
 18 17  2  0
M  END
$$$$
