CGN.pdb
     RDKit          3D

 19 18  0  0  1  0  0  0  0  0999 V2000
   25.7580  -14.6219  -17.0045 N   0  0  0  0  0  0  0  0  0  0  0  0
   24.7818  -14.5896  -15.9611 C   0  0  1  0  0  0  0  0  0  0  0  0
   25.1539  -15.5721  -14.8714 C   0  0  0  0  0  0  0  0  0  0  0  0
   25.2192  -17.2159  -15.6299 S   0  0  0  0  0  0  0  0  0  0  0  0
   24.5966  -13.2252  -15.3931 C   0  0  0  0  0  0  0  0  0  0  0  0
   23.7138  -13.0144  -14.5239 O   0  0  0  0  0  0  0  0  0  0  0  0
   25.3944  -12.1269  -15.8021 N   0  0  0  0  0  0  0  0  0  0  0  0
   25.2646  -10.8031  -15.2725 C   0  0  0  0  0  0  0  0  0  0  0  0
   24.0587  -10.1025  -15.7814 C   0  0  0  0  0  0  0  0  0  0  0  0
   24.0032   -9.8497  -17.0101 O   0  0  0  0  0  0  0  0  0  0  0  0
   21.2483  -11.1718  -17.0931 N   0  0  0  0  0  0  0  0  0  0  0  0
   20.3667  -11.0085  -15.9689 C   0  0  0  0  0  0  0  0  0  0  0  0
   19.4362  -11.8220  -15.8358 O   0  0  0  0  0  0  0  0  0  0  0  0
   20.5965   -9.9027  -15.0350 C   0  0  0  0  0  0  0  0  0  0  0  0
   21.7826   -9.0724  -15.4755 C   0  0  2  0  0  0  0  0  0  0  0  0
   22.9786   -9.7073  -14.9677 N   0  0  0  0  0  0  0  0  0  0  0  0
   21.6113   -7.6740  -15.0529 C   0  0  0  0  0  0  0  0  0  0  0  0
   22.2675   -7.2433  -14.0819 O   0  0  0  0  0  0  0  0  0  0  0  0
   20.7403   -6.8549  -15.7192 O   0  0  0  0  0  0  0  0  0  0  0  0
  2  1  1  6
  2  3  1  0
  4  3  1  0
  5  2  1  0
  6  5  2  0
  7  5  1  0
  8  7  1  0
  9 16  1  0
  9  8  1  0
 10  9  2  0
 11 12  1  0
 12 13  2  0
 12 14  1  0
 15 14  1  1
 15 17  1  0
 15 16  1  0
 17 19  1  0
 18 17  2  0
M  END
$$$$
