CGN.pdb
     RDKit          3D

 19 18  0  0  1  0  0  0  0  0999 V2000
   22.3747  -17.9168  -16.3509 N   0  0  0  0  0  0  0  0  0  0  0  0
   21.0758  -18.4968  -16.2132 C   0  0  1  0  0  0  0  0  0  0  0  0
   20.9182  -19.0952  -14.8318 C   0  0  0  0  0  0  0  0  0  0  0  0
   22.4026  -20.0792  -14.5004 S   0  0  0  0  0  0  0  0  0  0  0  0
   19.9826  -17.5232  -16.4885 C   0  0  0  0  0  0  0  0  0  0  0  0
   18.7820  -17.8936  -16.4631 O   0  0  0  0  0  0  0  0  0  0  0  0
   20.2462  -16.1622  -16.7853 N   0  0  0  0  0  0  0  0  0  0  0  0
   19.2283  -15.1821  -17.0151 C   0  0  0  0  0  0  0  0  0  0  0  0
   19.7867  -13.8274  -17.2541 C   0  0  0  0  0  0  0  0  0  0  0  0
   21.0332  -13.6888  -17.1935 O   0  0  0  0  0  0  0  0  0  0  0  0
   18.1285   -8.0381  -18.5563 N   0  0  0  0  0  0  0  0  0  0  0  0
   18.9387   -9.2080  -18.7625 C   0  0  0  0  0  0  0  0  0  0  0  0
   20.0524   -9.0584  -19.2942 O   0  0  0  0  0  0  0  0  0  0  0  0
   18.4265  -10.5154  -18.3429 C   0  0  0  0  0  0  0  0  0  0  0  0
   19.5523  -11.3893  -17.8339 C   0  0  2  0  0  0  0  0  0  0  0  0
   19.0009  -12.6944  -17.5434 N   0  0  0  0  0  0  0  0  0  0  0  0
   20.2220  -10.7455  -16.6936 C   0  0  0  0  0  0  0  0  0  0  0  0
   19.7028  -10.8144  -15.5603 O   0  0  0  0  0  0  0  0  0  0  0  0
   21.4029  -10.0778  -16.8758 O   0  0  0  0  0  0  0  0  0  0  0  0
  2  1  1  1
  2  3  1  0
  4  3  1  0
  5  2  1  0
  6  5  2  0
  7  5  1  0
  8  7  1  0
  9 16  1  0
  9  8  1  0
 10  9  2  0
 11 12  1  0
 12 13  2  0
 12 14  1  0
 15 14  1  1
 15 17  1  0
 15 16  1  0
 17 19  1  0
 18 17  2  0
M  END
$$$$
