CGN.pdb
     RDKit          3D

 19 18  0  0  1  0  0  0  0  0999 V2000
   19.7106  -18.6520  -15.7040 N   0  0  0  0  0  0  0  0  0  0  0  0
   20.5978  -18.0779  -14.7418 C   0  0  1  0  0  0  0  0  0  0  0  0
   21.5949  -19.1151  -14.2713 C   0  0  0  0  0  0  0  0  0  0  0  0
   20.7135  -20.2418  -13.1598 S   0  0  0  0  0  0  0  0  0  0  0  0
   21.3032  -16.8733  -15.2614 C   0  0  0  0  0  0  0  0  0  0  0  0
   22.5261  -16.9277  -15.5458 O   0  0  0  0  0  0  0  0  0  0  0  0
   20.6364  -15.6370  -15.4532 N   0  0  0  0  0  0  0  0  0  0  0  0
   21.2454  -14.4826  -16.0415 C   0  0  0  0  0  0  0  0  0  0  0  0
   20.3271  -13.3171  -16.0894 C   0  0  0  0  0  0  0  0  0  0  0  0
   19.0931  -13.5453  -16.1321 O   0  0  0  0  0  0  0  0  0  0  0  0
   17.9901   -8.9027  -16.1713 N   0  0  0  0  0  0  0  0  0  0  0  0
   18.6006   -9.2231  -14.9094 C   0  0  0  0  0  0  0  0  0  0  0  0
   18.2407   -8.5797  -13.9086 O   0  0  0  0  0  0  0  0  0  0  0  0
   19.6112  -10.2829  -14.8529 C   0  0  0  0  0  0  0  0  0  0  0  0
   19.8688  -10.8464  -16.2336 C   0  0  2  0  0  0  0  0  0  0  0  0
   20.7598  -11.9764  -16.0899 N   0  0  0  0  0  0  0  0  0  0  0  0
   20.3656   -9.7916  -17.1304 C   0  0  0  0  0  0  0  0  0  0  0  0
   21.5348   -9.8568  -17.5632 O   0  0  0  0  0  0  0  0  0  0  0  0
   19.5519   -8.7498  -17.4854 O   0  0  0  0  0  0  0  0  0  0  0  0
  2  1  1  6
  2  3  1  0
  4  3  1  0
  5  2  1  0
  6  5  2  0
  7  5  1  0
  8  7  1  0
  9 16  1  0
  9  8  1  0
 10  9  2  0
 11 12  1  0
 12 13  2  0
 12 14  1  0
 15 14  1  1
 15 17  1  0
 15 16  1  0
 17 19  1  0
 18 17  2  0
M  END
$$$$
