CGN.pdb
     RDKit          3D

 19 18  0  0  1  0  0  0  0  0999 V2000
   21.5896  -13.2986  -17.5510 N   0  0  0  0  0  0  0  0  0  0  0  0
   20.4171  -13.0321  -18.3234 C   0  0  1  0  0  0  0  0  0  0  0  0
   19.1783  -13.3356  -17.5083 C   0  0  0  0  0  0  0  0  0  0  0  0
   19.3708  -15.0090  -16.8418 S   0  0  0  0  0  0  0  0  0  0  0  0
   20.3754  -11.6342  -18.8361 C   0  0  0  0  0  0  0  0  0  0  0  0
   19.4848  -11.2835  -19.6504 O   0  0  0  0  0  0  0  0  0  0  0  0
   21.3218  -10.6583  -18.4338 N   0  0  0  0  0  0  0  0  0  0  0  0
   21.2509   -9.2763  -18.8010 C   0  0  0  0  0  0  0  0  0  0  0  0
   20.8046   -8.4120  -17.6794 C   0  0  0  0  0  0  0  0  0  0  0  0
   20.8238   -7.1688  -17.8549 O   0  0  0  0  0  0  0  0  0  0  0  0
   18.2658   -6.6774  -13.5256 N   0  0  0  0  0  0  0  0  0  0  0  0
   18.5198   -8.0806  -13.3408 C   0  0  0  0  0  0  0  0  0  0  0  0
   18.3247   -8.5639  -12.2123 O   0  0  0  0  0  0  0  0  0  0  0  0
   18.9933   -8.8770  -14.4764 C   0  0  0  0  0  0  0  0  0  0  0  0
   19.9209   -8.0597  -15.3492 C   0  0  2  0  0  0  0  0  0  0  0  0
   20.3632   -8.9053  -16.4358 N   0  0  0  0  0  0  0  0  0  0  0  0
   21.0099   -7.4892  -14.5417 C   0  0  0  0  0  0  0  0  0  0  0  0
   20.7522   -6.5909  -13.7139 O   0  0  0  0  0  0  0  0  0  0  0  0
   22.2927   -7.9404  -14.6984 O   0  0  0  0  0  0  0  0  0  0  0  0
  2  1  1  1
  2  3  1  0
  4  3  1  0
  5  2  1  0
  6  5  2  0
  7  5  1  0
  8  7  1  0
  9 16  1  0
  9  8  1  0
 10  9  2  0
 11 12  1  0
 12 13  2  0
 12 14  1  0
 15 14  1  1
 15 17  1  0
 15 16  1  0
 17 19  1  0
 18 17  2  0
M  END
$$$$
