CGN.pdb
     RDKit          3D

 19 18  0  0  1  0  0  0  0  0999 V2000
   20.7544  -11.2447  -17.8367 N   0  0  0  0  0  0  0  0  0  0  0  0
   20.0282  -10.2393  -17.1265 C   0  0  1  0  0  0  0  0  0  0  0  0
   18.5679  -10.6257  -17.0281 C   0  0  0  0  0  0  0  0  0  0  0  0
   17.7968  -10.2194  -18.6162 S   0  0  0  0  0  0  0  0  0  0  0  0
   20.5911   -9.9758  -15.7728 C   0  0  0  0  0  0  0  0  0  0  0  0
   20.7874  -10.9240  -14.9719 O   0  0  0  0  0  0  0  0  0  0  0  0
   20.9230   -8.6674  -15.3393 N   0  0  0  0  0  0  0  0  0  0  0  0
   21.5233   -8.3726  -14.0735 C   0  0  0  0  0  0  0  0  0  0  0  0
   21.8647   -6.9352  -13.9268 C   0  0  0  0  0  0  0  0  0  0  0  0
   22.2949   -6.5462  -12.8132 O   0  0  0  0  0  0  0  0  0  0  0  0
   22.2527   -1.6725  -17.1116 N   0  0  0  0  0  0  0  0  0  0  0  0
   22.7381   -2.6471  -16.1724 C   0  0  0  0  0  0  0  0  0  0  0  0
   23.5950   -2.2847  -15.3480 O   0  0  0  0  0  0  0  0  0  0  0  0
   22.2102   -4.0133  -16.2229 C   0  0  0  0  0  0  0  0  0  0  0  0
   22.1187   -4.5999  -14.8309 C   0  0  2  0  0  0  0  0  0  0  0  0
   21.7339   -5.9879  -14.9614 N   0  0  0  0  0  0  0  0  0  0  0  0
   21.2137   -3.7947  -13.9967 C   0  0  0  0  0  0  0  0  0  0  0  0
   20.0197   -4.1403  -13.8794 O   0  0  0  0  0  0  0  0  0  0  0  0
   21.6784   -2.6778  -13.3562 O   0  0  0  0  0  0  0  0  0  0  0  0
  2  1  1  1
  2  3  1  0
  4  3  1  0
  5  2  1  0
  6  5  2  0
  7  5  1  0
  8  7  1  0
  9 16  1  0
  9  8  1  0
 10  9  2  0
 11 12  1  0
 12 13  2  0
 12 14  1  0
 15 14  1  6
 15 17  1  0
 15 16  1  0
 17 19  1  0
 18 17  2  0
M  END
$$$$
