FNL.pdb
     RDKit          3D

 28 28  0  0  1  0  0  0  0  0999 V2000
    7.7833  -17.3988   20.4813 N   0  0  0  0  0  0  0  0  0  0  0  0
    8.5489  -16.5047   21.3561 C   0  0  1  0  0  0  0  0  0  0  0  0
    7.5670  -15.4286   21.7875 C   0  0  0  0  0  0  0  0  0  0  0  0
    7.5959  -14.2510   20.8735 C   0  0  0  0  0  0  0  0  0  0  0  0
    8.5247  -13.2368   21.0920 C   0  0  0  0  0  0  0  0  0  0  0  0
    8.5859  -12.1235   20.2626 C   0  0  0  0  0  0  0  0  0  0  0  0
    7.7285  -11.9903   19.1993 C   0  0  0  0  0  0  0  0  0  0  0  0
    6.8067  -12.9989   18.9841 C   0  0  0  0  0  0  0  0  0  0  0  0
    6.7345  -14.1160   19.8033 C   0  0  0  0  0  0  0  0  0  0  0  0
    9.0846  -17.2536   22.5074 C   0  0  0  0  0  0  0  0  0  0  0  0
    8.2820  -17.7710   23.2948 O   0  0  0  0  0  0  0  0  0  0  0  0
   11.3627  -20.0793   22.2700 N   0  0  0  0  0  0  0  0  0  0  0  0
   12.5475  -19.4561   22.7215 C   0  0  0  0  0  0  0  0  0  0  0  0
   13.6821  -19.8799   22.3538 O   0  0  0  0  0  0  0  0  0  0  0  0
   12.4782  -18.3027   23.6273 C   0  0  0  0  0  0  0  0  0  0  0  0
   11.0062  -17.9433   23.9496 C   0  0  2  0  0  0  0  0  0  0  0  0
   10.4630  -17.3927   22.7277 N   0  0  0  0  0  0  0  0  0  0  0  0
   11.0094  -16.9814   25.0764 C   0  0  0  0  0  0  0  0  0  0  0  0
   11.4558  -15.8143   24.7625 O   0  0  0  0  0  0  0  0  0  0  0  0
   10.7784  -13.2818   28.2493 C   0  0  0  0  0  0  0  0  0  0  0  0
    9.5404  -13.9372   27.7011 C   0  0  1  0  0  0  0  0  0  0  0  0
    8.6446  -12.9341   26.9976 C   0  0  0  0  0  0  0  0  0  0  0  0
    9.8166  -15.1416   26.9282 C   0  0  0  0  0  0  0  0  0  0  0  0
   10.6223  -16.2553   27.4401 C   0  0  2  0  0  0  0  0  0  0  0  0
   10.5758  -17.2802   26.3696 N   0  0  0  0  0  0  0  0  0  0  0  0
   10.2929  -16.9218   28.6774 C   0  0  0  0  0  0  0  0  0  0  0  0
    9.3808  -18.0015   28.6409 O   0  0  0  0  0  0  0  0  0  0  0  0
   10.7166  -16.6753   29.8372 O   0  0  0  0  0  0  0  0  0  0  0  0
  2  1  1  6
  2  3  1  0
  3  4  1  0
  4  5  2  0
  5  6  1  0
  7  6  2  0
  8  7  1  0
  9  4  1  0
  9  8  2  0
 10 11  2  0
 10  2  1  0
 13 12  1  0
 14 13  2  0
 15 13  1  0
 16 15  1  6
 16 17  1  0
 17 10  1  0
 18 16  1  0
 18 25  1  0
 19 18  2  0
 21 20  1  6
 21 22  1  0
 23 21  1  0
 24 25  1  0
 24 23  1  6
 26 24  1  0
 27 26  1  0
 28 26  2  0
M  END
$$$$
