FNL.pdb
     RDKit          3D

 28 28  0  0  1  0  0  0  0  0999 V2000
    7.1394  -17.2867   25.3369 N   0  0  0  0  0  0  0  0  0  0  0  0
    6.8162  -17.4421   23.9148 C   0  0  1  0  0  0  0  0  0  0  0  0
    6.1039  -16.1586   23.5231 C   0  0  0  0  0  0  0  0  0  0  0  0
    6.5949  -14.9890   24.3067 C   0  0  0  0  0  0  0  0  0  0  0  0
    7.4703  -14.0843   23.7115 C   0  0  0  0  0  0  0  0  0  0  0  0
    7.9497  -12.9805   24.4065 C   0  0  0  0  0  0  0  0  0  0  0  0
    7.5730  -12.7491   25.7057 C   0  0  0  0  0  0  0  0  0  0  0  0
    6.7035  -13.6491   26.2949 C   0  0  0  0  0  0  0  0  0  0  0  0
    6.2164  -14.7547   25.6134 C   0  0  0  0  0  0  0  0  0  0  0  0
    8.0481  -17.6482   23.1316 C   0  0  0  0  0  0  0  0  0  0  0  0
    8.2240  -18.7494   22.5947 O   0  0  0  0  0  0  0  0  0  0  0  0
   12.1935  -17.3007   20.4700 N   0  0  0  0  0  0  0  0  0  0  0  0
   11.2259  -16.3268   20.8038 C   0  0  0  0  0  0  0  0  0  0  0  0
   10.4442  -15.8628   19.9230 O   0  0  0  0  0  0  0  0  0  0  0  0
   11.1134  -15.8378   22.1836 C   0  0  0  0  0  0  0  0  0  0  0  0
   10.4308  -16.8939   23.0882 C   0  0  2  0  0  0  0  0  0  0  0  0
    9.0113  -16.6394   22.9816 N   0  0  0  0  0  0  0  0  0  0  0  0
   10.9562  -16.7230   24.4628 C   0  0  0  0  0  0  0  0  0  0  0  0
   12.2275  -16.9087   24.5603 O   0  0  0  0  0  0  0  0  0  0  0  0
   11.5864  -13.8154   28.9331 C   0  0  0  0  0  0  0  0  0  0  0  0
   10.2120  -14.3939   28.7357 C   0  0  1  0  0  0  0  0  0  0  0  0
    9.1313  -13.4252   29.1803 C   0  0  0  0  0  0  0  0  0  0  0  0
   10.0054  -14.9559   27.4070 C   0  0  0  0  0  0  0  0  0  0  0  0
   10.8035  -16.0645   26.8726 C   0  0  2  0  0  0  0  0  0  0  0  0
   10.1737  -16.3920   25.5708 N   0  0  0  0  0  0  0  0  0  0  0  0
   10.9528  -17.3061   27.5937 C   0  0  0  0  0  0  0  0  0  0  0  0
    9.8780  -18.2246   27.5865 O   0  0  0  0  0  0  0  0  0  0  0  0
   11.9425  -17.7126   28.2574 O   0  0  0  0  0  0  0  0  0  0  0  0
  2  1  1  1
  2  3  1  0
  3  4  1  0
  4  5  2  0
  5  6  1  0
  7  6  2  0
  8  7  1  0
  9  4  1  0
  9  8  2  0
 10 11  2  0
 10  2  1  0
 13 12  1  0
 14 13  2  0
 15 13  1  0
 16 15  1  6
 16 17  1  0
 17 10  1  0
 18 16  1  0
 18 25  1  0
 19 18  2  0
 21 20  1  6
 21 22  1  0
 23 21  1  0
 24 25  1  0
 24 23  1  1
 26 24  1  0
 27 26  1  0
 28 26  2  0
M  END
$$$$
