FNL.pdb
     RDKit          3D

 28 28  0  0  1  0  0  0  0  0999 V2000
    6.9388  -18.2043   21.8401 N   0  0  0  0  0  0  0  0  0  0  0  0
    7.5497  -17.0455   22.4996 C   0  0  1  0  0  0  0  0  0  0  0  0
    6.5702  -16.6415   23.5884 C   0  0  0  0  0  0  0  0  0  0  0  0
    6.9418  -15.3410   24.2158 C   0  0  0  0  0  0  0  0  0  0  0  0
    6.7971  -15.1777   25.5911 C   0  0  0  0  0  0  0  0  0  0  0  0
    7.1336  -13.9824   26.2151 C   0  0  0  0  0  0  0  0  0  0  0  0
    7.6202  -12.9233   25.4908 C   0  0  0  0  0  0  0  0  0  0  0  0
    7.7632  -13.0877   24.1248 C   0  0  0  0  0  0  0  0  0  0  0  0
    7.4320  -14.2750   23.4886 C   0  0  0  0  0  0  0  0  0  0  0  0
    8.8669  -17.4094   23.0526 C   0  0  0  0  0  0  0  0  0  0  0  0
    8.9860  -18.5091   23.6078 O   0  0  0  0  0  0  0  0  0  0  0  0
   12.1381  -17.3773   20.9763 N   0  0  0  0  0  0  0  0  0  0  0  0
   12.6751  -16.2240   21.5908 C   0  0  0  0  0  0  0  0  0  0  0  0
   13.5250  -15.5056   20.9876 O   0  0  0  0  0  0  0  0  0  0  0  0
   12.2521  -15.8412   22.9437 C   0  0  0  0  0  0  0  0  0  0  0  0
   11.2638  -16.8818   23.5268 C   0  0  2  0  0  0  0  0  0  0  0  0
    9.9731  -16.5512   22.9645 N   0  0  0  0  0  0  0  0  0  0  0  0
   11.3064  -16.7716   25.0035 C   0  0  0  0  0  0  0  0  0  0  0  0
   12.4654  -17.0174   25.5100 O   0  0  0  0  0  0  0  0  0  0  0  0
    8.1275  -13.2842   27.8099 C   0  0  0  0  0  0  0  0  0  0  0  0
    9.4088  -14.0220   27.5325 C   0  0  1  0  0  0  0  0  0  0  0  0
   10.5848  -13.3842   28.2494 C   0  0  0  0  0  0  0  0  0  0  0  0
    9.2998  -15.4631   27.7214 C   0  0  0  0  0  0  0  0  0  0  0  0
   10.3292  -16.4096   27.2791 C   0  0  2  0  0  0  0  0  0  0  0  0
   10.2110  -16.4350   25.8012 N   0  0  0  0  0  0  0  0  0  0  0  0
   10.3375  -17.7823   27.7257 C   0  0  0  0  0  0  0  0  0  0  0  0
   11.0257  -18.1000   28.9192 O   0  0  0  0  0  0  0  0  0  0  0  0
    9.7981  -18.7847   27.1876 O   0  0  0  0  0  0  0  0  0  0  0  0
  2  1  1  1
  2  3  1  0
  3  4  1  0
  4  5  2  0
  5  6  1  0
  7  6  2  0
  8  7  1  0
  9  4  1  0
  9  8  2  0
 10 11  2  0
 10  2  1  0
 13 12  1  0
 14 13  2  0
 15 13  1  0
 16 15  1  6
 16 17  1  0
 17 10  1  0
 18 16  1  0
 18 25  1  0
 19 18  2  0
 21 20  1  1
 21 22  1  0
 23 21  1  0
 24 25  1  0
 24 23  1  1
 26 24  1  0
 27 26  1  0
 28 26  2  0
M  END
$$$$
