FNL.pdb
     RDKit          3D

 28 28  0  0  1  0  0  0  0  0999 V2000
    6.4089  -17.7726   20.3090 N   0  0  0  0  0  0  0  0  0  0  0  0
    6.8569  -16.7439   21.2535 C   0  0  1  0  0  0  0  0  0  0  0  0
    5.9954  -15.5275   20.9595 C   0  0  0  0  0  0  0  0  0  0  0  0
    6.8166  -14.2978   20.7687 C   0  0  0  0  0  0  0  0  0  0  0  0
    7.3526  -14.0197   19.5139 C   0  0  0  0  0  0  0  0  0  0  0  0
    8.1219  -12.8836   19.2935 C   0  0  0  0  0  0  0  0  0  0  0  0
    8.3772  -11.9986   20.3108 C   0  0  0  0  0  0  0  0  0  0  0  0
    7.8438  -12.2767   21.5564 C   0  0  0  0  0  0  0  0  0  0  0  0
    7.0737  -13.4063   21.7909 C   0  0  0  0  0  0  0  0  0  0  0  0
    6.6869  -17.2158   22.6398 C   0  0  0  0  0  0  0  0  0  0  0  0
    5.5929  -17.6935   22.9664 O   0  0  0  0  0  0  0  0  0  0  0  0
    7.4572  -18.8028   27.4033 N   0  0  0  0  0  0  0  0  0  0  0  0
    8.3216  -19.3950   26.4556 C   0  0  0  0  0  0  0  0  0  0  0  0
    9.0412  -20.3883   26.7681 O   0  0  0  0  0  0  0  0  0  0  0  0
    8.3969  -18.8638   25.0890 C   0  0  0  0  0  0  0  0  0  0  0  0
    7.5603  -17.5668   24.9554 C   0  0  2  0  0  0  0  0  0  0  0  0
    7.7218  -17.1385   23.5837 N   0  0  0  0  0  0  0  0  0  0  0  0
    8.0776  -16.5888   25.9406 C   0  0  0  0  0  0  0  0  0  0  0  0
    7.8882  -16.9362   27.1668 O   0  0  0  0  0  0  0  0  0  0  0  0
    6.0027  -12.4158   26.6406 C   0  0  0  0  0  0  0  0  0  0  0  0
    7.2153  -13.0624   26.0288 C   0  0  1  0  0  0  0  0  0  0  0  0
    7.8736  -12.1548   25.0057 C   0  0  0  0  0  0  0  0  0  0  0  0
    8.1323  -13.6220   27.0138 C   0  0  0  0  0  0  0  0  0  0  0  0
    9.2530  -14.4989   26.6583 C   0  0  2  0  0  0  0  0  0  0  0  0
    8.7153  -15.3930   25.6046 N   0  0  0  0  0  0  0  0  0  0  0  0
    9.8960  -15.3408   27.6388 C   0  0  0  0  0  0  0  0  0  0  0  0
   10.8249  -14.7534   28.5282 O   0  0  0  0  0  0  0  0  0  0  0  0
    9.7457  -16.5762   27.8302 O   0  0  0  0  0  0  0  0  0  0  0  0
  2  1  1  6
  2  3  1  0
  3  4  1  0
  4  5  2  0
  5  6  1  0
  7  6  2  0
  8  7  1  0
  9  4  1  0
  9  8  2  0
 10 11  2  0
 10  2  1  0
 13 12  1  0
 14 13  2  0
 15 13  1  0
 16 15  1  6
 16 17  1  0
 17 10  1  0
 18 16  1  0
 18 25  1  0
 19 18  2  0
 21 20  1  1
 21 22  1  0
 23 21  1  0
 24 25  1  0
 24 23  1  1
 26 24  1  0
 27 26  1  0
 28 26  2  0
M  END
$$$$
