FNL.pdb
     RDKit          3D

 28 28  0  0  1  0  0  0  0  0999 V2000
    5.9826  -18.6359   23.2642 N   0  0  0  0  0  0  0  0  0  0  0  0
    6.6867  -17.3544   23.3774 C   0  0  1  0  0  0  0  0  0  0  0  0
    6.0805  -16.6697   24.5906 C   0  0  0  0  0  0  0  0  0  0  0  0
    6.4355  -15.2227   24.6474 C   0  0  0  0  0  0  0  0  0  0  0  0
    7.2405  -14.6751   23.6518 C   0  0  0  0  0  0  0  0  0  0  0  0
    7.5929  -13.3310   23.6669 C   0  0  0  0  0  0  0  0  0  0  0  0
    7.1561  -12.5003   24.6682 C   0  0  0  0  0  0  0  0  0  0  0  0
    6.3566  -13.0463   25.6561 C   0  0  0  0  0  0  0  0  0  0  0  0
    5.9964  -14.3858   25.6536 C   0  0  0  0  0  0  0  0  0  0  0  0
    8.1344  -17.5808   23.5402 C   0  0  0  0  0  0  0  0  0  0  0  0
    8.5041  -18.5044   24.2764 O   0  0  0  0  0  0  0  0  0  0  0  0
   13.1691  -17.2826   21.5379 N   0  0  0  0  0  0  0  0  0  0  0  0
   12.6408  -16.1062   22.1149 C   0  0  0  0  0  0  0  0  0  0  0  0
   13.4074  -15.2154   22.5851 O   0  0  0  0  0  0  0  0  0  0  0  0
   11.1884  -15.9000   22.1769 C   0  0  0  0  0  0  0  0  0  0  0  0
   10.5120  -17.0005   23.0320 C   0  0  2  0  0  0  0  0  0  0  0  0
    9.0891  -16.7861   22.8884 N   0  0  0  0  0  0  0  0  0  0  0  0
   10.9905  -16.8513   24.4261 C   0  0  0  0  0  0  0  0  0  0  0  0
   12.2651  -16.9873   24.5558 O   0  0  0  0  0  0  0  0  0  0  0  0
   11.2694  -14.1133   29.0927 C   0  0  0  0  0  0  0  0  0  0  0  0
    9.9429  -14.7422   28.7645 C   0  0  1  0  0  0  0  0  0  0  0  0
    8.7863  -13.8582   29.1944 C   0  0  0  0  0  0  0  0  0  0  0  0
    9.8536  -15.2228   27.3915 C   0  0  0  0  0  0  0  0  0  0  0  0
   10.7416  -16.2538   26.8438 C   0  0  2  0  0  0  0  0  0  0  0  0
   10.1635  -16.5877   25.5198 N   0  0  0  0  0  0  0  0  0  0  0  0
   10.9677  -17.5020   27.5328 C   0  0  0  0  0  0  0  0  0  0  0  0
   10.1975  -18.6278   27.1608 O   0  0  0  0  0  0  0  0  0  0  0  0
   11.7863  -17.7499   28.4568 O   0  0  0  0  0  0  0  0  0  0  0  0
  2  1  1  1
  2  3  1  0
  3  4  1  0
  4  5  2  0
  5  6  1  0
  7  6  2  0
  8  7  1  0
  9  4  1  0
  9  8  2  0
 10 11  2  0
 10  2  1  0
 13 12  1  0
 14 13  2  0
 15 13  1  0
 16 15  1  6
 16 17  1  0
 17 10  1  0
 18 16  1  0
 18 25  1  0
 19 18  2  0
 21 20  1  6
 21 22  1  0
 23 21  1  0
 24 25  1  0
 24 23  1  1
 26 24  1  0
 27 26  1  0
 28 26  2  0
M  END
$$$$
