FNL.pdb
     RDKit          3D

 28 28  0  0  1  0  0  0  0  0999 V2000
    6.5429  -17.7271   21.5823 N   0  0  0  0  0  0  0  0  0  0  0  0
    7.3349  -16.9838   22.5678 C   0  0  1  0  0  0  0  0  0  0  0  0
    6.3916  -16.7311   23.7317 C   0  0  0  0  0  0  0  0  0  0  0  0
    6.5691  -15.3660   24.3047 C   0  0  0  0  0  0  0  0  0  0  0  0
    7.0406  -14.3380   23.4923 C   0  0  0  0  0  0  0  0  0  0  0  0
    7.2182  -13.0514   23.9867 C   0  0  0  0  0  0  0  0  0  0  0  0
    6.9333  -12.7554   25.2961 C   0  0  0  0  0  0  0  0  0  0  0  0
    6.4650  -13.7780   26.1012 C   0  0  0  0  0  0  0  0  0  0  0  0
    6.2822  -15.0665   25.6213 C   0  0  0  0  0  0  0  0  0  0  0  0
    8.5119  -17.7723   22.9754 C   0  0  0  0  0  0  0  0  0  0  0  0
    8.7478  -18.8274   22.3730 O   0  0  0  0  0  0  0  0  0  0  0  0
   11.4086  -17.4731   21.1815 N   0  0  0  0  0  0  0  0  0  0  0  0
   11.3144  -16.1407   21.6418 C   0  0  0  0  0  0  0  0  0  0  0  0
   11.5497  -15.1695   20.8650 O   0  0  0  0  0  0  0  0  0  0  0  0
   10.9401  -15.8634   23.0342 C   0  0  0  0  0  0  0  0  0  0  0  0
   10.7832  -17.1802   23.8349 C   0  0  2  0  0  0  0  0  0  0  0  0
    9.3596  -17.3601   24.0143 N   0  0  0  0  0  0  0  0  0  0  0  0
   11.5209  -17.0273   25.1105 C   0  0  0  0  0  0  0  0  0  0  0  0
   12.6487  -16.4162   24.9888 O   0  0  0  0  0  0  0  0  0  0  0  0
   11.7157  -13.5316   28.6298 C   0  0  0  0  0  0  0  0  0  0  0  0
   10.5008  -14.2742   28.1448 C   0  0  1  0  0  0  0  0  0  0  0  0
    9.4052  -13.3209   27.7034 C   0  0  0  0  0  0  0  0  0  0  0  0
   10.8094  -15.3226   27.1804 C   0  0  0  0  0  0  0  0  0  0  0  0
   11.2312  -16.6720   27.5710 C   0  0  2  0  0  0  0  0  0  0  0  0
   11.0646  -17.4907   26.3460 N   0  0  0  0  0  0  0  0  0  0  0  0
   10.5851  -17.3854   28.6468 C   0  0  0  0  0  0  0  0  0  0  0  0
    9.4192  -18.1312   28.3581 O   0  0  0  0  0  0  0  0  0  0  0  0
   10.9202  -17.4466   29.8589 O   0  0  0  0  0  0  0  0  0  0  0  0
  2  1  1  6
  2  3  1  0
  3  4  1  0
  4  5  2  0
  5  6  1  0
  7  6  2  0
  8  7  1  0
  9  4  1  0
  9  8  2  0
 10 11  2  0
 10  2  1  0
 13 12  1  0
 14 13  2  0
 15 13  1  0
 16 15  1  6
 16 17  1  0
 17 10  1  0
 18 16  1  0
 18 25  1  0
 19 18  2  0
 21 20  1  6
 21 22  1  0
 23 21  1  0
 24 25  1  0
 24 23  1  6
 26 24  1  0
 27 26  1  0
 28 26  2  0
M  END
$$$$
