FNL.pdb
     RDKit          3D

 28 28  0  0  1  0  0  0  0  0999 V2000
    7.7684  -16.3584   21.0700 N   0  0  0  0  0  0  0  0  0  0  0  0
    8.1378  -15.4990   22.1996 C   0  0  1  0  0  0  0  0  0  0  0  0
    6.8212  -15.0058   22.7754 C   0  0  0  0  0  0  0  0  0  0  0  0
    7.0053  -13.7948   23.6255 C   0  0  0  0  0  0  0  0  0  0  0  0
    6.7463  -13.8709   24.9916 C   0  0  0  0  0  0  0  0  0  0  0  0
    6.9070  -12.7660   25.8191 C   0  0  0  0  0  0  0  0  0  0  0  0
    7.3273  -11.5622   25.3116 C   0  0  0  0  0  0  0  0  0  0  0  0
    7.5840  -11.4889   23.9544 C   0  0  0  0  0  0  0  0  0  0  0  0
    7.4286  -12.5834   23.1166 C   0  0  0  0  0  0  0  0  0  0  0  0
    8.9179  -16.2648   23.1889 C   0  0  0  0  0  0  0  0  0  0  0  0
    8.3200  -16.7517   24.1570 O   0  0  0  0  0  0  0  0  0  0  0  0
   12.8366  -17.4624   20.8697 N   0  0  0  0  0  0  0  0  0  0  0  0
   12.4299  -18.1068   22.0594 C   0  0  0  0  0  0  0  0  0  0  0  0
   12.0198  -19.3042   22.0390 O   0  0  0  0  0  0  0  0  0  0  0  0
   12.4781  -17.3931   23.3415 C   0  0  0  0  0  0  0  0  0  0  0  0
   11.0641  -17.2845   23.9648 C   0  0  2  0  0  0  0  0  0  0  0  0
   10.3020  -16.4529   23.0599 N   0  0  0  0  0  0  0  0  0  0  0  0
   11.2077  -16.7005   25.3187 C   0  0  0  0  0  0  0  0  0  0  0  0
   12.0509  -15.7282   25.3788 O   0  0  0  0  0  0  0  0  0  0  0  0
    8.1028  -14.1671   28.3611 C   0  0  0  0  0  0  0  0  0  0  0  0
    9.4186  -14.6574   27.8217 C   0  0  1  0  0  0  0  0  0  0  0  0
   10.4969  -13.5952   27.9346 C   0  0  0  0  0  0  0  0  0  0  0  0
    9.8058  -15.9640   28.3386 C   0  0  0  0  0  0  0  0  0  0  0  0
   10.9350  -16.7340   27.8065 C   0  0  2  0  0  0  0  0  0  0  0  0
   10.5093  -17.1396   26.4452 N   0  0  0  0  0  0  0  0  0  0  0  0
   11.4205  -17.9214   28.4684 C   0  0  0  0  0  0  0  0  0  0  0  0
   11.1458  -19.1798   27.8852 O   0  0  0  0  0  0  0  0  0  0  0  0
   12.0832  -18.0082   29.5355 O   0  0  0  0  0  0  0  0  0  0  0  0
  2  1  1  6
  2  3  1  0
  3  4  1  0
  4  5  2  0
  5  6  1  0
  7  6  2  0
  8  7  1  0
  9  4  1  0
  9  8  2  0
 10 11  2  0
 10  2  1  0
 13 12  1  0
 14 13  2  0
 15 13  1  0
 16 15  1  6
 16 17  1  0
 17 10  1  0
 18 16  1  0
 18 25  1  0
 19 18  2  0
 21 20  1  1
 21 22  1  0
 23 21  1  0
 24 25  1  0
 24 23  1  1
 26 24  1  0
 27 26  1  0
 28 26  2  0
M  END
$$$$
