FNL.pdb
     RDKit          3D

 28 28  0  0  1  0  0  0  0  0999 V2000
    7.1337  -18.2929   21.4635 N   0  0  0  0  0  0  0  0  0  0  0  0
    7.6236  -17.0917   22.1476 C   0  0  1  0  0  0  0  0  0  0  0  0
    6.4937  -16.6669   23.0701 C   0  0  0  0  0  0  0  0  0  0  0  0
    6.8042  -15.3925   23.7791 C   0  0  0  0  0  0  0  0  0  0  0  0
    7.2325  -14.2880   23.0470 C   0  0  0  0  0  0  0  0  0  0  0  0
    7.5304  -13.0816   23.6691 C   0  0  0  0  0  0  0  0  0  0  0  0
    7.4110  -12.9430   25.0292 C   0  0  0  0  0  0  0  0  0  0  0  0
    6.9854  -14.0413   25.7543 C   0  0  0  0  0  0  0  0  0  0  0  0
    6.6840  -15.2514   25.1470 C   0  0  0  0  0  0  0  0  0  0  0  0
    8.8573  -17.3978   22.8944 C   0  0  0  0  0  0  0  0  0  0  0  0
    8.9078  -18.4560   23.5343 O   0  0  0  0  0  0  0  0  0  0  0  0
   12.0615  -17.3680   20.9992 N   0  0  0  0  0  0  0  0  0  0  0  0
   12.6270  -16.2278   21.6127 C   0  0  0  0  0  0  0  0  0  0  0  0
   13.4637  -15.5077   20.9933 O   0  0  0  0  0  0  0  0  0  0  0  0
   12.2497  -15.8610   22.9834 C   0  0  0  0  0  0  0  0  0  0  0  0
   11.2070  -16.8555   23.5523 C   0  0  2  0  0  0  0  0  0  0  0  0
    9.9601  -16.5308   22.8958 N   0  0  0  0  0  0  0  0  0  0  0  0
   11.1611  -16.6747   25.0220 C   0  0  0  0  0  0  0  0  0  0  0  0
   12.2966  -16.8544   25.6037 O   0  0  0  0  0  0  0  0  0  0  0  0
    8.1953  -12.9259   27.6338 C   0  0  0  0  0  0  0  0  0  0  0  0
    9.3938  -13.8183   27.4599 C   0  0  1  0  0  0  0  0  0  0  0  0
   10.5582  -13.3601   28.3190 C   0  0  0  0  0  0  0  0  0  0  0  0
    9.0815  -15.2370   27.5784 C   0  0  0  0  0  0  0  0  0  0  0  0
   10.0287  -16.2987   27.2221 C   0  0  2  0  0  0  0  0  0  0  0  0
   10.0111  -16.3408   25.7400 N   0  0  0  0  0  0  0  0  0  0  0  0
    9.8550  -17.6548   27.6852 C   0  0  0  0  0  0  0  0  0  0  0  0
   10.4156  -18.0201   28.9307 O   0  0  0  0  0  0  0  0  0  0  0  0
    9.2504  -18.6042   27.1208 O   0  0  0  0  0  0  0  0  0  0  0  0
  2  1  1  1
  2  3  1  0
  3  4  1  0
  4  5  2  0
  5  6  1  0
  7  6  2  0
  8  7  1  0
  9  4  1  0
  9  8  2  0
 10 11  2  0
 10  2  1  0
 13 12  1  0
 14 13  2  0
 15 13  1  0
 16 15  1  6
 16 17  1  0
 17 10  1  0
 18 16  1  0
 18 25  1  0
 19 18  2  0
 21 20  1  1
 21 22  1  0
 23 21  1  0
 24 25  1  0
 24 23  1  1
 26 24  1  0
 27 26  1  0
 28 26  2  0
M  END
$$$$
