FNL.pdb
     RDKit          3D

 28 28  0  0  1  0  0  0  0  0999 V2000
    7.4819  -16.6442   20.6055 N   0  0  0  0  0  0  0  0  0  0  0  0
    7.9317  -15.8778   21.7722 C   0  0  1  0  0  0  0  0  0  0  0  0
    6.6643  -15.5212   22.5304 C   0  0  0  0  0  0  0  0  0  0  0  0
    6.9380  -14.5942   23.6657 C   0  0  0  0  0  0  0  0  0  0  0  0
    7.5867  -13.3862   23.4227 C   0  0  0  0  0  0  0  0  0  0  0  0
    7.8589  -12.4935   24.4524 C   0  0  0  0  0  0  0  0  0  0  0  0
    7.4950  -12.7779   25.7446 C   0  0  0  0  0  0  0  0  0  0  0  0
    6.8507  -13.9784   25.9837 C   0  0  0  0  0  0  0  0  0  0  0  0
    6.5720  -14.8786   24.9659 C   0  0  0  0  0  0  0  0  0  0  0  0
    8.8521  -16.6881   22.5905 C   0  0  0  0  0  0  0  0  0  0  0  0
    8.4839  -17.8155   22.9443 O   0  0  0  0  0  0  0  0  0  0  0  0
   13.0444  -17.6062   21.7719 N   0  0  0  0  0  0  0  0  0  0  0  0
   12.8884  -16.3492   22.3977 C   0  0  0  0  0  0  0  0  0  0  0  0
   13.1931  -15.2815   21.7899 O   0  0  0  0  0  0  0  0  0  0  0  0
   12.3679  -16.2640   23.7679 C   0  0  0  0  0  0  0  0  0  0  0  0
   10.9815  -16.9472   23.8738 C   0  0  2  0  0  0  0  0  0  0  0  0
   10.1181  -16.2186   22.9710 N   0  0  0  0  0  0  0  0  0  0  0  0
   10.5463  -16.8757   25.2881 C   0  0  0  0  0  0  0  0  0  0  0  0
    9.3493  -17.3090   25.4862 O   0  0  0  0  0  0  0  0  0  0  0  0
    8.3403  -13.7042   27.7149 C   0  0  0  0  0  0  0  0  0  0  0  0
    9.7194  -14.3049   27.7207 C   0  0  1  0  0  0  0  0  0  0  0  0
   10.6472  -13.5597   28.6629 C   0  0  0  0  0  0  0  0  0  0  0  0
    9.7201  -15.7518   27.8966 C   0  0  0  0  0  0  0  0  0  0  0  0
   10.9230  -16.5771   27.7443 C   0  0  2  0  0  0  0  0  0  0  0  0
   11.3353  -16.3895   26.3324 N   0  0  0  0  0  0  0  0  0  0  0  0
   10.9019  -17.9990   27.9927 C   0  0  0  0  0  0  0  0  0  0  0  0
   10.6224  -18.8689   26.9138 O   0  0  0  0  0  0  0  0  0  0  0  0
   11.1057  -18.6084   29.0755 O   0  0  0  0  0  0  0  0  0  0  0  0
  2  1  1  6
  2  3  1  0
  3  4  1  0
  4  5  2  0
  5  6  1  0
  7  6  2  0
  8  7  1  0
  9  4  1  0
  9  8  2  0
 10 11  2  0
 10  2  1  0
 13 12  1  0
 14 13  2  0
 15 13  1  0
 16 15  1  1
 16 17  1  0
 17 10  1  0
 18 16  1  0
 18 25  1  0
 19 18  2  0
 21 20  1  1
 21 22  1  0
 23 21  1  0
 24 25  1  0
 24 23  1  6
 26 24  1  0
 27 26  1  0
 28 26  2  0
M  END
$$$$
