CEQ.pdb
     RDKit          3D

 25 24  0  0  1  0  0  0  0  0999 V2000
    7.8629  -14.8002   17.5676 N   0  0  0  0  0  0  0  0  0  0  0  0
    8.7497  -14.0096   18.3939 C   0  0  1  0  0  0  0  0  0  0  0  0
    7.8828  -13.3054   19.4161 C   0  0  0  0  0  0  0  0  0  0  0  0
    6.7838  -12.1047   18.5760 S   0  0  0  0  0  0  0  0  0  0  0  0
    9.7152  -14.9391   19.0670 C   0  0  0  0  0  0  0  0  0  0  0  0
    9.3276  -16.0573   19.4156 O   0  0  0  0  0  0  0  0  0  0  0  0
   11.0497  -14.5712   19.3114 N   0  0  0  0  0  0  0  0  0  0  0  0
   12.0898  -15.1815   20.0203 C   0  0  1  0  0  0  0  0  0  0  0  0
   13.5128  -14.9953   19.6355 C   0  0  0  0  0  0  0  0  0  0  0  0
   13.9440  -15.4085   18.2774 C   0  0  0  0  0  0  0  0  0  0  0  0
   15.3567  -14.8883   18.0718 C   0  0  0  0  0  0  0  0  0  0  0  0
   15.5674  -13.6433   18.2080 O   0  0  0  0  0  0  0  0  0  0  0  0
   11.9656  -15.2273   21.4866 C   0  0  0  0  0  0  0  0  0  0  0  0
   12.3956  -14.3107   22.2423 O   0  0  0  0  0  0  0  0  0  0  0  0
   16.3768  -15.7323   17.7522 O   0  0  0  0  0  0  0  0  0  0  0  0
    7.0361  -17.8728   24.1457 N   0  0  0  0  0  0  0  0  0  0  0  0
    7.8211  -17.5202   25.2742 C   0  0  0  0  0  0  0  0  0  0  0  0
    7.3010  -17.6135   26.4076 O   0  0  0  0  0  0  0  0  0  0  0  0
    9.2011  -17.0589   25.1223 C   0  0  0  0  0  0  0  0  0  0  0  0
    9.6566  -16.8474   23.7148 C   0  0  0  0  0  0  0  0  0  0  0  0
   11.0569  -16.3255   23.5689 C   0  0  2  0  0  0  0  0  0  0  0  0
   11.3392  -16.3345   22.1287 N   0  0  0  0  0  0  0  0  0  0  0  0
   12.0552  -17.1818   24.2274 C   0  0  0  0  0  0  0  0  0  0  0  0
   12.7134  -18.0098   23.5601 O   0  0  0  0  0  0  0  0  0  0  0  0
   12.3007  -17.1048   25.5891 O   0  0  0  0  0  0  0  0  0  0  0  0
  2  1  1  6
  3  2  1  0
  4  3  1  0
  5  7  1  0
  5  2  1  0
  6  5  2  0
  8  7  1  0
  8  9  1  1
  9 10  1  0
 10 11  1  0
 11 15  1  0
 11 12  2  0
 13  8  1  0
 14 13  2  0
 16 17  1  0
 17 19  1  0
 18 17  2  0
 19 20  1  0
 21 20  1  6
 21 23  1  0
 21 22  1  0
 22 13  1  0
 23 25  1  0
 24 23  2  0
M  END
$$$$
