CEQ.pdb
     RDKit          3D

 25 24  0  0  1  0  0  0  0  0999 V2000
    8.1520  -14.7787   17.7623 N   0  0  0  0  0  0  0  0  0  0  0  0
    9.1175  -13.8950   18.3798 C   0  0  1  0  0  0  0  0  0  0  0  0
    8.4609  -13.3293   19.6212 C   0  0  0  0  0  0  0  0  0  0  0  0
    7.1412  -12.1521   19.1435 S   0  0  0  0  0  0  0  0  0  0  0  0
   10.3279  -14.7035   18.7411 C   0  0  0  0  0  0  0  0  0  0  0  0
   10.1799  -15.8671   19.1233 O   0  0  0  0  0  0  0  0  0  0  0  0
   11.6263  -14.1716   18.6562 N   0  0  0  0  0  0  0  0  0  0  0  0
   12.8870  -14.6843   18.9797 C   0  0  1  0  0  0  0  0  0  0  0  0
   14.0948  -14.3517   18.1808 C   0  0  0  0  0  0  0  0  0  0  0  0
   15.3713  -15.0375   18.4993 C   0  0  0  0  0  0  0  0  0  0  0  0
   16.4302  -14.4843   17.5607 C   0  0  0  0  0  0  0  0  0  0  0  0
   17.6358  -14.4573   17.9595 O   0  0  0  0  0  0  0  0  0  0  0  0
   13.2330  -14.7618   20.4087 C   0  0  0  0  0  0  0  0  0  0  0  0
   13.2651  -13.7500   21.1645 O   0  0  0  0  0  0  0  0  0  0  0  0
   16.1011  -14.0297   16.3197 O   0  0  0  0  0  0  0  0  0  0  0  0
   10.8050  -17.2177   24.5582 N   0  0  0  0  0  0  0  0  0  0  0  0
   12.0343  -17.6659   25.1079 C   0  0  0  0  0  0  0  0  0  0  0  0
   12.0794  -17.9076   26.3341 O   0  0  0  0  0  0  0  0  0  0  0  0
   13.2196  -17.8416   24.2688 C   0  0  0  0  0  0  0  0  0  0  0  0
   13.0602  -17.4375   22.8388 C   0  0  0  0  0  0  0  0  0  0  0  0
   13.7200  -16.1417   22.4646 C   0  0  2  0  0  0  0  0  0  0  0  0
   13.5528  -16.0124   21.0122 N   0  0  0  0  0  0  0  0  0  0  0  0
   15.1623  -16.1330   22.7530 C   0  0  0  0  0  0  0  0  0  0  0  0
   15.9783  -16.5409   21.8976 O   0  0  0  0  0  0  0  0  0  0  0  0
   15.6635  -15.6798   23.9629 O   0  0  0  0  0  0  0  0  0  0  0  0
  2  1  1  1
  3  2  1  0
  4  3  1  0
  5  7  1  0
  5  2  1  0
  6  5  2  0
  8  7  1  0
  8  9  1  6
  9 10  1  0
 10 11  1  0
 11 15  1  0
 11 12  2  0
 13  8  1  0
 14 13  2  0
 16 17  1  0
 17 19  1  0
 18 17  2  0
 19 20  1  0
 21 20  1  6
 21 23  1  0
 21 22  1  0
 22 13  1  0
 23 25  1  0
 24 23  2  0
M  END
$$$$
