CEQ.pdb
     RDKit          3D

 25 24  0  0  1  0  0  0  0  0999 V2000
    7.0100  -14.9672   19.0635 N   0  0  0  0  0  0  0  0  0  0  0  0
    8.2932  -14.6131   19.6313 C   0  0  1  0  0  0  0  0  0  0  0  0
    8.2735  -13.1160   19.8561 C   0  0  0  0  0  0  0  0  0  0  0  0
    8.3996  -12.2454   18.2493 S   0  0  0  0  0  0  0  0  0  0  0  0
    8.4469  -15.3432   20.9322 C   0  0  0  0  0  0  0  0  0  0  0  0
    7.4856  -15.4045   21.7030 O   0  0  0  0  0  0  0  0  0  0  0  0
    9.6564  -15.9597   21.2973 N   0  0  0  0  0  0  0  0  0  0  0  0
   10.0973  -16.5627   22.4800 C   0  0  1  0  0  0  0  0  0  0  0  0
   11.1721  -17.5886   22.4809 C   0  0  0  0  0  0  0  0  0  0  0  0
   11.5763  -18.1964   23.7726 C   0  0  0  0  0  0  0  0  0  0  0  0
   12.6422  -19.2362   23.4710 C   0  0  0  0  0  0  0  0  0  0  0  0
   12.2768  -20.4374   23.2797 O   0  0  0  0  0  0  0  0  0  0  0  0
   10.2225  -15.7000   23.6665 C   0  0  0  0  0  0  0  0  0  0  0  0
   11.1953  -14.9142   23.8461 O   0  0  0  0  0  0  0  0  0  0  0  0
   13.9588  -18.8938   23.4034 O   0  0  0  0  0  0  0  0  0  0  0  0
    5.3749  -12.7954   25.9423 N   0  0  0  0  0  0  0  0  0  0  0  0
    6.3904  -12.4095   26.8555 C   0  0  0  0  0  0  0  0  0  0  0  0
    6.1448  -11.4776   27.6524 O   0  0  0  0  0  0  0  0  0  0  0  0
    7.6910  -13.0792   26.8687 C   0  0  0  0  0  0  0  0  0  0  0  0
    7.9053  -14.0880   25.7871 C   0  0  0  0  0  0  0  0  0  0  0  0
    9.2498  -14.7563   25.7952 C   0  0  2  0  0  0  0  0  0  0  0  0
    9.2262  -15.7161   24.6851 N   0  0  0  0  0  0  0  0  0  0  0  0
    9.5047  -15.5082   27.0334 C   0  0  0  0  0  0  0  0  0  0  0  0
    9.7775  -14.9029   28.0932 O   0  0  0  0  0  0  0  0  0  0  0  0
    9.4527  -16.8924   27.0723 O   0  0  0  0  0  0  0  0  0  0  0  0
  2  1  1  1
  3  2  1  0
  4  3  1  0
  5  7  1  0
  5  2  1  0
  6  5  2  0
  8  7  1  0
  8  9  1  6
  9 10  1  0
 10 11  1  0
 11 15  1  0
 11 12  2  0
 13  8  1  0
 14 13  2  0
 16 17  1  0
 17 19  1  0
 18 17  2  0
 19 20  1  0
 21 20  1  1
 21 23  1  0
 21 22  1  0
 22 13  1  0
 23 25  1  0
 24 23  2  0
M  END
$$$$
