CEQ.pdb
     RDKit          3D

 25 24  0  0  1  0  0  0  0  0999 V2000
    5.3565  -13.6051   26.1581 N   0  0  0  0  0  0  0  0  0  0  0  0
    6.1082  -13.3009   24.9594 C   0  0  1  0  0  0  0  0  0  0  0  0
    6.6895  -11.9157   25.1478 C   0  0  0  0  0  0  0  0  0  0  0  0
    7.9556  -11.9488   26.4712 S   0  0  0  0  0  0  0  0  0  0  0  0
    7.1996  -14.3201   24.8201 C   0  0  0  0  0  0  0  0  0  0  0  0
    7.6670  -14.8413   25.8360 O   0  0  0  0  0  0  0  0  0  0  0  0
    7.7044  -14.6978   23.5637 N   0  0  0  0  0  0  0  0  0  0  0  0
    8.6678  -15.6314   23.1675 C   0  0  1  0  0  0  0  0  0  0  0  0
    8.8114  -16.0533   21.7501 C   0  0  0  0  0  0  0  0  0  0  0  0
    9.7348  -17.1690   21.4285 C   0  0  0  0  0  0  0  0  0  0  0  0
    9.5804  -17.4735   19.9480 C   0  0  0  0  0  0  0  0  0  0  0  0
   10.5952  -17.8909   19.3084 O   0  0  0  0  0  0  0  0  0  0  0  0
    9.9928  -15.5387   23.8029 C   0  0  0  0  0  0  0  0  0  0  0  0
   10.8023  -14.5968   23.5712 O   0  0  0  0  0  0  0  0  0  0  0  0
    8.3846  -17.3076   19.3173 O   0  0  0  0  0  0  0  0  0  0  0  0
   10.7695  -17.2438   29.6323 N   0  0  0  0  0  0  0  0  0  0  0  0
   10.8733  -15.8951   29.2026 C   0  0  0  0  0  0  0  0  0  0  0  0
   10.7040  -14.9909   30.0498 O   0  0  0  0  0  0  0  0  0  0  0  0
   11.1691  -15.5653   27.8084 C   0  0  0  0  0  0  0  0  0  0  0  0
   11.3560  -16.7350   26.8972 C   0  0  0  0  0  0  0  0  0  0  0  0
   11.6826  -16.3886   25.4732 C   0  0  2  0  0  0  0  0  0  0  0  0
   10.4262  -16.5318   24.7284 N   0  0  0  0  0  0  0  0  0  0  0  0
   12.6657  -17.3048   24.8754 C   0  0  0  0  0  0  0  0  0  0  0  0
   12.2840  -18.2790   24.1903 O   0  0  0  0  0  0  0  0  0  0  0  0
   14.0295  -17.1265   25.0452 O   0  0  0  0  0  0  0  0  0  0  0  0
  2  1  1  1
  3  2  1  0
  4  3  1  0
  5  7  1  0
  5  2  1  0
  6  5  2  0
  8  7  1  0
  8  9  1  6
  9 10  1  0
 10 11  1  0
 11 15  1  0
 11 12  2  0
 13  8  1  0
 14 13  2  0
 16 17  1  0
 17 19  1  0
 18 17  2  0
 19 20  1  0
 21 20  1  1
 21 23  1  0
 21 22  1  0
 22 13  1  0
 23 25  1  0
 24 23  2  0
M  END
$$$$
