CEQ.pdb
     RDKit          3D

 25 24  0  0  1  0  0  0  0  0999 V2000
    7.1999  -15.5844   19.9674 N   0  0  0  0  0  0  0  0  0  0  0  0
    8.3804  -14.9169   20.4726 C   0  0  1  0  0  0  0  0  0  0  0  0
    7.9435  -13.5402   20.9267 C   0  0  0  0  0  0  0  0  0  0  0  0
    7.8449  -12.4137   19.4855 S   0  0  0  0  0  0  0  0  0  0  0  0
    8.9104  -15.7134   21.6275 C   0  0  0  0  0  0  0  0  0  0  0  0
    8.1661  -15.9552   22.5813 O   0  0  0  0  0  0  0  0  0  0  0  0
   10.2319  -16.1920   21.6530 N   0  0  0  0  0  0  0  0  0  0  0  0
   10.9913  -16.8358   22.6357 C   0  0  1  0  0  0  0  0  0  0  0  0
   12.2166  -17.6052   22.2976 C   0  0  0  0  0  0  0  0  0  0  0  0
   12.9692  -18.2646   23.3930 C   0  0  0  0  0  0  0  0  0  0  0  0
   14.1586  -18.9713   22.7651 C   0  0  0  0  0  0  0  0  0  0  0  0
   15.2300  -19.0661   23.4405 O   0  0  0  0  0  0  0  0  0  0  0  0
   11.1778  -16.1254   23.9117 C   0  0  0  0  0  0  0  0  0  0  0  0
   11.6725  -14.9653   23.9872 O   0  0  0  0  0  0  0  0  0  0  0  0
   14.0827  -19.4949   21.5100 O   0  0  0  0  0  0  0  0  0  0  0  0
    8.2895  -11.8858   27.6340 N   0  0  0  0  0  0  0  0  0  0  0  0
    8.1614  -13.2595   27.3013 C   0  0  0  0  0  0  0  0  0  0  0  0
    7.0547  -13.6652   26.8838 O   0  0  0  0  0  0  0  0  0  0  0  0
    9.2892  -14.1808   27.4415 C   0  0  0  0  0  0  0  0  0  0  0  0
    9.6027  -15.0012   26.2323 C   0  0  0  0  0  0  0  0  0  0  0  0
   10.7446  -15.9629   26.3924 C   0  0  2  0  0  0  0  0  0  0  0  0
   10.7978  -16.7323   25.1437 N   0  0  0  0  0  0  0  0  0  0  0  0
   10.5387  -16.9127   27.4964 C   0  0  0  0  0  0  0  0  0  0  0  0
   10.5441  -16.5125   28.6812 O   0  0  0  0  0  0  0  0  0  0  0  0
   10.3340  -18.2644   27.2697 O   0  0  0  0  0  0  0  0  0  0  0  0
  2  1  1  1
  3  2  1  0
  4  3  1  0
  5  7  1  0
  5  2  1  0
  6  5  2  0
  8  7  1  0
  8  9  1  6
  9 10  1  0
 10 11  1  0
 11 15  1  0
 11 12  2  0
 13  8  1  0
 14 13  2  0
 16 17  1  0
 17 19  1  0
 18 17  2  0
 19 20  1  0
 21 20  1  6
 21 23  1  0
 21 22  1  0
 22 13  1  0
 23 25  1  0
 24 23  2  0
M  END
$$$$
