CEQ.pdb
     RDKit          3D

 25 24  0  0  1  0  0  0  0  0999 V2000
    8.3164  -14.6285   17.0117 N   0  0  0  0  0  0  0  0  0  0  0  0
    8.9774  -13.9057   18.0770 C   0  0  1  0  0  0  0  0  0  0  0  0
    7.9531  -13.7120   19.1750 C   0  0  0  0  0  0  0  0  0  0  0  0
    8.7174  -12.8325   20.5885 S   0  0  0  0  0  0  0  0  0  0  0  0
   10.1266  -14.7373   18.5639 C   0  0  0  0  0  0  0  0  0  0  0  0
    9.9336  -15.9241   18.8404 O   0  0  0  0  0  0  0  0  0  0  0  0
   11.4175  -14.2014   18.7139 N   0  0  0  0  0  0  0  0  0  0  0  0
   12.6010  -14.7105   19.2588 C   0  0  1  0  0  0  0  0  0  0  0  0
   13.9162  -14.5094   18.5974 C   0  0  0  0  0  0  0  0  0  0  0  0
   14.2163  -15.2722   17.3608 C   0  0  0  0  0  0  0  0  0  0  0  0
   15.6415  -14.9366   16.9552 C   0  0  0  0  0  0  0  0  0  0  0  0
   15.8216  -14.0762   16.0384 O   0  0  0  0  0  0  0  0  0  0  0  0
   12.7545  -14.6317   20.7210 C   0  0  0  0  0  0  0  0  0  0  0  0
   12.1459  -13.7827   21.4317 O   0  0  0  0  0  0  0  0  0  0  0  0
   16.7041  -15.5383   17.5585 O   0  0  0  0  0  0  0  0  0  0  0  0
    8.7725  -15.4937   22.6691 N   0  0  0  0  0  0  0  0  0  0  0  0
    9.5966  -16.5034   23.2307 C   0  0  0  0  0  0  0  0  0  0  0  0
    9.1170  -17.6507   23.3638 O   0  0  0  0  0  0  0  0  0  0  0  0
   10.9699  -16.2163   23.6451 C   0  0  0  0  0  0  0  0  0  0  0  0
   12.0363  -16.7122   22.7230 C   0  0  0  0  0  0  0  0  0  0  0  0
   13.3346  -15.9607   22.7863 C   0  0  2  0  0  0  0  0  0  0  0  0
   13.6164  -15.5325   21.4110 N   0  0  0  0  0  0  0  0  0  0  0  0
   14.4568  -16.7994   23.2341 C   0  0  0  0  0  0  0  0  0  0  0  0
   15.0946  -17.4910   22.4102 O   0  0  0  0  0  0  0  0  0  0  0  0
   14.8440  -16.8539   24.5636 O   0  0  0  0  0  0  0  0  0  0  0  0
  2  1  1  6
  3  2  1  0
  4  3  1  0
  5  7  1  0
  5  2  1  0
  6  5  2  0
  8  7  1  0
  8  9  1  6
  9 10  1  0
 10 11  1  0
 11 15  1  0
 11 12  2  0
 13  8  1  0
 14 13  2  0
 16 17  1  0
 17 19  1  0
 18 17  2  0
 19 20  1  0
 21 20  1  6
 21 23  1  0
 21 22  1  0
 22 13  1  0
 23 25  1  0
 24 23  2  0
M  END
$$$$
