CEQ.pdb
     RDKit          3D

 25 24  0  0  1  0  0  0  0  0999 V2000
    5.3474  -13.7664   26.1476 N   0  0  0  0  0  0  0  0  0  0  0  0
    6.4840  -13.3382   25.3607 C   0  0  1  0  0  0  0  0  0  0  0  0
    7.2650  -12.3629   26.2157 C   0  0  0  0  0  0  0  0  0  0  0  0
    6.2348  -10.8921   26.5777 S   0  0  0  0  0  0  0  0  0  0  0  0
    7.3135  -14.5460   25.0408 C   0  0  0  0  0  0  0  0  0  0  0  0
    7.5799  -15.3464   25.9411 O   0  0  0  0  0  0  0  0  0  0  0  0
    7.7957  -14.7909   23.7433 N   0  0  0  0  0  0  0  0  0  0  0  0
    8.7529  -15.6759   23.2359 C   0  0  1  0  0  0  0  0  0  0  0  0
    9.0317  -15.7753   21.7798 C   0  0  0  0  0  0  0  0  0  0  0  0
    9.9446  -16.8418   21.3000 C   0  0  0  0  0  0  0  0  0  0  0  0
   10.0280  -16.7214   19.7877 C   0  0  0  0  0  0  0  0  0  0  0  0
   11.1530  -16.4493   19.2648 O   0  0  0  0  0  0  0  0  0  0  0  0
   10.0028  -15.8223   23.9999 C   0  0  0  0  0  0  0  0  0  0  0  0
   10.7352  -14.8423   24.3151 O   0  0  0  0  0  0  0  0  0  0  0  0
    8.9271  -16.9027   19.0065 O   0  0  0  0  0  0  0  0  0  0  0  0
    9.7650  -19.6096   28.4511 N   0  0  0  0  0  0  0  0  0  0  0  0
   10.9352  -18.8909   28.8092 C   0  0  0  0  0  0  0  0  0  0  0  0
   11.5315  -19.2187   29.8584 O   0  0  0  0  0  0  0  0  0  0  0  0
   11.4348  -17.7954   27.9784 C   0  0  0  0  0  0  0  0  0  0  0  0
   10.6293  -17.4976   26.7553 C   0  0  0  0  0  0  0  0  0  0  0  0
   11.4290  -17.2584   25.5072 C   0  0  2  0  0  0  0  0  0  0  0  0
   10.4478  -17.1072   24.4262 N   0  0  0  0  0  0  0  0  0  0  0  0
   12.3029  -18.3909   25.1650 C   0  0  0  0  0  0  0  0  0  0  0  0
   13.4216  -18.5110   25.7110 O   0  0  0  0  0  0  0  0  0  0  0  0
   11.9263  -19.3521   24.2405 O   0  0  0  0  0  0  0  0  0  0  0  0
  2  1  1  1
  3  2  1  0
  4  3  1  0
  5  7  1  0
  5  2  1  0
  6  5  2  0
  8  7  1  0
  8  9  1  6
  9 10  1  0
 10 11  1  0
 11 15  1  0
 11 12  2  0
 13  8  1  0
 14 13  2  0
 16 17  1  0
 17 19  1  0
 18 17  2  0
 19 20  1  0
 21 20  1  1
 21 23  1  0
 21 22  1  0
 22 13  1  0
 23 25  1  0
 24 23  2  0
M  END
$$$$
