CEQ.pdb
     RDKit          3D

 25 24  0  0  1  0  0  0  0  0999 V2000
    6.8955  -17.1954   19.5062 N   0  0  0  0  0  0  0  0  0  0  0  0
    7.7592  -16.2297   20.1511 C   0  0  1  0  0  0  0  0  0  0  0  0
    6.9690  -15.6324   21.2961 C   0  0  0  0  0  0  0  0  0  0  0  0
    8.0209  -14.4597   22.2308 S   0  0  0  0  0  0  0  0  0  0  0  0
    8.9701  -16.9523   20.6618 C   0  0  0  0  0  0  0  0  0  0  0  0
    8.8192  -17.9825   21.3237 O   0  0  0  0  0  0  0  0  0  0  0  0
   10.2722  -16.4879   20.4070 N   0  0  0  0  0  0  0  0  0  0  0  0
   11.5344  -16.9150   20.8326 C   0  0  1  0  0  0  0  0  0  0  0  0
   12.7054  -16.9261   19.9181 C   0  0  0  0  0  0  0  0  0  0  0  0
   13.9727  -17.5363   20.3901 C   0  0  0  0  0  0  0  0  0  0  0  0
   14.9916  -17.3879   19.2728 C   0  0  0  0  0  0  0  0  0  0  0  0
   15.5756  -16.2688   19.1330 O   0  0  0  0  0  0  0  0  0  0  0  0
   11.9555  -16.5183   22.1865 C   0  0  0  0  0  0  0  0  0  0  0  0
   12.0145  -15.3139   22.5632 O   0  0  0  0  0  0  0  0  0  0  0  0
   15.2780  -18.4272   18.4403 O   0  0  0  0  0  0  0  0  0  0  0  0
   10.5380  -19.6262   27.2964 N   0  0  0  0  0  0  0  0  0  0  0  0
   11.5392  -18.7471   27.7855 C   0  0  0  0  0  0  0  0  0  0  0  0
   11.7725  -18.7432   29.0140 O   0  0  0  0  0  0  0  0  0  0  0  0
   12.2808  -17.8670   26.8824 C   0  0  0  0  0  0  0  0  0  0  0  0
   11.9255  -17.9842   25.4355 C   0  0  0  0  0  0  0  0  0  0  0  0
   12.7363  -17.1261   24.5079 C   0  0  2  0  0  0  0  0  0  0  0  0
   12.3218  -17.5013   23.1509 N   0  0  0  0  0  0  0  0  0  0  0  0
   14.1818  -17.3738   24.6204 C   0  0  0  0  0  0  0  0  0  0  0  0
   14.6924  -18.3802   24.0814 O   0  0  0  0  0  0  0  0  0  0  0  0
   15.0190  -16.5160   25.3158 O   0  0  0  0  0  0  0  0  0  0  0  0
  2  1  1  1
  3  2  1  0
  4  3  1  0
  5  7  1  0
  5  2  1  0
  6  5  2  0
  8  7  1  0
  8  9  1  6
  9 10  1  0
 10 11  1  0
 11 15  1  0
 11 12  2  0
 13  8  1  0
 14 13  2  0
 16 17  1  0
 17 19  1  0
 18 17  2  0
 19 20  1  0
 21 20  1  1
 21 23  1  0
 21 22  1  0
 22 13  1  0
 23 25  1  0
 24 23  2  0
M  END
$$$$
