CEQ.pdb
     RDKit          3D

 25 24  0  0  1  0  0  0  0  0999 V2000
    7.0846  -15.8137   19.7241 N   0  0  0  0  0  0  0  0  0  0  0  0
    7.8777  -15.1371   20.7279 C   0  0  1  0  0  0  0  0  0  0  0  0
    6.9053  -14.4546   21.6664 C   0  0  0  0  0  0  0  0  0  0  0  0
    7.8270  -13.4765   22.9111 S   0  0  0  0  0  0  0  0  0  0  0  0
    8.6861  -16.1675   21.4586 C   0  0  0  0  0  0  0  0  0  0  0  0
    8.1156  -17.1562   21.9269 O   0  0  0  0  0  0  0  0  0  0  0  0
   10.0759  -16.0377   21.6244 N   0  0  0  0  0  0  0  0  0  0  0  0
   11.0369  -16.8347   22.2555 C   0  0  1  0  0  0  0  0  0  0  0  0
   12.1727  -17.4310   21.5060 C   0  0  0  0  0  0  0  0  0  0  0  0
   11.8789  -18.3315   20.3641 C   0  0  0  0  0  0  0  0  0  0  0  0
   11.9107  -19.7566   20.8900 C   0  0  0  0  0  0  0  0  0  0  0  0
   12.9157  -20.1256   21.5733 O   0  0  0  0  0  0  0  0  0  0  0  0
   11.4812  -16.4153   23.5951 C   0  0  0  0  0  0  0  0  0  0  0  0
   12.3767  -15.5439   23.7812 O   0  0  0  0  0  0  0  0  0  0  0  0
   10.8879  -20.6208   20.6406 O   0  0  0  0  0  0  0  0  0  0  0  0
    8.3711  -13.5975   27.4090 N   0  0  0  0  0  0  0  0  0  0  0  0
    9.3997  -14.0016   28.2995 C   0  0  0  0  0  0  0  0  0  0  0  0
    9.4323  -13.4843   29.4375 O   0  0  0  0  0  0  0  0  0  0  0  0
   10.3975  -14.9950   27.9027 C   0  0  0  0  0  0  0  0  0  0  0  0
   10.2165  -15.5783   26.5387 C   0  0  0  0  0  0  0  0  0  0  0  0
   11.2874  -16.5386   26.1081 C   0  0  2  0  0  0  0  0  0  0  0  0
   10.9042  -16.9891   24.7649 N   0  0  0  0  0  0  0  0  0  0  0  0
   11.3696  -17.7253   26.9732 C   0  0  0  0  0  0  0  0  0  0  0  0
   10.7779  -18.7798   26.6541 O   0  0  0  0  0  0  0  0  0  0  0  0
   12.0939  -17.7204   28.1546 O   0  0  0  0  0  0  0  0  0  0  0  0
  2  1  1  6
  3  2  1  0
  4  3  1  0
  5  7  1  0
  5  2  1  0
  6  5  2  0
  8  7  1  0
  8  9  1  6
  9 10  1  0
 10 11  1  0
 11 15  1  0
 11 12  2  0
 13  8  1  0
 14 13  2  0
 16 17  1  0
 17 19  1  0
 18 17  2  0
 19 20  1  0
 21 20  1  1
 21 23  1  0
 21 22  1  0
 22 13  1  0
 23 25  1  0
 24 23  2  0
M  END
$$$$
