CEQ.pdb
     RDKit          3D

 25 24  0  0  1  0  0  0  0  0999 V2000
    6.3333  -15.3457   19.1957 N   0  0  0  0  0  0  0  0  0  0  0  0
    7.5772  -14.7377   19.6168 C   0  0  1  0  0  0  0  0  0  0  0  0
    7.2678  -13.2928   19.9465 C   0  0  0  0  0  0  0  0  0  0  0  0
    8.7800  -12.4581   20.5567 S   0  0  0  0  0  0  0  0  0  0  0  0
    8.0665  -15.4665   20.8328 C   0  0  0  0  0  0  0  0  0  0  0  0
    7.2577  -15.7804   21.7100 O   0  0  0  0  0  0  0  0  0  0  0  0
    9.4213  -15.8018   21.0003 N   0  0  0  0  0  0  0  0  0  0  0  0
   10.1157  -16.4789   22.0084 C   0  0  1  0  0  0  0  0  0  0  0  0
   11.3055  -17.3175   21.7104 C   0  0  0  0  0  0  0  0  0  0  0  0
   11.8962  -18.1303   22.8020 C   0  0  0  0  0  0  0  0  0  0  0  0
   13.1012  -18.8553   22.2269 C   0  0  0  0  0  0  0  0  0  0  0  0
   12.9000  -19.8629   21.4805 O   0  0  0  0  0  0  0  0  0  0  0  0
   10.3052  -15.7699   23.2848 C   0  0  0  0  0  0  0  0  0  0  0  0
   11.0479  -14.7549   23.4042 O   0  0  0  0  0  0  0  0  0  0  0  0
   14.3687  -18.4376   22.4994 O   0  0  0  0  0  0  0  0  0  0  0  0
    6.0375  -12.8634   25.3370 N   0  0  0  0  0  0  0  0  0  0  0  0
    6.9198  -12.6897   26.4350 C   0  0  0  0  0  0  0  0  0  0  0  0
    6.6718  -11.7768   27.2529 O   0  0  0  0  0  0  0  0  0  0  0  0
    8.0892  -13.5510   26.6102 C   0  0  0  0  0  0  0  0  0  0  0  0
    8.3418  -14.5242   25.5045 C   0  0  0  0  0  0  0  0  0  0  0  0
    9.5733  -15.3679   25.6661 C   0  0  2  0  0  0  0  0  0  0  0  0
    9.6414  -16.2104   24.4663 N   0  0  0  0  0  0  0  0  0  0  0  0
    9.5050  -16.2571   26.8357 C   0  0  0  0  0  0  0  0  0  0  0  0
    9.0468  -17.4151   26.7209 O   0  0  0  0  0  0  0  0  0  0  0  0
    9.9387  -15.8528   28.0882 O   0  0  0  0  0  0  0  0  0  0  0  0
  2  1  1  1
  3  2  1  0
  4  3  1  0
  5  7  1  0
  5  2  1  0
  6  5  2  0
  8  7  1  0
  8  9  1  6
  9 10  1  0
 10 11  1  0
 11 15  1  0
 11 12  2  0
 13  8  1  0
 14 13  2  0
 16 17  1  0
 17 19  1  0
 18 17  2  0
 19 20  1  0
 21 20  1  6
 21 23  1  0
 21 22  1  0
 22 13  1  0
 23 25  1  0
 24 23  2  0
M  END
$$$$
