INC.pdb
     RDKit          3D

 23 22  0  0  1  0  0  0  0  0999 V2000
    5.5729  -11.0666   26.4415 C   0  0  0  0  0  0  0  0  0  0  0  0
    5.4432  -12.4347   25.8662 C   0  0  0  0  0  0  0  0  0  0  0  0
    6.7627  -13.1835   25.7917 C   0  0  2  0  0  0  0  0  0  0  0  0
    7.7481  -12.3382   25.0685 C   0  0  0  0  0  0  0  0  0  0  0  0
    6.5103  -14.5241   25.1906 C   0  0  2  0  0  0  0  0  0  0  0  0
    5.5882  -15.2307   26.0944 N   0  0  0  0  0  0  0  0  0  0  0  0
    7.7128  -15.3551   25.0451 C   0  0  0  0  0  0  0  0  0  0  0  0
    8.0398  -16.1004   26.0045 O   0  0  0  0  0  0  0  0  0  0  0  0
   10.9875  -18.2760   21.3390 N   0  0  0  0  0  0  0  0  0  0  0  0
   11.2797  -17.0375   21.9637 C   0  0  0  0  0  0  0  0  0  0  0  0
   12.4624  -16.7271   22.2387 O   0  0  0  0  0  0  0  0  0  0  0  0
   10.1984  -16.1058   22.2949 C   0  0  0  0  0  0  0  0  0  0  0  0
    9.6172  -16.3321   23.6821 C   0  0  2  0  0  0  0  0  0  0  0  0
    8.5439  -15.3823   23.8921 N   0  0  0  0  0  0  0  0  0  0  0  0
   10.7093  -16.0034   24.6288 C   0  0  0  0  0  0  0  0  0  0  0  0
   11.1861  -14.8468   24.6254 O   0  0  0  0  0  0  0  0  0  0  0  0
   11.2519  -16.9423   25.5522 N   0  0  0  0  0  0  0  0  0  0  0  0
   11.6865  -16.5563   26.8833 C   0  0  1  0  0  0  0  0  0  0  0  0
   10.5493  -15.8041   27.5653 C   0  0  0  0  0  0  0  0  0  0  0  0
   11.0971  -15.0588   29.1171 S   0  0  0  0  0  0  0  0  0  0  0  0
   12.0710  -17.7592   27.6408 C   0  0  0  0  0  0  0  0  0  0  0  0
   13.1475  -17.7580   28.5478 O   0  0  0  0  0  0  0  0  0  0  0  0
   11.4671  -18.8565   27.5272 O   0  0  0  0  0  0  0  0  0  0  0  0
  2  1  1  0
  3  2  1  0
  3  4  1  6
  5  3  1  0
  5  6  1  1
  7  5  1  0
  7  8  2  0
 10 12  1  0
 10  9  1  0
 11 10  2  0
 13 12  1  6
 13 14  1  0
 13 15  1  0
 14  7  1  0
 15 17  1  0
 16 15  2  0
 17 18  1  0
 18 21  1  0
 19 20  1  0
 18 19  1  1
 21 23  2  0
 21 22  1  0
M  END
$$$$
