INC.pdb
     RDKit          3D

 23 22  0  0  1  0  0  0  0  0999 V2000
    5.8388  -12.0548   26.8456 C   0  0  0  0  0  0  0  0  0  0  0  0
    5.8185  -13.2502   25.9568 C   0  0  0  0  0  0  0  0  0  0  0  0
    7.1642  -13.9476   25.8559 C   0  0  2  0  0  0  0  0  0  0  0  0
    8.1935  -12.9419   25.4849 C   0  0  0  0  0  0  0  0  0  0  0  0
    7.0296  -15.0978   24.9173 C   0  0  2  0  0  0  0  0  0  0  0  0
    5.9084  -15.9177   25.4045 N   0  0  0  0  0  0  0  0  0  0  0  0
    8.2152  -15.9624   24.8500 C   0  0  0  0  0  0  0  0  0  0  0  0
    8.1470  -17.1061   25.3700 O   0  0  0  0  0  0  0  0  0  0  0  0
   10.1734  -17.2467   21.5123 N   0  0  0  0  0  0  0  0  0  0  0  0
   11.2238  -16.3233   21.7438 C   0  0  0  0  0  0  0  0  0  0  0  0
   11.8783  -15.8509   20.7850 O   0  0  0  0  0  0  0  0  0  0  0  0
   11.5552  -15.9113   23.1102 C   0  0  0  0  0  0  0  0  0  0  0  0
   10.6010  -16.4732   24.1528 C   0  0  2  0  0  0  0  0  0  0  0  0
    9.4460  -15.6029   24.2364 N   0  0  0  0  0  0  0  0  0  0  0  0
   11.3283  -16.3916   25.4418 C   0  0  0  0  0  0  0  0  0  0  0  0
   12.4661  -16.9043   25.5286 O   0  0  0  0  0  0  0  0  0  0  0  0
   10.7971  -15.7546   26.5996 N   0  0  0  0  0  0  0  0  0  0  0  0
   11.4201  -15.8786   27.9059 C   0  0  1  0  0  0  0  0  0  0  0  0
   10.7988  -14.8455   28.8391 C   0  0  0  0  0  0  0  0  0  0  0  0
   10.4947  -13.2867   27.9781 S   0  0  0  0  0  0  0  0  0  0  0  0
   11.2295  -17.2486   28.4111 C   0  0  0  0  0  0  0  0  0  0  0  0
   11.8432  -17.7001   29.5947 O   0  0  0  0  0  0  0  0  0  0  0  0
   10.5117  -18.0970   27.8223 O   0  0  0  0  0  0  0  0  0  0  0  0
  2  1  1  0
  3  2  1  0
  3  4  1  6
  5  3  1  0
  5  6  1  1
  7  5  1  0
  7  8  2  0
 10 12  1  0
 10  9  1  0
 11 10  2  0
 13 12  1  6
 13 14  1  0
 13 15  1  0
 14  7  1  0
 15 17  1  0
 16 15  2  0
 17 18  1  0
 18 21  1  0
 19 20  1  0
 18 19  1  1
 21 23  2  0
 21 22  1  0
M  END
$$$$
