INC.pdb
     RDKit          3D

 23 22  0  0  1  0  0  0  0  0999 V2000
    7.7006  -13.5145   20.8309 C   0  0  0  0  0  0  0  0  0  0  0  0
    8.3469  -14.1781   19.6641 C   0  0  0  0  0  0  0  0  0  0  0  0
    8.9348  -13.1974   18.6641 C   0  0  2  0  0  0  0  0  0  0  0  0
    7.8587  -12.2772   18.2126 C   0  0  0  0  0  0  0  0  0  0  0  0
    9.6056  -13.9731   17.5821 C   0  0  2  0  0  0  0  0  0  0  0  0
    8.5817  -14.8452   16.9842 N   0  0  0  0  0  0  0  0  0  0  0  0
   10.7028  -14.8315   18.0477 C   0  0  0  0  0  0  0  0  0  0  0  0
   11.2963  -15.5489   17.2014 O   0  0  0  0  0  0  0  0  0  0  0  0
   14.0530  -16.6384   17.6598 N   0  0  0  0  0  0  0  0  0  0  0  0
   13.9986  -15.2521   17.9509 C   0  0  0  0  0  0  0  0  0  0  0  0
   14.3284  -14.4071   17.0860 O   0  0  0  0  0  0  0  0  0  0  0  0
   13.5549  -14.7927   19.2695 C   0  0  0  0  0  0  0  0  0  0  0  0
   12.3696  -15.5781   19.8094 C   0  0  2  0  0  0  0  0  0  0  0  0
   11.1504  -14.9150   19.3943 N   0  0  0  0  0  0  0  0  0  0  0  0
   12.4648  -15.4766   21.2850 C   0  0  0  0  0  0  0  0  0  0  0  0
   13.3093  -14.7010   21.7855 O   0  0  0  0  0  0  0  0  0  0  0  0
   11.6387  -16.2216   22.1744 N   0  0  0  0  0  0  0  0  0  0  0  0
   11.8917  -16.2758   23.6038 C   0  0  1  0  0  0  0  0  0  0  0  0
   10.5683  -16.5165   24.3213 C   0  0  0  0  0  0  0  0  0  0  0  0
    9.2613  -15.4642   23.6518 S   0  0  0  0  0  0  0  0  0  0  0  0
   12.8642  -17.3443   23.8886 C   0  0  0  0  0  0  0  0  0  0  0  0
   13.3662  -18.1859   22.8781 O   0  0  0  0  0  0  0  0  0  0  0  0
   13.3056  -17.5720   25.0440 O   0  0  0  0  0  0  0  0  0  0  0  0
  2  1  1  0
  3  2  1  0
  3  4  1  6
  5  3  1  0
  5  6  1  1
  7  5  1  0
  7  8  2  0
 10 12  1  0
 10  9  1  0
 11 10  2  0
 13 12  1  6
 13 14  1  0
 13 15  1  0
 14  7  1  0
 15 17  1  0
 16 15  2  0
 17 18  1  0
 18 21  1  0
 19 20  1  0
 18 19  1  1
 21 23  2  0
 21 22  1  0
M  END
$$$$
