INC.pdb
     RDKit          3D

 23 22  0  0  1  0  0  0  0  0999 V2000
    5.5101  -11.4327   26.2434 C   0  0  0  0  0  0  0  0  0  0  0  0
    5.4572  -12.8106   25.6795 C   0  0  0  0  0  0  0  0  0  0  0  0
    6.8126  -13.4949   25.6355 C   0  0  2  0  0  0  0  0  0  0  0  0
    7.7695  -12.6077   24.9242 C   0  0  0  0  0  0  0  0  0  0  0  0
    6.6371  -14.8503   25.0403 C   0  0  2  0  0  0  0  0  0  0  0  0
    5.6198  -15.5428   25.8477 N   0  0  0  0  0  0  0  0  0  0  0  0
    7.8518  -15.6761   25.0536 C   0  0  0  0  0  0  0  0  0  0  0  0
    8.0689  -16.3977   26.0611 O   0  0  0  0  0  0  0  0  0  0  0  0
   11.9752  -18.4352   23.3966 N   0  0  0  0  0  0  0  0  0  0  0  0
   11.6988  -17.4507   22.4147 C   0  0  0  0  0  0  0  0  0  0  0  0
   12.3049  -17.4587   21.3177 O   0  0  0  0  0  0  0  0  0  0  0  0
   10.6992  -16.4114   22.6740 C   0  0  0  0  0  0  0  0  0  0  0  0
    9.9562  -16.6097   23.9863 C   0  0  2  0  0  0  0  0  0  0  0  0
    8.8107  -15.7232   24.0052 N   0  0  0  0  0  0  0  0  0  0  0  0
   10.8942  -16.1660   25.0447 C   0  0  0  0  0  0  0  0  0  0  0  0
   11.8207  -15.3815   24.7428 O   0  0  0  0  0  0  0  0  0  0  0  0
   10.7978  -16.5885   26.4014 N   0  0  0  0  0  0  0  0  0  0  0  0
   11.8314  -16.2953   27.3789 C   0  0  1  0  0  0  0  0  0  0  0  0
   11.5280  -14.9432   28.0143 C   0  0  0  0  0  0  0  0  0  0  0  0
    9.8147  -14.8576   28.5812 S   0  0  0  0  0  0  0  0  0  0  0  0
   11.8724  -17.3696   28.3853 C   0  0  0  0  0  0  0  0  0  0  0  0
   12.8289  -17.3894   29.4178 O   0  0  0  0  0  0  0  0  0  0  0  0
   11.0618  -18.3311   28.3872 O   0  0  0  0  0  0  0  0  0  0  0  0
  2  1  1  0
  3  2  1  0
  3  4  1  6
  5  3  1  0
  5  6  1  1
  7  5  1  0
  7  8  2  0
 10 12  1  0
 10  9  1  0
 11 10  2  0
 13 12  1  6
 13 14  1  0
 13 15  1  0
 14  7  1  0
 15 17  1  0
 16 15  2  0
 17 18  1  0
 18 21  1  0
 19 20  1  0
 18 19  1  1
 21 23  2  0
 21 22  1  0
M  END
$$$$
