INC.pdb
     RDKit          3D

 23 22  0  0  1  0  0  0  0  0999 V2000
    7.6436  -12.3623   20.2193 C   0  0  0  0  0  0  0  0  0  0  0  0
    7.6347  -13.7607   19.7055 C   0  0  0  0  0  0  0  0  0  0  0  0
    8.7420  -14.0407   18.7042 C   0  0  2  0  0  0  0  0  0  0  0  0
    8.5405  -13.1690   17.5175 C   0  0  0  0  0  0  0  0  0  0  0  0
    8.7642  -15.5045   18.4233 C   0  0  2  0  0  0  0  0  0  0  0  0
    7.5064  -15.8254   17.7295 N   0  0  0  0  0  0  0  0  0  0  0  0
    8.8362  -16.3474   19.6241 C   0  0  0  0  0  0  0  0  0  0  0  0
    7.7622  -16.8010   20.0970 O   0  0  0  0  0  0  0  0  0  0  0  0
   12.1872  -19.7602   19.4573 N   0  0  0  0  0  0  0  0  0  0  0  0
   11.1685  -19.5055   20.4096 C   0  0  0  0  0  0  0  0  0  0  0  0
   10.1272  -20.2029   20.4292 O   0  0  0  0  0  0  0  0  0  0  0  0
   11.3238  -18.4215   21.3829 C   0  0  0  0  0  0  0  0  0  0  0  0
   10.0978  -17.5269   21.4832 C   0  0  2  0  0  0  0  0  0  0  0  0
   10.0380  -16.6935   20.2999 N   0  0  0  0  0  0  0  0  0  0  0  0
   10.3431  -16.6463   22.6499 C   0  0  0  0  0  0  0  0  0  0  0  0
   11.3350  -15.8841   22.6355 O   0  0  0  0  0  0  0  0  0  0  0  0
    9.5023  -16.6197   23.7992 N   0  0  0  0  0  0  0  0  0  0  0  0
    9.7905  -15.7815   24.9500 C   0  0  1  0  0  0  0  0  0  0  0  0
    8.5041  -15.0821   25.3744 C   0  0  0  0  0  0  0  0  0  0  0  0
    7.6024  -14.4483   23.9429 S   0  0  0  0  0  0  0  0  0  0  0  0
   10.3386  -16.6121   26.0356 C   0  0  0  0  0  0  0  0  0  0  0  0
   10.8353  -16.0508   27.2271 O   0  0  0  0  0  0  0  0  0  0  0  0
   10.3979  -17.8665   25.9687 O   0  0  0  0  0  0  0  0  0  0  0  0
  2  1  1  0
  3  2  1  0
  3  4  1  6
  5  3  1  0
  5  6  1  1
  7  5  1  0
  7  8  2  0
 10 12  1  0
 10  9  1  0
 11 10  2  0
 13 12  1  6
 13 14  1  0
 13 15  1  0
 14  7  1  0
 15 17  1  0
 16 15  2  0
 17 18  1  0
 18 21  1  0
 19 20  1  0
 18 19  1  1
 21 23  2  0
 21 22  1  0
M  END
$$$$
