INC.pdb
     RDKit          3D

 23 22  0  0  1  0  0  0  0  0999 V2000
    9.0166  -11.6431   20.3120 C   0  0  0  0  0  0  0  0  0  0  0  0
    8.9956  -13.1102   20.5701 C   0  0  0  0  0  0  0  0  0  0  0  0
    8.1856  -13.8892   19.5481 C   0  0  2  0  0  0  0  0  0  0  0  0
    6.7637  -13.4686   19.6489 C   0  0  0  0  0  0  0  0  0  0  0  0
    8.4364  -15.3436   19.7576 C   0  0  2  0  0  0  0  0  0  0  0  0
    7.7270  -15.7263   20.9891 N   0  0  0  0  0  0  0  0  0  0  0  0
    9.8525  -15.6913   19.9348 C   0  0  0  0  0  0  0  0  0  0  0  0
   10.5490  -15.8898   18.9060 O   0  0  0  0  0  0  0  0  0  0  0  0
   13.1059  -14.3807   18.3841 N   0  0  0  0  0  0  0  0  0  0  0  0
   13.2713  -15.3064   19.4449 C   0  0  0  0  0  0  0  0  0  0  0  0
   13.8776  -16.3871   19.2573 O   0  0  0  0  0  0  0  0  0  0  0  0
   12.7334  -15.0074   20.7745 C   0  0  0  0  0  0  0  0  0  0  0  0
   11.9061  -16.1441   21.3550 C   0  0  2  0  0  0  0  0  0  0  0  0
   10.5032  -15.8222   21.1919 N   0  0  0  0  0  0  0  0  0  0  0  0
   12.2066  -16.1532   22.8063 C   0  0  0  0  0  0  0  0  0  0  0  0
   11.8467  -15.1802   23.5055 O   0  0  0  0  0  0  0  0  0  0  0  0
   12.8903  -17.2205   23.4560 N   0  0  0  0  0  0  0  0  0  0  0  0
   12.4685  -17.7386   24.7458 C   0  0  1  0  0  0  0  0  0  0  0  0
   11.0237  -18.2109   24.6294 C   0  0  0  0  0  0  0  0  0  0  0  0
   10.1897  -18.1632   26.2312 S   0  0  0  0  0  0  0  0  0  0  0  0
   13.3654  -18.8343   25.1502 C   0  0  0  0  0  0  0  0  0  0  0  0
   14.1016  -18.7927   26.3493 O   0  0  0  0  0  0  0  0  0  0  0  0
   13.5302  -19.8699   24.4559 O   0  0  0  0  0  0  0  0  0  0  0  0
  2  1  1  0
  3  2  1  0
  3  4  1  1
  5  3  1  0
  5  6  1  1
  7  5  1  0
  7  8  2  0
 10 12  1  0
 10  9  1  0
 11 10  2  0
 13 12  1  6
 13 14  1  0
 13 15  1  0
 14  7  1  0
 15 17  1  0
 16 15  2  0
 17 18  1  0
 18 21  1  0
 19 20  1  0
 18 19  1  6
 21 23  2  0
 21 22  1  0
M  END
$$$$
