INC.pdb
     RDKit          3D

 23 22  0  0  1  0  0  0  0  0999 V2000
    7.7326  -12.0218   19.9634 C   0  0  0  0  0  0  0  0  0  0  0  0
    7.8769  -13.5038   19.9135 C   0  0  0  0  0  0  0  0  0  0  0  0
    7.9581  -14.1468   21.2873 C   0  0  2  0  0  0  0  0  0  0  0  0
    9.0423  -13.4843   22.0583 C   0  0  0  0  0  0  0  0  0  0  0  0
    8.1102  -15.6191   21.1102 C   0  0  2  0  0  0  0  0  0  0  0  0
    6.8812  -16.1001   20.4587 N   0  0  0  0  0  0  0  0  0  0  0  0
    8.2673  -16.3640   22.3664 C   0  0  0  0  0  0  0  0  0  0  0  0
    7.2284  -16.7410   22.9676 O   0  0  0  0  0  0  0  0  0  0  0  0
   10.2859  -20.2377   25.4297 N   0  0  0  0  0  0  0  0  0  0  0  0
   11.2240  -19.2228   25.1138 C   0  0  0  0  0  0  0  0  0  0  0  0
   12.2728  -19.0941   25.7877 O   0  0  0  0  0  0  0  0  0  0  0  0
   10.9753  -18.3122   23.9934 C   0  0  0  0  0  0  0  0  0  0  0  0
    9.6653  -17.5499   24.1209 C   0  0  2  0  0  0  0  0  0  0  0  0
    9.5153  -16.6951   22.9612 N   0  0  0  0  0  0  0  0  0  0  0  0
    9.8257  -16.6809   25.3109 C   0  0  0  0  0  0  0  0  0  0  0  0
    9.9297  -17.2118   26.4389 O   0  0  0  0  0  0  0  0  0  0  0  0
    9.8685  -15.2591   25.2400 N   0  0  0  0  0  0  0  0  0  0  0  0
    9.9589  -14.4271   26.4272 C   0  0  1  0  0  0  0  0  0  0  0  0
    8.5881  -13.8169   26.6968 C   0  0  0  0  0  0  0  0  0  0  0  0
    8.5994  -12.8274   28.2083 S   0  0  0  0  0  0  0  0  0  0  0  0
   10.4211  -15.2430   27.5627 C   0  0  0  0  0  0  0  0  0  0  0  0
   11.4963  -14.8449   28.3794 O   0  0  0  0  0  0  0  0  0  0  0  0
    9.8893  -16.3394   27.8736 O   0  0  0  0  0  0  0  0  0  0  0  0
  2  1  1  0
  3  2  1  0
  3  4  1  6
  5  3  1  0
  5  6  1  1
  7  5  1  0
  7  8  2  0
 10 12  1  0
 10  9  1  0
 11 10  2  0
 13 12  1  6
 13 14  1  0
 13 15  1  0
 14  7  1  0
 15 17  1  0
 16 15  2  0
 17 18  1  0
 18 21  1  0
 19 20  1  0
 18 19  1  1
 21 23  2  0
 21 22  1  0
M  END
$$$$
