LTA.pdb
     RDKit          3D

 21 20  0  0  1  0  0  0  0  0999 V2000
   33.5917   -6.3907  -16.0494 C   0  0  0  0  0  0  0  0  0  0  0  0
   34.3471   -7.7090  -16.1422 C   0  0  2  0  0  0  0  0  0  0  0  0
   33.3228   -8.7811  -16.4255 C   0  0  0  0  0  0  0  0  0  0  0  0
   35.1498   -7.9685  -14.8925 C   0  0  0  0  0  0  0  0  0  0  0  0
   36.1706   -6.8750  -14.6722 C   0  0  2  0  0  0  0  0  0  0  0  0
   36.9795   -6.6762  -15.8345 N   0  0  0  0  0  0  0  0  0  0  0  0
   36.9573   -7.1706  -13.4547 C   0  0  0  0  0  0  0  0  0  0  0  0
   36.3275   -7.4191  -12.3944 O   0  0  0  0  0  0  0  0  0  0  0  0
   40.9021   -8.7691  -11.0929 C   0  0  0  0  0  0  0  0  0  0  0  0
   40.1710   -8.5101  -12.3699 C   0  0  1  0  0  0  0  0  0  0  0  0
   39.6416   -9.6511  -12.9453 O   0  0  0  0  0  0  0  0  0  0  0  0
   39.0998   -7.4272  -12.1875 C   0  0  2  0  0  0  0  0  0  0  0  0
   38.3736   -7.1946  -13.3939 N   0  0  0  0  0  0  0  0  0  0  0  0
   39.7126   -6.1882  -11.6351 C   0  0  0  0  0  0  0  0  0  0  0  0
   40.2790   -5.3581  -12.3992 O   0  0  0  0  0  0  0  0  0  0  0  0
   39.8192   -4.3743   -8.3057 C   0  0  0  0  0  0  0  0  0  0  0  0
   40.2604   -4.6683   -9.7059 C   0  0  2  0  0  0  0  0  0  0  0  0
   39.6931   -5.8801  -10.2477 N   0  0  0  0  0  0  0  0  0  0  0  0
   41.7506   -4.6566   -9.8375 C   0  0  0  0  0  0  0  0  0  0  0  0
   42.4734   -3.5045  -10.1137 O   0  0  0  0  0  0  0  0  0  0  0  0
   42.4068   -5.7189   -9.6976 O   0  0  0  0  0  0  0  0  0  0  0  0
  2  1  1  1
  3  2  1  0
  4  2  1  0
  5  7  1  0
  5  4  1  0
  5  6  1  6
  7 13  1  0
  8  7  2  0
 10  9  1  1
 10 11  1  0
 12 10  1  0
 12 13  1  6
 14 15  2  0
 14 12  1  0
 17 16  1  1
 17 19  1  0
 17 18  1  0
 18 14  1  0
 19 20  1  0
 21 19  2  0
M  END
$$$$
