LTA.pdb
     RDKit          3D

 21 20  0  0  1  0  0  0  0  0999 V2000
   24.5769  -10.6683  -18.9252 C   0  0  0  0  0  0  0  0  0  0  0  0
   23.2966  -10.5945  -19.7451 C   0  0  2  0  0  0  0  0  0  0  0  0
   23.7063  -10.3259  -21.1730 C   0  0  0  0  0  0  0  0  0  0  0  0
   22.3521   -9.5574  -19.1921 C   0  0  0  0  0  0  0  0  0  0  0  0
   21.9740   -9.8810  -17.7642 C   0  0  2  0  0  0  0  0  0  0  0  0
   21.2165  -11.0914  -17.6880 N   0  0  0  0  0  0  0  0  0  0  0  0
   21.2852   -8.7198  -17.1595 C   0  0  0  0  0  0  0  0  0  0  0  0
   20.0637   -8.5626  -17.4161 O   0  0  0  0  0  0  0  0  0  0  0  0
   20.4137   -5.4893  -13.7085 C   0  0  0  0  0  0  0  0  0  0  0  0
   21.1203   -6.6887  -14.2511 C   0  0  1  0  0  0  0  0  0  0  0  0
   20.5813   -7.8887  -13.8237 O   0  0  0  0  0  0  0  0  0  0  0  0
   21.2165   -6.6325  -15.7812 C   0  0  2  0  0  0  0  0  0  0  0  0
   21.9018   -7.7676  -16.3091 N   0  0  0  0  0  0  0  0  0  0  0  0
   21.8228   -5.3420  -16.2093 C   0  0  0  0  0  0  0  0  0  0  0  0
   23.0086   -5.0533  -15.8866 O   0  0  0  0  0  0  0  0  0  0  0  0
   20.8516   -2.4273  -18.4526 C   0  0  0  0  0  0  0  0  0  0  0  0
   21.7291   -3.1890  -17.5084 C   0  0  2  0  0  0  0  0  0  0  0  0
   21.1143   -4.3868  -16.9876 N   0  0  0  0  0  0  0  0  0  0  0  0
   22.2534   -2.3216  -16.4081 C   0  0  0  0  0  0  0  0  0  0  0  0
   21.6532   -2.2437  -15.1592 O   0  0  0  0  0  0  0  0  0  0  0  0
   23.2801   -1.6202  -16.5895 O   0  0  0  0  0  0  0  0  0  0  0  0
  2  1  1  1
  3  2  1  0
  4  2  1  0
  5  7  1  0
  5  4  1  0
  5  6  1  6
  7 13  1  0
  8  7  2  0
 10  9  1  6
 10 11  1  0
 12 10  1  0
 12 13  1  1
 14 15  2  0
 14 12  1  0
 17 16  1  1
 17 19  1  0
 17 18  1  0
 18 14  1  0
 19 20  1  0
 21 19  2  0
M  END
$$$$
