LTA.pdb
     RDKit          3D

 21 20  0  0  1  0  0  0  0  0999 V2000
   17.5368  -11.7845  -18.8810 C   0  0  0  0  0  0  0  0  0  0  0  0
   17.2139  -12.4370  -17.5441 C   0  0  2  0  0  0  0  0  0  0  0  0
   15.7533  -12.1721  -17.2695 C   0  0  0  0  0  0  0  0  0  0  0  0
   18.1253  -11.9316  -16.4546 C   0  0  0  0  0  0  0  0  0  0  0  0
   19.5733  -12.2025  -16.7958 C   0  0  2  0  0  0  0  0  0  0  0  0
   19.8659  -13.6015  -16.7504 N   0  0  0  0  0  0  0  0  0  0  0  0
   20.4480  -11.3925  -15.9198 C   0  0  0  0  0  0  0  0  0  0  0  0
   20.5537  -11.7373  -14.7147 O   0  0  0  0  0  0  0  0  0  0  0  0
   24.0337  -10.9854  -15.7363 C   0  0  0  0  0  0  0  0  0  0  0  0
   23.5019   -9.5996  -15.9073 C   0  0  1  0  0  0  0  0  0  0  0  0
   23.6811   -9.0917  -17.1813 O   0  0  0  0  0  0  0  0  0  0  0  0
   22.0339   -9.5096  -15.4710 C   0  0  2  0  0  0  0  0  0  0  0  0
   21.1786  -10.2521  -16.3393 N   0  0  0  0  0  0  0  0  0  0  0  0
   21.6251   -8.0843  -15.3390 C   0  0  0  0  0  0  0  0  0  0  0  0
   20.9891   -7.5119  -16.2672 O   0  0  0  0  0  0  0  0  0  0  0  0
   21.8125   -5.3273  -12.7308 C   0  0  0  0  0  0  0  0  0  0  0  0
   21.6782   -5.8877  -14.1127 C   0  0  2  0  0  0  0  0  0  0  0  0
   21.9225   -7.3086  -14.1857 N   0  0  0  0  0  0  0  0  0  0  0  0
   22.5115   -5.1386  -15.1040 C   0  0  0  0  0  0  0  0  0  0  0  0
   23.6938   -5.6424  -15.6277 O   0  0  0  0  0  0  0  0  0  0  0  0
   22.1538   -4.0013  -15.5006 O   0  0  0  0  0  0  0  0  0  0  0  0
  2  1  1  6
  3  2  1  0
  4  2  1  0
  5  7  1  0
  5  4  1  0
  5  6  1  1
  7 13  1  0
  8  7  2  0
 10  9  1  6
 10 11  1  0
 12 10  1  0
 12 13  1  6
 14 15  2  0
 14 12  1  0
 17 16  1  1
 17 19  1  0
 17 18  1  0
 18 14  1  0
 19 20  1  0
 21 19  2  0
M  END
$$$$
