LTA.pdb
     RDKit          3D

 21 20  0  0  1  0  0  0  0  0999 V2000
   17.1496  -13.3503  -14.8749 C   0  0  0  0  0  0  0  0  0  0  0  0
   18.1488  -13.5044  -16.0130 C   0  0  2  0  0  0  0  0  0  0  0  0
   19.1432  -14.5556  -15.5828 C   0  0  0  0  0  0  0  0  0  0  0  0
   18.7905  -12.1848  -16.3596 C   0  0  0  0  0  0  0  0  0  0  0  0
   17.7482  -11.1744  -16.7827 C   0  0  2  0  0  0  0  0  0  0  0  0
   17.0977  -11.5729  -17.9922 N   0  0  0  0  0  0  0  0  0  0  0  0
   18.3646   -9.8320  -16.8641 C   0  0  0  0  0  0  0  0  0  0  0  0
   19.0667   -9.5684  -17.8741 O   0  0  0  0  0  0  0  0  0  0  0  0
   16.8104   -6.5987  -14.7416 C   0  0  0  0  0  0  0  0  0  0  0  0
   17.6380   -6.4378  -15.9751 C   0  0  1  0  0  0  0  0  0  0  0  0
   18.1509   -5.1631  -16.1348 O   0  0  0  0  0  0  0  0  0  0  0  0
   18.7443   -7.4983  -16.0448 C   0  0  2  0  0  0  0  0  0  0  0  0
   18.2224   -8.8169  -15.8846 N   0  0  0  0  0  0  0  0  0  0  0  0
   19.8205   -7.1811  -15.0665 C   0  0  0  0  0  0  0  0  0  0  0  0
   19.7009   -7.5103  -13.8537 O   0  0  0  0  0  0  0  0  0  0  0  0
   23.4526   -6.3567  -15.1407 C   0  0  0  0  0  0  0  0  0  0  0  0
   22.0964   -6.2608  -14.5137 C   0  0  2  0  0  0  0  0  0  0  0  0
   21.0145   -6.5051  -15.4377 N   0  0  0  0  0  0  0  0  0  0  0  0
   21.9081   -4.9700  -13.7813 C   0  0  0  0  0  0  0  0  0  0  0  0
   22.5014   -4.7063  -12.5548 O   0  0  0  0  0  0  0  0  0  0  0  0
   21.1877   -4.0640  -14.2702 O   0  0  0  0  0  0  0  0  0  0  0  0
  2  1  1  1
  3  2  1  0
  4  2  1  0
  5  7  1  0
  5  4  1  0
  5  6  1  6
  7 13  1  0
  8  7  2  0
 10  9  1  1
 10 11  1  0
 12 10  1  0
 12 13  1  1
 14 15  2  0
 14 12  1  0
 17 16  1  6
 17 19  1  0
 17 18  1  0
 18 14  1  0
 19 20  1  0
 21 19  2  0
M  END
$$$$
