LTA.pdb
     RDKit          3D

 21 20  0  0  1  0  0  0  0  0999 V2000
   16.6234  -20.6041    1.2017 C   0  0  0  0  0  0  0  0  0  0  0  0
   15.2883  -21.0007    1.8160 C   0  0  2  0  0  0  0  0  0  0  0  0
   15.4130  -20.7922    3.3059 C   0  0  0  0  0  0  0  0  0  0  0  0
   14.9121  -22.4121    1.4422 C   0  0  0  0  0  0  0  0  0  0  0  0
   14.5411  -22.5004   -0.0211 C   0  0  2  0  0  0  0  0  0  0  0  0
   13.2839  -21.8696   -0.2783 N   0  0  0  0  0  0  0  0  0  0  0  0
   14.5884  -23.9126   -0.4591 C   0  0  0  0  0  0  0  0  0  0  0  0
   13.4953  -24.5065   -0.6459 O   0  0  0  0  0  0  0  0  0  0  0  0
   16.9419  -27.6409   -2.6466 C   0  0  0  0  0  0  0  0  0  0  0  0
   16.8554  -26.2046   -2.2440 C   0  0  1  0  0  0  0  0  0  0  0  0
   16.6732  -25.3415   -3.3094 O   0  0  0  0  0  0  0  0  0  0  0  0
   15.7863  -25.9933   -1.1642 C   0  0  2  0  0  0  0  0  0  0  0  0
   15.7787  -24.6491   -0.6848 N   0  0  0  0  0  0  0  0  0  0  0  0
   15.9542  -26.9935   -0.0744 C   0  0  0  0  0  0  0  0  0  0  0  0
   16.9314  -26.9159    0.7211 O   0  0  0  0  0  0  0  0  0  0  0  0
   14.0185  -29.9515    1.3286 C   0  0  0  0  0  0  0  0  0  0  0  0
   15.1967  -29.0398    1.1788 C   0  0  2  0  0  0  0  0  0  0  0  0
   15.0428  -28.0659    0.1244 N   0  0  0  0  0  0  0  0  0  0  0  0
   16.4779  -29.7993    1.0380 C   0  0  0  0  0  0  0  0  0  0  0  0
   17.1903  -30.2831    2.1263 O   0  0  0  0  0  0  0  0  0  0  0  0
   16.9575  -30.0262   -0.1010 O   0  0  0  0  0  0  0  0  0  0  0  0
  2  1  1  6
  3  2  1  0
  4  2  1  0
  5  7  1  0
  5  4  1  0
  5  6  1  1
  7 13  1  0
  8  7  2  0
 10  9  1  6
 10 11  1  0
 12 10  1  0
 12 13  1  1
 14 15  2  0
 14 12  1  0
 17 16  1  6
 17 19  1  0
 17 18  1  0
 18 14  1  0
 19 20  1  0
 21 19  2  0
M  END
$$$$
