LTA.pdb
     RDKit          3D

 21 20  0  0  1  0  0  0  0  0999 V2000
   19.6125  -16.1553  -13.4571 C   0  0  0  0  0  0  0  0  0  0  0  0
   19.8126  -16.6100  -14.8960 C   0  0  2  0  0  0  0  0  0  0  0  0
   21.2559  -17.0330  -15.0244 C   0  0  0  0  0  0  0  0  0  0  0  0
   19.4205  -15.5286  -15.8707 C   0  0  0  0  0  0  0  0  0  0  0  0
   17.9617  -15.1638  -15.7115 C   0  0  2  0  0  0  0  0  0  0  0  0
   17.1113  -16.2689  -16.0285 N   0  0  0  0  0  0  0  0  0  0  0  0
   17.6656  -13.9505  -16.5044 C   0  0  0  0  0  0  0  0  0  0  0  0
   17.8005  -14.0178  -17.7533 O   0  0  0  0  0  0  0  0  0  0  0  0
   14.6374  -12.2445  -17.4885 C   0  0  0  0  0  0  0  0  0  0  0  0
   15.4342  -11.2401  -16.7212 C   0  0  1  0  0  0  0  0  0  0  0  0
   14.9910  -11.0568  -15.4238 O   0  0  0  0  0  0  0  0  0  0  0  0
   16.9315  -11.5719  -16.7590 C   0  0  2  0  0  0  0  0  0  0  0  0
   17.2396  -12.7130  -15.9592 N   0  0  0  0  0  0  0  0  0  0  0  0
   17.7315  -10.3732  -16.3862 C   0  0  0  0  0  0  0  0  0  0  0  0
   18.1178  -10.2058  -15.1961 O   0  0  0  0  0  0  0  0  0  0  0  0
   19.1885   -7.3246  -18.1406 C   0  0  0  0  0  0  0  0  0  0  0  0
   18.8335   -8.1875  -16.9697 C   0  0  2  0  0  0  0  0  0  0  0  0
   18.0953   -9.3746  -17.3300 N   0  0  0  0  0  0  0  0  0  0  0  0
   18.1347   -7.4147  -15.8961 C   0  0  0  0  0  0  0  0  0  0  0  0
   18.8105   -6.7792  -14.8640 O   0  0  0  0  0  0  0  0  0  0  0  0
   16.8819   -7.3172  -15.8996 O   0  0  0  0  0  0  0  0  0  0  0  0
  2  1  1  1
  3  2  1  0
  4  2  1  0
  5  7  1  0
  5  4  1  0
  5  6  1  6
  7 13  1  0
  8  7  2  0
 10  9  1  1
 10 11  1  0
 12 10  1  0
 12 13  1  1
 14 15  2  0
 14 12  1  0
 17 16  1  6
 17 19  1  0
 17 18  1  0
 18 14  1  0
 19 20  1  0
 21 19  2  0
M  END
$$$$
