LTA.pdb
     RDKit          3D

 21 20  0  0  1  0  0  0  0  0999 V2000
   24.0095  -10.9202  -13.8108 C   0  0  0  0  0  0  0  0  0  0  0  0
   24.5156  -11.0613  -15.2395 C   0  0  2  0  0  0  0  0  0  0  0  0
   26.0203  -10.9549  -15.1831 C   0  0  0  0  0  0  0  0  0  0  0  0
   23.8805  -10.0393  -16.1480 C   0  0  0  0  0  0  0  0  0  0  0  0
   22.3793  -10.2159  -16.1902 C   0  0  2  0  0  0  0  0  0  0  0  0
   22.0191  -11.4721  -16.7709 N   0  0  0  0  0  0  0  0  0  0  0  0
   21.7637   -9.0570  -16.8730 C   0  0  0  0  0  0  0  0  0  0  0  0
   21.8032   -9.0270  -18.1300 O   0  0  0  0  0  0  0  0  0  0  0  0
   18.5715   -8.0953  -17.7973 C   0  0  0  0  0  0  0  0  0  0  0  0
   19.0255   -6.9532  -16.9476 C   0  0  1  0  0  0  0  0  0  0  0  0
   18.4863   -6.9629  -15.6739 O   0  0  0  0  0  0  0  0  0  0  0  0
   20.5565   -6.8653  -16.9060 C   0  0  2  0  0  0  0  0  0  0  0  0
   21.1302   -7.9735  -16.2135 N   0  0  0  0  0  0  0  0  0  0  0  0
   20.9793   -5.5529  -16.3448 C   0  0  0  0  0  0  0  0  0  0  0  0
   21.2108   -5.4290  -15.1100 O   0  0  0  0  0  0  0  0  0  0  0  0
   21.8007   -2.0828  -17.6786 C   0  0  0  0  0  0  0  0  0  0  0  0
   21.6216   -3.1368  -16.6303 C   0  0  2  0  0  0  0  0  0  0  0  0
   21.1414   -4.3943  -17.1519 N   0  0  0  0  0  0  0  0  0  0  0  0
   20.7747   -2.6578  -15.4939 C   0  0  0  0  0  0  0  0  0  0  0  0
   21.2936   -1.9723  -14.4045 O   0  0  0  0  0  0  0  0  0  0  0  0
   19.5361   -2.8690  -15.4945 O   0  0  0  0  0  0  0  0  0  0  0  0
  2  1  1  1
  3  2  1  0
  4  2  1  0
  5  7  1  0
  5  4  1  0
  5  6  1  6
  7 13  1  0
  8  7  2  0
 10  9  1  1
 10 11  1  0
 12 10  1  0
 12 13  1  1
 14 15  2  0
 14 12  1  0
 17 16  1  6
 17 19  1  0
 17 18  1  0
 18 14  1  0
 19 20  1  0
 21 19  2  0
M  END
$$$$
