LTA.pdb
     RDKit          3D

 21 20  0  0  1  0  0  0  0  0999 V2000
   27.1630  -11.5306  -15.2850 C   0  0  0  0  0  0  0  0  0  0  0  0
   26.9417  -11.3539  -16.7807 C   0  0  2  0  0  0  0  0  0  0  0  0
   28.2345  -10.8268  -17.3549 C   0  0  0  0  0  0  0  0  0  0  0  0
   25.7597  -10.4594  -17.0567 C   0  0  0  0  0  0  0  0  0  0  0  0
   24.4971  -11.0361  -16.4570 C   0  0  2  0  0  0  0  0  0  0  0  0
   24.1964  -12.3194  -17.0117 N   0  0  0  0  0  0  0  0  0  0  0  0
   23.3922  -10.0628  -16.5998 C   0  0  0  0  0  0  0  0  0  0  0  0
   22.8558   -9.9451  -17.7316 O   0  0  0  0  0  0  0  0  0  0  0  0
   19.9334   -9.9428  -15.3251 C   0  0  0  0  0  0  0  0  0  0  0  0
   20.6111   -8.7050  -14.8344 C   0  0  1  0  0  0  0  0  0  0  0  0
   20.9722   -8.7638  -13.5004 O   0  0  0  0  0  0  0  0  0  0  0  0
   21.8073   -8.3370  -15.7217 C   0  0  2  0  0  0  0  0  0  0  0  0
   22.8910   -9.2499  -15.5519 N   0  0  0  0  0  0  0  0  0  0  0  0
   22.2032   -6.9214  -15.4866 C   0  0  0  0  0  0  0  0  0  0  0  0
   23.1701   -6.6451  -14.7233 O   0  0  0  0  0  0  0  0  0  0  0  0
   21.2100   -3.4782  -16.7502 C   0  0  0  0  0  0  0  0  0  0  0  0
   21.8491   -4.4510  -15.8084 C   0  0  2  0  0  0  0  0  0  0  0  0
   21.5285   -5.8288  -16.0958 N   0  0  0  0  0  0  0  0  0  0  0  0
   21.5693   -4.1120  -14.3784 C   0  0  0  0  0  0  0  0  0  0  0  0
   22.2697   -3.1351  -13.6848 O   0  0  0  0  0  0  0  0  0  0  0  0
   20.6673   -4.7192  -13.7487 O   0  0  0  0  0  0  0  0  0  0  0  0
  2  1  1  1
  3  2  1  0
  4  2  1  0
  5  7  1  0
  5  4  1  0
  5  6  1  6
  7 13  1  0
  8  7  2  0
 10  9  1  6
 10 11  1  0
 12 10  1  0
 12 13  1  1
 14 15  2  0
 14 12  1  0
 17 16  1  6
 17 19  1  0
 17 18  1  0
 18 14  1  0
 19 20  1  0
 21 19  2  0
M  END
$$$$
