LTA.pdb
     RDKit          3D

 21 20  0  0  1  0  0  0  0  0999 V2000
   23.9649  -14.4671  -15.1974 C   0  0  0  0  0  0  0  0  0  0  0  0
   23.9875  -14.1283  -16.6813 C   0  0  2  0  0  0  0  0  0  0  0  0
   25.1923  -14.8214  -17.2700 C   0  0  0  0  0  0  0  0  0  0  0  0
   23.9925  -12.6367  -16.9016 C   0  0  0  0  0  0  0  0  0  0  0  0
   22.7850  -11.9937  -16.2574 C   0  0  2  0  0  0  0  0  0  0  0  0
   21.5716  -12.4257  -16.8787 N   0  0  0  0  0  0  0  0  0  0  0  0
   22.9501  -10.5236  -16.2541 C   0  0  0  0  0  0  0  0  0  0  0  0
   24.0422  -10.0562  -15.8403 O   0  0  0  0  0  0  0  0  0  0  0  0
   22.6675   -8.2828  -19.2944 C   0  0  0  0  0  0  0  0  0  0  0  0
   21.8023   -7.6993  -18.2251 C   0  0  1  0  0  0  0  0  0  0  0  0
   20.4495   -7.8863  -18.4448 O   0  0  0  0  0  0  0  0  0  0  0  0
   22.2181   -8.2028  -16.8369 C   0  0  2  0  0  0  0  0  0  0  0  0
   21.9650   -9.5989  -16.6841 N   0  0  0  0  0  0  0  0  0  0  0  0
   21.5710   -7.3799  -15.7785 C   0  0  0  0  0  0  0  0  0  0  0  0
   20.4619   -7.7275  -15.2856 O   0  0  0  0  0  0  0  0  0  0  0  0
   22.5130   -4.3908  -13.6316 C   0  0  0  0  0  0  0  0  0  0  0  0
   21.5955   -5.4435  -14.1719 C   0  0  2  0  0  0  0  0  0  0  0  0
   22.1547   -6.1850  -15.2770 N   0  0  0  0  0  0  0  0  0  0  0  0
   20.2476   -4.8905  -14.5115 C   0  0  0  0  0  0  0  0  0  0  0  0
   19.2827   -4.6155  -13.5527 O   0  0  0  0  0  0  0  0  0  0  0  0
   19.9436   -4.6534  -15.7074 O   0  0  0  0  0  0  0  0  0  0  0  0
  2  1  1  1
  3  2  1  0
  4  2  1  0
  5  7  1  0
  5  4  1  0
  5  6  1  6
  7 13  1  0
  8  7  2  0
 10  9  1  6
 10 11  1  0
 12 10  1  0
 12 13  1  1
 14 15  2  0
 14 12  1  0
 17 16  1  6
 17 19  1  0
 17 18  1  0
 18 14  1  0
 19 20  1  0
 21 19  2  0
M  END
$$$$
