SLE.pdb
     RDKit          3D

 24 23  0  0  1  0  0  0  0  0999 V2000
    8.1914  -13.6858   20.3100 O   0  0  0  0  0  0  0  0  0  0  0  0
    8.7337  -14.9739   20.2452 C   0  0  0  0  0  0  0  0  0  0  0  0
    8.1449  -15.8557   21.3565 C   0  0  2  0  0  0  0  0  0  0  0  0
    6.7271  -15.6983   21.4361 N   0  0  0  0  0  0  0  0  0  0  0  0
    8.7831  -15.4400   22.6404 C   0  0  0  0  0  0  0  0  0  0  0  0
   10.0015  -15.2806   22.8183 O   0  0  0  0  0  0  0  0  0  0  0  0
    5.8414  -12.2281   26.3963 C   0  0  0  0  0  0  0  0  0  0  0  0
    6.9694  -12.7771   25.5327 C   0  0  1  0  0  0  0  0  0  0  0  0
    8.2261  -11.9946   26.0340 C   0  0  0  0  0  0  0  0  0  0  0  0
    7.2495  -14.2143   25.8395 C   0  0  0  0  0  0  0  0  0  0  0  0
    8.4051  -14.7610   25.0450 C   0  0  2  0  0  0  0  0  0  0  0  0
    7.9055  -15.2125   23.7322 N   0  0  0  0  0  0  0  0  0  0  0  0
    8.9201  -15.9744   25.6858 C   0  0  0  0  0  0  0  0  0  0  0  0
    8.1567  -16.9907   25.7949 O   0  0  0  0  0  0  0  0  0  0  0  0
   10.2185  -16.1744   26.2184 N   0  0  0  0  0  0  0  0  0  0  0  0
   10.6526  -17.4598   26.7494 C   0  0  1  0  0  0  0  0  0  0  0  0
   11.8200  -18.0118   25.9936 C   0  0  0  0  0  0  0  0  0  0  0  0
   12.3005  -19.3532   26.4652 C   0  0  0  0  0  0  0  0  0  0  0  0
   13.4482  -19.7538   25.6020 C   0  0  0  0  0  0  0  0  0  0  0  0
   13.7430  -19.0050   24.6237 O   0  0  0  0  0  0  0  0  0  0  0  0
   10.8830  -17.4496   28.1890 C   0  0  0  0  0  0  0  0  0  0  0  0
   10.8810  -16.3787   28.8294 O   0  0  0  0  0  0  0  0  0  0  0  0
   14.1763  -20.9184   25.8583 O   0  0  0  0  0  0  0  0  0  0  0  0
   11.1084  -18.6265   28.8728 O   0  0  0  0  0  0  0  0  0  0  0  0
  2  3  1  0
  2  1  1  0
  3  4  1  1
  5  3  1  0
  5  6  2  0
  8  7  1  1
  8 10  1  0
  8  9  1  0
 11 10  1  1
 11 12  1  0
 11 13  1  0
 12  5  1  0
 13 15  1  0
 14 13  2  0
 15 16  1  0
 16 21  1  0
 17 18  1  0
 16 17  1  6
 19 23  1  0
 19 18  1  0
 20 19  2  0
 21 22  2  0
 21 24  1  0
M  END
$$$$
