SLE.pdb
     RDKit          3D

 24 23  0  0  1  0  0  0  0  0999 V2000
    7.7633  -17.4249   21.2714 O   0  0  0  0  0  0  0  0  0  0  0  0
    6.7566  -16.5838   20.7847 C   0  0  0  0  0  0  0  0  0  0  0  0
    7.3156  -15.1756   20.5324 C   0  0  2  0  0  0  0  0  0  0  0  0
    8.2295  -15.1780   19.4343 N   0  0  0  0  0  0  0  0  0  0  0  0
    8.0099  -14.7415   21.7807 C   0  0  0  0  0  0  0  0  0  0  0  0
    9.2405  -14.6782   21.9332 O   0  0  0  0  0  0  0  0  0  0  0  0
    8.0436  -11.7706   26.3550 C   0  0  0  0  0  0  0  0  0  0  0  0
    7.0720  -12.9434   26.3546 C   0  0  1  0  0  0  0  0  0  0  0  0
    5.8007  -12.3636   27.0551 C   0  0  0  0  0  0  0  0  0  0  0  0
    6.6340  -13.2964   24.9684 C   0  0  0  0  0  0  0  0  0  0  0  0
    7.7352  -13.9228   24.1556 C   0  0  2  0  0  0  0  0  0  0  0  0
    7.1747  -14.3743   22.8676 N   0  0  0  0  0  0  0  0  0  0  0  0
    8.2014  -15.1487   24.8100 C   0  0  0  0  0  0  0  0  0  0  0  0
    7.3797  -16.1081   24.9888 O   0  0  0  0  0  0  0  0  0  0  0  0
    9.5090  -15.4194   25.2856 N   0  0  0  0  0  0  0  0  0  0  0  0
    9.9332  -16.7566   25.6785 C   0  0  1  0  0  0  0  0  0  0  0  0
   11.1477  -17.2018   24.9263 C   0  0  0  0  0  0  0  0  0  0  0  0
   12.3203  -16.2687   25.0111 C   0  0  0  0  0  0  0  0  0  0  0  0
   13.3774  -16.7834   24.0943 C   0  0  0  0  0  0  0  0  0  0  0  0
   13.1251  -17.8311   23.4285 O   0  0  0  0  0  0  0  0  0  0  0  0
   10.0858  -16.9216   27.1190 C   0  0  0  0  0  0  0  0  0  0  0  0
   10.3884  -18.0292   27.6074 O   0  0  0  0  0  0  0  0  0  0  0  0
   14.6095  -16.1358   23.9724 O   0  0  0  0  0  0  0  0  0  0  0  0
    9.8980  -15.8538   27.9723 O   0  0  0  0  0  0  0  0  0  0  0  0
  2  3  1  0
  2  1  1  0
  3  4  1  6
  5  3  1  0
  5  6  2  0
  8  7  1  6
  8 10  1  0
  8  9  1  0
 11 10  1  1
 11 12  1  0
 11 13  1  0
 12  5  1  0
 13 15  1  0
 14 13  2  0
 15 16  1  0
 16 21  1  0
 17 18  1  0
 16 17  1  6
 19 23  1  0
 19 18  1  0
 20 19  2  0
 21 22  2  0
 21 24  1  0
M  END
$$$$
