SLE.pdb
     RDKit          3D

 24 23  0  0  1  0  0  0  0  0999 V2000
    7.9144  -17.5992   22.7718 O   0  0  0  0  0  0  0  0  0  0  0  0
    6.6621  -17.0593   22.4591 C   0  0  0  0  0  0  0  0  0  0  0  0
    6.8225  -15.6515   21.8661 C   0  0  2  0  0  0  0  0  0  0  0  0
    7.3265  -15.7142   20.5307 N   0  0  0  0  0  0  0  0  0  0  0  0
    7.7733  -14.9048   22.7419 C   0  0  0  0  0  0  0  0  0  0  0  0
    8.9395  -14.6019   22.4421 O   0  0  0  0  0  0  0  0  0  0  0  0
    5.5418  -11.2919   26.5980 C   0  0  0  0  0  0  0  0  0  0  0  0
    6.3774  -11.9123   25.4861 C   0  0  1  0  0  0  0  0  0  0  0  0
    7.4488  -10.8162   25.1804 C   0  0  0  0  0  0  0  0  0  0  0  0
    7.1506  -13.0970   25.9727 C   0  0  0  0  0  0  0  0  0  0  0  0
    8.0687  -13.6602   24.9214 C   0  0  2  0  0  0  0  0  0  0  0  0
    7.2811  -14.5184   24.0157 N   0  0  0  0  0  0  0  0  0  0  0  0
    9.0404  -14.5653   25.5419 C   0  0  0  0  0  0  0  0  0  0  0  0
    9.7662  -14.1353   26.4989 O   0  0  0  0  0  0  0  0  0  0  0  0
    9.2835  -15.9202   25.2037 N   0  0  0  0  0  0  0  0  0  0  0  0
   10.2975  -16.7207   25.8771 C   0  0  1  0  0  0  0  0  0  0  0  0
    9.6985  -17.8755   26.6167 C   0  0  0  0  0  0  0  0  0  0  0  0
    9.3091  -19.0424   25.7569 C   0  0  0  0  0  0  0  0  0  0  0  0
    8.9876  -20.1845   26.6598 C   0  0  0  0  0  0  0  0  0  0  0  0
    9.9483  -20.7594   27.2525 O   0  0  0  0  0  0  0  0  0  0  0  0
   11.3912  -17.1322   25.0053 C   0  0  0  0  0  0  0  0  0  0  0  0
   11.3256  -16.9584   23.7714 O   0  0  0  0  0  0  0  0  0  0  0  0
    7.6708  -20.6123   26.8470 O   0  0  0  0  0  0  0  0  0  0  0  0
   12.5226  -17.7235   25.5287 O   0  0  0  0  0  0  0  0  0  0  0  0
  2  3  1  0
  2  1  1  0
  3  4  1  6
  5  3  1  0
  5  6  2  0
  8  7  1  1
  8 10  1  0
  8  9  1  0
 11 10  1  1
 11 12  1  0
 11 13  1  0
 12  5  1  0
 13 15  1  0
 14 13  2  0
 15 16  1  0
 16 21  1  0
 17 18  1  0
 16 17  1  6
 19 23  1  0
 19 18  1  0
 20 19  2  0
 21 22  2  0
 21 24  1  0
M  END
$$$$
