SLE.pdb
     RDKit          3D

 24 23  0  0  1  0  0  0  0  0999 V2000
    8.1465  -18.1513   22.6044 O   0  0  0  0  0  0  0  0  0  0  0  0
    7.1025  -17.4488   21.9928 C   0  0  0  0  0  0  0  0  0  0  0  0
    7.6096  -16.1014   21.4576 C   0  0  2  0  0  0  0  0  0  0  0  0
    8.5569  -16.2936   20.4055 N   0  0  0  0  0  0  0  0  0  0  0  0
    8.2455  -15.3794   22.5990 C   0  0  0  0  0  0  0  0  0  0  0  0
    9.4621  -15.1659   22.7256 O   0  0  0  0  0  0  0  0  0  0  0  0
    7.7887  -11.3338   26.2109 C   0  0  0  0  0  0  0  0  0  0  0  0
    7.0491  -12.6112   26.5857 C   0  0  1  0  0  0  0  0  0  0  0  0
    5.7008  -12.0906   27.1805 C   0  0  0  0  0  0  0  0  0  0  0  0
    6.6682  -13.4035   25.3752 C   0  0  0  0  0  0  0  0  0  0  0  0
    7.8509  -14.0672   24.7224 C   0  0  2  0  0  0  0  0  0  0  0  0
    7.3679  -14.9060   23.6088 N   0  0  0  0  0  0  0  0  0  0  0  0
    8.4718  -15.0097   25.6575 C   0  0  0  0  0  0  0  0  0  0  0  0
    9.0806  -14.5566   26.6830 O   0  0  0  0  0  0  0  0  0  0  0  0
    8.4775  -16.4244   25.5674 N   0  0  0  0  0  0  0  0  0  0  0  0
    9.0892  -17.2668   26.5866 C   0  0  1  0  0  0  0  0  0  0  0  0
    8.6367  -18.6892   26.4820 C   0  0  0  0  0  0  0  0  0  0  0  0
    7.1685  -18.8678   26.2269 C   0  0  0  0  0  0  0  0  0  0  0  0
    6.9075  -20.3283   26.0793 C   0  0  0  0  0  0  0  0  0  0  0  0
    6.8767  -21.0335   27.1312 O   0  0  0  0  0  0  0  0  0  0  0  0
   10.5416  -17.1532   26.6440 C   0  0  0  0  0  0  0  0  0  0  0  0
   11.1650  -16.4860   25.7936 O   0  0  0  0  0  0  0  0  0  0  0  0
    6.7057  -20.9054   24.8230 O   0  0  0  0  0  0  0  0  0  0  0  0
   11.2566  -17.7829   27.6419 O   0  0  0  0  0  0  0  0  0  0  0  0
  2  3  1  0
  2  1  1  0
  3  4  1  6
  5  3  1  0
  5  6  2  0
  8  7  1  6
  8 10  1  0
  8  9  1  0
 11 10  1  1
 11 12  1  0
 11 13  1  0
 12  5  1  0
 13 15  1  0
 14 13  2  0
 15 16  1  0
 16 21  1  0
 17 18  1  0
 16 17  1  6
 19 23  1  0
 19 18  1  0
 20 19  2  0
 21 22  2  0
 21 24  1  0
M  END
$$$$
