SLE.pdb
     RDKit          3D

 24 23  0  0  1  0  0  0  0  0999 V2000
    8.0054  -15.1366   19.0735 O   0  0  0  0  0  0  0  0  0  0  0  0
    8.4040  -14.6396   20.3192 C   0  0  0  0  0  0  0  0  0  0  0  0
    8.3606  -15.7539   21.3754 C   0  0  2  0  0  0  0  0  0  0  0  0
    7.0334  -16.2596   21.5301 N   0  0  0  0  0  0  0  0  0  0  0  0
    8.8428  -15.1682   22.6611 C   0  0  0  0  0  0  0  0  0  0  0  0
    9.9375  -14.6069   22.8289 O   0  0  0  0  0  0  0  0  0  0  0  0
    5.4355  -12.6024   26.3223 C   0  0  0  0  0  0  0  0  0  0  0  0
    6.6544  -13.0172   25.5089 C   0  0  1  0  0  0  0  0  0  0  0  0
    7.7807  -12.0671   26.0298 C   0  0  0  0  0  0  0  0  0  0  0  0
    7.1079  -14.3988   25.8602 C   0  0  0  0  0  0  0  0  0  0  0  0
    8.3489  -14.8079   25.1131 C   0  0  2  0  0  0  0  0  0  0  0  0
    7.9601  -15.2717   23.7675 N   0  0  0  0  0  0  0  0  0  0  0  0
    8.9510  -15.9812   25.7528 C   0  0  0  0  0  0  0  0  0  0  0  0
    8.2311  -17.0142   25.9582 O   0  0  0  0  0  0  0  0  0  0  0  0
   10.2931  -16.1237   26.1863 N   0  0  0  0  0  0  0  0  0  0  0  0
   10.7619  -17.3099   26.8903 C   0  0  1  0  0  0  0  0  0  0  0  0
   12.0543  -17.8173   26.3325 C   0  0  0  0  0  0  0  0  0  0  0  0
   12.1258  -17.8499   24.8337 C   0  0  0  0  0  0  0  0  0  0  0  0
   13.4851  -18.3308   24.4542 C   0  0  0  0  0  0  0  0  0  0  0  0
   13.7418  -18.4681   23.2213 O   0  0  0  0  0  0  0  0  0  0  0  0
   10.8122  -17.1483   28.3384 C   0  0  0  0  0  0  0  0  0  0  0  0
   10.6428  -16.0290   28.8633 O   0  0  0  0  0  0  0  0  0  0  0  0
   14.4471  -18.6248   25.4239 O   0  0  0  0  0  0  0  0  0  0  0  0
   11.0490  -18.2322   29.1586 O   0  0  0  0  0  0  0  0  0  0  0  0
  2  3  1  0
  2  1  1  0
  3  4  1  1
  5  3  1  0
  5  6  2  0
  8  7  1  1
  8 10  1  0
  8  9  1  0
 11 10  1  1
 11 12  1  0
 11 13  1  0
 12  5  1  0
 13 15  1  0
 14 13  2  0
 15 16  1  0
 16 21  1  0
 17 18  1  0
 16 17  1  6
 19 23  1  0
 19 18  1  0
 20 19  2  0
 21 22  2  0
 21 24  1  0
M  END
$$$$
