SLE.pdb
     RDKit          3D

 24 23  0  0  1  0  0  0  0  0999 V2000
   10.1649  -19.7387   18.0750 O   0  0  0  0  0  0  0  0  0  0  0  0
   10.5176  -18.7036   18.9478 C   0  0  0  0  0  0  0  0  0  0  0  0
   10.5812  -17.3682   18.1916 C   0  0  2  0  0  0  0  0  0  0  0  0
   11.6702  -17.3563   17.2670 N   0  0  0  0  0  0  0  0  0  0  0  0
   10.7551  -16.2886   19.2078 C   0  0  0  0  0  0  0  0  0  0  0  0
   11.8434  -15.8201   19.5790 O   0  0  0  0  0  0  0  0  0  0  0  0
    6.3821  -12.9278   19.7764 C   0  0  0  0  0  0  0  0  0  0  0  0
    7.8234  -13.4135   19.6983 C   0  0  1  0  0  0  0  0  0  0  0  0
    8.6533  -12.0893   19.6731 C   0  0  0  0  0  0  0  0  0  0  0  0
    8.2374  -14.1164   20.9523 C   0  0  0  0  0  0  0  0  0  0  0  0
    9.6012  -14.7434   20.8409 C   0  0  2  0  0  0  0  0  0  0  0  0
    9.5653  -15.7695   19.7812 N   0  0  0  0  0  0  0  0  0  0  0  0
    9.9102  -15.4842   22.0673 C   0  0  0  0  0  0  0  0  0  0  0  0
   10.0412  -14.8440   23.1630 O   0  0  0  0  0  0  0  0  0  0  0  0
   10.0841  -16.8849   22.1989 N   0  0  0  0  0  0  0  0  0  0  0  0
   10.4972  -17.5037   23.4514 C   0  0  1  0  0  0  0  0  0  0  0  0
   11.0910  -18.8602   23.2360 C   0  0  0  0  0  0  0  0  0  0  0  0
   12.5911  -18.8945   23.2009 C   0  0  0  0  0  0  0  0  0  0  0  0
   13.0069  -20.2997   22.9261 C   0  0  0  0  0  0  0  0  0  0  0  0
   14.2467  -20.5432   22.8346 O   0  0  0  0  0  0  0  0  0  0  0  0
   11.3513  -16.6519   24.2703 C   0  0  0  0  0  0  0  0  0  0  0  0
   11.9725  -15.6947   23.7654 O   0  0  0  0  0  0  0  0  0  0  0  0
   12.0628  -21.3180   22.7708 O   0  0  0  0  0  0  0  0  0  0  0  0
   11.4899  -16.8882   25.6225 O   0  0  0  0  0  0  0  0  0  0  0  0
  2  3  1  0
  2  1  1  0
  3  4  1  6
  5  3  1  0
  5  6  2  0
  8  7  1  1
  8 10  1  0
  8  9  1  0
 11 10  1  1
 11 12  1  0
 11 13  1  0
 12  5  1  0
 13 15  1  0
 14 13  2  0
 15 16  1  0
 16 21  1  0
 17 18  1  0
 16 17  1  6
 19 23  1  0
 19 18  1  0
 20 19  2  0
 21 22  2  0
 21 24  1  0
M  END
$$$$
