SLE.pdb
     RDKit          3D

 24 23  0  0  1  0  0  0  0  0999 V2000
    9.2139  -20.3155   18.9260 O   0  0  0  0  0  0  0  0  0  0  0  0
    8.1175  -19.8178   18.2133 C   0  0  0  0  0  0  0  0  0  0  0  0
    8.5354  -18.5994   17.3766 C   0  0  2  0  0  0  0  0  0  0  0  0
    9.4720  -18.9720   16.3642 N   0  0  0  0  0  0  0  0  0  0  0  0
    9.1501  -17.6084   18.3087 C   0  0  0  0  0  0  0  0  0  0  0  0
   10.3686  -17.4233   18.4587 O   0  0  0  0  0  0  0  0  0  0  0  0
    8.6052  -12.5964   20.4646 C   0  0  0  0  0  0  0  0  0  0  0  0
    7.8977  -13.7271   21.1997 C   0  0  1  0  0  0  0  0  0  0  0  0
    6.5380  -13.0875   21.6298 C   0  0  0  0  0  0  0  0  0  0  0  0
    7.5344  -14.8446   20.2738 C   0  0  0  0  0  0  0  0  0  0  0  0
    8.7166  -15.7024   19.9104 C   0  0  2  0  0  0  0  0  0  0  0  0
    8.2483  -16.8239   19.0737 N   0  0  0  0  0  0  0  0  0  0  0  0
    9.2604  -16.3369   21.1146 C   0  0  0  0  0  0  0  0  0  0  0  0
    8.6413  -17.3272   21.6280 O   0  0  0  0  0  0  0  0  0  0  0  0
   10.4427  -15.9786   21.8097 N   0  0  0  0  0  0  0  0  0  0  0  0
   10.9445  -16.7483   22.9403 C   0  0  1  0  0  0  0  0  0  0  0  0
   12.4188  -16.9856   22.8453 C   0  0  0  0  0  0  0  0  0  0  0  0
   13.2676  -15.7581   23.0050 C   0  0  0  0  0  0  0  0  0  0  0  0
   14.6869  -16.1547   22.7784 C   0  0  0  0  0  0  0  0  0  0  0  0
   14.9308  -17.3762   22.5481 O   0  0  0  0  0  0  0  0  0  0  0  0
   10.5562  -16.2042   24.2360 C   0  0  0  0  0  0  0  0  0  0  0  0
   10.8522  -16.7970   25.2933 O   0  0  0  0  0  0  0  0  0  0  0  0
   15.7184  -15.2132   22.8206 O   0  0  0  0  0  0  0  0  0  0  0  0
    9.8521  -15.0206   24.3185 O   0  0  0  0  0  0  0  0  0  0  0  0
  2  3  1  0
  2  1  1  0
  3  4  1  6
  5  3  1  0
  5  6  2  0
  8  7  1  6
  8 10  1  0
  8  9  1  0
 11 10  1  1
 11 12  1  0
 11 13  1  0
 12  5  1  0
 13 15  1  0
 14 13  2  0
 15 16  1  0
 16 21  1  0
 17 18  1  0
 16 17  1  1
 19 23  1  0
 19 18  1  0
 20 19  2  0
 21 22  2  0
 21 24  1  0
M  END
$$$$
