CWG.pdb
     RDKit          3D

 25 26  0  0  1  0  0  0  0  0999 V2000
    7.0558  -14.7103   20.4759 N   0  0  0  0  0  0  0  0  0  0  0  0
    7.6657  -15.8196   21.1647 C   0  0  1  0  0  0  0  0  0  0  0  0
    8.3761  -16.7802   20.2587 C   0  0  0  0  0  0  0  0  0  0  0  0
    7.4333  -18.3225   20.2536 S   0  0  0  0  0  0  0  0  0  0  0  0
    8.5411  -15.2983   22.2630 C   0  0  0  0  0  0  0  0  0  0  0  0
    9.0877  -14.1705   22.1884 O   0  0  0  0  0  0  0  0  0  0  0  0
    8.7804  -16.0692   23.4289 N   0  0  0  0  0  0  0  0  0  0  0  0
    9.6323  -15.7266   24.5177 C   0  0  1  0  0  0  0  0  0  0  0  0
    8.9373  -15.9452   25.8194 C   0  0  0  0  0  0  0  0  0  0  0  0
    7.6529  -15.2188   25.9103 C   0  0  0  0  0  0  0  0  0  0  0  0
    6.3849  -15.7320   25.7358 C   0  0  0  0  0  0  0  0  0  0  0  0
    5.5379  -14.6973   25.9121 N   0  0  0  0  0  0  0  0  0  0  0  0
    6.2165  -13.5713   26.1861 C   0  0  0  0  0  0  0  0  0  0  0  0
    5.7933  -12.2740   26.4370 C   0  0  0  0  0  0  0  0  0  0  0  0
    6.7328  -11.3057   26.6880 C   0  0  0  0  0  0  0  0  0  0  0  0
    8.0939  -11.5790   26.6998 C   0  0  0  0  0  0  0  0  0  0  0  0
    8.5143  -12.8690   26.4508 C   0  0  0  0  0  0  0  0  0  0  0  0
    7.5652  -13.8413   26.1983 C   0  0  0  0  0  0  0  0  0  0  0  0
   10.9425  -16.4384   24.4494 C   0  0  0  0  0  0  0  0  0  0  0  0
   11.7054  -16.3352   25.4366 O   0  0  0  0  0  0  0  0  0  0  0  0
   11.3725  -17.2136   23.3509 N   0  0  0  0  0  0  0  0  0  0  0  0
   12.6646  -17.8841   23.3451 C   0  0  0  0  0  0  0  0  0  0  0  0
   13.7524  -16.9967   22.9302 C   0  0  0  0  0  0  0  0  0  0  0  0
   13.5675  -15.7677   22.6233 O   0  0  0  0  0  0  0  0  0  0  0  0
   15.0638  -17.4299   22.8403 O   0  0  0  0  0  0  0  0  0  0  0  0
  2  1  1  6
  3  2  1  0
  4  3  1  0
  5  7  1  0
  5  2  1  0
  6  5  2  0
  8  7  1  0
  8  9  1  1
  9 10  1  0
 10 11  2  0
 10 18  1  0
 11 12  1  0
 12 13  1  0
 13 14  2  0
 14 15  1  0
 16 15  2  0
 17 16  1  0
 18 17  2  0
 18 13  1  0
 19  8  1  0
 20 19  2  0
 21 19  1  0
 22 23  1  0
 22 21  1  0
 23 25  1  0
 24 23  2  0
M  END
$$$$
