CWG.pdb
     RDKit          3D

 25 26  0  0  1  0  0  0  0  0999 V2000
    7.4593  -13.6588   20.0916 N   0  0  0  0  0  0  0  0  0  0  0  0
    7.3582  -14.7765   20.9959 C   0  0  1  0  0  0  0  0  0  0  0  0
    7.3252  -16.1101   20.3113 C   0  0  0  0  0  0  0  0  0  0  0  0
    8.9804  -16.4277   19.6578 S   0  0  0  0  0  0  0  0  0  0  0  0
    8.4405  -14.6773   22.0270 C   0  0  0  0  0  0  0  0  0  0  0  0
    9.3849  -13.8582   21.9117 O   0  0  0  0  0  0  0  0  0  0  0  0
    8.4304  -15.5122   23.1732 N   0  0  0  0  0  0  0  0  0  0  0  0
    9.3613  -15.4921   24.2510 C   0  0  1  0  0  0  0  0  0  0  0  0
    8.6857  -15.8315   25.5370 C   0  0  0  0  0  0  0  0  0  0  0  0
    7.5010  -14.9872   25.8001 C   0  0  0  0  0  0  0  0  0  0  0  0
    6.1788  -15.3787   25.8155 C   0  0  0  0  0  0  0  0  0  0  0  0
    5.4660  -14.2686   26.0964 N   0  0  0  0  0  0  0  0  0  0  0  0
    6.2790  -13.2115   26.2552 C   0  0  0  0  0  0  0  0  0  0  0  0
    6.0190  -11.8801   26.5458 C   0  0  0  0  0  0  0  0  0  0  0  0
    7.0709  -11.0045   26.6467 C   0  0  0  0  0  0  0  0  0  0  0  0
    8.3882  -11.4049   26.4680 C   0  0  0  0  0  0  0  0  0  0  0  0
    8.6464  -12.7289   26.1794 C   0  0  0  0  0  0  0  0  0  0  0  0
    7.5844  -13.6075   26.0785 C   0  0  0  0  0  0  0  0  0  0  0  0
   10.5440  -16.3633   23.9861 C   0  0  0  0  0  0  0  0  0  0  0  0
   11.3977  -16.4665   24.8960 O   0  0  0  0  0  0  0  0  0  0  0  0
   10.7594  -17.0718   22.7844 N   0  0  0  0  0  0  0  0  0  0  0  0
   11.8634  -18.0087   22.6345 C   0  0  0  0  0  0  0  0  0  0  0  0
   12.9831  -17.4369   21.8847 C   0  0  0  0  0  0  0  0  0  0  0  0
   14.0689  -18.0773   21.6616 O   0  0  0  0  0  0  0  0  0  0  0  0
   12.9435  -16.1555   21.3632 O   0  0  0  0  0  0  0  0  0  0  0  0
  2  1  1  6
  3  2  1  0
  4  3  1  0
  5  7  1  0
  5  2  1  0
  6  5  2  0
  8  7  1  0
  8  9  1  1
  9 10  1  0
 10 11  2  0
 10 18  1  0
 11 12  1  0
 12 13  1  0
 13 14  2  0
 14 15  1  0
 16 15  2  0
 17 16  1  0
 18 17  2  0
 18 13  1  0
 19  8  1  0
 20 19  2  0
 21 19  1  0
 22 23  1  0
 22 21  1  0
 23 25  1  0
 24 23  2  0
M  END
$$$$
