CWG.pdb
     RDKit          3D

 25 26  0  0  1  0  0  0  0  0999 V2000
    7.5453  -17.1191   21.8895 N   0  0  0  0  0  0  0  0  0  0  0  0
    8.1763  -15.8537   21.6106 C   0  0  1  0  0  0  0  0  0  0  0  0
    7.2142  -14.7630   21.2458 C   0  0  0  0  0  0  0  0  0  0  0  0
    5.6419  -15.5450   20.8168 S   0  0  0  0  0  0  0  0  0  0  0  0
    9.0696  -15.4842   22.7551 C   0  0  0  0  0  0  0  0  0  0  0  0
    9.7359  -14.4201   22.7517 O   0  0  0  0  0  0  0  0  0  0  0  0
    9.1902  -16.3319   23.8855 N   0  0  0  0  0  0  0  0  0  0  0  0
   10.0261  -16.1264   25.0202 C   0  0  1  0  0  0  0  0  0  0  0  0
    9.2188  -16.1178   26.2746 C   0  0  0  0  0  0  0  0  0  0  0  0
    7.9058  -15.4599   26.1044 C   0  0  0  0  0  0  0  0  0  0  0  0
    6.6993  -16.0593   25.8098 C   0  0  0  0  0  0  0  0  0  0  0  0
    5.7934  -15.0617   25.7518 N   0  0  0  0  0  0  0  0  0  0  0  0
    6.3774  -13.8771   25.9950 C   0  0  0  0  0  0  0  0  0  0  0  0
    5.8685  -12.5872   26.0417 C   0  0  0  0  0  0  0  0  0  0  0  0
    6.7202  -11.5467   26.3160 C   0  0  0  0  0  0  0  0  0  0  0  0
    8.0752  -11.7398   26.5489 C   0  0  0  0  0  0  0  0  0  0  0  0
    8.5807  -13.0225   26.5028 C   0  0  0  0  0  0  0  0  0  0  0  0
    7.7198  -14.0676   26.2262 C   0  0  0  0  0  0  0  0  0  0  0  0
   11.1473  -17.1102   25.0757 C   0  0  0  0  0  0  0  0  0  0  0  0
   12.0141  -16.9449   25.9636 O   0  0  0  0  0  0  0  0  0  0  0  0
   11.2910  -18.2057   24.1973 N   0  0  0  0  0  0  0  0  0  0  0  0
   12.3109  -18.2265   23.1586 C   0  0  0  0  0  0  0  0  0  0  0  0
   13.6523  -18.4564   23.6978 C   0  0  0  0  0  0  0  0  0  0  0  0
   14.0838  -19.6194   24.0141 O   0  0  0  0  0  0  0  0  0  0  0  0
   14.5509  -17.4243   23.9043 O   0  0  0  0  0  0  0  0  0  0  0  0
  2  1  1  1
  3  2  1  0
  4  3  1  0
  5  7  1  0
  5  2  1  0
  6  5  2  0
  8  7  1  0
  8  9  1  1
  9 10  1  0
 10 11  2  0
 10 18  1  0
 11 12  1  0
 12 13  1  0
 13 14  2  0
 14 15  1  0
 16 15  2  0
 17 16  1  0
 18 17  2  0
 18 13  1  0
 19  8  1  0
 20 19  2  0
 21 19  1  0
 22 23  1  0
 22 21  1  0
 23 25  1  0
 24 23  2  0
M  END
$$$$
