CWG.pdb
     RDKit          3D

 25 26  0  0  1  0  0  0  0  0999 V2000
    7.9144  -16.8895   21.6699 N   0  0  0  0  0  0  0  0  0  0  0  0
    8.3684  -15.5300   21.5191 C   0  0  1  0  0  0  0  0  0  0  0  0
    7.2690  -14.5510   21.2339 C   0  0  0  0  0  0  0  0  0  0  0  0
    6.6898  -14.8586   19.5493 S   0  0  0  0  0  0  0  0  0  0  0  0
    9.1930  -15.1494   22.7106 C   0  0  0  0  0  0  0  0  0  0  0  0
    9.8124  -14.0584   22.7598 O   0  0  0  0  0  0  0  0  0  0  0  0
    9.2994  -16.0169   23.8273 N   0  0  0  0  0  0  0  0  0  0  0  0
   10.0628  -15.7958   25.0092 C   0  0  1  0  0  0  0  0  0  0  0  0
    9.2569  -16.1127   26.2239 C   0  0  0  0  0  0  0  0  0  0  0  0
    7.9319  -15.4569   26.2175 C   0  0  0  0  0  0  0  0  0  0  0  0
    6.7139  -16.0299   25.9173 C   0  0  0  0  0  0  0  0  0  0  0  0
    5.7998  -15.0461   26.0429 N   0  0  0  0  0  0  0  0  0  0  0  0
    6.3895  -13.8951   26.4048 C   0  0  0  0  0  0  0  0  0  0  0  0
    5.8760  -12.6296   26.6491 C   0  0  0  0  0  0  0  0  0  0  0  0
    6.7357  -11.6217   27.0074 C   0  0  0  0  0  0  0  0  0  0  0  0
    8.1033  -11.8243   27.1342 C   0  0  0  0  0  0  0  0  0  0  0  0
    8.6135  -13.0828   26.8916 C   0  0  0  0  0  0  0  0  0  0  0  0
    7.7445  -14.0950   26.5309 C   0  0  0  0  0  0  0  0  0  0  0  0
   11.3610  -16.5320   24.9836 C   0  0  0  0  0  0  0  0  0  0  0  0
   11.9816  -16.6414   26.0653 O   0  0  0  0  0  0  0  0  0  0  0  0
   11.9287  -17.1072   23.8264 N   0  0  0  0  0  0  0  0  0  0  0  0
   13.1604  -17.8812   23.8807 C   0  0  0  0  0  0  0  0  0  0  0  0
   14.3309  -17.0967   23.4837 C   0  0  0  0  0  0  0  0  0  0  0  0
   14.2545  -15.8732   23.1151 O   0  0  0  0  0  0  0  0  0  0  0  0
   15.6084  -17.6291   23.4792 O   0  0  0  0  0  0  0  0  0  0  0  0
  2  1  1  1
  3  2  1  0
  4  3  1  0
  5  7  1  0
  5  2  1  0
  6  5  2  0
  8  7  1  0
  8  9  1  1
  9 10  1  0
 10 11  2  0
 10 18  1  0
 11 12  1  0
 12 13  1  0
 13 14  2  0
 14 15  1  0
 16 15  2  0
 17 16  1  0
 18 17  2  0
 18 13  1  0
 19  8  1  0
 20 19  2  0
 21 19  1  0
 22 23  1  0
 22 21  1  0
 23 25  1  0
 24 23  2  0
M  END
$$$$
