CWG.pdb
     RDKit          3D

 25 26  0  0  1  0  0  0  0  0999 V2000
    7.2350  -13.5756   20.2775 N   0  0  0  0  0  0  0  0  0  0  0  0
    7.5791  -14.8826   20.7781 C   0  0  1  0  0  0  0  0  0  0  0  0
    8.0753  -15.8254   19.7230 C   0  0  0  0  0  0  0  0  0  0  0  0
    8.1387  -17.4770   20.4550 S   0  0  0  0  0  0  0  0  0  0  0  0
    8.5323  -14.7373   21.9248 C   0  0  0  0  0  0  0  0  0  0  0  0
    9.3424  -13.7802   21.9888 O   0  0  0  0  0  0  0  0  0  0  0  0
    8.5480  -15.6838   22.9806 N   0  0  0  0  0  0  0  0  0  0  0  0
    9.4173  -15.6884   24.1088 C   0  0  1  0  0  0  0  0  0  0  0  0
    8.6840  -16.1115   25.3371 C   0  0  0  0  0  0  0  0  0  0  0  0
    7.4903  -15.2812   25.6044 C   0  0  0  0  0  0  0  0  0  0  0  0
    6.1686  -15.6715   25.5530 C   0  0  0  0  0  0  0  0  0  0  0  0
    5.4458  -14.5773   25.8686 N   0  0  0  0  0  0  0  0  0  0  0  0
    6.2521  -13.5313   26.1120 C   0  0  0  0  0  0  0  0  0  0  0  0
    5.9812  -12.2171   26.4648 C   0  0  0  0  0  0  0  0  0  0  0  0
    7.0284  -11.3495   26.6489 C   0  0  0  0  0  0  0  0  0  0  0  0
    8.3513  -11.7412   26.4944 C   0  0  0  0  0  0  0  0  0  0  0  0
    8.6203  -13.0480   26.1440 C   0  0  0  0  0  0  0  0  0  0  0  0
    7.5630  -13.9186   25.9594 C   0  0  0  0  0  0  0  0  0  0  0  0
   10.6412  -16.5087   23.8698 C   0  0  0  0  0  0  0  0  0  0  0  0
   11.4233  -16.6693   24.8340 O   0  0  0  0  0  0  0  0  0  0  0  0
   10.9700  -17.1092   22.6355 N   0  0  0  0  0  0  0  0  0  0  0  0
   12.1371  -17.9667   22.4872 C   0  0  0  0  0  0  0  0  0  0  0  0
   13.3387  -17.2156   22.1198 C   0  0  0  0  0  0  0  0  0  0  0  0
   13.3383  -15.9478   21.9427 O   0  0  0  0  0  0  0  0  0  0  0  0
   14.5652  -17.8302   21.9369 O   0  0  0  0  0  0  0  0  0  0  0  0
  2  1  1  6
  3  2  1  0
  4  3  1  0
  5  7  1  0
  5  2  1  0
  6  5  2  0
  8  7  1  0
  8  9  1  1
  9 10  1  0
 10 11  2  0
 10 18  1  0
 11 12  1  0
 12 13  1  0
 13 14  2  0
 14 15  1  0
 16 15  2  0
 17 16  1  0
 18 17  2  0
 18 13  1  0
 19  8  1  0
 20 19  2  0
 21 19  1  0
 22 23  1  0
 22 21  1  0
 23 25  1  0
 24 23  2  0
M  END
$$$$
