MPD.pdb
     RDKit          3D

 24 24  0  0  1  0  0  0  0  0999 V2000
    5.4997  -10.6262   26.9816 C   0  0  0  0  0  0  0  0  0  0  0  0
    6.8448  -11.8457   26.9502 S   0  0  0  0  0  0  0  0  0  0  0  0
    6.2585  -13.4503   26.3503 C   0  0  0  0  0  0  0  0  0  0  0  0
    7.3570  -14.2276   25.6614 C   0  0  0  0  0  0  0  0  0  0  0  0
    6.7317  -15.4740   25.0671 C   0  0  2  0  0  0  0  0  0  0  0  0
    6.2601  -16.2871   26.1343 N   0  0  0  0  0  0  0  0  0  0  0  0
    7.5851  -16.1210   24.0764 C   0  0  0  0  0  0  0  0  0  0  0  0
    7.9170  -17.3307   24.3454 O   0  0  0  0  0  0  0  0  0  0  0  0
    8.0811  -15.5800   22.8747 N   0  0  0  0  0  0  0  0  0  0  0  0
    7.9655  -14.2731   22.2703 C   0  0  0  0  0  0  0  0  0  0  0  0
    7.6089  -14.6542   20.8253 C   0  0  0  0  0  0  0  0  0  0  0  0
    8.6604  -15.7119   20.5620 C   0  0  0  0  0  0  0  0  0  0  0  0
    8.9002  -16.3251   21.9008 C   0  0  1  0  0  0  0  0  0  0  0  0
   10.3024  -16.3990   22.3146 C   0  0  0  0  0  0  0  0  0  0  0  0
   10.8403  -15.3738   22.8344 O   0  0  0  0  0  0  0  0  0  0  0  0
   11.1417  -17.5398   22.1869 N   0  0  0  0  0  0  0  0  0  0  0  0
   12.5395  -17.5040   22.6343 C   0  0  1  0  0  0  0  0  0  0  0  0
   12.9505  -18.9107   23.0065 C   0  0  0  0  0  0  0  0  0  0  0  0
   12.2396  -19.3112   24.2492 C   0  0  0  0  0  0  0  0  0  0  0  0
   11.5656  -18.5147   24.9449 O   0  0  0  0  0  0  0  0  0  0  0  0
   13.4266  -17.0186   21.5585 C   0  0  0  0  0  0  0  0  0  0  0  0
   13.0810  -17.0023   20.3520 O   0  0  0  0  0  0  0  0  0  0  0  0
   12.2957  -20.6359   24.7074 O   0  0  0  0  0  0  0  0  0  0  0  0
   14.6839  -16.5644   21.8875 O   0  0  0  0  0  0  0  0  0  0  0  0
  1  2  1  0
  3  2  1  0
  4  3  1  0
  5  7  1  0
  5  4  1  0
  5  6  1  1
  7  8  2  0
  9 13  1  0
  9  7  1  0
 10 11  1  0
 10  9  1  0
 11 12  1  0
 12 13  1  0
 13 14  1  1
 14 15  2  0
 16 14  1  0
 17 16  1  0
 17 21  1  0
 17 18  1  6
 19 20  2  0
 19 18  1  0
 21 24  1  0
 22 21  2  0
 23 19  1  0
M  END
$$$$
