MPD.pdb
     RDKit          3D

 24 24  0  0  1  0  0  0  0  0999 V2000
    7.3870  -11.8615   27.6720 C   0  0  0  0  0  0  0  0  0  0  0  0
    5.8328  -11.9912   26.7420 S   0  0  0  0  0  0  0  0  0  0  0  0
    5.5234  -13.6973   26.2205 C   0  0  0  0  0  0  0  0  0  0  0  0
    6.8059  -14.4216   25.8800 C   0  0  0  0  0  0  0  0  0  0  0  0
    6.4296  -15.7212   25.1965 C   0  0  2  0  0  0  0  0  0  0  0  0
    6.1199  -16.6787   26.2014 N   0  0  0  0  0  0  0  0  0  0  0  0
    7.3914  -16.1268   24.1774 C   0  0  0  0  0  0  0  0  0  0  0  0
    7.9743  -17.2498   24.3900 O   0  0  0  0  0  0  0  0  0  0  0  0
    7.7507  -15.4387   23.0026 N   0  0  0  0  0  0  0  0  0  0  0  0
    7.3445  -14.1664   22.4523 C   0  0  0  0  0  0  0  0  0  0  0  0
    7.0780  -14.5563   20.9904 C   0  0  0  0  0  0  0  0  0  0  0  0
    8.3384  -15.3405   20.6904 C   0  0  0  0  0  0  0  0  0  0  0  0
    8.7129  -15.9404   22.0040 C   0  0  1  0  0  0  0  0  0  0  0  0
   10.0973  -15.7167   22.4238 C   0  0  0  0  0  0  0  0  0  0  0  0
   10.3232  -14.9113   23.3782 O   0  0  0  0  0  0  0  0  0  0  0  0
   11.2436  -16.3319   21.8497 N   0  0  0  0  0  0  0  0  0  0  0  0
   12.3379  -16.8280   22.6933 C   0  0  1  0  0  0  0  0  0  0  0  0
   11.7714  -17.8642   23.6375 C   0  0  0  0  0  0  0  0  0  0  0  0
   12.8412  -18.3075   24.5698 C   0  0  0  0  0  0  0  0  0  0  0  0
   13.9639  -18.7144   24.1871 O   0  0  0  0  0  0  0  0  0  0  0  0
   13.3929  -17.4574   21.8744 C   0  0  0  0  0  0  0  0  0  0  0  0
   13.1874  -18.4787   21.1743 O   0  0  0  0  0  0  0  0  0  0  0  0
   12.6316  -18.2878   25.9567 O   0  0  0  0  0  0  0  0  0  0  0  0
   14.6540  -16.9050   21.8755 O   0  0  0  0  0  0  0  0  0  0  0  0
  1  2  1  0
  3  2  1  0
  4  3  1  0
  5  7  1  0
  5  4  1  0
  5  6  1  1
  7  8  2  0
  9 13  1  0
  9  7  1  0
 10 11  1  0
 10  9  1  0
 11 12  1  0
 12 13  1  0
 13 14  1  1
 14 15  2  0
 16 14  1  0
 17 16  1  0
 17 21  1  0
 17 18  1  1
 19 20  2  0
 19 18  1  0
 21 24  1  0
 22 21  2  0
 23 19  1  0
M  END
$$$$
