MPD.pdb
     RDKit          3D

 24 24  0  0  1  0  0  0  0  0999 V2000
    5.4590  -11.1004   27.1931 C   0  0  0  0  0  0  0  0  0  0  0  0
    6.7765  -12.3464   27.0973 S   0  0  0  0  0  0  0  0  0  0  0  0
    6.2733  -13.7524   26.0734 C   0  0  0  0  0  0  0  0  0  0  0  0
    7.3041  -14.8581   26.0924 C   0  0  0  0  0  0  0  0  0  0  0  0
    6.7651  -16.0002   25.2540 C   0  0  2  0  0  0  0  0  0  0  0  0
    6.3675  -17.0467   26.1312 N   0  0  0  0  0  0  0  0  0  0  0  0
    7.6518  -16.3663   24.1550 C   0  0  0  0  0  0  0  0  0  0  0  0
    8.0620  -17.5818   24.1633 O   0  0  0  0  0  0  0  0  0  0  0  0
    8.1046  -15.5519   23.0992 N   0  0  0  0  0  0  0  0  0  0  0  0
    7.9350  -14.1476   22.8063 C   0  0  0  0  0  0  0  0  0  0  0  0
    7.5597  -14.2068   21.3177 C   0  0  0  0  0  0  0  0  0  0  0  0
    8.6381  -15.1403   20.8085 C   0  0  0  0  0  0  0  0  0  0  0  0
    8.9258  -16.0296   21.9713 C   0  0  1  0  0  0  0  0  0  0  0  0
   10.3382  -16.1447   22.3386 C   0  0  0  0  0  0  0  0  0  0  0  0
   10.8209  -15.3200   23.1736 O   0  0  0  0  0  0  0  0  0  0  0  0
   11.2450  -17.1180   21.8361 N   0  0  0  0  0  0  0  0  0  0  0  0
   12.6230  -17.1971   22.3362 C   0  0  1  0  0  0  0  0  0  0  0  0
   13.2864  -15.8589   22.1010 C   0  0  0  0  0  0  0  0  0  0  0  0
   14.6979  -15.9293   22.5621 C   0  0  0  0  0  0  0  0  0  0  0  0
   15.5481  -16.7043   22.0632 O   0  0  0  0  0  0  0  0  0  0  0  0
   12.6443  -17.4903   23.7830 C   0  0  0  0  0  0  0  0  0  0  0  0
   11.6210  -17.4091   24.5053 O   0  0  0  0  0  0  0  0  0  0  0  0
   15.1492  -15.1067   23.6050 O   0  0  0  0  0  0  0  0  0  0  0  0
   13.8320  -17.8689   24.3675 O   0  0  0  0  0  0  0  0  0  0  0  0
  1  2  1  0
  3  2  1  0
  4  3  1  0
  5  7  1  0
  5  4  1  0
  5  6  1  1
  7  8  2  0
  9 13  1  0
  9  7  1  0
 10 11  1  0
 10  9  1  0
 11 12  1  0
 12 13  1  0
 13 14  1  1
 14 15  2  0
 16 14  1  0
 17 16  1  0
 17 21  1  0
 17 18  1  1
 19 20  2  0
 19 18  1  0
 21 24  1  0
 22 21  2  0
 23 19  1  0
M  END
$$$$
