MPD.pdb
     RDKit          3D

 24 24  0  0  1  0  0  0  0  0999 V2000
    6.9142  -11.5001   26.9197 C   0  0  0  0  0  0  0  0  0  0  0  0
    7.6000  -13.1591   27.1933 S   0  0  0  0  0  0  0  0  0  0  0  0
    7.1605  -14.2795   25.8405 C   0  0  0  0  0  0  0  0  0  0  0  0
    6.9395  -15.6923   26.3309 C   0  0  0  0  0  0  0  0  0  0  0  0
    6.5209  -16.5299   25.1389 C   0  0  2  0  0  0  0  0  0  0  0  0
    6.0428  -17.7800   25.6197 N   0  0  0  0  0  0  0  0  0  0  0  0
    7.5349  -16.5739   24.0909 C   0  0  0  0  0  0  0  0  0  0  0  0
    8.3280  -17.5812   24.1377 O   0  0  0  0  0  0  0  0  0  0  0  0
    7.7425  -15.6518   23.0472 N   0  0  0  0  0  0  0  0  0  0  0  0
    7.1378  -14.3778   22.7341 C   0  0  0  0  0  0  0  0  0  0  0  0
    6.8658  -14.5492   21.2318 C   0  0  0  0  0  0  0  0  0  0  0  0
    8.2099  -15.0786   20.7769 C   0  0  0  0  0  0  0  0  0  0  0  0
    8.7216  -15.8311   21.9591 C   0  0  1  0  0  0  0  0  0  0  0  0
   10.0776  -15.4819   22.3859 C   0  0  0  0  0  0  0  0  0  0  0  0
   10.2239  -14.6757   23.3550 O   0  0  0  0  0  0  0  0  0  0  0  0
   11.2783  -15.9727   21.8034 N   0  0  0  0  0  0  0  0  0  0  0  0
   12.5367  -15.9823   22.5595 C   0  0  1  0  0  0  0  0  0  0  0  0
   12.3304  -16.8128   23.8060 C   0  0  0  0  0  0  0  0  0  0  0  0
   13.5802  -16.7989   24.6108 C   0  0  0  0  0  0  0  0  0  0  0  0
   14.5988  -16.1412   24.2907 O   0  0  0  0  0  0  0  0  0  0  0  0
   13.6268  -16.5815   21.7642 C   0  0  0  0  0  0  0  0  0  0  0  0
   14.6551  -15.9415   21.4350 O   0  0  0  0  0  0  0  0  0  0  0  0
   13.6732  -17.5430   25.7964 O   0  0  0  0  0  0  0  0  0  0  0  0
   13.5151  -17.8946   21.3658 O   0  0  0  0  0  0  0  0  0  0  0  0
  1  2  1  0
  3  2  1  0
  4  3  1  0
  5  7  1  0
  5  4  1  0
  5  6  1  1
  7  8  2  0
  9 13  1  0
  9  7  1  0
 10 11  1  0
 10  9  1  0
 11 12  1  0
 12 13  1  0
 13 14  1  1
 14 15  2  0
 16 14  1  0
 17 16  1  0
 17 21  1  0
 17 18  1  1
 19 20  2  0
 19 18  1  0
 21 24  1  0
 22 21  2  0
 23 19  1  0
M  END
$$$$
