MPD.pdb
     RDKit          3D

 24 24  0  0  1  0  0  0  0  0999 V2000
    5.7134  -11.4823   27.0916 C   0  0  0  0  0  0  0  0  0  0  0  0
    7.2832  -12.3892   26.9867 S   0  0  0  0  0  0  0  0  0  0  0  0
    7.0009  -14.1517   26.6831 C   0  0  0  0  0  0  0  0  0  0  0  0
    6.4240  -14.3991   25.3079 C   0  0  0  0  0  0  0  0  0  0  0  0
    6.4043  -15.8981   25.0832 C   0  0  2  0  0  0  0  0  0  0  0  0
    6.5294  -16.5389   26.3466 N   0  0  0  0  0  0  0  0  0  0  0  0
    7.3239  -16.3279   24.0353 C   0  0  0  0  0  0  0  0  0  0  0  0
    7.7015  -17.5519   24.1057 O   0  0  0  0  0  0  0  0  0  0  0  0
    7.8391  -15.5661   22.9690 N   0  0  0  0  0  0  0  0  0  0  0  0
    7.6695  -14.1842   22.5838 C   0  0  0  0  0  0  0  0  0  0  0  0
    7.4036  -14.3351   21.0782 C   0  0  0  0  0  0  0  0  0  0  0  0
    8.5302  -15.2747   20.7021 C   0  0  0  0  0  0  0  0  0  0  0  0
    8.7469  -16.0908   21.9321 C   0  0  1  0  0  0  0  0  0  0  0  0
   10.1306  -16.1573   22.4050 C   0  0  0  0  0  0  0  0  0  0  0  0
   10.5460  -15.2637   23.2046 O   0  0  0  0  0  0  0  0  0  0  0  0
   11.0790  -17.1538   22.0449 N   0  0  0  0  0  0  0  0  0  0  0  0
   12.4553  -17.1068   22.5536 C   0  0  1  0  0  0  0  0  0  0  0  0
   12.6474  -18.2707   23.4993 C   0  0  0  0  0  0  0  0  0  0  0  0
   14.0413  -18.2514   24.0159 C   0  0  0  0  0  0  0  0  0  0  0  0
   14.4739  -17.3729   24.7992 O   0  0  0  0  0  0  0  0  0  0  0  0
   13.4306  -17.2241   21.4513 C   0  0  0  0  0  0  0  0  0  0  0  0
   13.1018  -17.5711   20.2907 O   0  0  0  0  0  0  0  0  0  0  0  0
   14.9562  -19.2449   23.6366 O   0  0  0  0  0  0  0  0  0  0  0  0
   14.7546  -16.9420   21.7019 O   0  0  0  0  0  0  0  0  0  0  0  0
  1  2  1  0
  3  2  1  0
  4  3  1  0
  5  7  1  0
  5  4  1  0
  5  6  1  1
  7  8  2  0
  9 13  1  0
  9  7  1  0
 10 11  1  0
 10  9  1  0
 11 12  1  0
 12 13  1  0
 13 14  1  1
 14 15  2  0
 16 14  1  0
 17 16  1  0
 17 21  1  0
 17 18  1  1
 19 20  2  0
 19 18  1  0
 21 24  1  0
 22 21  2  0
 23 19  1  0
M  END
$$$$
