MPD.pdb
     RDKit          3D

 24 24  0  0  1  0  0  0  0  0999 V2000
    5.6764  -11.8183   27.0874 C   0  0  0  0  0  0  0  0  0  0  0  0
    7.3697  -12.4704   27.1573 S   0  0  0  0  0  0  0  0  0  0  0  0
    7.3928  -14.2602   26.8848 C   0  0  0  0  0  0  0  0  0  0  0  0
    6.5033  -14.6639   25.7310 C   0  0  0  0  0  0  0  0  0  0  0  0
    6.6597  -16.1588   25.5343 C   0  0  2  0  0  0  0  0  0  0  0  0
    7.3132  -16.6921   26.6793 N   0  0  0  0  0  0  0  0  0  0  0  0
    7.2256  -16.5049   24.2349 C   0  0  0  0  0  0  0  0  0  0  0  0
    7.2041  -17.7540   23.9430 O   0  0  0  0  0  0  0  0  0  0  0  0
    7.7857  -15.6394   23.2757 N   0  0  0  0  0  0  0  0  0  0  0  0
    8.1929  -14.2545   23.3285 C   0  0  0  0  0  0  0  0  0  0  0  0
    7.5638  -13.7194   22.0331 C   0  0  0  0  0  0  0  0  0  0  0  0
    8.0159  -14.7860   21.0576 C   0  0  0  0  0  0  0  0  0  0  0  0
    8.0958  -16.0240   21.8863 C   0  0  1  0  0  0  0  0  0  0  0  0
    9.3584  -16.7591   21.7954 C   0  0  0  0  0  0  0  0  0  0  0  0
    9.7447  -17.1707   20.6588 O   0  0  0  0  0  0  0  0  0  0  0  0
   10.2164  -17.0642   22.8876 N   0  0  0  0  0  0  0  0  0  0  0  0
   11.6636  -17.2153   22.6930 C   0  0  1  0  0  0  0  0  0  0  0  0
   12.1995  -15.9213   22.1234 C   0  0  0  0  0  0  0  0  0  0  0  0
   13.6441  -16.0883   21.8148 C   0  0  0  0  0  0  0  0  0  0  0  0
   14.4245  -16.7729   22.5182 O   0  0  0  0  0  0  0  0  0  0  0  0
   12.3437  -17.4880   23.9748 C   0  0  0  0  0  0  0  0  0  0  0  0
   12.2030  -16.7562   24.9848 O   0  0  0  0  0  0  0  0  0  0  0  0
   14.2094  -15.4685   20.6904 O   0  0  0  0  0  0  0  0  0  0  0  0
   13.1657  -18.5883   24.0707 O   0  0  0  0  0  0  0  0  0  0  0  0
  1  2  1  0
  3  2  1  0
  4  3  1  0
  5  7  1  0
  5  4  1  0
  5  6  1  1
  7  8  2  0
  9 13  1  0
  9  7  1  0
 10 11  1  0
 10  9  1  0
 11 12  1  0
 12 13  1  0
 13 14  1  1
 14 15  2  0
 16 14  1  0
 17 16  1  0
 17 21  1  0
 17 18  1  1
 19 20  2  0
 19 18  1  0
 21 24  1  0
 22 21  2  0
 23 19  1  0
M  END
$$$$
