MPD.pdb
     RDKit          3D

 24 24  0  0  1  0  0  0  0  0999 V2000
    5.4652  -10.8598   27.0224 C   0  0  0  0  0  0  0  0  0  0  0  0
    6.4085  -12.3805   27.3309 S   0  0  0  0  0  0  0  0  0  0  0  0
    6.8052  -13.2293   25.7815 C   0  0  0  0  0  0  0  0  0  0  0  0
    7.4401  -14.5791   26.0274 C   0  0  0  0  0  0  0  0  0  0  0  0
    6.6339  -15.6099   25.2624 C   0  0  2  0  0  0  0  0  0  0  0  0
    6.1119  -16.5479   26.1953 N   0  0  0  0  0  0  0  0  0  0  0  0
    7.3510  -16.1550   24.1149 C   0  0  0  0  0  0  0  0  0  0  0  0
    7.4951  -17.4298   24.1138 O   0  0  0  0  0  0  0  0  0  0  0  0
    7.8967  -15.4546   23.0220 N   0  0  0  0  0  0  0  0  0  0  0  0
    8.0784  -14.0464   22.7561 C   0  0  0  0  0  0  0  0  0  0  0  0
    7.5548  -13.9553   21.3147 C   0  0  0  0  0  0  0  0  0  0  0  0
    8.2899  -15.1229   20.6903 C   0  0  0  0  0  0  0  0  0  0  0  0
    8.4449  -16.0945   21.8118 C   0  0  1  0  0  0  0  0  0  0  0  0
    9.8051  -16.5904   22.0285 C   0  0  0  0  0  0  0  0  0  0  0  0
   10.2395  -17.5247   21.2878 O   0  0  0  0  0  0  0  0  0  0  0  0
   10.7103  -16.1125   23.0156 N   0  0  0  0  0  0  0  0  0  0  0  0
   11.8777  -16.9062   23.4186 C   0  0  1  0  0  0  0  0  0  0  0  0
   13.1049  -16.0307   23.3021 C   0  0  0  0  0  0  0  0  0  0  0  0
   13.5525  -16.0087   21.8846 C   0  0  0  0  0  0  0  0  0  0  0  0
   13.0274  -15.2829   21.0072 O   0  0  0  0  0  0  0  0  0  0  0  0
   11.7499  -17.3618   24.8172 C   0  0  0  0  0  0  0  0  0  0  0  0
   10.7849  -17.0346   25.5501 O   0  0  0  0  0  0  0  0  0  0  0  0
   14.6123  -16.8233   21.4588 O   0  0  0  0  0  0  0  0  0  0  0  0
   12.7257  -18.1787   25.3423 O   0  0  0  0  0  0  0  0  0  0  0  0
  1  2  1  0
  3  2  1  0
  4  3  1  0
  5  7  1  0
  5  4  1  0
  5  6  1  1
  7  8  2  0
  9 13  1  0
  9  7  1  0
 10 11  1  0
 10  9  1  0
 11 12  1  0
 12 13  1  0
 13 14  1  1
 14 15  2  0
 16 14  1  0
 17 16  1  0
 17 21  1  0
 17 18  1  1
 19 20  2  0
 19 18  1  0
 21 24  1  0
 22 21  2  0
 23 19  1  0
M  END
$$$$
