IHQ.pdb
     RDKit          3D

 28 28  0  0  1  0  0  0  0  0999 V2000
   28.9070  -17.8837  -20.0971 C   0  0  0  0  0  0  0  0  0  0  0  0
   28.7411  -17.8757  -18.5920 C   0  0  0  0  0  0  0  0  0  0  0  0
   27.4032  -18.4844  -18.2514 C   0  0  2  0  0  0  0  0  0  0  0  0
   26.2850  -17.6660  -18.8599 C   0  0  0  0  0  0  0  0  0  0  0  0
   27.1620  -18.5556  -16.7686 C   0  0  2  0  0  0  0  0  0  0  0  0
   28.3051  -18.9830  -16.0302 N   0  0  0  0  0  0  0  0  0  0  0  0
   25.9909  -19.4121  -16.4288 C   0  0  0  0  0  0  0  0  0  0  0  0
   24.8928  -19.2667  -17.0509 O   0  0  0  0  0  0  0  0  0  0  0  0
   26.0444  -20.4012  -15.4244 N   0  0  0  0  0  0  0  0  0  0  0  0
   24.9508  -21.2874  -15.0989 C   0  0  1  0  0  0  0  0  0  0  0  0
   25.4363  -22.5841  -14.5019 C   0  0  0  0  0  0  0  0  0  0  0  0
   26.1593  -23.4434  -15.4624 C   0  0  0  0  0  0  0  0  0  0  0  0
   26.2490  -23.1930  -16.8147 C   0  0  0  0  0  0  0  0  0  0  0  0
   26.9747  -24.1838  -17.3691 N   0  0  0  0  0  0  0  0  0  0  0  0
   27.3420  -25.0467  -16.4049 C   0  0  0  0  0  0  0  0  0  0  0  0
   26.8273  -24.5664  -15.2456 N   0  0  0  0  0  0  0  0  0  0  0  0
   23.9551  -20.5946  -14.2758 C   0  0  0  0  0  0  0  0  0  0  0  0
   24.2254  -19.8889  -13.2773 O   0  0  0  0  0  0  0  0  0  0  0  0
   20.6680  -16.3332  -15.8734 N   0  0  0  0  0  0  0  0  0  0  0  0
   20.3467  -17.5731  -16.5402 C   0  0  0  0  0  0  0  0  0  0  0  0
   19.8539  -17.4506  -17.6764 O   0  0  0  0  0  0  0  0  0  0  0  0
   20.6032  -18.8751  -15.8778 C   0  0  0  0  0  0  0  0  0  0  0  0
   21.2239  -18.7307  -14.5274 C   0  0  0  0  0  0  0  0  0  0  0  0
   21.5548  -20.0086  -13.8280 C   0  0  2  0  0  0  0  0  0  0  0  0
   22.5798  -20.7130  -14.6091 N   0  0  0  0  0  0  0  0  0  0  0  0
   20.3521  -20.8574  -13.7152 C   0  0  0  0  0  0  0  0  0  0  0  0
   19.3471  -20.4548  -12.8258 O   0  0  0  0  0  0  0  0  0  0  0  0
   20.1739  -21.9089  -14.3603 O   0  0  0  0  0  0  0  0  0  0  0  0
  1  2  1  0
  3  2  1  0
  3  4  1  6
  5  3  1  0
  5  6  1  1
  7  5  1  0
  8  7  2  0
  9  7  1  0
 10  9  1  0
 10 11  1  1
 11 12  1  0
 12 13  2  0
 12 16  1  0
 13 14  1  0
 14 15  1  0
 16 15  2  0
 17 18  2  0
 17 10  1  0
 20 19  1  0
 21 20  2  0
 22 20  1  0
 24 23  1  6
 23 22  1  0
 24 25  1  0
 25 17  1  0
 26 24  1  0
 27 26  1  0
 28 26  2  0
M  END
$$$$
