IHQ.pdb
     RDKit          3D

 28 28  0  0  1  0  0  0  0  0999 V2000
   21.3677  -14.3242  -21.1460 C   0  0  0  0  0  0  0  0  0  0  0  0
   22.2647  -13.4650  -20.2800 C   0  0  0  0  0  0  0  0  0  0  0  0
   21.4026  -12.5096  -19.4922 C   0  0  2  0  0  0  0  0  0  0  0  0
   20.5140  -11.7151  -20.4247 C   0  0  0  0  0  0  0  0  0  0  0  0
   22.2126  -11.5298  -18.6884 C   0  0  2  0  0  0  0  0  0  0  0  0
   23.1145  -12.1555  -17.7777 N   0  0  0  0  0  0  0  0  0  0  0  0
   21.3545  -10.5532  -17.9601 C   0  0  0  0  0  0  0  0  0  0  0  0
   20.4896   -9.8694  -18.5915 O   0  0  0  0  0  0  0  0  0  0  0  0
   21.4589  -10.3462  -16.5686 N   0  0  0  0  0  0  0  0  0  0  0  0
   20.6880   -9.3707  -15.8329 C   0  0  1  0  0  0  0  0  0  0  0  0
   19.8557  -10.0115  -14.7512 C   0  0  0  0  0  0  0  0  0  0  0  0
   18.7358  -10.8243  -15.2698 C   0  0  0  0  0  0  0  0  0  0  0  0
   18.7682  -12.1954  -15.4055 C   0  0  0  0  0  0  0  0  0  0  0  0
   17.5815  -12.5869  -15.9096 N   0  0  0  0  0  0  0  0  0  0  0  0
   16.8073  -11.5025  -16.0937 C   0  0  0  0  0  0  0  0  0  0  0  0
   17.5422  -10.4355  -15.6923 N   0  0  0  0  0  0  0  0  0  0  0  0
   21.5526   -8.2898  -15.3505 C   0  0  0  0  0  0  0  0  0  0  0  0
   22.7119   -8.4520  -14.9056 O   0  0  0  0  0  0  0  0  0  0  0  0
   20.8209   -2.2983  -17.0736 N   0  0  0  0  0  0  0  0  0  0  0  0
   21.8777   -2.1954  -16.0950 C   0  0  0  0  0  0  0  0  0  0  0  0
   22.3545   -1.0551  -15.9490 O   0  0  0  0  0  0  0  0  0  0  0  0
   22.3294   -3.3911  -15.3428 C   0  0  0  0  0  0  0  0  0  0  0  0
   21.5672   -4.6255  -15.6966 C   0  0  0  0  0  0  0  0  0  0  0  0
   21.9059   -5.8445  -14.9023 C   0  0  2  0  0  0  0  0  0  0  0  0
   21.0698   -6.9546  -15.3769 N   0  0  0  0  0  0  0  0  0  0  0  0
   21.6456   -5.6103  -13.4680 C   0  0  0  0  0  0  0  0  0  0  0  0
   22.6317   -4.9512  -12.7221 O   0  0  0  0  0  0  0  0  0  0  0  0
   20.6049   -5.9613  -12.8786 O   0  0  0  0  0  0  0  0  0  0  0  0
  1  2  1  0
  3  2  1  0
  3  4  1  6
  5  3  1  0
  5  6  1  1
  7  5  1  0
  8  7  2  0
  9  7  1  0
 10  9  1  0
 10 11  1  1
 11 12  1  0
 12 13  2  0
 12 16  1  0
 13 14  1  0
 14 15  1  0
 16 15  2  0
 17 18  2  0
 17 10  1  0
 20 19  1  0
 21 20  2  0
 22 20  1  0
 24 23  1  6
 23 22  1  0
 24 25  1  0
 25 17  1  0
 26 24  1  0
 27 26  1  0
 28 26  2  0
M  END
$$$$
