IHQ.pdb
     RDKit          3D

 28 28  0  0  1  0  0  0  0  0999 V2000
   17.8379  -14.3058  -21.3353 C   0  0  0  0  0  0  0  0  0  0  0  0
   19.0794  -15.1016  -20.9919 C   0  0  0  0  0  0  0  0  0  0  0  0
   19.8857  -14.3244  -19.9808 C   0  0  2  0  0  0  0  0  0  0  0  0
   20.3937  -13.0372  -20.5936 C   0  0  0  0  0  0  0  0  0  0  0  0
   21.0775  -15.0926  -19.4792 C   0  0  2  0  0  0  0  0  0  0  0  0
   20.7344  -16.3436  -18.8863 N   0  0  0  0  0  0  0  0  0  0  0  0
   21.9046  -14.2935  -18.5316 C   0  0  0  0  0  0  0  0  0  0  0  0
   21.5322  -14.1493  -17.3255 O   0  0  0  0  0  0  0  0  0  0  0  0
   23.1114  -13.6741  -18.9190 N   0  0  0  0  0  0  0  0  0  0  0  0
   23.8832  -12.7973  -18.0689 C   0  0  1  0  0  0  0  0  0  0  0  0
   25.3579  -12.8735  -18.3735 C   0  0  0  0  0  0  0  0  0  0  0  0
   26.1869  -12.0136  -17.5035 C   0  0  0  0  0  0  0  0  0  0  0  0
   25.6946  -11.2574  -16.4617 C   0  0  0  0  0  0  0  0  0  0  0  0
   26.7317  -10.6045  -15.9015 N   0  0  0  0  0  0  0  0  0  0  0  0
   27.8582  -10.9289  -16.5610 C   0  0  0  0  0  0  0  0  0  0  0  0
   27.4928  -11.7951  -17.5387 N   0  0  0  0  0  0  0  0  0  0  0  0
   23.3418  -11.4357  -18.1078 C   0  0  0  0  0  0  0  0  0  0  0  0
   22.9453  -10.8580  -19.1457 O   0  0  0  0  0  0  0  0  0  0  0  0
   20.8082   -8.7035  -13.0701 N   0  0  0  0  0  0  0  0  0  0  0  0
   20.8092   -7.6102  -14.0135 C   0  0  0  0  0  0  0  0  0  0  0  0
   20.2733   -6.5621  -13.6095 O   0  0  0  0  0  0  0  0  0  0  0  0
   21.4168   -7.7725  -15.3567 C   0  0  0  0  0  0  0  0  0  0  0  0
   21.9734   -9.1393  -15.5842 C   0  0  0  0  0  0  0  0  0  0  0  0
   22.6680   -9.3453  -16.8906 C   0  0  2  0  0  0  0  0  0  0  0  0
   23.2477  -10.6946  -16.9001 N   0  0  0  0  0  0  0  0  0  0  0  0
   23.7419   -8.3469  -17.0631 C   0  0  0  0  0  0  0  0  0  0  0  0
   25.0260   -8.6814  -16.6133 O   0  0  0  0  0  0  0  0  0  0  0  0
   23.5791   -7.2258  -17.5831 O   0  0  0  0  0  0  0  0  0  0  0  0
  1  2  1  0
  3  2  1  0
  3  4  1  6
  5  3  1  0
  5  6  1  1
  7  5  1  0
  8  7  2  0
  9  7  1  0
 10  9  1  0
 10 11  1  6
 11 12  1  0
 12 13  2  0
 12 16  1  0
 13 14  1  0
 14 15  1  0
 16 15  2  0
 17 18  2  0
 17 10  1  0
 20 19  1  0
 21 20  2  0
 22 20  1  0
 24 23  1  1
 23 22  1  0
 24 25  1  0
 25 17  1  0
 26 24  1  0
 27 26  1  0
 28 26  2  0
M  END
$$$$
