IHQ.pdb
     RDKit          3D

 28 28  0  0  1  0  0  0  0  0999 V2000
   20.2793   -9.6569    9.1034 C   0  0  0  0  0  0  0  0  0  0  0  0
   20.6345  -10.4545    7.8663 C   0  0  0  0  0  0  0  0  0  0  0  0
   19.5715  -11.5025    7.6469 C   0  0  2  0  0  0  0  0  0  0  0  0
   19.4625  -12.4004    8.8604 C   0  0  0  0  0  0  0  0  0  0  0  0
   19.8591  -12.3763    6.4570 C   0  0  2  0  0  0  0  0  0  0  0  0
   19.8430  -11.6680    5.2190 N   0  0  0  0  0  0  0  0  0  0  0  0
   18.9399  -13.5468    6.3822 C   0  0  0  0  0  0  0  0  0  0  0  0
   18.6344  -14.1859    7.4369 O   0  0  0  0  0  0  0  0  0  0  0  0
   18.3785  -13.9903    5.1664 N   0  0  0  0  0  0  0  0  0  0  0  0
   17.4469  -15.0889    5.0555 C   0  0  1  0  0  0  0  0  0  0  0  0
   16.9810  -15.2899    3.6356 C   0  0  0  0  0  0  0  0  0  0  0  0
   15.9690  -16.3569    3.4905 C   0  0  0  0  0  0  0  0  0  0  0  0
   15.5209  -17.1491    4.5255 C   0  0  0  0  0  0  0  0  0  0  0  0
   14.6116  -18.0070    4.0228 N   0  0  0  0  0  0  0  0  0  0  0  0
   14.4768  -17.7759    2.7045 C   0  0  0  0  0  0  0  0  0  0  0  0
   15.3222  -16.7579    2.4065 N   0  0  0  0  0  0  0  0  0  0  0  0
   18.0016  -16.2977    5.6717 C   0  0  0  0  0  0  0  0  0  0  0  0
   19.1959  -16.6612    5.5737 O   0  0  0  0  0  0  0  0  0  0  0  0
   17.4313  -17.9943   11.3203 N   0  0  0  0  0  0  0  0  0  0  0  0
   18.0177  -19.1972   10.7777 C   0  0  0  0  0  0  0  0  0  0  0  0
   18.4274  -20.0138   11.6228 O   0  0  0  0  0  0  0  0  0  0  0  0
   18.1040  -19.4000    9.3111 C   0  0  0  0  0  0  0  0  0  0  0  0
   17.6321  -18.2183    8.5296 C   0  0  0  0  0  0  0  0  0  0  0  0
   17.6599  -18.3726    7.0440 C   0  0  2  0  0  0  0  0  0  0  0  0
   17.1498  -17.1352    6.4395 N   0  0  0  0  0  0  0  0  0  0  0  0
   16.8120  -19.5083    6.6307 C   0  0  0  0  0  0  0  0  0  0  0  0
   17.4496  -20.6799    6.2015 O   0  0  0  0  0  0  0  0  0  0  0  0
   15.5657  -19.4915    6.6392 O   0  0  0  0  0  0  0  0  0  0  0  0
  1  2  1  0
  3  2  1  0
  3  4  1  1
  5  3  1  0
  5  6  1  6
  7  5  1  0
  8  7  2  0
  9  7  1  0
 10  9  1  0
 10 11  1  6
 11 12  1  0
 12 13  2  0
 12 16  1  0
 13 14  1  0
 14 15  1  0
 16 15  2  0
 17 18  2  0
 17 10  1  0
 20 19  1  0
 21 20  2  0
 22 20  1  0
 24 23  1  1
 23 22  1  0
 24 25  1  0
 25 17  1  0
 26 24  1  0
 27 26  1  0
 28 26  2  0
M  END
$$$$
