IHQ.pdb
     RDKit          3D

 28 28  0  0  1  0  0  0  0  0999 V2000
   34.9147   -7.5213  -14.9591 C   0  0  0  0  0  0  0  0  0  0  0  0
   36.4257   -7.5653  -14.8709 C   0  0  0  0  0  0  0  0  0  0  0  0
   36.8386   -7.1684  -13.4750 C   0  0  2  0  0  0  0  0  0  0  0  0
   36.3846   -5.7560  -13.1759 C   0  0  0  0  0  0  0  0  0  0  0  0
   38.3287   -7.2204  -13.2770 C   0  0  2  0  0  0  0  0  0  0  0  0
   38.9753   -8.1845  -14.1057 N   0  0  0  0  0  0  0  0  0  0  0  0
   38.7000   -7.4479  -11.8519 C   0  0  0  0  0  0  0  0  0  0  0  0
   38.3088   -6.6385  -10.9541 O   0  0  0  0  0  0  0  0  0  0  0  0
   39.4845   -8.5461  -11.4415 N   0  0  0  0  0  0  0  0  0  0  0  0
   39.9195   -8.7701  -10.0821 C   0  0  1  0  0  0  0  0  0  0  0  0
   39.7739  -10.2148   -9.6759 C   0  0  0  0  0  0  0  0  0  0  0  0
   39.0538  -10.4006   -8.3989 C   0  0  0  0  0  0  0  0  0  0  0  0
   38.5174   -9.3736   -7.6525 C   0  0  0  0  0  0  0  0  0  0  0  0
   37.9456   -9.9150   -6.5592 N   0  0  0  0  0  0  0  0  0  0  0  0
   38.1077  -11.2497   -6.5984 C   0  0  0  0  0  0  0  0  0  0  0  0
   38.7912  -11.5184   -7.7388 N   0  0  0  0  0  0  0  0  0  0  0  0
   41.2679   -8.2325   -9.8786 C   0  0  0  0  0  0  0  0  0  0  0  0
   42.1770   -8.2492  -10.7396 O   0  0  0  0  0  0  0  0  0  0  0  0
   42.6087   -5.1067   -4.6167 N   0  0  0  0  0  0  0  0  0  0  0  0
   42.2031   -4.4193   -5.8202 C   0  0  0  0  0  0  0  0  0  0  0  0
   41.7653   -3.2669   -5.6493 O   0  0  0  0  0  0  0  0  0  0  0  0
   42.3183   -5.0806   -7.1427 C   0  0  0  0  0  0  0  0  0  0  0  0
   42.9592   -6.4272   -7.0682 C   0  0  0  0  0  0  0  0  0  0  0  0
   42.9691   -7.2099   -8.3405 C   0  0  2  0  0  0  0  0  0  0  0  0
   41.5963   -7.6453   -8.6280 N   0  0  0  0  0  0  0  0  0  0  0  0
   43.8430   -8.3924   -8.2080 C   0  0  0  0  0  0  0  0  0  0  0  0
   45.1450   -8.3054   -8.7183 O   0  0  0  0  0  0  0  0  0  0  0  0
   43.4966   -9.4628   -7.6715 O   0  0  0  0  0  0  0  0  0  0  0  0
  1  2  1  0
  3  2  1  0
  3  4  1  6
  5  3  1  0
  5  6  1  6
  7  5  1  0
  8  7  2  0
  9  7  1  0
 10  9  1  0
 10 11  1  6
 11 12  1  0
 12 13  2  0
 12 16  1  0
 13 14  1  0
 14 15  1  0
 16 15  2  0
 17 18  2  0
 17 10  1  0
 20 19  1  0
 21 20  2  0
 22 20  1  0
 24 23  1  1
 23 22  1  0
 24 25  1  0
 25 17  1  0
 26 24  1  0
 27 26  1  0
 28 26  2  0
M  END
$$$$
