IHQ.pdb
     RDKit          3D

 28 28  0  0  1  0  0  0  0  0999 V2000
   26.2302  -16.0902  -21.9279 C   0  0  0  0  0  0  0  0  0  0  0  0
   25.6748  -15.6250  -20.5983 C   0  0  0  0  0  0  0  0  0  0  0  0
   25.3369  -16.8376  -19.7664 C   0  0  2  0  0  0  0  0  0  0  0  0
   24.3738  -17.7342  -20.5141 C   0  0  0  0  0  0  0  0  0  0  0  0
   24.6988  -16.4771  -18.4530 C   0  0  2  0  0  0  0  0  0  0  0  0
   25.4910  -15.5910  -17.6645 N   0  0  0  0  0  0  0  0  0  0  0  0
   24.3380  -17.6812  -17.6526 C   0  0  0  0  0  0  0  0  0  0  0  0
   23.6015  -18.5850  -18.1573 O   0  0  0  0  0  0  0  0  0  0  0  0
   24.7862  -17.8705  -16.3285 N   0  0  0  0  0  0  0  0  0  0  0  0
   24.4543  -19.0175  -15.5153 C   0  0  1  0  0  0  0  0  0  0  0  0
   25.5125  -19.2968  -14.4782 C   0  0  0  0  0  0  0  0  0  0  0  0
   25.1545  -20.3863  -13.5462 C   0  0  0  0  0  0  0  0  0  0  0  0
   23.9709  -21.0909  -13.5922 C   0  0  0  0  0  0  0  0  0  0  0  0
   23.9918  -21.9954  -12.5937 N   0  0  0  0  0  0  0  0  0  0  0  0
   25.1524  -21.8783  -11.9240 C   0  0  0  0  0  0  0  0  0  0  0  0
   25.8454  -20.8830  -12.5312 N   0  0  0  0  0  0  0  0  0  0  0  0
   23.1046  -18.8807  -14.9598 C   0  0  0  0  0  0  0  0  0  0  0  0
   22.7137  -17.9087  -14.2739 O   0  0  0  0  0  0  0  0  0  0  0  0
   18.3547  -22.8476  -16.4526 N   0  0  0  0  0  0  0  0  0  0  0  0
   17.7429  -21.9838  -15.4705 C   0  0  0  0  0  0  0  0  0  0  0  0
   16.5469  -22.2254  -15.2250 O   0  0  0  0  0  0  0  0  0  0  0  0
   18.5240  -20.8992  -14.8276 C   0  0  0  0  0  0  0  0  0  0  0  0
   19.9477  -20.8604  -15.2763 C   0  0  0  0  0  0  0  0  0  0  0  0
   20.8055  -19.8302  -14.6171 C   0  0  2  0  0  0  0  0  0  0  0  0
   22.1516  -19.9059  -15.1993 N   0  0  0  0  0  0  0  0  0  0  0  0
   20.8826  -20.0809  -13.1642 C   0  0  0  0  0  0  0  0  0  0  0  0
   19.9881  -19.3946  -12.3324 O   0  0  0  0  0  0  0  0  0  0  0  0
   21.6925  -20.8639  -12.6306 O   0  0  0  0  0  0  0  0  0  0  0  0
  1  2  1  0
  3  2  1  0
  3  4  1  6
  5  3  1  0
  5  6  1  1
  7  5  1  0
  8  7  2  0
  9  7  1  0
 10  9  1  0
 10 11  1  1
 11 12  1  0
 12 13  2  0
 12 16  1  0
 13 14  1  0
 14 15  1  0
 16 15  2  0
 17 18  2  0
 17 10  1  0
 20 19  1  0
 21 20  2  0
 22 20  1  0
 24 23  1  6
 23 22  1  0
 24 25  1  0
 25 17  1  0
 26 24  1  0
 27 26  1  0
 28 26  2  0
M  END
$$$$
