IHQ.pdb
     RDKit          3D

 28 28  0  0  1  0  0  0  0  0999 V2000
   22.2367  -16.4979  -19.6153 C   0  0  0  0  0  0  0  0  0  0  0  0
   23.7377  -16.5855  -19.4366 C   0  0  0  0  0  0  0  0  0  0  0  0
   24.2333  -15.2759  -18.8745 C   0  0  2  0  0  0  0  0  0  0  0  0
   23.8720  -14.1368  -19.8032 C   0  0  0  0  0  0  0  0  0  0  0  0
   25.7255  -15.2559  -18.6869 C   0  0  2  0  0  0  0  0  0  0  0  0
   26.2000  -16.2871  -17.8232 N   0  0  0  0  0  0  0  0  0  0  0  0
   26.2158  -13.9317  -18.2109 C   0  0  0  0  0  0  0  0  0  0  0  0
   26.1028  -13.6126  -16.9863 O   0  0  0  0  0  0  0  0  0  0  0  0
   26.8142  -12.9920  -19.0762 N   0  0  0  0  0  0  0  0  0  0  0  0
   27.2483  -11.6754  -18.6696 C   0  0  1  0  0  0  0  0  0  0  0  0
   28.4804  -11.2334  -19.4180 C   0  0  0  0  0  0  0  0  0  0  0  0
   28.9683   -9.8973  -19.0174 C   0  0  0  0  0  0  0  0  0  0  0  0
   29.7779   -9.6600  -17.9276 C   0  0  0  0  0  0  0  0  0  0  0  0
   30.0137   -8.3346  -17.8713 N   0  0  0  0  0  0  0  0  0  0  0  0
   29.3762   -7.7349  -18.8927 C   0  0  0  0  0  0  0  0  0  0  0  0
   28.7433   -8.7189  -19.5788 N   0  0  0  0  0  0  0  0  0  0  0  0
   26.1377  -10.7217  -18.7450 C   0  0  0  0  0  0  0  0  0  0  0  0
   25.1936  -10.7937  -19.5646 O   0  0  0  0  0  0  0  0  0  0  0  0
   21.3797  -10.6136  -16.6539 N   0  0  0  0  0  0  0  0  0  0  0  0
   21.3250   -9.1976  -16.9315 C   0  0  0  0  0  0  0  0  0  0  0  0
   20.1948   -8.6842  -16.8429 O   0  0  0  0  0  0  0  0  0  0  0  0
   22.5545   -8.4510  -17.2929 C   0  0  0  0  0  0  0  0  0  0  0  0
   23.7539   -9.3307  -17.4249 C   0  0  0  0  0  0  0  0  0  0  0  0
   25.0051   -8.6538  -17.8812 C   0  0  2  0  0  0  0  0  0  0  0  0
   26.1022   -9.6292  -17.8386 N   0  0  0  0  0  0  0  0  0  0  0  0
   25.3237   -7.5155  -16.9966 C   0  0  0  0  0  0  0  0  0  0  0  0
   24.4986   -6.3849  -17.0606 O   0  0  0  0  0  0  0  0  0  0  0  0
   26.2796   -7.4961  -16.1969 O   0  0  0  0  0  0  0  0  0  0  0  0
  1  2  1  0
  3  2  1  0
  3  4  1  6
  5  3  1  0
  5  6  1  1
  7  5  1  0
  8  7  2  0
  9  7  1  0
 10  9  1  0
 10 11  1  6
 11 12  1  0
 12 13  2  0
 12 16  1  0
 13 14  1  0
 14 15  1  0
 16 15  2  0
 17 18  2  0
 17 10  1  0
 20 19  1  0
 21 20  2  0
 22 20  1  0
 24 23  1  1
 23 22  1  0
 24 25  1  0
 25 17  1  0
 26 24  1  0
 27 26  1  0
 28 26  2  0
M  END
$$$$
