IHQ.pdb
     RDKit          3D

 28 28  0  0  1  0  0  0  0  0999 V2000
   17.5072  -15.8330  -19.2828 C   0  0  0  0  0  0  0  0  0  0  0  0
   18.9267  -16.2929  -19.0251 C   0  0  0  0  0  0  0  0  0  0  0  0
   19.6397  -15.2306  -18.2252 C   0  0  2  0  0  0  0  0  0  0  0  0
   19.7348  -13.9487  -19.0240 C   0  0  0  0  0  0  0  0  0  0  0  0
   21.0372  -15.6357  -17.8441 C   0  0  2  0  0  0  0  0  0  0  0  0
   21.0938  -16.8740  -17.1386 N   0  0  0  0  0  0  0  0  0  0  0  0
   21.7378  -14.5766  -17.0644 C   0  0  0  0  0  0  0  0  0  0  0  0
   21.4444  -14.3844  -15.8433 O   0  0  0  0  0  0  0  0  0  0  0  0
   22.7361  -13.7566  -17.6311 N   0  0  0  0  0  0  0  0  0  0  0  0
   23.4102  -12.6923  -16.9242 C   0  0  1  0  0  0  0  0  0  0  0  0
   24.8753  -12.6244  -17.2743 C   0  0  0  0  0  0  0  0  0  0  0  0
   25.6048  -11.5550  -16.5616 C   0  0  0  0  0  0  0  0  0  0  0  0
   26.3623  -11.7535  -15.4275 C   0  0  0  0  0  0  0  0  0  0  0  0
   26.8698  -10.5612  -15.0580 N   0  0  0  0  0  0  0  0  0  0  0  0
   26.4530   -9.6224  -15.9264 C   0  0  0  0  0  0  0  0  0  0  0  0
   25.6784  -10.2617  -16.8380 N   0  0  0  0  0  0  0  0  0  0  0  0
   22.7000  -11.4230  -17.1070 C   0  0  0  0  0  0  0  0  0  0  0  0
   22.1664  -11.0553  -18.1785 O   0  0  0  0  0  0  0  0  0  0  0  0
   18.5029   -9.2580  -17.9726 N   0  0  0  0  0  0  0  0  0  0  0  0
   18.6218   -8.1430  -17.0628 C   0  0  0  0  0  0  0  0  0  0  0  0
   17.7961   -7.2281  -17.2363 O   0  0  0  0  0  0  0  0  0  0  0  0
   19.6694   -8.1334  -16.0129 C   0  0  0  0  0  0  0  0  0  0  0  0
   20.4762   -9.3895  -15.9820 C   0  0  0  0  0  0  0  0  0  0  0  0
   21.9480   -9.2174  -16.1717 C   0  0  2  0  0  0  0  0  0  0  0  0
   22.5928  -10.5270  -16.0106 N   0  0  0  0  0  0  0  0  0  0  0  0
   22.4873   -8.2765  -15.1699 C   0  0  0  0  0  0  0  0  0  0  0  0
   22.5957   -6.9269  -15.5302 O   0  0  0  0  0  0  0  0  0  0  0  0
   22.8522   -8.6061  -14.0246 O   0  0  0  0  0  0  0  0  0  0  0  0
  1  2  1  0
  3  2  1  0
  3  4  1  6
  5  3  1  0
  5  6  1  1
  7  5  1  0
  8  7  2  0
  9  7  1  0
 10  9  1  0
 10 11  1  6
 11 12  1  0
 12 13  2  0
 12 16  1  0
 13 14  1  0
 14 15  1  0
 16 15  2  0
 17 18  2  0
 17 10  1  0
 20 19  1  0
 21 20  2  0
 22 20  1  0
 24 23  1  1
 23 22  1  0
 24 25  1  0
 25 17  1  0
 26 24  1  0
 27 26  1  0
 28 26  2  0
M  END
$$$$
