IHQ.pdb
     RDKit          3D

 28 28  0  0  1  0  0  0  0  0999 V2000
   10.9502  -12.2755  -15.0369 C   0  0  0  0  0  0  0  0  0  0  0  0
   11.7624  -13.4513  -15.5375 C   0  0  0  0  0  0  0  0  0  0  0  0
   13.2267  -13.0984  -15.4484 C   0  0  2  0  0  0  0  0  0  0  0  0
   13.5412  -11.9326  -16.3608 C   0  0  0  0  0  0  0  0  0  0  0  0
   14.1210  -14.2413  -15.8434 C   0  0  2  0  0  0  0  0  0  0  0  0
   13.9863  -15.3822  -14.9980 N   0  0  0  0  0  0  0  0  0  0  0  0
   15.5527  -13.8354  -15.9211 C   0  0  0  0  0  0  0  0  0  0  0  0
   16.1995  -13.5726  -14.8595 O   0  0  0  0  0  0  0  0  0  0  0  0
   16.2417  -13.7262  -17.1472 N   0  0  0  0  0  0  0  0  0  0  0  0
   17.6009  -13.2538  -17.2753 C   0  0  1  0  0  0  0  0  0  0  0  0
   18.2826  -13.8254  -18.4928 C   0  0  0  0  0  0  0  0  0  0  0  0
   19.7017  -13.4320  -18.6155 C   0  0  0  0  0  0  0  0  0  0  0  0
   20.3751  -12.6552  -17.6977 C   0  0  0  0  0  0  0  0  0  0  0  0
   21.6387  -12.4996  -18.1389 N   0  0  0  0  0  0  0  0  0  0  0  0
   21.7768  -13.1555  -19.3051 C   0  0  0  0  0  0  0  0  0  0  0  0
   20.5718  -13.7179  -19.5723 N   0  0  0  0  0  0  0  0  0  0  0  0
   17.6453  -11.7902  -17.2063 C   0  0  0  0  0  0  0  0  0  0  0  0
   16.7791  -11.0293  -17.6949 O   0  0  0  0  0  0  0  0  0  0  0  0
   21.1695   -8.7541  -12.9579 N   0  0  0  0  0  0  0  0  0  0  0  0
   20.7312   -7.6641  -13.7976 C   0  0  0  0  0  0  0  0  0  0  0  0
   21.1232   -6.5360  -13.4476 O   0  0  0  0  0  0  0  0  0  0  0  0
   19.8754   -7.9200  -14.9815 C   0  0  0  0  0  0  0  0  0  0  0  0
   19.5870   -9.3701  -15.1909 C   0  0  0  0  0  0  0  0  0  0  0  0
   18.7869   -9.7010  -16.4082 C   0  0  2  0  0  0  0  0  0  0  0  0
   18.7341  -11.1622  -16.5456 N   0  0  0  0  0  0  0  0  0  0  0  0
   19.4154   -9.1160  -17.6093 C   0  0  0  0  0  0  0  0  0  0  0  0
   18.9414   -7.8766  -18.0591 O   0  0  0  0  0  0  0  0  0  0  0  0
   20.3404   -9.6541  -18.2483 O   0  0  0  0  0  0  0  0  0  0  0  0
  1  2  1  0
  3  2  1  0
  3  4  1  6
  5  3  1  0
  5  6  1  1
  7  5  1  0
  8  7  2  0
  9  7  1  0
 10  9  1  0
 10 11  1  6
 11 12  1  0
 12 13  2  0
 12 16  1  0
 13 14  1  0
 14 15  1  0
 16 15  2  0
 17 18  2  0
 17 10  1  0
 20 19  1  0
 21 20  2  0
 22 20  1  0
 24 23  1  1
 23 22  1  0
 24 25  1  0
 25 17  1  0
 26 24  1  0
 27 26  1  0
 28 26  2  0
M  END
$$$$
