WTK.pdb
     RDKit          3D

 31 32  0  0  1  0  0  0  0  0999 V2000
    6.1776  -18.2354   24.6403 N   0  0  0  0  0  0  0  0  0  0  0  0
    6.9028  -16.9844   24.2943 C   0  0  1  0  0  0  0  0  0  0  0  0
    7.3949  -16.4396   25.5819 C   0  0  0  0  0  0  0  0  0  0  0  0
    6.7367  -15.2509   26.0997 C   0  0  0  0  0  0  0  0  0  0  0  0
    5.3905  -15.1168   26.3746 C   0  0  0  0  0  0  0  0  0  0  0  0
    5.2205  -13.8591   26.8131 N   0  0  0  0  0  0  0  0  0  0  0  0
    6.3833  -13.2054   26.8266 C   0  0  0  0  0  0  0  0  0  0  0  0
    6.7567  -11.9257   27.1986 C   0  0  0  0  0  0  0  0  0  0  0  0
    8.0853  -11.5444   27.1144 C   0  0  0  0  0  0  0  0  0  0  0  0
    9.0710  -12.4126   26.6630 C   0  0  0  0  0  0  0  0  0  0  0  0
    8.6956  -13.6804   26.2943 C   0  0  0  0  0  0  0  0  0  0  0  0
    7.3689  -14.0546   26.3806 C   0  0  0  0  0  0  0  0  0  0  0  0
    7.8937  -17.3391   23.2771 C   0  0  0  0  0  0  0  0  0  0  0  0
    8.2241  -18.5617   23.0959 O   0  0  0  0  0  0  0  0  0  0  0  0
    7.6310  -15.7075   19.9352 C   0  0  0  0  0  0  0  0  0  0  0  0
    9.0776  -16.0343   20.0753 C   0  0  1  0  0  0  0  0  0  0  0  0
    9.8539  -14.8650   20.1772 O   0  0  0  0  0  0  0  0  0  0  0  0
    9.4087  -16.8916   21.2980 C   0  0  2  0  0  0  0  0  0  0  0  0
    8.5601  -16.4119   22.4142 N   0  0  0  0  0  0  0  0  0  0  0  0
   10.8014  -16.7188   21.6870 C   0  0  0  0  0  0  0  0  0  0  0  0
   11.1131  -15.7129   22.4264 O   0  0  0  0  0  0  0  0  0  0  0  0
   11.8665  -17.5760   21.3218 N   0  0  0  0  0  0  0  0  0  0  0  0
   13.2451  -17.2307   21.6880 C   0  0  1  0  0  0  0  0  0  0  0  0
   13.6271  -15.9233   21.0695 C   0  0  0  0  0  0  0  0  0  0  0  0
   15.0539  -15.5791   21.3481 C   0  0  0  0  0  0  0  0  0  0  0  0
   15.6809  -14.7650   20.2281 C   0  0  0  0  0  0  0  0  0  0  0  0
   17.1280  -14.4390   20.5577 C   0  0  0  0  0  0  0  0  0  0  0  0
   17.6846  -13.6072   19.5138 N   0  0  0  0  0  0  0  0  0  0  0  0
   13.3394  -17.1505   23.1598 C   0  0  0  0  0  0  0  0  0  0  0  0
   12.6811  -16.2755   23.8029 O   0  0  0  0  0  0  0  0  0  0  0  0
   14.1194  -17.9903   23.9280 O   0  0  0  0  0  0  0  0  0  0  0  0
  2  1  1  1
  3  2  1  0
  4  5  2  0
  4  3  1  0
  6  5  1  0
  7 12  2  0
  7  6  1  0
  8  7  1  0
  9 10  1  0
  9  8  2  0
 10 11  2  0
 11 12  1  0
 12  4  1  0
 13 14  2  0
 13  2  1  0
 16 15  1  1
 16 18  1  0
 17 16  1  0
 18 19  1  1
 19 13  1  0
 20 18  1  0
 21 20  2  0
 22 20  1  0
 23 29  1  0
 23 22  1  0
 23 24  1  6
 25 24  1  0
 26 27  1  0
 26 25  1  0
 27 28  1  0
 29 31  1  0
 30 29  2  0
M  END
$$$$
