WTK.pdb
     RDKit          3D

 31 32  0  0  1  0  0  0  0  0999 V2000
    5.9417  -17.2976   24.1154 N   0  0  0  0  0  0  0  0  0  0  0  0
    6.8055  -16.1639   23.6918 C   0  0  1  0  0  0  0  0  0  0  0  0
    7.6778  -15.8714   24.8538 C   0  0  0  0  0  0  0  0  0  0  0  0
    7.1054  -15.0919   25.9397 C   0  0  0  0  0  0  0  0  0  0  0  0
    6.2320  -15.5531   26.9042 C   0  0  0  0  0  0  0  0  0  0  0  0
    5.9494  -14.5005   27.6886 N   0  0  0  0  0  0  0  0  0  0  0  0
    6.5973  -13.4134   27.2669 C   0  0  0  0  0  0  0  0  0  0  0  0
    6.6683  -12.1071   27.7186 C   0  0  0  0  0  0  0  0  0  0  0  0
    7.4708  -11.1926   27.0571 C   0  0  0  0  0  0  0  0  0  0  0  0
    8.2174  -11.5443   25.9400 C   0  0  0  0  0  0  0  0  0  0  0  0
    8.1429  -12.8408   25.4953 C   0  0  0  0  0  0  0  0  0  0  0  0
    7.3408  -13.7481   26.1594 C   0  0  0  0  0  0  0  0  0  0  0  0
    7.4457  -16.5669   22.4388 C   0  0  0  0  0  0  0  0  0  0  0  0
    7.6876  -17.8013   22.2049 O   0  0  0  0  0  0  0  0  0  0  0  0
    7.1682  -14.4876   18.9865 C   0  0  0  0  0  0  0  0  0  0  0  0
    8.5169  -15.1027   19.1329 C   0  0  1  0  0  0  0  0  0  0  0  0
    9.4852  -14.1319   19.4492 O   0  0  0  0  0  0  0  0  0  0  0  0
    8.5989  -16.1774   20.2183 C   0  0  2  0  0  0  0  0  0  0  0  0
    7.8427  -15.6771   21.3904 N   0  0  0  0  0  0  0  0  0  0  0  0
    9.9793  -16.3885   20.6317 C   0  0  0  0  0  0  0  0  0  0  0  0
   10.4634  -15.6426   21.5617 O   0  0  0  0  0  0  0  0  0  0  0  0
   10.8553  -17.3620   20.0959 N   0  0  0  0  0  0  0  0  0  0  0  0
   12.1657  -17.5910   20.7159 C   0  0  1  0  0  0  0  0  0  0  0  0
   12.2374  -18.9815   21.2629 C   0  0  0  0  0  0  0  0  0  0  0  0
   13.5987  -19.2944   21.7928 C   0  0  0  0  0  0  0  0  0  0  0  0
   13.7034  -20.7199   22.3099 C   0  0  0  0  0  0  0  0  0  0  0  0
   15.0816  -20.9684   22.8998 C   0  0  0  0  0  0  0  0  0  0  0  0
   15.0879  -22.2382   23.5918 N   0  0  0  0  0  0  0  0  0  0  0  0
   13.2153  -17.3839   19.6978 C   0  0  0  0  0  0  0  0  0  0  0  0
   14.4423  -17.3860   20.0248 O   0  0  0  0  0  0  0  0  0  0  0  0
   12.9582  -17.1815   18.3573 O   0  0  0  0  0  0  0  0  0  0  0  0
  2  1  1  1
  3  2  1  0
  4  5  2  0
  4  3  1  0
  6  5  1  0
  7 12  2  0
  7  6  1  0
  8  7  1  0
  9 10  1  0
  9  8  2  0
 10 11  2  0
 11 12  1  0
 12  4  1  0
 13 14  2  0
 13  2  1  0
 16 15  1  1
 16 18  1  0
 17 16  1  0
 18 19  1  1
 19 13  1  0
 20 18  1  0
 21 20  2  0
 22 20  1  0
 23 29  1  0
 23 22  1  0
 23 24  1  6
 25 24  1  0
 26 27  1  0
 26 25  1  0
 27 28  1  0
 29 31  1  0
 30 29  2  0
M  END
$$$$
