WTK.pdb
     RDKit          3D

 31 32  0  0  1  0  0  0  0  0999 V2000
    6.2749  -17.8340   24.8777 N   0  0  0  0  0  0  0  0  0  0  0  0
    6.9847  -16.6698   24.2848 C   0  0  1  0  0  0  0  0  0  0  0  0
    7.6768  -16.0067   25.4154 C   0  0  0  0  0  0  0  0  0  0  0  0
    6.9694  -14.9334   26.0950 C   0  0  0  0  0  0  0  0  0  0  0  0
    6.0147  -15.0805   27.0814 C   0  0  0  0  0  0  0  0  0  0  0  0
    5.6184  -13.8399   27.4080 N   0  0  0  0  0  0  0  0  0  0  0  0
    6.2721  -12.9317   26.6817 C   0  0  0  0  0  0  0  0  0  0  0  0
    6.2540  -11.5485   26.6385 C   0  0  0  0  0  0  0  0  0  0  0  0
    7.0920  -10.8761   25.7649 C   0  0  0  0  0  0  0  0  0  0  0  0
    7.9623  -11.5497   24.9177 C   0  0  0  0  0  0  0  0  0  0  0  0
    7.9759  -12.9215   24.9635 C   0  0  0  0  0  0  0  0  0  0  0  0
    7.1378  -13.5863   25.8371 C   0  0  0  0  0  0  0  0  0  0  0  0
    7.8048  -17.1893   23.1894 C   0  0  0  0  0  0  0  0  0  0  0  0
    8.1270  -18.4270   23.1545 O   0  0  0  0  0  0  0  0  0  0  0  0
    7.4004  -16.1253   19.3957 C   0  0  0  0  0  0  0  0  0  0  0  0
    8.8438  -16.2735   19.7326 C   0  0  1  0  0  0  0  0  0  0  0  0
    9.4605  -15.0178   19.8838 O   0  0  0  0  0  0  0  0  0  0  0  0
    9.1074  -17.0526   21.0222 C   0  0  2  0  0  0  0  0  0  0  0  0
    8.3028  -16.4170   22.0921 N   0  0  0  0  0  0  0  0  0  0  0  0
   10.5105  -16.9615   21.4019 C   0  0  0  0  0  0  0  0  0  0  0  0
   10.9549  -15.8398   21.8491 O   0  0  0  0  0  0  0  0  0  0  0  0
   11.4499  -18.0170   21.3263 N   0  0  0  0  0  0  0  0  0  0  0  0
   12.8401  -17.7934   21.7402 C   0  0  1  0  0  0  0  0  0  0  0  0
   13.4065  -19.0459   22.3302 C   0  0  0  0  0  0  0  0  0  0  0  0
   13.4682  -18.9725   23.8211 C   0  0  0  0  0  0  0  0  0  0  0  0
   12.5573  -19.9906   24.4875 C   0  0  0  0  0  0  0  0  0  0  0  0
   12.5247  -19.7669   25.9902 C   0  0  0  0  0  0  0  0  0  0  0  0
   11.5924  -20.6923   26.5952 N   0  0  0  0  0  0  0  0  0  0  0  0
   13.6259  -17.3795   20.5602 C   0  0  0  0  0  0  0  0  0  0  0  0
   13.1151  -17.4163   19.3982 O   0  0  0  0  0  0  0  0  0  0  0  0
   14.9300  -16.9330   20.6218 O   0  0  0  0  0  0  0  0  0  0  0  0
  2  1  1  1
  3  2  1  0
  4  5  2  0
  4  3  1  0
  6  5  1  0
  7 12  2  0
  7  6  1  0
  8  7  1  0
  9 10  1  0
  9  8  2  0
 10 11  2  0
 11 12  1  0
 12  4  1  0
 13 14  2  0
 13  2  1  0
 16 15  1  1
 16 18  1  0
 17 16  1  0
 18 19  1  1
 19 13  1  0
 20 18  1  0
 21 20  2  0
 22 20  1  0
 23 29  1  0
 23 22  1  0
 23 24  1  6
 25 24  1  0
 26 27  1  0
 26 25  1  0
 27 28  1  0
 29 31  1  0
 30 29  2  0
M  END
$$$$
