WTK.pdb
     RDKit          3D

 31 32  0  0  1  0  0  0  0  0999 V2000
    7.0378  -16.9874   23.3903 N   0  0  0  0  0  0  0  0  0  0  0  0
    8.2697  -16.1696   23.5468 C   0  0  1  0  0  0  0  0  0  0  0  0
    8.3775  -15.8847   24.9974 C   0  0  0  0  0  0  0  0  0  0  0  0
    7.3322  -15.0719   25.5982 C   0  0  0  0  0  0  0  0  0  0  0  0
    6.1705  -15.5362   26.1821 C   0  0  0  0  0  0  0  0  0  0  0  0
    5.4928  -14.4493   26.5851 N   0  0  0  0  0  0  0  0  0  0  0  0
    6.1669  -13.3378   26.2855 C   0  0  0  0  0  0  0  0  0  0  0  0
    5.9291  -11.9902   26.4921 C   0  0  0  0  0  0  0  0  0  0  0  0
    6.8595  -11.0546   26.0716 C   0  0  0  0  0  0  0  0  0  0  0  0
    8.0397  -11.4255   25.4402 C   0  0  0  0  0  0  0  0  0  0  0  0
    8.2705  -12.7632   25.2366 C   0  0  0  0  0  0  0  0  0  0  0  0
    7.3387  -13.6914   25.6585 C   0  0  0  0  0  0  0  0  0  0  0  0
    9.3560  -16.9184   22.9132 C   0  0  0  0  0  0  0  0  0  0  0  0
    9.0953  -17.8783   22.1085 O   0  0  0  0  0  0  0  0  0  0  0  0
   10.1725  -16.9528   20.3127 C   0  0  0  0  0  0  0  0  0  0  0  0
   11.5642  -16.8084   20.8238 C   0  0  1  0  0  0  0  0  0  0  0  0
   11.9659  -15.4598   20.8264 O   0  0  0  0  0  0  0  0  0  0  0  0
   11.7641  -17.3309   22.2474 C   0  0  2  0  0  0  0  0  0  0  0  0
   10.7523  -16.6695   23.1047 N   0  0  0  0  0  0  0  0  0  0  0  0
   13.0826  -16.9692   22.7490 C   0  0  0  0  0  0  0  0  0  0  0  0
   13.3364  -15.7276   22.9719 O   0  0  0  0  0  0  0  0  0  0  0  0
   14.1324  -17.8776   23.0234 N   0  0  0  0  0  0  0  0  0  0  0  0
   15.1183  -17.5669   24.0652 C   0  0  1  0  0  0  0  0  0  0  0  0
   15.2374  -18.7154   25.0163 C   0  0  0  0  0  0  0  0  0  0  0  0
   13.9539  -18.9665   25.7386 C   0  0  0  0  0  0  0  0  0  0  0  0
   13.9847  -20.2589   26.5382 C   0  0  0  0  0  0  0  0  0  0  0  0
   12.6469  -20.4900   27.2208 C   0  0  0  0  0  0  0  0  0  0  0  0
   12.6517  -21.7849   27.8649 N   0  0  0  0  0  0  0  0  0  0  0  0
   16.4195  -17.2951   23.4215 C   0  0  0  0  0  0  0  0  0  0  0  0
   17.4312  -16.9749   24.1189 O   0  0  0  0  0  0  0  0  0  0  0  0
   16.6348  -17.3667   22.0605 O   0  0  0  0  0  0  0  0  0  0  0  0
  2  1  1  1
  3  2  1  0
  4  5  2  0
  4  3  1  0
  6  5  1  0
  7 12  2  0
  7  6  1  0
  8  7  1  0
  9 10  1  0
  9  8  2  0
 10 11  2  0
 11 12  1  0
 12  4  1  0
 13 14  2  0
 13  2  1  0
 16 15  1  1
 16 18  1  0
 17 16  1  0
 18 19  1  1
 19 13  1  0
 20 18  1  0
 21 20  2  0
 22 20  1  0
 23 29  1  0
 23 22  1  0
 23 24  1  1
 25 24  1  0
 26 27  1  0
 26 25  1  0
 27 28  1  0
 29 31  1  0
 30 29  2  0
M  END
$$$$
