WTK.pdb
     RDKit          3D

 31 32  0  0  1  0  0  0  0  0999 V2000
    6.0095  -16.9171   24.0794 N   0  0  0  0  0  0  0  0  0  0  0  0
    6.8820  -15.7820   23.6783 C   0  0  1  0  0  0  0  0  0  0  0  0
    7.8373  -15.5988   24.7967 C   0  0  0  0  0  0  0  0  0  0  0  0
    7.3435  -14.9423   25.9965 C   0  0  0  0  0  0  0  0  0  0  0  0
    6.9345  -15.5649   27.1589 C   0  0  0  0  0  0  0  0  0  0  0  0
    6.5434  -14.5863   27.9910 N   0  0  0  0  0  0  0  0  0  0  0  0
    6.6866  -13.3929   27.4125 C   0  0  0  0  0  0  0  0  0  0  0  0
    6.4546  -12.0938   27.8298 C   0  0  0  0  0  0  0  0  0  0  0  0
    6.7328  -11.0374   26.9788 C   0  0  0  0  0  0  0  0  0  0  0  0
    7.2433  -11.2375   25.7027 C   0  0  0  0  0  0  0  0  0  0  0  0
    7.4707  -12.5277   25.2930 C   0  0  0  0  0  0  0  0  0  0  0  0
    7.1913  -13.5771   26.1465 C   0  0  0  0  0  0  0  0  0  0  0  0
    7.4257  -16.1133   22.3604 C   0  0  0  0  0  0  0  0  0  0  0  0
    7.4564  -17.3285   21.9612 O   0  0  0  0  0  0  0  0  0  0  0  0
    7.3094  -13.5721   19.2092 C   0  0  0  0  0  0  0  0  0  0  0  0
    8.5513  -14.3946   19.2028 C   0  0  1  0  0  0  0  0  0  0  0  0
    9.6644  -13.6351   19.6081 O   0  0  0  0  0  0  0  0  0  0  0  0
    8.4949  -15.6181   20.1190 C   0  0  2  0  0  0  0  0  0  0  0  0
    7.9463  -15.1683   21.4200 N   0  0  0  0  0  0  0  0  0  0  0  0
    9.8308  -16.1479   20.3545 C   0  0  0  0  0  0  0  0  0  0  0  0
   10.4111  -15.8786   21.4710 O   0  0  0  0  0  0  0  0  0  0  0  0
   10.5643  -16.9524   19.4505 N   0  0  0  0  0  0  0  0  0  0  0  0
   11.7826  -17.6368   19.8991 C   0  0  1  0  0  0  0  0  0  0  0  0
   11.6972  -19.0958   19.5803 C   0  0  0  0  0  0  0  0  0  0  0  0
   12.9498  -19.8160   19.9603 C   0  0  0  0  0  0  0  0  0  0  0  0
   12.9247  -21.2774   19.5433 C   0  0  0  0  0  0  0  0  0  0  0  0
   14.1688  -21.9916   20.0446 C   0  0  0  0  0  0  0  0  0  0  0  0
   14.1349  -23.3739   19.6208 N   0  0  0  0  0  0  0  0  0  0  0  0
   12.9455  -17.0292   19.2210 C   0  0  0  0  0  0  0  0  0  0  0  0
   12.8310  -16.5415   18.0541 O   0  0  0  0  0  0  0  0  0  0  0  0
   14.2040  -16.9426   19.7802 O   0  0  0  0  0  0  0  0  0  0  0  0
  2  1  1  1
  3  2  1  0
  4  5  2  0
  4  3  1  0
  6  5  1  0
  7 12  2  0
  7  6  1  0
  8  7  1  0
  9 10  1  0
  9  8  2  0
 10 11  2  0
 11 12  1  0
 12  4  1  0
 13 14  2  0
 13  2  1  0
 16 15  1  1
 16 18  1  0
 17 16  1  0
 18 19  1  1
 19 13  1  0
 20 18  1  0
 21 20  2  0
 22 20  1  0
 23 29  1  0
 23 22  1  0
 23 24  1  6
 25 24  1  0
 26 27  1  0
 26 25  1  0
 27 28  1  0
 29 31  1  0
 30 29  2  0
M  END
$$$$
