WTK.pdb
     RDKit          3D

 31 32  0  0  1  0  0  0  0  0999 V2000
    6.4664  -17.6971   24.6693 N   0  0  0  0  0  0  0  0  0  0  0  0
    6.9883  -16.4715   24.0088 C   0  0  1  0  0  0  0  0  0  0  0  0
    7.7548  -15.7513   25.0532 C   0  0  0  0  0  0  0  0  0  0  0  0
    7.0165  -14.8462   25.9192 C   0  0  0  0  0  0  0  0  0  0  0  0
    6.0495  -15.2019   26.8382 C   0  0  0  0  0  0  0  0  0  0  0  0
    5.6245  -14.0576   27.3976 N   0  0  0  0  0  0  0  0  0  0  0  0
    6.2721  -13.0128   26.8793 C   0  0  0  0  0  0  0  0  0  0  0  0
    6.2283  -11.6492   27.1121 C   0  0  0  0  0  0  0  0  0  0  0  0
    7.0669  -10.8031   26.4060 C   0  0  0  0  0  0  0  0  0  0  0  0
    7.9631  -11.2806   25.4584 C   0  0  0  0  0  0  0  0  0  0  0  0
    8.0021  -12.6337   25.2304 C   0  0  0  0  0  0  0  0  0  0  0  0
    7.1632  -13.4723   25.9380 C   0  0  0  0  0  0  0  0  0  0  0  0
    7.7072  -16.9111   22.8120 C   0  0  0  0  0  0  0  0  0  0  0  0
    8.0758  -18.1303   22.6913 O   0  0  0  0  0  0  0  0  0  0  0  0
    7.2852  -15.1700   19.2598 C   0  0  0  0  0  0  0  0  0  0  0  0
    8.6792  -15.6776   19.3935 C   0  0  1  0  0  0  0  0  0  0  0  0
    9.5954  -14.6167   19.5170 O   0  0  0  0  0  0  0  0  0  0  0  0
    8.8979  -16.5919   20.6001 C   0  0  2  0  0  0  0  0  0  0  0  0
    8.0516  -16.0761   21.7018 N   0  0  0  0  0  0  0  0  0  0  0  0
   10.2855  -16.5427   21.0396 C   0  0  0  0  0  0  0  0  0  0  0  0
   10.8606  -15.3953   21.1327 O   0  0  0  0  0  0  0  0  0  0  0  0
   11.0760  -17.6645   21.3846 N   0  0  0  0  0  0  0  0  0  0  0  0
   12.4556  -17.4756   21.8482 C   0  0  1  0  0  0  0  0  0  0  0  0
   12.8083  -18.5298   22.8491 C   0  0  0  0  0  0  0  0  0  0  0  0
   11.9421  -18.4469   24.0635 C   0  0  0  0  0  0  0  0  0  0  0  0
   12.1460  -19.6268   24.9998 C   0  0  0  0  0  0  0  0  0  0  0  0
   11.2381  -19.5026   26.2121 C   0  0  0  0  0  0  0  0  0  0  0  0
   11.2745  -20.7340   26.9697 N   0  0  0  0  0  0  0  0  0  0  0  0
   13.3616  -17.5478   20.6840 C   0  0  0  0  0  0  0  0  0  0  0  0
   14.5958  -17.2759   20.8077 O   0  0  0  0  0  0  0  0  0  0  0  0
   12.9566  -17.9061   19.4145 O   0  0  0  0  0  0  0  0  0  0  0  0
  2  1  1  1
  3  2  1  0
  4  5  2  0
  4  3  1  0
  6  5  1  0
  7 12  2  0
  7  6  1  0
  8  7  1  0
  9 10  1  0
  9  8  2  0
 10 11  2  0
 11 12  1  0
 12  4  1  0
 13 14  2  0
 13  2  1  0
 16 15  1  1
 16 18  1  0
 17 16  1  0
 18 19  1  1
 19 13  1  0
 20 18  1  0
 21 20  2  0
 22 20  1  0
 23 29  1  0
 23 22  1  0
 23 24  1  1
 25 24  1  0
 26 27  1  0
 26 25  1  0
 27 28  1  0
 29 31  1  0
 30 29  2  0
M  END
$$$$
