WTK.pdb
     RDKit          3D

 31 32  0  0  1  0  0  0  0  0999 V2000
    6.0529  -17.4265   24.2038 N   0  0  0  0  0  0  0  0  0  0  0  0
    7.0858  -16.4816   23.7026 C   0  0  1  0  0  0  0  0  0  0  0  0
    7.8243  -16.0244   24.9036 C   0  0  0  0  0  0  0  0  0  0  0  0
    7.1408  -15.1042   25.7983 C   0  0  0  0  0  0  0  0  0  0  0  0
    6.2195  -15.4419   26.7694 C   0  0  0  0  0  0  0  0  0  0  0  0
    5.8352  -14.2884   27.3393 N   0  0  0  0  0  0  0  0  0  0  0  0
    6.4650  -13.2549   26.7784 C   0  0  0  0  0  0  0  0  0  0  0  0
    6.4466  -11.8890   27.0002 C   0  0  0  0  0  0  0  0  0  0  0  0
    7.2554  -11.0577   26.2437 C   0  0  0  0  0  0  0  0  0  0  0  0
    8.0965  -11.5527   25.2554 C   0  0  0  0  0  0  0  0  0  0  0  0
    8.1106  -12.9080   25.0384 C   0  0  0  0  0  0  0  0  0  0  0  0
    7.3016  -13.7317   25.7964 C   0  0  0  0  0  0  0  0  0  0  0  0
    7.8369  -17.1897   22.6649 C   0  0  0  0  0  0  0  0  0  0  0  0
    7.9732  -18.4607   22.7197 O   0  0  0  0  0  0  0  0  0  0  0  0
    8.4997  -16.2651   18.7114 C   0  0  0  0  0  0  0  0  0  0  0  0
    9.7512  -16.5141   19.4801 C   0  0  1  0  0  0  0  0  0  0  0  0
   10.3925  -15.3057   19.8097 O   0  0  0  0  0  0  0  0  0  0  0  0
    9.5384  -17.2725   20.7913 C   0  0  2  0  0  0  0  0  0  0  0  0
    8.4603  -16.5761   21.5321 N   0  0  0  0  0  0  0  0  0  0  0  0
   10.7422  -17.2345   21.6101 C   0  0  0  0  0  0  0  0  0  0  0  0
   10.8530  -16.3097   22.4979 O   0  0  0  0  0  0  0  0  0  0  0  0
   11.8234  -18.1430   21.5199 N   0  0  0  0  0  0  0  0  0  0  0  0
   12.9399  -18.0515   22.4681 C   0  0  1  0  0  0  0  0  0  0  0  0
   13.0193  -19.3005   23.2875 C   0  0  0  0  0  0  0  0  0  0  0  0
   14.2344  -19.3115   24.1568 C   0  0  0  0  0  0  0  0  0  0  0  0
   14.3492  -20.5890   24.9724 C   0  0  0  0  0  0  0  0  0  0  0  0
   15.5346  -20.5066   25.9196 C   0  0  0  0  0  0  0  0  0  0  0  0
   15.4934  -21.6201   26.8415 N   0  0  0  0  0  0  0  0  0  0  0  0
   14.1916  -17.8533   21.7097 C   0  0  0  0  0  0  0  0  0  0  0  0
   14.2293  -18.0645   20.4581 O   0  0  0  0  0  0  0  0  0  0  0  0
   15.3777  -17.4354   22.2776 O   0  0  0  0  0  0  0  0  0  0  0  0
  2  1  1  1
  3  2  1  0
  4  5  2  0
  4  3  1  0
  6  5  1  0
  7 12  2  0
  7  6  1  0
  8  7  1  0
  9 10  1  0
  9  8  2  0
 10 11  2  0
 11 12  1  0
 12  4  1  0
 13 14  2  0
 13  2  1  0
 16 15  1  1
 16 18  1  0
 17 16  1  0
 18 19  1  1
 19 13  1  0
 20 18  1  0
 21 20  2  0
 22 20  1  0
 23 29  1  0
 23 22  1  0
 23 24  1  6
 25 24  1  0
 26 27  1  0
 26 25  1  0
 27 28  1  0
 29 31  1  0
 30 29  2  0
M  END
$$$$
