WTK.pdb
     RDKit          3D

 31 32  0  0  1  0  0  0  0  0999 V2000
    6.2778  -17.6364   24.2327 N   0  0  0  0  0  0  0  0  0  0  0  0
    7.1145  -16.5785   23.6069 C   0  0  1  0  0  0  0  0  0  0  0  0
    7.7917  -15.8890   24.7307 C   0  0  0  0  0  0  0  0  0  0  0  0
    6.9998  -14.9573   25.5176 C   0  0  0  0  0  0  0  0  0  0  0  0
    5.9327  -15.2779   26.3328 C   0  0  0  0  0  0  0  0  0  0  0  0
    5.4916  -14.1184   26.8467 N   0  0  0  0  0  0  0  0  0  0  0  0
    6.2235  -13.0974   26.3981 C   0  0  0  0  0  0  0  0  0  0  0  0
    6.2021  -11.7325   26.6262 C   0  0  0  0  0  0  0  0  0  0  0  0
    7.1364  -10.9169   26.0100 C   0  0  0  0  0  0  0  0  0  0  0  0
    8.1079  -11.4268   25.1585 C   0  0  0  0  0  0  0  0  0  0  0  0
    8.1244  -12.7810   24.9346 C   0  0  0  0  0  0  0  0  0  0  0  0
    7.1900  -13.5891   25.5522 C   0  0  0  0  0  0  0  0  0  0  0  0
    7.9515  -17.2406   22.6052 C   0  0  0  0  0  0  0  0  0  0  0  0
    8.2768  -18.4699   22.7457 O   0  0  0  0  0  0  0  0  0  0  0  0
   10.4110  -17.1486   18.2142 C   0  0  0  0  0  0  0  0  0  0  0  0
    9.4593  -16.5787   19.2083 C   0  0  1  0  0  0  0  0  0  0  0  0
    8.1522  -16.5310   18.6893 O   0  0  0  0  0  0  0  0  0  0  0  0
    9.3844  -17.3606   20.5209 C   0  0  2  0  0  0  0  0  0  0  0  0
    8.4637  -16.6247   21.4192 N   0  0  0  0  0  0  0  0  0  0  0  0
   10.6901  -17.4152   21.1637 C   0  0  0  0  0  0  0  0  0  0  0  0
   11.0475  -16.4329   21.9141 O   0  0  0  0  0  0  0  0  0  0  0  0
   11.6208  -18.4738   21.0395 N   0  0  0  0  0  0  0  0  0  0  0  0
   12.8493  -18.4690   21.8425 C   0  0  1  0  0  0  0  0  0  0  0  0
   12.9682  -19.7511   22.6040 C   0  0  0  0  0  0  0  0  0  0  0  0
   14.2587  -19.8283   23.3528 C   0  0  0  0  0  0  0  0  0  0  0  0
   14.4416  -21.1656   24.0517 C   0  0  0  0  0  0  0  0  0  0  0  0
   15.6935  -21.1451   24.9128 C   0  0  0  0  0  0  0  0  0  0  0  0
   15.8022  -22.3932   25.6352 N   0  0  0  0  0  0  0  0  0  0  0  0
   14.0057  -18.2975   20.9400 C   0  0  0  0  0  0  0  0  0  0  0  0
   13.9642  -18.7305   19.7470 O   0  0  0  0  0  0  0  0  0  0  0  0
   15.1810  -17.6736   21.3049 O   0  0  0  0  0  0  0  0  0  0  0  0
  2  1  1  1
  3  2  1  0
  4  5  2  0
  4  3  1  0
  6  5  1  0
  7 12  2  0
  7  6  1  0
  8  7  1  0
  9 10  1  0
  9  8  2  0
 10 11  2  0
 11 12  1  0
 12  4  1  0
 13 14  2  0
 13  2  1  0
 16 15  1  6
 16 18  1  0
 17 16  1  0
 18 19  1  1
 19 13  1  0
 20 18  1  0
 21 20  2  0
 22 20  1  0
 23 29  1  0
 23 22  1  0
 23 24  1  6
 25 24  1  0
 26 27  1  0
 26 25  1  0
 27 28  1  0
 29 31  1  0
 30 29  2  0
M  END
$$$$
