YKF.pdb
     RDKit          3D

 33 34  0  0  1  0  0  0  0  0999 V2000
    5.1675  -24.3961   24.9644 O   0  0  0  0  0  0  0  0  0  0  0  0
    5.5857  -23.0899   24.7358 C   0  0  0  0  0  0  0  0  0  0  0  0
    6.9081  -22.6879   24.8673 C   0  0  0  0  0  0  0  0  0  0  0  0
    7.3083  -21.3913   24.6342 C   0  0  0  0  0  0  0  0  0  0  0  0
    6.3551  -20.4926   24.2652 C   0  0  0  0  0  0  0  0  0  0  0  0
    6.7388  -19.0807   23.9986 C   0  0  0  0  0  0  0  0  0  0  0  0
    6.7368  -18.7861   22.5147 C   0  0  2  0  0  0  0  0  0  0  0  0
    7.1406  -20.0069   21.8263 N   0  0  0  0  0  0  0  0  0  0  0  0
    7.7137  -17.6866   22.2655 C   0  0  0  0  0  0  0  0  0  0  0  0
    8.9235  -17.9133   22.0467 O   0  0  0  0  0  0  0  0  0  0  0  0
    5.0287  -20.8558   24.1240 C   0  0  0  0  0  0  0  0  0  0  0  0
    4.6469  -22.1732   24.3640 C   0  0  0  0  0  0  0  0  0  0  0  0
    7.2879  -16.3276   22.2734 N   0  0  0  0  0  0  0  0  0  0  0  0
    8.1666  -15.1888   22.0556 C   0  0  1  0  0  0  0  0  0  0  0  0
    7.3196  -13.9949   21.7751 C   0  0  0  0  0  0  0  0  0  0  0  0
    6.6903  -13.9691   20.4223 C   0  0  0  0  0  0  0  0  0  0  0  0
    7.8078  -13.6820   19.4056 C   0  0  0  0  0  0  0  0  0  0  0  0
    7.2252  -13.6434   17.9999 C   0  0  0  0  0  0  0  0  0  0  0  0
    8.3253  -13.3675   17.0955 N   0  0  0  0  0  0  0  0  0  0  0  0
    9.0373  -15.0512   23.2509 C   0  0  0  0  0  0  0  0  0  0  0  0
   10.1131  -14.4350   23.1681 O   0  0  0  0  0  0  0  0  0  0  0  0
    8.6385  -15.6196   24.4604 N   0  0  0  0  0  0  0  0  0  0  0  0
    9.3754  -15.4396   25.6902 C   0  0  1  0  0  0  0  0  0  0  0  0
    8.4080  -14.9872   26.7267 C   0  0  0  0  0  0  0  0  0  0  0  0
    7.9436  -13.5965   26.6204 C   0  0  0  0  0  0  0  0  0  0  0  0
    8.8416  -12.5462   26.6018 C   0  0  0  0  0  0  0  0  0  0  0  0
    8.3568  -11.2451   26.4887 C   0  0  0  0  0  0  0  0  0  0  0  0
    7.0207  -10.9398   26.3962 C   0  0  0  0  0  0  0  0  0  0  0  0
    6.1261  -11.9966   26.4167 C   0  0  0  0  0  0  0  0  0  0  0  0
    6.5882  -13.2790   26.5255 C   0  0  0  0  0  0  0  0  0  0  0  0
   10.0868  -16.7102   26.0697 C   0  0  0  0  0  0  0  0  0  0  0  0
   10.7870  -16.8091   27.0881 O   0  0  0  0  0  0  0  0  0  0  0  0
    9.9414  -17.8010   25.2450 O   0  0  0  0  0  0  0  0  0  0  0  0
  2  1  1  0
  3  2  2  0
  4  3  1  0
  5 11  1  0
  5  4  2  0
  6  5  1  0
  7  9  1  0
  7  6  1  0
  7  8  1  6
  9 10  2  0
 11 12  2  0
 12  2  1  0
 13 14  1  0
 13  9  1  0
 15 16  1  0
 14 15  1  1
 17 16  1  0
 18 17  1  0
 19 18  1  0
 20 22  1  0
 20 14  1  0
 21 20  2  0
 23 22  1  0
 23 24  1  1
 24 25  1  0
 25 30  1  0
 26 25  2  0
 26 27  1  0
 27 28  2  0
 28 29  1  0
 30 29  2  0
 31 23  1  0
 32 31  2  0
 33 31  1  0
M  END
$$$$
