YKF.pdb
     RDKit          3D

 33 34  0  0  1  0  0  0  0  0999 V2000
    7.5611  -15.1311   13.9542 O   0  0  0  0  0  0  0  0  0  0  0  0
    7.9960  -15.3133   15.2622 C   0  0  0  0  0  0  0  0  0  0  0  0
    8.0366  -14.2842   16.1933 C   0  0  0  0  0  0  0  0  0  0  0  0
    8.4666  -14.4803   17.4865 C   0  0  0  0  0  0  0  0  0  0  0  0
    8.8613  -15.7346   17.8377 C   0  0  0  0  0  0  0  0  0  0  0  0
    9.3302  -15.9973   19.2243 C   0  0  0  0  0  0  0  0  0  0  0  0
   10.2387  -14.8899   19.7116 C   0  0  2  0  0  0  0  0  0  0  0  0
   11.5576  -15.1204   19.1332 N   0  0  0  0  0  0  0  0  0  0  0  0
   10.2903  -14.9628   21.2007 C   0  0  0  0  0  0  0  0  0  0  0  0
   11.3198  -15.3256   21.8100 O   0  0  0  0  0  0  0  0  0  0  0  0
    8.8346  -16.7841   16.9382 C   0  0  0  0  0  0  0  0  0  0  0  0
    8.3950  -16.5628   15.6356 C   0  0  0  0  0  0  0  0  0  0  0  0
    9.1491  -14.6187   21.9800 N   0  0  0  0  0  0  0  0  0  0  0  0
    9.1382  -14.5391   23.4326 C   0  0  1  0  0  0  0  0  0  0  0  0
    7.8400  -13.9416   23.8558 C   0  0  0  0  0  0  0  0  0  0  0  0
    7.6448  -13.8321   25.3311 C   0  0  0  0  0  0  0  0  0  0  0  0
    6.5260  -12.8038   25.5675 C   0  0  0  0  0  0  0  0  0  0  0  0
    6.3218  -12.6020   27.0622 C   0  0  0  0  0  0  0  0  0  0  0  0
    5.2576  -11.6280   27.2143 N   0  0  0  0  0  0  0  0  0  0  0  0
    9.3833  -15.9039   23.9645 C   0  0  0  0  0  0  0  0  0  0  0  0
    9.1968  -16.8958   23.2397 O   0  0  0  0  0  0  0  0  0  0  0  0
    9.8203  -16.0605   25.2796 N   0  0  0  0  0  0  0  0  0  0  0  0
   10.3730  -17.2988   25.7784 C   0  0  1  0  0  0  0  0  0  0  0  0
   11.0492  -16.9965   27.0692 C   0  0  0  0  0  0  0  0  0  0  0  0
   10.6357  -15.7589   27.7461 C   0  0  0  0  0  0  0  0  0  0  0  0
   10.3615  -15.7466   29.1006 C   0  0  0  0  0  0  0  0  0  0  0  0
    9.9835  -14.5484   29.7022 C   0  0  0  0  0  0  0  0  0  0  0  0
    9.8628  -13.3627   29.0192 C   0  0  0  0  0  0  0  0  0  0  0  0
   10.1378  -13.3820   27.6621 C   0  0  0  0  0  0  0  0  0  0  0  0
   10.5116  -14.5510   27.0589 C   0  0  0  0  0  0  0  0  0  0  0  0
    9.2959  -18.3410   25.9128 C   0  0  0  0  0  0  0  0  0  0  0  0
    9.5234  -19.4950   26.3047 O   0  0  0  0  0  0  0  0  0  0  0  0
    8.0085  -17.9827   25.5879 O   0  0  0  0  0  0  0  0  0  0  0  0
  2  1  1  0
  3  2  2  0
  4  3  1  0
  5 11  1  0
  5  4  2  0
  6  5  1  0
  7  9  1  0
  7  6  1  0
  7  8  1  6
  9 10  2  0
 11 12  2  0
 12  2  1  0
 13 14  1  0
 13  9  1  0
 15 16  1  0
 14 15  1  1
 17 16  1  0
 18 17  1  0
 19 18  1  0
 20 22  1  0
 20 14  1  0
 21 20  2  0
 23 22  1  0
 23 24  1  1
 24 25  1  0
 25 30  1  0
 26 25  2  0
 26 27  1  0
 27 28  2  0
 28 29  1  0
 30 29  2  0
 31 23  1  0
 32 31  2  0
 33 31  1  0
M  END
$$$$
