YKF.pdb
     RDKit          3D

 33 34  0  0  1  0  0  0  0  0999 V2000
    9.3393  -12.9163   16.6597 O   0  0  0  0  0  0  0  0  0  0  0  0
    8.7748  -13.3581   17.8511 C   0  0  0  0  0  0  0  0  0  0  0  0
    7.5207  -12.9520   18.2871 C   0  0  0  0  0  0  0  0  0  0  0  0
    6.9728  -13.4006   19.4679 C   0  0  0  0  0  0  0  0  0  0  0  0
    7.7069  -14.2698   20.2149 C   0  0  0  0  0  0  0  0  0  0  0  0
    7.1562  -14.7857   21.4964 C   0  0  0  0  0  0  0  0  0  0  0  0
    6.8045  -16.2531   21.3873 C   0  0  2  0  0  0  0  0  0  0  0  0
    5.6062  -16.3550   20.5622 N   0  0  0  0  0  0  0  0  0  0  0  0
    6.5476  -16.7654   22.7646 C   0  0  0  0  0  0  0  0  0  0  0  0
    5.5154  -16.4623   23.4014 O   0  0  0  0  0  0  0  0  0  0  0  0
    8.9589  -14.6967   19.8131 C   0  0  0  0  0  0  0  0  0  0  0  0
    9.4929  -14.2305   18.6146 C   0  0  0  0  0  0  0  0  0  0  0  0
    7.4877  -17.6245   23.4020 N   0  0  0  0  0  0  0  0  0  0  0  0
    7.3870  -18.0752   24.7815 C   0  0  1  0  0  0  0  0  0  0  0  0
    7.6068  -19.5492   24.8063 C   0  0  0  0  0  0  0  0  0  0  0  0
    7.6244  -20.1637   26.1660 C   0  0  0  0  0  0  0  0  0  0  0  0
    7.9855  -21.6482   25.9904 C   0  0  0  0  0  0  0  0  0  0  0  0
    7.9150  -22.3562   27.3360 C   0  0  0  0  0  0  0  0  0  0  0  0
    6.7589  -23.2314   27.2912 N   0  0  0  0  0  0  0  0  0  0  0  0
    8.3652  -17.2995   25.5858 C   0  0  0  0  0  0  0  0  0  0  0  0
    9.5121  -17.1042   25.1494 O   0  0  0  0  0  0  0  0  0  0  0  0
    7.9865  -16.7970   26.8304 N   0  0  0  0  0  0  0  0  0  0  0  0
    8.9026  -16.1025   27.7057 C   0  0  1  0  0  0  0  0  0  0  0  0
    8.1974  -14.8985   28.2233 C   0  0  0  0  0  0  0  0  0  0  0  0
    8.0132  -13.7931   27.2720 C   0  0  0  0  0  0  0  0  0  0  0  0
    9.0929  -13.0634   26.8117 C   0  0  0  0  0  0  0  0  0  0  0  0
    8.8722  -12.0316   25.9023 C   0  0  0  0  0  0  0  0  0  0  0  0
    7.6278  -11.6897   25.4316 C   0  0  0  0  0  0  0  0  0  0  0  0
    6.5500  -12.4238   25.8977 C   0  0  0  0  0  0  0  0  0  0  0  0
    6.7524  -13.4406   26.7893 C   0  0  0  0  0  0  0  0  0  0  0  0
    9.3804  -17.0163   28.8016 C   0  0  0  0  0  0  0  0  0  0  0  0
    8.9230  -18.1559   28.9726 O   0  0  0  0  0  0  0  0  0  0  0  0
   10.3698  -16.5561   29.6386 O   0  0  0  0  0  0  0  0  0  0  0  0
  2  1  1  0
  3  2  2  0
  4  3  1  0
  5 11  1  0
  5  4  2  0
  6  5  1  0
  7  9  1  0
  7  6  1  0
  7  8  1  6
  9 10  2  0
 11 12  2  0
 12  2  1  0
 13 14  1  0
 13  9  1  0
 15 16  1  0
 14 15  1  6
 17 16  1  0
 18 17  1  0
 19 18  1  0
 20 22  1  0
 20 14  1  0
 21 20  2  0
 23 22  1  0
 23 24  1  1
 24 25  1  0
 25 30  1  0
 26 25  2  0
 26 27  1  0
 27 28  2  0
 28 29  1  0
 30 29  2  0
 31 23  1  0
 32 31  2  0
 33 31  1  0
M  END
$$$$
