YKF.pdb
     RDKit          3D

 33 34  0  0  1  0  0  0  0  0999 V2000
    7.0231  -23.4217   17.5180 O   0  0  0  0  0  0  0  0  0  0  0  0
    7.5140  -22.1957   17.9527 C   0  0  0  0  0  0  0  0  0  0  0  0
    8.7020  -22.0673   18.6598 C   0  0  0  0  0  0  0  0  0  0  0  0
    9.1777  -20.8458   19.0811 C   0  0  0  0  0  0  0  0  0  0  0  0
    8.4383  -19.7428   18.7826 C   0  0  0  0  0  0  0  0  0  0  0  0
    8.9125  -18.4006   19.2128 C   0  0  0  0  0  0  0  0  0  0  0  0
    8.8990  -18.2749   20.7204 C   0  0  2  0  0  0  0  0  0  0  0  0
    7.5445  -18.5730   21.1716 N   0  0  0  0  0  0  0  0  0  0  0  0
    9.2789  -16.8743   21.0659 C   0  0  0  0  0  0  0  0  0  0  0  0
   10.4147  -16.4159   20.8156 O   0  0  0  0  0  0  0  0  0  0  0  0
    7.2508  -19.8314   18.0803 C   0  0  0  0  0  0  0  0  0  0  0  0
    6.7893  -21.0772   17.6633 C   0  0  0  0  0  0  0  0  0  0  0  0
    8.3439  -16.0093   21.7030 N   0  0  0  0  0  0  0  0  0  0  0  0
    8.6115  -14.6226   22.0523 C   0  0  1  0  0  0  0  0  0  0  0  0
    7.4945  -13.7870   21.5273 C   0  0  0  0  0  0  0  0  0  0  0  0
    7.1398  -14.0301   20.0984 C   0  0  0  0  0  0  0  0  0  0  0  0
    8.1312  -13.2269   19.2400 C   0  0  0  0  0  0  0  0  0  0  0  0
    7.7645  -13.3635   17.7691 C   0  0  0  0  0  0  0  0  0  0  0  0
    8.6612  -12.4959   17.0291 N   0  0  0  0  0  0  0  0  0  0  0  0
    8.7864  -14.5505   23.5253 C   0  0  0  0  0  0  0  0  0  0  0  0
    8.5204  -13.4990   24.1316 O   0  0  0  0  0  0  0  0  0  0  0  0
    9.2522  -15.6681   24.2175 N   0  0  0  0  0  0  0  0  0  0  0  0
    9.3790  -15.7006   25.6564 C   0  0  1  0  0  0  0  0  0  0  0  0
    8.0141  -15.5402   26.2274 C   0  0  0  0  0  0  0  0  0  0  0  0
    7.5521  -14.1597   26.4312 C   0  0  0  0  0  0  0  0  0  0  0  0
    6.2361  -13.8082   26.1976 C   0  0  0  0  0  0  0  0  0  0  0  0
    5.8404  -12.4903   26.4146 C   0  0  0  0  0  0  0  0  0  0  0  0
    6.6929  -11.5052   26.8502 C   0  0  0  0  0  0  0  0  0  0  0  0
    8.0105  -11.8635   27.0811 C   0  0  0  0  0  0  0  0  0  0  0  0
    8.4122  -13.1541   26.8739 C   0  0  0  0  0  0  0  0  0  0  0  0
   10.0517  -16.9721   26.0981 C   0  0  0  0  0  0  0  0  0  0  0  0
   10.3206  -17.2123   27.2844 O   0  0  0  0  0  0  0  0  0  0  0  0
   10.3717  -17.9000   25.1348 O   0  0  0  0  0  0  0  0  0  0  0  0
  2  1  1  0
  3  2  2  0
  4  3  1  0
  5 11  1  0
  5  4  2  0
  6  5  1  0
  7  9  1  0
  7  6  1  0
  7  8  1  6
  9 10  2  0
 11 12  2  0
 12  2  1  0
 13 14  1  0
 13  9  1  0
 15 16  1  0
 14 15  1  1
 17 16  1  0
 18 17  1  0
 19 18  1  0
 20 22  1  0
 20 14  1  0
 21 20  2  0
 23 22  1  0
 23 24  1  1
 24 25  1  0
 25 30  1  0
 26 25  2  0
 26 27  1  0
 27 28  2  0
 28 29  1  0
 30 29  2  0
 31 23  1  0
 32 31  2  0
 33 31  1  0
M  END
$$$$
