YKF.pdb
     RDKit          3D

 33 34  0  0  1  0  0  0  0  0999 V2000
    6.1742  -22.9076   28.8407 O   0  0  0  0  0  0  0  0  0  0  0  0
    6.5063  -21.9161   27.9243 C   0  0  0  0  0  0  0  0  0  0  0  0
    7.8177  -21.5526   27.6491 C   0  0  0  0  0  0  0  0  0  0  0  0
    8.1317  -20.5710   26.7362 C   0  0  0  0  0  0  0  0  0  0  0  0
    7.1029  -19.9504   26.0968 C   0  0  0  0  0  0  0  0  0  0  0  0
    7.3915  -18.8861   25.0990 C   0  0  0  0  0  0  0  0  0  0  0  0
    7.1083  -19.3661   23.6925 C   0  0  2  0  0  0  0  0  0  0  0  0
    7.7296  -20.6773   23.5448 N   0  0  0  0  0  0  0  0  0  0  0  0
    7.7082  -18.3830   22.7443 C   0  0  0  0  0  0  0  0  0  0  0  0
    8.9051  -18.4512   22.3899 O   0  0  0  0  0  0  0  0  0  0  0  0
    5.7847  -20.2854   26.3444 C   0  0  0  0  0  0  0  0  0  0  0  0
    5.4906  -21.2821   27.2713 C   0  0  0  0  0  0  0  0  0  0  0  0
    6.9218  -17.3219   22.2117 N   0  0  0  0  0  0  0  0  0  0  0  0
    7.4247  -15.9862   21.9301 C   0  0  1  0  0  0  0  0  0  0  0  0
    6.3287  -15.2010   21.2946 C   0  0  0  0  0  0  0  0  0  0  0  0
    6.7127  -13.8333   20.8379 C   0  0  0  0  0  0  0  0  0  0  0  0
    7.3671  -13.9821   19.4542 C   0  0  0  0  0  0  0  0  0  0  0  0
    7.7057  -12.6072   18.8960 C   0  0  0  0  0  0  0  0  0  0  0  0
    8.2703  -12.8158   17.5761 N   0  0  0  0  0  0  0  0  0  0  0  0
    7.9266  -15.4114   23.2042 C   0  0  0  0  0  0  0  0  0  0  0  0
    7.1840  -14.6967   23.8984 O   0  0  0  0  0  0  0  0  0  0  0  0
    9.2338  -15.6783   23.6106 N   0  0  0  0  0  0  0  0  0  0  0  0
    9.7893  -15.1695   24.8436 C   0  0  1  0  0  0  0  0  0  0  0  0
    8.9866  -15.7369   25.9611 C   0  0  0  0  0  0  0  0  0  0  0  0
    9.4380  -15.4053   27.3201 C   0  0  0  0  0  0  0  0  0  0  0  0
   10.2545  -16.2666   28.0284 C   0  0  0  0  0  0  0  0  0  0  0  0
   10.6667  -15.9061   29.3093 C   0  0  0  0  0  0  0  0  0  0  0  0
   10.3024  -14.7306   29.9197 C   0  0  0  0  0  0  0  0  0  0  0  0
    9.4832  -13.8726   29.2052 C   0  0  0  0  0  0  0  0  0  0  0  0
    9.0725  -14.2131   27.9461 C   0  0  0  0  0  0  0  0  0  0  0  0
   11.2518  -15.5093   24.9431 C   0  0  0  0  0  0  0  0  0  0  0  0
   12.0985  -14.7123   25.3735 O   0  0  0  0  0  0  0  0  0  0  0  0
   11.6511  -16.7621   24.5403 O   0  0  0  0  0  0  0  0  0  0  0  0
  2  1  1  0
  3  2  2  0
  4  3  1  0
  5 11  1  0
  5  4  2  0
  6  5  1  0
  7  9  1  0
  7  6  1  0
  7  8  1  1
  9 10  2  0
 11 12  2  0
 12  2  1  0
 13 14  1  0
 13  9  1  0
 15 16  1  0
 14 15  1  1
 17 16  1  0
 18 17  1  0
 19 18  1  0
 20 22  1  0
 20 14  1  0
 21 20  2  0
 23 22  1  0
 23 24  1  1
 24 25  1  0
 25 30  1  0
 26 25  2  0
 26 27  1  0
 27 28  2  0
 28 29  1  0
 30 29  2  0
 31 23  1  0
 32 31  2  0
 33 31  1  0
M  END
$$$$
