YKF.pdb
     RDKit          3D

 33 34  0  0  1  0  0  0  0  0999 V2000
    6.5128  -10.2027   27.1650 O   0  0  0  0  0  0  0  0  0  0  0  0
    6.6789  -11.5511   26.8690 C   0  0  0  0  0  0  0  0  0  0  0  0
    7.7532  -12.0346   26.1344 C   0  0  0  0  0  0  0  0  0  0  0  0
    7.9066  -13.3734   25.8518 C   0  0  0  0  0  0  0  0  0  0  0  0
    6.9580  -14.2304   26.3189 C   0  0  0  0  0  0  0  0  0  0  0  0
    7.0818  -15.6865   26.0430 C   0  0  0  0  0  0  0  0  0  0  0  0
    6.5412  -16.0295   24.6722 C   0  0  2  0  0  0  0  0  0  0  0  0
    5.6126  -17.1423   24.8346 N   0  0  0  0  0  0  0  0  0  0  0  0
    7.6946  -16.4201   23.8105 C   0  0  0  0  0  0  0  0  0  0  0  0
    8.2748  -17.5198   23.9401 O   0  0  0  0  0  0  0  0  0  0  0  0
    5.8747  -13.7859   27.0539 C   0  0  0  0  0  0  0  0  0  0  0  0
    5.7404  -12.4274   27.3284 C   0  0  0  0  0  0  0  0  0  0  0  0
    8.1750  -15.5353   22.8032 N   0  0  0  0  0  0  0  0  0  0  0  0
    9.4715  -15.6539   22.1541 C   0  0  1  0  0  0  0  0  0  0  0  0
    9.5089  -14.6969   21.0120 C   0  0  0  0  0  0  0  0  0  0  0  0
    8.4894  -14.9392   19.9496 C   0  0  0  0  0  0  0  0  0  0  0  0
    8.7838  -13.9572   18.8033 C   0  0  0  0  0  0  0  0  0  0  0  0
    7.7897  -14.1764   17.6717 C   0  0  0  0  0  0  0  0  0  0  0  0
    8.0321  -13.1356   16.6907 N   0  0  0  0  0  0  0  0  0  0  0  0
   10.5176  -15.4180   23.1814 C   0  0  0  0  0  0  0  0  0  0  0  0
   10.5576  -14.3354   23.7901 O   0  0  0  0  0  0  0  0  0  0  0  0
   11.4514  -16.4176   23.4533 N   0  0  0  0  0  0  0  0  0  0  0  0
   12.3768  -16.3438   24.5605 C   0  0  1  0  0  0  0  0  0  0  0  0
   11.7157  -16.9730   25.7360 C   0  0  0  0  0  0  0  0  0  0  0  0
   10.8647  -16.0945   26.5514 C   0  0  0  0  0  0  0  0  0  0  0  0
    9.9637  -15.2289   25.9607 C   0  0  0  0  0  0  0  0  0  0  0  0
    9.1698  -14.4227   26.7733 C   0  0  0  0  0  0  0  0  0  0  0  0
    9.2323  -14.4350   28.1455 C   0  0  0  0  0  0  0  0  0  0  0  0
   10.1380  -15.3036   28.7311 C   0  0  0  0  0  0  0  0  0  0  0  0
   10.9223  -16.1021   27.9455 C   0  0  0  0  0  0  0  0  0  0  0  0
   13.6817  -17.0019   24.2021 C   0  0  0  0  0  0  0  0  0  0  0  0
   14.6887  -16.9324   24.9221 O   0  0  0  0  0  0  0  0  0  0  0  0
   13.7440  -17.7110   23.0255 O   0  0  0  0  0  0  0  0  0  0  0  0
  2  1  1  0
  3  2  2  0
  4  3  1  0
  5 11  1  0
  5  4  2  0
  6  5  1  0
  7  9  1  0
  7  6  1  0
  7  8  1  1
  9 10  2  0
 11 12  2  0
 12  2  1  0
 13 14  1  0
 13  9  1  0
 15 16  1  0
 14 15  1  6
 17 16  1  0
 18 17  1  0
 19 18  1  0
 20 22  1  0
 20 14  1  0
 21 20  2  0
 23 22  1  0
 23 24  1  1
 24 25  1  0
 25 30  1  0
 26 25  2  0
 26 27  1  0
 27 28  2  0
 28 29  1  0
 30 29  2  0
 31 23  1  0
 32 31  2  0
 33 31  1  0
M  END
$$$$
