YKF.pdb
     RDKit          3D

 33 34  0  0  1  0  0  0  0  0999 V2000
    7.5748  -11.7565   17.0126 O   0  0  0  0  0  0  0  0  0  0  0  0
    7.5630  -12.5274   18.1696 C   0  0  0  0  0  0  0  0  0  0  0  0
    8.6074  -12.5296   19.0845 C   0  0  0  0  0  0  0  0  0  0  0  0
    8.5803  -13.2959   20.2281 C   0  0  0  0  0  0  0  0  0  0  0  0
    7.4817  -14.0695   20.4443 C   0  0  0  0  0  0  0  0  0  0  0  0
    7.4040  -14.9118   21.6675 C   0  0  0  0  0  0  0  0  0  0  0  0
    8.1086  -16.2351   21.4639 C   0  0  2  0  0  0  0  0  0  0  0  0
    7.3526  -16.9838   20.4665 N   0  0  0  0  0  0  0  0  0  0  0  0
    8.1207  -16.9526   22.7717 C   0  0  0  0  0  0  0  0  0  0  0  0
    7.2054  -17.7361   23.1050 O   0  0  0  0  0  0  0  0  0  0  0  0
    6.4224  -14.0931   19.5563 C   0  0  0  0  0  0  0  0  0  0  0  0
    6.4710  -13.3092   18.4064 C   0  0  0  0  0  0  0  0  0  0  0  0
    9.1907  -16.7587   23.6913 N   0  0  0  0  0  0  0  0  0  0  0  0
    9.4365  -17.5952   24.8559 C   0  0  1  0  0  0  0  0  0  0  0  0
   10.1709  -18.8123   24.4076 C   0  0  0  0  0  0  0  0  0  0  0  0
    9.3563  -20.0617   24.3612 C   0  0  0  0  0  0  0  0  0  0  0  0
    9.4528  -20.6154   22.9297 C   0  0  0  0  0  0  0  0  0  0  0  0
    8.7073  -21.9394   22.8403 C   0  0  0  0  0  0  0  0  0  0  0  0
    9.4910  -22.9146   23.5745 N   0  0  0  0  0  0  0  0  0  0  0  0
   10.1668  -16.7770   25.8574 C   0  0  0  0  0  0  0  0  0  0  0  0
   11.1922  -16.1587   25.5255 O   0  0  0  0  0  0  0  0  0  0  0  0
    9.6939  -16.7117   27.1678 N   0  0  0  0  0  0  0  0  0  0  0  0
   10.3717  -15.9732   28.2084 C   0  0  1  0  0  0  0  0  0  0  0  0
    9.3854  -15.0271   28.7974 C   0  0  0  0  0  0  0  0  0  0  0  0
    8.7634  -14.0733   27.8678 C   0  0  0  0  0  0  0  0  0  0  0  0
    9.4030  -12.8984   27.5205 C   0  0  0  0  0  0  0  0  0  0  0  0
    8.7807  -12.0292   26.6274 C   0  0  0  0  0  0  0  0  0  0  0  0
    7.5508  -12.2724   26.0660 C   0  0  0  0  0  0  0  0  0  0  0  0
    6.9146  -13.4507   26.4190 C   0  0  0  0  0  0  0  0  0  0  0  0
    7.5148  -14.3139   27.2933 C   0  0  0  0  0  0  0  0  0  0  0  0
   10.9591  -16.9135   29.2258 C   0  0  0  0  0  0  0  0  0  0  0  0
   11.6481  -16.5248   30.1804 O   0  0  0  0  0  0  0  0  0  0  0  0
   10.7090  -18.2580   29.0804 O   0  0  0  0  0  0  0  0  0  0  0  0
  2  1  1  0
  3  2  2  0
  4  3  1  0
  5 11  1  0
  5  4  2  0
  6  5  1  0
  7  9  1  0
  7  6  1  0
  7  8  1  6
  9 10  2  0
 11 12  2  0
 12  2  1  0
 13 14  1  0
 13  9  1  0
 15 16  1  0
 14 15  1  6
 17 16  1  0
 18 17  1  0
 19 18  1  0
 20 22  1  0
 20 14  1  0
 21 20  2  0
 23 22  1  0
 23 24  1  1
 24 25  1  0
 25 30  1  0
 26 25  2  0
 26 27  1  0
 27 28  2  0
 28 29  1  0
 30 29  2  0
 31 23  1  0
 32 31  2  0
 33 31  1  0
M  END
$$$$
