YKF.pdb
     RDKit          3D

 33 34  0  0  1  0  0  0  0  0999 V2000
    8.4460  -22.0903   29.3284 O   0  0  0  0  0  0  0  0  0  0  0  0
    8.0216  -21.1359   28.4107 C   0  0  0  0  0  0  0  0  0  0  0  0
    8.7821  -20.0245   28.0730 C   0  0  0  0  0  0  0  0  0  0  0  0
    8.3504  -19.0891   27.1595 C   0  0  0  0  0  0  0  0  0  0  0  0
    7.1325  -19.2835   26.5839 C   0  0  0  0  0  0  0  0  0  0  0  0
    6.6243  -18.3027   25.5882 C   0  0  0  0  0  0  0  0  0  0  0  0
    6.5104  -18.9285   24.2155 C   0  0  2  0  0  0  0  0  0  0  0  0
    7.0836  -20.2671   24.2966 N   0  0  0  0  0  0  0  0  0  0  0  0
    7.2779  -18.0779   23.2600 C   0  0  0  0  0  0  0  0  0  0  0  0
    8.3885  -18.4291   22.8063 O   0  0  0  0  0  0  0  0  0  0  0  0
    6.3473  -20.3780   26.8949 C   0  0  0  0  0  0  0  0  0  0  0  0
    6.8046  -21.3119   27.8210 C   0  0  0  0  0  0  0  0  0  0  0  0
    6.7589  -16.8215   22.8351 N   0  0  0  0  0  0  0  0  0  0  0  0
    7.5759  -15.6928   22.4170 C   0  0  1  0  0  0  0  0  0  0  0  0
    6.7137  -14.7569   21.6410 C   0  0  0  0  0  0  0  0  0  0  0  0
    7.4342  -13.6213   20.9943 C   0  0  0  0  0  0  0  0  0  0  0  0
    7.5194  -13.9330   19.4908 C   0  0  0  0  0  0  0  0  0  0  0  0
    8.2716  -12.8185   18.7775 C   0  0  0  0  0  0  0  0  0  0  0  0
    8.3130  -13.1714   17.3710 N   0  0  0  0  0  0  0  0  0  0  0  0
    8.1828  -15.0954   23.6337 C   0  0  0  0  0  0  0  0  0  0  0  0
    7.7303  -14.0348   24.0969 O   0  0  0  0  0  0  0  0  0  0  0  0
    9.2616  -15.7320   24.2469 N   0  0  0  0  0  0  0  0  0  0  0  0
    9.9670  -15.1659   25.3737 C   0  0  1  0  0  0  0  0  0  0  0  0
    8.9776  -14.9780   26.4694 C   0  0  0  0  0  0  0  0  0  0  0  0
    8.1182  -13.7893   26.3733 C   0  0  0  0  0  0  0  0  0  0  0  0
    8.6622  -12.5194   26.3350 C   0  0  0  0  0  0  0  0  0  0  0  0
    7.8098  -11.4224   26.2325 C   0  0  0  0  0  0  0  0  0  0  0  0
    6.4418  -11.5292   26.1695 C   0  0  0  0  0  0  0  0  0  0  0  0
    5.9029  -12.8042   26.2097 C   0  0  0  0  0  0  0  0  0  0  0  0
    6.7280  -13.8902   26.3083 C   0  0  0  0  0  0  0  0  0  0  0  0
   11.1195  -16.0477   25.7717 C   0  0  0  0  0  0  0  0  0  0  0  0
   11.9089  -15.7513   26.6807 O   0  0  0  0  0  0  0  0  0  0  0  0
   11.2895  -17.2315   25.0927 O   0  0  0  0  0  0  0  0  0  0  0  0
  2  1  1  0
  3  2  2  0
  4  3  1  0
  5 11  1  0
  5  4  2  0
  6  5  1  0
  7  9  1  0
  7  6  1  0
  7  8  1  1
  9 10  2  0
 11 12  2  0
 12  2  1  0
 13 14  1  0
 13  9  1  0
 15 16  1  0
 14 15  1  1
 17 16  1  0
 18 17  1  0
 19 18  1  0
 20 22  1  0
 20 14  1  0
 21 20  2  0
 23 22  1  0
 23 24  1  1
 24 25  1  0
 25 30  1  0
 26 25  2  0
 26 27  1  0
 27 28  2  0
 28 29  1  0
 30 29  2  0
 31 23  1  0
 32 31  2  0
 33 31  1  0
M  END
$$$$
