YKF.pdb
     RDKit          3D

 33 34  0  0  1  0  0  0  0  0999 V2000
    5.7025  -23.1414   29.1730 O   0  0  0  0  0  0  0  0  0  0  0  0
    5.9190  -22.1123   28.2635 C   0  0  0  0  0  0  0  0  0  0  0  0
    5.0743  -21.8653   27.1896 C   0  0  0  0  0  0  0  0  0  0  0  0
    5.2994  -20.8401   26.2986 C   0  0  0  0  0  0  0  0  0  0  0  0
    6.3951  -20.0580   26.4992 C   0  0  0  0  0  0  0  0  0  0  0  0
    6.6787  -18.9354   25.5659 C   0  0  0  0  0  0  0  0  0  0  0  0
    6.4265  -19.3425   24.1308 C   0  0  2  0  0  0  0  0  0  0  0  0
    6.6439  -20.7818   24.0402 N   0  0  0  0  0  0  0  0  0  0  0  0
    7.3936  -18.6028   23.2689 C   0  0  0  0  0  0  0  0  0  0  0  0
    8.4599  -19.1223   22.8744 O   0  0  0  0  0  0  0  0  0  0  0  0
    7.2586  -20.2733   27.5571 C   0  0  0  0  0  0  0  0  0  0  0  0
    7.0106  -21.3156   28.4465 C   0  0  0  0  0  0  0  0  0  0  0  0
    7.1250  -17.2627   22.8688 N   0  0  0  0  0  0  0  0  0  0  0  0
    8.1124  -16.3618   22.2944 C   0  0  1  0  0  0  0  0  0  0  0  0
    7.3965  -15.3667   21.4466 C   0  0  0  0  0  0  0  0  0  0  0  0
    8.2764  -14.4094   20.7146 C   0  0  0  0  0  0  0  0  0  0  0  0
    7.3758  -13.5896   19.7755 C   0  0  0  0  0  0  0  0  0  0  0  0
    8.2363  -12.7949   18.8036 C   0  0  0  0  0  0  0  0  0  0  0  0
    7.3433  -11.9167   18.0715 N   0  0  0  0  0  0  0  0  0  0  0  0
    8.8877  -15.7650   23.4118 C   0  0  0  0  0  0  0  0  0  0  0  0
    9.7034  -14.8555   23.1855 O   0  0  0  0  0  0  0  0  0  0  0  0
    8.6938  -16.2348   24.7105 N   0  0  0  0  0  0  0  0  0  0  0  0
    9.3532  -15.6562   25.8586 C   0  0  1  0  0  0  0  0  0  0  0  0
    8.3126  -15.4148   26.8948 C   0  0  0  0  0  0  0  0  0  0  0  0
    7.4987  -14.2019   26.7293 C   0  0  0  0  0  0  0  0  0  0  0  0
    8.0697  -12.9458   26.8087 C   0  0  0  0  0  0  0  0  0  0  0  0
    7.2616  -11.8245   26.6347 C   0  0  0  0  0  0  0  0  0  0  0  0
    5.9121  -11.8940   26.3883 C   0  0  0  0  0  0  0  0  0  0  0  0
    5.3459  -13.1554   26.3111 C   0  0  0  0  0  0  0  0  0  0  0  0
    6.1276  -14.2649   26.4783 C   0  0  0  0  0  0  0  0  0  0  0  0
   10.4598  -16.5550   26.3399 C   0  0  0  0  0  0  0  0  0  0  0  0
   11.1703  -16.2804   27.3182 O   0  0  0  0  0  0  0  0  0  0  0  0
   10.6781  -17.7297   25.6590 O   0  0  0  0  0  0  0  0  0  0  0  0
  2  1  1  0
  3  2  2  0
  4  3  1  0
  5 11  1  0
  5  4  2  0
  6  5  1  0
  7  9  1  0
  7  6  1  0
  7  8  1  1
  9 10  2  0
 11 12  2  0
 12  2  1  0
 13 14  1  0
 13  9  1  0
 15 16  1  0
 14 15  1  1
 17 16  1  0
 18 17  1  0
 19 18  1  0
 20 22  1  0
 20 14  1  0
 21 20  2  0
 23 22  1  0
 23 24  1  1
 24 25  1  0
 25 30  1  0
 26 25  2  0
 26 27  1  0
 27 28  2  0
 28 29  1  0
 30 29  2  0
 31 23  1  0
 32 31  2  0
 33 31  1  0
M  END
$$$$
