FQF.pdb
     RDKit          3D

 32 33  0  0  1  0  0  0  0  0999 V2000
   29.2381  -19.7405  -12.6057 N   0  0  0  0  0  0  0  0  0  0  0  0
   28.1972  -20.7089  -12.4905 C   0  0  1  0  0  0  0  0  0  0  0  0
   28.0064  -21.1544  -11.0585 C   0  0  0  0  0  0  0  0  0  0  0  0
   29.2622  -21.6204  -10.4379 C   0  0  0  0  0  0  0  0  0  0  0  0
   29.4964  -21.3211   -9.1226 C   0  0  0  0  0  0  0  0  0  0  0  0
   30.6417  -21.7155   -8.4613 C   0  0  0  0  0  0  0  0  0  0  0  0
   31.5969  -22.4461   -9.1573 C   0  0  0  0  0  0  0  0  0  0  0  0
   31.3568  -22.7432  -10.4753 C   0  0  0  0  0  0  0  0  0  0  0  0
   30.2069  -22.3452  -11.1332 C   0  0  0  0  0  0  0  0  0  0  0  0
   26.8920  -20.2659  -13.0186 C   0  0  0  0  0  0  0  0  0  0  0  0
   26.5128  -19.1065  -12.7315 O   0  0  0  0  0  0  0  0  0  0  0  0
   24.3311  -18.5596  -17.0405 N   0  0  0  0  0  0  0  0  0  0  0  0
   23.1479  -19.3289  -16.9250 C   0  0  0  0  0  0  0  0  0  0  0  0
   22.0924  -18.8592  -17.3931 O   0  0  0  0  0  0  0  0  0  0  0  0
   23.1924  -20.6372  -16.2673 C   0  0  0  0  0  0  0  0  0  0  0  0
   24.5315  -21.0508  -15.7383 C   0  0  0  0  0  0  0  0  0  0  0  0
   24.7518  -20.6370  -14.3388 C   0  0  2  0  0  0  0  0  0  0  0  0
   26.0480  -21.0573  -13.8209 N   0  0  0  0  0  0  0  0  0  0  0  0
   23.7384  -21.2838  -13.4799 C   0  0  0  0  0  0  0  0  0  0  0  0
   23.9130  -22.4493  -13.0818 O   0  0  0  0  0  0  0  0  0  0  0  0
   22.5694  -20.6136  -13.0948 N   0  0  0  0  0  0  0  0  0  0  0  0
   21.5615  -21.2139  -12.2120 C   0  0  1  0  0  0  0  0  0  0  0  0
   21.2799  -20.2132  -11.1095 C   0  0  0  0  0  0  0  0  0  0  0  0
   20.4046  -19.0989  -11.5465 C   0  0  0  0  0  0  0  0  0  0  0  0
   19.0574  -19.1038  -11.1915 C   0  0  0  0  0  0  0  0  0  0  0  0
   18.2052  -18.0911  -11.5686 C   0  0  0  0  0  0  0  0  0  0  0  0
   18.6527  -17.0236  -12.3177 C   0  0  0  0  0  0  0  0  0  0  0  0
   19.9818  -17.0049  -12.6760 C   0  0  0  0  0  0  0  0  0  0  0  0
   20.8385  -18.0254  -12.2956 C   0  0  0  0  0  0  0  0  0  0  0  0
   20.3653  -21.6138  -12.9507 C   0  0  0  0  0  0  0  0  0  0  0  0
   20.2122  -21.1949  -14.1222 O   0  0  0  0  0  0  0  0  0  0  0  0
   19.4040  -22.4329  -12.4054 O   0  0  0  0  0  0  0  0  0  0  0  0
  2  1  1  1
  2  3  1  0
  4  3  1  0
  4  5  2  0
  6  5  1  0
  7  6  2  0
  8  9  2  0
  8  7  1  0
  9  4  1  0
 10  2  1  0
 10 11  2  0
 13 12  1  0
 13 14  2  0
 15 16  1  0
 15 13  1  0
 17 18  1  0
 17 16  1  6
 18 10  1  0
 19 17  1  0
 20 19  2  0
 21 19  1  0
 22 21  1  0
 23 24  1  0
 22 23  1  1
 24 29  2  0
 25 26  2  0
 25 24  1  0
 26 27  1  0
 27 28  2  0
 29 28  1  0
 30 22  1  0
 30 32  1  0
 31 30  2  0
M  END
$$$$
