FQF.pdb
     RDKit          3D

 32 33  0  0  1  0  0  0  0  0999 V2000
   27.9438  -19.9172  -15.1304 N   0  0  0  0  0  0  0  0  0  0  0  0
   27.9777  -19.4090  -13.7980 C   0  0  1  0  0  0  0  0  0  0  0  0
   26.8902  -18.3853  -13.5640 C   0  0  0  0  0  0  0  0  0  0  0  0
   26.9608  -17.2565  -14.5127 C   0  0  0  0  0  0  0  0  0  0  0  0
   25.8596  -16.9661  -15.2727 C   0  0  0  0  0  0  0  0  0  0  0  0
   25.8355  -15.9302  -16.1842 C   0  0  0  0  0  0  0  0  0  0  0  0
   26.9743  -15.1492  -16.3380 C   0  0  0  0  0  0  0  0  0  0  0  0
   28.0750  -15.4448  -15.5736 C   0  0  0  0  0  0  0  0  0  0  0  0
   28.0935  -16.4845  -14.6614 C   0  0  0  0  0  0  0  0  0  0  0  0
   27.8784  -20.4427  -12.7491 C   0  0  0  0  0  0  0  0  0  0  0  0
   26.8639  -21.1783  -12.7532 O   0  0  0  0  0  0  0  0  0  0  0  0
   32.7619  -22.8297   -9.5919 N   0  0  0  0  0  0  0  0  0  0  0  0
   32.3815  -22.9398  -10.9514 C   0  0  0  0  0  0  0  0  0  0  0  0
   33.2324  -23.3389  -11.7702 O   0  0  0  0  0  0  0  0  0  0  0  0
   31.0188  -22.5860  -11.3563 C   0  0  0  0  0  0  0  0  0  0  0  0
   30.1179  -22.1153  -10.2558 C   0  0  0  0  0  0  0  0  0  0  0  0
   28.7845  -21.7052  -10.7376 C   0  0  2  0  0  0  0  0  0  0  0  0
   28.8450  -20.6560  -11.7478 N   0  0  0  0  0  0  0  0  0  0  0  0
   28.0161  -21.1424   -9.6081 C   0  0  0  0  0  0  0  0  0  0  0  0
   28.5886  -20.8832   -8.5345 O   0  0  0  0  0  0  0  0  0  0  0  0
   26.6419  -20.8881   -9.7117 N   0  0  0  0  0  0  0  0  0  0  0  0
   25.7638  -20.7686   -8.5411 C   0  0  1  0  0  0  0  0  0  0  0  0
   26.1715  -19.5095   -7.8031 C   0  0  0  0  0  0  0  0  0  0  0  0
   26.9613  -19.7843   -6.5786 C   0  0  0  0  0  0  0  0  0  0  0  0
   27.8172  -18.8051   -6.0791 C   0  0  0  0  0  0  0  0  0  0  0  0
   28.5679  -19.0097   -4.9439 C   0  0  0  0  0  0  0  0  0  0  0  0
   28.5032  -20.1995   -4.2504 C   0  0  0  0  0  0  0  0  0  0  0  0
   27.6616  -21.1767   -4.7320 C   0  0  0  0  0  0  0  0  0  0  0  0
   26.9064  -20.9692   -5.8751 C   0  0  0  0  0  0  0  0  0  0  0  0
   24.3522  -20.7864   -8.9203 C   0  0  0  0  0  0  0  0  0  0  0  0
   24.0525  -20.6846  -10.1332 O   0  0  0  0  0  0  0  0  0  0  0  0
   23.3435  -20.9113   -7.9933 O   0  0  0  0  0  0  0  0  0  0  0  0
  2  1  1  6
  2  3  1  0
  4  3  1  0
  4  5  2  0
  6  5  1  0
  7  6  2  0
  8  9  2  0
  8  7  1  0
  9  4  1  0
 10  2  1  0
 10 11  2  0
 13 12  1  0
 13 14  2  0
 15 16  1  0
 15 13  1  0
 17 18  1  0
 17 16  1  1
 18 10  1  0
 19 17  1  0
 20 19  2  0
 21 19  1  0
 22 21  1  0
 23 24  1  0
 22 23  1  6
 24 29  2  0
 25 26  2  0
 25 24  1  0
 26 27  1  0
 27 28  2  0
 29 28  1  0
 30 22  1  0
 30 32  1  0
 31 30  2  0
M  END
$$$$
