FQF.pdb
     RDKit          3D

 32 33  0  0  1  0  0  0  0  0999 V2000
   20.9070   -7.6895  -21.6566 N   0  0  0  0  0  0  0  0  0  0  0  0
   21.4007   -8.5673  -20.6465 C   0  0  1  0  0  0  0  0  0  0  0  0
   22.9093   -8.5232  -20.5583 C   0  0  0  0  0  0  0  0  0  0  0  0
   23.5636   -9.0684  -21.7641 C   0  0  0  0  0  0  0  0  0  0  0  0
   23.6220  -10.4270  -21.9234 C   0  0  0  0  0  0  0  0  0  0  0  0
   24.2138  -11.0239  -23.0179 C   0  0  0  0  0  0  0  0  0  0  0  0
   24.7735  -10.2147  -23.9990 C   0  0  0  0  0  0  0  0  0  0  0  0
   24.7121   -8.8538  -23.8340 C   0  0  0  0  0  0  0  0  0  0  0  0
   24.1176   -8.2607  -22.7347 C   0  0  0  0  0  0  0  0  0  0  0  0
   20.8477   -8.3194  -19.3006 C   0  0  0  0  0  0  0  0  0  0  0  0
   20.6668   -7.1277  -18.9578 O   0  0  0  0  0  0  0  0  0  0  0  0
   17.9099  -12.4644  -15.2993 N   0  0  0  0  0  0  0  0  0  0  0  0
   17.8939  -11.2187  -14.6261 C   0  0  0  0  0  0  0  0  0  0  0  0
   17.2486  -11.1325  -13.5631 O   0  0  0  0  0  0  0  0  0  0  0  0
   18.6237  -10.0793  -15.1874 C   0  0  0  0  0  0  0  0  0  0  0  0
   19.2554  -10.3107  -16.5259 C   0  0  0  0  0  0  0  0  0  0  0  0
   19.9022   -9.1030  -17.0750 C   0  0  2  0  0  0  0  0  0  0  0  0
   20.5113   -9.3300  -18.3799 N   0  0  0  0  0  0  0  0  0  0  0  0
   21.0008   -8.6937  -16.1759 C   0  0  0  0  0  0  0  0  0  0  0  0
   22.1307   -9.1979  -16.3051 O   0  0  0  0  0  0  0  0  0  0  0  0
   20.8051   -7.7407  -15.1673 N   0  0  0  0  0  0  0  0  0  0  0  0
   21.8750   -7.3131  -14.2573 C   0  0  1  0  0  0  0  0  0  0  0  0
   22.8956   -6.5623  -15.0887 C   0  0  0  0  0  0  0  0  0  0  0  0
   22.4278   -5.2192  -15.5082 C   0  0  0  0  0  0  0  0  0  0  0  0
   21.8682   -5.0508  -16.7728 C   0  0  0  0  0  0  0  0  0  0  0  0
   21.4152   -3.8259  -17.2072 C   0  0  0  0  0  0  0  0  0  0  0  0
   21.4973   -2.7087  -16.4036 C   0  0  0  0  0  0  0  0  0  0  0  0
   22.0480   -2.8597  -15.1510 C   0  0  0  0  0  0  0  0  0  0  0  0
   22.5036   -4.0936  -14.7150 C   0  0  0  0  0  0  0  0  0  0  0  0
   21.3524   -6.5320  -13.1377 C   0  0  0  0  0  0  0  0  0  0  0  0
   22.1526   -6.1174  -12.2665 O   0  0  0  0  0  0  0  0  0  0  0  0
   20.0151   -6.2366  -13.0082 O   0  0  0  0  0  0  0  0  0  0  0  0
  2  1  1  6
  2  3  1  0
  4  3  1  0
  4  5  2  0
  6  5  1  0
  7  6  2  0
  8  9  2  0
  8  7  1  0
  9  4  1  0
 10  2  1  0
 10 11  2  0
 13 12  1  0
 13 14  2  0
 15 16  1  0
 15 13  1  0
 17 18  1  0
 17 16  1  1
 18 10  1  0
 19 17  1  0
 20 19  2  0
 21 19  1  0
 22 21  1  0
 23 24  1  0
 22 23  1  6
 24 29  2  0
 25 26  2  0
 25 24  1  0
 26 27  1  0
 27 28  2  0
 29 28  1  0
 30 22  1  0
 30 32  1  0
 31 30  2  0
M  END
$$$$
