FQF.pdb
     RDKit          3D

 32 33  0  0  1  0  0  0  0  0999 V2000
   30.6232  -21.1908  -14.0819 N   0  0  0  0  0  0  0  0  0  0  0  0
   29.9103  -21.3374  -12.8552 C   0  0  1  0  0  0  0  0  0  0  0  0
   30.7012  -20.8018  -11.6834 C   0  0  0  0  0  0  0  0  0  0  0  0
   31.7452  -21.7407  -11.2278 C   0  0  0  0  0  0  0  0  0  0  0  0
   31.7012  -22.1980   -9.9380 C   0  0  0  0  0  0  0  0  0  0  0  0
   32.6345  -23.0767   -9.4269 C   0  0  0  0  0  0  0  0  0  0  0  0
   33.6612  -23.5162  -10.2535 C   0  0  0  0  0  0  0  0  0  0  0  0
   33.7003  -23.0546  -11.5452 C   0  0  0  0  0  0  0  0  0  0  0  0
   32.7620  -22.1738  -12.0523 C   0  0  0  0  0  0  0  0  0  0  0  0
   28.5770  -20.7041  -12.8461 C   0  0  0  0  0  0  0  0  0  0  0  0
   28.5193  -19.4696  -13.0538 O   0  0  0  0  0  0  0  0  0  0  0  0
   22.4314  -22.2478  -13.5840 N   0  0  0  0  0  0  0  0  0  0  0  0
   22.4230  -21.2122  -12.6184 C   0  0  0  0  0  0  0  0  0  0  0  0
   21.3225  -20.7435  -12.2675 O   0  0  0  0  0  0  0  0  0  0  0  0
   23.6883  -20.7236  -12.0649 C   0  0  0  0  0  0  0  0  0  0  0  0
   24.9257  -21.3658  -12.6131 C   0  0  0  0  0  0  0  0  0  0  0  0
   26.1670  -20.8050  -12.0446 C   0  0  2  0  0  0  0  0  0  0  0  0
   27.3702  -21.3931  -12.6204 N   0  0  0  0  0  0  0  0  0  0  0  0
   26.2146  -21.1075  -10.5992 C   0  0  0  0  0  0  0  0  0  0  0  0
   26.6366  -22.2104  -10.2083 O   0  0  0  0  0  0  0  0  0  0  0  0
   25.7924  -20.1754   -9.6417 N   0  0  0  0  0  0  0  0  0  0  0  0
   25.9127  -20.4078   -8.1970 C   0  0  1  0  0  0  0  0  0  0  0  0
   26.6620  -19.2264   -7.6149 C   0  0  0  0  0  0  0  0  0  0  0  0
   27.4876  -19.5858   -6.4367 C   0  0  0  0  0  0  0  0  0  0  0  0
   28.2762  -18.6122   -5.8277 C   0  0  0  0  0  0  0  0  0  0  0  0
   29.0562  -18.8944   -4.7295 C   0  0  0  0  0  0  0  0  0  0  0  0
   29.0892  -20.1601   -4.1838 C   0  0  0  0  0  0  0  0  0  0  0  0
   28.3149  -21.1329   -4.7749 C   0  0  0  0  0  0  0  0  0  0  0  0
   27.5301  -20.8471   -5.8806 C   0  0  0  0  0  0  0  0  0  0  0  0
   24.6087  -20.6302   -7.5749 C   0  0  0  0  0  0  0  0  0  0  0  0
   23.5945  -20.1135   -8.0998 O   0  0  0  0  0  0  0  0  0  0  0  0
   24.4571  -21.3863   -6.4357 O   0  0  0  0  0  0  0  0  0  0  0  0
  2  1  1  6
  2  3  1  0
  4  3  1  0
  4  5  2  0
  6  5  1  0
  7  6  2  0
  8  9  2  0
  8  7  1  0
  9  4  1  0
 10  2  1  0
 10 11  2  0
 13 12  1  0
 13 14  2  0
 15 16  1  0
 15 13  1  0
 17 18  1  0
 17 16  1  6
 18 10  1  0
 19 17  1  0
 20 19  2  0
 21 19  1  0
 22 21  1  0
 23 24  1  0
 22 23  1  1
 24 29  2  0
 25 26  2  0
 25 24  1  0
 26 27  1  0
 27 28  2  0
 29 28  1  0
 30 22  1  0
 30 32  1  0
 31 30  2  0
M  END
$$$$
