FQF.pdb
     RDKit          3D

 32 33  0  0  1  0  0  0  0  0999 V2000
   18.9558  -11.0066  -20.6321 N   0  0  0  0  0  0  0  0  0  0  0  0
   19.6932   -9.7924  -20.5026 C   0  0  1  0  0  0  0  0  0  0  0  0
   19.2729   -8.7721  -21.5358 C   0  0  0  0  0  0  0  0  0  0  0  0
   19.6264   -9.1785  -22.9103 C   0  0  0  0  0  0  0  0  0  0  0  0
   20.7952   -8.7158  -23.4530 C   0  0  0  0  0  0  0  0  0  0  0  0
   21.2051   -9.0438  -24.7292 C   0  0  0  0  0  0  0  0  0  0  0  0
   20.4002   -9.8773  -25.4959 C   0  0  0  0  0  0  0  0  0  0  0  0
   19.2300  -10.3380  -24.9469 C   0  0  0  0  0  0  0  0  0  0  0  0
   18.8239  -10.0060  -23.6669 C   0  0  0  0  0  0  0  0  0  0  0  0
   19.6075   -9.1672  -19.1683 C   0  0  0  0  0  0  0  0  0  0  0  0
   18.5275   -9.2797  -18.5427 O   0  0  0  0  0  0  0  0  0  0  0  0
   20.5213   -9.2234  -14.2626 N   0  0  0  0  0  0  0  0  0  0  0  0
   21.0397   -7.9225  -14.0530 C   0  0  0  0  0  0  0  0  0  0  0  0
   20.8813   -7.3991  -12.9328 O   0  0  0  0  0  0  0  0  0  0  0  0
   21.7376   -7.2336  -15.1414 C   0  0  0  0  0  0  0  0  0  0  0  0
   21.7916   -7.9704  -16.4446 C   0  0  0  0  0  0  0  0  0  0  0  0
   20.5710   -7.7973  -17.2561 C   0  0  2  0  0  0  0  0  0  0  0  0
   20.6556   -8.4553  -18.5542 N   0  0  0  0  0  0  0  0  0  0  0  0
   20.3792   -6.3596  -17.5374 C   0  0  0  0  0  0  0  0  0  0  0  0
   21.3108   -5.6905  -18.0186 O   0  0  0  0  0  0  0  0  0  0  0  0
   19.1613   -5.7182  -17.2744 N   0  0  0  0  0  0  0  0  0  0  0  0
   18.9703   -4.2722  -17.4427 C   0  0  1  0  0  0  0  0  0  0  0  0
   17.4766   -4.0171  -17.4562 C   0  0  0  0  0  0  0  0  0  0  0  0
   17.1342   -2.5806  -17.5894 C   0  0  0  0  0  0  0  0  0  0  0  0
   17.1588   -1.9823  -18.8472 C   0  0  0  0  0  0  0  0  0  0  0  0
   16.8449   -0.6540  -19.0239 C   0  0  0  0  0  0  0  0  0  0  0  0
   16.4910    0.1438  -17.9566 C   0  0  0  0  0  0  0  0  0  0  0  0
   16.4622   -0.4336  -16.7072 C   0  0  0  0  0  0  0  0  0  0  0  0
   16.7785   -1.7711  -16.5310 C   0  0  0  0  0  0  0  0  0  0  0  0
   19.6788   -3.5103  -16.4160 C   0  0  0  0  0  0  0  0  0  0  0  0
   20.2850   -2.4657  -16.7513 O   0  0  0  0  0  0  0  0  0  0  0  0
   19.7024   -3.8996  -15.0967 O   0  0  0  0  0  0  0  0  0  0  0  0
  2  1  1  1
  2  3  1  0
  4  3  1  0
  4  5  2  0
  6  5  1  0
  7  6  2  0
  8  9  2  0
  8  7  1  0
  9  4  1  0
 10  2  1  0
 10 11  2  0
 13 12  1  0
 13 14  2  0
 15 16  1  0
 15 13  1  0
 17 18  1  0
 17 16  1  6
 18 10  1  0
 19 17  1  0
 20 19  2  0
 21 19  1  0
 22 21  1  0
 23 24  1  0
 22 23  1  1
 24 29  2  0
 25 26  2  0
 25 24  1  0
 26 27  1  0
 27 28  2  0
 29 28  1  0
 30 22  1  0
 30 32  1  0
 31 30  2  0
M  END
$$$$
