FQF.pdb
     RDKit          3D

 32 33  0  0  1  0  0  0  0  0999 V2000
   24.3560  -17.6451  -19.0806 N   0  0  0  0  0  0  0  0  0  0  0  0
   24.2419  -17.4719  -17.6693 C   0  0  1  0  0  0  0  0  0  0  0  0
   22.9091  -16.8690  -17.2877 C   0  0  0  0  0  0  0  0  0  0  0  0
   22.6681  -15.5672  -17.9407 C   0  0  0  0  0  0  0  0  0  0  0  0
   23.2866  -14.4543  -17.4373 C   0  0  0  0  0  0  0  0  0  0  0  0
   23.1195  -13.1979  -17.9833 C   0  0  0  0  0  0  0  0  0  0  0  0
   22.2901  -13.0549  -19.0888 C   0  0  0  0  0  0  0  0  0  0  0  0
   21.6728  -14.1738  -19.5891 C   0  0  0  0  0  0  0  0  0  0  0  0
   21.8440  -15.4309  -19.0377 C   0  0  0  0  0  0  0  0  0  0  0  0
   24.4357  -18.7080  -16.8864 C   0  0  0  0  0  0  0  0  0  0  0  0
   23.6747  -19.6738  -17.1283 O   0  0  0  0  0  0  0  0  0  0  0  0
   27.2130  -22.7530  -15.4876 N   0  0  0  0  0  0  0  0  0  0  0  0
   28.1190  -21.7627  -15.9391 C   0  0  0  0  0  0  0  0  0  0  0  0
   28.9935  -22.0964  -16.7623 O   0  0  0  0  0  0  0  0  0  0  0  0
   28.0088  -20.3919  -15.4343 C   0  0  0  0  0  0  0  0  0  0  0  0
   26.9127  -20.1535  -14.4415 C   0  0  0  0  0  0  0  0  0  0  0  0
   25.5782  -20.0649  -15.0657 C   0  0  2  0  0  0  0  0  0  0  0  0
   25.4158  -18.8729  -15.8891 N   0  0  0  0  0  0  0  0  0  0  0  0
   24.5548  -19.9719  -14.0041 C   0  0  0  0  0  0  0  0  0  0  0  0
   24.5419  -18.9928  -13.2369 O   0  0  0  0  0  0  0  0  0  0  0  0
   23.5843  -20.9683  -13.8333 N   0  0  0  0  0  0  0  0  0  0  0  0
   22.5708  -20.9191  -12.7721 C   0  0  1  0  0  0  0  0  0  0  0  0
   21.8617  -19.5853  -12.8926 C   0  0  0  0  0  0  0  0  0  0  0  0
   20.7081  -19.4557  -11.9700 C   0  0  0  0  0  0  0  0  0  0  0  0
   19.4172  -19.6632  -12.4509 C   0  0  0  0  0  0  0  0  0  0  0  0
   18.3144  -19.5591  -11.6341 C   0  0  0  0  0  0  0  0  0  0  0  0
   18.4430  -19.2433  -10.2983 C   0  0  0  0  0  0  0  0  0  0  0  0
   19.7127  -19.0355   -9.8085 C   0  0  0  0  0  0  0  0  0  0  0  0
   20.8220  -19.1407  -10.6322 C   0  0  0  0  0  0  0  0  0  0  0  0
   21.6650  -22.0646  -12.8362 C   0  0  0  0  0  0  0  0  0  0  0  0
   21.4809  -22.6263  -13.9416 O   0  0  0  0  0  0  0  0  0  0  0  0
   21.0095  -22.5465  -11.7269 O   0  0  0  0  0  0  0  0  0  0  0  0
  2  1  1  6
  2  3  1  0
  4  3  1  0
  4  5  2  0
  6  5  1  0
  7  6  2  0
  8  9  2  0
  8  7  1  0
  9  4  1  0
 10  2  1  0
 10 11  2  0
 13 12  1  0
 13 14  2  0
 15 16  1  0
 15 13  1  0
 17 18  1  0
 17 16  1  1
 18 10  1  0
 19 17  1  0
 20 19  2  0
 21 19  1  0
 22 21  1  0
 23 24  1  0
 22 23  1  6
 24 29  2  0
 25 26  2  0
 25 24  1  0
 26 27  1  0
 27 28  2  0
 29 28  1  0
 30 22  1  0
 30 32  1  0
 31 30  2  0
M  END
$$$$
