IIR.pdb
     RDKit          3D

 28 27  0  0  1  0  0  0  0  0999 V2000
    7.7206  -14.7949   15.1385 C   0  0  0  0  0  0  0  0  0  0  0  0
    7.3181  -14.1489   16.4233 C   0  0  0  0  0  0  0  0  0  0  0  0
    8.3103  -14.4421   17.5581 C   0  0  2  0  0  0  0  0  0  0  0  0
    8.5123  -15.9099   17.7070 C   0  0  0  0  0  0  0  0  0  0  0  0
    7.7939  -13.7293   18.7671 C   0  0  2  0  0  0  0  0  0  0  0  0
    7.7276  -12.3005   18.3929 N   0  0  0  0  0  0  0  0  0  0  0  0
    8.6372  -13.8131   19.9618 C   0  0  0  0  0  0  0  0  0  0  0  0
    9.8271  -13.3807   19.9508 O   0  0  0  0  0  0  0  0  0  0  0  0
    6.5091  -13.1937   24.7930 C   0  0  0  0  0  0  0  0  0  0  0  0
    7.4609  -13.2012   23.6434 C   0  0  0  0  0  0  0  0  0  0  0  0
    8.2545  -14.4949   23.5434 C   0  0  2  0  0  0  0  0  0  0  0  0
    8.9435  -14.7500   24.8423 C   0  0  0  0  0  0  0  0  0  0  0  0
    9.1378  -14.5125   22.3295 C   0  0  2  0  0  0  0  0  0  0  0  0
    8.2066  -14.3650   21.1884 N   0  0  0  0  0  0  0  0  0  0  0  0
    9.7622  -15.8407   22.1984 C   0  0  0  0  0  0  0  0  0  0  0  0
    9.1876  -16.7616   21.5110 O   0  0  0  0  0  0  0  0  0  0  0  0
   13.7458  -15.1966   16.5302 N   0  0  0  0  0  0  0  0  0  0  0  0
   14.9571  -14.8021   17.1601 C   0  0  0  0  0  0  0  0  0  0  0  0
   16.0756  -14.8586   16.5114 N   0  0  0  0  0  0  0  0  0  0  0  0
   15.0038  -14.3341   18.5052 N   0  0  0  0  0  0  0  0  0  0  0  0
   13.7754  -14.2370   19.3009 C   0  0  0  0  0  0  0  0  0  0  0  0
   13.7371  -15.3881   20.2913 C   0  0  0  0  0  0  0  0  0  0  0  0
   12.4983  -15.2014   21.1382 C   0  0  0  0  0  0  0  0  0  0  0  0
   12.1932  -16.4459   21.9608 C   0  0  2  0  0  0  0  0  0  0  0  0
   11.0002  -16.2397   22.7753 N   0  0  0  0  0  0  0  0  0  0  0  0
   13.3488  -16.8405   22.7802 C   0  0  0  0  0  0  0  0  0  0  0  0
   14.3840  -17.6000   22.2796 O   0  0  0  0  0  0  0  0  0  0  0  0
   13.4086  -16.4807   23.9819 O   0  0  0  0  0  0  0  0  0  0  0  0
  2  1  1  0
  3  2  1  0
  3  4  1  1
  5  6  1  6
  5  3  1  0
  7  5  1  0
  8  7  2  0
  9 10  1  0
 11 10  1  0
 11 13  1  0
 11 12  1  1
 13 15  1  0
 13 14  1  6
 14  7  1  0
 15 16  2  0
 17 18  1  0
 18 19  2  0
 18 20  1  0
 20 21  1  0
 21 22  1  0
 23 22  1  0
 24 23  1  1
 25 24  1  0
 25 15  1  0
 26 24  1  0
 27 26  1  0
 28 26  2  0
M  END
$$$$
