IIR.pdb
     RDKit          3D

 28 27  0  0  1  0  0  0  0  0999 V2000
    2.1567  -19.4632   22.1003 C   0  0  0  0  0  0  0  0  0  0  0  0
    3.4602  -19.4167   22.8277 C   0  0  0  0  0  0  0  0  0  0  0  0
    4.0607  -18.0037   22.8562 C   0  0  2  0  0  0  0  0  0  0  0  0
    3.9333  -17.3566   21.5213 C   0  0  0  0  0  0  0  0  0  0  0  0
    5.4538  -18.1460   23.3813 C   0  0  2  0  0  0  0  0  0  0  0  0
    5.3146  -18.7080   24.7417 N   0  0  0  0  0  0  0  0  0  0  0  0
    6.2117  -16.8997   23.5159 C   0  0  0  0  0  0  0  0  0  0  0  0
    6.4763  -16.1859   22.5043 O   0  0  0  0  0  0  0  0  0  0  0  0
    5.4886  -13.4552   27.7263 C   0  0  0  0  0  0  0  0  0  0  0  0
    5.7731  -13.9423   26.3445 C   0  0  0  0  0  0  0  0  0  0  0  0
    7.1302  -14.6185   26.2253 C   0  0  2  0  0  0  0  0  0  0  0  0
    8.1769  -13.7239   26.8008 C   0  0  0  0  0  0  0  0  0  0  0  0
    7.3900  -15.1006   24.8275 C   0  0  2  0  0  0  0  0  0  0  0  0
    6.6946  -16.4048   24.7473 N   0  0  0  0  0  0  0  0  0  0  0  0
    8.8283  -15.3762   24.6647 C   0  0  0  0  0  0  0  0  0  0  0  0
    9.6966  -14.4689   24.9363 O   0  0  0  0  0  0  0  0  0  0  0  0
   10.5087  -12.2709   18.3965 N   0  0  0  0  0  0  0  0  0  0  0  0
    9.8101  -13.5037   18.5063 C   0  0  0  0  0  0  0  0  0  0  0  0
    8.8289  -13.7685   17.7051 N   0  0  0  0  0  0  0  0  0  0  0  0
   10.1448  -14.4897   19.4791 N   0  0  0  0  0  0  0  0  0  0  0  0
   11.2978  -14.2975   20.3652 C   0  0  0  0  0  0  0  0  0  0  0  0
   11.4683  -15.5358   21.2281 C   0  0  0  0  0  0  0  0  0  0  0  0
   10.3102  -15.5599   22.2002 C   0  0  0  0  0  0  0  0  0  0  0  0
   10.4973  -16.6341   23.2631 C   0  0  2  0  0  0  0  0  0  0  0  0
    9.3962  -16.6027   24.2200 N   0  0  0  0  0  0  0  0  0  0  0  0
   11.8010  -16.5030   23.9306 C   0  0  0  0  0  0  0  0  0  0  0  0
   11.9174  -16.2173   25.2737 O   0  0  0  0  0  0  0  0  0  0  0  0
   12.8558  -16.6534   23.2660 O   0  0  0  0  0  0  0  0  0  0  0  0
  2  1  1  0
  3  2  1  0
  3  4  1  6
  5  6  1  1
  5  3  1  0
  7  5  1  0
  8  7  2  0
  9 10  1  0
 11 10  1  0
 11 13  1  0
 11 12  1  6
 13 15  1  0
 13 14  1  1
 14  7  1  0
 15 16  2  0
 17 18  1  0
 18 19  2  0
 18 20  1  0
 20 21  1  0
 21 22  1  0
 23 22  1  0
 24 23  1  6
 25 24  1  0
 25 15  1  0
 26 24  1  0
 27 26  1  0
 28 26  2  0
M  END
$$$$
