IIR.pdb
     RDKit          3D

 28 27  0  0  1  0  0  0  0  0999 V2000
    5.8924  -22.0803   24.6065 C   0  0  0  0  0  0  0  0  0  0  0  0
    5.2271  -20.7490   24.7299 C   0  0  0  0  0  0  0  0  0  0  0  0
    6.1503  -19.5958   24.3103 C   0  0  2  0  0  0  0  0  0  0  0  0
    7.4726  -19.7156   24.9845 C   0  0  0  0  0  0  0  0  0  0  0  0
    5.3961  -18.3318   24.5744 C   0  0  2  0  0  0  0  0  0  0  0  0
    4.2248  -18.3673   23.6730 N   0  0  0  0  0  0  0  0  0  0  0  0
    6.1158  -17.0901   24.2811 C   0  0  0  0  0  0  0  0  0  0  0  0
    6.3089  -16.7157   23.0872 O   0  0  0  0  0  0  0  0  0  0  0  0
    6.0887  -12.7588   27.6111 C   0  0  0  0  0  0  0  0  0  0  0  0
    6.1484  -13.5650   26.3565 C   0  0  0  0  0  0  0  0  0  0  0  0
    7.5054  -14.2162   26.1380 C   0  0  2  0  0  0  0  0  0  0  0  0
    8.5659  -13.1671   26.1798 C   0  0  0  0  0  0  0  0  0  0  0  0
    7.5114  -15.0924   24.9190 C   0  0  2  0  0  0  0  0  0  0  0  0
    6.6372  -16.2327   25.2748 N   0  0  0  0  0  0  0  0  0  0  0  0
    8.8640  -15.6415   24.7182 C   0  0  0  0  0  0  0  0  0  0  0  0
    9.4287  -16.3280   25.6459 O   0  0  0  0  0  0  0  0  0  0  0  0
    8.0194  -14.7651   18.6240 N   0  0  0  0  0  0  0  0  0  0  0  0
    8.7749  -13.7427   19.2594 C   0  0  0  0  0  0  0  0  0  0  0  0
    8.3608  -12.5168   19.2333 N   0  0  0  0  0  0  0  0  0  0  0  0
    9.9972  -14.0060   19.9429 N   0  0  0  0  0  0  0  0  0  0  0  0
   10.6945  -15.2825   19.7527 C   0  0  0  0  0  0  0  0  0  0  0  0
   10.3493  -16.2095   20.9054 C   0  0  0  0  0  0  0  0  0  0  0  0
   11.4317  -16.0403   21.9479 C   0  0  0  0  0  0  0  0  0  0  0  0
   10.8885  -16.2529   23.3544 C   0  0  2  0  0  0  0  0  0  0  0  0
    9.6579  -15.4929   23.5468 N   0  0  0  0  0  0  0  0  0  0  0  0
   11.8969  -15.9206   24.3718 C   0  0  0  0  0  0  0  0  0  0  0  0
   12.8454  -16.8264   24.7948 O   0  0  0  0  0  0  0  0  0  0  0  0
   11.9066  -14.7739   24.8838 O   0  0  0  0  0  0  0  0  0  0  0  0
  2  1  1  0
  3  2  1  0
  3  4  1  1
  5  6  1  6
  5  3  1  0
  7  5  1  0
  8  7  2  0
  9 10  1  0
 11 10  1  0
 11 13  1  0
 11 12  1  6
 13 15  1  0
 13 14  1  1
 14  7  1  0
 15 16  2  0
 17 18  1  0
 18 19  2  0
 18 20  1  0
 20 21  1  0
 21 22  1  0
 23 22  1  0
 24 23  1  6
 25 24  1  0
 25 15  1  0
 26 24  1  0
 27 26  1  0
 28 26  2  0
M  END
$$$$
