IIR.pdb
     RDKit          3D

 28 27  0  0  1  0  0  0  0  0999 V2000
   10.8369  -15.2196   30.5648 C   0  0  0  0  0  0  0  0  0  0  0  0
   11.1706  -16.4508   29.7882 C   0  0  0  0  0  0  0  0  0  0  0  0
   10.7299  -16.3504   28.3206 C   0  0  2  0  0  0  0  0  0  0  0  0
   11.2048  -15.0732   27.7204 C   0  0  0  0  0  0  0  0  0  0  0  0
    9.2501  -16.5665   28.3069 C   0  0  2  0  0  0  0  0  0  0  0  0
    9.0514  -18.0030   28.5948 N   0  0  0  0  0  0  0  0  0  0  0  0
    8.5808  -16.2957   27.0324 C   0  0  0  0  0  0  0  0  0  0  0  0
    8.3055  -17.2347   26.2290 O   0  0  0  0  0  0  0  0  0  0  0  0
    6.3685  -11.4805   26.8055 C   0  0  0  0  0  0  0  0  0  0  0  0
    6.3057  -12.9428   26.5135 C   0  0  0  0  0  0  0  0  0  0  0  0
    7.1446  -13.3401   25.3087 C   0  0  2  0  0  0  0  0  0  0  0  0
    6.4813  -12.8496   24.0651 C   0  0  0  0  0  0  0  0  0  0  0  0
    7.4840  -14.8024   25.3258 C   0  0  2  0  0  0  0  0  0  0  0  0
    8.1974  -15.0049   26.6069 N   0  0  0  0  0  0  0  0  0  0  0  0
    8.4503  -15.0928   24.2519 C   0  0  0  0  0  0  0  0  0  0  0  0
    9.1496  -14.1462   23.7364 O   0  0  0  0  0  0  0  0  0  0  0  0
   12.6703  -13.2105   18.8872 N   0  0  0  0  0  0  0  0  0  0  0  0
   13.5072  -14.3466   19.0562 C   0  0  0  0  0  0  0  0  0  0  0  0
   14.3896  -14.6435   18.1573 N   0  0  0  0  0  0  0  0  0  0  0  0
   13.4226  -15.1974   20.1962 N   0  0  0  0  0  0  0  0  0  0  0  0
   12.4562  -14.9158   21.2632 C   0  0  0  0  0  0  0  0  0  0  0  0
   12.0648  -16.2225   21.9315 C   0  0  0  0  0  0  0  0  0  0  0  0
   11.0003  -15.8942   22.9542 C   0  0  0  0  0  0  0  0  0  0  0  0
    9.6723  -16.5534   22.6070 C   0  0  2  0  0  0  0  0  0  0  0  0
    8.7141  -16.3744   23.6929 N   0  0  0  0  0  0  0  0  0  0  0  0
    9.8531  -17.9735   22.2709 C   0  0  0  0  0  0  0  0  0  0  0  0
   10.4142  -18.3851   21.0813 O   0  0  0  0  0  0  0  0  0  0  0  0
    9.4875  -18.8553   23.0868 O   0  0  0  0  0  0  0  0  0  0  0  0
  2  1  1  0
  3  2  1  0
  3  4  1  1
  5  6  1  6
  5  3  1  0
  7  5  1  0
  8  7  2  0
  9 10  1  0
 11 10  1  0
 11 13  1  0
 11 12  1  6
 13 15  1  0
 13 14  1  1
 14  7  1  0
 15 16  2  0
 17 18  1  0
 18 19  2  0
 18 20  1  0
 20 21  1  0
 21 22  1  0
 23 22  1  0
 24 23  1  1
 25 24  1  0
 25 15  1  0
 26 24  1  0
 27 26  1  0
 28 26  2  0
M  END
$$$$
