IIR.pdb
     RDKit          3D

 28 27  0  0  1  0  0  0  0  0999 V2000
    7.0154  -16.7753   18.0273 C   0  0  0  0  0  0  0  0  0  0  0  0
    6.3887  -16.5350   19.3613 C   0  0  0  0  0  0  0  0  0  0  0  0
    7.4273  -16.1905   20.4387 C   0  0  2  0  0  0  0  0  0  0  0  0
    7.7062  -17.3785   21.2918 C   0  0  0  0  0  0  0  0  0  0  0  0
    6.9119  -14.9817   21.1528 C   0  0  2  0  0  0  0  0  0  0  0  0
    6.9334  -13.8882   20.1581 N   0  0  0  0  0  0  0  0  0  0  0  0
    7.7117  -14.5294   22.2936 C   0  0  0  0  0  0  0  0  0  0  0  0
    8.8292  -13.9601   22.1205 O   0  0  0  0  0  0  0  0  0  0  0  0
    5.5431  -11.8601   26.1839 C   0  0  0  0  0  0  0  0  0  0  0  0
    6.5276  -12.4301   25.2178 C   0  0  0  0  0  0  0  0  0  0  0  0
    7.2460  -13.6554   25.7617 C   0  0  2  0  0  0  0  0  0  0  0  0
    7.8505  -13.3232   27.0850 C   0  0  0  0  0  0  0  0  0  0  0  0
    8.1879  -14.2418   24.7504 C   0  0  2  0  0  0  0  0  0  0  0  0
    7.3149  -14.6844   23.6400 N   0  0  0  0  0  0  0  0  0  0  0  0
    8.8117  -15.4545   25.3086 C   0  0  0  0  0  0  0  0  0  0  0  0
    8.0859  -16.3640   25.8535 O   0  0  0  0  0  0  0  0  0  0  0  0
   15.7541  -14.5481   22.6921 N   0  0  0  0  0  0  0  0  0  0  0  0
   14.7115  -14.9664   21.8215 C   0  0  0  0  0  0  0  0  0  0  0  0
   14.7942  -14.7362   20.5506 N   0  0  0  0  0  0  0  0  0  0  0  0
   13.5492  -15.6452   22.2892 N   0  0  0  0  0  0  0  0  0  0  0  0
   13.3979  -15.9643   23.7129 C   0  0  0  0  0  0  0  0  0  0  0  0
   12.2716  -16.9704   23.8757 C   0  0  0  0  0  0  0  0  0  0  0  0
   12.1399  -17.2507   25.3559 C   0  0  0  0  0  0  0  0  0  0  0  0
   10.7188  -17.0062   25.8449 C   0  0  2  0  0  0  0  0  0  0  0  0
   10.2033  -15.7507   25.3089 N   0  0  0  0  0  0  0  0  0  0  0  0
   10.6463  -17.0405   27.3132 C   0  0  0  0  0  0  0  0  0  0  0  0
   10.9252  -18.1777   28.0399 O   0  0  0  0  0  0  0  0  0  0  0  0
   10.3190  -16.0040   27.9422 O   0  0  0  0  0  0  0  0  0  0  0  0
  2  1  1  0
  3  2  1  0
  3  4  1  1
  5  6  1  6
  5  3  1  0
  7  5  1  0
  8  7  2  0
  9 10  1  0
 11 10  1  0
 11 13  1  0
 11 12  1  1
 13 15  1  0
 13 14  1  6
 14  7  1  0
 15 16  2  0
 17 18  1  0
 18 19  2  0
 18 20  1  0
 20 21  1  0
 21 22  1  0
 23 22  1  0
 24 23  1  1
 25 24  1  0
 25 15  1  0
 26 24  1  0
 27 26  1  0
 28 26  2  0
M  END
$$$$
