IIR.pdb
     RDKit          3D

 28 27  0  0  1  0  0  0  0  0999 V2000
   10.7603  -15.5684   31.0280 C   0  0  0  0  0  0  0  0  0  0  0  0
    9.7364  -16.3251   30.2476 C   0  0  0  0  0  0  0  0  0  0  0  0
    9.5160  -15.7323   28.8482 C   0  0  2  0  0  0  0  0  0  0  0  0
    9.3289  -14.2574   28.9310 C   0  0  0  0  0  0  0  0  0  0  0  0
    8.3873  -16.4992   28.2362 C   0  0  2  0  0  0  0  0  0  0  0  0
    8.7540  -17.9256   28.3663 N   0  0  0  0  0  0  0  0  0  0  0  0
    8.1515  -16.2531   26.8116 C   0  0  0  0  0  0  0  0  0  0  0  0
    8.0453  -17.2135   25.9936 O   0  0  0  0  0  0  0  0  0  0  0  0
    6.6170  -11.6191   26.3205 C   0  0  0  0  0  0  0  0  0  0  0  0
    6.2867  -12.8086   25.4818 C   0  0  0  0  0  0  0  0  0  0  0  0
    7.4721  -13.3035   24.6673 C   0  0  2  0  0  0  0  0  0  0  0  0
    7.3398  -12.8175   23.2626 C   0  0  0  0  0  0  0  0  0  0  0  0
    7.6741  -14.7829   24.8226 C   0  0  2  0  0  0  0  0  0  0  0  0
    8.0255  -14.9638   26.2491 N   0  0  0  0  0  0  0  0  0  0  0  0
    8.8506  -15.2006   24.0398 C   0  0  0  0  0  0  0  0  0  0  0  0
    9.9917  -14.6449   24.2390 O   0  0  0  0  0  0  0  0  0  0  0  0
   14.7262  -20.9813   22.5984 N   0  0  0  0  0  0  0  0  0  0  0  0
   13.9682  -20.4529   23.6782 C   0  0  0  0  0  0  0  0  0  0  0  0
   14.4095  -20.5494   24.8909 N   0  0  0  0  0  0  0  0  0  0  0  0
   12.7139  -19.8039   23.4881 N   0  0  0  0  0  0  0  0  0  0  0  0
   12.0830  -19.7801   22.1640 C   0  0  0  0  0  0  0  0  0  0  0  0
   11.7493  -18.3430   21.8026 C   0  0  0  0  0  0  0  0  0  0  0  0
   10.5372  -17.9524   22.6181 C   0  0  0  0  0  0  0  0  0  0  0  0
   10.0843  -16.5341   22.2985 C   0  0  2  0  0  0  0  0  0  0  0  0
    8.8678  -16.2084   23.0355 N   0  0  0  0  0  0  0  0  0  0  0  0
    9.9101  -16.3429   20.8510 C   0  0  0  0  0  0  0  0  0  0  0  0
   10.9649  -16.4032   19.9660 O   0  0  0  0  0  0  0  0  0  0  0  0
    8.7649  -16.1149   20.3890 O   0  0  0  0  0  0  0  0  0  0  0  0
  2  1  1  0
  3  2  1  0
  3  4  1  1
  5  6  1  6
  5  3  1  0
  7  5  1  0
  8  7  2  0
  9 10  1  0
 11 10  1  0
 11 13  1  0
 11 12  1  6
 13 15  1  0
 13 14  1  1
 14  7  1  0
 15 16  2  0
 17 18  1  0
 18 19  2  0
 18 20  1  0
 20 21  1  0
 21 22  1  0
 23 22  1  0
 24 23  1  6
 25 24  1  0
 25 15  1  0
 26 24  1  0
 27 26  1  0
 28 26  2  0
M  END
$$$$
