IIR.pdb
     RDKit          3D

 28 27  0  0  1  0  0  0  0  0999 V2000
    7.8201  -11.8574   19.7260 C   0  0  0  0  0  0  0  0  0  0  0  0
    7.6118  -12.9040   20.7707 C   0  0  0  0  0  0  0  0  0  0  0  0
    8.1104  -14.2845   20.3191 C   0  0  2  0  0  0  0  0  0  0  0  0
    7.4868  -14.6644   19.0214 C   0  0  0  0  0  0  0  0  0  0  0  0
    7.8617  -15.2188   21.4601 C   0  0  2  0  0  0  0  0  0  0  0  0
    6.4001  -15.2018   21.6816 N   0  0  0  0  0  0  0  0  0  0  0  0
    8.4850  -14.8469   22.7324 C   0  0  0  0  0  0  0  0  0  0  0  0
    9.7236  -14.5939   22.8014 O   0  0  0  0  0  0  0  0  0  0  0  0
    6.2372  -11.5383   25.9401 C   0  0  0  0  0  0  0  0  0  0  0  0
    7.2612  -12.3787   25.2526 C   0  0  0  0  0  0  0  0  0  0  0  0
    7.6074  -13.6396   26.0295 C   0  0  2  0  0  0  0  0  0  0  0  0
    8.1233  -13.2599   27.3773 C   0  0  0  0  0  0  0  0  0  0  0  0
    8.4909  -14.5570   25.2347 C   0  0  2  0  0  0  0  0  0  0  0  0
    7.7782  -14.7413   23.9505 N   0  0  0  0  0  0  0  0  0  0  0  0
    8.5376  -15.8774   25.8870 C   0  0  0  0  0  0  0  0  0  0  0  0
    7.6752  -16.7804   25.5841 O   0  0  0  0  0  0  0  0  0  0  0  0
   10.6790  -20.9194   21.7878 N   0  0  0  0  0  0  0  0  0  0  0  0
   11.0085  -19.6084   21.3492 C   0  0  0  0  0  0  0  0  0  0  0  0
   10.8212  -19.2697   20.1142 N   0  0  0  0  0  0  0  0  0  0  0  0
   11.5481  -18.6212   22.2237 N   0  0  0  0  0  0  0  0  0  0  0  0
   11.8385  -18.9481   23.6239 C   0  0  0  0  0  0  0  0  0  0  0  0
   10.6288  -18.5978   24.4731 C   0  0  0  0  0  0  0  0  0  0  0  0
   11.0454  -17.4720   25.3928 C   0  0  0  0  0  0  0  0  0  0  0  0
   10.2715  -17.5081   26.7036 C   0  0  2  0  0  0  0  0  0  0  0  0
    9.4845  -16.2900   26.8656 N   0  0  0  0  0  0  0  0  0  0  0  0
   11.1687  -17.7312   27.8471 C   0  0  0  0  0  0  0  0  0  0  0  0
   12.0392  -16.7646   28.3023 O   0  0  0  0  0  0  0  0  0  0  0  0
   11.1535  -18.8378   28.4405 O   0  0  0  0  0  0  0  0  0  0  0  0
  2  1  1  0
  3  2  1  0
  3  4  1  6
  5  6  1  1
  5  3  1  0
  7  5  1  0
  8  7  2  0
  9 10  1  0
 11 10  1  0
 11 13  1  0
 11 12  1  1
 13 15  1  0
 13 14  1  6
 14  7  1  0
 15 16  2  0
 17 18  1  0
 18 19  2  0
 18 20  1  0
 20 21  1  0
 21 22  1  0
 23 22  1  0
 24 23  1  6
 25 24  1  0
 25 15  1  0
 26 24  1  0
 27 26  1  0
 28 26  2  0
M  END
$$$$
