IIR.pdb
     RDKit          3D

 28 27  0  0  1  0  0  0  0  0999 V2000
   10.9074  -19.0025   27.8001 C   0  0  0  0  0  0  0  0  0  0  0  0
    9.5085  -18.8354   27.3047 C   0  0  0  0  0  0  0  0  0  0  0  0
    8.6034  -18.1485   28.3377 C   0  0  2  0  0  0  0  0  0  0  0  0
    8.6180  -18.8990   29.6237 C   0  0  0  0  0  0  0  0  0  0  0  0
    7.2646  -17.9913   27.6899 C   0  0  2  0  0  0  0  0  0  0  0  0
    6.7896  -19.3635   27.4119 N   0  0  0  0  0  0  0  0  0  0  0  0
    7.2581  -17.2762   26.4115 C   0  0  0  0  0  0  0  0  0  0  0  0
    7.0329  -17.8861   25.3252 O   0  0  0  0  0  0  0  0  0  0  0  0
    6.0106  -12.1346   26.6901 C   0  0  0  0  0  0  0  0  0  0  0  0
    6.0418  -13.5040   26.0975 C   0  0  0  0  0  0  0  0  0  0  0  0
    7.2984  -13.7647   25.2812 C   0  0  2  0  0  0  0  0  0  0  0  0
    7.3184  -12.8476   24.1041 C   0  0  0  0  0  0  0  0  0  0  0  0
    7.4637  -15.2233   24.9662 C   0  0  2  0  0  0  0  0  0  0  0  0
    7.4939  -15.8892   26.2879 N   0  0  0  0  0  0  0  0  0  0  0  0
    8.7839  -15.4439   24.3500 C   0  0  0  0  0  0  0  0  0  0  0  0
    9.5801  -14.4550   24.1529 O   0  0  0  0  0  0  0  0  0  0  0  0
    7.0450  -13.0669   18.8179 N   0  0  0  0  0  0  0  0  0  0  0  0
    8.4432  -12.8288   18.7288 C   0  0  0  0  0  0  0  0  0  0  0  0
    8.8855  -11.6375   18.4836 N   0  0  0  0  0  0  0  0  0  0  0  0
    9.4087  -13.8625   18.9012 N   0  0  0  0  0  0  0  0  0  0  0  0
    9.0205  -15.1519   19.4831 C   0  0  0  0  0  0  0  0  0  0  0  0
    9.1661  -15.0752   20.9931 C   0  0  0  0  0  0  0  0  0  0  0  0
    8.8269  -16.4437   21.5399 C   0  0  0  0  0  0  0  0  0  0  0  0
    9.8398  -16.8929   22.5843 C   0  0  2  0  0  0  0  0  0  0  0  0
    9.3073  -16.6982   23.9288 N   0  0  0  0  0  0  0  0  0  0  0  0
   11.1292  -16.2086   22.4063 C   0  0  0  0  0  0  0  0  0  0  0  0
   12.0922  -16.6638   21.5319 O   0  0  0  0  0  0  0  0  0  0  0  0
   11.3769  -15.1708   23.0686 O   0  0  0  0  0  0  0  0  0  0  0  0
  2  1  1  0
  3  2  1  0
  3  4  1  1
  5  6  1  6
  5  3  1  0
  7  5  1  0
  8  7  2  0
  9 10  1  0
 11 10  1  0
 11 13  1  0
 11 12  1  6
 13 15  1  0
 13 14  1  1
 14  7  1  0
 15 16  2  0
 17 18  1  0
 18 19  2  0
 18 20  1  0
 20 21  1  0
 21 22  1  0
 23 22  1  0
 24 23  1  6
 25 24  1  0
 25 15  1  0
 26 24  1  0
 27 26  1  0
 28 26  2  0
M  END
$$$$
