VPA.pdb
     RDKit          3D

 20 20  0  0  1  0  0  0  0  0999 V2000
   18.5691  -11.6609  -19.2567 C   0  0  0  0  0  0  0  0  0  0  0  0
   19.0137  -10.7414  -18.1821 C   0  0  1  0  0  0  0  0  0  0  0  0
   17.9158   -9.7676  -17.8058 C   0  0  0  0  0  0  0  0  0  0  0  0
   19.4426  -11.4376  -16.9114 C   0  0  2  0  0  0  0  0  0  0  0  0
   18.3580  -12.2751  -16.5248 N   0  0  0  0  0  0  0  0  0  0  0  0
   20.0051  -10.5507  -15.9137 C   0  0  0  0  0  0  0  0  0  0  0  0
   19.2108   -9.7298  -15.3844 O   0  0  0  0  0  0  0  0  0  0  0  0
   21.3784  -10.5070  -15.4606 N   0  0  0  0  0  0  0  0  0  0  0  0
   22.4577  -11.3521  -15.8388 C   0  0  0  0  0  0  0  0  0  0  0  0
   23.6836  -10.4967  -15.6996 C   0  0  0  0  0  0  0  0  0  0  0  0
   23.3310   -9.8039  -14.3661 C   0  0  0  0  0  0  0  0  0  0  0  0
   21.8555   -9.5552  -14.4981 C   0  0  1  0  0  0  0  0  0  0  0  0
   21.5709   -8.1527  -14.8917 C   0  0  0  0  0  0  0  0  0  0  0  0
   21.6803   -7.8164  -16.0844 O   0  0  0  0  0  0  0  0  0  0  0  0
   19.8050   -5.3763  -13.2361 C   0  0  0  0  0  0  0  0  0  0  0  0
   20.9152   -5.8236  -14.1962 C   0  0  2  0  0  0  0  0  0  0  0  0
   21.1810   -7.2341  -13.8910 N   0  0  0  0  0  0  0  0  0  0  0  0
   22.0974   -4.9941  -13.8824 C   0  0  0  0  0  0  0  0  0  0  0  0
   22.1029   -3.7987  -14.2446 O   0  0  0  0  0  0  0  0  0  0  0  0
   23.1908   -5.4920  -13.2060 O   0  0  0  0  0  0  0  0  0  0  0  0
  2  1  1  6
  3  2  1  0
  4  5  1  1
  4  2  1  0
  6  4  1  0
  7  6  2  0
  8 12  1  0
  8  6  1  0
  9  8  1  0
 10 11  1  0
 10  9  1  0
 11 12  1  0
 12 13  1  6
 13 14  2  0
 13 17  1  0
 16 15  1  1
 17 16  1  0
 18 20  1  0
 18 16  1  0
 19 18  2  0
M  END
$$$$
