VPA.pdb
     RDKit          3D

 20 20  0  0  1  0  0  0  0  0999 V2000
   20.5998   -9.8865  -19.3976 C   0  0  0  0  0  0  0  0  0  0  0  0
   19.7042  -10.9595  -18.9032 C   0  0  1  0  0  0  0  0  0  0  0  0
   19.5033  -12.0324  -19.9539 C   0  0  0  0  0  0  0  0  0  0  0  0
   20.1991  -11.6505  -17.6539 C   0  0  2  0  0  0  0  0  0  0  0  0
   19.2921  -12.7175  -17.3971 N   0  0  0  0  0  0  0  0  0  0  0  0
   20.5117  -10.7477  -16.5649 C   0  0  0  0  0  0  0  0  0  0  0  0
   19.6576   -9.8572  -16.3147 O   0  0  0  0  0  0  0  0  0  0  0  0
   21.6968  -10.7596  -15.7353 N   0  0  0  0  0  0  0  0  0  0  0  0
   22.7923  -11.6653  -15.7775 C   0  0  0  0  0  0  0  0  0  0  0  0
   23.9705  -10.8672  -15.2990 C   0  0  0  0  0  0  0  0  0  0  0  0
   23.2870  -10.1251  -14.1309 C   0  0  0  0  0  0  0  0  0  0  0  0
   21.9274   -9.8083  -14.6855 C   0  0  1  0  0  0  0  0  0  0  0  0
   21.8439   -8.4039  -15.1584 C   0  0  0  0  0  0  0  0  0  0  0  0
   22.2563   -8.1144  -16.2958 O   0  0  0  0  0  0  0  0  0  0  0  0
   19.7915   -5.5547  -14.3142 C   0  0  0  0  0  0  0  0  0  0  0  0
   21.2094   -6.0157  -14.6768 C   0  0  2  0  0  0  0  0  0  0  0  0
   21.2936   -7.4300  -14.2947 N   0  0  0  0  0  0  0  0  0  0  0  0
   22.1341   -5.2025  -13.8599 C   0  0  0  0  0  0  0  0  0  0  0  0
   22.4406   -5.6091  -12.7193 O   0  0  0  0  0  0  0  0  0  0  0  0
   22.6688   -4.0144  -14.3111 O   0  0  0  0  0  0  0  0  0  0  0  0
  2  1  1  6
  3  2  1  0
  4  5  1  1
  4  2  1  0
  6  4  1  0
  7  6  2  0
  8 12  1  0
  8  6  1  0
  9  8  1  0
 10 11  1  0
 10  9  1  0
 11 12  1  0
 12 13  1  6
 13 14  2  0
 13 17  1  0
 16 15  1  1
 17 16  1  0
 18 20  1  0
 18 16  1  0
 19 18  2  0
M  END
$$$$
