VPA.pdb
     RDKit          3D

 20 20  0  0  1  0  0  0  0  0999 V2000
   21.3987  -14.8991  -19.6655 C   0  0  0  0  0  0  0  0  0  0  0  0
   21.2668  -13.7714  -18.7122 C   0  0  1  0  0  0  0  0  0  0  0  0
   20.0196  -12.9589  -18.9945 C   0  0  0  0  0  0  0  0  0  0  0  0
   21.2023  -14.1924  -17.2625 C   0  0  2  0  0  0  0  0  0  0  0  0
   20.2156  -15.2157  -17.1833 N   0  0  0  0  0  0  0  0  0  0  0  0
   21.1107  -13.0869  -16.3307 C   0  0  0  0  0  0  0  0  0  0  0  0
   19.9992  -12.4989  -16.2689 O   0  0  0  0  0  0  0  0  0  0  0  0
   22.1566  -12.5873  -15.4649 N   0  0  0  0  0  0  0  0  0  0  0  0
   23.4503  -13.1334  -15.2410 C   0  0  0  0  0  0  0  0  0  0  0  0
   24.3143  -11.9522  -14.9060 C   0  0  0  0  0  0  0  0  0  0  0  0
   23.3329  -11.2046  -13.9784 C   0  0  0  0  0  0  0  0  0  0  0  0
   22.0086  -11.4103  -14.6568 C   0  0  1  0  0  0  0  0  0  0  0  0
   21.6096  -10.2200  -15.4485 C   0  0  0  0  0  0  0  0  0  0  0  0
   22.0532  -10.0737  -16.6015 O   0  0  0  0  0  0  0  0  0  0  0  0
   18.8290   -7.8361  -15.1293 C   0  0  0  0  0  0  0  0  0  0  0  0
   20.2690   -8.0939  -15.5924 C   0  0  2  0  0  0  0  0  0  0  0  0
   20.7304   -9.2809  -14.8634 N   0  0  0  0  0  0  0  0  0  0  0  0
   21.0535   -6.9056  -15.1967 C   0  0  0  0  0  0  0  0  0  0  0  0
   21.7859   -6.9807  -14.1878 O   0  0  0  0  0  0  0  0  0  0  0  0
   21.0054   -5.7208  -15.9001 O   0  0  0  0  0  0  0  0  0  0  0  0
  2  1  1  6
  3  2  1  0
  4  5  1  6
  4  2  1  0
  6  4  1  0
  7  6  2  0
  8 12  1  0
  8  6  1  0
  9  8  1  0
 10 11  1  0
 10  9  1  0
 11 12  1  0
 12 13  1  6
 13 14  2  0
 13 17  1  0
 16 15  1  1
 17 16  1  0
 18 20  1  0
 18 16  1  0
 19 18  2  0
M  END
$$$$
