VPA.pdb
     RDKit          3D

 20 20  0  0  1  0  0  0  0  0999 V2000
   21.1666  -33.1245   -3.5927 C   0  0  0  0  0  0  0  0  0  0  0  0
   22.3901  -33.8026   -3.1017 C   0  0  1  0  0  0  0  0  0  0  0  0
   22.0499  -35.0896   -2.3784 C   0  0  0  0  0  0  0  0  0  0  0  0
   23.3800  -34.1537   -4.1880 C   0  0  2  0  0  0  0  0  0  0  0  0
   22.6354  -34.7891   -5.2220 N   0  0  0  0  0  0  0  0  0  0  0  0
   24.5747  -34.8162   -3.7059 C   0  0  0  0  0  0  0  0  0  0  0  0
   24.4108  -35.9436   -3.1700 O   0  0  0  0  0  0  0  0  0  0  0  0
   25.9330  -34.3230   -3.7741 N   0  0  0  0  0  0  0  0  0  0  0  0
   26.3931  -33.0771   -4.2821 C   0  0  0  0  0  0  0  0  0  0  0  0
   27.6366  -32.7764   -3.4965 C   0  0  0  0  0  0  0  0  0  0  0  0
   28.2596  -34.1885   -3.5018 C   0  0  0  0  0  0  0  0  0  0  0  0
   27.0652  -35.0819   -3.3241 C   0  0  1  0  0  0  0  0  0  0  0  0
   26.9266  -35.5357   -1.9178 C   0  0  0  0  0  0  0  0  0  0  0  0
   26.1968  -34.8988   -1.1372 O   0  0  0  0  0  0  0  0  0  0  0  0
   28.0147  -38.6892   -0.2316 C   0  0  0  0  0  0  0  0  0  0  0  0
   27.4697  -37.2565   -0.1623 C   0  0  2  0  0  0  0  0  0  0  0  0
   27.6340  -36.6873   -1.5048 N   0  0  0  0  0  0  0  0  0  0  0  0
   28.3144  -36.5357    0.8129 C   0  0  0  0  0  0  0  0  0  0  0  0
   29.1396  -35.7001    0.3875 O   0  0  0  0  0  0  0  0  0  0  0  0
   28.2238  -36.7526    2.1714 O   0  0  0  0  0  0  0  0  0  0  0  0
  2  1  1  6
  3  2  1  0
  4  5  1  6
  4  2  1  0
  6  4  1  0
  7  6  2  0
  8 12  1  0
  8  6  1  0
  9  8  1  0
 10 11  1  0
 10  9  1  0
 11 12  1  0
 12 13  1  1
 13 14  2  0
 13 17  1  0
 16 15  1  6
 17 16  1  0
 18 20  1  0
 18 16  1  0
 19 18  2  0
M  END
$$$$
