VPA.pdb
     RDKit          3D

 20 20  0  0  1  0  0  0  0  0999 V2000
   15.9333  -11.1563  -16.4379 C   0  0  0  0  0  0  0  0  0  0  0  0
   17.0394  -10.2228  -16.1170 C   0  0  1  0  0  0  0  0  0  0  0  0
   17.1018   -9.9385  -14.6302 C   0  0  0  0  0  0  0  0  0  0  0  0
   18.4056  -10.7183  -16.5307 C   0  0  2  0  0  0  0  0  0  0  0  0
   18.5155  -12.0516  -16.0434 N   0  0  0  0  0  0  0  0  0  0  0  0
   19.4824   -9.7957  -16.2342 C   0  0  0  0  0  0  0  0  0  0  0  0
   19.8286   -9.7104  -15.0268 O   0  0  0  0  0  0  0  0  0  0  0  0
   20.2018   -8.9641  -17.1743 N   0  0  0  0  0  0  0  0  0  0  0  0
   20.0911   -8.9387  -18.5918 C   0  0  0  0  0  0  0  0  0  0  0  0
   20.4347   -7.5297  -18.9798 C   0  0  0  0  0  0  0  0  0  0  0  0
   21.6343   -7.3158  -18.0324 C   0  0  0  0  0  0  0  0  0  0  0  0
   21.1943   -8.0077  -16.7738 C   0  0  1  0  0  0  0  0  0  0  0  0
   20.6845   -7.0417  -15.7690 C   0  0  0  0  0  0  0  0  0  0  0  0
   19.4740   -6.7556  -15.7526 O   0  0  0  0  0  0  0  0  0  0  0  0
   22.2317   -5.5590  -12.7229 C   0  0  0  0  0  0  0  0  0  0  0  0
   21.1692   -5.5120  -13.8290 C   0  0  2  0  0  0  0  0  0  0  0  0
   21.5976   -6.4713  -14.8535 N   0  0  0  0  0  0  0  0  0  0  0  0
   21.1883   -4.1360  -14.3676 C   0  0  0  0  0  0  0  0  0  0  0  0
   21.7950   -3.9205  -15.4380 O   0  0  0  0  0  0  0  0  0  0  0  0
   20.5619   -3.0850  -13.7320 O   0  0  0  0  0  0  0  0  0  0  0  0
  2  1  1  1
  3  2  1  0
  4  5  1  1
  4  2  1  0
  6  4  1  0
  7  6  2  0
  8 12  1  0
  8  6  1  0
  9  8  1  0
 10 11  1  0
 10  9  1  0
 11 12  1  0
 12 13  1  1
 13 14  2  0
 13 17  1  0
 16 15  1  1
 17 16  1  0
 18 20  1  0
 18 16  1  0
 19 18  2  0
M  END
$$$$
