NRW.pdb
     RDKit          3D

 34 35  0  0  1  0  0  0  0  0999 V2000
   10.3707  -20.5513   19.0478 N   0  0  0  0  0  0  0  0  0  0  0  0
   10.1892  -19.4860   18.1281 C   0  0  0  0  0  0  0  0  0  0  0  0
   10.3708  -19.6860   16.9091 O   0  0  0  0  0  0  0  0  0  0  0  0
    9.7901  -18.1488   18.5885 C   0  0  0  0  0  0  0  0  0  0  0  0
    9.6689  -18.1140   20.0997 C   0  0  2  0  0  0  0  0  0  0  0  0
    8.3912  -18.6293   20.5354 N   0  0  0  0  0  0  0  0  0  0  0  0
    9.9449  -16.7698   20.6402 C   0  0  0  0  0  0  0  0  0  0  0  0
   11.0695  -16.2014   20.5570 O   0  0  0  0  0  0  0  0  0  0  0  0
    8.8427  -15.4971   17.4450 N   0  0  0  0  0  0  0  0  0  0  0  0
    8.5041  -14.1999   16.9906 C   0  0  0  0  0  0  0  0  0  0  0  0
    8.5865  -13.8951   15.7170 N   0  0  0  0  0  0  0  0  0  0  0  0
    8.0644  -13.1688   17.8604 N   0  0  0  0  0  0  0  0  0  0  0  0
    8.4693  -13.1205   19.2482 C   0  0  0  0  0  0  0  0  0  0  0  0
    7.5791  -14.0704   20.0134 C   0  0  0  0  0  0  0  0  0  0  0  0
    7.8046  -13.9724   21.5125 C   0  0  0  0  0  0  0  0  0  0  0  0
    9.0313  -14.7385   21.8439 C   0  0  2  0  0  0  0  0  0  0  0  0
    8.9035  -16.0796   21.2837 N   0  0  0  0  0  0  0  0  0  0  0  0
    9.4279  -14.7463   23.2405 C   0  0  0  0  0  0  0  0  0  0  0  0
    9.6632  -13.6599   23.8081 O   0  0  0  0  0  0  0  0  0  0  0  0
    8.4775  -12.9519   15.3451 N   0  0  0  0  0  0  0  0  0  0  0  0
    9.5515  -15.9455   23.9617 C   0  0  1  0  0  0  0  0  0  0  0  0
    9.9739  -16.0408   25.3327 C   0  0  0  0  0  0  0  0  0  0  0  0
    8.7865  -16.4696   26.1646 C   0  0  0  0  0  0  0  0  0  0  0  0
    7.6172  -15.5818   25.9537 C   0  0  0  0  0  0  0  0  0  0  0  0
    6.4329  -15.9509   25.3538 N   0  0  0  0  0  0  0  0  0  0  0  0
    5.6439  -14.8589   25.3630 C   0  0  0  0  0  0  0  0  0  0  0  0
    6.3052  -13.8314   25.9489 C   0  0  0  0  0  0  0  0  0  0  0  0
    5.9465  -12.5246   26.2004 C   0  0  0  0  0  0  0  0  0  0  0  0
    6.8284  -11.6710   26.8236 C   0  0  0  0  0  0  0  0  0  0  0  0
    8.0822  -12.1071   27.2059 C   0  0  0  0  0  0  0  0  0  0  0  0
    8.4564  -13.4058   26.9634 C   0  0  0  0  0  0  0  0  0  0  0  0
    7.5730  -14.2581   26.3399 C   0  0  0  0  0  0  0  0  0  0  0  0
   11.1500  -16.9400   25.5314 O   0  0  0  0  0  0  0  0  0  0  0  0
   11.6114  -17.5375   24.5314 O   0  0  0  0  0  0  0  0  0  0  0  0
  2  1  1  0
  2  4  1  0
  3  2  2  0
  5  4  1  0
  5  6  1  6
  7  8  2  0
  7  5  1  0
  9 10  1  0
 10 12  1  0
 11 10  2  0
 12 13  1  0
 13 14  1  0
 14 15  1  0
 16 15  1  1
 16 17  1  0
 17  7  1  0
 18 16  1  0
 19 18  2  0
 20 18  1  0
 21 22  1  1
 21 20  1  0
 22 23  1  0
 23 31  1  0
 24 23  2  0
 24 25  1  0
 25 26  1  0
 26 27  1  0
 27 28  2  0
 29 28  1  0
 30 29  2  0
 31 26  2  0
 31 30  1  0
 32 34  1  0
 32 21  1  0
 33 32  2  0
M  END
$$$$
