NRW.pdb
     RDKit          3D

 34 35  0  0  1  0  0  0  0  0999 V2000
    7.8044  -12.0347   17.4341 N   0  0  0  0  0  0  0  0  0  0  0  0
    7.7016  -13.4498   17.4593 C   0  0  0  0  0  0  0  0  0  0  0  0
    7.7076  -14.0878   16.3860 O   0  0  0  0  0  0  0  0  0  0  0  0
    7.5880  -14.1776   18.7308 C   0  0  0  0  0  0  0  0  0  0  0  0
    8.9570  -14.4175   19.3374 C   0  0  2  0  0  0  0  0  0  0  0  0
    9.8718  -14.9707   18.3652 N   0  0  0  0  0  0  0  0  0  0  0  0
    8.8774  -15.2365   20.5614 C   0  0  0  0  0  0  0  0  0  0  0  0
    8.0669  -15.0082   21.5026 O   0  0  0  0  0  0  0  0  0  0  0  0
   12.5603  -21.8600   18.0961 N   0  0  0  0  0  0  0  0  0  0  0  0
   12.3043  -21.4312   19.4207 C   0  0  0  0  0  0  0  0  0  0  0  0
   13.2749  -21.3656   20.3013 N   0  0  0  0  0  0  0  0  0  0  0  0
   11.0135  -21.0538   19.8729 N   0  0  0  0  0  0  0  0  0  0  0  0
   10.3674  -19.8466   19.4068 C   0  0  0  0  0  0  0  0  0  0  0  0
    9.6093  -19.2589   20.5731 C   0  0  0  0  0  0  0  0  0  0  0  0
   10.5150  -18.4493   21.4854 C   0  0  0  0  0  0  0  0  0  0  0  0
    9.7972  -17.2058   21.8599 C   0  0  2  0  0  0  0  0  0  0  0  0
    9.7485  -16.3315   20.6928 N   0  0  0  0  0  0  0  0  0  0  0  0
   10.2662  -16.5264   23.0541 C   0  0  0  0  0  0  0  0  0  0  0  0
   11.1157  -15.6192   22.9391 O   0  0  0  0  0  0  0  0  0  0  0  0
   13.1491  -21.0827   21.2729 N   0  0  0  0  0  0  0  0  0  0  0  0
    9.7858  -16.8677   24.3292 C   0  0  1  0  0  0  0  0  0  0  0  0
   10.1526  -16.2044   25.5510 C   0  0  0  0  0  0  0  0  0  0  0  0
    9.6580  -14.7774   25.4813 C   0  0  0  0  0  0  0  0  0  0  0  0
    8.1829  -14.6990   25.6155 C   0  0  0  0  0  0  0  0  0  0  0  0
    7.2982  -15.7075   25.3007 N   0  0  0  0  0  0  0  0  0  0  0  0
    6.0665  -15.2316   25.5678 C   0  0  0  0  0  0  0  0  0  0  0  0
    6.1660  -13.9639   26.0361 C   0  0  0  0  0  0  0  0  0  0  0  0
    5.2168  -13.0524   26.4460 C   0  0  0  0  0  0  0  0  0  0  0  0
    5.5976  -11.8051   26.8861 C   0  0  0  0  0  0  0  0  0  0  0  0
    6.9312  -11.4468   26.9246 C   0  0  0  0  0  0  0  0  0  0  0  0
    7.8904  -12.3422   26.5202 C   0  0  0  0  0  0  0  0  0  0  0  0
    7.5077  -13.5893   26.0802 C   0  0  0  0  0  0  0  0  0  0  0  0
    9.6669  -16.9055   26.7772 O   0  0  0  0  0  0  0  0  0  0  0  0
   10.0341  -16.4671   27.8920 O   0  0  0  0  0  0  0  0  0  0  0  0
  2  1  1  0
  2  4  1  0
  3  2  2  0
  5  4  1  0
  5  6  1  6
  7  8  2  0
  7  5  1  0
  9 10  1  0
 10 12  1  0
 11 10  2  0
 12 13  1  0
 13 14  1  0
 14 15  1  0
 16 15  1  6
 16 17  1  0
 17  7  1  0
 18 16  1  0
 19 18  2  0
 20 18  1  0
 21 22  1  1
 21 20  1  0
 22 23  1  0
 23 31  1  0
 24 23  2  0
 24 25  1  0
 25 26  1  0
 26 27  1  0
 27 28  2  0
 29 28  1  0
 30 29  2  0
 31 26  2  0
 31 30  1  0
 32 34  1  0
 32 21  1  0
 33 32  2  0
M  END
$$$$
