NRW.pdb
     RDKit          3D

 34 35  0  0  1  0  0  0  0  0999 V2000
    7.5135  -12.0603   17.0042 N   0  0  0  0  0  0  0  0  0  0  0  0
    7.5157  -13.4789   16.9710 C   0  0  0  0  0  0  0  0  0  0  0  0
    7.7113  -14.0702   15.8887 O   0  0  0  0  0  0  0  0  0  0  0  0
    7.2912  -14.2647   18.1923 C   0  0  0  0  0  0  0  0  0  0  0  0
    8.5690  -14.3793   19.0008 C   0  0  2  0  0  0  0  0  0  0  0  0
    9.6646  -14.8519   18.1859 N   0  0  0  0  0  0  0  0  0  0  0  0
    8.3783  -15.1977   20.2128 C   0  0  0  0  0  0  0  0  0  0  0  0
    7.5042  -14.9520   21.0906 O   0  0  0  0  0  0  0  0  0  0  0  0
   12.8137  -18.5706   17.0539 N   0  0  0  0  0  0  0  0  0  0  0  0
   13.0754  -19.4344   18.1444 C   0  0  0  0  0  0  0  0  0  0  0  0
   14.3057  -19.7774   18.4450 N   0  0  0  0  0  0  0  0  0  0  0  0
   12.0503  -19.9736   18.9638 N   0  0  0  0  0  0  0  0  0  0  0  0
   10.7697  -19.3173   19.1101 C   0  0  0  0  0  0  0  0  0  0  0  0
   10.8016  -18.5452   20.4075 C   0  0  0  0  0  0  0  0  0  0  0  0
    9.4591  -18.5782   21.1179 C   0  0  0  0  0  0  0  0  0  0  0  0
    9.1407  -17.1991   21.5631 C   0  0  2  0  0  0  0  0  0  0  0  0
    9.2118  -16.3125   20.4065 N   0  0  0  0  0  0  0  0  0  0  0  0
    9.8904  -16.7009   22.7022 C   0  0  0  0  0  0  0  0  0  0  0  0
   11.0898  -16.3920   22.5480 O   0  0  0  0  0  0  0  0  0  0  0  0
   14.5537  -20.4255   19.1923 N   0  0  0  0  0  0  0  0  0  0  0  0
    9.2962  -16.5604   23.9673 C   0  0  1  0  0  0  0  0  0  0  0  0
   10.0144  -16.3428   25.1937 C   0  0  0  0  0  0  0  0  0  0  0  0
    9.7572  -14.9236   25.6469 C   0  0  0  0  0  0  0  0  0  0  0  0
    8.3084  -14.6066   25.6682 C   0  0  0  0  0  0  0  0  0  0  0  0
    7.2887  -15.5245   25.5406 N   0  0  0  0  0  0  0  0  0  0  0  0
    6.1374  -14.8286   25.6143 C   0  0  0  0  0  0  0  0  0  0  0  0
    6.4171  -13.5135   25.7828 C   0  0  0  0  0  0  0  0  0  0  0  0
    5.6077  -12.4053   25.9121 C   0  0  0  0  0  0  0  0  0  0  0  0
    6.1628  -11.1563   26.0754 C   0  0  0  0  0  0  0  0  0  0  0  0
    7.5339  -10.9926   26.1123 C   0  0  0  0  0  0  0  0  0  0  0  0
    8.3555  -12.0855   25.9852 C   0  0  0  0  0  0  0  0  0  0  0  0
    7.7985  -13.3339   25.8219 C   0  0  0  0  0  0  0  0  0  0  0  0
    9.6878  -17.3379   26.2586 O   0  0  0  0  0  0  0  0  0  0  0  0
    8.7375  -18.1289   26.0556 O   0  0  0  0  0  0  0  0  0  0  0  0
  2  1  1  0
  2  4  1  0
  3  2  2  0
  5  4  1  0
  5  6  1  6
  7  8  2  0
  7  5  1  0
  9 10  1  0
 10 12  1  0
 11 10  2  0
 12 13  1  0
 13 14  1  0
 14 15  1  0
 16 15  1  6
 16 17  1  0
 17  7  1  0
 18 16  1  0
 19 18  2  0
 20 18  1  0
 21 22  1  1
 21 20  1  0
 22 23  1  0
 23 31  1  0
 24 23  2  0
 24 25  1  0
 25 26  1  0
 26 27  1  0
 27 28  2  0
 29 28  1  0
 30 29  2  0
 31 26  2  0
 31 30  1  0
 32 34  1  0
 32 21  1  0
 33 32  2  0
M  END
$$$$
