NRW.pdb
     RDKit          3D

 34 35  0  0  1  0  0  0  0  0999 V2000
   13.4892  -16.7929   14.8936 N   0  0  0  0  0  0  0  0  0  0  0  0
   13.0119  -17.8161   15.7531 C   0  0  0  0  0  0  0  0  0  0  0  0
   13.6626  -18.8751   15.8720 O   0  0  0  0  0  0  0  0  0  0  0  0
   11.7617  -17.6488   16.5071 C   0  0  0  0  0  0  0  0  0  0  0  0
   12.0012  -17.8323   17.9933 C   0  0  2  0  0  0  0  0  0  0  0  0
   12.0672  -19.2322   18.3449 N   0  0  0  0  0  0  0  0  0  0  0  0
   11.0107  -17.0974   18.8021 C   0  0  0  0  0  0  0  0  0  0  0  0
   10.8478  -15.8467   18.7391 O   0  0  0  0  0  0  0  0  0  0  0  0
    6.0843  -18.3913   16.9943 N   0  0  0  0  0  0  0  0  0  0  0  0
    6.3431  -19.7830   16.9941 C   0  0  0  0  0  0  0  0  0  0  0  0
    6.2709  -20.4761   15.8823 N   0  0  0  0  0  0  0  0  0  0  0  0
    6.6886  -20.5029   18.1669 N   0  0  0  0  0  0  0  0  0  0  0  0
    6.7556  -19.8608   19.4612 C   0  0  0  0  0  0  0  0  0  0  0  0
    7.8200  -18.7926   19.3827 C   0  0  0  0  0  0  0  0  0  0  0  0
    8.0795  -18.1530   20.7360 C   0  0  0  0  0  0  0  0  0  0  0  0
    9.2237  -17.2194   20.5914 C   0  0  2  0  0  0  0  0  0  0  0  0
   10.2018  -17.8234   19.6929 N   0  0  0  0  0  0  0  0  0  0  0  0
    9.8162  -16.7312   21.8237 C   0  0  0  0  0  0  0  0  0  0  0  0
   10.5552  -15.7263   21.7823 O   0  0  0  0  0  0  0  0  0  0  0  0
    6.5414  -21.4558   15.7990 N   0  0  0  0  0  0  0  0  0  0  0  0
    9.5757  -17.3638   23.0547 C   0  0  2  0  0  0  0  0  0  0  0  0
    9.1662  -16.6923   24.2583 C   0  0  0  0  0  0  0  0  0  0  0  0
    7.9365  -15.8700   23.9460 C   0  0  0  0  0  0  0  0  0  0  0  0
    7.4456  -15.1389   25.1395 C   0  0  0  0  0  0  0  0  0  0  0  0
    6.9562  -15.7228   26.2877 N   0  0  0  0  0  0  0  0  0  0  0  0
    6.6233  -14.7143   27.1166 C   0  0  0  0  0  0  0  0  0  0  0  0
    6.8920  -13.5304   26.5148 C   0  0  0  0  0  0  0  0  0  0  0  0
    6.7361  -12.2254   26.9304 C   0  0  0  0  0  0  0  0  0  0  0  0
    7.0970  -11.1862   26.1031 C   0  0  0  0  0  0  0  0  0  0  0  0
    7.6193  -11.4318   24.8480 C   0  0  0  0  0  0  0  0  0  0  0  0
    7.7818  -12.7255   24.4175 C   0  0  0  0  0  0  0  0  0  0  0  0
    7.4202  -13.7636   25.2463 C   0  0  0  0  0  0  0  0  0  0  0  0
    8.9426  -17.6181   25.4090 O   0  0  0  0  0  0  0  0  0  0  0  0
    8.4157  -18.7310   25.1771 O   0  0  0  0  0  0  0  0  0  0  0  0
  2  1  1  0
  2  4  1  0
  3  2  2  0
  5  4  1  0
  5  6  1  6
  7  8  2  0
  7  5  1  0
  9 10  1  0
 10 12  1  0
 11 10  2  0
 12 13  1  0
 13 14  1  0
 14 15  1  0
 16 15  1  1
 16 17  1  0
 17  7  1  0
 18 16  1  0
 19 18  2  0
 20 18  1  0
 21 22  1  6
 21 20  1  0
 22 23  1  0
 23 31  1  0
 24 23  2  0
 24 25  1  0
 25 26  1  0
 26 27  1  0
 27 28  2  0
 29 28  1  0
 30 29  2  0
 31 26  2  0
 31 30  1  0
 32 34  1  0
 32 21  1  0
 33 32  2  0
M  END
$$$$
