NRW.pdb
     RDKit          3D

 34 35  0  0  1  0  0  0  0  0999 V2000
    7.6713  -11.5774   18.2885 N   0  0  0  0  0  0  0  0  0  0  0  0
    8.4379  -12.5563   18.9723 C   0  0  0  0  0  0  0  0  0  0  0  0
    9.6813  -12.5572   18.8571 O   0  0  0  0  0  0  0  0  0  0  0  0
    7.7906  -13.5709   19.8156 C   0  0  0  0  0  0  0  0  0  0  0  0
    8.2469  -14.9639   19.4272 C   0  0  2  0  0  0  0  0  0  0  0  0
    7.9916  -15.2288   18.0298 N   0  0  0  0  0  0  0  0  0  0  0  0
    7.6674  -15.9952   20.3081 C   0  0  0  0  0  0  0  0  0  0  0  0
    6.7347  -16.7702   19.9559 O   0  0  0  0  0  0  0  0  0  0  0  0
    7.8463  -22.1737   22.4805 N   0  0  0  0  0  0  0  0  0  0  0  0
    9.2363  -22.0175   22.2621 C   0  0  0  0  0  0  0  0  0  0  0  0
   10.0988  -22.8116   22.8512 N   0  0  0  0  0  0  0  0  0  0  0  0
    9.7754  -21.0165   21.4133 N   0  0  0  0  0  0  0  0  0  0  0  0
    8.9268  -20.0981   20.6863 C   0  0  0  0  0  0  0  0  0  0  0  0
    8.9468  -18.7811   21.4250 C   0  0  0  0  0  0  0  0  0  0  0  0
    7.5728  -18.4106   21.9568 C   0  0  0  0  0  0  0  0  0  0  0  0
    7.6725  -17.0760   22.5976 C   0  0  2  0  0  0  0  0  0  0  0  0
    8.1771  -16.1267   21.6112 N   0  0  0  0  0  0  0  0  0  0  0  0
    8.3940  -17.0183   23.8561 C   0  0  0  0  0  0  0  0  0  0  0  0
    8.0909  -17.8194   24.7639 O   0  0  0  0  0  0  0  0  0  0  0  0
   11.1024  -22.8028   22.6703 N   0  0  0  0  0  0  0  0  0  0  0  0
    9.4208  -16.0840   24.0713 C   0  0  2  0  0  0  0  0  0  0  0  0
   10.0725  -15.8540   25.3321 C   0  0  0  0  0  0  0  0  0  0  0  0
    9.0274  -15.9158   26.4228 C   0  0  0  0  0  0  0  0  0  0  0  0
    7.8363  -15.0965   26.0910 C   0  0  0  0  0  0  0  0  0  0  0  0
    6.5838  -15.5910   25.7988 N   0  0  0  0  0  0  0  0  0  0  0  0
    5.7982  -14.5230   25.5592 C   0  0  0  0  0  0  0  0  0  0  0  0
    6.5276  -13.3891   25.6946 C   0  0  0  0  0  0  0  0  0  0  0  0
    6.2000  -12.0572   25.5581 C   0  0  0  0  0  0  0  0  0  0  0  0
    7.1538  -11.0846   25.7558 C   0  0  0  0  0  0  0  0  0  0  0  0
    8.4495  -11.4247   26.0928 C   0  0  0  0  0  0  0  0  0  0  0  0
    8.7937  -12.7466   26.2332 C   0  0  0  0  0  0  0  0  0  0  0  0
    7.8384  -13.7180   26.0350 C   0  0  0  0  0  0  0  0  0  0  0  0
   11.2090  -16.7874   25.5929 O   0  0  0  0  0  0  0  0  0  0  0  0
   11.4362  -17.6895   24.7536 O   0  0  0  0  0  0  0  0  0  0  0  0
  2  1  1  0
  2  4  1  0
  3  2  2  0
  5  4  1  0
  5  6  1  6
  7  8  2  0
  7  5  1  0
  9 10  1  0
 10 12  1  0
 11 10  2  0
 12 13  1  0
 13 14  1  0
 14 15  1  0
 16 15  1  6
 16 17  1  0
 17  7  1  0
 18 16  1  0
 19 18  2  0
 20 18  1  0
 21 22  1  6
 21 20  1  0
 22 23  1  0
 23 31  1  0
 24 23  2  0
 24 25  1  0
 25 26  1  0
 26 27  1  0
 27 28  2  0
 29 28  1  0
 30 29  2  0
 31 26  2  0
 31 30  1  0
 32 34  1  0
 32 21  1  0
 33 32  2  0
M  END
$$$$
