NRW.pdb
     RDKit          3D

 34 35  0  0  1  0  0  0  0  0999 V2000
   11.7570  -21.6605   18.7785 N   0  0  0  0  0  0  0  0  0  0  0  0
   10.6644  -20.7577   18.7086 C   0  0  0  0  0  0  0  0  0  0  0  0
    9.5518  -21.1653   18.3148 O   0  0  0  0  0  0  0  0  0  0  0  0
   10.8218  -19.3481   19.0931 C   0  0  0  0  0  0  0  0  0  0  0  0
   10.1586  -19.0779   20.4298 C   0  0  2  0  0  0  0  0  0  0  0  0
    8.7391  -19.3424   20.3740 N   0  0  0  0  0  0  0  0  0  0  0  0
   10.4567  -17.7208   20.9243 C   0  0  0  0  0  0  0  0  0  0  0  0
   11.6282  -17.2699   21.0624 O   0  0  0  0  0  0  0  0  0  0  0  0
    8.2621  -13.5502   15.6018 N   0  0  0  0  0  0  0  0  0  0  0  0
    7.9932  -13.9250   16.9402 C   0  0  0  0  0  0  0  0  0  0  0  0
    7.7947  -15.1833   17.2548 N   0  0  0  0  0  0  0  0  0  0  0  0
    7.9219  -12.9883   18.0034 N   0  0  0  0  0  0  0  0  0  0  0  0
    7.5460  -13.3852   19.3425 C   0  0  0  0  0  0  0  0  0  0  0  0
    8.7029  -14.1599   19.9272 C   0  0  0  0  0  0  0  0  0  0  0  0
    8.3731  -14.7163   21.3018 C   0  0  0  0  0  0  0  0  0  0  0  0
    9.5331  -15.5179   21.7637 C   0  0  2  0  0  0  0  0  0  0  0  0
    9.3826  -16.8796   21.2618 N   0  0  0  0  0  0  0  0  0  0  0  0
    9.8238  -15.4701   23.1853 C   0  0  0  0  0  0  0  0  0  0  0  0
   10.5618  -14.5628   23.6211 O   0  0  0  0  0  0  0  0  0  0  0  0
    7.6113  -15.5154   18.2014 N   0  0  0  0  0  0  0  0  0  0  0  0
    9.2939  -16.4192   24.0752 C   0  0  1  0  0  0  0  0  0  0  0  0
    9.6570  -16.5397   25.4612 C   0  0  0  0  0  0  0  0  0  0  0  0
    8.3877  -16.6604   26.2737 C   0  0  0  0  0  0  0  0  0  0  0  0
    7.4488  -15.5461   25.9967 C   0  0  0  0  0  0  0  0  0  0  0  0
    6.2572  -15.6577   25.3137 N   0  0  0  0  0  0  0  0  0  0  0  0
    5.7171  -14.4238   25.2846 C   0  0  0  0  0  0  0  0  0  0  0  0
    6.5381  -13.5584   25.9274 C   0  0  0  0  0  0  0  0  0  0  0  0
    6.4461  -12.2050   26.1719 C   0  0  0  0  0  0  0  0  0  0  0  0
    7.4431  -11.5560   26.8643 C   0  0  0  0  0  0  0  0  0  0  0  0
    8.5478  -12.2464   27.3241 C   0  0  0  0  0  0  0  0  0  0  0  0
    8.6560  -13.5950   27.0897 C   0  0  0  0  0  0  0  0  0  0  0  0
    7.6579  -14.2425   26.3969 C   0  0  0  0  0  0  0  0  0  0  0  0
   10.6036  -17.6629   25.7323 O   0  0  0  0  0  0  0  0  0  0  0  0
   10.9015  -18.4254   24.7838 O   0  0  0  0  0  0  0  0  0  0  0  0
  2  1  1  0
  2  4  1  0
  3  2  2  0
  5  4  1  0
  5  6  1  6
  7  8  2  0
  7  5  1  0
  9 10  1  0
 10 12  1  0
 11 10  2  0
 12 13  1  0
 13 14  1  0
 14 15  1  0
 16 15  1  1
 16 17  1  0
 17  7  1  0
 18 16  1  0
 19 18  2  0
 20 18  1  0
 21 22  1  6
 21 20  1  0
 22 23  1  0
 23 31  1  0
 24 23  2  0
 24 25  1  0
 25 26  1  0
 26 27  1  0
 27 28  2  0
 29 28  1  0
 30 29  2  0
 31 26  2  0
 31 30  1  0
 32 34  1  0
 32 21  1  0
 33 32  2  0
M  END
$$$$
