NRW.pdb
     RDKit          3D

 34 35  0  0  1  0  0  0  0  0999 V2000
    7.8103  -22.4009   21.9656 N   0  0  0  0  0  0  0  0  0  0  0  0
    8.3466  -21.8053   23.1366 C   0  0  0  0  0  0  0  0  0  0  0  0
    8.2050  -22.3751   24.2387 O   0  0  0  0  0  0  0  0  0  0  0  0
    9.0674  -20.5263   23.0728 C   0  0  0  0  0  0  0  0  0  0  0  0
    8.9428  -19.9068   21.6943 C   0  0  2  0  0  0  0  0  0  0  0  0
    9.3437  -20.8364   20.6634 N   0  0  0  0  0  0  0  0  0  0  0  0
    9.6645  -18.6238   21.6036 C   0  0  0  0  0  0  0  0  0  0  0  0
   10.3236  -18.2639   20.5883 O   0  0  0  0  0  0  0  0  0  0  0  0
    7.5865  -13.4945   17.7048 N   0  0  0  0  0  0  0  0  0  0  0  0
    8.0518  -12.8803   18.8924 C   0  0  0  0  0  0  0  0  0  0  0  0
    8.2469  -11.5837   18.9420 N   0  0  0  0  0  0  0  0  0  0  0  0
    8.3314  -13.6078   20.0779 N   0  0  0  0  0  0  0  0  0  0  0  0
    7.6258  -14.8270   20.4062 C   0  0  0  0  0  0  0  0  0  0  0  0
    8.2395  -15.3796   21.6704 C   0  0  0  0  0  0  0  0  0  0  0  0
    9.7145  -15.6961   21.4909 C   0  0  0  0  0  0  0  0  0  0  0  0
   10.1839  -16.4050   22.7069 C   0  0  2  0  0  0  0  0  0  0  0  0
    9.6196  -17.7505   22.7038 N   0  0  0  0  0  0  0  0  0  0  0  0
    9.9898  -15.7152   23.9696 C   0  0  0  0  0  0  0  0  0  0  0  0
   10.3438  -14.5224   24.0673 O   0  0  0  0  0  0  0  0  0  0  0  0
    8.5878  -11.0864   19.7645 N   0  0  0  0  0  0  0  0  0  0  0  0
    9.4148  -16.3599   25.0773 C   0  0  1  0  0  0  0  0  0  0  0  0
    9.9809  -16.3865   26.3987 C   0  0  0  0  0  0  0  0  0  0  0  0
    8.9408  -15.8743   27.3691 C   0  0  0  0  0  0  0  0  0  0  0  0
    7.7625  -15.3108   26.6664 C   0  0  0  0  0  0  0  0  0  0  0  0
    6.7636  -16.0467   26.0669 N   0  0  0  0  0  0  0  0  0  0  0  0
    5.8925  -15.1582   25.5504 C   0  0  0  0  0  0  0  0  0  0  0  0
    6.3241  -13.9008   25.8131 C   0  0  0  0  0  0  0  0  0  0  0  0
    5.8035  -12.6618   25.5071 C   0  0  0  0  0  0  0  0  0  0  0  0
    6.4585  -11.5175   25.9024 C   0  0  0  0  0  0  0  0  0  0  0  0
    7.6430  -11.5906   26.6094 C   0  0  0  0  0  0  0  0  0  0  0  0
    8.1761  -12.8165   26.9231 C   0  0  0  0  0  0  0  0  0  0  0  0
    7.5197  -13.9599   26.5268 C   0  0  0  0  0  0  0  0  0  0  0  0
   10.5027  -17.7288   26.7951 O   0  0  0  0  0  0  0  0  0  0  0  0
   10.2884  -18.6954   26.0271 O   0  0  0  0  0  0  0  0  0  0  0  0
  2  1  1  0
  2  4  1  0
  3  2  2  0
  5  4  1  0
  5  6  1  6
  7  8  2  0
  7  5  1  0
  9 10  1  0
 10 12  1  0
 11 10  2  0
 12 13  1  0
 13 14  1  0
 14 15  1  0
 16 15  1  6
 16 17  1  0
 17  7  1  0
 18 16  1  0
 19 18  2  0
 20 18  1  0
 21 22  1  1
 21 20  1  0
 22 23  1  0
 23 31  1  0
 24 23  2  0
 24 25  1  0
 25 26  1  0
 26 27  1  0
 27 28  2  0
 29 28  1  0
 30 29  2  0
 31 26  2  0
 31 30  1  0
 32 34  1  0
 32 21  1  0
 33 32  2  0
M  END
$$$$
