TRF.pdb
     RDKit          3D

 30 30  0  0  1  0  0  0  0  0999 V2000
   27.0692  -15.0148  -15.2894 C   0  0  0  0  0  0  0  0  0  0  0  0
   26.1575  -16.2211  -15.3512 C   0  0  1  0  0  0  0  0  0  0  0  0
   24.8526  -15.7301  -15.3400 O   0  0  0  0  0  0  0  0  0  0  0  0
   26.4079  -17.0503  -16.5725 C   0  0  2  0  0  0  0  0  0  0  0  0
   26.2322  -16.1991  -17.7241 N   0  0  0  0  0  0  0  0  0  0  0  0
   25.5199  -18.2500  -16.6314 C   0  0  0  0  0  0  0  0  0  0  0  0
   24.3641  -18.1041  -17.0962 O   0  0  0  0  0  0  0  0  0  0  0  0
   24.3766  -26.7447  -14.9677 N   0  0  0  0  0  0  0  0  0  0  0  0
   24.4180  -26.3487  -16.3319 C   0  0  0  0  0  0  0  0  0  0  0  0
   23.7003  -26.9768  -17.2121 N   0  0  0  0  0  0  0  0  0  0  0  0
   25.2589  -25.2603  -16.6835 N   0  0  0  0  0  0  0  0  0  0  0  0
   25.8710  -24.4610  -15.6551 C   0  0  0  0  0  0  0  0  0  0  0  0
   25.0659  -23.1650  -15.5662 C   0  0  0  0  0  0  0  0  0  0  0  0
   25.9488  -21.9792  -15.7915 C   0  0  0  0  0  0  0  0  0  0  0  0
   25.1583  -20.6571  -15.8586 C   0  0  2  0  0  0  0  0  0  0  0  0
   25.9326  -19.5236  -16.1879 N   0  0  0  0  0  0  0  0  0  0  0  0
   24.2562  -20.5897  -14.7345 C   0  0  0  0  0  0  0  0  0  0  0  0
   24.7438  -20.1260  -13.6461 O   0  0  0  0  0  0  0  0  0  0  0  0
   23.7193  -26.7409  -18.2207 N   0  0  0  0  0  0  0  0  0  0  0  0
   22.9079  -20.9750  -14.7019 C   0  0  2  0  0  0  0  0  0  0  0  0
   22.0687  -20.7291  -13.5405 C   0  0  0  0  0  0  0  0  0  0  0  0
   21.9935  -19.2435  -13.3730 C   0  0  0  0  0  0  0  0  0  0  0  0
   21.2630  -18.5348  -14.4392 C   0  0  0  0  0  0  0  0  0  0  0  0
   19.9337  -18.6902  -14.6990 C   0  0  0  0  0  0  0  0  0  0  0  0
   19.3649  -17.9649  -15.7212 C   0  0  0  0  0  0  0  0  0  0  0  0
   20.0623  -17.0768  -16.5127 C   0  0  0  0  0  0  0  0  0  0  0  0
   21.4061  -16.9277  -16.2409 C   0  0  0  0  0  0  0  0  0  0  0  0
   21.9856  -17.6480  -15.2208 C   0  0  0  0  0  0  0  0  0  0  0  0
   20.7452  -21.3353  -13.6873 O   0  0  0  0  0  0  0  0  0  0  0  0
   19.8888  -21.2443  -12.7497 O   0  0  0  0  0  0  0  0  0  0  0  0
  2  1  1  6
  2  3  1  0
  4  2  1  0
  4  5  1  6
  6  7  2  0
  6  4  1  0
  9  8  1  0
 10  9  2  0
 11  9  1  0
 12 11  1  0
 13 12  1  0
 13 14  1  0
 15 14  1  1
 15 16  1  0
 16  6  1  0
 17 19  1  0
 17 15  1  0
 18 17  2  0
 20 19  1  0
 20 28  1  0
 21 22  1  0
 20 21  1  6
 22 23  2  0
 23 24  1  0
 25 24  2  0
 26 25  1  0
 27 22  1  0
 27 26  2  0
 28 30  1  0
 29 28  2  0
M  END
$$$$
