TRF.pdb
     RDKit          3D

 30 30  0  0  1  0  0  0  0  0999 V2000
   27.0417  -24.1059  -16.3635 C   0  0  0  0  0  0  0  0  0  0  0  0
   25.6256  -23.5723  -16.3552 C   0  0  1  0  0  0  0  0  0  0  0  0
   24.8656  -24.4591  -17.1167 O   0  0  0  0  0  0  0  0  0  0  0  0
   25.0797  -23.4545  -14.9659 C   0  0  2  0  0  0  0  0  0  0  0  0
   23.7056  -23.0274  -15.0694 N   0  0  0  0  0  0  0  0  0  0  0  0
   25.8857  -22.5234  -14.1203 C   0  0  0  0  0  0  0  0  0  0  0  0
   27.1225  -22.7177  -14.0460 O   0  0  0  0  0  0  0  0  0  0  0  0
   26.6449  -18.2877  -16.7302 N   0  0  0  0  0  0  0  0  0  0  0  0
   26.6073  -16.9302  -16.3114 C   0  0  0  0  0  0  0  0  0  0  0  0
   26.3767  -15.9904  -17.1761 N   0  0  0  0  0  0  0  0  0  0  0  0
   26.8275  -16.6516  -14.9368 N   0  0  0  0  0  0  0  0  0  0  0  0
   26.9420  -17.7312  -13.9921 C   0  0  0  0  0  0  0  0  0  0  0  0
   25.5946  -18.4525  -13.9814 C   0  0  0  0  0  0  0  0  0  0  0  0
   25.3435  -19.0813  -12.6480 C   0  0  0  0  0  0  0  0  0  0  0  0
   25.9161  -20.5095  -12.5501 C   0  0  2  0  0  0  0  0  0  0  0  0
   25.3096  -21.4479  -13.4128 N   0  0  0  0  0  0  0  0  0  0  0  0
   26.1004  -20.8494  -11.1600 C   0  0  0  0  0  0  0  0  0  0  0  0
   25.1717  -21.5450  -10.6207 O   0  0  0  0  0  0  0  0  0  0  0  0
   26.2968  -14.9924  -16.9098 N   0  0  0  0  0  0  0  0  0  0  0  0
   27.1812  -20.5027  -10.3359 C   0  0  2  0  0  0  0  0  0  0  0  0
   27.1960  -20.8207   -8.9174 C   0  0  0  0  0  0  0  0  0  0  0  0
   28.4226  -20.1795   -8.3473 C   0  0  0  0  0  0  0  0  0  0  0  0
   28.4807  -20.1508   -6.8747 C   0  0  0  0  0  0  0  0  0  0  0  0
   27.7217  -19.3362   -6.0878 C   0  0  0  0  0  0  0  0  0  0  0  0
   27.8643  -19.4080   -4.7207 C   0  0  0  0  0  0  0  0  0  0  0  0
   28.7384  -20.2638   -4.0840 C   0  0  0  0  0  0  0  0  0  0  0  0
   29.5008  -21.0830   -4.8898 C   0  0  0  0  0  0  0  0  0  0  0  0
   29.3665  -21.0197   -6.2584 C   0  0  0  0  0  0  0  0  0  0  0  0
   25.9761  -20.3714   -8.2462 O   0  0  0  0  0  0  0  0  0  0  0  0
   25.4782  -19.2305   -8.5135 O   0  0  0  0  0  0  0  0  0  0  0  0
  2  1  1  1
  2  3  1  0
  4  2  1  0
  4  5  1  6
  6  7  2  0
  6  4  1  0
  9  8  1  0
 10  9  2  0
 11  9  1  0
 12 11  1  0
 13 12  1  0
 13 14  1  0
 15 14  1  1
 15 16  1  0
 16  6  1  0
 17 19  1  0
 17 15  1  0
 18 17  2  0
 20 19  1  0
 20 28  1  0
 21 22  1  0
 20 21  1  6
 22 23  2  0
 23 24  1  0
 25 24  2  0
 26 25  1  0
 27 22  1  0
 27 26  2  0
 28 30  1  0
 29 28  2  0
M  END
$$$$
