TRF.pdb
     RDKit          3D

 30 30  0  0  1  0  0  0  0  0999 V2000
   24.5443  -13.8166  -15.3737 C   0  0  0  0  0  0  0  0  0  0  0  0
   24.9967  -13.6909  -16.8123 C   0  0  1  0  0  0  0  0  0  0  0  0
   25.2198  -12.3333  -17.0384 O   0  0  0  0  0  0  0  0  0  0  0  0
   26.2340  -14.4898  -17.0820 C   0  0  2  0  0  0  0  0  0  0  0  0
   26.6490  -14.2120  -18.4356 N   0  0  0  0  0  0  0  0  0  0  0  0
   26.0217  -15.9514  -16.8579 C   0  0  0  0  0  0  0  0  0  0  0  0
   25.3223  -16.5784  -17.6891 O   0  0  0  0  0  0  0  0  0  0  0  0
   26.5356  -20.6631  -10.3346 N   0  0  0  0  0  0  0  0  0  0  0  0
   26.5603  -21.6994  -11.3067 C   0  0  0  0  0  0  0  0  0  0  0  0
   25.6892  -22.6600  -11.2534 N   0  0  0  0  0  0  0  0  0  0  0  0
   27.5561  -21.6407  -12.3168 N   0  0  0  0  0  0  0  0  0  0  0  0
   28.0183  -20.3662  -12.7998 C   0  0  0  0  0  0  0  0  0  0  0  0
   26.9311  -19.8262  -13.7285 C   0  0  0  0  0  0  0  0  0  0  0  0
   27.3483  -18.5199  -14.3251 C   0  0  0  0  0  0  0  0  0  0  0  0
   26.2731  -17.9244  -15.2561 C   0  0  2  0  0  0  0  0  0  0  0  0
   26.5742  -16.6398  -15.7580 N   0  0  0  0  0  0  0  0  0  0  0  0
   24.9695  -18.1693  -14.6881 C   0  0  0  0  0  0  0  0  0  0  0  0
   24.6698  -17.4879  -13.6474 O   0  0  0  0  0  0  0  0  0  0  0  0
   25.6457  -23.4155  -11.9610 N   0  0  0  0  0  0  0  0  0  0  0  0
   23.9968  -19.0690  -15.1484 C   0  0  1  0  0  0  0  0  0  0  0  0
   22.7193  -19.2278  -14.4730 C   0  0  0  0  0  0  0  0  0  0  0  0
   22.0328  -17.8991  -14.5369 C   0  0  0  0  0  0  0  0  0  0  0  0
   21.7581  -17.4072  -15.8990 C   0  0  0  0  0  0  0  0  0  0  0  0
   21.3535  -18.1934  -16.9367 C   0  0  0  0  0  0  0  0  0  0  0  0
   21.1229  -17.6123  -18.1630 C   0  0  0  0  0  0  0  0  0  0  0  0
   21.2766  -16.2653  -18.4151 C   0  0  0  0  0  0  0  0  0  0  0  0
   21.6861  -15.4798  -17.3582 C   0  0  0  0  0  0  0  0  0  0  0  0
   21.9197  -16.0503  -16.1273 C   0  0  0  0  0  0  0  0  0  0  0  0
   21.9155  -20.2932  -15.0724 O   0  0  0  0  0  0  0  0  0  0  0  0
   20.8212  -20.6548  -14.5315 O   0  0  0  0  0  0  0  0  0  0  0  0
  2  1  1  1
  2  3  1  0
  4  2  1  0
  4  5  1  6
  6  7  2  0
  6  4  1  0
  9  8  1  0
 10  9  2  0
 11  9  1  0
 12 11  1  0
 13 12  1  0
 13 14  1  0
 15 14  1  1
 15 16  1  0
 16  6  1  0
 17 19  1  0
 17 15  1  0
 18 17  2  0
 20 19  1  0
 20 28  1  0
 21 22  1  0
 20 21  1  6
 22 23  2  0
 23 24  1  0
 25 24  2  0
 26 25  1  0
 27 22  1  0
 27 26  2  0
 28 30  1  0
 29 28  2  0
M  END
$$$$
