TRF.pdb
     RDKit          3D

 30 30  0  0  1  0  0  0  0  0999 V2000
   20.5322  -27.9405  -18.7072 C   0  0  0  0  0  0  0  0  0  0  0  0
   20.9220  -29.2217  -18.0024 C   0  0  1  0  0  0  0  0  0  0  0  0
   20.6385  -30.2608  -18.8877 O   0  0  0  0  0  0  0  0  0  0  0  0
   22.3677  -29.2288  -17.6126 C   0  0  2  0  0  0  0  0  0  0  0  0
   22.6100  -30.4285  -16.8487 N   0  0  0  0  0  0  0  0  0  0  0  0
   22.7528  -28.0022  -16.8521 C   0  0  0  0  0  0  0  0  0  0  0  0
   22.5018  -27.9686  -15.6237 O   0  0  0  0  0  0  0  0  0  0  0  0
   30.0278  -24.2366  -16.5189 N   0  0  0  0  0  0  0  0  0  0  0  0
   29.2531  -25.4189  -16.3719 C   0  0  0  0  0  0  0  0  0  0  0  0
   29.8391  -26.5753  -16.3108 N   0  0  0  0  0  0  0  0  0  0  0  0
   27.8419  -25.2845  -16.2960 N   0  0  0  0  0  0  0  0  0  0  0  0
   27.2398  -23.9777  -16.3253 C   0  0  0  0  0  0  0  0  0  0  0  0
   25.7289  -24.1862  -16.2262 C   0  0  0  0  0  0  0  0  0  0  0  0
   25.3129  -25.4016  -16.9917 C   0  0  0  0  0  0  0  0  0  0  0  0
   23.7981  -25.6724  -16.8944 C   0  0  2  0  0  0  0  0  0  0  0  0
   23.3807  -26.8960  -17.4613 N   0  0  0  0  0  0  0  0  0  0  0  0
   23.0811  -24.4643  -17.2236 C   0  0  0  0  0  0  0  0  0  0  0  0
   22.9606  -24.2010  -18.4699 O   0  0  0  0  0  0  0  0  0  0  0  0
   29.3142  -27.4647  -16.2292 N   0  0  0  0  0  0  0  0  0  0  0  0
   22.5033  -23.5487  -16.3318 C   0  0  1  0  0  0  0  0  0  0  0  0
   21.7155  -22.4190  -16.7972 C   0  0  0  0  0  0  0  0  0  0  0  0
   20.5402  -22.9885  -17.5287 C   0  0  0  0  0  0  0  0  0  0  0  0
   19.5962  -21.9890  -18.0605 C   0  0  0  0  0  0  0  0  0  0  0  0
   19.7957  -21.2687  -19.2007 C   0  0  0  0  0  0  0  0  0  0  0  0
   18.8338  -20.3673  -19.5967 C   0  0  0  0  0  0  0  0  0  0  0  0
   17.6625  -20.1412  -18.9049 C   0  0  0  0  0  0  0  0  0  0  0  0
   17.4714  -20.8754  -17.7533 C   0  0  0  0  0  0  0  0  0  0  0  0
   18.4268  -21.7798  -17.3477 C   0  0  0  0  0  0  0  0  0  0  0  0
   21.3094  -21.5475  -15.6944 O   0  0  0  0  0  0  0  0  0  0  0  0
   21.3391  -21.9726  -14.4947 O   0  0  0  0  0  0  0  0  0  0  0  0
  2  1  1  6
  2  3  1  0
  4  2  1  0
  4  5  1  1
  6  7  2  0
  6  4  1  0
  9  8  1  0
 10  9  2  0
 11  9  1  0
 12 11  1  0
 13 12  1  0
 13 14  1  0
 15 14  1  6
 15 16  1  0
 16  6  1  0
 17 19  1  0
 17 15  1  0
 18 17  2  0
 20 19  1  0
 20 28  1  0
 21 22  1  0
 20 21  1  6
 22 23  2  0
 23 24  1  0
 25 24  2  0
 26 25  1  0
 27 22  1  0
 27 26  2  0
 28 30  1  0
 29 28  2  0
M  END
$$$$
