TRF.pdb
     RDKit          3D

 30 30  0  0  1  0  0  0  0  0999 V2000
   26.2675  -26.2354  -19.0728 C   0  0  0  0  0  0  0  0  0  0  0  0
   26.3377  -24.9636  -18.2557 C   0  0  1  0  0  0  0  0  0  0  0  0
   25.3723  -25.0829  -17.2568 O   0  0  0  0  0  0  0  0  0  0  0  0
   27.6971  -24.7519  -17.6648 C   0  0  2  0  0  0  0  0  0  0  0  0
   28.0671  -25.9617  -16.9713 N   0  0  0  0  0  0  0  0  0  0  0  0
   27.7409  -23.5622  -16.7625 C   0  0  0  0  0  0  0  0  0  0  0  0
   27.9931  -23.7533  -15.5489 O   0  0  0  0  0  0  0  0  0  0  0  0
   25.1637  -20.3768  -21.1254 N   0  0  0  0  0  0  0  0  0  0  0  0
   24.1801  -19.4771  -20.6326 C   0  0  0  0  0  0  0  0  0  0  0  0
   22.9645  -19.5339  -21.0836 N   0  0  0  0  0  0  0  0  0  0  0  0
   24.5747  -18.5344  -19.6472 N   0  0  0  0  0  0  0  0  0  0  0  0
   25.9025  -18.5829  -19.0942 C   0  0  0  0  0  0  0  0  0  0  0  0
   25.9296  -19.7562  -18.1151 C   0  0  0  0  0  0  0  0  0  0  0  0
   27.2200  -19.7829  -17.3596 C   0  0  0  0  0  0  0  0  0  0  0  0
   27.3725  -21.0494  -16.4936 C   0  0  2  0  0  0  0  0  0  0  0  0
   27.5111  -22.2495  -17.2240 N   0  0  0  0  0  0  0  0  0  0  0  0
   26.4258  -20.9938  -15.4062 C   0  0  0  0  0  0  0  0  0  0  0  0
   25.7356  -22.0520  -15.2036 O   0  0  0  0  0  0  0  0  0  0  0  0
   22.2159  -18.8973  -20.7556 N   0  0  0  0  0  0  0  0  0  0  0  0
   26.1782  -19.9117  -14.5487 C   0  0  1  0  0  0  0  0  0  0  0  0
   25.2552  -20.0159  -13.4304 C   0  0  0  0  0  0  0  0  0  0  0  0
   25.9251  -20.8705  -12.4001 C   0  0  0  0  0  0  0  0  0  0  0  0
   25.3075  -20.8291  -11.0623 C   0  0  0  0  0  0  0  0  0  0  0  0
   25.5326  -19.8525  -10.1380 C   0  0  0  0  0  0  0  0  0  0  0  0
   24.8892  -19.9232   -8.9232 C   0  0  0  0  0  0  0  0  0  0  0  0
   24.0177  -20.9332   -8.5739 C   0  0  0  0  0  0  0  0  0  0  0  0
   23.7976  -21.9154   -9.5166 C   0  0  0  0  0  0  0  0  0  0  0  0
   24.4357  -21.8548  -10.7349 C   0  0  0  0  0  0  0  0  0  0  0  0
   24.8887  -18.7013  -12.9030 O   0  0  0  0  0  0  0  0  0  0  0  0
   25.7106  -17.7312  -12.9665 O   0  0  0  0  0  0  0  0  0  0  0  0
  2  1  1  1
  2  3  1  0
  4  2  1  0
  4  5  1  1
  6  7  2  0
  6  4  1  0
  9  8  1  0
 10  9  2  0
 11  9  1  0
 12 11  1  0
 13 12  1  0
 13 14  1  0
 15 14  1  6
 15 16  1  0
 16  6  1  0
 17 19  1  0
 17 15  1  0
 18 17  2  0
 20 19  1  0
 20 28  1  0
 21 22  1  0
 20 21  1  1
 22 23  2  0
 23 24  1  0
 25 24  2  0
 26 25  1  0
 27 22  1  0
 27 26  2  0
 28 30  1  0
 29 28  2  0
M  END
$$$$
