TRF.pdb
     RDKit          3D

 30 30  0  0  1  0  0  0  0  0999 V2000
   30.9298  -23.0635  -14.9159 C   0  0  0  0  0  0  0  0  0  0  0  0
   31.6860  -23.2876  -13.6244 C   0  0  1  0  0  0  0  0  0  0  0  0
   32.8475  -23.9807  -13.9627 O   0  0  0  0  0  0  0  0  0  0  0  0
   32.0121  -21.9988  -12.9355 C   0  0  2  0  0  0  0  0  0  0  0  0
   32.8460  -22.3076  -11.7994 N   0  0  0  0  0  0  0  0  0  0  0  0
   30.7849  -21.2483  -12.5327 C   0  0  0  0  0  0  0  0  0  0  0  0
   30.3469  -21.4179  -11.3698 O   0  0  0  0  0  0  0  0  0  0  0  0
   24.4342  -18.0074  -14.7688 N   0  0  0  0  0  0  0  0  0  0  0  0
   24.4473  -18.7528  -15.9787 C   0  0  0  0  0  0  0  0  0  0  0  0
   23.4047  -19.4426  -16.3274 N   0  0  0  0  0  0  0  0  0  0  0  0
   25.6234  -18.7116  -16.7729 N   0  0  0  0  0  0  0  0  0  0  0  0
   26.8592  -18.2393  -16.2065 C   0  0  0  0  0  0  0  0  0  0  0  0
   27.1927  -19.1682  -15.0395 C   0  0  0  0  0  0  0  0  0  0  0  0
   28.4862  -18.7713  -14.4025 C   0  0  0  0  0  0  0  0  0  0  0  0
   28.8804  -19.6990  -13.2358 C   0  0  2  0  0  0  0  0  0  0  0  0
   30.1121  -20.3676  -13.4049 N   0  0  0  0  0  0  0  0  0  0  0  0
   27.7223  -20.4534  -12.8213 C   0  0  0  0  0  0  0  0  0  0  0  0
   27.3858  -21.4311  -13.5749 O   0  0  0  0  0  0  0  0  0  0  0  0
   23.3979  -20.0668  -17.1541 N   0  0  0  0  0  0  0  0  0  0  0  0
   26.9262  -20.2346  -11.6874 C   0  0  2  0  0  0  0  0  0  0  0  0
   25.8994  -21.1790  -11.2783 C   0  0  0  0  0  0  0  0  0  0  0  0
   26.3461  -21.7584   -9.9723 C   0  0  0  0  0  0  0  0  0  0  0  0
   26.6386  -20.7673   -8.9212 C   0  0  0  0  0  0  0  0  0  0  0  0
   25.6994  -19.9927   -8.3076 C   0  0  0  0  0  0  0  0  0  0  0  0
   26.0992  -19.1060   -7.3337 C   0  0  0  0  0  0  0  0  0  0  0  0
   27.4085  -18.9470   -6.9311 C   0  0  0  0  0  0  0  0  0  0  0  0
   28.3498  -19.7356   -7.5586 C   0  0  0  0  0  0  0  0  0  0  0  0
   27.9613  -20.6260   -8.5340 C   0  0  0  0  0  0  0  0  0  0  0  0
   24.5848  -20.5446  -11.1794 O   0  0  0  0  0  0  0  0  0  0  0  0
   24.4659  -19.2855  -11.3253 O   0  0  0  0  0  0  0  0  0  0  0  0
  2  1  1  6
  2  3  1  0
  4  2  1  0
  4  5  1  1
  6  7  2  0
  6  4  1  0
  9  8  1  0
 10  9  2  0
 11  9  1  0
 12 11  1  0
 13 12  1  0
 13 14  1  0
 15 14  1  6
 15 16  1  0
 16  6  1  0
 17 19  1  0
 17 15  1  0
 18 17  2  0
 20 19  1  0
 20 28  1  0
 21 22  1  0
 20 21  1  1
 22 23  2  0
 23 24  1  0
 25 24  2  0
 26 25  1  0
 27 22  1  0
 27 26  2  0
 28 30  1  0
 29 28  2  0
M  END
$$$$
