CGW.pdb
     RDKit          3D

 25 26  0  0  1  0  0  0  0  0999 V2000
    9.0924  -12.9629   18.5153 N   0  0  0  0  0  0  0  0  0  0  0  0
    8.7868  -13.3151   19.8685 C   0  0  1  0  0  0  0  0  0  0  0  0
    7.3651  -12.9316   20.2512 C   0  0  0  0  0  0  0  0  0  0  0  0
    6.2264  -14.0373   19.3621 S   0  0  0  0  0  0  0  0  0  0  0  0
    9.0543  -14.7503   20.1154 C   0  0  0  0  0  0  0  0  0  0  0  0
    9.6908  -15.4696   19.2916 O   0  0  0  0  0  0  0  0  0  0  0  0
    8.5838  -15.3561   21.3164 N   0  0  0  0  0  0  0  0  0  0  0  0
    9.2670  -16.5247   21.8077 C   0  0  0  0  0  0  0  0  0  0  0  0
    9.9442  -16.3072   23.1170 C   0  0  0  0  0  0  0  0  0  0  0  0
   11.1253  -15.8562   23.1143 O   0  0  0  0  0  0  0  0  0  0  0  0
    9.3472  -16.5784   24.3576 N   0  0  0  0  0  0  0  0  0  0  0  0
   10.1043  -16.4707   25.6043 C   0  0  1  0  0  0  0  0  0  0  0  0
    9.7113  -15.2738   26.3748 C   0  0  0  0  0  0  0  0  0  0  0  0
    8.3069  -14.8993   26.1837 C   0  0  0  0  0  0  0  0  0  0  0  0
    7.2428  -15.7677   25.9237 C   0  0  0  0  0  0  0  0  0  0  0  0
    6.1023  -15.0713   25.7674 N   0  0  0  0  0  0  0  0  0  0  0  0
    6.3594  -13.7749   25.9126 C   0  0  0  0  0  0  0  0  0  0  0  0
    5.4972  -12.6941   25.8572 C   0  0  0  0  0  0  0  0  0  0  0  0
    5.9965  -11.4237   26.0683 C   0  0  0  0  0  0  0  0  0  0  0  0
    7.3433  -11.2801   26.3274 C   0  0  0  0  0  0  0  0  0  0  0  0
    8.1864  -12.3692   26.3777 C   0  0  0  0  0  0  0  0  0  0  0  0
    7.7144  -13.6553   26.1696 C   0  0  0  0  0  0  0  0  0  0  0  0
   10.0184  -17.7154   26.3694 C   0  0  0  0  0  0  0  0  0  0  0  0
    9.1856  -18.5951   26.0576 O   0  0  0  0  0  0  0  0  0  0  0  0
   10.8916  -17.9063   27.4681 O   0  0  0  0  0  0  0  0  0  0  0  0
  2  1  1  6
  3  2  1  0
  4  3  1  0
  5  2  1  0
  5  6  2  0
  7  5  1  0
  8  7  1  0
  8  9  1  0
  9 10  2  0
 11  9  1  0
 11 12  1  0
 12 13  1  1
 13 14  1  0
 14 15  2  0
 14 22  1  0
 15 16  1  0
 16 17  1  0
 17 18  2  0
 19 18  1  0
 20 19  2  0
 21 22  2  0
 21 20  1  0
 22 17  1  0
 23 25  1  0
 23 12  1  0
 24 23  2  0
M  END
$$$$
