CGW.pdb
     RDKit          3D

 25 26  0  0  1  0  0  0  0  0999 V2000
    7.3420  -19.4962   21.5464 N   0  0  0  0  0  0  0  0  0  0  0  0
    6.6157  -18.3332   21.9570 C   0  0  1  0  0  0  0  0  0  0  0  0
    5.7775  -18.5927   23.1999 C   0  0  0  0  0  0  0  0  0  0  0  0
    5.4829  -20.3842   23.3148 S   0  0  0  0  0  0  0  0  0  0  0  0
    7.5241  -17.1781   22.1379 C   0  0  0  0  0  0  0  0  0  0  0  0
    7.1031  -16.0366   22.4858 O   0  0  0  0  0  0  0  0  0  0  0  0
    8.9220  -17.3420   21.9149 N   0  0  0  0  0  0  0  0  0  0  0  0
    9.7725  -16.1844   22.0162 C   0  0  0  0  0  0  0  0  0  0  0  0
   10.3503  -15.9921   23.3761 C   0  0  0  0  0  0  0  0  0  0  0  0
   11.5219  -15.5263   23.4701 O   0  0  0  0  0  0  0  0  0  0  0  0
    9.6695  -16.3027   24.5630 N   0  0  0  0  0  0  0  0  0  0  0  0
   10.3693  -16.3646   25.8459 C   0  0  1  0  0  0  0  0  0  0  0  0
    9.6856  -15.5561   26.8753 C   0  0  0  0  0  0  0  0  0  0  0  0
    8.3178  -15.1834   26.5025 C   0  0  0  0  0  0  0  0  0  0  0  0
    7.2936  -16.0544   26.1197 C   0  0  0  0  0  0  0  0  0  0  0  0
    6.1836  -15.3593   25.8113 N   0  0  0  0  0  0  0  0  0  0  0  0
    6.4228  -14.0614   25.9725 C   0  0  0  0  0  0  0  0  0  0  0  0
    5.5768  -12.9810   25.7950 C   0  0  0  0  0  0  0  0  0  0  0  0
    6.0477  -11.7083   26.0527 C   0  0  0  0  0  0  0  0  0  0  0  0
    7.3509  -11.5622   26.4792 C   0  0  0  0  0  0  0  0  0  0  0  0
    8.1786  -12.6510   26.6494 C   0  0  0  0  0  0  0  0  0  0  0  0
    7.7343  -13.9393   26.3983 C   0  0  0  0  0  0  0  0  0  0  0  0
   10.5934  -17.7548   26.2449 C   0  0  0  0  0  0  0  0  0  0  0  0
   11.3020  -18.0224   27.2404 O   0  0  0  0  0  0  0  0  0  0  0  0
    9.9967  -18.7907   25.4853 O   0  0  0  0  0  0  0  0  0  0  0  0
  2  1  1  1
  3  2  1  0
  4  3  1  0
  5  2  1  0
  5  6  2  0
  7  5  1  0
  8  7  1  0
  8  9  1  0
  9 10  2  0
 11  9  1  0
 11 12  1  0
 12 13  1  1
 13 14  1  0
 14 15  2  0
 14 22  1  0
 15 16  1  0
 16 17  1  0
 17 18  2  0
 19 18  1  0
 20 19  2  0
 21 22  2  0
 21 20  1  0
 22 17  1  0
 23 25  1  0
 23 12  1  0
 24 23  2  0
M  END
$$$$
