CGW.pdb
     RDKit          3D

 25 26  0  0  1  0  0  0  0  0999 V2000
    8.6195  -19.4028   20.4743 N   0  0  0  0  0  0  0  0  0  0  0  0
    8.0901  -18.5021   19.4960 C   0  0  1  0  0  0  0  0  0  0  0  0
    6.6154  -18.7581   19.2228 C   0  0  0  0  0  0  0  0  0  0  0  0
    5.7057  -18.5177   20.7798 S   0  0  0  0  0  0  0  0  0  0  0  0
    8.3414  -17.0947   19.8811 C   0  0  0  0  0  0  0  0  0  0  0  0
    8.1243  -16.1300   19.0916 O   0  0  0  0  0  0  0  0  0  0  0  0
    8.8462  -16.8015   21.1811 N   0  0  0  0  0  0  0  0  0  0  0  0
    9.0047  -15.4211   21.5594 C   0  0  0  0  0  0  0  0  0  0  0  0
    9.5325  -15.2435   22.9415 C   0  0  0  0  0  0  0  0  0  0  0  0
   10.2012  -14.2019   23.1993 O   0  0  0  0  0  0  0  0  0  0  0  0
    9.3337  -16.1697   23.9766 N   0  0  0  0  0  0  0  0  0  0  0  0
   10.1661  -16.1547   25.1791 C   0  0  1  0  0  0  0  0  0  0  0  0
    9.3448  -16.1202   26.4059 C   0  0  0  0  0  0  0  0  0  0  0  0
    8.0837  -15.3923   26.2362 C   0  0  0  0  0  0  0  0  0  0  0  0
    6.8576  -15.9342   25.8398 C   0  0  0  0  0  0  0  0  0  0  0  0
    5.9277  -14.9657   25.7534 N   0  0  0  0  0  0  0  0  0  0  0  0
    6.4805  -13.8002   26.0759 C   0  0  0  0  0  0  0  0  0  0  0  0
    5.9072  -12.5429   26.1467 C   0  0  0  0  0  0  0  0  0  0  0  0
    6.6850  -11.4699   26.5362 C   0  0  0  0  0  0  0  0  0  0  0  0
    8.0111  -11.6940   26.8410 C   0  0  0  0  0  0  0  0  0  0  0  0
    8.5640  -12.9541   26.7637 C   0  0  0  0  0  0  0  0  0  0  0  0
    7.8089  -14.0492   26.3755 C   0  0  0  0  0  0  0  0  0  0  0  0
   11.1330  -17.2531   25.1511 C   0  0  0  0  0  0  0  0  0  0  0  0
   11.1057  -18.0985   24.2296 O   0  0  0  0  0  0  0  0  0  0  0  0
   12.0978  -17.3435   26.1842 O   0  0  0  0  0  0  0  0  0  0  0  0
  2  1  1  1
  3  2  1  0
  4  3  1  0
  5  2  1  0
  5  6  2  0
  7  5  1  0
  8  7  1  0
  8  9  1  0
  9 10  2  0
 11  9  1  0
 11 12  1  0
 12 13  1  1
 13 14  1  0
 14 15  2  0
 14 22  1  0
 15 16  1  0
 16 17  1  0
 17 18  2  0
 19 18  1  0
 20 19  2  0
 21 22  2  0
 21 20  1  0
 22 17  1  0
 23 25  1  0
 23 12  1  0
 24 23  2  0
M  END
$$$$
