CGW.pdb
     RDKit          3D

 25 26  0  0  1  0  0  0  0  0999 V2000
    6.7058  -18.8329   22.1659 N   0  0  0  0  0  0  0  0  0  0  0  0
    6.7064  -18.9719   20.7414 C   0  0  1  0  0  0  0  0  0  0  0  0
    5.3222  -19.2945   20.1985 C   0  0  0  0  0  0  0  0  0  0  0  0
    4.9431  -21.0235   20.6185 S   0  0  0  0  0  0  0  0  0  0  0  0
    7.2857  -17.7736   20.0927 C   0  0  0  0  0  0  0  0  0  0  0  0
    7.5302  -17.7297   18.8519 O   0  0  0  0  0  0  0  0  0  0  0  0
    7.5844  -16.6238   20.8799 N   0  0  0  0  0  0  0  0  0  0  0  0
    8.8258  -15.9340   20.6417 C   0  0  0  0  0  0  0  0  0  0  0  0
    9.6712  -15.7996   21.8613 C   0  0  0  0  0  0  0  0  0  0  0  0
   10.8569  -15.3817   21.7267 O   0  0  0  0  0  0  0  0  0  0  0  0
    9.2284  -16.1146   23.1550 N   0  0  0  0  0  0  0  0  0  0  0  0
   10.1573  -16.1681   24.2835 C   0  0  1  0  0  0  0  0  0  0  0  0
   10.0013  -14.9967   25.1692 C   0  0  0  0  0  0  0  0  0  0  0  0
    8.6034  -14.7056   25.5009 C   0  0  0  0  0  0  0  0  0  0  0  0
    7.5282  -15.5959   25.4260 C   0  0  0  0  0  0  0  0  0  0  0  0
    6.3854  -14.9741   25.7691 N   0  0  0  0  0  0  0  0  0  0  0  0
    6.6518  -13.7068   26.0706 C   0  0  0  0  0  0  0  0  0  0  0  0
    5.7979  -12.7037   26.4938 C   0  0  0  0  0  0  0  0  0  0  0  0
    6.3152  -11.4545   26.7760 C   0  0  0  0  0  0  0  0  0  0  0  0
    7.6710  -11.2534   26.6240 C   0  0  0  0  0  0  0  0  0  0  0  0
    8.5053  -12.2653   26.2005 C   0  0  0  0  0  0  0  0  0  0  0  0
    8.0151  -13.5283   25.9094 C   0  0  0  0  0  0  0  0  0  0  0  0
   10.0483  -17.4500   24.9813 C   0  0  0  0  0  0  0  0  0  0  0  0
    9.0867  -18.2166   24.7526 O   0  0  0  0  0  0  0  0  0  0  0  0
   11.0474  -17.8068   25.9197 O   0  0  0  0  0  0  0  0  0  0  0  0
  2  1  1  1
  3  2  1  0
  4  3  1  0
  5  2  1  0
  5  6  2  0
  7  5  1  0
  8  7  1  0
  8  9  1  0
  9 10  2  0
 11  9  1  0
 11 12  1  0
 12 13  1  1
 13 14  1  0
 14 15  2  0
 14 22  1  0
 15 16  1  0
 16 17  1  0
 17 18  2  0
 19 18  1  0
 20 19  2  0
 21 22  2  0
 21 20  1  0
 22 17  1  0
 23 25  1  0
 23 12  1  0
 24 23  2  0
M  END
$$$$
