CGW.pdb
     RDKit          3D

 25 26  0  0  1  0  0  0  0  0999 V2000
    8.6017  -19.5631   19.3455 N   0  0  0  0  0  0  0  0  0  0  0  0
    9.0887  -18.4315   18.6167 C   0  0  1  0  0  0  0  0  0  0  0  0
    8.3571  -18.2452   17.2958 C   0  0  0  0  0  0  0  0  0  0  0  0
    6.6370  -17.7833   17.6666 S   0  0  0  0  0  0  0  0  0  0  0  0
    9.0431  -17.2069   19.4477 C   0  0  0  0  0  0  0  0  0  0  0  0
    9.7022  -16.1674   19.1542 O   0  0  0  0  0  0  0  0  0  0  0  0
    8.2352  -17.1840   20.6214 N   0  0  0  0  0  0  0  0  0  0  0  0
    8.1419  -15.9545   21.3652 C   0  0  0  0  0  0  0  0  0  0  0  0
    9.2210  -15.7936   22.3799 C   0  0  0  0  0  0  0  0  0  0  0  0
   10.3628  -15.4181   21.9875 O   0  0  0  0  0  0  0  0  0  0  0  0
    9.0451  -16.0394   23.7501 N   0  0  0  0  0  0  0  0  0  0  0  0
   10.1315  -15.8247   24.7057 C   0  0  1  0  0  0  0  0  0  0  0  0
    9.6140  -15.4867   26.0468 C   0  0  0  0  0  0  0  0  0  0  0  0
    8.2233  -15.0233   26.0294 C   0  0  0  0  0  0  0  0  0  0  0  0
    7.0876  -15.8093   25.8143 C   0  0  0  0  0  0  0  0  0  0  0  0
    5.9822  -15.0424   25.8290 N   0  0  0  0  0  0  0  0  0  0  0  0
    6.3314  -13.7779   26.0455 C   0  0  0  0  0  0  0  0  0  0  0  0
    5.5359  -12.6516   26.1610 C   0  0  0  0  0  0  0  0  0  0  0  0
    6.1306  -11.4313   26.4160 C   0  0  0  0  0  0  0  0  0  0  0  0
    7.5025  -11.3816   26.5461 C   0  0  0  0  0  0  0  0  0  0  0  0
    8.2780  -12.5147   26.4269 C   0  0  0  0  0  0  0  0  0  0  0  0
    7.7098  -13.7524   26.1708 C   0  0  0  0  0  0  0  0  0  0  0  0
   11.0541  -16.9608   24.7019 C   0  0  0  0  0  0  0  0  0  0  0  0
   12.1196  -16.9145   25.3555 O   0  0  0  0  0  0  0  0  0  0  0  0
   10.7217  -18.1113   23.9456 O   0  0  0  0  0  0  0  0  0  0  0  0
  2  1  1  1
  3  2  1  0
  4  3  1  0
  5  2  1  0
  5  6  2  0
  7  5  1  0
  8  7  1  0
  8  9  1  0
  9 10  2  0
 11  9  1  0
 11 12  1  0
 12 13  1  1
 13 14  1  0
 14 15  2  0
 14 22  1  0
 15 16  1  0
 16 17  1  0
 17 18  2  0
 19 18  1  0
 20 19  2  0
 21 22  2  0
 21 20  1  0
 22 17  1  0
 23 25  1  0
 23 12  1  0
 24 23  2  0
M  END
$$$$
