CGW.pdb
     RDKit          3D

 25 26  0  0  1  0  0  0  0  0999 V2000
    7.8678  -20.3159   20.3308 N   0  0  0  0  0  0  0  0  0  0  0  0
    8.1487  -20.1832   18.9336 C   0  0  1  0  0  0  0  0  0  0  0  0
    6.8977  -19.8682   18.1270 C   0  0  0  0  0  0  0  0  0  0  0  0
    6.3220  -18.2108   18.6078 S   0  0  0  0  0  0  0  0  0  0  0  0
    9.2182  -19.1861   18.7009 C   0  0  0  0  0  0  0  0  0  0  0  0
    9.8158  -19.0842   17.5901 O   0  0  0  0  0  0  0  0  0  0  0  0
    9.5992  -18.3056   19.7547 N   0  0  0  0  0  0  0  0  0  0  0  0
   10.6729  -17.3761   19.5165 C   0  0  0  0  0  0  0  0  0  0  0  0
   11.1064  -16.6466   20.7413 C   0  0  0  0  0  0  0  0  0  0  0  0
   12.1188  -15.8931   20.6644 O   0  0  0  0  0  0  0  0  0  0  0  0
   10.4572  -16.7505   21.9809 N   0  0  0  0  0  0  0  0  0  0  0  0
   10.8515  -15.9177   23.1168 C   0  0  1  0  0  0  0  0  0  0  0  0
    9.6758  -15.4390   23.8713 C   0  0  0  0  0  0  0  0  0  0  0  0
    8.4856  -15.2612   23.0343 C   0  0  0  0  0  0  0  0  0  0  0  0
    7.3189  -16.0303   23.0735 C   0  0  0  0  0  0  0  0  0  0  0  0
    6.4512  -15.6062   22.1369 N   0  0  0  0  0  0  0  0  0  0  0  0
    6.9884  -14.5862   21.4743 C   0  0  0  0  0  0  0  0  0  0  0  0
    6.4581  -13.8257   20.4472 C   0  0  0  0  0  0  0  0  0  0  0  0
    7.2033  -12.7858   19.9263 C   0  0  0  0  0  0  0  0  0  0  0  0
    8.4548  -12.5442   20.4525 C   0  0  0  0  0  0  0  0  0  0  0  0
    8.9660  -13.3136   21.4754 C   0  0  0  0  0  0  0  0  0  0  0  0
    8.2421  -14.3635   22.0175 C   0  0  0  0  0  0  0  0  0  0  0  0
   11.8389  -16.6101   23.9461 C   0  0  0  0  0  0  0  0  0  0  0  0
   12.3988  -16.0164   24.8941 O   0  0  0  0  0  0  0  0  0  0  0  0
   12.1505  -17.9611   23.6568 O   0  0  0  0  0  0  0  0  0  0  0  0
  2  1  1  1
  3  2  1  0
  4  3  1  0
  5  2  1  0
  5  6  2  0
  7  5  1  0
  8  7  1  0
  8  9  1  0
  9 10  2  0
 11  9  1  0
 11 12  1  0
 12 13  1  1
 13 14  1  0
 14 15  2  0
 14 22  1  0
 15 16  1  0
 16 17  1  0
 17 18  2  0
 19 18  1  0
 20 19  2  0
 21 22  2  0
 21 20  1  0
 22 17  1  0
 23 25  1  0
 23 12  1  0
 24 23  2  0
M  END
$$$$
