CGW.pdb
     RDKit          3D

 25 26  0  0  1  0  0  0  0  0999 V2000
    7.1333  -20.1473   22.5155 N   0  0  0  0  0  0  0  0  0  0  0  0
    6.7856  -19.3645   21.3688 C   0  0  1  0  0  0  0  0  0  0  0  0
    5.3824  -19.6752   20.8694 C   0  0  0  0  0  0  0  0  0  0  0  0
    5.1231  -18.7607   19.3182 S   0  0  0  0  0  0  0  0  0  0  0  0
    6.9653  -17.9200   21.6395 C   0  0  0  0  0  0  0  0  0  0  0  0
    6.2548  -17.2976   22.4816 O   0  0  0  0  0  0  0  0  0  0  0  0
    7.9675  -17.1925   20.9343 N   0  0  0  0  0  0  0  0  0  0  0  0
    8.0864  -15.7781   21.1777 C   0  0  0  0  0  0  0  0  0  0  0  0
    8.8951  -15.4517   22.3859 C   0  0  0  0  0  0  0  0  0  0  0  0
    9.2564  -14.2528   22.5604 O   0  0  0  0  0  0  0  0  0  0  0  0
    9.2842  -16.4012   23.3429 N   0  0  0  0  0  0  0  0  0  0  0  0
   10.0502  -16.0153   24.5276 C   0  0  1  0  0  0  0  0  0  0  0  0
    9.2738  -16.2244   25.7663 C   0  0  0  0  0  0  0  0  0  0  0  0
    7.9359  -15.6272   25.7169 C   0  0  0  0  0  0  0  0  0  0  0  0
    6.7505  -16.2717   25.3513 C   0  0  0  0  0  0  0  0  0  0  0  0
    5.7216  -15.4053   25.3836 N   0  0  0  0  0  0  0  0  0  0  0  0
    6.1693  -14.2100   25.7560 C   0  0  0  0  0  0  0  0  0  0  0  0
    5.4742  -13.0288   25.9456 C   0  0  0  0  0  0  0  0  0  0  0  0
    6.1590  -11.9052   26.3660 C   0  0  0  0  0  0  0  0  0  0  0  0
    7.5174  -12.0042   26.5815 C   0  0  0  0  0  0  0  0  0  0  0  0
    8.1923  -13.1899   26.3863 C   0  0  0  0  0  0  0  0  0  0  0  0
    7.5323  -14.3331   25.9645 C   0  0  0  0  0  0  0  0  0  0  0  0
   11.3563  -16.6757   24.5353 C   0  0  0  0  0  0  0  0  0  0  0  0
   11.5997  -17.6087   23.7386 O   0  0  0  0  0  0  0  0  0  0  0  0
   12.3381  -16.2423   25.4597 O   0  0  0  0  0  0  0  0  0  0  0  0
  2  1  1  1
  3  2  1  0
  4  3  1  0
  5  2  1  0
  5  6  2  0
  7  5  1  0
  8  7  1  0
  8  9  1  0
  9 10  2  0
 11  9  1  0
 11 12  1  0
 12 13  1  1
 13 14  1  0
 14 15  2  0
 14 22  1  0
 15 16  1  0
 16 17  1  0
 17 18  2  0
 19 18  1  0
 20 19  2  0
 21 22  2  0
 21 20  1  0
 22 17  1  0
 23 25  1  0
 23 12  1  0
 24 23  2  0
M  END
$$$$
