PQF.pdb
     RDKit          3D

 28 29  0  0  1  0  0  0  0  0999 V2000
   21.2929  -15.3695  -17.9824 N   0  0  0  0  0  0  0  0  0  0  0  0
   21.3536  -16.7741  -18.2607 C   0  0  0  0  0  0  0  0  0  0  0  0
   22.2128  -16.9487  -19.4918 C   0  0  0  0  0  0  0  0  0  0  0  0
   22.1722  -15.5561  -20.0948 C   0  0  0  0  0  0  0  0  0  0  0  0
   22.2708  -14.7191  -18.8130 C   0  0  1  0  0  0  0  0  0  0  0  0
   21.9422  -13.2978  -19.0745 C   0  0  0  0  0  0  0  0  0  0  0  0
   22.7176  -12.6090  -19.7499 O   0  0  0  0  0  0  0  0  0  0  0  0
   16.2920  -11.8695  -20.4106 N   0  0  0  0  0  0  0  0  0  0  0  0
   16.4463  -12.1279  -19.0167 C   0  0  0  0  0  0  0  0  0  0  0  0
   15.4070  -12.3983  -18.3745 O   0  0  0  0  0  0  0  0  0  0  0  0
   17.7998  -12.0585  -18.4376 C   0  0  0  0  0  0  0  0  0  0  0  0
   18.8530  -11.5450  -19.3640 C   0  0  0  0  0  0  0  0  0  0  0  0
   20.2270  -11.4514  -18.7875 C   0  0  2  0  0  0  0  0  0  0  0  0
   20.7391  -12.7774  -18.5347 N   0  0  0  0  0  0  0  0  0  0  0  0
   20.3607  -10.6360  -17.5888 C   0  0  0  0  0  0  0  0  0  0  0  0
   20.0774  -11.0467  -16.4187 O   0  0  0  0  0  0  0  0  0  0  0  0
   20.8299   -9.3007  -17.6845 N   0  0  0  0  0  0  0  0  0  0  0  0
   20.9213   -8.4641  -16.4772 C   0  0  1  0  0  0  0  0  0  0  0  0
   22.2084   -7.6655  -16.5578 C   0  0  0  0  0  0  0  0  0  0  0  0
   22.3050   -6.6092  -15.5245 C   0  0  0  0  0  0  0  0  0  0  0  0
   21.9672   -5.2904  -15.7182 C   0  0  0  0  0  0  0  0  0  0  0  0
   22.0623   -4.3373  -14.7173 C   0  0  0  0  0  0  0  0  0  0  0  0
   22.5099   -4.6828  -13.4605 C   0  0  0  0  0  0  0  0  0  0  0  0
   22.8518   -5.9907  -13.2466 C   0  0  0  0  0  0  0  0  0  0  0  0
   22.7573   -6.9365  -14.2395 C   0  0  0  0  0  0  0  0  0  0  0  0
   19.7889   -7.5307  -16.4985 C   0  0  0  0  0  0  0  0  0  0  0  0
   19.2342   -7.1385  -17.6985 O   0  0  0  0  0  0  0  0  0  0  0  0
   19.3209   -7.0864  -15.4364 O   0  0  0  0  0  0  0  0  0  0  0  0
  2  1  1  0
  3  2  1  0
  4  3  1  0
  4  5  1  0
  5  1  1  0
  5  6  1  6
  6  7  2  0
  8  9  1  0
  9 11  1  0
 10  9  2  0
 11 12  1  0
 13 12  1  1
 14  6  1  0
 14 13  1  0
 15 17  1  0
 15 13  1  0
 16 15  2  0
 18 26  1  0
 18 19  1  6
 18 17  1  0
 20 19  1  0
 20 21  2  0
 22 21  1  0
 23 22  2  0
 24 25  2  0
 24 23  1  0
 25 20  1  0
 26 27  1  0
 28 26  2  0
M  END
$$$$
