PQF.pdb
     RDKit          3D

 28 29  0  0  1  0  0  0  0  0999 V2000
   27.4598  -20.5286  -15.5829 N   0  0  0  0  0  0  0  0  0  0  0  0
   27.7560  -20.2234  -16.9515 C   0  0  0  0  0  0  0  0  0  0  0  0
   28.2847  -18.8081  -16.9890 C   0  0  0  0  0  0  0  0  0  0  0  0
   27.7825  -18.2573  -15.6665 C   0  0  0  0  0  0  0  0  0  0  0  0
   28.0209  -19.4809  -14.7725 C   0  0  1  0  0  0  0  0  0  0  0  0
   27.3296  -19.3355  -13.4697 C   0  0  0  0  0  0  0  0  0  0  0  0
   27.6470  -18.4087  -12.7132 O   0  0  0  0  0  0  0  0  0  0  0  0
   21.6243  -21.8848  -13.1598 N   0  0  0  0  0  0  0  0  0  0  0  0
   21.6933  -21.2695  -11.8752 C   0  0  0  0  0  0  0  0  0  0  0  0
   20.6650  -21.3297  -11.1647 O   0  0  0  0  0  0  0  0  0  0  0  0
   22.9527  -20.6142  -11.4797 C   0  0  0  0  0  0  0  0  0  0  0  0
   24.0429  -20.6836  -12.4985 C   0  0  0  0  0  0  0  0  0  0  0  0
   25.3542  -20.1066  -12.0781 C   0  0  2  0  0  0  0  0  0  0  0  0
   26.3207  -20.2743  -13.1374 N   0  0  0  0  0  0  0  0  0  0  0  0
   25.9018  -20.6138  -10.8281 C   0  0  0  0  0  0  0  0  0  0  0  0
   26.3131  -21.8069  -10.6685 O   0  0  0  0  0  0  0  0  0  0  0  0
   26.0010  -19.7633   -9.6970 N   0  0  0  0  0  0  0  0  0  0  0  0
   26.6246  -20.2555   -8.4583 C   0  0  1  0  0  0  0  0  0  0  0  0
   27.2944  -19.0798   -7.7725 C   0  0  0  0  0  0  0  0  0  0  0  0
   27.8704  -19.4253   -6.4529 C   0  0  0  0  0  0  0  0  0  0  0  0
   28.8876  -18.7347   -5.8369 C   0  0  0  0  0  0  0  0  0  0  0  0
   29.3879  -19.0872   -4.5941 C   0  0  0  0  0  0  0  0  0  0  0  0
   28.8734  -20.1688   -3.9123 C   0  0  0  0  0  0  0  0  0  0  0  0
   27.8604  -20.8703   -4.5081 C   0  0  0  0  0  0  0  0  0  0  0  0
   27.3638  -20.5205   -5.7411 C   0  0  0  0  0  0  0  0  0  0  0  0
   25.5515  -20.7546   -7.5903 C   0  0  0  0  0  0  0  0  0  0  0  0
   24.2339  -20.4703   -7.8811 O   0  0  0  0  0  0  0  0  0  0  0  0
   25.8210  -21.4369   -6.5871 O   0  0  0  0  0  0  0  0  0  0  0  0
  2  1  1  0
  3  2  1  0
  4  3  1  0
  4  5  1  0
  5  1  1  0
  5  6  1  1
  6  7  2  0
  8  9  1  0
  9 11  1  0
 10  9  2  0
 11 12  1  0
 13 12  1  6
 14  6  1  0
 14 13  1  0
 15 17  1  0
 15 13  1  0
 16 15  2  0
 18 26  1  0
 18 19  1  1
 18 17  1  0
 20 19  1  0
 20 21  2  0
 22 21  1  0
 23 22  2  0
 24 25  2  0
 24 23  1  0
 25 20  1  0
 26 27  1  0
 28 26  2  0
M  END
$$$$
