PQF.pdb
     RDKit          3D

 28 29  0  0  1  0  0  0  0  0999 V2000
   26.0564  -17.0007  -18.3530 N   0  0  0  0  0  0  0  0  0  0  0  0
   25.7687  -16.2399  -19.5330 C   0  0  0  0  0  0  0  0  0  0  0  0
   24.3745  -16.6169  -19.9784 C   0  0  0  0  0  0  0  0  0  0  0  0
   24.1722  -17.9422  -19.2659 C   0  0  0  0  0  0  0  0  0  0  0  0
   24.8284  -17.6116  -17.9193 C   0  0  1  0  0  0  0  0  0  0  0  0
   25.0534  -18.8376  -17.1176 C   0  0  0  0  0  0  0  0  0  0  0  0
   24.0847  -19.4221  -16.6159 O   0  0  0  0  0  0  0  0  0  0  0  0
   30.4599  -22.0686  -17.5923 N   0  0  0  0  0  0  0  0  0  0  0  0
   29.8150  -22.7707  -16.5318 C   0  0  0  0  0  0  0  0  0  0  0  0
   30.3681  -23.8190  -16.1307 O   0  0  0  0  0  0  0  0  0  0  0  0
   28.5594  -22.2209  -15.9902 C   0  0  0  0  0  0  0  0  0  0  0  0
   28.0544  -21.0023  -16.6909 C   0  0  0  0  0  0  0  0  0  0  0  0
   26.7704  -20.4462  -16.1701 C   0  0  2  0  0  0  0  0  0  0  0  0
   26.3845  -19.2976  -16.9552 N   0  0  0  0  0  0  0  0  0  0  0  0
   26.7522  -20.1031  -14.7552 C   0  0  0  0  0  0  0  0  0  0  0  0
   27.1869  -19.0025  -14.2886 O   0  0  0  0  0  0  0  0  0  0  0  0
   26.2288  -21.0192  -13.8070 N   0  0  0  0  0  0  0  0  0  0  0  0
   26.1936  -20.6619  -12.3799 C   0  0  1  0  0  0  0  0  0  0  0  0
   25.1394  -19.5875  -12.1923 C   0  0  0  0  0  0  0  0  0  0  0  0
   23.7966  -19.9999  -12.6608 C   0  0  0  0  0  0  0  0  0  0  0  0
   23.3226  -19.8180  -13.9387 C   0  0  0  0  0  0  0  0  0  0  0  0
   22.0617  -20.2314  -14.3367 C   0  0  0  0  0  0  0  0  0  0  0  0
   21.2148  -20.8548  -13.4459 C   0  0  0  0  0  0  0  0  0  0  0  0
   21.6671  -21.0453  -12.1682 C   0  0  0  0  0  0  0  0  0  0  0  0
   22.9182  -20.6353  -11.7733 C   0  0  0  0  0  0  0  0  0  0  0  0
   25.7819  -21.8572  -11.6342 C   0  0  0  0  0  0  0  0  0  0  0  0
   25.6860  -21.8195  -10.2591 O   0  0  0  0  0  0  0  0  0  0  0  0
   25.5165  -22.9122  -12.2352 O   0  0  0  0  0  0  0  0  0  0  0  0
  2  1  1  0
  3  2  1  0
  4  3  1  0
  4  5  1  0
  5  1  1  0
  5  6  1  1
  6  7  2  0
  8  9  1  0
  9 11  1  0
 10  9  2  0
 11 12  1  0
 13 12  1  6
 14  6  1  0
 14 13  1  0
 15 17  1  0
 15 13  1  0
 16 15  2  0
 18 26  1  0
 18 19  1  6
 18 17  1  0
 20 19  1  0
 20 21  2  0
 22 21  1  0
 23 22  2  0
 24 25  2  0
 24 23  1  0
 25 20  1  0
 26 27  1  0
 28 26  2  0
M  END
$$$$
