PQF.pdb
     RDKit          3D

 28 29  0  0  1  0  0  0  0  0999 V2000
   18.4959  -11.1072  -15.1634 N   0  0  0  0  0  0  0  0  0  0  0  0
   18.1159  -12.4709  -15.3868 C   0  0  0  0  0  0  0  0  0  0  0  0
   18.6848  -12.8793  -16.7261 C   0  0  0  0  0  0  0  0  0  0  0  0
   18.9404  -11.5310  -17.3754 C   0  0  0  0  0  0  0  0  0  0  0  0
   19.4718  -10.7588  -16.1612 C   0  0  1  0  0  0  0  0  0  0  0  0
   19.5170   -9.3021  -16.4304 C   0  0  0  0  0  0  0  0  0  0  0  0
   20.3215   -8.8622  -17.2618 O   0  0  0  0  0  0  0  0  0  0  0  0
   16.9152   -4.3647  -17.7088 N   0  0  0  0  0  0  0  0  0  0  0  0
   16.5393   -5.6198  -18.2717 C   0  0  0  0  0  0  0  0  0  0  0  0
   16.1592   -5.6124  -19.4639 O   0  0  0  0  0  0  0  0  0  0  0  0
   16.6225   -6.8211  -17.4220 C   0  0  0  0  0  0  0  0  0  0  0  0
   17.1673   -6.5836  -16.0516 C   0  0  0  0  0  0  0  0  0  0  0  0
   18.5780   -7.0223  -15.8351 C   0  0  2  0  0  0  0  0  0  0  0  0
   18.6268   -8.4604  -15.7170 N   0  0  0  0  0  0  0  0  0  0  0  0
   19.2687   -6.4128  -14.7077 C   0  0  0  0  0  0  0  0  0  0  0  0
   18.9073   -6.5542  -13.4963 O   0  0  0  0  0  0  0  0  0  0  0  0
   20.4153   -5.6065  -14.9264 N   0  0  0  0  0  0  0  0  0  0  0  0
   21.0713   -4.9365  -13.7923 C   0  0  1  0  0  0  0  0  0  0  0  0
   22.3285   -5.7145  -13.4528 C   0  0  0  0  0  0  0  0  0  0  0  0
   23.1861   -5.9798  -14.6304 C   0  0  0  0  0  0  0  0  0  0  0  0
   24.0313   -5.0611  -15.2070 C   0  0  0  0  0  0  0  0  0  0  0  0
   24.8258   -5.3574  -16.3026 C   0  0  0  0  0  0  0  0  0  0  0  0
   24.7979   -6.6132  -16.8696 C   0  0  0  0  0  0  0  0  0  0  0  0
   23.9628   -7.5427  -16.3111 C   0  0  0  0  0  0  0  0  0  0  0  0
   23.1747   -7.2488  -15.2239 C   0  0  0  0  0  0  0  0  0  0  0  0
   21.4581   -3.5920  -14.2358 C   0  0  0  0  0  0  0  0  0  0  0  0
   22.0506   -2.7130  -13.3538 O   0  0  0  0  0  0  0  0  0  0  0  0
   21.2551   -3.2347  -15.4087 O   0  0  0  0  0  0  0  0  0  0  0  0
  2  1  1  0
  3  2  1  0
  4  3  1  0
  4  5  1  0
  5  1  1  0
  5  6  1  6
  6  7  2  0
  8  9  1  0
  9 11  1  0
 10  9  2  0
 11 12  1  0
 13 12  1  1
 14  6  1  0
 14 13  1  0
 15 17  1  0
 15 13  1  0
 16 15  2  0
 18 26  1  0
 18 19  1  6
 18 17  1  0
 20 19  1  0
 20 21  2  0
 22 21  1  0
 23 22  2  0
 24 25  2  0
 24 23  1  0
 25 20  1  0
 26 27  1  0
 28 26  2  0
M  END
$$$$
