PQF.pdb
     RDKit          3D

 28 29  0  0  1  0  0  0  0  0999 V2000
   28.7813  -19.8293  -15.4119 N   0  0  0  0  0  0  0  0  0  0  0  0
   29.2546  -19.3477  -16.6760 C   0  0  0  0  0  0  0  0  0  0  0  0
   29.0790  -17.8465  -16.6761 C   0  0  0  0  0  0  0  0  0  0  0  0
   28.0567  -17.6567  -15.5699 C   0  0  0  0  0  0  0  0  0  0  0  0
   28.5773  -18.6878  -14.5605 C   0  0  1  0  0  0  0  0  0  0  0  0
   27.5811  -18.9432  -13.4934 C   0  0  0  0  0  0  0  0  0  0  0  0
   27.2069  -18.0077  -12.7746 O   0  0  0  0  0  0  0  0  0  0  0  0
   24.3845  -24.2718  -13.5448 N   0  0  0  0  0  0  0  0  0  0  0  0
   23.5635  -23.4975  -12.6731 C   0  0  0  0  0  0  0  0  0  0  0  0
   22.6005  -24.0869  -12.1336 O   0  0  0  0  0  0  0  0  0  0  0  0
   23.9009  -22.0771  -12.4718 C   0  0  0  0  0  0  0  0  0  0  0  0
   25.1023  -21.6051  -13.2234 C   0  0  0  0  0  0  0  0  0  0  0  0
   25.9754  -20.6355  -12.4977 C   0  0  2  0  0  0  0  0  0  0  0  0
   27.0905  -20.2639  -13.3361 N   0  0  0  0  0  0  0  0  0  0  0  0
   26.4623  -21.0678  -11.1954 C   0  0  0  0  0  0  0  0  0  0  0  0
   27.6052  -21.5931  -11.0062 O   0  0  0  0  0  0  0  0  0  0  0  0
   25.6485  -20.9136  -10.0437 N   0  0  0  0  0  0  0  0  0  0  0  0
   26.2336  -21.0694   -8.7025 C   0  0  1  0  0  0  0  0  0  0  0  0
   27.2324  -19.9469   -8.4944 C   0  0  0  0  0  0  0  0  0  0  0  0
   27.7494  -19.8758   -7.1086 C   0  0  0  0  0  0  0  0  0  0  0  0
   27.2896  -19.0101   -6.1442 C   0  0  0  0  0  0  0  0  0  0  0  0
   27.7955  -18.9869   -4.8548 C   0  0  0  0  0  0  0  0  0  0  0  0
   28.8026  -19.8503   -4.4812 C   0  0  0  0  0  0  0  0  0  0  0  0
   29.2751  -20.7202   -5.4264 C   0  0  0  0  0  0  0  0  0  0  0  0
   28.7730  -20.7435   -6.7058 C   0  0  0  0  0  0  0  0  0  0  0  0
   25.1485  -20.9179   -7.7257 C   0  0  0  0  0  0  0  0  0  0  0  0
   23.9579  -20.3289   -8.0958 O   0  0  0  0  0  0  0  0  0  0  0  0
   25.2937  -21.3187   -6.5583 O   0  0  0  0  0  0  0  0  0  0  0  0
  2  1  1  0
  3  2  1  0
  4  3  1  0
  4  5  1  0
  5  1  1  0
  5  6  1  1
  6  7  2  0
  8  9  1  0
  9 11  1  0
 10  9  2  0
 11 12  1  0
 13 12  1  6
 14  6  1  0
 14 13  1  0
 15 17  1  0
 15 13  1  0
 16 15  2  0
 18 26  1  0
 18 19  1  1
 18 17  1  0
 20 19  1  0
 20 21  2  0
 22 21  1  0
 23 22  2  0
 24 25  2  0
 24 23  1  0
 25 20  1  0
 26 27  1  0
 28 26  2  0
M  END
$$$$
