PQF.pdb
     RDKit          3D

 28 29  0  0  1  0  0  0  0  0999 V2000
   19.3202  -14.7643  -18.5937 N   0  0  0  0  0  0  0  0  0  0  0  0
   18.8892  -16.0718  -18.9918 C   0  0  0  0  0  0  0  0  0  0  0  0
   19.6336  -16.4205  -20.2601 C   0  0  0  0  0  0  0  0  0  0  0  0
   20.0788  -15.0512  -20.7413 C   0  0  0  0  0  0  0  0  0  0  0  0
   20.4627  -14.4197  -19.3970 C   0  0  1  0  0  0  0  0  0  0  0  0
   20.6479  -12.9550  -19.5265 C   0  0  0  0  0  0  0  0  0  0  0  0
   21.6766  -12.5170  -20.0572 O   0  0  0  0  0  0  0  0  0  0  0  0
   18.4218   -6.6064  -20.4937 N   0  0  0  0  0  0  0  0  0  0  0  0
   17.9247   -7.9057  -20.8072 C   0  0  0  0  0  0  0  0  0  0  0  0
   16.6945   -8.0046  -21.0133 O   0  0  0  0  0  0  0  0  0  0  0  0
   18.8808   -9.0258  -20.8649 C   0  0  0  0  0  0  0  0  0  0  0  0
   18.5452  -10.1831  -19.9822 C   0  0  0  0  0  0  0  0  0  0  0  0
   19.6511  -10.6619  -19.1007 C   0  0  2  0  0  0  0  0  0  0  0  0
   19.6279  -12.1038  -19.0318 N   0  0  0  0  0  0  0  0  0  0  0  0
   19.6794  -10.1059  -17.7554 C   0  0  0  0  0  0  0  0  0  0  0  0
   19.0937  -10.6360  -16.7584 O   0  0  0  0  0  0  0  0  0  0  0  0
   20.3887   -8.9051  -17.4958 N   0  0  0  0  0  0  0  0  0  0  0  0
   20.3390   -8.2952  -16.1575 C   0  0  1  0  0  0  0  0  0  0  0  0
   21.6915   -8.4969  -15.5009 C   0  0  0  0  0  0  0  0  0  0  0  0
   21.8033   -7.8355  -14.1807 C   0  0  0  0  0  0  0  0  0  0  0  0
   22.0481   -6.4954  -13.9940 C   0  0  0  0  0  0  0  0  0  0  0  0
   22.1327   -5.9164  -12.7382 C   0  0  0  0  0  0  0  0  0  0  0  0
   21.9713   -6.6798  -11.6021 C   0  0  0  0  0  0  0  0  0  0  0  0
   21.7271   -8.0165  -11.7658 C   0  0  0  0  0  0  0  0  0  0  0  0
   21.6430   -8.5909  -13.0117 C   0  0  0  0  0  0  0  0  0  0  0  0
   20.1145   -6.8556  -16.3349 C   0  0  0  0  0  0  0  0  0  0  0  0
   19.4946   -6.1221  -15.3455 O   0  0  0  0  0  0  0  0  0  0  0  0
   20.4809   -6.2865  -17.3772 O   0  0  0  0  0  0  0  0  0  0  0  0
  2  1  1  0
  3  2  1  0
  4  3  1  0
  4  5  1  0
  5  1  1  0
  5  6  1  6
  6  7  2  0
  8  9  1  0
  9 11  1  0
 10  9  2  0
 11 12  1  0
 13 12  1  1
 14  6  1  0
 14 13  1  0
 15 17  1  0
 15 13  1  0
 16 15  2  0
 18 26  1  0
 18 19  1  6
 18 17  1  0
 20 19  1  0
 20 21  2  0
 22 21  1  0
 23 22  2  0
 24 25  2  0
 24 23  1  0
 25 20  1  0
 26 27  1  0
 28 26  2  0
M  END
$$$$
