PQF.pdb
     RDKit          3D

 28 29  0  0  1  0  0  0  0  0999 V2000
   27.3075  -20.3475  -15.3439 N   0  0  0  0  0  0  0  0  0  0  0  0
   27.6770  -19.9631  -16.6742 C   0  0  0  0  0  0  0  0  0  0  0  0
   28.4365  -18.6608  -16.5679 C   0  0  0  0  0  0  0  0  0  0  0  0
   28.0085  -18.1664  -15.1978 C   0  0  0  0  0  0  0  0  0  0  0  0
   28.0209  -19.4949  -14.4310 C   0  0  1  0  0  0  0  0  0  0  0  0
   27.3389  -19.3642  -13.1217 C   0  0  0  0  0  0  0  0  0  0  0  0
   27.7927  -18.5836  -12.2752 O   0  0  0  0  0  0  0  0  0  0  0  0
   21.2700  -20.8878  -12.7635 N   0  0  0  0  0  0  0  0  0  0  0  0
   21.5231  -20.5170  -11.4100 C   0  0  0  0  0  0  0  0  0  0  0  0
   20.5349  -20.4685  -10.6440 O   0  0  0  0  0  0  0  0  0  0  0  0
   22.9112  -20.2201  -11.0135 C   0  0  0  0  0  0  0  0  0  0  0  0
   23.9147  -20.3270  -12.1147 C   0  0  0  0  0  0  0  0  0  0  0  0
   25.3267  -20.0318  -11.7294 C   0  0  2  0  0  0  0  0  0  0  0  0
   26.1806  -20.1473  -12.8878 N   0  0  0  0  0  0  0  0  0  0  0  0
   25.8688  -20.8281  -10.6377 C   0  0  0  0  0  0  0  0  0  0  0  0
   26.0366  -22.0877  -10.6964 O   0  0  0  0  0  0  0  0  0  0  0  0
   26.2445  -20.2050   -9.4200 N   0  0  0  0  0  0  0  0  0  0  0  0
   26.7168  -21.0212   -8.2903 C   0  0  1  0  0  0  0  0  0  0  0  0
   28.1641  -20.6553   -8.0213 C   0  0  0  0  0  0  0  0  0  0  0  0
   28.3743  -20.0503   -6.6862 C   0  0  0  0  0  0  0  0  0  0  0  0
   28.0762  -18.7481   -6.3603 C   0  0  0  0  0  0  0  0  0  0  0  0
   28.2786  -18.2272   -5.0927 C   0  0  0  0  0  0  0  0  0  0  0  0
   28.7988  -19.0128   -4.0869 C   0  0  0  0  0  0  0  0  0  0  0  0
   29.1028  -20.3123   -4.3903 C   0  0  0  0  0  0  0  0  0  0  0  0
   28.9019  -20.8292   -5.6480 C   0  0  0  0  0  0  0  0  0  0  0  0
   25.9156  -20.6572   -7.1156 C   0  0  0  0  0  0  0  0  0  0  0  0
   25.9366  -21.4501   -5.9876 O   0  0  0  0  0  0  0  0  0  0  0  0
   25.2125  -19.6326   -7.1277 O   0  0  0  0  0  0  0  0  0  0  0  0
  2  1  1  0
  3  2  1  0
  4  3  1  0
  4  5  1  0
  5  1  1  0
  5  6  1  1
  6  7  2  0
  8  9  1  0
  9 11  1  0
 10  9  2  0
 11 12  1  0
 13 12  1  6
 14  6  1  0
 14 13  1  0
 15 17  1  0
 15 13  1  0
 16 15  2  0
 18 26  1  0
 18 19  1  1
 18 17  1  0
 20 19  1  0
 20 21  2  0
 22 21  1  0
 23 22  2  0
 24 25  2  0
 24 23  1  0
 25 20  1  0
 26 27  1  0
 28 26  2  0
M  END
$$$$
