CRT.pdb
     RDKit          3D

 25 24  0  0  1  0  0  0  0  0999 V2000
    7.7802  -18.5666   26.5514 N   0  0  0  0  0  0  0  0  0  0  0  0
    7.9273  -17.1654   26.0959 C   0  0  1  0  0  0  0  0  0  0  0  0
    8.7715  -16.4587   27.0950 C   0  0  0  0  0  0  0  0  0  0  0  0
    8.6422  -14.6610   27.0738 S   0  0  0  0  0  0  0  0  0  0  0  0
    8.3537  -17.1284   24.7002 C   0  0  0  0  0  0  0  0  0  0  0  0
    8.9921  -18.1194   24.2310 O   0  0  0  0  0  0  0  0  0  0  0  0
   10.0043  -13.5218   18.6608 N   0  0  0  0  0  0  0  0  0  0  0  0
    8.8391  -13.3586   17.8262 C   0  0  0  0  0  0  0  0  0  0  0  0
    8.9649  -13.1125   16.5731 N   0  0  0  0  0  0  0  0  0  0  0  0
    7.5321  -13.4603   18.3623 N   0  0  0  0  0  0  0  0  0  0  0  0
    7.3266  -13.7044   19.7580 C   0  0  0  0  0  0  0  0  0  0  0  0
    8.3768  -14.6518   20.3373 C   0  0  0  0  0  0  0  0  0  0  0  0
    7.9308  -14.9613   21.7391 C   0  0  0  0  0  0  0  0  0  0  0  0
    8.6454  -16.0470   22.4461 C   0  0  2  0  0  0  0  0  0  0  0  0
    8.1054  -16.0728   23.8191 N   0  0  0  0  0  0  0  0  0  0  0  0
   10.0914  -15.8432   22.4452 C   0  0  0  0  0  0  0  0  0  0  0  0
   10.6006  -15.0075   23.2397 O   0  0  0  0  0  0  0  0  0  0  0  0
    8.1500  -12.8808   15.9841 C   0  0  0  0  0  0  0  0  0  0  0  0
   14.8239  -16.9552   21.4813 C   0  0  2  0  0  0  0  0  0  0  0  0
   13.3551  -17.3744   21.5641 O   0  0  0  0  0  0  0  0  0  0  0  0
   13.1737  -18.2449   22.6490 C   0  0  1  0  0  0  0  0  0  0  0  0
   12.4415  -16.1991   21.6326 N   0  0  0  0  0  0  0  0  0  0  0  0
   11.0348  -16.5132   21.6051 C   0  0  0  0  0  0  0  0  0  0  0  0
   12.8084  -15.3259   20.4584 O   0  0  0  0  0  0  0  0  0  0  0  0
   12.0513  -15.2116   19.3354 O   0  0  0  0  0  0  0  0  0  0  0  0
  2  1  1  1
  2  3  1  0
  2  5  1  0
  4  3  1  0
  5  6  2  0
  7  8  1  0
  8 10  1  0
  8  9  2  0
 10 11  1  0
 11 12  1  0
 12 13  1  0
 14 13  1  6
 15 14  1  0
 15  5  1  0
 16 14  1  0
 16 17  2  0
 19 18  1  6
 19 21  1  0
 20 19  1  0
 21 22  1  6
 21 23  1  0
 22 16  1  0
 23 24  1  0
 25 23  2  0
M  END
$$$$
