CRT.pdb
     RDKit          3D

 25 24  0  0  1  0  0  0  0  0999 V2000
    7.9759  -13.9149   17.8961 N   0  0  0  0  0  0  0  0  0  0  0  0
    8.5566  -13.5320   19.2032 C   0  0  1  0  0  0  0  0  0  0  0  0
    7.5374  -12.7246   19.9239 C   0  0  0  0  0  0  0  0  0  0  0  0
    7.9281  -12.3550   21.6443 S   0  0  0  0  0  0  0  0  0  0  0  0
    9.0953  -14.7068   19.8820 C   0  0  0  0  0  0  0  0  0  0  0  0
    8.5321  -15.8289   19.6987 O   0  0  0  0  0  0  0  0  0  0  0  0
   14.3825  -13.8659   18.3840 N   0  0  0  0  0  0  0  0  0  0  0  0
   14.7522  -15.1559   17.8548 C   0  0  0  0  0  0  0  0  0  0  0  0
   15.2083  -15.2633   16.6602 N   0  0  0  0  0  0  0  0  0  0  0  0
   14.6196  -16.3331   18.6310 N   0  0  0  0  0  0  0  0  0  0  0  0
   14.0322  -16.2913   19.9361 C   0  0  0  0  0  0  0  0  0  0  0  0
   12.5235  -16.0528   19.8807 C   0  0  0  0  0  0  0  0  0  0  0  0
   12.0470  -16.0662   21.3064 C   0  0  0  0  0  0  0  0  0  0  0  0
   10.5973  -15.8731   21.5310 C   0  0  2  0  0  0  0  0  0  0  0  0
   10.2067  -14.6979   20.7288 N   0  0  0  0  0  0  0  0  0  0  0  0
   10.2819  -15.6832   22.9441 C   0  0  0  0  0  0  0  0  0  0  0  0
   10.8492  -14.7596   23.5877 O   0  0  0  0  0  0  0  0  0  0  0  0
   15.5038  -16.1738   16.2752 C   0  0  0  0  0  0  0  0  0  0  0  0
    7.1275  -14.6500   24.8730 C   0  0  2  0  0  0  0  0  0  0  0  0
    7.6598  -15.9675   25.4393 O   0  0  0  0  0  0  0  0  0  0  0  0
    6.8532  -17.0287   25.0021 C   0  0  2  0  0  0  0  0  0  0  0  0
    9.0954  -16.1816   25.1014 N   0  0  0  0  0  0  0  0  0  0  0  0
    9.3634  -16.4637   23.7133 C   0  0  0  0  0  0  0  0  0  0  0  0
    9.5542  -17.3273   25.9690 O   0  0  0  0  0  0  0  0  0  0  0  0
    9.4905  -17.3203   27.3266 O   0  0  0  0  0  0  0  0  0  0  0  0
  2  1  1  6
  2  3  1  0
  2  5  1  0
  4  3  1  0
  5  6  2  0
  7  8  1  0
  8 10  1  0
  8  9  2  0
 10 11  1  0
 11 12  1  0
 12 13  1  0
 14 13  1  1
 15 14  1  0
 15  5  1  0
 16 14  1  0
 16 17  2  0
 19 18  1  1
 19 21  1  0
 20 19  1  0
 21 22  1  1
 21 23  1  0
 22 16  1  0
 23 24  1  0
 25 23  2  0
M  END
$$$$
