CRT.pdb
     RDKit          3D

 25 24  0  0  1  0  0  0  0  0999 V2000
    7.2989  -14.7404   18.2541 N   0  0  0  0  0  0  0  0  0  0  0  0
    8.3598  -14.2968   19.1867 C   0  0  1  0  0  0  0  0  0  0  0  0
    8.5530  -12.8373   18.9799 C   0  0  0  0  0  0  0  0  0  0  0  0
    8.3717  -11.8226   20.4586 S   0  0  0  0  0  0  0  0  0  0  0  0
    8.0689  -14.7573   20.5412 C   0  0  0  0  0  0  0  0  0  0  0  0
    6.8608  -14.7920   20.9272 O   0  0  0  0  0  0  0  0  0  0  0  0
   12.7668  -18.6609   26.0748 N   0  0  0  0  0  0  0  0  0  0  0  0
   11.6256  -19.5061   26.3279 C   0  0  0  0  0  0  0  0  0  0  0  0
   11.5916  -20.2613   27.3647 N   0  0  0  0  0  0  0  0  0  0  0  0
   10.5194  -19.5299   25.4437 N   0  0  0  0  0  0  0  0  0  0  0  0
   10.5182  -18.7454   24.2460 C   0  0  0  0  0  0  0  0  0  0  0  0
    9.5204  -17.5898   24.3161 C   0  0  0  0  0  0  0  0  0  0  0  0
    9.5621  -16.9212   22.9704 C   0  0  0  0  0  0  0  0  0  0  0  0
    8.6694  -15.7580   22.7713 C   0  0  2  0  0  0  0  0  0  0  0  0
    9.0305  -15.1778   21.4635 N   0  0  0  0  0  0  0  0  0  0  0  0
    8.8000  -14.7765   23.8447 C   0  0  0  0  0  0  0  0  0  0  0  0
    9.8467  -14.0787   23.9234 O   0  0  0  0  0  0  0  0  0  0  0  0
   10.8016  -20.9012   27.5408 C   0  0  0  0  0  0  0  0  0  0  0  0
    6.5062  -11.6674   25.2709 C   0  0  2  0  0  0  0  0  0  0  0  0
    6.8588  -12.7437   26.2991 O   0  0  0  0  0  0  0  0  0  0  0  0
    5.7437  -13.5647   26.5235 C   0  0  2  0  0  0  0  0  0  0  0  0
    8.0588  -13.5301   25.8958 N   0  0  0  0  0  0  0  0  0  0  0  0
    7.8317  -14.5092   24.8623 C   0  0  0  0  0  0  0  0  0  0  0  0
    8.5523  -14.1991   27.1547 O   0  0  0  0  0  0  0  0  0  0  0  0
    8.9607  -13.5222   28.2603 O   0  0  0  0  0  0  0  0  0  0  0  0
  2  1  1  6
  2  3  1  0
  2  5  1  0
  4  3  1  0
  5  6  2  0
  7  8  1  0
  8 10  1  0
  8  9  2  0
 10 11  1  0
 11 12  1  0
 12 13  1  0
 14 13  1  1
 15 14  1  0
 15  5  1  0
 16 14  1  0
 16 17  2  0
 19 18  1  1
 19 21  1  0
 20 19  1  0
 21 22  1  1
 21 23  1  0
 22 16  1  0
 23 24  1  0
 25 23  2  0
M  END
$$$$
