CRT.pdb
     RDKit          3D

 25 24  0  0  1  0  0  0  0  0999 V2000
    6.4046  -19.4162   25.6415 N   0  0  0  0  0  0  0  0  0  0  0  0
    6.8396  -18.0017   25.6872 C   0  0  1  0  0  0  0  0  0  0  0  0
    7.5610  -17.7988   26.9711 C   0  0  0  0  0  0  0  0  0  0  0  0
    8.0168  -16.0930   27.3335 S   0  0  0  0  0  0  0  0  0  0  0  0
    7.5358  -17.6455   24.4544 C   0  0  0  0  0  0  0  0  0  0  0  0
    8.2952  -18.5054   23.9126 O   0  0  0  0  0  0  0  0  0  0  0  0
    7.9501  -13.9556   16.8015 N   0  0  0  0  0  0  0  0  0  0  0  0
    8.1659  -13.2737   18.0542 C   0  0  0  0  0  0  0  0  0  0  0  0
    9.3078  -12.7546   18.3249 N   0  0  0  0  0  0  0  0  0  0  0  0
    7.1327  -13.1618   19.0165 N   0  0  0  0  0  0  0  0  0  0  0  0
    7.4351  -13.0655   20.4126 C   0  0  0  0  0  0  0  0  0  0  0  0
    8.3320  -14.2084   20.8873 C   0  0  0  0  0  0  0  0  0  0  0  0
    7.6057  -14.8608   22.0303 C   0  0  0  0  0  0  0  0  0  0  0  0
    8.2152  -16.0814   22.6031 C   0  0  2  0  0  0  0  0  0  0  0  0
    7.4268  -16.4128   23.8056 N   0  0  0  0  0  0  0  0  0  0  0  0
    9.6263  -15.8899   22.9263 C   0  0  0  0  0  0  0  0  0  0  0  0
    9.9502  -15.0757   23.8325 O   0  0  0  0  0  0  0  0  0  0  0  0
    9.4998  -12.3202   19.2409 C   0  0  0  0  0  0  0  0  0  0  0  0
   12.2192  -17.5454   24.9404 C   0  0  2  0  0  0  0  0  0  0  0  0
   12.6850  -17.5001   23.4841 O   0  0  0  0  0  0  0  0  0  0  0  0
   12.4114  -18.7280   22.8632 C   0  0  2  0  0  0  0  0  0  0  0  0
   12.0881  -16.3540   22.7418 N   0  0  0  0  0  0  0  0  0  0  0  0
   10.7297  -16.5496   22.3004 C   0  0  0  0  0  0  0  0  0  0  0  0
   12.9954  -16.1137   21.5606 O   0  0  0  0  0  0  0  0  0  0  0  0
   14.2931  -15.7249   21.6708 O   0  0  0  0  0  0  0  0  0  0  0  0
  2  1  1  6
  2  3  1  0
  2  5  1  0
  4  3  1  0
  5  6  2  0
  7  8  1  0
  8 10  1  0
  8  9  2  0
 10 11  1  0
 11 12  1  0
 12 13  1  0
 14 13  1  1
 15 14  1  0
 15  5  1  0
 16 14  1  0
 16 17  2  0
 19 18  1  1
 19 21  1  0
 20 19  1  0
 21 22  1  6
 21 23  1  0
 22 16  1  0
 23 24  1  0
 25 23  2  0
M  END
$$$$
