CRT.pdb
     RDKit          3D

 25 24  0  0  1  0  0  0  0  0999 V2000
    7.0212  -15.0636   18.7226 N   0  0  0  0  0  0  0  0  0  0  0  0
    7.9304  -14.5277   19.7610 C   0  0  1  0  0  0  0  0  0  0  0  0
    8.0858  -13.0709   19.5082 C   0  0  0  0  0  0  0  0  0  0  0  0
    8.9376  -12.6447   17.9780 S   0  0  0  0  0  0  0  0  0  0  0  0
    7.4843  -14.9420   21.0879 C   0  0  0  0  0  0  0  0  0  0  0  0
    6.3113  -14.6342   21.4607 O   0  0  0  0  0  0  0  0  0  0  0  0
    8.4113  -21.2298   25.9064 N   0  0  0  0  0  0  0  0  0  0  0  0
    7.3120  -20.6766   26.6591 C   0  0  0  0  0  0  0  0  0  0  0  0
    7.0181  -21.1405   27.8188 N   0  0  0  0  0  0  0  0  0  0  0  0
    6.5285  -19.6161   26.1420 N   0  0  0  0  0  0  0  0  0  0  0  0
    6.7739  -19.0907   24.8330 C   0  0  0  0  0  0  0  0  0  0  0  0
    7.9555  -18.1215   24.8141 C   0  0  0  0  0  0  0  0  0  0  0  0
    7.9869  -17.5297   23.4326 C   0  0  0  0  0  0  0  0  0  0  0  0
    7.7457  -16.0742   23.3207 C   0  0  2  0  0  0  0  0  0  0  0  0
    8.2565  -15.6702   21.9966 N   0  0  0  0  0  0  0  0  0  0  0  0
    8.3952  -15.3266   24.3939 C   0  0  0  0  0  0  0  0  0  0  0  0
    9.6535  -15.3132   24.4672 O   0  0  0  0  0  0  0  0  0  0  0  0
    6.2747  -20.7183   28.3965 C   0  0  0  0  0  0  0  0  0  0  0  0
    6.3930  -12.7632   27.3011 C   0  0  2  0  0  0  0  0  0  0  0  0
    7.8607  -12.6010   26.9017 O   0  0  0  0  0  0  0  0  0  0  0  0
    8.5774  -12.0279   27.9627 C   0  0  1  0  0  0  0  0  0  0  0  0
    8.4629  -13.8879   26.4520 N   0  0  0  0  0  0  0  0  0  0  0  0
    7.7341  -14.5777   25.4170 C   0  0  0  0  0  0  0  0  0  0  0  0
    8.5623  -14.7478   27.6875 O   0  0  0  0  0  0  0  0  0  0  0  0
    9.3624  -14.4587   28.7476 O   0  0  0  0  0  0  0  0  0  0  0  0
  2  1  1  6
  2  3  1  0
  2  5  1  0
  4  3  1  0
  5  6  2  0
  7  8  1  0
  8 10  1  0
  8  9  2  0
 10 11  1  0
 11 12  1  0
 12 13  1  0
 14 13  1  1
 15 14  1  0
 15  5  1  0
 16 14  1  0
 16 17  2  0
 19 18  1  6
 19 21  1  0
 20 19  1  0
 21 22  1  6
 21 23  1  0
 22 16  1  0
 23 24  1  0
 25 23  2  0
M  END
$$$$
