CRT.pdb
     RDKit          3D

 25 24  0  0  1  0  0  0  0  0999 V2000
    7.9642  -15.0506   17.8661 N   0  0  0  0  0  0  0  0  0  0  0  0
    8.3757  -14.2292   19.0272 C   0  0  1  0  0  0  0  0  0  0  0  0
    7.7807  -12.8783   18.8504 C   0  0  0  0  0  0  0  0  0  0  0  0
    8.0209  -11.7474   20.2333 S   0  0  0  0  0  0  0  0  0  0  0  0
    8.0947  -14.9362   20.2732 C   0  0  0  0  0  0  0  0  0  0  0  0
    7.0462  -15.6467   20.3481 O   0  0  0  0  0  0  0  0  0  0  0  0
   10.7528  -17.9440   26.7070 N   0  0  0  0  0  0  0  0  0  0  0  0
   10.8748  -19.2768   26.1689 C   0  0  0  0  0  0  0  0  0  0  0  0
   11.6048  -20.1526   26.7579 N   0  0  0  0  0  0  0  0  0  0  0  0
   10.2009  -19.6536   24.9815 N   0  0  0  0  0  0  0  0  0  0  0  0
   10.1932  -18.7947   23.8361 C   0  0  0  0  0  0  0  0  0  0  0  0
    9.2982  -17.5725   24.0394 C   0  0  0  0  0  0  0  0  0  0  0  0
    9.3924  -16.7715   22.7709 C   0  0  0  0  0  0  0  0  0  0  0  0
    8.5313  -15.5725   22.6690 C   0  0  2  0  0  0  0  0  0  0  0  0
    8.9056  -14.8994   21.4105 N   0  0  0  0  0  0  0  0  0  0  0  0
    8.6902  -14.6841   23.8170 C   0  0  0  0  0  0  0  0  0  0  0  0
    9.8040  -14.1314   24.0242 O   0  0  0  0  0  0  0  0  0  0  0  0
   11.8073  -21.0665   26.3239 C   0  0  0  0  0  0  0  0  0  0  0  0
    6.3315  -11.5541   25.3715 C   0  0  2  0  0  0  0  0  0  0  0  0
    6.7165  -12.6865   26.3251 O   0  0  0  0  0  0  0  0  0  0  0  0
    5.6158  -13.5343   26.5189 C   0  0  2  0  0  0  0  0  0  0  0  0
    7.9180  -13.4309   25.8525 N   0  0  0  0  0  0  0  0  0  0  0  0
    7.6801  -14.3592   24.7755 C   0  0  0  0  0  0  0  0  0  0  0  0
    8.4533  -14.1554   27.0626 O   0  0  0  0  0  0  0  0  0  0  0  0
    8.5828  -15.5063   27.1392 O   0  0  0  0  0  0  0  0  0  0  0  0
  2  1  1  6
  2  3  1  0
  2  5  1  0
  4  3  1  0
  5  6  2  0
  7  8  1  0
  8 10  1  0
  8  9  2  0
 10 11  1  0
 11 12  1  0
 12 13  1  0
 14 13  1  1
 15 14  1  0
 15  5  1  0
 16 14  1  0
 16 17  2  0
 19 18  1  1
 19 21  1  0
 20 19  1  0
 21 22  1  1
 21 23  1  0
 22 16  1  0
 23 24  1  0
 25 23  2  0
M  END
$$$$
