CRT.pdb
     RDKit          3D

 25 24  0  0  1  0  0  0  0  0999 V2000
    7.3460  -14.6061   18.2911 N   0  0  0  0  0  0  0  0  0  0  0  0
    8.2001  -13.9508   19.3077 C   0  0  1  0  0  0  0  0  0  0  0  0
    7.6938  -12.5647   19.4883 C   0  0  0  0  0  0  0  0  0  0  0  0
    8.4149  -11.6587   20.8696 S   0  0  0  0  0  0  0  0  0  0  0  0
    8.3108  -14.7926   20.4953 C   0  0  0  0  0  0  0  0  0  0  0  0
    7.2739  -15.3883   20.9194 O   0  0  0  0  0  0  0  0  0  0  0  0
   10.7672  -20.8823   22.8291 N   0  0  0  0  0  0  0  0  0  0  0  0
   11.3948  -20.9084   21.5305 C   0  0  0  0  0  0  0  0  0  0  0  0
   11.2538  -21.9242   20.7593 N   0  0  0  0  0  0  0  0  0  0  0  0
   12.1825  -19.8234   21.0741 N   0  0  0  0  0  0  0  0  0  0  0  0
   12.1112  -18.5433   21.7114 C   0  0  0  0  0  0  0  0  0  0  0  0
   10.6906  -17.9793   21.7121 C   0  0  0  0  0  0  0  0  0  0  0  0
   10.7807  -16.6243   22.3568 C   0  0  0  0  0  0  0  0  0  0  0  0
    9.5322  -15.8339   22.4342 C   0  0  2  0  0  0  0  0  0  0  0  0
    9.4901  -15.0056   21.2137 N   0  0  0  0  0  0  0  0  0  0  0  0
    9.4779  -15.0112   23.6395 C   0  0  0  0  0  0  0  0  0  0  0  0
   10.4548  -14.2690   23.9285 O   0  0  0  0  0  0  0  0  0  0  0  0
   11.7095  -21.9673   19.8346 C   0  0  0  0  0  0  0  0  0  0  0  0
    6.9823  -12.2283   25.2098 C   0  0  2  0  0  0  0  0  0  0  0  0
    7.2148  -13.4311   26.1259 O   0  0  0  0  0  0  0  0  0  0  0  0
    6.0882  -14.2666   26.1021 C   0  0  2  0  0  0  0  0  0  0  0  0
    8.4628  -14.1669   25.7764 N   0  0  0  0  0  0  0  0  0  0  0  0
    8.3939  -14.9533   24.5702 C   0  0  0  0  0  0  0  0  0  0  0  0
    8.7643  -15.0488   26.9627 O   0  0  0  0  0  0  0  0  0  0  0  0
    9.0445  -14.5749   28.2053 O   0  0  0  0  0  0  0  0  0  0  0  0
  2  1  1  6
  2  3  1  0
  2  5  1  0
  4  3  1  0
  5  6  2  0
  7  8  1  0
  8 10  1  0
  8  9  2  0
 10 11  1  0
 11 12  1  0
 12 13  1  0
 14 13  1  1
 15 14  1  0
 15  5  1  0
 16 14  1  0
 16 17  2  0
 19 18  1  1
 19 21  1  0
 20 19  1  0
 21 22  1  1
 21 23  1  0
 22 16  1  0
 23 24  1  0
 25 23  2  0
M  END
$$$$
