CRT.pdb
     RDKit          3D

 25 24  0  0  1  0  0  0  0  0999 V2000
    6.3173  -18.4444   25.9647 N   0  0  0  0  0  0  0  0  0  0  0  0
    6.8663  -17.0935   25.7079 C   0  0  1  0  0  0  0  0  0  0  0  0
    7.7536  -16.7488   26.8498 C   0  0  0  0  0  0  0  0  0  0  0  0
    8.1151  -14.9930   27.0374 S   0  0  0  0  0  0  0  0  0  0  0  0
    7.4323  -17.0237   24.3640 C   0  0  0  0  0  0  0  0  0  0  0  0
    7.8894  -18.0843   23.8389 O   0  0  0  0  0  0  0  0  0  0  0  0
    7.5711  -15.2791   17.7675 N   0  0  0  0  0  0  0  0  0  0  0  0
    7.9766  -13.9469   17.3910 C   0  0  0  0  0  0  0  0  0  0  0  0
    8.3668  -13.6988   16.1940 N   0  0  0  0  0  0  0  0  0  0  0  0
    7.9599  -12.8829   18.3256 N   0  0  0  0  0  0  0  0  0  0  0  0
    7.6260  -13.1149   19.6984 C   0  0  0  0  0  0  0  0  0  0  0  0
    8.4266  -14.2707   20.2979 C   0  0  0  0  0  0  0  0  0  0  0  0
    7.7616  -14.6050   21.6039 C   0  0  0  0  0  0  0  0  0  0  0  0
    8.2427  -15.8117   22.3122 C   0  0  2  0  0  0  0  0  0  0  0  0
    7.5073  -15.8625   23.5905 N   0  0  0  0  0  0  0  0  0  0  0  0
    9.6866  -15.7815   22.5282 C   0  0  0  0  0  0  0  0  0  0  0  0
   10.1836  -14.8975   23.2769 O   0  0  0  0  0  0  0  0  0  0  0  0
    8.7097  -12.7648   15.9208 C   0  0  0  0  0  0  0  0  0  0  0  0
   12.4521  -18.1453   24.1595 C   0  0  2  0  0  0  0  0  0  0  0  0
   12.6999  -17.8513   22.6789 O   0  0  0  0  0  0  0  0  0  0  0  0
   12.2844  -18.9451   21.9051 C   0  0  2  0  0  0  0  0  0  0  0  0
   12.0507  -16.5819   22.2450 N   0  0  0  0  0  0  0  0  0  0  0  0
   10.6414  -16.6805   21.9583 C   0  0  0  0  0  0  0  0  0  0  0  0
   12.8068  -16.1333   21.0190 O   0  0  0  0  0  0  0  0  0  0  0  0
   14.1086  -15.7432   21.0342 O   0  0  0  0  0  0  0  0  0  0  0  0
  2  1  1  1
  2  3  1  0
  2  5  1  0
  4  3  1  0
  5  6  2  0
  7  8  1  0
  8 10  1  0
  8  9  2  0
 10 11  1  0
 11 12  1  0
 12 13  1  0
 14 13  1  1
 15 14  1  0
 15  5  1  0
 16 14  1  0
 16 17  2  0
 19 18  1  1
 19 21  1  0
 20 19  1  0
 21 22  1  6
 21 23  1  0
 22 16  1  0
 23 24  1  0
 25 23  2  0
M  END
$$$$
