CRT.pdb
     RDKit          3D

 25 24  0  0  1  0  0  0  0  0999 V2000
    5.1390  -13.4247   26.9037 N   0  0  0  0  0  0  0  0  0  0  0  0
    6.3367  -12.8549   26.2456 C   0  0  1  0  0  0  0  0  0  0  0  0
    7.3169  -12.5247   27.3135 C   0  0  0  0  0  0  0  0  0  0  0  0
    7.5609  -10.7640   27.6127 S   0  0  0  0  0  0  0  0  0  0  0  0
    6.7821  -13.7259   25.1619 C   0  0  0  0  0  0  0  0  0  0  0  0
    6.7846  -14.9807   25.3498 O   0  0  0  0  0  0  0  0  0  0  0  0
    9.7170  -15.3650   18.1629 N   0  0  0  0  0  0  0  0  0  0  0  0
    8.6369  -14.7124   17.4641 C   0  0  0  0  0  0  0  0  0  0  0  0
    8.2816  -15.1105   16.2971 N   0  0  0  0  0  0  0  0  0  0  0  0
    7.9449  -13.6189   18.0398 N   0  0  0  0  0  0  0  0  0  0  0  0
    8.3630  -13.0596   19.2896 C   0  0  0  0  0  0  0  0  0  0  0  0
    8.3643  -14.0966   20.4124 C   0  0  0  0  0  0  0  0  0  0  0  0
    7.8021  -13.4025   21.6214 C   0  0  0  0  0  0  0  0  0  0  0  0
    7.6553  -14.2113   22.8517 C   0  0  2  0  0  0  0  0  0  0  0  0
    7.2079  -13.2824   23.9072 N   0  0  0  0  0  0  0  0  0  0  0  0
    8.9006  -14.8787   23.2210 C   0  0  0  0  0  0  0  0  0  0  0  0
    9.8496  -14.2008   23.6992 O   0  0  0  0  0  0  0  0  0  0  0  0
    7.5632  -14.6097   15.7515 C   0  0  0  0  0  0  0  0  0  0  0  0
   10.0149  -17.6478   25.7981 C   0  0  2  0  0  0  0  0  0  0  0  0
   10.3739  -18.0317   24.3615 O   0  0  0  0  0  0  0  0  0  0  0  0
    9.4644  -18.9891   23.8881 C   0  0  2  0  0  0  0  0  0  0  0  0
   10.4481  -16.8420   23.4670 N   0  0  0  0  0  0  0  0  0  0  0  0
    9.1763  -16.2759   23.0925 C   0  0  0  0  0  0  0  0  0  0  0  0
   11.2025  -17.2967   22.2422 O   0  0  0  0  0  0  0  0  0  0  0  0
   12.4747  -17.7740   22.2717 O   0  0  0  0  0  0  0  0  0  0  0  0
  2  1  1  1
  2  3  1  0
  2  5  1  0
  4  3  1  0
  5  6  2  0
  7  8  1  0
  8 10  1  0
  8  9  2  0
 10 11  1  0
 11 12  1  0
 12 13  1  0
 14 13  1  6
 15 14  1  0
 15  5  1  0
 16 14  1  0
 16 17  2  0
 19 18  1  1
 19 21  1  0
 20 19  1  0
 21 22  1  6
 21 23  1  0
 22 16  1  0
 23 24  1  0
 25 23  2  0
M  END
$$$$
