GYH.pdb
     RDKit          3D

 27 28  0  0  1  0  0  0  0  0999 V2000
   26.1199  -15.4177  -21.7030 N   0  0  0  0  0  0  0  0  0  0  0  0
   25.3686  -15.5603  -20.4902 C   0  0  0  0  0  0  0  0  0  0  0  0
   23.9175  -15.2889  -20.7250 C   0  0  0  0  0  0  0  0  0  0  0  0
   23.5702  -14.8719  -21.8452 O   0  0  0  0  0  0  0  0  0  0  0  0
   20.9860  -21.1159  -22.3866 O   0  0  0  0  0  0  0  0  0  0  0  0
   20.8793  -19.9150  -21.6785 C   0  0  0  0  0  0  0  0  0  0  0  0
   20.0059  -18.9127  -22.0580 C   0  0  0  0  0  0  0  0  0  0  0  0
   19.9358  -17.7480  -21.3299 C   0  0  0  0  0  0  0  0  0  0  0  0
   20.7101  -17.5162  -20.2097 C   0  0  0  0  0  0  0  0  0  0  0  0
   20.6335  -16.2706  -19.4332 C   0  0  0  0  0  0  0  0  0  0  0  0
   21.5402  -15.1883  -19.9871 C   0  0  2  0  0  0  0  0  0  0  0  0
   22.9337  -15.4844  -19.7372 N   0  0  0  0  0  0  0  0  0  0  0  0
   21.2227  -13.8984  -19.3092 C   0  0  0  0  0  0  0  0  0  0  0  0
   21.6998  -13.6087  -18.1729 O   0  0  0  0  0  0  0  0  0  0  0  0
   21.5868  -18.5179  -19.8258 C   0  0  0  0  0  0  0  0  0  0  0  0
   21.6543  -19.6823  -20.5568 C   0  0  0  0  0  0  0  0  0  0  0  0
   20.3743  -12.9783  -19.9418 N   0  0  0  0  0  0  0  0  0  0  0  0
   20.0429  -11.7166  -19.2123 C   0  0  1  0  0  0  0  0  0  0  0  0
   20.3687  -10.6400  -20.1986 C   0  0  0  0  0  0  0  0  0  0  0  0
   20.0524   -9.2753  -19.8285 C   0  0  0  0  0  0  0  0  0  0  0  0
   19.6215   -8.7403  -18.6634 C   0  0  0  0  0  0  0  0  0  0  0  0
   19.5272   -7.4059  -18.8506 N   0  0  0  0  0  0  0  0  0  0  0  0
   19.8883   -7.1122  -20.0938 C   0  0  0  0  0  0  0  0  0  0  0  0
   20.2135   -8.2391  -20.7095 N   0  0  0  0  0  0  0  0  0  0  0  0
   18.5720  -11.8475  -18.9581 C   0  0  0  0  0  0  0  0  0  0  0  0
   17.8552  -12.5868  -19.7224 O   0  0  0  0  0  0  0  0  0  0  0  0
   17.8925  -11.2226  -17.9402 O   0  0  0  0  0  0  0  0  0  0  0  0
  2  1  1  0
  3  4  2  0
  3  2  1  0
  6  5  1  0
  6  7  2  0
  8  7  1  0
  9  8  2  0
 10  9  1  0
 11 12  1  0
 11 10  1  1
 12  3  1  0
 13 11  1  0
 14 13  2  0
 15 16  2  0
 15  9  1  0
 16  6  1  0
 17 13  1  0
 18 19  1  6
 18 17  1  0
 19 20  1  0
 20 21  2  0
 21 22  1  0
 23 22  1  0
 24 20  1  0
 24 23  2  0
 25 27  1  0
 25 18  1  0
 26 25  2  0
M  END
$$$$
