GYH.pdb
     RDKit          3D

 27 28  0  0  1  0  0  0  0  0999 V2000
   17.6304  -12.3783    4.7372 N   0  0  0  0  0  0  0  0  0  0  0  0
   17.5730  -12.2805    6.1665 C   0  0  0  0  0  0  0  0  0  0  0  0
   18.7486  -12.9554    6.7963 C   0  0  0  0  0  0  0  0  0  0  0  0
   19.5465  -13.5600    6.0565 O   0  0  0  0  0  0  0  0  0  0  0  0
   23.3242   -8.0719    7.3170 O   0  0  0  0  0  0  0  0  0  0  0  0
   22.7308   -9.1907    7.9095 C   0  0  0  0  0  0  0  0  0  0  0  0
   23.3104  -10.4447    7.8573 C   0  0  0  0  0  0  0  0  0  0  0  0
   22.6892  -11.5162    8.4553 C   0  0  0  0  0  0  0  0  0  0  0  0
   21.4852  -11.4075    9.1238 C   0  0  0  0  0  0  0  0  0  0  0  0
   20.8230  -12.5541    9.7620 C   0  0  0  0  0  0  0  0  0  0  0  0
   20.1959  -13.4948    8.7510 C   0  0  2  0  0  0  0  0  0  0  0  0
   18.9890  -12.9354    8.1833 N   0  0  0  0  0  0  0  0  0  0  0  0
   19.8265  -14.7658    9.4381 C   0  0  0  0  0  0  0  0  0  0  0  0
   18.6272  -15.0333    9.7429 O   0  0  0  0  0  0  0  0  0  0  0  0
   20.9007  -10.1526    9.1786 C   0  0  0  0  0  0  0  0  0  0  0  0
   21.5253   -9.0825    8.5790 C   0  0  0  0  0  0  0  0  0  0  0  0
   20.8290  -15.6929    9.7575 N   0  0  0  0  0  0  0  0  0  0  0  0
   20.4082  -17.0105   10.3235 C   0  0  1  0  0  0  0  0  0  0  0  0
   19.7103  -17.6807    9.1826 C   0  0  0  0  0  0  0  0  0  0  0  0
   18.6495  -18.6144    9.5025 C   0  0  0  0  0  0  0  0  0  0  0  0
   18.1034  -18.9788   10.6851 C   0  0  0  0  0  0  0  0  0  0  0  0
   17.1114  -19.8535   10.4111 N   0  0  0  0  0  0  0  0  0  0  0  0
   17.0361  -20.0321    9.0979 C   0  0  0  0  0  0  0  0  0  0  0  0
   17.9664  -19.2847    8.5228 N   0  0  0  0  0  0  0  0  0  0  0  0
   21.7116  -17.6623   10.6723 C   0  0  0  0  0  0  0  0  0  0  0  0
   22.7697  -17.3690   10.0096 O   0  0  0  0  0  0  0  0  0  0  0  0
   21.8849  -18.5832   11.6773 O   0  0  0  0  0  0  0  0  0  0  0  0
  2  1  1  0
  3  4  2  0
  3  2  1  0
  6  5  1  0
  6  7  2  0
  8  7  1  0
  9  8  2  0
 10  9  1  0
 11 12  1  0
 11 10  1  1
 12  3  1  0
 13 11  1  0
 14 13  2  0
 15 16  2  0
 15  9  1  0
 16  6  1  0
 17 13  1  0
 18 19  1  6
 18 17  1  0
 19 20  1  0
 20 21  2  0
 21 22  1  0
 23 22  1  0
 24 20  1  0
 24 23  2  0
 25 27  1  0
 25 18  1  0
 26 25  2  0
M  END
$$$$
