GYH.pdb
     RDKit          3D

 27 28  0  0  1  0  0  0  0  0999 V2000
   20.1504  -19.5906  -13.7660 N   0  0  0  0  0  0  0  0  0  0  0  0
   21.5330  -19.9339  -13.6038 C   0  0  0  0  0  0  0  0  0  0  0  0
   22.3765  -19.2579  -14.6361 C   0  0  0  0  0  0  0  0  0  0  0  0
   21.8058  -18.5878  -15.5163 O   0  0  0  0  0  0  0  0  0  0  0  0
   27.9342  -13.3547  -16.8339 O   0  0  0  0  0  0  0  0  0  0  0  0
   27.4646  -14.6174  -16.4596 C   0  0  0  0  0  0  0  0  0  0  0  0
   27.5758  -15.7185  -17.2881 C   0  0  0  0  0  0  0  0  0  0  0  0
   27.0990  -16.9411  -16.8765 C   0  0  0  0  0  0  0  0  0  0  0  0
   26.4985  -17.1369  -15.6480 C   0  0  0  0  0  0  0  0  0  0  0  0
   25.9897  -18.4446  -15.2103 C   0  0  0  0  0  0  0  0  0  0  0  0
   24.5690  -18.6971  -15.6776 C   0  0  2  0  0  0  0  0  0  0  0  0
   23.7814  -19.3473  -14.6536 N   0  0  0  0  0  0  0  0  0  0  0  0
   24.6040  -19.6002  -16.8639 C   0  0  0  0  0  0  0  0  0  0  0  0
   24.4302  -20.8494  -16.7545 O   0  0  0  0  0  0  0  0  0  0  0  0
   26.3850  -16.0361  -14.8144 C   0  0  0  0  0  0  0  0  0  0  0  0
   26.8633  -14.8141  -15.2296 C   0  0  0  0  0  0  0  0  0  0  0  0
   24.8350  -19.0577  -18.1362 N   0  0  0  0  0  0  0  0  0  0  0  0
   24.3996  -19.8524  -19.3247 C   0  0  1  0  0  0  0  0  0  0  0  0
   22.9062  -19.7826  -19.2710 C   0  0  0  0  0  0  0  0  0  0  0  0
   22.1759  -21.0333  -19.3118 C   0  0  0  0  0  0  0  0  0  0  0  0
   22.5998  -22.3172  -19.3481 C   0  0  0  0  0  0  0  0  0  0  0  0
   21.4986  -23.0992  -19.3296 N   0  0  0  0  0  0  0  0  0  0  0  0
   20.4173  -22.3307  -19.2821 C   0  0  0  0  0  0  0  0  0  0  0  0
   20.8073  -21.0647  -19.2703 N   0  0  0  0  0  0  0  0  0  0  0  0
   24.9770  -19.0862  -20.4758 C   0  0  0  0  0  0  0  0  0  0  0  0
   25.1196  -17.8146  -20.3891 O   0  0  0  0  0  0  0  0  0  0  0  0
   25.3841  -19.6429  -21.6643 O   0  0  0  0  0  0  0  0  0  0  0  0
  2  1  1  0
  3  4  2  0
  3  2  1  0
  6  5  1  0
  6  7  2  0
  8  7  1  0
  9  8  2  0
 10  9  1  0
 11 12  1  0
 11 10  1  1
 12  3  1  0
 13 11  1  0
 14 13  2  0
 15 16  2  0
 15  9  1  0
 16  6  1  0
 17 13  1  0
 18 19  1  6
 18 17  1  0
 19 20  1  0
 20 21  2  0
 21 22  1  0
 23 22  1  0
 24 20  1  0
 24 23  2  0
 25 27  1  0
 25 18  1  0
 26 25  2  0
M  END
$$$$
