GYH.pdb
     RDKit          3D

 27 28  0  0  1  0  0  0  0  0999 V2000
   21.8176   -5.0487  -20.8353 N   0  0  0  0  0  0  0  0  0  0  0  0
   20.6871   -4.2327  -21.1697 C   0  0  0  0  0  0  0  0  0  0  0  0
   19.8364   -3.9789  -19.9672 C   0  0  0  0  0  0  0  0  0  0  0  0
   18.7283   -3.4367  -20.1336 O   0  0  0  0  0  0  0  0  0  0  0  0
   16.3048   -9.5621  -18.7293 O   0  0  0  0  0  0  0  0  0  0  0  0
   17.0246   -8.4865  -18.2004 C   0  0  0  0  0  0  0  0  0  0  0  0
   16.4215   -7.2842  -17.8808 C   0  0  0  0  0  0  0  0  0  0  0  0
   17.1709   -6.2539  -17.3626 C   0  0  0  0  0  0  0  0  0  0  0  0
   18.5300   -6.3550  -17.1370 C   0  0  0  0  0  0  0  0  0  0  0  0
   19.3289   -5.2525  -16.5831 C   0  0  0  0  0  0  0  0  0  0  0  0
   19.3919   -4.0592  -17.5172 C   0  0  2  0  0  0  0  0  0  0  0  0
   20.2345   -4.3257  -18.6621 N   0  0  0  0  0  0  0  0  0  0  0  0
   19.9785   -2.9013  -16.7829 C   0  0  0  0  0  0  0  0  0  0  0  0
   21.2149   -2.8383  -16.5186 O   0  0  0  0  0  0  0  0  0  0  0  0
   19.1386   -7.5581  -17.4558 C   0  0  0  0  0  0  0  0  0  0  0  0
   18.3855   -8.5870  -17.9742 C   0  0  0  0  0  0  0  0  0  0  0  0
   19.1440   -1.8520  -16.3718 N   0  0  0  0  0  0  0  0  0  0  0  0
   19.7846   -0.6461  -15.7643 C   0  0  1  0  0  0  0  0  0  0  0  0
   20.5765   -0.0595  -16.8898 C   0  0  0  0  0  0  0  0  0  0  0  0
   21.1291    1.2664  -16.6995 C   0  0  0  0  0  0  0  0  0  0  0  0
   21.3155    2.0073  -15.5834 C   0  0  0  0  0  0  0  0  0  0  0  0
   21.9126    3.1570  -15.9657 N   0  0  0  0  0  0  0  0  0  0  0  0
   22.0962    3.1383  -17.2803 C   0  0  0  0  0  0  0  0  0  0  0  0
   21.6252    1.9925  -17.7495 N   0  0  0  0  0  0  0  0  0  0  0  0
   18.6121    0.2013  -15.3740 C   0  0  0  0  0  0  0  0  0  0  0  0
   17.5178    0.1222  -16.0382 O   0  0  0  0  0  0  0  0  0  0  0  0
   18.6006    1.0920  -14.3277 O   0  0  0  0  0  0  0  0  0  0  0  0
  2  1  1  0
  3  4  2  0
  3  2  1  0
  6  5  1  0
  6  7  2  0
  8  7  1  0
  9  8  2  0
 10  9  1  0
 11 12  1  0
 11 10  1  1
 12  3  1  0
 13 11  1  0
 14 13  2  0
 15 16  2  0
 15  9  1  0
 16  6  1  0
 17 13  1  0
 18 19  1  6
 18 17  1  0
 19 20  1  0
 20 21  2  0
 21 22  1  0
 23 22  1  0
 24 20  1  0
 24 23  2  0
 25 27  1  0
 25 18  1  0
 26 25  2  0
M  END
$$$$
