GYH.pdb
     RDKit          3D

 27 28  0  0  1  0  0  0  0  0999 V2000
   27.0324  -23.7698  -17.4988 N   0  0  0  0  0  0  0  0  0  0  0  0
   27.0512  -22.4432  -16.9553 C   0  0  0  0  0  0  0  0  0  0  0  0
   26.3116  -22.3864  -15.6576 C   0  0  0  0  0  0  0  0  0  0  0  0
   25.3074  -23.1090  -15.5200 O   0  0  0  0  0  0  0  0  0  0  0  0
   23.6240  -20.2562   -7.4925 O   0  0  0  0  0  0  0  0  0  0  0  0
   24.3506  -20.3988   -8.6786 C   0  0  0  0  0  0  0  0  0  0  0  0
   23.7449  -20.7284   -9.8769 C   0  0  0  0  0  0  0  0  0  0  0  0
   24.5012  -20.8577  -11.0183 C   0  0  0  0  0  0  0  0  0  0  0  0
   25.8700  -20.6717  -11.0360 C   0  0  0  0  0  0  0  0  0  0  0  0
   26.6762  -20.8105  -12.2571 C   0  0  0  0  0  0  0  0  0  0  0  0
   25.8873  -21.4118  -13.4045 C   0  0  2  0  0  0  0  0  0  0  0  0
   26.7018  -21.5544  -14.5911 N   0  0  0  0  0  0  0  0  0  0  0  0
   24.7536  -20.5028  -13.7400 C   0  0  0  0  0  0  0  0  0  0  0  0
   24.9382  -19.3994  -14.3325 O   0  0  0  0  0  0  0  0  0  0  0  0
   26.4811  -20.3412   -9.8374 C   0  0  0  0  0  0  0  0  0  0  0  0
   25.7211  -20.2127   -8.6970 C   0  0  0  0  0  0  0  0  0  0  0  0
   23.4467  -20.8743  -13.3926 N   0  0  0  0  0  0  0  0  0  0  0  0
   22.3257  -19.9986  -13.8511 C   0  0  1  0  0  0  0  0  0  0  0  0
   22.3049  -20.1951  -15.3339 C   0  0  0  0  0  0  0  0  0  0  0  0
   21.3758  -19.3917  -16.1025 C   0  0  0  0  0  0  0  0  0  0  0  0
   21.5462  -18.2437  -16.7970 C   0  0  0  0  0  0  0  0  0  0  0  0
   20.3588  -17.9450  -17.3672 N   0  0  0  0  0  0  0  0  0  0  0  0
   19.4709  -18.8766  -17.0419 C   0  0  0  0  0  0  0  0  0  0  0  0
   20.0703  -19.7707  -16.2698 N   0  0  0  0  0  0  0  0  0  0  0  0
   21.1306  -20.5913  -13.1685 C   0  0  0  0  0  0  0  0  0  0  0  0
   21.1112  -21.8423  -12.8870 O   0  0  0  0  0  0  0  0  0  0  0  0
   20.0075  -19.8896  -12.8018 O   0  0  0  0  0  0  0  0  0  0  0  0
  2  1  1  0
  3  4  2  0
  3  2  1  0
  6  5  1  0
  6  7  2  0
  8  7  1  0
  9  8  2  0
 10  9  1  0
 11 12  1  0
 11 10  1  1
 12  3  1  0
 13 11  1  0
 14 13  2  0
 15 16  2  0
 15  9  1  0
 16  6  1  0
 17 13  1  0
 18 19  1  6
 18 17  1  0
 19 20  1  0
 20 21  2  0
 21 22  1  0
 23 22  1  0
 24 20  1  0
 24 23  2  0
 25 27  1  0
 25 18  1  0
 26 25  2  0
M  END
$$$$
