ASL.pdb
     RDKit          3D

 20 19  0  0  1  0  0  0  0  0999 V2000
   14.6171  -10.3187  -15.4813 C   0  0  0  0  0  0  0  0  0  0  0  0
   15.1748  -10.8451  -16.7608 C   0  0  2  0  0  0  0  0  0  0  0  0
   14.7977  -12.2310  -16.9406 N   0  0  0  0  0  0  0  0  0  0  0  0
   16.6561  -10.6985  -16.8593 C   0  0  0  0  0  0  0  0  0  0  0  0
   17.4382  -11.3123  -16.1020 O   0  0  0  0  0  0  0  0  0  0  0  0
   18.4979   -7.7387  -19.5993 O   0  0  0  0  0  0  0  0  0  0  0  0
   18.9740   -9.0006  -19.3434 C   0  0  0  0  0  0  0  0  0  0  0  0
   18.5884   -9.5453  -18.0136 C   0  0  2  0  0  0  0  0  0  0  0  0
   17.1898   -9.8296  -17.8504 N   0  0  0  0  0  0  0  0  0  0  0  0
   19.1798   -8.7875  -16.8578 C   0  0  0  0  0  0  0  0  0  0  0  0
   18.4178   -8.0740  -16.1772 O   0  0  0  0  0  0  0  0  0  0  0  0
   23.7555  -10.6213  -14.3379 C   0  0  0  0  0  0  0  0  0  0  0  0
   22.3877  -10.0120  -14.5477 C   0  0  1  0  0  0  0  0  0  0  0  0
   21.7211   -9.7569  -13.1879 C   0  0  0  0  0  0  0  0  0  0  0  0
   22.4922   -8.6575  -15.2029 C   0  0  0  0  0  0  0  0  0  0  0  0
   21.1558   -8.0211  -15.4922 C   0  0  2  0  0  0  0  0  0  0  0  0
   20.5366   -8.8509  -16.5202 N   0  0  0  0  0  0  0  0  0  0  0  0
   21.2824   -6.6221  -15.9404 C   0  0  0  0  0  0  0  0  0  0  0  0
   21.3710   -5.5660  -15.0493 O   0  0  0  0  0  0  0  0  0  0  0  0
   21.3112   -6.3702  -17.1668 O   0  0  0  0  0  0  0  0  0  0  0  0
  2  1  1  1
  2  4  1  0
  2  3  1  0
  4  5  2  0
  8  7  1  6
  7  6  1  0
  9  4  1  0
  9  8  1  0
 10  8  1  0
 10 11  2  0
 13 12  1  1
 13 14  1  0
 13 15  1  0
 16 15  1  6
 16 17  1  0
 16 18  1  0
 17 10  1  0
 18 20  2  0
 18 19  1  0
M  END
$$$$
