ASL.pdb
     RDKit          3D

 20 19  0  0  1  0  0  0  0  0999 V2000
   15.4307  -13.9918  -13.9609 C   0  0  0  0  0  0  0  0  0  0  0  0
   14.8707  -12.6266  -13.7422 C   0  0  2  0  0  0  0  0  0  0  0  0
   14.5349  -12.0126  -15.0093 N   0  0  0  0  0  0  0  0  0  0  0  0
   15.7813  -11.7366  -12.9651 C   0  0  0  0  0  0  0  0  0  0  0  0
   16.2630  -12.0752  -11.8627 O   0  0  0  0  0  0  0  0  0  0  0  0
   18.0148   -8.4706  -14.7284 O   0  0  0  0  0  0  0  0  0  0  0  0
   18.1914   -9.1348  -13.5400 C   0  0  0  0  0  0  0  0  0  0  0  0
   16.9273   -9.4857  -12.8379 C   0  0  2  0  0  0  0  0  0  0  0  0
   16.1084  -10.4611  -13.5023 N   0  0  0  0  0  0  0  0  0  0  0  0
   16.1544   -8.2899  -12.3555 C   0  0  0  0  0  0  0  0  0  0  0  0
   15.1803   -7.9122  -13.0349 O   0  0  0  0  0  0  0  0  0  0  0  0
   15.0431   -7.0501   -7.1445 C   0  0  0  0  0  0  0  0  0  0  0  0
   14.9168   -7.1155   -8.6497 C   0  0  1  0  0  0  0  0  0  0  0  0
   13.5581   -6.5434   -9.0801 C   0  0  0  0  0  0  0  0  0  0  0  0
   15.9489   -6.2424   -9.3189 C   0  0  0  0  0  0  0  0  0  0  0  0
   15.9059   -6.3016  -10.8253 C   0  0  2  0  0  0  0  0  0  0  0  0
   16.4820   -7.5922  -11.1873 N   0  0  0  0  0  0  0  0  0  0  0  0
   16.6451   -5.1919  -11.4548 C   0  0  0  0  0  0  0  0  0  0  0  0
   16.0844   -3.9387  -11.6344 O   0  0  0  0  0  0  0  0  0  0  0  0
   17.8206   -5.3795  -11.8438 O   0  0  0  0  0  0  0  0  0  0  0  0
  2  1  1  6
  2  4  1  0
  2  3  1  0
  4  5  2  0
  8  7  1  6
  7  6  1  0
  9  4  1  0
  9  8  1  0
 10  8  1  0
 10 11  2  0
 13 12  1  1
 13 14  1  0
 13 15  1  0
 16 15  1  1
 16 17  1  0
 16 18  1  0
 17 10  1  0
 18 20  2  0
 18 19  1  0
M  END
$$$$
