ASL.pdb
     RDKit          3D

 20 19  0  0  1  0  0  0  0  0999 V2000
   17.0460  -14.9212  -18.4184 C   0  0  0  0  0  0  0  0  0  0  0  0
   17.6669  -14.3153  -17.2049 C   0  0  2  0  0  0  0  0  0  0  0  0
   16.6548  -14.0384  -16.2078 N   0  0  0  0  0  0  0  0  0  0  0  0
   18.4486  -13.0796  -17.5007 C   0  0  0  0  0  0  0  0  0  0  0  0
   19.5211  -13.1071  -18.1415 O   0  0  0  0  0  0  0  0  0  0  0  0
   16.6937   -9.0671  -17.1387 O   0  0  0  0  0  0  0  0  0  0  0  0
   17.6972   -9.5484  -17.9423 C   0  0  0  0  0  0  0  0  0  0  0  0
   18.5719  -10.5621  -17.2933 C   0  0  2  0  0  0  0  0  0  0  0  0
   17.9510  -11.8315  -17.0351 N   0  0  0  0  0  0  0  0  0  0  0  0
   19.3438  -10.0281  -16.1190 C   0  0  0  0  0  0  0  0  0  0  0  0
   18.8484  -10.1663  -14.9839 O   0  0  0  0  0  0  0  0  0  0  0  0
   24.5260  -10.9622  -15.6036 C   0  0  0  0  0  0  0  0  0  0  0  0
   23.0819  -10.6707  -15.2638 C   0  0  1  0  0  0  0  0  0  0  0  0
   22.8186  -11.0109  -13.7896 C   0  0  0  0  0  0  0  0  0  0  0  0
   22.7804   -9.1986  -15.3951 C   0  0  0  0  0  0  0  0  0  0  0  0
   21.3384   -8.8501  -15.1236 C   0  0  2  0  0  0  0  0  0  0  0  0
   20.5823   -9.3893  -16.2489 N   0  0  0  0  0  0  0  0  0  0  0  0
   21.1254   -7.3978  -14.9846 C   0  0  0  0  0  0  0  0  0  0  0  0
   21.2971   -6.7379  -13.7795 O   0  0  0  0  0  0  0  0  0  0  0  0
   20.7770   -6.7296  -15.9848 O   0  0  0  0  0  0  0  0  0  0  0  0
  2  1  1  6
  2  4  1  0
  2  3  1  0
  4  5  2  0
  8  7  1  1
  7  6  1  0
  9  4  1  0
  9  8  1  0
 10  8  1  0
 10 11  2  0
 13 12  1  1
 13 14  1  0
 13 15  1  0
 16 15  1  6
 16 17  1  0
 16 18  1  0
 17 10  1  0
 18 20  2  0
 18 19  1  0
M  END
$$$$
