ASL.pdb
     RDKit          3D

 20 19  0  0  1  0  0  0  0  0999 V2000
   26.9277  -35.4037  -13.3756 C   0  0  0  0  0  0  0  0  0  0  0  0
   26.1710  -36.5779  -12.8522 C   0  0  2  0  0  0  0  0  0  0  0  0
   24.7885  -36.5142  -13.2763 N   0  0  0  0  0  0  0  0  0  0  0  0
   26.2479  -36.7112  -11.3684 C   0  0  0  0  0  0  0  0  0  0  0  0
   25.4472  -36.1302  -10.6048 O   0  0  0  0  0  0  0  0  0  0  0  0
   28.4695  -39.0934   -7.6938 O   0  0  0  0  0  0  0  0  0  0  0  0
   28.3716  -38.8541   -9.0420 C   0  0  0  0  0  0  0  0  0  0  0  0
   27.4760  -37.7218   -9.4020 C   0  0  2  0  0  0  0  0  0  0  0  0
   27.2691  -37.5286  -10.8104 N   0  0  0  0  0  0  0  0  0  0  0  0
   27.7898  -36.4485   -8.6671 C   0  0  0  0  0  0  0  0  0  0  0  0
   28.7734  -35.7837   -9.0460 O   0  0  0  0  0  0  0  0  0  0  0  0
   27.2355  -32.5375   -9.0395 C   0  0  0  0  0  0  0  0  0  0  0  0
   26.4750  -32.4641   -7.7348 C   0  0  1  0  0  0  0  0  0  0  0  0
   25.1484  -31.7210   -7.9504 C   0  0  0  0  0  0  0  0  0  0  0  0
   26.0892  -33.8407   -7.2538 C   0  0  0  0  0  0  0  0  0  0  0  0
   27.2700  -34.7147   -6.9120 C   0  0  2  0  0  0  0  0  0  0  0  0
   27.0299  -35.9859   -7.5867 N   0  0  0  0  0  0  0  0  0  0  0  0
   27.4297  -34.9039   -5.4585 C   0  0  0  0  0  0  0  0  0  0  0  0
   28.3074  -34.1417   -4.7063 O   0  0  0  0  0  0  0  0  0  0  0  0
   26.7531  -35.7816   -4.8753 O   0  0  0  0  0  0  0  0  0  0  0  0
  2  1  1  1
  2  4  1  0
  2  3  1  0
  4  5  2  0
  8  7  1  6
  7  6  1  0
  9  4  1  0
  9  8  1  0
 10  8  1  0
 10 11  2  0
 13 12  1  6
 13 14  1  0
 13 15  1  0
 16 15  1  1
 16 17  1  0
 16 18  1  0
 17 10  1  0
 18 20  2  0
 18 19  1  0
M  END
$$$$
