ASL.pdb
     RDKit          3D

 20 19  0  0  1  0  0  0  0  0999 V2000
   26.2312  -16.0856  -14.4629 C   0  0  0  0  0  0  0  0  0  0  0  0
   26.9142  -17.1929  -15.1925 C   0  0  2  0  0  0  0  0  0  0  0  0
   26.7347  -17.0395  -16.6206 N   0  0  0  0  0  0  0  0  0  0  0  0
   26.4616  -18.5471  -14.7602 C   0  0  0  0  0  0  0  0  0  0  0  0
   25.2577  -18.8823  -14.7714 O   0  0  0  0  0  0  0  0  0  0  0  0
   28.7917  -21.7329  -15.3436 O   0  0  0  0  0  0  0  0  0  0  0  0
   28.2021  -21.8222  -14.1071 C   0  0  0  0  0  0  0  0  0  0  0  0
   27.1405  -20.8099  -13.8576 C   0  0  2  0  0  0  0  0  0  0  0  0
   27.4380  -19.4834  -14.3218 N   0  0  0  0  0  0  0  0  0  0  0  0
   26.5958  -20.8413  -12.4568 C   0  0  0  0  0  0  0  0  0  0  0  0
   27.3927  -21.0687  -11.5261 O   0  0  0  0  0  0  0  0  0  0  0  0
   26.9854  -19.5898   -8.1630 C   0  0  0  0  0  0  0  0  0  0  0  0
   26.4183  -20.5941   -9.1407 C   0  0  1  0  0  0  0  0  0  0  0  0
   25.8832  -21.8143   -8.3768 C   0  0  0  0  0  0  0  0  0  0  0  0
   25.2279  -20.0261   -9.8723 C   0  0  0  0  0  0  0  0  0  0  0  0
   24.6307  -20.9734  -10.8827 C   0  0  2  0  0  0  0  0  0  0  0  0
   25.2447  -20.6279  -12.1603 N   0  0  0  0  0  0  0  0  0  0  0  0
   23.1614  -20.8715  -10.9519 C   0  0  0  0  0  0  0  0  0  0  0  0
   22.3461  -21.2142   -9.8866 O   0  0  0  0  0  0  0  0  0  0  0  0
   22.6231  -20.4625  -12.0060 O   0  0  0  0  0  0  0  0  0  0  0  0
  2  1  1  1
  2  4  1  0
  2  3  1  0
  4  5  2  0
  8  7  1  1
  7  6  1  0
  9  4  1  0
  9  8  1  0
 10  8  1  0
 10 11  2  0
 13 12  1  1
 13 14  1  0
 13 15  1  0
 16 15  1  1
 16 17  1  0
 16 18  1  0
 17 10  1  0
 18 20  2  0
 18 19  1  0
M  END
$$$$
