ASL.pdb
     RDKit          3D

 20 19  0  0  1  0  0  0  0  0999 V2000
   17.3279  -10.1412  -19.1078 C   0  0  0  0  0  0  0  0  0  0  0  0
   18.2647  -10.7059  -18.0935 C   0  0  2  0  0  0  0  0  0  0  0  0
   17.9539  -12.0971  -17.8421 N   0  0  0  0  0  0  0  0  0  0  0  0
   18.2726   -9.9414  -16.8125 C   0  0  0  0  0  0  0  0  0  0  0  0
   17.2935   -9.9325  -16.0359 O   0  0  0  0  0  0  0  0  0  0  0  0
   21.1035   -9.7987  -13.9978 O   0  0  0  0  0  0  0  0  0  0  0  0
   19.8579   -9.2231  -14.0358 C   0  0  0  0  0  0  0  0  0  0  0  0
   19.5839   -8.4308  -15.2651 C   0  0  2  0  0  0  0  0  0  0  0  0
   19.4365   -9.2000  -16.4693 N   0  0  0  0  0  0  0  0  0  0  0  0
   20.4864   -7.2395  -15.4274 C   0  0  0  0  0  0  0  0  0  0  0  0
   21.4288   -7.3280  -16.2379 O   0  0  0  0  0  0  0  0  0  0  0  0
   18.4134   -2.3762  -15.8289 C   0  0  0  0  0  0  0  0  0  0  0  0
   19.3774   -3.5279  -16.0030 C   0  0  1  0  0  0  0  0  0  0  0  0
   20.3342   -3.2302  -17.1668 C   0  0  0  0  0  0  0  0  0  0  0  0
   20.2594   -3.6851  -14.7896 C   0  0  0  0  0  0  0  0  0  0  0  0
   21.1748   -4.8817  -14.8584 C   0  0  2  0  0  0  0  0  0  0  0  0
   20.3119   -6.0491  -14.7123 N   0  0  0  0  0  0  0  0  0  0  0  0
   22.2174   -4.8551  -13.8161 C   0  0  0  0  0  0  0  0  0  0  0  0
   23.3914   -4.1360  -13.9638 O   0  0  0  0  0  0  0  0  0  0  0  0
   22.0446   -5.5020  -12.7578 O   0  0  0  0  0  0  0  0  0  0  0  0
  2  1  1  6
  2  4  1  0
  2  3  1  0
  4  5  2  0
  8  7  1  1
  7  6  1  0
  9  4  1  0
  9  8  1  0
 10  8  1  0
 10 11  2  0
 13 12  1  1
 13 14  1  0
 13 15  1  0
 16 15  1  1
 16 17  1  0
 16 18  1  0
 17 10  1  0
 18 20  2  0
 18 19  1  0
M  END
$$$$
