ASL.pdb
     RDKit          3D

 20 19  0  0  1  0  0  0  0  0999 V2000
   18.5749  -15.2120  -18.5536 C   0  0  0  0  0  0  0  0  0  0  0  0
   19.1071  -14.6537  -17.2768 C   0  0  2  0  0  0  0  0  0  0  0  0
   18.3668  -15.1815  -16.1505 N   0  0  0  0  0  0  0  0  0  0  0  0
   19.1022  -13.1623  -17.2416 C   0  0  0  0  0  0  0  0  0  0  0  0
   19.7800  -12.4749  -18.0353 O   0  0  0  0  0  0  0  0  0  0  0  0
   16.3943  -10.9623  -14.5349 O   0  0  0  0  0  0  0  0  0  0  0  0
   16.8341  -10.5789  -15.7775 C   0  0  0  0  0  0  0  0  0  0  0  0
   18.1891  -11.0811  -16.1322 C   0  0  2  0  0  0  0  0  0  0  0  0
   18.2970  -12.5069  -16.2698 N   0  0  0  0  0  0  0  0  0  0  0  0
   19.2902  -10.4786  -15.3049 C   0  0  0  0  0  0  0  0  0  0  0  0
   19.4862  -10.9453  -14.1661 O   0  0  0  0  0  0  0  0  0  0  0  0
   24.0990   -9.6464  -17.1180 C   0  0  0  0  0  0  0  0  0  0  0  0
   22.9905   -9.8619  -16.1125 C   0  0  1  0  0  0  0  0  0  0  0  0
   23.5851  -10.3546  -14.7849 C   0  0  0  0  0  0  0  0  0  0  0  0
   22.2971   -8.5635  -15.7833 C   0  0  0  0  0  0  0  0  0  0  0  0
   21.0703   -8.7344  -14.9228 C   0  0  2  0  0  0  0  0  0  0  0  0
   20.0945   -9.4266  -15.7580 N   0  0  0  0  0  0  0  0  0  0  0  0
   20.5389   -7.4481  -14.4360 C   0  0  0  0  0  0  0  0  0  0  0  0
   21.0359   -6.8244  -13.3041 O   0  0  0  0  0  0  0  0  0  0  0  0
   19.6061   -6.8930  -15.0605 O   0  0  0  0  0  0  0  0  0  0  0  0
  2  1  1  6
  2  4  1  0
  2  3  1  0
  4  5  2  0
  8  7  1  1
  7  6  1  0
  9  4  1  0
  9  8  1  0
 10  8  1  0
 10 11  2  0
 13 12  1  6
 13 14  1  0
 13 15  1  0
 16 15  1  6
 16 17  1  0
 16 18  1  0
 17 10  1  0
 18 20  2  0
 18 19  1  0
M  END
$$$$
