GTH.pdb
     RDKit          3D

 22 22  0  0  1  0  0  0  0  0999 V2000
   43.2194  -24.7522  -18.8873 N   0  0  0  0  0  0  0  0  0  0  0  0
   42.0449  -25.5511  -19.1755 C   0  0  0  0  0  0  0  0  0  0  0  0
   41.0557  -25.4715  -18.0558 C   0  0  0  0  0  0  0  0  0  0  0  0
   41.4458  -25.0085  -16.9801 O   0  0  0  0  0  0  0  0  0  0  0  0
   38.1362  -23.4795  -17.6090 C   0  0  0  0  0  0  0  0  0  0  0  0
   37.6411  -24.9044  -17.5688 C   0  0  1  0  0  0  0  0  0  0  0  0
   36.8504  -25.1840  -18.6774 O   0  0  0  0  0  0  0  0  0  0  0  0
   38.6818  -25.9064  -17.2605 C   0  0  2  0  0  0  0  0  0  0  0  0
   39.7214  -25.9159  -18.2385 N   0  0  0  0  0  0  0  0  0  0  0  0
   38.2333  -27.2693  -16.9381 C   0  0  0  0  0  0  0  0  0  0  0  0
   38.3182  -28.1519  -17.8205 O   0  0  0  0  0  0  0  0  0  0  0  0
   37.7025  -27.6860  -15.6924 N   0  0  0  0  0  0  0  0  0  0  0  0
   37.3417  -29.1194  -15.4763 C   0  0  1  0  0  0  0  0  0  0  0  0
   37.3595  -29.4311  -14.0278 C   0  0  0  0  0  0  0  0  0  0  0  0
   37.0245  -30.8456  -13.7753 C   0  0  0  0  0  0  0  0  0  0  0  0
   36.9351  -31.9185  -14.6225 C   0  0  0  0  0  0  0  0  0  0  0  0
   36.6713  -33.0438  -13.8955 N   0  0  0  0  0  0  0  0  0  0  0  0
   36.6020  -32.6673  -12.6247 C   0  0  0  0  0  0  0  0  0  0  0  0
   36.8096  -31.3533  -12.5156 N   0  0  0  0  0  0  0  0  0  0  0  0
   35.9736  -29.2708  -16.0652 C   0  0  0  0  0  0  0  0  0  0  0  0
   35.5049  -30.3269  -16.7868 O   0  0  0  0  0  0  0  0  0  0  0  0
   35.1467  -28.3178  -15.8766 O   0  0  0  0  0  0  0  0  0  0  0  0
  2  1  1  0
  3  2  1  0
  4  3  2  0
  6  5  1  6
  6  8  1  0
  7  6  1  0
  8  9  1  6
  8 10  1  0
  9  3  1  0
 10 12  1  0
 11 10  2  0
 12 13  1  0
 13 14  1  1
 13 20  1  0
 15 14  1  0
 16 15  2  0
 17 16  1  0
 18 17  1  0
 18 19  2  0
 19 15  1  0
 20 22  2  0
 20 21  1  0
M  END
$$$$
