GTH.pdb
     RDKit          3D

 22 22  0  0  1  0  0  0  0  0999 V2000
   17.2957  -14.6523  -15.8648 N   0  0  0  0  0  0  0  0  0  0  0  0
   17.0871  -13.3011  -16.3462 C   0  0  0  0  0  0  0  0  0  0  0  0
   17.7851  -12.3079  -15.4715 C   0  0  0  0  0  0  0  0  0  0  0  0
   17.8130  -12.5345  -14.2584 O   0  0  0  0  0  0  0  0  0  0  0  0
   21.3149  -11.1654  -15.4610 C   0  0  0  0  0  0  0  0  0  0  0  0
   20.4540   -9.9538  -15.7221 C   0  0  1  0  0  0  0  0  0  0  0  0
   20.6564   -9.4725  -17.0104 O   0  0  0  0  0  0  0  0  0  0  0  0
   19.0425  -10.1054  -15.3140 C   0  0  2  0  0  0  0  0  0  0  0  0
   18.3882  -11.1524  -16.0302 N   0  0  0  0  0  0  0  0  0  0  0  0
   18.2182   -8.8884  -15.2668 C   0  0  0  0  0  0  0  0  0  0  0  0
   17.4230   -8.6672  -16.2067 O   0  0  0  0  0  0  0  0  0  0  0  0
   18.2407   -7.9211  -14.2319 N   0  0  0  0  0  0  0  0  0  0  0  0
   17.4690   -6.6506  -14.3804 C   0  0  1  0  0  0  0  0  0  0  0  0
   16.1886   -6.7489  -13.6412 C   0  0  0  0  0  0  0  0  0  0  0  0
   16.4123   -6.9780  -12.2010 C   0  0  0  0  0  0  0  0  0  0  0  0
   16.5864   -8.1335  -11.4858 C   0  0  0  0  0  0  0  0  0  0  0  0
   16.8419   -7.8202  -10.1817 N   0  0  0  0  0  0  0  0  0  0  0  0
   16.8264   -6.4956  -10.0993 C   0  0  0  0  0  0  0  0  0  0  0  0
   16.5717   -5.9571  -11.2938 N   0  0  0  0  0  0  0  0  0  0  0  0
   18.3591   -5.5853  -13.8200 C   0  0  0  0  0  0  0  0  0  0  0  0
   19.5321   -5.7664  -13.1512 O   0  0  0  0  0  0  0  0  0  0  0  0
   17.9943   -4.3735  -13.9810 O   0  0  0  0  0  0  0  0  0  0  0  0
  2  1  1  0
  3  2  1  0
  4  3  2  0
  6  5  1  6
  6  8  1  0
  7  6  1  0
  8  9  1  6
  8 10  1  0
  9  3  1  0
 10 12  1  0
 11 10  2  0
 12 13  1  0
 13 14  1  1
 13 20  1  0
 15 14  1  0
 16 15  2  0
 17 16  1  0
 18 17  1  0
 18 19  2  0
 19 15  1  0
 20 22  2  0
 20 21  1  0
M  END
$$$$
