GTH.pdb
     RDKit          3D

 22 22  0  0  1  0  0  0  0  0999 V2000
   16.3827  -32.0164   -5.3513 N   0  0  0  0  0  0  0  0  0  0  0  0
   17.3887  -33.0429   -5.5391 C   0  0  0  0  0  0  0  0  0  0  0  0
   18.6999  -32.6202   -4.9554 C   0  0  0  0  0  0  0  0  0  0  0  0
   18.9864  -31.4204   -5.0025 O   0  0  0  0  0  0  0  0  0  0  0  0
   20.0695  -33.2800   -1.4426 C   0  0  0  0  0  0  0  0  0  0  0  0
   21.0082  -33.8753   -2.4631 C   0  0  1  0  0  0  0  0  0  0  0  0
   21.0133  -35.2628   -2.3794 O   0  0  0  0  0  0  0  0  0  0  0  0
   20.8650  -33.3205   -3.8246 C   0  0  2  0  0  0  0  0  0  0  0  0
   19.5717  -33.5747   -4.3723 N   0  0  0  0  0  0  0  0  0  0  0  0
   21.9291  -33.6237   -4.7934 C   0  0  0  0  0  0  0  0  0  0  0  0
   21.6135  -34.1454   -5.8856 O   0  0  0  0  0  0  0  0  0  0  0  0
   23.3103  -33.3738   -4.6009 N   0  0  0  0  0  0  0  0  0  0  0  0
   24.2803  -33.6532   -5.7022 C   0  0  1  0  0  0  0  0  0  0  0  0
   24.0866  -32.6811   -6.8036 C   0  0  0  0  0  0  0  0  0  0  0  0
   25.1284  -32.8225   -7.8386 C   0  0  0  0  0  0  0  0  0  0  0  0
   26.0906  -33.7791   -8.0279 C   0  0  0  0  0  0  0  0  0  0  0  0
   26.7687  -33.5115   -9.1824 N   0  0  0  0  0  0  0  0  0  0  0  0
   26.2303  -32.4110   -9.6927 C   0  0  0  0  0  0  0  0  0  0  0  0
   25.2417  -31.9700   -8.9116 N   0  0  0  0  0  0  0  0  0  0  0  0
   25.6327  -33.5249   -5.0732 C   0  0  0  0  0  0  0  0  0  0  0  0
   26.8051  -34.0383   -5.5400 O   0  0  0  0  0  0  0  0  0  0  0  0
   25.7115  -32.8643   -3.9846 O   0  0  0  0  0  0  0  0  0  0  0  0
  2  1  1  0
  3  2  1  0
  4  3  2  0
  6  5  1  1
  6  8  1  0
  7  6  1  0
  8  9  1  6
  8 10  1  0
  9  3  1  0
 10 12  1  0
 11 10  2  0
 12 13  1  0
 13 14  1  6
 13 20  1  0
 15 14  1  0
 16 15  2  0
 17 16  1  0
 18 17  1  0
 18 19  2  0
 19 15  1  0
 20 22  2  0
 20 21  1  0
M  END
$$$$
