GTH.pdb
     RDKit          3D

 22 22  0  0  1  0  0  0  0  0999 V2000
   17.3038  -14.9594  -16.0651 N   0  0  0  0  0  0  0  0  0  0  0  0
   16.8017  -13.5997  -16.0687 C   0  0  0  0  0  0  0  0  0  0  0  0
   17.6040  -12.7307  -15.1522 C   0  0  0  0  0  0  0  0  0  0  0  0
   18.3526  -13.2890  -14.3448 O   0  0  0  0  0  0  0  0  0  0  0  0
   20.3019  -10.4567  -15.7965 C   0  0  0  0  0  0  0  0  0  0  0  0
   19.2000   -9.6150  -15.2013 C   0  0  1  0  0  0  0  0  0  0  0  0
   18.6766   -8.7439  -16.1498 O   0  0  0  0  0  0  0  0  0  0  0  0
   18.2048  -10.3738  -14.4166 C   0  0  2  0  0  0  0  0  0  0  0  0
   17.4977  -11.3183  -15.2201 N   0  0  0  0  0  0  0  0  0  0  0  0
   17.2903   -9.6043  -13.5598 C   0  0  0  0  0  0  0  0  0  0  0  0
   16.1340   -9.3711  -13.9759 O   0  0  0  0  0  0  0  0  0  0  0  0
   17.6038   -9.0910  -12.2770 N   0  0  0  0  0  0  0  0  0  0  0  0
   16.5791   -8.3206  -11.5101 C   0  0  1  0  0  0  0  0  0  0  0  0
   16.8177   -8.4729  -10.0557 C   0  0  0  0  0  0  0  0  0  0  0  0
   15.9076   -7.6210   -9.2666 C   0  0  0  0  0  0  0  0  0  0  0  0
   14.8251   -6.8679   -9.6381 C   0  0  0  0  0  0  0  0  0  0  0  0
   14.2567   -6.3190   -8.5245 N   0  0  0  0  0  0  0  0  0  0  0  0
   14.9773   -6.7299   -7.4885 C   0  0  0  0  0  0  0  0  0  0  0  0
   15.9770   -7.5142   -7.8975 N   0  0  0  0  0  0  0  0  0  0  0  0
   16.7410   -6.9015  -11.9589 C   0  0  0  0  0  0  0  0  0  0  0  0
   15.7523   -5.9820  -12.1400 O   0  0  0  0  0  0  0  0  0  0  0  0
   17.9264   -6.4951  -12.1981 O   0  0  0  0  0  0  0  0  0  0  0  0
  2  1  1  0
  3  2  1  0
  4  3  2  0
  6  5  1  6
  6  8  1  0
  7  6  1  0
  8  9  1  6
  8 10  1  0
  9  3  1  0
 10 12  1  0
 11 10  2  0
 12 13  1  0
 13 14  1  1
 13 20  1  0
 15 14  1  0
 16 15  2  0
 17 16  1  0
 18 17  1  0
 18 19  2  0
 19 15  1  0
 20 22  2  0
 20 21  1  0
M  END
$$$$
