GTH.pdb
     RDKit          3D

 22 22  0  0  1  0  0  0  0  0999 V2000
    8.9882  -16.0600   -1.0681 N   0  0  0  0  0  0  0  0  0  0  0  0
    9.3992  -17.0257   -0.0684 C   0  0  0  0  0  0  0  0  0  0  0  0
   10.5412  -16.5017    0.7439 C   0  0  0  0  0  0  0  0  0  0  0  0
   10.7414  -15.2837    0.7299 O   0  0  0  0  0  0  0  0  0  0  0  0
   11.1476  -14.8425    2.9525 C   0  0  0  0  0  0  0  0  0  0  0  0
   11.7412  -16.1142    3.5068 C   0  0  1  0  0  0  0  0  0  0  0  0
   10.8730  -16.7099    4.4145 O   0  0  0  0  0  0  0  0  0  0  0  0
   12.3152  -17.0174    2.4887 C   0  0  2  0  0  0  0  0  0  0  0  0
   11.3557  -17.3846    1.4977 N   0  0  0  0  0  0  0  0  0  0  0  0
   13.0675  -18.1862    2.9690 C   0  0  0  0  0  0  0  0  0  0  0  0
   12.4739  -19.2834    3.0617 O   0  0  0  0  0  0  0  0  0  0  0  0
   14.4335  -18.1857    3.3445 N   0  0  0  0  0  0  0  0  0  0  0  0
   15.0377  -19.4027    3.9655 C   0  0  1  0  0  0  0  0  0  0  0  0
   16.0969  -19.9461    3.0833 C   0  0  0  0  0  0  0  0  0  0  0  0
   16.7478  -21.1260    3.6840 C   0  0  0  0  0  0  0  0  0  0  0  0
   16.4529  -21.8444    4.8126 C   0  0  0  0  0  0  0  0  0  0  0  0
   17.3056  -22.9069    4.9041 N   0  0  0  0  0  0  0  0  0  0  0  0
   18.1081  -22.8417    3.8490 C   0  0  0  0  0  0  0  0  0  0  0  0
   17.8011  -21.7844    3.0942 N   0  0  0  0  0  0  0  0  0  0  0  0
   15.5859  -18.9394    5.2793 C   0  0  0  0  0  0  0  0  0  0  0  0
   15.6868  -19.6666    6.4268 O   0  0  0  0  0  0  0  0  0  0  0  0
   16.0104  -17.7381    5.3454 O   0  0  0  0  0  0  0  0  0  0  0  0
  2  1  1  0
  3  2  1  0
  4  3  2  0
  6  5  1  6
  6  8  1  0
  7  6  1  0
  8  9  1  1
  8 10  1  0
  9  3  1  0
 10 12  1  0
 11 10  2  0
 12 13  1  0
 13 14  1  6
 13 20  1  0
 15 14  1  0
 16 15  2  0
 17 16  1  0
 18 17  1  0
 18 19  2  0
 19 15  1  0
 20 22  2  0
 20 21  1  0
M  END
$$$$
