GTH.pdb
     RDKit          3D

 22 22  0  0  1  0  0  0  0  0999 V2000
   20.2896  -14.8368  -16.9564 N   0  0  0  0  0  0  0  0  0  0  0  0
   20.4038  -13.5269  -17.5663 C   0  0  0  0  0  0  0  0  0  0  0  0
   20.5712  -12.4650  -16.5257 C   0  0  0  0  0  0  0  0  0  0  0  0
   19.9534  -12.6008  -15.4656 O   0  0  0  0  0  0  0  0  0  0  0  0
   23.6284  -11.1276  -14.7856 C   0  0  0  0  0  0  0  0  0  0  0  0
   22.9935   -9.9936  -15.5526 C   0  0  1  0  0  0  0  0  0  0  0  0
   23.8178   -9.5777  -16.5918 O   0  0  0  0  0  0  0  0  0  0  0  0
   21.5780  -10.2139  -15.9125 C   0  0  2  0  0  0  0  0  0  0  0  0
   21.4127  -11.3484  -16.7627 N   0  0  0  0  0  0  0  0  0  0  0  0
   20.8180   -9.0557  -16.4061 C   0  0  0  0  0  0  0  0  0  0  0  0
   20.5831   -8.9722  -17.6319 O   0  0  0  0  0  0  0  0  0  0  0  0
   20.3148   -8.0016  -15.6044 N   0  0  0  0  0  0  0  0  0  0  0  0
   19.6417   -6.8319  -16.2451 C   0  0  1  0  0  0  0  0  0  0  0  0
   18.1769   -7.0515  -16.2831 C   0  0  0  0  0  0  0  0  0  0  0  0
   17.4750   -5.9091  -16.8988 C   0  0  0  0  0  0  0  0  0  0  0  0
   17.8708   -5.0163  -17.8595 C   0  0  0  0  0  0  0  0  0  0  0  0
   16.8293   -4.1845  -18.1558 N   0  0  0  0  0  0  0  0  0  0  0  0
   15.8124   -4.5621  -17.3911 C   0  0  0  0  0  0  0  0  0  0  0  0
   16.1647   -5.5958  -16.6236 N   0  0  0  0  0  0  0  0  0  0  0  0
   20.0100   -5.6558  -15.3952 C   0  0  0  0  0  0  0  0  0  0  0  0
   19.9375   -4.3403  -15.7417 O   0  0  0  0  0  0  0  0  0  0  0  0
   20.4363   -5.8959  -14.2170 O   0  0  0  0  0  0  0  0  0  0  0  0
  2  1  1  0
  3  2  1  0
  4  3  2  0
  6  5  1  6
  6  8  1  0
  7  6  1  0
  8  9  1  6
  8 10  1  0
  9  3  1  0
 10 12  1  0
 11 10  2  0
 12 13  1  0
 13 14  1  1
 13 20  1  0
 15 14  1  0
 16 15  2  0
 17 16  1  0
 18 17  1  0
 18 19  2  0
 19 15  1  0
 20 22  2  0
 20 21  1  0
M  END
$$$$
