GTH.pdb
     RDKit          3D

 22 22  0  0  1  0  0  0  0  0999 V2000
   34.3772  -33.4753   -6.7991 N   0  0  0  0  0  0  0  0  0  0  0  0
   33.2296  -33.4562   -5.9140 C   0  0  0  0  0  0  0  0  0  0  0  0
   32.0725  -34.1840   -6.5224 C   0  0  0  0  0  0  0  0  0  0  0  0
   32.1769  -34.5416   -7.6993 O   0  0  0  0  0  0  0  0  0  0  0  0
   30.4309  -37.4143   -5.8453 C   0  0  0  0  0  0  0  0  0  0  0  0
   29.4176  -36.3309   -5.5688 C   0  0  1  0  0  0  0  0  0  0  0  0
   29.1385  -36.2510   -4.2093 O   0  0  0  0  0  0  0  0  0  0  0  0
   29.6985  -35.0440   -6.2373 C   0  0  2  0  0  0  0  0  0  0  0  0
   30.9045  -34.4465   -5.7622 N   0  0  0  0  0  0  0  0  0  0  0  0
   28.6033  -34.0649   -6.3061 C   0  0  0  0  0  0  0  0  0  0  0  0
   28.5221  -33.1937   -5.4122 O   0  0  0  0  0  0  0  0  0  0  0  0
   27.6089  -34.0147   -7.3140 N   0  0  0  0  0  0  0  0  0  0  0  0
   26.4490  -33.0839   -7.1729 C   0  0  1  0  0  0  0  0  0  0  0  0
   25.9652  -32.6744   -8.5122 C   0  0  0  0  0  0  0  0  0  0  0  0
   24.7137  -31.8984   -8.4207 C   0  0  0  0  0  0  0  0  0  0  0  0
   24.0104  -31.4418   -7.3373 C   0  0  0  0  0  0  0  0  0  0  0  0
   22.9512  -30.6972   -7.7711 N   0  0  0  0  0  0  0  0  0  0  0  0
   23.0055  -30.6961   -9.0971 C   0  0  0  0  0  0  0  0  0  0  0  0
   24.0520  -31.4077   -9.5217 N   0  0  0  0  0  0  0  0  0  0  0  0
   25.4155  -33.8597   -6.4170 C   0  0  0  0  0  0  0  0  0  0  0  0
   25.3345  -35.2142   -6.2960 O   0  0  0  0  0  0  0  0  0  0  0  0
   24.5092  -33.1942   -5.8142 O   0  0  0  0  0  0  0  0  0  0  0  0
  2  1  1  0
  3  2  1  0
  4  3  2  0
  6  5  1  1
  6  8  1  0
  7  6  1  0
  8  9  1  1
  8 10  1  0
  9  3  1  0
 10 12  1  0
 11 10  2  0
 12 13  1  0
 13 14  1  6
 13 20  1  0
 15 14  1  0
 16 15  2  0
 17 16  1  0
 18 17  1  0
 18 19  2  0
 19 15  1  0
 20 22  2  0
 20 21  1  0
M  END
$$$$
