MNG.pdb
     RDKit          3D

 21 20  0  0  1  0  0  0  0  0999 V2000
   28.5297  -18.5416   -5.9166 C   0  0  0  0  0  0  0  0  0  0  0  0
   27.3819  -19.9375   -6.1447 S   0  0  0  0  0  0  0  0  0  0  0  0
   27.7104  -20.6620   -7.7572 C   0  0  0  0  0  0  0  0  0  0  0  0
   26.8065  -20.0961   -8.8273 C   0  0  0  0  0  0  0  0  0  0  0  0
   26.4753  -21.1141   -9.8766 C   0  0  2  0  0  0  0  0  0  0  0  0
   27.6064  -21.8824  -10.3374 N   0  0  0  0  0  0  0  0  0  0  0  0
   25.7993  -20.4537  -11.0339 C   0  0  0  0  0  0  0  0  0  0  0  0
   26.1425  -19.2987  -11.3481 O   0  0  0  0  0  0  0  0  0  0  0  0
   24.9922  -23.5581  -13.9331 N   0  0  0  0  0  0  0  0  0  0  0  0
   25.5218  -22.2603  -13.9671 C   0  0  0  0  0  0  0  0  0  0  0  0
   26.7539  -22.0998  -13.8238 O   0  0  0  0  0  0  0  0  0  0  0  0
   24.6487  -21.1083  -14.1672 C   0  0  0  0  0  0  0  0  0  0  0  0
   24.1386  -20.4369  -12.9190 C   0  0  2  0  0  0  0  0  0  0  0  0
   24.7969  -21.0975  -11.7678 N   0  0  0  0  0  0  0  0  0  0  0  0
   22.6953  -20.4922  -12.7163 C   0  0  0  0  0  0  0  0  0  0  0  0
   22.2082  -21.3588  -11.9496 O   0  0  0  0  0  0  0  0  0  0  0  0
   21.7990  -19.5971  -13.3525 N   0  0  0  0  0  0  0  0  0  0  0  0
   20.3761  -19.7062  -13.1062 C   0  0  0  0  0  0  0  0  0  0  0  0
   19.7995  -20.6977  -14.0301 C   0  0  0  0  0  0  0  0  0  0  0  0
   18.4460  -20.6241  -14.3656 O   0  0  0  0  0  0  0  0  0  0  0  0
   20.5047  -21.5923  -14.5090 O   0  0  0  0  0  0  0  0  0  0  0  0
  2  1  1  0
  3  2  1  0
  4  5  1  0
  4  3  1  0
  5  6  1  6
  7  8  2  0
  7  5  1  0
  9 10  1  0
 10 11  2  0
 10 12  1  0
 13 12  1  6
 13 15  1  0
 13 14  1  0
 14  7  1  0
 15 17  1  0
 16 15  2  0
 17 18  1  0
 19 20  1  0
 19 18  1  0
 21 19  2  0
M  END
$$$$
