MNG.pdb
     RDKit          3D

 21 20  0  0  1  0  0  0  0  0999 V2000
   28.4773  -18.0496   -5.5277 C   0  0  0  0  0  0  0  0  0  0  0  0
   28.7614  -19.7977   -5.9538 S   0  0  0  0  0  0  0  0  0  0  0  0
   27.2751  -20.4176   -6.7534 C   0  0  0  0  0  0  0  0  0  0  0  0
   27.1092  -19.8629   -8.1489 C   0  0  0  0  0  0  0  0  0  0  0  0
   25.8264  -20.3121   -8.7811 C   0  0  2  0  0  0  0  0  0  0  0  0
   25.4964  -21.6955   -8.5382 N   0  0  0  0  0  0  0  0  0  0  0  0
   25.8599  -20.0443  -10.2507 C   0  0  0  0  0  0  0  0  0  0  0  0
   26.1668  -18.9036  -10.6446 O   0  0  0  0  0  0  0  0  0  0  0  0
   28.2290  -20.0181  -12.7094 N   0  0  0  0  0  0  0  0  0  0  0  0
   27.8543  -21.2200  -13.3267 C   0  0  0  0  0  0  0  0  0  0  0  0
   28.7309  -21.9241  -13.8745 O   0  0  0  0  0  0  0  0  0  0  0  0
   26.4590  -21.6473  -13.3316 C   0  0  0  0  0  0  0  0  0  0  0  0
   25.4826  -20.7347  -12.6367 C   0  0  2  0  0  0  0  0  0  0  0  0
   25.5568  -21.0378  -11.1884 N   0  0  0  0  0  0  0  0  0  0  0  0
   24.0923  -20.8562  -13.0606 C   0  0  0  0  0  0  0  0  0  0  0  0
   23.3573  -21.7296  -12.5381 O   0  0  0  0  0  0  0  0  0  0  0  0
   23.5189  -20.0189  -14.0504 N   0  0  0  0  0  0  0  0  0  0  0  0
   22.2122  -20.3327  -14.5901 C   0  0  0  0  0  0  0  0  0  0  0  0
   21.2101  -19.4415  -13.9811 C   0  0  0  0  0  0  0  0  0  0  0  0
   20.2373  -19.9737  -13.1325 O   0  0  0  0  0  0  0  0  0  0  0  0
   21.2252  -18.2285  -14.2163 O   0  0  0  0  0  0  0  0  0  0  0  0
  2  1  1  0
  3  2  1  0
  4  5  1  0
  4  3  1  0
  5  6  1  6
  7  8  2  0
  7  5  1  0
  9 10  1  0
 10 11  2  0
 10 12  1  0
 13 12  1  6
 13 15  1  0
 13 14  1  0
 14  7  1  0
 15 17  1  0
 16 15  2  0
 17 18  1  0
 19 20  1  0
 19 18  1  0
 21 19  2  0
M  END
$$$$
