MNG.pdb
     RDKit          3D

 21 20  0  0  1  0  0  0  0  0999 V2000
   47.6487  -14.0257   -5.5612 C   0  0  0  0  0  0  0  0  0  0  0  0
   48.1470  -12.4243   -4.8503 S   0  0  0  0  0  0  0  0  0  0  0  0
   46.6560  -11.4601   -4.5672 C   0  0  0  0  0  0  0  0  0  0  0  0
   45.9952  -11.0457   -5.8611 C   0  0  0  0  0  0  0  0  0  0  0  0
   45.1589   -9.8131   -5.6931 C   0  0  2  0  0  0  0  0  0  0  0  0
   44.0825   -9.9502   -4.7420 N   0  0  0  0  0  0  0  0  0  0  0  0
   44.6200   -9.3769   -7.0166 C   0  0  0  0  0  0  0  0  0  0  0  0
   45.4216   -9.1214   -7.9346 O   0  0  0  0  0  0  0  0  0  0  0  0
   43.4021  -10.8249  -10.4055 N   0  0  0  0  0  0  0  0  0  0  0  0
   42.0960  -10.8152   -9.8958 C   0  0  0  0  0  0  0  0  0  0  0  0
   41.3028  -11.7220  -10.2318 O   0  0  0  0  0  0  0  0  0  0  0  0
   41.6638   -9.7611   -8.9839 C   0  0  0  0  0  0  0  0  0  0  0  0
   42.7231   -8.7809   -8.5522 C   0  0  2  0  0  0  0  0  0  0  0  0
   43.2458   -9.2495   -7.2476 N   0  0  0  0  0  0  0  0  0  0  0  0
   42.2815   -7.3992   -8.4005 C   0  0  0  0  0  0  0  0  0  0  0  0
   41.8714   -6.7642   -9.4028 O   0  0  0  0  0  0  0  0  0  0  0  0
   42.2904   -6.7264   -7.1528 N   0  0  0  0  0  0  0  0  0  0  0  0
   41.8451   -5.3507   -7.0733 C   0  0  0  0  0  0  0  0  0  0  0  0
   41.8302   -4.9273   -5.6627 C   0  0  0  0  0  0  0  0  0  0  0  0
   41.3388   -3.6645   -5.3256 O   0  0  0  0  0  0  0  0  0  0  0  0
   42.2491   -5.6813   -4.7778 O   0  0  0  0  0  0  0  0  0  0  0  0
  2  1  1  0
  3  2  1  0
  4  5  1  0
  4  3  1  0
  5  6  1  1
  7  8  2  0
  7  5  1  0
  9 10  1  0
 10 11  2  0
 10 12  1  0
 13 12  1  1
 13 15  1  0
 13 14  1  0
 14  7  1  0
 15 17  1  0
 16 15  2  0
 17 18  1  0
 19 20  1  0
 19 18  1  0
 21 19  2  0
M  END
$$$$
