MNG.pdb
     RDKit          3D

 21 20  0  0  1  0  0  0  0  0999 V2000
   14.2964  -14.5105   -8.9852 C   0  0  0  0  0  0  0  0  0  0  0  0
   15.3044  -13.7332  -10.2883 S   0  0  0  0  0  0  0  0  0  0  0  0
   14.3869  -12.3251  -10.9272 C   0  0  0  0  0  0  0  0  0  0  0  0
   15.1505  -11.5939  -12.0064 C   0  0  0  0  0  0  0  0  0  0  0  0
   14.3801  -10.4258  -12.5440 C   0  0  2  0  0  0  0  0  0  0  0  0
   13.1241  -10.7758  -13.1621 N   0  0  0  0  0  0  0  0  0  0  0  0
   15.2257   -9.6543  -13.5043 C   0  0  0  0  0  0  0  0  0  0  0  0
   15.0746   -9.8485  -14.7249 O   0  0  0  0  0  0  0  0  0  0  0  0
   18.3023   -6.1282  -15.7551 N   0  0  0  0  0  0  0  0  0  0  0  0
   17.3208   -5.6410  -14.8804 C   0  0  0  0  0  0  0  0  0  0  0  0
   17.0238   -4.4264  -14.9117 O   0  0  0  0  0  0  0  0  0  0  0  0
   16.6516   -6.5375  -13.9434 C   0  0  0  0  0  0  0  0  0  0  0  0
   17.0354   -7.9918  -14.0268 C   0  0  2  0  0  0  0  0  0  0  0  0
   16.1769   -8.7255  -13.0678 N   0  0  0  0  0  0  0  0  0  0  0  0
   18.4288   -8.2963  -13.7218 C   0  0  0  0  0  0  0  0  0  0  0  0
   18.8747   -8.0776  -12.5688 O   0  0  0  0  0  0  0  0  0  0  0  0
   19.3203   -8.8395  -14.6807 N   0  0  0  0  0  0  0  0  0  0  0  0
   20.7169   -9.0214  -14.3438 C   0  0  0  0  0  0  0  0  0  0  0  0
   21.5157   -7.9800  -15.0119 C   0  0  0  0  0  0  0  0  0  0  0  0
   22.8960   -7.9300  -14.8067 O   0  0  0  0  0  0  0  0  0  0  0  0
   20.9729   -7.1520  -15.7515 O   0  0  0  0  0  0  0  0  0  0  0  0
  2  1  1  0
  3  2  1  0
  4  5  1  0
  4  3  1  0
  5  6  1  6
  7  8  2  0
  7  5  1  0
  9 10  1  0
 10 11  2  0
 10 12  1  0
 13 12  1  1
 13 15  1  0
 13 14  1  0
 14  7  1  0
 15 17  1  0
 16 15  2  0
 17 18  1  0
 19 20  1  0
 19 18  1  0
 21 19  2  0
M  END
$$$$
