MNG.pdb
     RDKit          3D

 21 20  0  0  1  0  0  0  0  0999 V2000
   28.3258  -19.3083   -4.3264 C   0  0  0  0  0  0  0  0  0  0  0  0
   28.0918  -18.9948   -6.1055 S   0  0  0  0  0  0  0  0  0  0  0  0
   27.3914  -20.4797   -6.8384 C   0  0  0  0  0  0  0  0  0  0  0  0
   27.2801  -20.3715   -8.3411 C   0  0  0  0  0  0  0  0  0  0  0  0
   25.8621  -20.1728   -8.7848 C   0  0  2  0  0  0  0  0  0  0  0  0
   24.9552  -21.2113   -8.3595 N   0  0  0  0  0  0  0  0  0  0  0  0
   25.8079  -20.0227  -10.2704 C   0  0  0  0  0  0  0  0  0  0  0  0
   26.5121  -19.1490  -10.8100 O   0  0  0  0  0  0  0  0  0  0  0  0
   27.4574  -20.4332  -13.5832 N   0  0  0  0  0  0  0  0  0  0  0  0
   26.7564  -21.6362  -13.7490 C   0  0  0  0  0  0  0  0  0  0  0  0
   27.3099  -22.5885  -14.3417 O   0  0  0  0  0  0  0  0  0  0  0  0
   25.3974  -21.7790  -13.2372 C   0  0  0  0  0  0  0  0  0  0  0  0
   24.8306  -20.5842  -12.5157 C   0  0  2  0  0  0  0  0  0  0  0  0
   24.9903  -20.8347  -11.0643 N   0  0  0  0  0  0  0  0  0  0  0  0
   23.4258  -20.2942  -12.7798 C   0  0  0  0  0  0  0  0  0  0  0  0
   22.5490  -20.6745  -11.9658 O   0  0  0  0  0  0  0  0  0  0  0  0
   22.9942  -19.5886  -13.9310 N   0  0  0  0  0  0  0  0  0  0  0  0
   21.6120  -19.1714  -14.0437 C   0  0  0  0  0  0  0  0  0  0  0  0
   20.7864  -20.3291  -14.4274 C   0  0  0  0  0  0  0  0  0  0  0  0
   19.3974  -20.2589  -14.3026 O   0  0  0  0  0  0  0  0  0  0  0  0
   21.3145  -21.3600  -14.8580 O   0  0  0  0  0  0  0  0  0  0  0  0
  2  1  1  0
  3  2  1  0
  4  5  1  0
  4  3  1  0
  5  6  1  6
  7  8  2  0
  7  5  1  0
  9 10  1  0
 10 11  2  0
 10 12  1  0
 13 12  1  6
 13 15  1  0
 13 14  1  0
 14  7  1  0
 15 17  1  0
 16 15  2  0
 17 18  1  0
 19 20  1  0
 19 18  1  0
 21 19  2  0
M  END
$$$$
