MNG.pdb
     RDKit          3D

 21 20  0  0  1  0  0  0  0  0999 V2000
   16.6320  -13.8694  -15.5861 C   0  0  0  0  0  0  0  0  0  0  0  0
   17.8075  -12.5887  -15.0421 S   0  0  0  0  0  0  0  0  0  0  0  0
   19.0100  -12.3513  -16.3575 C   0  0  0  0  0  0  0  0  0  0  0  0
   19.9997  -11.2578  -16.0299 C   0  0  0  0  0  0  0  0  0  0  0  0
   21.0441  -11.1101  -17.0950 C   0  0  2  0  0  0  0  0  0  0  0  0
   21.9646  -12.2177  -17.1825 N   0  0  0  0  0  0  0  0  0  0  0  0
   21.7960   -9.8338  -16.8997 C   0  0  0  0  0  0  0  0  0  0  0  0
   22.8442   -9.8532  -16.2278 O   0  0  0  0  0  0  0  0  0  0  0  0
   22.4714   -6.0424  -20.8258 N   0  0  0  0  0  0  0  0  0  0  0  0
   22.7034   -6.7269  -19.6243 C   0  0  0  0  0  0  0  0  0  0  0  0
   23.6566   -7.5338  -19.5557 O   0  0  0  0  0  0  0  0  0  0  0  0
   21.8450   -6.5030  -18.4657 C   0  0  0  0  0  0  0  0  0  0  0  0
   22.1144   -7.3683  -17.2625 C   0  0  2  0  0  0  0  0  0  0  0  0
   21.3536   -8.6256  -17.4499 N   0  0  0  0  0  0  0  0  0  0  0  0
   21.7417   -6.7938  -15.9747 C   0  0  0  0  0  0  0  0  0  0  0  0
   20.5373   -6.7912  -15.6205 O   0  0  0  0  0  0  0  0  0  0  0  0
   22.6909   -6.2299  -15.0856 N   0  0  0  0  0  0  0  0  0  0  0  0
   22.2474   -5.6294  -13.8447 C   0  0  0  0  0  0  0  0  0  0  0  0
   21.5820   -4.3485  -14.1374 C   0  0  0  0  0  0  0  0  0  0  0  0
   21.0980   -3.5656  -13.0873 O   0  0  0  0  0  0  0  0  0  0  0  0
   21.4497   -3.9634  -15.3041 O   0  0  0  0  0  0  0  0  0  0  0  0
  2  1  1  0
  3  2  1  0
  4  5  1  0
  4  3  1  0
  5  6  1  1
  7  8  2  0
  7  5  1  0
  9 10  1  0
 10 11  2  0
 10 12  1  0
 13 12  1  6
 13 15  1  0
 13 14  1  0
 14  7  1  0
 15 17  1  0
 16 15  2  0
 17 18  1  0
 19 20  1  0
 19 18  1  0
 21 19  2  0
M  END
$$$$
