KCR.pdb
     RDKit          3D

 27 26  0  0  1  0  0  0  0  0999 V2000
    7.5857  -18.4886   16.5367 N   0  0  0  0  0  0  0  0  0  0  0  0
    8.6574  -17.8730   17.2396 C   0  0  1  0  0  0  0  0  0  0  0  0
    8.6528  -16.3973   17.1839 C   0  0  0  0  0  0  0  0  0  0  0  0
    8.5974  -15.7476   15.8405 C   0  0  0  0  0  0  0  0  0  0  0  0
    8.5667  -14.2697   15.9442 C   0  0  0  0  0  0  0  0  0  0  0  0
    8.5669  -13.5926   14.5786 C   0  0  0  0  0  0  0  0  0  0  0  0
    8.5003  -12.1662   14.6699 N   0  0  0  0  0  0  0  0  0  0  0  0
    8.5745  -18.2849   18.6898 C   0  0  0  0  0  0  0  0  0  0  0  0
    7.4757  -18.4318   19.2762 O   0  0  0  0  0  0  0  0  0  0  0  0
    9.7508  -18.5184   19.4367 N   0  0  0  0  0  0  0  0  0  0  0  0
    9.7828  -18.9496   20.8196 C   0  0  1  0  0  0  0  0  0  0  0  0
   10.2778  -20.3768   20.8497 C   0  0  0  0  0  0  0  0  0  0  0  0
   11.6280  -20.5393   19.6362 S   0  0  0  0  0  0  0  0  0  0  0  0
   10.7375  -18.0298   21.5256 C   0  0  0  0  0  0  0  0  0  0  0  0
   11.7086  -17.4821   20.9345 O   0  0  0  0  0  0  0  0  0  0  0  0
    7.8965  -14.8324   28.2086 N   0  0  0  0  0  0  0  0  0  0  0  0
    9.3009  -14.8662   28.4544 C   0  0  0  0  0  0  0  0  0  0  0  0
    9.7684  -14.2218   29.4516 N   0  0  0  0  0  0  0  0  0  0  0  0
   10.1815  -15.6033   27.6092 N   0  0  0  0  0  0  0  0  0  0  0  0
   11.0717  -14.9217   26.7092 C   0  0  0  0  0  0  0  0  0  0  0  0
   11.8702  -15.8869   25.8885 C   0  0  0  0  0  0  0  0  0  0  0  0
   10.9767  -16.6276   24.9570 C   0  0  0  0  0  0  0  0  0  0  0  0
   11.5294  -16.8263   23.5647 C   0  0  2  0  0  0  0  0  0  0  0  0
   10.5910  -17.7290   22.9050 N   0  0  0  0  0  0  0  0  0  0  0  0
   12.8726  -17.4222   23.6017 C   0  0  0  0  0  0  0  0  0  0  0  0
   13.0910  -18.6505   23.7190 O   0  0  0  0  0  0  0  0  0  0  0  0
   13.9871  -16.6043   23.5027 O   0  0  0  0  0  0  0  0  0  0  0  0
  2  3  1  0
  2  1  1  6
  4  5  1  0
  4  3  1  0
  5  6  1  0
  6  7  1  0
  8  9  2  0
  8  2  1  0
 10  8  1  0
 11 10  1  0
 11 12  1  6
 13 12  1  0
 14 15  2  0
 14 11  1  0
 17 16  1  0
 18 17  2  0
 19 17  1  0
 20 19  1  0
 21 20  1  0
 21 22  1  0
 23 22  1  1
 23 24  1  0
 24 14  1  0
 25 23  1  0
 26 25  2  0
 27 25  1  0
M  END
$$$$
