KCR.pdb
     RDKit          3D

 27 26  0  0  1  0  0  0  0  0999 V2000
    7.2987  -15.7120   19.2875 N   0  0  0  0  0  0  0  0  0  0  0  0
    8.2469  -14.6525   19.2810 C   0  0  1  0  0  0  0  0  0  0  0  0
    7.7689  -13.4128   18.6364 C   0  0  0  0  0  0  0  0  0  0  0  0
    8.4363  -12.9782   17.3733 C   0  0  0  0  0  0  0  0  0  0  0  0
    8.0039  -13.7926   16.2133 C   0  0  0  0  0  0  0  0  0  0  0  0
    8.7067  -13.3841   14.9239 C   0  0  0  0  0  0  0  0  0  0  0  0
    8.2683  -14.1424   13.7924 N   0  0  0  0  0  0  0  0  0  0  0  0
    8.6057  -14.3258   20.7108 C   0  0  0  0  0  0  0  0  0  0  0  0
    9.5613  -13.5664   20.9983 O   0  0  0  0  0  0  0  0  0  0  0  0
    7.8635  -14.8765   21.7794 N   0  0  0  0  0  0  0  0  0  0  0  0
    8.1594  -14.6770   23.1837 C   0  0  1  0  0  0  0  0  0  0  0  0
    6.8478  -14.5173   23.9166 C   0  0  0  0  0  0  0  0  0  0  0  0
    7.1909  -14.5061   25.7066 S   0  0  0  0  0  0  0  0  0  0  0  0
    8.8885  -15.9085   23.6394 C   0  0  0  0  0  0  0  0  0  0  0  0
    8.4953  -17.0719   23.3491 O   0  0  0  0  0  0  0  0  0  0  0  0
   17.4090  -17.0219   23.7132 N   0  0  0  0  0  0  0  0  0  0  0  0
   16.8973  -18.3225   23.9972 C   0  0  0  0  0  0  0  0  0  0  0  0
   17.7078  -19.3067   24.0486 N   0  0  0  0  0  0  0  0  0  0  0  0
   15.5056  -18.5361   24.2226 N   0  0  0  0  0  0  0  0  0  0  0  0
   14.5744  -17.4444   24.1311 C   0  0  0  0  0  0  0  0  0  0  0  0
   13.1989  -17.8571   24.5561 C   0  0  0  0  0  0  0  0  0  0  0  0
   12.2369  -16.7456   24.3240 C   0  0  0  0  0  0  0  0  0  0  0  0
   10.8181  -17.0275   24.7611 C   0  0  2  0  0  0  0  0  0  0  0  0
   10.0670  -15.8216   24.4258 N   0  0  0  0  0  0  0  0  0  0  0  0
   10.7450  -17.2908   26.2053 C   0  0  0  0  0  0  0  0  0  0  0  0
   10.2988  -16.4742   27.0447 O   0  0  0  0  0  0  0  0  0  0  0  0
   11.1875  -18.5065   26.7026 O   0  0  0  0  0  0  0  0  0  0  0  0
  2  3  1  0
  2  1  1  1
  4  5  1  0
  4  3  1  0
  5  6  1  0
  6  7  1  0
  8  9  2  0
  8  2  1  0
 10  8  1  0
 11 10  1  0
 11 12  1  1
 13 12  1  0
 14 15  2  0
 14 11  1  0
 17 16  1  0
 18 17  2  0
 19 17  1  0
 20 19  1  0
 21 20  1  0
 21 22  1  0
 23 22  1  1
 23 24  1  0
 24 14  1  0
 25 23  1  0
 26 25  2  0
 27 25  1  0
M  END
$$$$
