KCR.pdb
     RDKit          3D

 27 26  0  0  1  0  0  0  0  0999 V2000
    7.0580  -15.3219   21.2144 N   0  0  0  0  0  0  0  0  0  0  0  0
    8.4103  -14.9128   21.0539 C   0  0  1  0  0  0  0  0  0  0  0  0
    8.6354  -13.9869   19.9258 C   0  0  0  0  0  0  0  0  0  0  0  0
    7.5431  -13.8307   18.9195 C   0  0  0  0  0  0  0  0  0  0  0  0
    8.0446  -13.9852   17.5336 C   0  0  0  0  0  0  0  0  0  0  0  0
    6.9650  -13.7126   16.4927 C   0  0  0  0  0  0  0  0  0  0  0  0
    7.4308  -13.8994   15.1527 N   0  0  0  0  0  0  0  0  0  0  0  0
    8.8517  -14.2201   22.3207 C   0  0  0  0  0  0  0  0  0  0  0  0
    9.9482  -13.6166   22.3995 O   0  0  0  0  0  0  0  0  0  0  0  0
    8.0290  -14.2343   23.4691 N   0  0  0  0  0  0  0  0  0  0  0  0
    8.5114  -14.2034   24.8350 C   0  0  1  0  0  0  0  0  0  0  0  0
    7.4518  -13.5447   25.6870 C   0  0  0  0  0  0  0  0  0  0  0  0
    6.1643  -14.7812   26.0554 S   0  0  0  0  0  0  0  0  0  0  0  0
    8.7206  -15.6345   25.2402 C   0  0  0  0  0  0  0  0  0  0  0  0
    7.8422  -16.5223   25.0596 O   0  0  0  0  0  0  0  0  0  0  0  0
   10.9336  -19.1988   21.3505 N   0  0  0  0  0  0  0  0  0  0  0  0
   12.2006  -18.5976   21.0909 C   0  0  0  0  0  0  0  0  0  0  0  0
   12.7934  -18.8582   19.9914 N   0  0  0  0  0  0  0  0  0  0  0  0
   12.8083  -17.7177   22.0342 N   0  0  0  0  0  0  0  0  0  0  0  0
   12.7489  -18.0019   23.4424 C   0  0  0  0  0  0  0  0  0  0  0  0
   11.3914  -17.7134   24.0054 C   0  0  0  0  0  0  0  0  0  0  0  0
   11.4095  -17.8628   25.4859 C   0  0  0  0  0  0  0  0  0  0  0  0
   10.1281  -17.4683   26.1832 C   0  0  2  0  0  0  0  0  0  0  0  0
    9.9288  -16.0609   25.8511 N   0  0  0  0  0  0  0  0  0  0  0  0
   10.2358  -17.6403   27.6390 C   0  0  0  0  0  0  0  0  0  0  0  0
   10.3714  -18.7500   28.2051 O   0  0  0  0  0  0  0  0  0  0  0  0
   10.1888  -16.5283   28.4648 O   0  0  0  0  0  0  0  0  0  0  0  0
  2  3  1  0
  2  1  1  1
  4  5  1  0
  4  3  1  0
  5  6  1  0
  6  7  1  0
  8  9  2  0
  8  2  1  0
 10  8  1  0
 11 10  1  0
 11 12  1  1
 13 12  1  0
 14 15  2  0
 14 11  1  0
 17 16  1  0
 18 17  2  0
 19 17  1  0
 20 19  1  0
 21 20  1  0
 21 22  1  0
 23 22  1  6
 23 24  1  0
 24 14  1  0
 25 23  1  0
 26 25  2  0
 27 25  1  0
M  END
$$$$
