KCR.pdb
     RDKit          3D

 27 26  0  0  1  0  0  0  0  0999 V2000
    6.9945  -16.8822   19.6783 N   0  0  0  0  0  0  0  0  0  0  0  0
    8.3796  -16.6646   19.4416 C   0  0  1  0  0  0  0  0  0  0  0  0
    8.6692  -15.7939   18.2846 C   0  0  0  0  0  0  0  0  0  0  0  0
    7.8960  -14.5231   18.1539 C   0  0  0  0  0  0  0  0  0  0  0  0
    8.2882  -13.7615   16.9446 C   0  0  0  0  0  0  0  0  0  0  0  0
    7.5714  -12.4200   16.8466 C   0  0  0  0  0  0  0  0  0  0  0  0
    7.8852  -11.7134   15.6425 N   0  0  0  0  0  0  0  0  0  0  0  0
    8.9772  -16.0215   20.6700 C   0  0  0  0  0  0  0  0  0  0  0  0
   10.1810  -15.6733   20.7177 O   0  0  0  0  0  0  0  0  0  0  0  0
    8.1840  -15.7921   21.8164 N   0  0  0  0  0  0  0  0  0  0  0  0
    8.6807  -15.2882   23.0809 C   0  0  1  0  0  0  0  0  0  0  0  0
    7.5452  -14.5715   23.7735 C   0  0  0  0  0  0  0  0  0  0  0  0
    8.1095  -14.0782   25.4349 S   0  0  0  0  0  0  0  0  0  0  0  0
    9.1243  -16.4885   23.8674 C   0  0  0  0  0  0  0  0  0  0  0  0
    8.3228  -17.3957   24.2236 O   0  0  0  0  0  0  0  0  0  0  0  0
   14.7141  -20.4518   27.2790 N   0  0  0  0  0  0  0  0  0  0  0  0
   15.0835  -21.2440   26.1521 C   0  0  0  0  0  0  0  0  0  0  0  0
   15.6053  -22.3916   26.3492 N   0  0  0  0  0  0  0  0  0  0  0  0
   14.8794  -20.7758   24.8208 N   0  0  0  0  0  0  0  0  0  0  0  0
   14.3348  -19.4668   24.5819 C   0  0  0  0  0  0  0  0  0  0  0  0
   12.8770  -19.4070   24.9196 C   0  0  0  0  0  0  0  0  0  0  0  0
   12.3514  -18.0362   24.6761 C   0  0  0  0  0  0  0  0  0  0  0  0
   10.8872  -17.8471   24.9986 C   0  0  2  0  0  0  0  0  0  0  0  0
   10.4799  -16.6616   24.2507 N   0  0  0  0  0  0  0  0  0  0  0  0
   10.6784  -17.6404   26.4388 C   0  0  0  0  0  0  0  0  0  0  0  0
   10.6202  -16.5134   26.9836 O   0  0  0  0  0  0  0  0  0  0  0  0
   10.5327  -18.7371   27.2736 O   0  0  0  0  0  0  0  0  0  0  0  0
  2  3  1  0
  2  1  1  1
  4  5  1  0
  4  3  1  0
  5  6  1  0
  6  7  1  0
  8  9  2  0
  8  2  1  0
 10  8  1  0
 11 10  1  0
 11 12  1  1
 13 12  1  0
 14 15  2  0
 14 11  1  0
 17 16  1  0
 18 17  2  0
 19 17  1  0
 20 19  1  0
 21 20  1  0
 21 22  1  0
 23 22  1  1
 23 24  1  0
 24 14  1  0
 25 23  1  0
 26 25  2  0
 27 25  1  0
M  END
$$$$
