KCR.pdb
     RDKit          3D

 27 26  0  0  1  0  0  0  0  0999 V2000
   11.3512  -20.3808   14.3888 N   0  0  0  0  0  0  0  0  0  0  0  0
   11.7585  -21.0211   15.5912 C   0  0  1  0  0  0  0  0  0  0  0  0
   13.1781  -21.4273   15.6128 C   0  0  0  0  0  0  0  0  0  0  0  0
   14.1921  -20.4554   15.1056 C   0  0  0  0  0  0  0  0  0  0  0  0
   15.5657  -21.0077   15.1717 C   0  0  0  0  0  0  0  0  0  0  0  0
   16.6160  -20.0069   14.7041 C   0  0  0  0  0  0  0  0  0  0  0  0
   17.9487  -20.5180   14.8049 N   0  0  0  0  0  0  0  0  0  0  0  0
   11.5288  -20.0681   16.7395 C   0  0  0  0  0  0  0  0  0  0  0  0
   11.4310  -18.8301   16.5651 O   0  0  0  0  0  0  0  0  0  0  0  0
   11.4172  -20.5533   18.0618 N   0  0  0  0  0  0  0  0  0  0  0  0
   11.1061  -19.7398   19.2197 C   0  0  1  0  0  0  0  0  0  0  0  0
    9.7814  -20.2090   19.7746 C   0  0  0  0  0  0  0  0  0  0  0  0
    9.9674  -21.9411   20.3104 S   0  0  0  0  0  0  0  0  0  0  0  0
   12.2172  -19.9668   20.2046 C   0  0  0  0  0  0  0  0  0  0  0  0
   12.8431  -21.0602   20.2757 O   0  0  0  0  0  0  0  0  0  0  0  0
   13.2895  -24.8697   25.4376 N   0  0  0  0  0  0  0  0  0  0  0  0
   12.6243  -23.6195   25.6070 C   0  0  0  0  0  0  0  0  0  0  0  0
   11.5765  -23.5717   26.3336 N   0  0  0  0  0  0  0  0  0  0  0  0
   13.1095  -22.4335   24.9815 N   0  0  0  0  0  0  0  0  0  0  0  0
   14.1156  -22.5067   23.9571 C   0  0  0  0  0  0  0  0  0  0  0  0
   14.5034  -21.1453   23.4680 C   0  0  0  0  0  0  0  0  0  0  0  0
   13.4116  -20.5706   22.6360 C   0  0  0  0  0  0  0  0  0  0  0  0
   13.6983  -19.2019   22.0632 C   0  0  2  0  0  0  0  0  0  0  0  0
   12.6209  -18.9516   21.1108 N   0  0  0  0  0  0  0  0  0  0  0  0
   15.0008  -19.1682   21.3829 C   0  0  0  0  0  0  0  0  0  0  0  0
   15.4989  -18.1371   20.8739 O   0  0  0  0  0  0  0  0  0  0  0  0
   15.7500  -20.3298   21.2810 O   0  0  0  0  0  0  0  0  0  0  0  0
  2  3  1  0
  2  1  1  6
  4  5  1  0
  4  3  1  0
  5  6  1  0
  6  7  1  0
  8  9  2  0
  8  2  1  0
 10  8  1  0
 11 10  1  0
 11 12  1  1
 13 12  1  0
 14 15  2  0
 14 11  1  0
 17 16  1  0
 18 17  2  0
 19 17  1  0
 20 19  1  0
 21 20  1  0
 21 22  1  0
 23 22  1  6
 23 24  1  0
 24 14  1  0
 25 23  1  0
 26 25  2  0
 27 25  1  0
M  END
$$$$
