KCR.pdb
     RDKit          3D

 27 26  0  0  1  0  0  0  0  0999 V2000
    5.6527  -18.4176   18.8312 N   0  0  0  0  0  0  0  0  0  0  0  0
    6.8317  -18.4851   18.0393 C   0  0  1  0  0  0  0  0  0  0  0  0
    6.5928  -18.3968   16.5847 C   0  0  0  0  0  0  0  0  0  0  0  0
    6.2725  -19.6568   15.8500 C   0  0  0  0  0  0  0  0  0  0  0  0
    6.0352  -19.4088   14.4084 C   0  0  0  0  0  0  0  0  0  0  0  0
    5.6026  -20.6684   13.6670 C   0  0  0  0  0  0  0  0  0  0  0  0
    5.4779  -20.4630   12.2564 N   0  0  0  0  0  0  0  0  0  0  0  0
    7.7360  -17.3421   18.4333 C   0  0  0  0  0  0  0  0  0  0  0  0
    8.9125  -17.2501   18.0092 O   0  0  0  0  0  0  0  0  0  0  0  0
    7.2738  -16.3305   19.3047 N   0  0  0  0  0  0  0  0  0  0  0  0
    8.0709  -15.2177   19.7798 C   0  0  1  0  0  0  0  0  0  0  0  0
    7.1307  -14.0855   20.1218 C   0  0  0  0  0  0  0  0  0  0  0  0
    8.1062  -12.7374   20.8656 S   0  0  0  0  0  0  0  0  0  0  0  0
    8.7945  -15.7091   21.0008 C   0  0  0  0  0  0  0  0  0  0  0  0
    8.2048  -16.3188   21.9350 O   0  0  0  0  0  0  0  0  0  0  0  0
   13.0009  -20.1975   25.2850 N   0  0  0  0  0  0  0  0  0  0  0  0
   11.8487  -20.9869   24.9962 C   0  0  0  0  0  0  0  0  0  0  0  0
   11.6616  -22.0673   25.6490 N   0  0  0  0  0  0  0  0  0  0  0  0
   10.9118  -20.5892   23.9976 N   0  0  0  0  0  0  0  0  0  0  0  0
   11.3454  -19.8567   22.8389 C   0  0  0  0  0  0  0  0  0  0  0  0
   11.5048  -18.3979   23.1378 C   0  0  0  0  0  0  0  0  0  0  0  0
   10.8174  -17.5847   22.0982 C   0  0  0  0  0  0  0  0  0  0  0  0
   10.8879  -16.0897   22.3069 C   0  0  2  0  0  0  0  0  0  0  0  0
   10.1904  -15.5097   21.1633 N   0  0  0  0  0  0  0  0  0  0  0  0
   12.2801  -15.6200   22.3492 C   0  0  0  0  0  0  0  0  0  0  0  0
   12.8307  -14.9765   21.4256 O   0  0  0  0  0  0  0  0  0  0  0  0
   13.0590  -15.8874   23.4639 O   0  0  0  0  0  0  0  0  0  0  0  0
  2  3  1  0
  2  1  1  1
  4  5  1  0
  4  3  1  0
  5  6  1  0
  6  7  1  0
  8  9  2  0
  8  2  1  0
 10  8  1  0
 11 10  1  0
 11 12  1  1
 13 12  1  0
 14 15  2  0
 14 11  1  0
 17 16  1  0
 18 17  2  0
 19 17  1  0
 20 19  1  0
 21 20  1  0
 21 22  1  0
 23 22  1  6
 23 24  1  0
 24 14  1  0
 25 23  1  0
 26 25  2  0
 27 25  1  0
M  END
$$$$
