KCR.pdb
     RDKit          3D

 27 26  0  0  1  0  0  0  0  0999 V2000
    7.3345  -15.1803   20.0258 N   0  0  0  0  0  0  0  0  0  0  0  0
    6.7536  -15.3349   21.3143 C   0  0  1  0  0  0  0  0  0  0  0  0
    6.2201  -16.6855   21.5825 C   0  0  0  0  0  0  0  0  0  0  0  0
    5.3342  -17.3056   20.5526 C   0  0  0  0  0  0  0  0  0  0  0  0
    4.7879  -18.6061   21.0068 C   0  0  0  0  0  0  0  0  0  0  0  0
    3.7519  -19.1688   20.0408 C   0  0  0  0  0  0  0  0  0  0  0  0
    3.1749  -20.3941   20.5026 N   0  0  0  0  0  0  0  0  0  0  0  0
    7.8094  -15.0364   22.3515 C   0  0  0  0  0  0  0  0  0  0  0  0
    9.0320  -15.1867   22.1162 O   0  0  0  0  0  0  0  0  0  0  0  0
    7.4424  -14.5737   23.6349 N   0  0  0  0  0  0  0  0  0  0  0  0
    8.3701  -14.2975   24.7132 C   0  0  1  0  0  0  0  0  0  0  0  0
    7.7708  -13.2102   25.5743 C   0  0  0  0  0  0  0  0  0  0  0  0
    6.1168  -13.7544   26.1132 S   0  0  0  0  0  0  0  0  0  0  0  0
    8.5158  -15.5795   25.4820 C   0  0  0  0  0  0  0  0  0  0  0  0
    7.5276  -16.3088   25.7715 O   0  0  0  0  0  0  0  0  0  0  0  0
   13.0560  -21.0104   22.7698 N   0  0  0  0  0  0  0  0  0  0  0  0
   11.9331  -20.3149   22.2317 C   0  0  0  0  0  0  0  0  0  0  0  0
   11.9588  -19.9553   21.0077 N   0  0  0  0  0  0  0  0  0  0  0  0
   10.7927  -20.0190   23.0350 N   0  0  0  0  0  0  0  0  0  0  0  0
   10.9417  -19.7190   24.4332 C   0  0  0  0  0  0  0  0  0  0  0  0
   11.1053  -18.2486   24.6663 C   0  0  0  0  0  0  0  0  0  0  0  0
   11.1351  -17.9625   26.1264 C   0  0  0  0  0  0  0  0  0  0  0  0
    9.8978  -17.2861   26.6699 C   0  0  2  0  0  0  0  0  0  0  0  0
    9.7850  -16.0367   25.9235 N   0  0  0  0  0  0  0  0  0  0  0  0
   10.0249  -17.0130   28.1085 C   0  0  0  0  0  0  0  0  0  0  0  0
   10.1875  -15.8687   28.5927 O   0  0  0  0  0  0  0  0  0  0  0  0
    9.9651  -18.0622   29.0121 O   0  0  0  0  0  0  0  0  0  0  0  0
  2  3  1  0
  2  1  1  6
  4  5  1  0
  4  3  1  0
  5  6  1  0
  6  7  1  0
  8  9  2  0
  8  2  1  0
 10  8  1  0
 11 10  1  0
 11 12  1  1
 13 12  1  0
 14 15  2  0
 14 11  1  0
 17 16  1  0
 18 17  2  0
 19 17  1  0
 20 19  1  0
 21 20  1  0
 21 22  1  0
 23 22  1  6
 23 24  1  0
 24 14  1  0
 25 23  1  0
 26 25  2  0
 27 25  1  0
M  END
$$$$
