KCR.pdb
     RDKit          3D

 27 26  0  0  1  0  0  0  0  0999 V2000
    8.1185  -16.3115   18.6538 N   0  0  0  0  0  0  0  0  0  0  0  0
    9.3912  -15.7231   18.8900 C   0  0  1  0  0  0  0  0  0  0  0  0
    9.6934  -14.5622   18.0288 C   0  0  0  0  0  0  0  0  0  0  0  0
    8.5747  -13.9657   17.2398 C   0  0  0  0  0  0  0  0  0  0  0  0
    8.9563  -13.7418   15.8255 C   0  0  0  0  0  0  0  0  0  0  0  0
    7.8393  -13.0883   15.0201 C   0  0  0  0  0  0  0  0  0  0  0  0
    8.1945  -12.8837   13.6492 N   0  0  0  0  0  0  0  0  0  0  0  0
    9.4438  -15.2635   20.3272 C   0  0  0  0  0  0  0  0  0  0  0  0
   10.5083  -14.8668   20.8585 O   0  0  0  0  0  0  0  0  0  0  0  0
    8.2774  -15.2692   21.1244 N   0  0  0  0  0  0  0  0  0  0  0  0
    8.2388  -14.9590   22.5392 C   0  0  1  0  0  0  0  0  0  0  0  0
    6.8437  -14.4840   22.8726 C   0  0  0  0  0  0  0  0  0  0  0  0
    6.7486  -14.2078   24.6717 S   0  0  0  0  0  0  0  0  0  0  0  0
    8.5631  -16.2365   23.2595 C   0  0  0  0  0  0  0  0  0  0  0  0
    8.0145  -17.3344   22.9664 O   0  0  0  0  0  0  0  0  0  0  0  0
   10.9923  -15.5286   30.9000 N   0  0  0  0  0  0  0  0  0  0  0  0
   10.9333  -15.1019   29.5403 C   0  0  0  0  0  0  0  0  0  0  0  0
   10.2565  -14.0600   29.2496 N   0  0  0  0  0  0  0  0  0  0  0  0
   11.6138  -15.8169   28.5113 N   0  0  0  0  0  0  0  0  0  0  0  0
   11.5208  -17.2494   28.4324 C   0  0  0  0  0  0  0  0  0  0  0  0
   10.4647  -17.6799   27.4617 C   0  0  0  0  0  0  0  0  0  0  0  0
   10.7726  -17.1535   26.1042 C   0  0  0  0  0  0  0  0  0  0  0  0
    9.7656  -17.5132   25.0364 C   0  0  2  0  0  0  0  0  0  0  0  0
    9.5122  -16.2701   24.3143 N   0  0  0  0  0  0  0  0  0  0  0  0
    8.5204  -18.0258   25.6255 C   0  0  0  0  0  0  0  0  0  0  0  0
    7.4807  -17.3415   25.7713 O   0  0  0  0  0  0  0  0  0  0  0  0
    8.4578  -19.3418   26.0558 O   0  0  0  0  0  0  0  0  0  0  0  0
  2  3  1  0
  2  1  1  6
  4  5  1  0
  4  3  1  0
  5  6  1  0
  6  7  1  0
  8  9  2  0
  8  2  1  0
 10  8  1  0
 11 10  1  0
 11 12  1  1
 13 12  1  0
 14 15  2  0
 14 11  1  0
 17 16  1  0
 18 17  2  0
 19 17  1  0
 20 19  1  0
 21 20  1  0
 21 22  1  0
 23 22  1  1
 23 24  1  0
 24 14  1  0
 25 23  1  0
 26 25  2  0
 27 25  1  0
M  END
$$$$
