ASP.pdb
     RDKit          3D

 19 19  0  0  1  0  0  0  0  0999 V2000
   10.6832  -17.4404   16.1370 C   0  0  0  0  0  0  0  0  0  0  0  0
    9.2010  -17.2164   15.9544 C   0  0  2  0  0  0  0  0  0  0  0  0
    8.9520  -16.3533   14.8338 N   0  0  0  0  0  0  0  0  0  0  0  0
    8.6171  -16.6996   17.2187 C   0  0  0  0  0  0  0  0  0  0  0  0
    8.5710  -15.4602   17.3741 O   0  0  0  0  0  0  0  0  0  0  0  0
    5.9706  -17.8140   21.2036 O   0  0  0  0  0  0  0  0  0  0  0  0
    6.5234  -18.1083   19.9845 C   0  0  0  0  0  0  0  0  0  0  0  0
    7.4474  -17.0423   19.4487 C   0  0  2  0  0  0  0  0  0  0  0  0
    8.1183  -17.5223   18.2403 N   0  0  0  0  0  0  0  0  0  0  0  0
    8.4299  -16.5229   20.4008 C   0  0  0  0  0  0  0  0  0  0  0  0
    9.5452  -17.1691   20.4310 O   0  0  0  0  0  0  0  0  0  0  0  0
    8.3192  -15.4308   21.2710 N   0  0  0  0  0  0  0  0  0  0  0  0
    7.1583  -14.5034   21.1854 C   0  0  0  0  0  0  0  0  0  0  0  0
    7.8088  -13.1798   21.5450 C   0  0  0  0  0  0  0  0  0  0  0  0
    8.5070  -13.6248   22.8085 C   0  0  0  0  0  0  0  0  0  0  0  0
    9.1604  -14.9371   22.3417 C   0  0  1  0  0  0  0  0  0  0  0  0
    9.2733  -15.8533   23.4766 C   0  0  0  0  0  0  0  0  0  0  0  0
    8.4290  -16.7603   23.6324 O   0  0  0  0  0  0  0  0  0  0  0  0
   10.2994  -15.7389   24.3849 O   0  0  0  0  0  0  0  0  0  0  0  0
  2  1  1  1
  2  3  1  0
  4  5  2  0
  4  2  1  0
  6  7  1  0
  8  7  1  1
  8  9  1  0
  9  4  1  0
 10 12  1  0
 10  8  1  0
 11 10  2  0
 12 16  1  0
 13 12  1  0
 13 14  1  0
 14 15  1  0
 16 15  1  0
 16 17  1  1
 17 19  1  0
 18 17  2  0
M  END
$$$$
