ASP.pdb
     RDKit          3D

 19 19  0  0  1  0  0  0  0  0999 V2000
    9.1175  -12.3840   19.5955 C   0  0  0  0  0  0  0  0  0  0  0  0
    8.6188  -13.8094   19.5812 C   0  0  2  0  0  0  0  0  0  0  0  0
    7.9683  -14.1075   18.3359 N   0  0  0  0  0  0  0  0  0  0  0  0
    7.7416  -14.0406   20.7575 C   0  0  0  0  0  0  0  0  0  0  0  0
    6.5096  -13.8988   20.6011 O   0  0  0  0  0  0  0  0  0  0  0  0
    7.9872  -17.0378   23.3297 O   0  0  0  0  0  0  0  0  0  0  0  0
    6.9559  -16.1507   23.1627 C   0  0  0  0  0  0  0  0  0  0  0  0
    7.3748  -14.7013   23.1840 C   0  0  2  0  0  0  0  0  0  0  0  0
    8.2186  -14.4068   22.0255 N   0  0  0  0  0  0  0  0  0  0  0  0
    8.0287  -14.2519   24.4137 C   0  0  0  0  0  0  0  0  0  0  0  0
    9.3003  -14.4611   24.4555 O   0  0  0  0  0  0  0  0  0  0  0  0
    7.4622  -13.6326   25.5352 N   0  0  0  0  0  0  0  0  0  0  0  0
    6.0248  -13.2470   25.5475 C   0  0  0  0  0  0  0  0  0  0  0  0
    6.0671  -11.9703   26.3677 C   0  0  0  0  0  0  0  0  0  0  0  0
    6.8617  -12.4987   27.5387 C   0  0  0  0  0  0  0  0  0  0  0  0
    8.0053  -13.2319   26.8167 C   0  0  1  0  0  0  0  0  0  0  0  0
    8.4623  -14.3499   27.6421 C   0  0  0  0  0  0  0  0  0  0  0  0
    8.0472  -15.5052   27.4125 O   0  0  0  0  0  0  0  0  0  0  0  0
    9.3491  -14.1567   28.6752 O   0  0  0  0  0  0  0  0  0  0  0  0
  2  1  1  6
  2  3  1  0
  4  5  2  0
  4  2  1  0
  6  7  1  0
  8  7  1  1
  8  9  1  0
  9  4  1  0
 10 12  1  0
 10  8  1  0
 11 10  2  0
 12 16  1  0
 13 12  1  0
 13 14  1  0
 14 15  1  0
 16 15  1  0
 16 17  1  1
 17 19  1  0
 18 17  2  0
M  END
$$$$
