ASP.pdb
     RDKit          3D

 19 19  0  0  1  0  0  0  0  0999 V2000
   10.4968  -13.4423   20.0094 C   0  0  0  0  0  0  0  0  0  0  0  0
    9.0665  -13.7812   19.6632 C   0  0  2  0  0  0  0  0  0  0  0  0
    8.5968  -12.9590   18.5833 N   0  0  0  0  0  0  0  0  0  0  0  0
    8.2212  -13.6703   20.8796 C   0  0  0  0  0  0  0  0  0  0  0  0
    7.7036  -12.5602   21.1290 O   0  0  0  0  0  0  0  0  0  0  0  0
    6.9473  -17.0545   23.2011 O   0  0  0  0  0  0  0  0  0  0  0  0
    6.2661  -15.8726   23.0690 C   0  0  0  0  0  0  0  0  0  0  0  0
    7.1512  -14.6550   22.9639 C   0  0  2  0  0  0  0  0  0  0  0  0
    7.9747  -14.7372   21.7572 N   0  0  0  0  0  0  0  0  0  0  0  0
    7.9901  -14.3825   24.1316 C   0  0  0  0  0  0  0  0  0  0  0  0
    9.1984  -14.8235   24.0421 O   0  0  0  0  0  0  0  0  0  0  0  0
    7.6572  -13.7145   25.3170 N   0  0  0  0  0  0  0  0  0  0  0  0
    6.3450  -13.0272   25.4612 C   0  0  0  0  0  0  0  0  0  0  0  0
    6.7273  -11.8348   26.3193 C   0  0  0  0  0  0  0  0  0  0  0  0
    7.4688  -12.5835   27.4017 C   0  0  0  0  0  0  0  0  0  0  0  0
    8.3670  -13.5087   26.5626 C   0  0  1  0  0  0  0  0  0  0  0  0
    8.6251  -14.7408   27.3079 C   0  0  0  0  0  0  0  0  0  0  0  0
    7.9514  -15.7655   27.0713 O   0  0  0  0  0  0  0  0  0  0  0  0
    9.6037  -14.7982   28.2723 O   0  0  0  0  0  0  0  0  0  0  0  0
  2  1  1  1
  2  3  1  0
  4  5  2  0
  4  2  1  0
  6  7  1  0
  8  7  1  1
  8  9  1  0
  9  4  1  0
 10 12  1  0
 10  8  1  0
 11 10  2  0
 12 16  1  0
 13 12  1  0
 13 14  1  0
 14 15  1  0
 16 15  1  0
 16 17  1  1
 17 19  1  0
 18 17  2  0
M  END
$$$$
