ASP.pdb
     RDKit          3D

 19 19  0  0  1  0  0  0  0  0999 V2000
    9.1854  -12.5221   19.6346 C   0  0  0  0  0  0  0  0  0  0  0  0
    8.6366  -13.9245   19.5227 C   0  0  2  0  0  0  0  0  0  0  0  0
    8.0320  -14.1323   18.2366 N   0  0  0  0  0  0  0  0  0  0  0  0
    7.7000  -14.1826   20.6464 C   0  0  0  0  0  0  0  0  0  0  0  0
    6.5157  -14.4646   20.3633 O   0  0  0  0  0  0  0  0  0  0  0  0
    7.7237  -16.9257   23.2298 O   0  0  0  0  0  0  0  0  0  0  0  0
    6.7825  -15.9845   22.9031 C   0  0  0  0  0  0  0  0  0  0  0  0
    7.2306  -14.5594   23.1155 C   0  0  2  0  0  0  0  0  0  0  0  0
    8.0711  -14.1270   21.9987 N   0  0  0  0  0  0  0  0  0  0  0  0
    7.9028  -14.2928   24.3878 C   0  0  0  0  0  0  0  0  0  0  0  0
    9.1222  -14.7072   24.4505 O   0  0  0  0  0  0  0  0  0  0  0  0
    7.4024  -13.6550   25.5301 N   0  0  0  0  0  0  0  0  0  0  0  0
    6.0015  -13.1539   25.5706 C   0  0  0  0  0  0  0  0  0  0  0  0
    6.1579  -11.9038   26.4174 C   0  0  0  0  0  0  0  0  0  0  0  0
    6.9206  -12.5215   27.5658 C   0  0  0  0  0  0  0  0  0  0  0  0
    7.9918  -13.3289   26.8123 C   0  0  1  0  0  0  0  0  0  0  0  0
    8.3658  -14.4988   27.6070 C   0  0  0  0  0  0  0  0  0  0  0  0
    7.8471  -15.6089   27.3651 O   0  0  0  0  0  0  0  0  0  0  0  0
    9.2861  -14.4041   28.6244 O   0  0  0  0  0  0  0  0  0  0  0  0
  2  1  1  6
  2  3  1  0
  4  5  2  0
  4  2  1  0
  6  7  1  0
  8  7  1  6
  8  9  1  0
  9  4  1  0
 10 12  1  0
 10  8  1  0
 11 10  2  0
 12 16  1  0
 13 12  1  0
 13 14  1  0
 14 15  1  0
 16 15  1  0
 16 17  1  1
 17 19  1  0
 18 17  2  0
M  END
$$$$
