ASP.pdb
     RDKit          3D

 19 19  0  0  1  0  0  0  0  0999 V2000
   11.5733  -16.9275   15.1877 C   0  0  0  0  0  0  0  0  0  0  0  0
   10.2430  -17.0700   14.4875 C   0  0  2  0  0  0  0  0  0  0  0  0
   10.2993  -16.5023   13.1694 N   0  0  0  0  0  0  0  0  0  0  0  0
    9.1734  -16.4706   15.3261 C   0  0  0  0  0  0  0  0  0  0  0  0
    8.0493  -16.3059   14.8049 O   0  0  0  0  0  0  0  0  0  0  0  0
    6.5240  -17.3084   18.6566 O   0  0  0  0  0  0  0  0  0  0  0  0
    7.5121  -17.2803   17.7072 C   0  0  0  0  0  0  0  0  0  0  0  0
    8.2901  -15.9883   17.6598 C   0  0  2  0  0  0  0  0  0  0  0  0
    9.3563  -16.0821   16.6621 N   0  0  0  0  0  0  0  0  0  0  0  0
    8.8332  -15.5319   18.9397 C   0  0  0  0  0  0  0  0  0  0  0  0
    9.7873  -16.2601   19.4109 O   0  0  0  0  0  0  0  0  0  0  0  0
    8.4580  -14.4231   19.7090 N   0  0  0  0  0  0  0  0  0  0  0  0
    7.4053  -13.4857   19.2314 C   0  0  0  0  0  0  0  0  0  0  0  0
    7.9208  -12.1624   19.7675 C   0  0  0  0  0  0  0  0  0  0  0  0
    8.1550  -12.5913   21.1969 C   0  0  0  0  0  0  0  0  0  0  0  0
    8.9054  -13.9184   20.9908 C   0  0  1  0  0  0  0  0  0  0  0  0
    8.6226  -14.8149   22.1118 C   0  0  0  0  0  0  0  0  0  0  0  0
    7.7190  -15.6713   22.0128 O   0  0  0  0  0  0  0  0  0  0  0  0
    9.3371  -14.7367   23.2841 O   0  0  0  0  0  0  0  0  0  0  0  0
  2  1  1  1
  2  3  1  0
  4  5  2  0
  4  2  1  0
  6  7  1  0
  8  7  1  1
  8  9  1  0
  9  4  1  0
 10 12  1  0
 10  8  1  0
 11 10  2  0
 12 16  1  0
 13 12  1  0
 13 14  1  0
 14 15  1  0
 16 15  1  0
 16 17  1  1
 17 19  1  0
 18 17  2  0
M  END
$$$$
