ASP.pdb
     RDKit          3D

 19 19  0  0  1  0  0  0  0  0999 V2000
    8.7019  -12.6643   19.6550 C   0  0  0  0  0  0  0  0  0  0  0  0
    8.3213  -14.1211   19.7706 C   0  0  2  0  0  0  0  0  0  0  0  0
    7.6077  -14.5540   18.6018 N   0  0  0  0  0  0  0  0  0  0  0  0
    7.5544  -14.3363   21.0245 C   0  0  0  0  0  0  0  0  0  0  0  0
    6.3136  -14.1923   20.9794 O   0  0  0  0  0  0  0  0  0  0  0  0
    8.2100  -17.1924   23.7663 O   0  0  0  0  0  0  0  0  0  0  0  0
    7.1033  -16.3937   23.6414 C   0  0  0  0  0  0  0  0  0  0  0  0
    7.4124  -14.9242   23.4929 C   0  0  2  0  0  0  0  0  0  0  0  0
    8.1443  -14.6897   22.2478 N   0  0  0  0  0  0  0  0  0  0  0  0
    8.1190  -14.3116   24.6185 C   0  0  0  0  0  0  0  0  0  0  0  0
    9.4039  -14.4039   24.5630 O   0  0  0  0  0  0  0  0  0  0  0  0
    7.5900  -13.6471   25.7324 N   0  0  0  0  0  0  0  0  0  0  0  0
    6.1402  -13.3185   25.8056 C   0  0  0  0  0  0  0  0  0  0  0  0
    6.1734  -11.9929   26.5446 C   0  0  0  0  0  0  0  0  0  0  0  0
    7.0540  -12.4162   27.6967 C   0  0  0  0  0  0  0  0  0  0  0  0
    8.1860  -13.1468   26.9540 C   0  0  1  0  0  0  0  0  0  0  0  0
    8.7361  -14.1928   27.8163 C   0  0  0  0  0  0  0  0  0  0  0  0
    9.5126  -13.8899   28.7463 O   0  0  0  0  0  0  0  0  0  0  0  0
    8.4134  -15.5158   27.6256 O   0  0  0  0  0  0  0  0  0  0  0  0
  2  1  1  6
  2  3  1  0
  4  5  2  0
  4  2  1  0
  6  7  1  0
  8  7  1  1
  8  9  1  0
  9  4  1  0
 10 12  1  0
 10  8  1  0
 11 10  2  0
 12 16  1  0
 13 12  1  0
 13 14  1  0
 14 15  1  0
 16 15  1  0
 16 17  1  1
 17 19  1  0
 18 17  2  0
M  END
$$$$
