ASP.pdb
     RDKit          3D

 19 19  0  0  1  0  0  0  0  0999 V2000
   10.2800  -13.0687   19.9932 C   0  0  0  0  0  0  0  0  0  0  0  0
    8.9608  -13.7233   19.6590 C   0  0  2  0  0  0  0  0  0  0  0  0
    8.3528  -13.0896   18.5225 N   0  0  0  0  0  0  0  0  0  0  0  0
    8.0844  -13.7156   20.8584 C   0  0  0  0  0  0  0  0  0  0  0  0
    7.2869  -12.7621   20.9898 O   0  0  0  0  0  0  0  0  0  0  0  0
    7.4597  -17.1276   23.4390 O   0  0  0  0  0  0  0  0  0  0  0  0
    6.5830  -16.1233   23.1210 C   0  0  0  0  0  0  0  0  0  0  0  0
    7.2175  -14.7589   23.0075 C   0  0  2  0  0  0  0  0  0  0  0  0
    8.1039  -14.7141   21.8443 N   0  0  0  0  0  0  0  0  0  0  0  0
    7.9239  -14.2909   24.2006 C   0  0  0  0  0  0  0  0  0  0  0  0
    9.1951  -14.5065   24.1938 O   0  0  0  0  0  0  0  0  0  0  0  0
    7.4074  -13.6480   25.3329 N   0  0  0  0  0  0  0  0  0  0  0  0
    5.9702  -13.2678   25.4037 C   0  0  0  0  0  0  0  0  0  0  0  0
    6.0445  -11.9723   26.1914 C   0  0  0  0  0  0  0  0  0  0  0  0
    6.8955  -12.4702   27.3358 C   0  0  0  0  0  0  0  0  0  0  0  0
    8.0078  -13.2155   26.5780 C   0  0  1  0  0  0  0  0  0  0  0  0
    8.5085  -14.3122   27.4066 C   0  0  0  0  0  0  0  0  0  0  0  0
    9.2982  -14.0750   28.3446 O   0  0  0  0  0  0  0  0  0  0  0  0
    8.1247  -15.6123   27.1752 O   0  0  0  0  0  0  0  0  0  0  0  0
  2  1  1  1
  2  3  1  0
  4  5  2  0
  4  2  1  0
  6  7  1  0
  8  7  1  1
  8  9  1  0
  9  4  1  0
 10 12  1  0
 10  8  1  0
 11 10  2  0
 12 16  1  0
 13 12  1  0
 13 14  1  0
 14 15  1  0
 16 15  1  0
 16 17  1  1
 17 19  1  0
 18 17  2  0
M  END
$$$$
