ASP.pdb
     RDKit          3D

 19 19  0  0  1  0  0  0  0  0999 V2000
    8.8370  -12.3915   19.5680 C   0  0  0  0  0  0  0  0  0  0  0  0
    8.5327  -13.8697   19.6220 C   0  0  2  0  0  0  0  0  0  0  0  0
    7.9570  -14.3154   18.3840 N   0  0  0  0  0  0  0  0  0  0  0  0
    7.6666  -14.1561   20.7945 C   0  0  0  0  0  0  0  0  0  0  0  0
    6.4398  -14.2855   20.5935 O   0  0  0  0  0  0  0  0  0  0  0  0
    8.0385  -16.9679   23.3836 O   0  0  0  0  0  0  0  0  0  0  0  0
    6.9769  -16.1208   23.1997 C   0  0  0  0  0  0  0  0  0  0  0  0
    7.3338  -14.6560   23.2639 C   0  0  2  0  0  0  0  0  0  0  0  0
    8.1488  -14.2880   22.1058 N   0  0  0  0  0  0  0  0  0  0  0  0
    7.9841  -14.2190   24.4999 C   0  0  0  0  0  0  0  0  0  0  0  0
    9.2563  -14.4243   24.5414 O   0  0  0  0  0  0  0  0  0  0  0  0
    7.4137  -13.6151   25.6277 N   0  0  0  0  0  0  0  0  0  0  0  0
    5.9703  -13.2528   25.6497 C   0  0  0  0  0  0  0  0  0  0  0  0
    5.9964  -11.9800   26.4766 C   0  0  0  0  0  0  0  0  0  0  0  0
    6.8055  -12.5018   27.6406 C   0  0  0  0  0  0  0  0  0  0  0  0
    7.9570  -13.2125   26.9086 C   0  0  1  0  0  0  0  0  0  0  0  0
    8.4364  -14.3274   27.7254 C   0  0  0  0  0  0  0  0  0  0  0  0
    8.0515  -15.4901   27.4813 O   0  0  0  0  0  0  0  0  0  0  0  0
    9.3116  -14.1230   28.7662 O   0  0  0  0  0  0  0  0  0  0  0  0
  2  1  1  6
  2  3  1  0
  4  5  2  0
  4  2  1  0
  6  7  1  0
  8  7  1  1
  8  9  1  0
  9  4  1  0
 10 12  1  0
 10  8  1  0
 11 10  2  0
 12 16  1  0
 13 12  1  0
 13 14  1  0
 14 15  1  0
 16 15  1  0
 16 17  1  1
 17 19  1  0
 18 17  2  0
M  END
$$$$
