ASP.pdb
     RDKit          3D

 19 19  0  0  1  0  0  0  0  0999 V2000
    9.5079  -12.4419   19.9755 C   0  0  0  0  0  0  0  0  0  0  0  0
    8.6248  -13.6541   19.7990 C   0  0  2  0  0  0  0  0  0  0  0  0
    7.8050  -13.5191   18.6274 N   0  0  0  0  0  0  0  0  0  0  0  0
    7.8298  -13.8737   21.0344 C   0  0  0  0  0  0  0  0  0  0  0  0
    6.7827  -13.2065   21.1785 O   0  0  0  0  0  0  0  0  0  0  0  0
    6.2148  -16.9759   22.4923 O   0  0  0  0  0  0  0  0  0  0  0  0
    7.1216  -16.4974   23.4019 C   0  0  0  0  0  0  0  0  0  0  0  0
    7.4215  -15.0251   23.2630 C   0  0  2  0  0  0  0  0  0  0  0  0
    8.1889  -14.7835   22.0408 N   0  0  0  0  0  0  0  0  0  0  0  0
    8.0879  -14.4065   24.4097 C   0  0  0  0  0  0  0  0  0  0  0  0
    9.3725  -14.5173   24.4109 O   0  0  0  0  0  0  0  0  0  0  0  0
    7.5211  -13.7190   25.4905 N   0  0  0  0  0  0  0  0  0  0  0  0
    6.1178  -13.2270   25.4288 C   0  0  0  0  0  0  0  0  0  0  0  0
    6.2205  -11.9371   26.2225 C   0  0  0  0  0  0  0  0  0  0  0  0
    6.9204  -12.4940   27.4397 C   0  0  0  0  0  0  0  0  0  0  0  0
    8.0360  -13.3282   26.7867 C   0  0  1  0  0  0  0  0  0  0  0  0
    8.3704  -14.4563   27.6559 C   0  0  0  0  0  0  0  0  0  0  0  0
    7.8429  -15.5715   27.4611 O   0  0  0  0  0  0  0  0  0  0  0  0
    9.2628  -14.3165   28.6928 O   0  0  0  0  0  0  0  0  0  0  0  0
  2  1  1  1
  2  3  1  0
  4  5  2  0
  4  2  1  0
  6  7  1  0
  8  7  1  1
  8  9  1  0
  9  4  1  0
 10 12  1  0
 10  8  1  0
 11 10  2  0
 12 16  1  0
 13 12  1  0
 13 14  1  0
 14 15  1  0
 16 15  1  0
 16 17  1  1
 17 19  1  0
 18 17  2  0
M  END
$$$$
