ASP.pdb
     RDKit          3D

 19 19  0  0  1  0  0  0  0  0999 V2000
    9.5590  -12.6476   19.8180 C   0  0  0  0  0  0  0  0  0  0  0  0
    8.6161  -13.8139   19.6414 C   0  0  2  0  0  0  0  0  0  0  0  0
    7.8438  -13.6653   18.4397 N   0  0  0  0  0  0  0  0  0  0  0  0
    7.7702  -13.9569   20.8541 C   0  0  0  0  0  0  0  0  0  0  0  0
    6.6599  -13.3827   20.8598 O   0  0  0  0  0  0  0  0  0  0  0  0
    7.8575  -17.2363   23.3976 O   0  0  0  0  0  0  0  0  0  0  0  0
    6.8492  -16.3193   23.2535 C   0  0  0  0  0  0  0  0  0  0  0  0
    7.3192  -14.8875   23.1756 C   0  0  2  0  0  0  0  0  0  0  0  0
    8.1482  -14.6966   21.9852 N   0  0  0  0  0  0  0  0  0  0  0  0
    8.0143  -14.3867   24.3621 C   0  0  0  0  0  0  0  0  0  0  0  0
    9.2851  -14.6041   24.3743 O   0  0  0  0  0  0  0  0  0  0  0  0
    7.4874  -13.7112   25.4703 N   0  0  0  0  0  0  0  0  0  0  0  0
    6.0684  -13.2624   25.4848 C   0  0  0  0  0  0  0  0  0  0  0  0
    6.1753  -11.9658   26.2670 C   0  0  0  0  0  0  0  0  0  0  0  0
    6.9583  -12.4948   27.4455 C   0  0  0  0  0  0  0  0  0  0  0  0
    8.0610  -13.2981   26.7345 C   0  0  1  0  0  0  0  0  0  0  0  0
    8.4774  -14.4110   27.5878 C   0  0  0  0  0  0  0  0  0  0  0  0
    9.2297  -14.2020   28.5626 O   0  0  0  0  0  0  0  0  0  0  0  0
    8.0542  -15.6957   27.3399 O   0  0  0  0  0  0  0  0  0  0  0  0
  2  1  1  1
  2  3  1  0
  4  5  2  0
  4  2  1  0
  6  7  1  0
  8  7  1  1
  8  9  1  0
  9  4  1  0
 10 12  1  0
 10  8  1  0
 11 10  2  0
 12 16  1  0
 13 12  1  0
 13 14  1  0
 14 15  1  0
 16 15  1  0
 16 17  1  1
 17 19  1  0
 18 17  2  0
M  END
$$$$
