FNQ.pdb
     RDKit          3D

 29 29  0  0  1  0  0  0  0  0999 V2000
    7.4632  -16.8819   21.4553 N   0  0  0  0  0  0  0  0  0  0  0  0
    7.8633  -16.0982   22.6155 C   0  0  1  0  0  0  0  0  0  0  0  0
    7.0948  -14.8018   22.6248 C   0  0  0  0  0  0  0  0  0  0  0  0
    7.4158  -13.8929   21.5257 C   0  0  0  0  0  0  0  0  0  0  0  0
    8.2326  -12.8103   21.7213 C   0  0  0  0  0  0  0  0  0  0  0  0
    8.5162  -11.9748   20.6615 C   0  0  0  0  0  0  0  0  0  0  0  0
    7.9813  -12.2200   19.3951 C   0  0  0  0  0  0  0  0  0  0  0  0
    7.1583  -13.3145   19.2074 C   0  0  0  0  0  0  0  0  0  0  0  0
    6.8749  -14.1482   20.2635 C   0  0  0  0  0  0  0  0  0  0  0  0
    7.6770  -16.8968   23.8504 C   0  0  0  0  0  0  0  0  0  0  0  0
    6.6681  -17.6084   23.9691 O   0  0  0  0  0  0  0  0  0  0  0  0
    8.5887  -21.0569   23.1134 N   0  0  0  0  0  0  0  0  0  0  0  0
    8.5141  -20.0844   24.1045 C   0  0  0  0  0  0  0  0  0  0  0  0
    7.4314  -20.0080   24.7751 O   0  0  0  0  0  0  0  0  0  0  0  0
    9.5611  -19.1175   24.4726 C   0  0  0  0  0  0  0  0  0  0  0  0
    9.1236  -18.0960   25.4775 C   0  0  2  0  0  0  0  0  0  0  0  0
    8.6020  -16.8939   24.9227 N   0  0  0  0  0  0  0  0  0  0  0  0
   10.1938  -17.8090   26.4842 C   0  0  0  0  0  0  0  0  0  0  0  0
   10.5838  -18.7244   27.2427 O   0  0  0  0  0  0  0  0  0  0  0  0
    8.0057  -14.1893   25.6717 N   0  0  0  0  0  0  0  0  0  0  0  0
    8.1245  -13.4661   26.8860 C   0  0  0  0  0  0  0  0  0  0  0  0
    7.7877  -12.2470   26.9173 O   0  0  0  0  0  0  0  0  0  0  0  0
    8.6308  -14.1496   28.0895 C   0  0  0  0  0  0  0  0  0  0  0  0
    9.0759  -15.5447   27.9369 C   0  0  0  0  0  0  0  0  0  0  0  0
   10.5460  -15.7803   27.8531 C   0  0  2  0  0  0  0  0  0  0  0  0
   10.7862  -16.5365   26.6139 N   0  0  0  0  0  0  0  0  0  0  0  0
   11.1295  -16.4297   28.9981 C   0  0  0  0  0  0  0  0  0  0  0  0
   11.7863  -15.6502   29.9561 O   0  0  0  0  0  0  0  0  0  0  0  0
   11.1020  -17.6658   29.2214 O   0  0  0  0  0  0  0  0  0  0  0  0
  2  1  1  6
  2  3  1  0
  3  4  1  0
  4  5  2  0
  4  9  1  0
  5  6  1  0
  6  7  2  0
  8  7  1  0
  9  8  2  0
 10  2  1  0
 11 10  2  0
 13 12  1  0
 14 13  2  0
 15 13  1  0
 16 15  1  6
 16 17  1  0
 17 10  1  0
 18 16  1  0
 18 26  1  0
 19 18  2  0
 21 22  2  0
 21 20  1  0
 23 21  1  0
 24 23  1  0
 25 24  1  1
 25 26  1  0
 27 28  1  0
 27 25  1  0
 29 27  2  0
M  END
$$$$
