FNQ.pdb
     RDKit          3D

 29 29  0  0  1  0  0  0  0  0999 V2000
    6.1161  -16.5944   25.2509 N   0  0  0  0  0  0  0  0  0  0  0  0
    7.1650  -15.7366   24.7177 C   0  0  1  0  0  0  0  0  0  0  0  0
    7.6763  -14.8405   25.8163 C   0  0  0  0  0  0  0  0  0  0  0  0
    6.9822  -13.5591   25.9327 C   0  0  0  0  0  0  0  0  0  0  0  0
    7.4618  -12.4378   25.3081 C   0  0  0  0  0  0  0  0  0  0  0  0
    6.7804  -11.2459   25.4375 C   0  0  0  0  0  0  0  0  0  0  0  0
    5.6105  -11.1702   26.1963 C   0  0  0  0  0  0  0  0  0  0  0  0
    5.1345  -12.3065   26.8228 C   0  0  0  0  0  0  0  0  0  0  0  0
    5.8131  -13.4956   26.6943 C   0  0  0  0  0  0  0  0  0  0  0  0
    8.2264  -16.5656   24.0984 C   0  0  0  0  0  0  0  0  0  0  0  0
    8.4517  -17.7003   24.5456 O   0  0  0  0  0  0  0  0  0  0  0  0
   11.9926  -17.3909   19.2117 N   0  0  0  0  0  0  0  0  0  0  0  0
   11.2090  -17.6319   20.3349 C   0  0  0  0  0  0  0  0  0  0  0  0
   11.3279  -18.7677   20.9040 O   0  0  0  0  0  0  0  0  0  0  0  0
   10.2420  -16.7088   20.9509 C   0  0  0  0  0  0  0  0  0  0  0  0
   10.0102  -16.9515   22.4110 C   0  0  2  0  0  0  0  0  0  0  0  0
    9.0129  -16.1284   23.0049 N   0  0  0  0  0  0  0  0  0  0  0  0
   11.2857  -16.9083   23.1936 C   0  0  0  0  0  0  0  0  0  0  0  0
   11.9418  -15.8440   23.2391 O   0  0  0  0  0  0  0  0  0  0  0  0
   12.0801  -17.2915   29.4461 N   0  0  0  0  0  0  0  0  0  0  0  0
   11.1307  -16.9143   28.4622 C   0  0  0  0  0  0  0  0  0  0  0  0
   10.3315  -15.9637   28.7037 O   0  0  0  0  0  0  0  0  0  0  0  0
   11.0977  -17.6314   27.1751 C   0  0  0  0  0  0  0  0  0  0  0  0
   11.7054  -16.9618   26.0132 C   0  0  0  0  0  0  0  0  0  0  0  0
   12.5563  -17.7984   25.1190 C   0  0  2  0  0  0  0  0  0  0  0  0
   11.7828  -18.0294   23.8887 N   0  0  0  0  0  0  0  0  0  0  0  0
   13.0254  -19.0314   25.6958 C   0  0  0  0  0  0  0  0  0  0  0  0
   12.5766  -20.2429   25.1593 O   0  0  0  0  0  0  0  0  0  0  0  0
   13.8223  -19.1212   26.6630 O   0  0  0  0  0  0  0  0  0  0  0  0
  2  1  1  1
  2  3  1  0
  3  4  1  0
  4  5  2  0
  4  9  1  0
  5  6  1  0
  6  7  2  0
  8  7  1  0
  9  8  2  0
 10  2  1  0
 11 10  2  0
 13 12  1  0
 14 13  2  0
 15 13  1  0
 16 15  1  6
 16 17  1  0
 17 10  1  0
 18 16  1  0
 18 26  1  0
 19 18  2  0
 21 22  2  0
 21 20  1  0
 23 21  1  0
 24 23  1  0
 25 24  1  1
 25 26  1  0
 27 28  1  0
 27 25  1  0
 29 27  2  0
M  END
$$$$
