FNQ.pdb
     RDKit          3D

 29 29  0  0  1  0  0  0  0  0999 V2000
    6.2232  -17.2367   24.8986 N   0  0  0  0  0  0  0  0  0  0  0  0
    7.2158  -16.2203   24.5794 C   0  0  1  0  0  0  0  0  0  0  0  0
    7.7035  -15.5876   25.8574 C   0  0  0  0  0  0  0  0  0  0  0  0
    7.2932  -14.1972   26.0465 C   0  0  0  0  0  0  0  0  0  0  0  0
    6.1985  -13.8822   26.8081 C   0  0  0  0  0  0  0  0  0  0  0  0
    5.8412  -12.5598   26.9671 C   0  0  0  0  0  0  0  0  0  0  0  0
    6.5810  -11.5418   26.3618 C   0  0  0  0  0  0  0  0  0  0  0  0
    7.6836  -11.8693   25.5954 C   0  0  0  0  0  0  0  0  0  0  0  0
    8.0409  -13.1875   25.4362 C   0  0  0  0  0  0  0  0  0  0  0  0
    8.3050  -16.8174   23.7704 C   0  0  0  0  0  0  0  0  0  0  0  0
    8.5196  -18.0369   23.8435 O   0  0  0  0  0  0  0  0  0  0  0  0
   10.9068  -17.8337   19.0136 N   0  0  0  0  0  0  0  0  0  0  0  0
   11.1119  -16.6740   19.7531 C   0  0  0  0  0  0  0  0  0  0  0  0
   12.2454  -16.0983   19.6444 O   0  0  0  0  0  0  0  0  0  0  0  0
   10.1526  -16.0257   20.6619 C   0  0  0  0  0  0  0  0  0  0  0  0
   10.0527  -16.6741   22.0088 C   0  0  2  0  0  0  0  0  0  0  0  0
    9.1302  -16.0616   22.9025 N   0  0  0  0  0  0  0  0  0  0  0  0
   11.3959  -16.8436   22.6480 C   0  0  0  0  0  0  0  0  0  0  0  0
   12.2288  -17.6193   22.1286 O   0  0  0  0  0  0  0  0  0  0  0  0
    9.7874  -18.5078   27.7733 N   0  0  0  0  0  0  0  0  0  0  0  0
   11.1894  -18.7205   27.7461 C   0  0  0  0  0  0  0  0  0  0  0  0
   11.8240  -18.8131   28.8367 O   0  0  0  0  0  0  0  0  0  0  0  0
   11.8793  -18.8367   26.4490 C   0  0  0  0  0  0  0  0  0  0  0  0
   11.4415  -17.9377   25.3683 C   0  0  0  0  0  0  0  0  0  0  0  0
   12.4234  -16.9199   24.8956 C   0  0  2  0  0  0  0  0  0  0  0  0
   11.7643  -16.1579   23.8232 N   0  0  0  0  0  0  0  0  0  0  0  0
   13.6965  -17.4446   24.4747 C   0  0  0  0  0  0  0  0  0  0  0  0
   13.7272  -18.4299   23.4822 O   0  0  0  0  0  0  0  0  0  0  0  0
   14.8123  -17.0888   24.9296 O   0  0  0  0  0  0  0  0  0  0  0  0
  2  1  1  1
  2  3  1  0
  3  4  1  0
  4  5  2  0
  4  9  1  0
  5  6  1  0
  6  7  2  0
  8  7  1  0
  9  8  2  0
 10  2  1  0
 11 10  2  0
 13 12  1  0
 14 13  2  0
 15 13  1  0
 16 15  1  6
 16 17  1  0
 17 10  1  0
 18 16  1  0
 18 26  1  0
 19 18  2  0
 21 22  2  0
 21 20  1  0
 23 21  1  0
 24 23  1  0
 25 24  1  6
 25 26  1  0
 27 28  1  0
 27 25  1  0
 29 27  2  0
M  END
$$$$
