FNQ.pdb
     RDKit          3D

 29 29  0  0  1  0  0  0  0  0999 V2000
    6.1923  -16.3061   25.3617 N   0  0  0  0  0  0  0  0  0  0  0  0
    7.0689  -16.1113   24.2155 C   0  0  1  0  0  0  0  0  0  0  0  0
    7.0144  -14.6659   23.7919 C   0  0  0  0  0  0  0  0  0  0  0  0
    6.9991  -13.7060   24.8944 C   0  0  0  0  0  0  0  0  0  0  0  0
    5.8285  -13.3740   25.5245 C   0  0  0  0  0  0  0  0  0  0  0  0
    5.8511  -12.4663   26.5624 C   0  0  0  0  0  0  0  0  0  0  0  0
    7.0508  -11.8839   26.9765 C   0  0  0  0  0  0  0  0  0  0  0  0
    8.2266  -12.2248   26.3349 C   0  0  0  0  0  0  0  0  0  0  0  0
    8.2052  -13.1298   25.2998 C   0  0  0  0  0  0  0  0  0  0  0  0
    8.4386  -16.5721   24.5456 C   0  0  0  0  0  0  0  0  0  0  0  0
    9.0317  -16.0744   25.5145 O   0  0  0  0  0  0  0  0  0  0  0  0
   11.7021  -16.7313   20.0652 N   0  0  0  0  0  0  0  0  0  0  0  0
   11.0589  -15.9387   21.0096 C   0  0  0  0  0  0  0  0  0  0  0  0
   11.5111  -14.7604   21.1966 O   0  0  0  0  0  0  0  0  0  0  0  0
    9.8961  -16.3128   21.8309 C   0  0  0  0  0  0  0  0  0  0  0  0
   10.2161  -17.2574   22.9489 C   0  0  2  0  0  0  0  0  0  0  0  0
    9.1218  -17.5668   23.8044 N   0  0  0  0  0  0  0  0  0  0  0  0
   11.4089  -16.8091   23.7347 C   0  0  0  0  0  0  0  0  0  0  0  0
   12.5255  -16.7482   23.1736 O   0  0  0  0  0  0  0  0  0  0  0  0
   12.0870  -17.2339   29.8752 N   0  0  0  0  0  0  0  0  0  0  0  0
   11.2283  -16.2176   29.3837 C   0  0  0  0  0  0  0  0  0  0  0  0
   10.3818  -15.6907   30.1625 O   0  0  0  0  0  0  0  0  0  0  0  0
   11.3429  -15.7897   27.9782 C   0  0  0  0  0  0  0  0  0  0  0  0
   12.4501  -16.3539   27.1886 C   0  0  0  0  0  0  0  0  0  0  0  0
   12.5377  -15.9443   25.7574 C   0  0  2  0  0  0  0  0  0  0  0  0
   11.3246  -16.4490   25.0949 N   0  0  0  0  0  0  0  0  0  0  0  0
   13.7340  -16.3599   25.0724 C   0  0  0  0  0  0  0  0  0  0  0  0
   13.9291  -17.7215   24.8177 O   0  0  0  0  0  0  0  0  0  0  0  0
   14.6431  -15.5908   24.6717 O   0  0  0  0  0  0  0  0  0  0  0  0
  2  1  1  1
  2  3  1  0
  3  4  1  0
  4  5  2  0
  4  9  1  0
  5  6  1  0
  6  7  2  0
  8  7  1  0
  9  8  2  0
 10  2  1  0
 11 10  2  0
 13 12  1  0
 14 13  2  0
 15 13  1  0
 16 15  1  6
 16 17  1  0
 17 10  1  0
 18 16  1  0
 18 26  1  0
 19 18  2  0
 21 22  2  0
 21 20  1  0
 23 21  1  0
 24 23  1  0
 25 24  1  1
 25 26  1  0
 27 28  1  0
 27 25  1  0
 29 27  2  0
M  END
$$$$
