FNQ.pdb
     RDKit          3D

 29 29  0  0  1  0  0  0  0  0999 V2000
    6.1823  -16.4264   25.6286 N   0  0  0  0  0  0  0  0  0  0  0  0
    6.5432  -16.2019   24.2359 C   0  0  1  0  0  0  0  0  0  0  0  0
    6.2162  -14.7784   23.8642 C   0  0  0  0  0  0  0  0  0  0  0  0
    6.7123  -13.7723   24.8017 C   0  0  0  0  0  0  0  0  0  0  0  0
    5.9013  -13.2583   25.7791 C   0  0  0  0  0  0  0  0  0  0  0  0
    6.4028  -12.3121   26.6480 C   0  0  0  0  0  0  0  0  0  0  0  0
    7.7245  -11.8739   26.5422 C   0  0  0  0  0  0  0  0  0  0  0  0
    8.5351  -12.3982   25.5530 C   0  0  0  0  0  0  0  0  0  0  0  0
    8.0360  -13.3417   24.6861 C   0  0  0  0  0  0  0  0  0  0  0  0
    7.9687  -16.5485   24.0236 C   0  0  0  0  0  0  0  0  0  0  0  0
    8.5749  -17.1930   24.8929 O   0  0  0  0  0  0  0  0  0  0  0  0
   12.3337  -17.8967   20.7268 N   0  0  0  0  0  0  0  0  0  0  0  0
   12.0059  -16.6037   21.1197 C   0  0  0  0  0  0  0  0  0  0  0  0
   12.9628  -15.7740   21.2741 O   0  0  0  0  0  0  0  0  0  0  0  0
   10.6569  -16.0763   21.3816 C   0  0  0  0  0  0  0  0  0  0  0  0
   10.0451  -16.5692   22.6573 C   0  0  2  0  0  0  0  0  0  0  0  0
    8.6922  -16.1792   22.8635 N   0  0  0  0  0  0  0  0  0  0  0  0
   10.8920  -16.2392   23.8468 C   0  0  0  0  0  0  0  0  0  0  0  0
   10.3774  -16.2464   24.9872 O   0  0  0  0  0  0  0  0  0  0  0  0
   10.5446  -17.0395   28.2610 N   0  0  0  0  0  0  0  0  0  0  0  0
   11.8523  -16.5721   28.5494 C   0  0  0  0  0  0  0  0  0  0  0  0
   12.2560  -16.5594   29.7484 O   0  0  0  0  0  0  0  0  0  0  0  0
   12.7183  -16.1169   27.4472 C   0  0  0  0  0  0  0  0  0  0  0  0
   12.1181  -16.0386   26.1050 C   0  0  0  0  0  0  0  0  0  0  0  0
   13.0366  -15.7363   24.9699 C   0  0  2  0  0  0  0  0  0  0  0  0
   12.2597  -15.9172   23.7335 N   0  0  0  0  0  0  0  0  0  0  0  0
   14.2588  -16.4972   24.9502 C   0  0  0  0  0  0  0  0  0  0  0  0
   14.2079  -17.8497   24.5967 O   0  0  0  0  0  0  0  0  0  0  0  0
   15.3975  -16.0452   25.2291 O   0  0  0  0  0  0  0  0  0  0  0  0
  2  1  1  1
  2  3  1  0
  3  4  1  0
  4  5  2  0
  4  9  1  0
  5  6  1  0
  6  7  2  0
  8  7  1  0
  9  8  2  0
 10  2  1  0
 11 10  2  0
 13 12  1  0
 14 13  2  0
 15 13  1  0
 16 15  1  6
 16 17  1  0
 17 10  1  0
 18 16  1  0
 18 26  1  0
 19 18  2  0
 21 22  2  0
 21 20  1  0
 23 21  1  0
 24 23  1  0
 25 24  1  1
 25 26  1  0
 27 28  1  0
 27 25  1  0
 29 27  2  0
M  END
$$$$
