FNQ.pdb
     RDKit          3D

 29 29  0  0  1  0  0  0  0  0999 V2000
    8.8787  -15.4760   24.1461 N   0  0  0  0  0  0  0  0  0  0  0  0
    7.9552  -15.8127   25.2205 C   0  0  1  0  0  0  0  0  0  0  0  0
    6.6977  -14.9968   25.0647 C   0  0  0  0  0  0  0  0  0  0  0  0
    6.7962  -13.6224   25.5533 C   0  0  0  0  0  0  0  0  0  0  0  0
    7.4520  -12.6617   24.8292 C   0  0  0  0  0  0  0  0  0  0  0  0
    7.5239  -11.3746   25.3192 C   0  0  0  0  0  0  0  0  0  0  0  0
    6.9371  -11.0416   26.5418 C   0  0  0  0  0  0  0  0  0  0  0  0
    6.2777  -12.0174   27.2652 C   0  0  0  0  0  0  0  0  0  0  0  0
    6.2055  -13.3011   26.7776 C   0  0  0  0  0  0  0  0  0  0  0  0
    7.7062  -17.2739   25.2303 C   0  0  0  0  0  0  0  0  0  0  0  0
    6.9206  -17.7522   26.0624 O   0  0  0  0  0  0  0  0  0  0  0  0
    8.2497  -19.1014   20.9634 N   0  0  0  0  0  0  0  0  0  0  0  0
    7.6190  -19.6765   22.0612 C   0  0  0  0  0  0  0  0  0  0  0  0
    6.3454  -19.6161   22.1080 O   0  0  0  0  0  0  0  0  0  0  0  0
    8.2665  -20.3581   23.1938 C   0  0  0  0  0  0  0  0  0  0  0  0
    8.2279  -19.5841   24.4760 C   0  0  2  0  0  0  0  0  0  0  0  0
    8.3252  -18.1722   24.3274 N   0  0  0  0  0  0  0  0  0  0  0  0
    9.2267  -20.0953   25.4671 C   0  0  0  0  0  0  0  0  0  0  0  0
    9.2488  -21.3156   25.7420 O   0  0  0  0  0  0  0  0  0  0  0  0
   15.0254  -18.7742   25.8131 N   0  0  0  0  0  0  0  0  0  0  0  0
   14.1649  -19.4579   24.9166 C   0  0  0  0  0  0  0  0  0  0  0  0
   14.6036  -19.8112   23.7837 O   0  0  0  0  0  0  0  0  0  0  0  0
   12.7791  -19.7502   25.3239 C   0  0  0  0  0  0  0  0  0  0  0  0
   12.4302  -19.5313   26.7375 C   0  0  0  0  0  0  0  0  0  0  0  0
   11.0264  -19.8301   27.1418 C   0  0  2  0  0  0  0  0  0  0  0  0
   10.1530  -19.2491   26.1099 N   0  0  0  0  0  0  0  0  0  0  0  0
   10.6611  -19.3886   28.4627 C   0  0  0  0  0  0  0  0  0  0  0  0
   11.3494  -19.9084   29.5640 O   0  0  0  0  0  0  0  0  0  0  0  0
    9.7564  -18.5567   28.7236 O   0  0  0  0  0  0  0  0  0  0  0  0
  2  1  1  6
  2  3  1  0
  3  4  1  0
  4  5  2  0
  4  9  1  0
  5  6  1  0
  6  7  2  0
  8  7  1  0
  9  8  2  0
 10  2  1  0
 11 10  2  0
 13 12  1  0
 14 13  2  0
 15 13  1  0
 16 15  1  6
 16 17  1  0
 17 10  1  0
 18 16  1  0
 18 26  1  0
 19 18  2  0
 21 22  2  0
 21 20  1  0
 23 21  1  0
 24 23  1  0
 25 24  1  6
 25 26  1  0
 27 28  1  0
 27 25  1  0
 29 27  2  0
M  END
$$$$
