FNQ.pdb
     RDKit          3D

 29 29  0  0  1  0  0  0  0  0999 V2000
    6.2140  -14.1244   21.5752 N   0  0  0  0  0  0  0  0  0  0  0  0
    7.6512  -14.2713   21.7580 C   0  0  1  0  0  0  0  0  0  0  0  0
    8.1850  -13.0566   22.4727 C   0  0  0  0  0  0  0  0  0  0  0  0
    7.8281  -12.9740   23.8880 C   0  0  0  0  0  0  0  0  0  0  0  0
    6.5586  -12.6356   24.2767 C   0  0  0  0  0  0  0  0  0  0  0  0
    6.2561  -12.5693   25.6205 C   0  0  0  0  0  0  0  0  0  0  0  0
    7.2273  -12.8425   26.5860 C   0  0  0  0  0  0  0  0  0  0  0  0
    8.5052  -13.1830   26.1843 C   0  0  0  0  0  0  0  0  0  0  0  0
    8.8079  -13.2494   24.8446 C   0  0  0  0  0  0  0  0  0  0  0  0
    7.9410  -15.5406   22.4667 C   0  0  0  0  0  0  0  0  0  0  0  0
    7.1131  -16.4633   22.4267 O   0  0  0  0  0  0  0  0  0  0  0  0
   11.7539  -19.5926   21.9090 N   0  0  0  0  0  0  0  0  0  0  0  0
   10.4663  -19.1329   22.1627 C   0  0  0  0  0  0  0  0  0  0  0  0
    9.6050  -19.9842   22.5644 O   0  0  0  0  0  0  0  0  0  0  0  0
    9.9775  -17.7522   22.0174 C   0  0  0  0  0  0  0  0  0  0  0  0
    9.7180  -17.0557   23.3182 C   0  0  2  0  0  0  0  0  0  0  0  0
    9.1312  -15.7646   23.2007 N   0  0  0  0  0  0  0  0  0  0  0  0
   10.9375  -17.0202   24.1857 C   0  0  0  0  0  0  0  0  0  0  0  0
   12.0056  -16.5605   23.7240 O   0  0  0  0  0  0  0  0  0  0  0  0
    9.1807  -15.4897   29.4990 N   0  0  0  0  0  0  0  0  0  0  0  0
   10.4447  -15.0924   28.9930 C   0  0  0  0  0  0  0  0  0  0  0  0
   11.1751  -14.3234   29.6828 O   0  0  0  0  0  0  0  0  0  0  0  0
   10.8866  -15.5883   27.6774 C   0  0  0  0  0  0  0  0  0  0  0  0
   11.7111  -16.8079   27.6575 C   0  0  0  0  0  0  0  0  0  0  0  0
   12.1488  -17.3068   26.3222 C   0  0  2  0  0  0  0  0  0  0  0  0
   10.9317  -17.4883   25.5154 N   0  0  0  0  0  0  0  0  0  0  0  0
   12.9571  -18.4981   26.3470 C   0  0  0  0  0  0  0  0  0  0  0  0
   14.2581  -18.4223   26.8554 O   0  0  0  0  0  0  0  0  0  0  0  0
   12.5908  -19.6300   25.9431 O   0  0  0  0  0  0  0  0  0  0  0  0
  2  1  1  1
  2  3  1  0
  3  4  1  0
  4  5  2  0
  4  9  1  0
  5  6  1  0
  6  7  2  0
  8  7  1  0
  9  8  2  0
 10  2  1  0
 11 10  2  0
 13 12  1  0
 14 13  2  0
 15 13  1  0
 16 15  1  6
 16 17  1  0
 17 10  1  0
 18 16  1  0
 18 26  1  0
 19 18  2  0
 21 22  2  0
 21 20  1  0
 23 21  1  0
 24 23  1  0
 25 24  1  1
 25 26  1  0
 27 28  1  0
 27 25  1  0
 29 27  2  0
M  END
$$$$
