FNQ.pdb
     RDKit          3D

 29 29  0  0  1  0  0  0  0  0999 V2000
    5.8086  -17.4918   24.4583 N   0  0  0  0  0  0  0  0  0  0  0  0
    6.7767  -16.4049   24.4167 C   0  0  1  0  0  0  0  0  0  0  0  0
    6.8490  -15.7556   25.7748 C   0  0  0  0  0  0  0  0  0  0  0  0
    6.8876  -14.2943   25.7525 C   0  0  0  0  0  0  0  0  0  0  0  0
    5.7866  -13.5543   26.0956 C   0  0  0  0  0  0  0  0  0  0  0  0
    5.8589  -12.1775   26.0655 C   0  0  0  0  0  0  0  0  0  0  0  0
    7.0389  -11.5319   25.6901 C   0  0  0  0  0  0  0  0  0  0  0  0
    8.1443  -12.2867   25.3455 C   0  0  0  0  0  0  0  0  0  0  0  0
    8.0732  -13.6596   25.3752 C   0  0  0  0  0  0  0  0  0  0  0  0
    8.0853  -16.9147   23.9424 C   0  0  0  0  0  0  0  0  0  0  0  0
    8.1837  -18.0972   23.5813 O   0  0  0  0  0  0  0  0  0  0  0  0
    9.0981  -17.1579   20.7683 N   0  0  0  0  0  0  0  0  0  0  0  0
   10.1620  -16.2657   20.8431 C   0  0  0  0  0  0  0  0  0  0  0  0
   10.5609  -15.7313   19.7553 O   0  0  0  0  0  0  0  0  0  0  0  0
   10.8915  -15.8620   22.0561 C   0  0  0  0  0  0  0  0  0  0  0  0
   10.4627  -16.5851   23.2962 C   0  0  2  0  0  0  0  0  0  0  0  0
    9.2518  -16.1143   23.8766 N   0  0  0  0  0  0  0  0  0  0  0  0
   11.5608  -16.6518   24.3116 C   0  0  0  0  0  0  0  0  0  0  0  0
   12.6602  -17.1573   23.9939 O   0  0  0  0  0  0  0  0  0  0  0  0
    9.6534  -19.4989   29.1679 N   0  0  0  0  0  0  0  0  0  0  0  0
    9.7911  -20.0392   27.8637 C   0  0  0  0  0  0  0  0  0  0  0  0
    9.6068  -21.2778   27.6829 O   0  0  0  0  0  0  0  0  0  0  0  0
   10.1389  -19.1473   26.7433 C   0  0  0  0  0  0  0  0  0  0  0  0
   10.2902  -17.7138   27.0431 C   0  0  0  0  0  0  0  0  0  0  0  0
   11.6139  -17.0960   26.7434 C   0  0  2  0  0  0  0  0  0  0  0  0
   11.4051  -16.1632   25.6247 N   0  0  0  0  0  0  0  0  0  0  0  0
   12.6782  -18.0271   26.4724 C   0  0  0  0  0  0  0  0  0  0  0  0
   12.7321  -18.6467   25.2194 O   0  0  0  0  0  0  0  0  0  0  0  0
   13.5874  -18.3424   27.2802 O   0  0  0  0  0  0  0  0  0  0  0  0
  2  1  1  1
  2  3  1  0
  3  4  1  0
  4  5  2  0
  4  9  1  0
  5  6  1  0
  6  7  2  0
  8  7  1  0
  9  8  2  0
 10  2  1  0
 11 10  2  0
 13 12  1  0
 14 13  2  0
 15 13  1  0
 16 15  1  6
 16 17  1  0
 17 10  1  0
 18 16  1  0
 18 26  1  0
 19 18  2  0
 21 22  2  0
 21 20  1  0
 23 21  1  0
 24 23  1  0
 25 24  1  6
 25 26  1  0
 27 28  1  0
 27 25  1  0
 29 27  2  0
M  END
$$$$
