FNQ.pdb
     RDKit          3D

 29 29  0  0  1  0  0  0  0  0999 V2000
    6.0995  -17.0226   24.9667 N   0  0  0  0  0  0  0  0  0  0  0  0
    7.0767  -15.9839   24.6727 C   0  0  1  0  0  0  0  0  0  0  0  0
    7.3753  -15.2153   25.9343 C   0  0  0  0  0  0  0  0  0  0  0  0
    6.8363  -13.8567   25.9645 C   0  0  0  0  0  0  0  0  0  0  0  0
    5.4973  -13.6331   26.1505 C   0  0  0  0  0  0  0  0  0  0  0  0
    5.0233  -12.3384   26.1758 C   0  0  0  0  0  0  0  0  0  0  0  0
    5.8911  -11.2563   26.0142 C   0  0  0  0  0  0  0  0  0  0  0  0
    7.2402  -11.4917   25.8271 C   0  0  0  0  0  0  0  0  0  0  0  0
    7.7139  -12.7824   25.8017 C   0  0  0  0  0  0  0  0  0  0  0  0
    8.2825  -16.5873   24.0570 C   0  0  0  0  0  0  0  0  0  0  0  0
    8.4844  -17.8050   24.1794 O   0  0  0  0  0  0  0  0  0  0  0  0
   11.8026  -17.4305   19.7939 N   0  0  0  0  0  0  0  0  0  0  0  0
   11.9082  -16.4013   20.7230 C   0  0  0  0  0  0  0  0  0  0  0  0
   13.0791  -15.9821   21.0078 O   0  0  0  0  0  0  0  0  0  0  0  0
   10.8028  -15.7305   21.4263 C   0  0  0  0  0  0  0  0  0  0  0  0
   10.3254  -16.4559   22.6471 C   0  0  2  0  0  0  0  0  0  0  0  0
    9.2353  -15.8396   23.3231 N   0  0  0  0  0  0  0  0  0  0  0  0
   11.4472  -16.7591   23.5908 C   0  0  0  0  0  0  0  0  0  0  0  0
   12.5660  -16.2313   23.4036 O   0  0  0  0  0  0  0  0  0  0  0  0
   10.7827  -14.0983   28.5048 N   0  0  0  0  0  0  0  0  0  0  0  0
   11.2303  -15.3422   29.0187 C   0  0  0  0  0  0  0  0  0  0  0  0
   11.0029  -15.6311   30.2293 O   0  0  0  0  0  0  0  0  0  0  0  0
   11.9451  -16.2773   28.1318 C   0  0  0  0  0  0  0  0  0  0  0  0
   11.3603  -16.5294   26.8043 C   0  0  0  0  0  0  0  0  0  0  0  0
   12.1383  -17.4001   25.8767 C   0  0  2  0  0  0  0  0  0  0  0  0
   11.2931  -17.6240   24.6932 N   0  0  0  0  0  0  0  0  0  0  0  0
   12.6041  -18.6389   26.4439 C   0  0  0  0  0  0  0  0  0  0  0  0
   12.0938  -19.8435   25.9488 O   0  0  0  0  0  0  0  0  0  0  0  0
   13.4497  -18.7393   27.3677 O   0  0  0  0  0  0  0  0  0  0  0  0
  2  1  1  1
  2  3  1  0
  3  4  1  0
  4  5  2  0
  4  9  1  0
  5  6  1  0
  6  7  2  0
  8  7  1  0
  9  8  2  0
 10  2  1  0
 11 10  2  0
 13 12  1  0
 14 13  2  0
 15 13  1  0
 16 15  1  6
 16 17  1  0
 17 10  1  0
 18 16  1  0
 18 26  1  0
 19 18  2  0
 21 22  2  0
 21 20  1  0
 23 21  1  0
 24 23  1  0
 25 24  1  1
 25 26  1  0
 27 28  1  0
 27 25  1  0
 29 27  2  0
M  END
$$$$
