PPW.pdb
     RDKit          3D

 29 32  0  0  1  0  0  0  0  0999 V2000
   41.0837  -25.7713    4.5518 N   0  0  0  0  0  0  0  0  0  0  0  0
   42.2537  -24.9724    4.2440 C   0  0  0  0  0  0  0  0  0  0  0  0
   42.2707  -23.8270    5.2104 C   0  0  0  0  0  0  0  0  0  0  0  0
   41.3991  -24.2713    6.3527 C   0  0  0  0  0  0  0  0  0  0  0  0
   40.8504  -25.6282    5.9677 C   0  0  1  0  0  0  0  0  0  0  0  0
   39.4088  -25.7808    6.3207 C   0  0  0  0  0  0  0  0  0  0  0  0
   38.6111  -25.8950    5.3494 O   0  0  0  0  0  0  0  0  0  0  0  0
   38.9461  -25.7986    7.6457 N   0  0  0  0  0  0  0  0  0  0  0  0
   39.7410  -25.7375    8.8367 C   0  0  0  0  0  0  0  0  0  0  0  0
   38.8851  -26.4343    9.9010 C   0  0  0  0  0  0  0  0  0  0  0  0
   37.6631  -26.9587    9.1369 C   0  0  0  0  0  0  0  0  0  0  0  0
   37.5700  -25.8821    8.0459 C   0  0  1  0  0  0  0  0  0  0  0  0
   37.1011  -24.6253    8.6887 C   0  0  0  0  0  0  0  0  0  0  0  0
   37.8961  -23.6910    9.0000 O   0  0  0  0  0  0  0  0  0  0  0  0
   35.7500  -24.4292    8.9742 N   0  0  0  0  0  0  0  0  0  0  0  0
   35.0988  -23.1250    8.6727 C   0  0  1  0  0  0  0  0  0  0  0  0
   35.3322  -22.7672    7.2565 C   0  0  0  0  0  0  0  0  0  0  0  0
   34.6610  -21.5553    6.8287 C   0  0  0  0  0  0  0  0  0  0  0  0
   34.6708  -20.2984    7.4278 C   0  0  0  0  0  0  0  0  0  0  0  0
   33.8973  -19.4467    6.7526 N   0  0  0  0  0  0  0  0  0  0  0  0
   33.3503  -20.0829    5.6964 C   0  0  0  0  0  0  0  0  0  0  0  0
   32.5015  -19.6326    4.6959 C   0  0  0  0  0  0  0  0  0  0  0  0
   32.0823  -20.4685    3.6871 C   0  0  0  0  0  0  0  0  0  0  0  0
   32.5492  -21.7605    3.7295 C   0  0  0  0  0  0  0  0  0  0  0  0
   33.3843  -22.2141    4.7103 C   0  0  0  0  0  0  0  0  0  0  0  0
   33.8143  -21.3972    5.7268 C   0  0  0  0  0  0  0  0  0  0  0  0
   33.6952  -23.2752    9.0220 C   0  0  0  0  0  0  0  0  0  0  0  0
   33.0365  -22.4229    9.6662 O   0  0  0  0  0  0  0  0  0  0  0  0
   32.9424  -24.4112    8.6599 O   0  0  0  0  0  0  0  0  0  0  0  0
  2  1  1  0
  3  2  1  0
  4  3  1  0
  4  5  1  0
  5  6  1  6
  5  1  1  0
  6  7  2  0
  8 12  1  0
  8  6  1  0
  9  8  1  0
 10 11  1  0
 10  9  1  0
 11 12  1  0
 12 13  1  1
 13 15  1  0
 13 14  2  0
 15 16  1  0
 16 27  1  0
 16 17  1  6
 18 17  1  0
 19 18  2  0
 20 21  1  0
 20 19  1  0
 21 26  2  0
 22 23  2  0
 22 21  1  0
 23 24  1  0
 24 25  2  0
 26 18  1  0
 26 25  1  0
 27 28  2  0
 27 29  1  0
M  END
$$$$
