PPW.pdb
     RDKit          3D

 29 32  0  0  1  0  0  0  0  0999 V2000
   25.9849  -20.1308  -16.3263 N   0  0  0  0  0  0  0  0  0  0  0  0
   25.9252  -19.9662  -17.7656 C   0  0  0  0  0  0  0  0  0  0  0  0
   26.6428  -21.1339  -18.3718 C   0  0  0  0  0  0  0  0  0  0  0  0
   26.6583  -22.1815  -17.2927 C   0  0  0  0  0  0  0  0  0  0  0  0
   26.0144  -21.5508  -16.0769 C   0  0  1  0  0  0  0  0  0  0  0  0
   26.7322  -21.8874  -14.8130 C   0  0  0  0  0  0  0  0  0  0  0  0
   26.8139  -23.1156  -14.5341 O   0  0  0  0  0  0  0  0  0  0  0  0
   27.2902  -20.9133  -13.9705 N   0  0  0  0  0  0  0  0  0  0  0  0
   27.4150  -19.5110  -14.2391 C   0  0  0  0  0  0  0  0  0  0  0  0
   28.6086  -19.0654  -13.3864 C   0  0  0  0  0  0  0  0  0  0  0  0
   29.1517  -20.3600  -12.7688 C   0  0  0  0  0  0  0  0  0  0  0  0
   27.8429  -21.1567  -12.6682 C   0  0  1  0  0  0  0  0  0  0  0  0
   27.0203  -20.5424  -11.5918 C   0  0  0  0  0  0  0  0  0  0  0  0
   26.2343  -19.5757  -11.8138 O   0  0  0  0  0  0  0  0  0  0  0  0
   27.0867  -21.0173  -10.2820 N   0  0  0  0  0  0  0  0  0  0  0  0
   25.8495  -21.4447   -9.5730 C   0  0  1  0  0  0  0  0  0  0  0  0
   26.1101  -21.5220   -8.1190 C   0  0  0  0  0  0  0  0  0  0  0  0
   26.7889  -20.3634   -7.5719 C   0  0  0  0  0  0  0  0  0  0  0  0
   26.7018  -19.0337   -7.9759 C   0  0  0  0  0  0  0  0  0  0  0  0
   27.5109  -18.2639   -7.2465 N   0  0  0  0  0  0  0  0  0  0  0  0
   28.1584  -19.0283   -6.3432 C   0  0  0  0  0  0  0  0  0  0  0  0
   29.0785  -18.7001   -5.3584 C   0  0  0  0  0  0  0  0  0  0  0  0
   29.5989  -19.6594   -4.5210 C   0  0  0  0  0  0  0  0  0  0  0  0
   29.1579  -20.9464   -4.7164 C   0  0  0  0  0  0  0  0  0  0  0  0
   28.2531  -21.2802   -5.6833 C   0  0  0  0  0  0  0  0  0  0  0  0
   27.7217  -20.3390   -6.5302 C   0  0  0  0  0  0  0  0  0  0  0  0
   24.8147  -20.4910   -9.9394 C   0  0  0  0  0  0  0  0  0  0  0  0
   23.6084  -20.6027   -9.6113 O   0  0  0  0  0  0  0  0  0  0  0  0
   25.0840  -19.3398  -10.7077 O   0  0  0  0  0  0  0  0  0  0  0  0
  2  1  1  0
  3  2  1  0
  4  3  1  0
  4  5  1  0
  5  6  1  1
  5  1  1  0
  6  7  2  0
  8 12  1  0
  8  6  1  0
  9  8  1  0
 10 11  1  0
 10  9  1  0
 11 12  1  0
 12 13  1  1
 13 15  1  0
 13 14  2  0
 15 16  1  0
 16 27  1  0
 16 17  1  1
 18 17  1  0
 19 18  2  0
 20 21  1  0
 20 19  1  0
 21 26  2  0
 22 23  2  0
 22 21  1  0
 23 24  1  0
 24 25  2  0
 26 18  1  0
 26 25  1  0
 27 28  2  0
 27 29  1  0
M  END
$$$$
