PPW.pdb
     RDKit          3D

 29 32  0  0  1  0  0  0  0  0999 V2000
   26.5084  -16.7689  -14.5608 N   0  0  0  0  0  0  0  0  0  0  0  0
   26.4546  -15.4266  -15.1061 C   0  0  0  0  0  0  0  0  0  0  0  0
   26.0719  -15.5534  -16.5495 C   0  0  0  0  0  0  0  0  0  0  0  0
   25.4354  -16.9114  -16.6634 C   0  0  0  0  0  0  0  0  0  0  0  0
   25.5427  -17.5487  -15.2950 C   0  0  1  0  0  0  0  0  0  0  0  0
   25.9182  -18.9909  -15.3662 C   0  0  0  0  0  0  0  0  0  0  0  0
   25.2504  -19.6967  -16.1716 O   0  0  0  0  0  0  0  0  0  0  0  0
   26.9479  -19.5497  -14.5933 N   0  0  0  0  0  0  0  0  0  0  0  0
   27.7807  -18.8690  -13.6460 C   0  0  0  0  0  0  0  0  0  0  0  0
   29.0708  -19.6966  -13.6103 C   0  0  0  0  0  0  0  0  0  0  0  0
   28.8787  -20.7653  -14.6934 C   0  0  0  0  0  0  0  0  0  0  0  0
   27.3535  -20.9266  -14.6172 C   0  0  1  0  0  0  0  0  0  0  0  0
   27.0348  -21.6219  -13.3416 C   0  0  0  0  0  0  0  0  0  0  0  0
   27.4958  -22.7679  -13.0660 O   0  0  0  0  0  0  0  0  0  0  0  0
   26.2057  -21.0270  -12.3907 N   0  0  0  0  0  0  0  0  0  0  0  0
   25.5346  -21.8567  -11.3528 C   0  0  1  0  0  0  0  0  0  0  0  0
   26.3964  -21.9481  -10.1541 C   0  0  0  0  0  0  0  0  0  0  0  0
   26.4884  -20.7192   -9.3902 C   0  0  0  0  0  0  0  0  0  0  0  0
   25.5868  -19.6595   -9.3364 C   0  0  0  0  0  0  0  0  0  0  0  0
   26.0452  -18.6882   -8.5453 N   0  0  0  0  0  0  0  0  0  0  0  0
   27.2456  -19.0490   -8.0466 C   0  0  0  0  0  0  0  0  0  0  0  0
   28.1063  -18.4002   -7.1735 C   0  0  0  0  0  0  0  0  0  0  0  0
   29.2892  -18.9796   -6.7768 C   0  0  0  0  0  0  0  0  0  0  0  0
   29.5634  -20.2243   -7.2911 C   0  0  0  0  0  0  0  0  0  0  0  0
   28.7233  -20.8713   -8.1518 C   0  0  0  0  0  0  0  0  0  0  0  0
   27.5383  -20.3112   -8.5612 C   0  0  0  0  0  0  0  0  0  0  0  0
   24.2406  -21.2406  -11.1065 C   0  0  0  0  0  0  0  0  0  0  0  0
   23.3447  -21.7505  -10.3905 O   0  0  0  0  0  0  0  0  0  0  0  0
   23.8769  -19.9962  -11.6610 O   0  0  0  0  0  0  0  0  0  0  0  0
  2  1  1  0
  3  2  1  0
  4  3  1  0
  4  5  1  0
  5  6  1  6
  5  1  1  0
  6  7  2  0
  8 12  1  0
  8  6  1  0
  9  8  1  0
 10 11  1  0
 10  9  1  0
 11 12  1  0
 12 13  1  1
 13 15  1  0
 13 14  2  0
 15 16  1  0
 16 27  1  0
 16 17  1  1
 18 17  1  0
 19 18  2  0
 20 21  1  0
 20 19  1  0
 21 26  2  0
 22 23  2  0
 22 21  1  0
 23 24  1  0
 24 25  2  0
 26 18  1  0
 26 25  1  0
 27 28  2  0
 27 29  1  0
M  END
$$$$
