PPW.pdb
     RDKit          3D

 29 32  0  0  1  0  0  0  0  0999 V2000
   24.4528  -18.3703  -16.0849 N   0  0  0  0  0  0  0  0  0  0  0  0
   23.7690  -17.1007  -15.9349 C   0  0  0  0  0  0  0  0  0  0  0  0
   24.0826  -16.5920  -14.5606 C   0  0  0  0  0  0  0  0  0  0  0  0
   25.3267  -17.3305  -14.1490 C   0  0  0  0  0  0  0  0  0  0  0  0
   25.6420  -18.2940  -15.2727 C   0  0  1  0  0  0  0  0  0  0  0  0
   26.0705  -19.6325  -14.7718 C   0  0  0  0  0  0  0  0  0  0  0  0
   25.4457  -20.6239  -15.2403 O   0  0  0  0  0  0  0  0  0  0  0  0
   27.1032  -19.8017  -13.8365 N   0  0  0  0  0  0  0  0  0  0  0  0
   27.7835  -18.7715  -13.1083 C   0  0  0  0  0  0  0  0  0  0  0  0
   29.1563  -19.3749  -12.7889 C   0  0  0  0  0  0  0  0  0  0  0  0
   29.1655  -20.7275  -13.5117 C   0  0  0  0  0  0  0  0  0  0  0  0
   27.6682  -21.0599  -13.4385 C   0  0  1  0  0  0  0  0  0  0  0  0
   27.3464  -21.3910  -12.0245 C   0  0  0  0  0  0  0  0  0  0  0  0
   27.8634  -22.3818  -11.4306 O   0  0  0  0  0  0  0  0  0  0  0  0
   26.4518  -20.6099  -11.2930 N   0  0  0  0  0  0  0  0  0  0  0  0
   26.0515  -21.0132   -9.9171 C   0  0  1  0  0  0  0  0  0  0  0  0
   27.2543  -21.1420   -9.0659 C   0  0  0  0  0  0  0  0  0  0  0  0
   27.2983  -20.2159   -7.9510 C   0  0  0  0  0  0  0  0  0  0  0  0
   26.7876  -18.9228   -7.8744 C   0  0  0  0  0  0  0  0  0  0  0  0
   27.0616  -18.3756   -6.6891 N   0  0  0  0  0  0  0  0  0  0  0  0
   27.7509  -19.2598   -5.9388 C   0  0  0  0  0  0  0  0  0  0  0  0
   28.2427  -19.1744   -4.6446 C   0  0  0  0  0  0  0  0  0  0  0  0
   28.9075  -20.2293   -4.0638 C   0  0  0  0  0  0  0  0  0  0  0  0
   29.0531  -21.3588   -4.8331 C   0  0  0  0  0  0  0  0  0  0  0  0
   28.5734  -21.4530   -6.1084 C   0  0  0  0  0  0  0  0  0  0  0  0
   27.9078  -20.4121   -6.7076 C   0  0  0  0  0  0  0  0  0  0  0  0
   25.1027  -20.0129   -9.4545 C   0  0  0  0  0  0  0  0  0  0  0  0
   24.9738  -18.8758   -9.9698 O   0  0  0  0  0  0  0  0  0  0  0  0
   24.2321  -20.2403   -8.3690 O   0  0  0  0  0  0  0  0  0  0  0  0
  2  1  1  0
  3  2  1  0
  4  3  1  0
  4  5  1  0
  5  6  1  1
  5  1  1  0
  6  7  2  0
  8 12  1  0
  8  6  1  0
  9  8  1  0
 10 11  1  0
 10  9  1  0
 11 12  1  0
 12 13  1  1
 13 15  1  0
 13 14  2  0
 15 16  1  0
 16 27  1  0
 16 17  1  1
 18 17  1  0
 19 18  2  0
 20 21  1  0
 20 19  1  0
 21 26  2  0
 22 23  2  0
 22 21  1  0
 23 24  1  0
 24 25  2  0
 26 18  1  0
 26 25  1  0
 27 28  2  0
 27 29  1  0
M  END
$$$$
