PPW.pdb
     RDKit          3D

 29 32  0  0  1  0  0  0  0  0999 V2000
   24.9730  -16.2514  -16.2389 N   0  0  0  0  0  0  0  0  0  0  0  0
   25.2659  -14.8392  -16.3871 C   0  0  0  0  0  0  0  0  0  0  0  0
   26.1021  -14.4377  -15.2101 C   0  0  0  0  0  0  0  0  0  0  0  0
   26.6785  -15.7249  -14.6875 C   0  0  0  0  0  0  0  0  0  0  0  0
   26.0922  -16.8309  -15.5381 C   0  0  1  0  0  0  0  0  0  0  0  0
   25.6977  -18.0220  -14.7309 C   0  0  0  0  0  0  0  0  0  0  0  0
   24.4576  -18.1995  -14.5774 O   0  0  0  0  0  0  0  0  0  0  0  0
   26.6322  -18.9044  -14.1670 N   0  0  0  0  0  0  0  0  0  0  0  0
   28.0600  -18.8234  -14.2619 C   0  0  0  0  0  0  0  0  0  0  0  0
   28.5352  -20.2708  -14.0895 C   0  0  0  0  0  0  0  0  0  0  0  0
   27.2463  -21.0996  -14.0266 C   0  0  0  0  0  0  0  0  0  0  0  0
   26.3145  -20.0633  -13.3817 C   0  0  1  0  0  0  0  0  0  0  0  0
   26.7287  -19.9032  -11.9621 C   0  0  0  0  0  0  0  0  0  0  0  0
   27.5490  -19.0114  -11.5966 O   0  0  0  0  0  0  0  0  0  0  0  0
   26.2200  -20.7412  -10.9699 N   0  0  0  0  0  0  0  0  0  0  0  0
   26.7748  -20.6959   -9.5893 C   0  0  1  0  0  0  0  0  0  0  0  0
   25.8122  -20.0270   -8.6872 C   0  0  0  0  0  0  0  0  0  0  0  0
   26.0772  -20.2289   -7.2761 C   0  0  0  0  0  0  0  0  0  0  0  0
   25.2924  -20.8813   -6.3288 C   0  0  0  0  0  0  0  0  0  0  0  0
   25.8613  -20.8250   -5.1236 N   0  0  0  0  0  0  0  0  0  0  0  0
   27.0251  -20.1486   -5.2114 C   0  0  0  0  0  0  0  0  0  0  0  0
   27.9800  -19.8421   -4.2531 C   0  0  0  0  0  0  0  0  0  0  0  0
   29.1222  -19.1493   -4.5811 C   0  0  0  0  0  0  0  0  0  0  0  0
   29.2587  -18.7838   -5.8989 C   0  0  0  0  0  0  0  0  0  0  0  0
   28.3243  -19.0798   -6.8500 C   0  0  0  0  0  0  0  0  0  0  0  0
   27.1770  -19.7695   -6.5444 C   0  0  0  0  0  0  0  0  0  0  0  0
   27.0751  -22.0703   -9.2210 C   0  0  0  0  0  0  0  0  0  0  0  0
   28.1767  -22.4473   -8.7524 O   0  0  0  0  0  0  0  0  0  0  0  0
   26.1372  -23.1137   -9.3615 O   0  0  0  0  0  0  0  0  0  0  0  0
  2  1  1  0
  3  2  1  0
  4  3  1  0
  4  5  1  0
  5  6  1  1
  5  1  1  0
  6  7  2  0
  8 12  1  0
  8  6  1  0
  9  8  1  0
 10 11  1  0
 10  9  1  0
 11 12  1  0
 12 13  1  1
 13 15  1  0
 13 14  2  0
 15 16  1  0
 16 27  1  0
 16 17  1  1
 18 17  1  0
 19 18  2  0
 20 21  1  0
 20 19  1  0
 21 26  2  0
 22 23  2  0
 22 21  1  0
 23 24  1  0
 24 25  2  0
 26 18  1  0
 26 25  1  0
 27 28  2  0
 27 29  1  0
M  END
$$$$
