PPW.pdb
     RDKit          3D

 29 32  0  0  1  0  0  0  0  0999 V2000
   24.5059  -18.6111  -15.7861 N   0  0  0  0  0  0  0  0  0  0  0  0
   23.7402  -17.3890  -15.6370 C   0  0  0  0  0  0  0  0  0  0  0  0
   23.9204  -16.9269  -14.2228 C   0  0  0  0  0  0  0  0  0  0  0  0
   25.1711  -17.6140  -13.7475 C   0  0  0  0  0  0  0  0  0  0  0  0
   25.6247  -18.5068  -14.8823 C   0  0  1  0  0  0  0  0  0  0  0  0
   26.0918  -19.8411  -14.4055 C   0  0  0  0  0  0  0  0  0  0  0  0
   25.5051  -20.8419  -14.9025 O   0  0  0  0  0  0  0  0  0  0  0  0
   27.1193  -19.9969  -13.4621 N   0  0  0  0  0  0  0  0  0  0  0  0
   27.7304  -18.9662  -12.6758 C   0  0  0  0  0  0  0  0  0  0  0  0
   29.1303  -19.5070  -12.3620 C   0  0  0  0  0  0  0  0  0  0  0  0
   29.2255  -20.8214  -13.1467 C   0  0  0  0  0  0  0  0  0  0  0  0
   27.7483  -21.2393  -13.1136 C   0  0  1  0  0  0  0  0  0  0  0  0
   27.4260  -21.6542  -11.7221 C   0  0  0  0  0  0  0  0  0  0  0  0
   28.0019  -22.6312  -11.1603 O   0  0  0  0  0  0  0  0  0  0  0  0
   26.4650  -20.9712  -10.9767 N   0  0  0  0  0  0  0  0  0  0  0  0
   26.1371  -21.4073   -9.5917 C   0  0  1  0  0  0  0  0  0  0  0  0
   27.3661  -21.4180   -8.7687 C   0  0  0  0  0  0  0  0  0  0  0  0
   27.4111  -20.3874   -7.7498 C   0  0  0  0  0  0  0  0  0  0  0  0
   26.7715  -19.1506   -7.7355 C   0  0  0  0  0  0  0  0  0  0  0  0
   27.0919  -18.4652   -6.6369 N   0  0  0  0  0  0  0  0  0  0  0  0
   27.9396  -19.1980   -5.8859 C   0  0  0  0  0  0  0  0  0  0  0  0
   28.5361  -18.9374   -4.6610 C   0  0  0  0  0  0  0  0  0  0  0  0
   29.3626  -19.8584   -4.0604 C   0  0  0  0  0  0  0  0  0  0  0  0
   29.5593  -21.0376   -4.7383 C   0  0  0  0  0  0  0  0  0  0  0  0
   28.9776  -21.3039   -5.9449 C   0  0  0  0  0  0  0  0  0  0  0  0
   28.1500  -20.3987   -6.5625 C   0  0  0  0  0  0  0  0  0  0  0  0
   25.1079  -20.5011   -9.1076 C   0  0  0  0  0  0  0  0  0  0  0  0
   24.8202  -19.4086   -9.6542 O   0  0  0  0  0  0  0  0  0  0  0  0
   24.3326  -20.7785   -7.9630 O   0  0  0  0  0  0  0  0  0  0  0  0
  2  1  1  0
  3  2  1  0
  4  3  1  0
  4  5  1  0
  5  6  1  1
  5  1  1  0
  6  7  2  0
  8 12  1  0
  8  6  1  0
  9  8  1  0
 10 11  1  0
 10  9  1  0
 11 12  1  0
 12 13  1  1
 13 15  1  0
 13 14  2  0
 15 16  1  0
 16 27  1  0
 16 17  1  1
 18 17  1  0
 19 18  2  0
 20 21  1  0
 20 19  1  0
 21 26  2  0
 22 23  2  0
 22 21  1  0
 23 24  1  0
 24 25  2  0
 26 18  1  0
 26 25  1  0
 27 28  2  0
 27 29  1  0
M  END
$$$$
