PPW.pdb
     RDKit          3D

 29 32  0  0  1  0  0  0  0  0999 V2000
   26.2185  -16.7390  -16.9639 N   0  0  0  0  0  0  0  0  0  0  0  0
   25.5490  -15.5304  -16.5244 C   0  0  0  0  0  0  0  0  0  0  0  0
   25.2789  -15.6855  -15.0585 C   0  0  0  0  0  0  0  0  0  0  0  0
   26.2362  -16.7508  -14.5991 C   0  0  0  0  0  0  0  0  0  0  0  0
   26.9718  -17.2244  -15.8340 C   0  0  1  0  0  0  0  0  0  0  0  0
   27.1411  -18.7064  -15.8629 C   0  0  0  0  0  0  0  0  0  0  0  0
   26.7827  -19.2830  -16.9268 O   0  0  0  0  0  0  0  0  0  0  0  0
   27.6648  -19.4351  -14.7836 N   0  0  0  0  0  0  0  0  0  0  0  0
   28.0699  -18.9173  -13.5101 C   0  0  0  0  0  0  0  0  0  0  0  0
   29.1183  -19.9175  -13.0091 C   0  0  0  0  0  0  0  0  0  0  0  0
   29.3031  -20.9029  -14.1697 C   0  0  0  0  0  0  0  0  0  0  0  0
   27.8895  -20.8528  -14.7671 C   0  0  1  0  0  0  0  0  0  0  0  0
   26.9742  -21.5495  -13.8240 C   0  0  0  0  0  0  0  0  0  0  0  0
   27.0351  -22.7979  -13.6253 O   0  0  0  0  0  0  0  0  0  0  0  0
   26.0039  -20.8415  -13.1150 N   0  0  0  0  0  0  0  0  0  0  0  0
   25.0628  -21.5558  -12.2094 C   0  0  1  0  0  0  0  0  0  0  0  0
   25.8037  -22.1025  -11.0517 C   0  0  0  0  0  0  0  0  0  0  0  0
   25.9689  -21.1695   -9.9543 C   0  0  0  0  0  0  0  0  0  0  0  0
   25.0617  -20.2331   -9.4653 C   0  0  0  0  0  0  0  0  0  0  0  0
   25.5985  -19.5318   -8.4656 N   0  0  0  0  0  0  0  0  0  0  0  0
   26.8590  -19.9600   -8.2475 C   0  0  0  0  0  0  0  0  0  0  0  0
   27.8113  -19.5668   -7.3187 C   0  0  0  0  0  0  0  0  0  0  0  0
   29.0455  -20.1716   -7.2638 C   0  0  0  0  0  0  0  0  0  0  0  0
   29.2755  -21.1761   -8.1731 C   0  0  0  0  0  0  0  0  0  0  0  0
   28.3453  -21.5703   -9.0920 C   0  0  0  0  0  0  0  0  0  0  0  0
   27.1077  -20.9800   -9.1648 C   0  0  0  0  0  0  0  0  0  0  0  0
   24.0286  -20.5980  -11.8520 C   0  0  0  0  0  0  0  0  0  0  0  0
   24.1753  -19.3527  -11.9066 O   0  0  0  0  0  0  0  0  0  0  0  0
   22.7510  -20.9946  -11.4064 O   0  0  0  0  0  0  0  0  0  0  0  0
  2  1  1  0
  3  2  1  0
  4  3  1  0
  4  5  1  0
  5  6  1  6
  5  1  1  0
  6  7  2  0
  8 12  1  0
  8  6  1  0
  9  8  1  0
 10 11  1  0
 10  9  1  0
 11 12  1  0
 12 13  1  1
 13 15  1  0
 13 14  2  0
 15 16  1  0
 16 27  1  0
 16 17  1  1
 18 17  1  0
 19 18  2  0
 20 21  1  0
 20 19  1  0
 21 26  2  0
 22 23  2  0
 22 21  1  0
 23 24  1  0
 24 25  2  0
 26 18  1  0
 26 25  1  0
 27 28  2  0
 27 29  1  0
M  END
$$$$
