PPW.pdb
     RDKit          3D

 29 32  0  0  1  0  0  0  0  0999 V2000
   28.8405  -21.9978  -17.1878 N   0  0  0  0  0  0  0  0  0  0  0  0
   28.4027  -21.4464  -18.4552 C   0  0  0  0  0  0  0  0  0  0  0  0
   27.1442  -20.6775  -18.1890 C   0  0  0  0  0  0  0  0  0  0  0  0
   27.1687  -20.3943  -16.7120 C   0  0  0  0  0  0  0  0  0  0  0  0
   28.4050  -21.0764  -16.1675 C   0  0  1  0  0  0  0  0  0  0  0  0
   28.1531  -21.7558  -14.8633 C   0  0  0  0  0  0  0  0  0  0  0  0
   28.0711  -23.0146  -14.9027 O   0  0  0  0  0  0  0  0  0  0  0  0
   28.0123  -21.0571  -13.6543 N   0  0  0  0  0  0  0  0  0  0  0  0
   28.1055  -19.6398  -13.4623 C   0  0  0  0  0  0  0  0  0  0  0  0
   28.5361  -19.4818  -11.9994 C   0  0  0  0  0  0  0  0  0  0  0  0
   28.7735  -20.9143  -11.5058 C   0  0  0  0  0  0  0  0  0  0  0  0
   27.7447  -21.6516  -12.3753 C   0  0  1  0  0  0  0  0  0  0  0  0
   26.3903  -21.2994  -11.8713 C   0  0  0  0  0  0  0  0  0  0  0  0
   26.1038  -21.3214  -10.6387 O   0  0  0  0  0  0  0  0  0  0  0  0
   25.3745  -20.9264  -12.7513 N   0  0  0  0  0  0  0  0  0  0  0  0
   24.1985  -20.1570  -12.2605 C   0  0  1  0  0  0  0  0  0  0  0  0
   24.2846  -18.7587  -12.7353 C   0  0  0  0  0  0  0  0  0  0  0  0
   24.3376  -18.6204  -14.1776 C   0  0  0  0  0  0  0  0  0  0  0  0
   23.5096  -19.1970  -15.1372 C   0  0  0  0  0  0  0  0  0  0  0  0
   23.9028  -18.8585  -16.3661 N   0  0  0  0  0  0  0  0  0  0  0  0
   24.9856  -18.0582  -16.2829 C   0  0  0  0  0  0  0  0  0  0  0  0
   25.7417  -17.4364  -17.2656 C   0  0  0  0  0  0  0  0  0  0  0  0
   26.8088  -16.6312  -16.9412 C   0  0  0  0  0  0  0  0  0  0  0  0
   27.0773  -16.4818  -15.6016 C   0  0  0  0  0  0  0  0  0  0  0  0
   26.3398  -17.0901  -14.6263 C   0  0  0  0  0  0  0  0  0  0  0  0
   25.2713  -17.8983  -14.9278 C   0  0  0  0  0  0  0  0  0  0  0  0
   23.0182  -20.8684  -12.7246 C   0  0  0  0  0  0  0  0  0  0  0  0
   21.8409  -20.5265  -12.4556 O   0  0  0  0  0  0  0  0  0  0  0  0
   23.0982  -22.0227  -13.5304 O   0  0  0  0  0  0  0  0  0  0  0  0
  2  1  1  0
  3  2  1  0
  4  3  1  0
  4  5  1  0
  5  6  1  1
  5  1  1  0
  6  7  2  0
  8 12  1  0
  8  6  1  0
  9  8  1  0
 10 11  1  0
 10  9  1  0
 11 12  1  0
 12 13  1  1
 13 15  1  0
 13 14  2  0
 15 16  1  0
 16 27  1  0
 16 17  1  6
 18 17  1  0
 19 18  2  0
 20 21  1  0
 20 19  1  0
 21 26  2  0
 22 23  2  0
 22 21  1  0
 23 24  1  0
 24 25  2  0
 26 18  1  0
 26 25  1  0
 27 28  2  0
 27 29  1  0
M  END
$$$$
