PPW.pdb
     RDKit          3D

 29 32  0  0  1  0  0  0  0  0999 V2000
   24.2034  -18.6748  -15.8988 N   0  0  0  0  0  0  0  0  0  0  0  0
   23.2845  -17.5738  -15.6855 C   0  0  0  0  0  0  0  0  0  0  0  0
   23.3366  -17.2338  -14.2268 C   0  0  0  0  0  0  0  0  0  0  0  0
   24.6388  -17.8092  -13.7415 C   0  0  0  0  0  0  0  0  0  0  0  0
   25.2551  -18.5259  -14.9235 C   0  0  1  0  0  0  0  0  0  0  0  0
   25.8617  -19.8348  -14.5428 C   0  0  0  0  0  0  0  0  0  0  0  0
   25.3496  -20.8573  -15.0768 O   0  0  0  0  0  0  0  0  0  0  0  0
   26.9366  -19.9452  -13.6471 N   0  0  0  0  0  0  0  0  0  0  0  0
   27.5569  -18.8837  -12.9106 C   0  0  0  0  0  0  0  0  0  0  0  0
   28.9840  -19.3821  -12.6544 C   0  0  0  0  0  0  0  0  0  0  0  0
   29.0766  -20.7090  -13.4179 C   0  0  0  0  0  0  0  0  0  0  0  0
   27.6143  -21.1639  -13.3060 C   0  0  1  0  0  0  0  0  0  0  0  0
   27.3696  -21.5590  -11.8931 C   0  0  0  0  0  0  0  0  0  0  0  0
   28.0275  -22.4809  -11.3282 O   0  0  0  0  0  0  0  0  0  0  0  0
   26.3937  -20.9180  -11.1301 N   0  0  0  0  0  0  0  0  0  0  0  0
   26.0808  -21.3939   -9.7548 C   0  0  1  0  0  0  0  0  0  0  0  0
   27.3155  -21.4105   -8.9404 C   0  0  0  0  0  0  0  0  0  0  0  0
   27.3819  -20.3671   -7.9358 C   0  0  0  0  0  0  0  0  0  0  0  0
   26.8576  -19.0781   -7.9852 C   0  0  0  0  0  0  0  0  0  0  0  0
   27.1608  -18.4014   -6.8764 N   0  0  0  0  0  0  0  0  0  0  0  0
   27.8835  -19.1914   -6.0559 C   0  0  0  0  0  0  0  0  0  0  0  0
   28.4135  -18.9597   -4.7951 C   0  0  0  0  0  0  0  0  0  0  0  0
   29.1089  -19.9383   -4.1234 C   0  0  0  0  0  0  0  0  0  0  0  0
   29.2451  -21.1442   -4.7685 C   0  0  0  0  0  0  0  0  0  0  0  0
   28.7280  -21.3823   -6.0099 C   0  0  0  0  0  0  0  0  0  0  0  0
   28.0314  -20.4198   -6.6983 C   0  0  0  0  0  0  0  0  0  0  0  0
   25.0439  -20.5136   -9.2405 C   0  0  0  0  0  0  0  0  0  0  0  0
   24.4319  -20.7044   -8.1614 O   0  0  0  0  0  0  0  0  0  0  0  0
   24.6313  -19.3507   -9.9227 O   0  0  0  0  0  0  0  0  0  0  0  0
  2  1  1  0
  3  2  1  0
  4  3  1  0
  4  5  1  0
  5  6  1  1
  5  1  1  0
  6  7  2  0
  8 12  1  0
  8  6  1  0
  9  8  1  0
 10 11  1  0
 10  9  1  0
 11 12  1  0
 12 13  1  1
 13 15  1  0
 13 14  2  0
 15 16  1  0
 16 27  1  0
 16 17  1  1
 18 17  1  0
 19 18  2  0
 20 21  1  0
 20 19  1  0
 21 26  2  0
 22 23  2  0
 22 21  1  0
 23 24  1  0
 24 25  2  0
 26 18  1  0
 26 25  1  0
 27 28  2  0
 27 29  1  0
M  END
$$$$
