NAD.pdb
     RDKit          3D

 22 21  0  0  1  0  0  0  0  0999 V2000
   14.9163  -11.9219  -17.8102 N   0  0  0  0  0  0  0  0  0  0  0  0
   14.9781  -10.8900  -16.8822 C   0  0  0  0  0  0  0  0  0  0  0  0
   13.9445  -10.1516  -16.7170 O   0  0  0  0  0  0  0  0  0  0  0  0
   16.1421  -10.5615  -16.0563 C   0  0  0  0  0  0  0  0  0  0  0  0
   17.2888  -11.5081  -16.3097 C   0  0  2  0  0  0  0  0  0  0  0  0
   16.9890  -12.8034  -15.6707 N   0  0  0  0  0  0  0  0  0  0  0  0
   18.5379  -10.9667  -15.6755 C   0  0  0  0  0  0  0  0  0  0  0  0
   18.6553  -10.6912  -14.4689 O   0  0  0  0  0  0  0  0  0  0  0  0
   21.9702  -10.6402  -17.1254 C   0  0  0  0  0  0  0  0  0  0  0  0
   20.9623  -10.3249  -16.0111 C   0  0  2  0  0  0  0  0  0  0  0  0
   19.6742  -10.7512  -16.5205 N   0  0  0  0  0  0  0  0  0  0  0  0
   20.8487   -8.8572  -15.7909 C   0  0  0  0  0  0  0  0  0  0  0  0
   20.0277   -8.1315  -16.4548 O   0  0  0  0  0  0  0  0  0  0  0  0
   21.6275   -8.1470  -14.8428 N   0  0  0  0  0  0  0  0  0  0  0  0
   21.4429   -6.7031  -14.6454 C   0  0  1  0  0  0  0  0  0  0  0  0
   22.0172   -6.2409  -13.3502 C   0  0  0  0  0  0  0  0  0  0  0  0
   21.8547   -4.7689  -13.2401 C   0  0  0  0  0  0  0  0  0  0  0  0
   22.8424   -3.9726  -13.2513 O   0  0  0  0  0  0  0  0  0  0  0  0
   22.2407   -6.0752  -15.7523 C   0  0  0  0  0  0  0  0  0  0  0  0
   23.1847   -6.7664  -16.4904 O   0  0  0  0  0  0  0  0  0  0  0  0
   20.6106   -4.1469  -13.1133 O   0  0  0  0  0  0  0  0  0  0  0  0
   22.0949   -4.8537  -16.0821 O   0  0  0  0  0  0  0  0  0  0  0  0
  2  1  1  0
  3  2  2  0
  4  5  1  0
  4  2  1  0
  5  6  1  1
  7 11  1  0
  7  5  1  0
  8  7  2  0
 10 12  1  0
 10  9  1  6
 10 11  1  0
 12 14  1  0
 13 12  2  0
 14 15  1  0
 15 16  1  1
 16 17  1  0
 17 21  1  0
 18 17  2  0
 19 20  1  0
 19 15  1  0
 22 19  2  0
M  END
$$$$
