NAD.pdb
     RDKit          3D

 22 21  0  0  1  0  0  0  0  0999 V2000
   16.8629  -12.9093  -16.6478 N   0  0  0  0  0  0  0  0  0  0  0  0
   16.8572  -11.6442  -16.0743 C   0  0  0  0  0  0  0  0  0  0  0  0
   15.7472  -11.1714  -15.6437 O   0  0  0  0  0  0  0  0  0  0  0  0
   18.0297  -10.7818  -15.9121 C   0  0  0  0  0  0  0  0  0  0  0  0
   19.2547  -11.3819  -16.5560 C   0  0  2  0  0  0  0  0  0  0  0  0
   19.6459  -12.5897  -15.8049 N   0  0  0  0  0  0  0  0  0  0  0  0
   20.3945  -10.4073  -16.4750 C   0  0  0  0  0  0  0  0  0  0  0  0
   21.0341  -10.1527  -15.4397 O   0  0  0  0  0  0  0  0  0  0  0  0
   22.2792   -8.6993  -19.2012 C   0  0  0  0  0  0  0  0  0  0  0  0
   21.8611   -8.7680  -17.7256 C   0  0  2  0  0  0  0  0  0  0  0  0
   20.7708   -9.7215  -17.6748 N   0  0  0  0  0  0  0  0  0  0  0  0
   21.2906   -7.4711  -17.2695 C   0  0  0  0  0  0  0  0  0  0  0  0
   20.0425   -7.2022  -17.3758 O   0  0  0  0  0  0  0  0  0  0  0  0
   22.0674   -6.4375  -16.6878 N   0  0  0  0  0  0  0  0  0  0  0  0
   21.4406   -5.1911  -16.2280 C   0  0  1  0  0  0  0  0  0  0  0  0
   22.2144   -4.5532  -15.1256 C   0  0  0  0  0  0  0  0  0  0  0  0
   21.9560   -5.2843  -13.8591 C   0  0  0  0  0  0  0  0  0  0  0  0
   20.7855   -5.4634  -13.4035 O   0  0  0  0  0  0  0  0  0  0  0  0
   21.5078   -4.2829  -17.4224 C   0  0  0  0  0  0  0  0  0  0  0  0
   20.9128   -3.0346  -17.4578 O   0  0  0  0  0  0  0  0  0  0  0  0
   22.9735   -5.8274  -13.0715 O   0  0  0  0  0  0  0  0  0  0  0  0
   22.1238   -4.6111  -18.4878 O   0  0  0  0  0  0  0  0  0  0  0  0
  2  1  1  0
  3  2  2  0
  4  5  1  0
  4  2  1  0
  5  6  1  1
  7 11  1  0
  7  5  1  0
  8  7  2  0
 10 12  1  0
 10  9  1  6
 10 11  1  0
 12 14  1  0
 13 12  2  0
 14 15  1  0
 15 16  1  1
 16 17  1  0
 17 21  1  0
 18 17  2  0
 19 20  1  0
 19 15  1  0
 22 19  2  0
M  END
$$$$
