NAD.pdb
     RDKit          3D

 22 21  0  0  1  0  0  0  0  0999 V2000
   11.6794  -12.0815   -8.8028 N   0  0  0  0  0  0  0  0  0  0  0  0
   12.5129  -12.0632   -9.9139 C   0  0  0  0  0  0  0  0  0  0  0  0
   12.7222  -13.1602  -10.5413 O   0  0  0  0  0  0  0  0  0  0  0  0
   13.1894  -10.8785  -10.4465 C   0  0  0  0  0  0  0  0  0  0  0  0
   12.9083   -9.6547   -9.6106 C   0  0  2  0  0  0  0  0  0  0  0  0
   11.4901   -9.2819   -9.7716 N   0  0  0  0  0  0  0  0  0  0  0  0
   13.7392   -8.5056  -10.1053 C   0  0  0  0  0  0  0  0  0  0  0  0
   13.5889   -7.9474  -11.2059 O   0  0  0  0  0  0  0  0  0  0  0  0
   16.4535   -6.5791   -8.3695 C   0  0  0  0  0  0  0  0  0  0  0  0
   15.6988   -6.9718   -9.6474 C   0  0  2  0  0  0  0  0  0  0  0  0
   14.7793   -8.0189   -9.2492 N   0  0  0  0  0  0  0  0  0  0  0  0
   16.6162   -7.5910  -10.6426 C   0  0  0  0  0  0  0  0  0  0  0  0
   17.0133   -8.8047  -10.5385 O   0  0  0  0  0  0  0  0  0  0  0  0
   17.1222   -6.9016  -11.7734 N   0  0  0  0  0  0  0  0  0  0  0  0
   17.9674   -7.5885  -12.7591 C   0  0  1  0  0  0  0  0  0  0  0  0
   17.1612   -8.4058  -13.7095 C   0  0  0  0  0  0  0  0  0  0  0  0
   18.0571   -8.9738  -14.7488 C   0  0  0  0  0  0  0  0  0  0  0  0
   19.1181   -8.3891  -15.1260 O   0  0  0  0  0  0  0  0  0  0  0  0
   18.6051   -6.4737  -13.5378 C   0  0  0  0  0  0  0  0  0  0  0  0
   19.9028   -6.5293  -14.0136 O   0  0  0  0  0  0  0  0  0  0  0  0
   17.8044  -10.1874  -15.3923 O   0  0  0  0  0  0  0  0  0  0  0  0
   17.9824   -5.3965  -13.8101 O   0  0  0  0  0  0  0  0  0  0  0  0
  2  1  1  0
  3  2  2  0
  4  5  1  0
  4  2  1  0
  5  6  1  6
  7 11  1  0
  7  5  1  0
  8  7  2  0
 10 12  1  0
 10  9  1  1
 10 11  1  0
 12 14  1  0
 13 12  2  0
 14 15  1  0
 15 16  1  6
 16 17  1  0
 17 21  1  0
 18 17  2  0
 19 20  1  0
 19 15  1  0
 22 19  2  0
M  END
$$$$
