NAD.pdb
     RDKit          3D

 22 21  0  0  1  0  0  0  0  0999 V2000
   15.2421  -13.9540  -10.9639 N   0  0  0  0  0  0  0  0  0  0  0  0
   16.1568  -13.2730  -11.7571 C   0  0  0  0  0  0  0  0  0  0  0  0
   17.0607  -13.9462  -12.3661 O   0  0  0  0  0  0  0  0  0  0  0  0
   16.1833  -11.8238  -11.9668 C   0  0  0  0  0  0  0  0  0  0  0  0
   15.1502  -11.1208  -11.1219 C   0  0  2  0  0  0  0  0  0  0  0  0
   13.8065  -11.4793  -11.6140 N   0  0  0  0  0  0  0  0  0  0  0  0
   15.3064   -9.6344  -11.2691 C   0  0  0  0  0  0  0  0  0  0  0  0
   14.9748   -8.9855  -12.2764 O   0  0  0  0  0  0  0  0  0  0  0  0
   16.5037   -7.0914   -8.7789 C   0  0  0  0  0  0  0  0  0  0  0  0
   16.1251   -7.4855  -10.2136 C   0  0  2  0  0  0  0  0  0  0  0  0
   15.8792   -8.9132  -10.1722 N   0  0  0  0  0  0  0  0  0  0  0  0
   17.2730   -7.2958  -11.1419 C   0  0  0  0  0  0  0  0  0  0  0  0
   18.1857   -8.1835  -11.2852 O   0  0  0  0  0  0  0  0  0  0  0  0
   17.4528   -6.1342  -11.9347 N   0  0  0  0  0  0  0  0  0  0  0  0
   18.5627   -6.0395  -12.8922 C   0  0  1  0  0  0  0  0  0  0  0  0
   18.3289   -6.8811  -14.0997 C   0  0  0  0  0  0  0  0  0  0  0  0
   19.4599   -6.7050  -15.0458 C   0  0  0  0  0  0  0  0  0  0  0  0
   19.3311   -6.1045  -16.1560 O   0  0  0  0  0  0  0  0  0  0  0  0
   18.5535   -4.6013  -13.3253 C   0  0  0  0  0  0  0  0  0  0  0  0
   19.6829   -3.9381  -13.7704 O   0  0  0  0  0  0  0  0  0  0  0  0
   20.7468   -7.1852  -14.7929 O   0  0  0  0  0  0  0  0  0  0  0  0
   17.4925   -3.8968  -13.3086 O   0  0  0  0  0  0  0  0  0  0  0  0
  2  1  1  0
  3  2  2  0
  4  5  1  0
  4  2  1  0
  5  6  1  6
  7 11  1  0
  7  5  1  0
  8  7  2  0
 10 12  1  0
 10  9  1  1
 10 11  1  0
 12 14  1  0
 13 12  2  0
 14 15  1  0
 15 16  1  6
 16 17  1  0
 17 21  1  0
 18 17  2  0
 19 20  1  0
 19 15  1  0
 22 19  2  0
M  END
$$$$
