NAD.pdb
     RDKit          3D

 22 21  0  0  1  0  0  0  0  0999 V2000
   34.6920  -36.8744   -6.9676 N   0  0  0  0  0  0  0  0  0  0  0  0
   34.6088  -36.6811   -5.5945 C   0  0  0  0  0  0  0  0  0  0  0  0
   35.4842  -37.2377   -4.8430 O   0  0  0  0  0  0  0  0  0  0  0  0
   33.5900  -35.8810   -4.9114 C   0  0  0  0  0  0  0  0  0  0  0  0
   32.6610  -35.2092   -5.8917 C   0  0  2  0  0  0  0  0  0  0  0  0
   33.3957  -34.1355   -6.5870 N   0  0  0  0  0  0  0  0  0  0  0  0
   31.5208  -34.5728   -5.1496 C   0  0  0  0  0  0  0  0  0  0  0  0
   31.6488  -33.7150   -4.2589 O   0  0  0  0  0  0  0  0  0  0  0  0
   27.8388  -34.7928   -5.7667 C   0  0  0  0  0  0  0  0  0  0  0  0
   29.0127  -34.4513   -4.8382 C   0  0  2  0  0  0  0  0  0  0  0  0
   30.1920  -34.9841   -5.4910 N   0  0  0  0  0  0  0  0  0  0  0  0
   28.9002  -35.1768   -3.5433 C   0  0  0  0  0  0  0  0  0  0  0  0
   29.5540  -36.2531   -3.3077 O   0  0  0  0  0  0  0  0  0  0  0  0
   28.0722  -34.7461   -2.4761 N   0  0  0  0  0  0  0  0  0  0  0  0
   28.0977  -35.4328   -1.1778 C   0  0  1  0  0  0  0  0  0  0  0  0
   29.4147  -35.2846   -0.4961 C   0  0  0  0  0  0  0  0  0  0  0  0
   29.3563  -35.9479    0.8313 C   0  0  0  0  0  0  0  0  0  0  0  0
   28.3231  -36.5595    1.2415 O   0  0  0  0  0  0  0  0  0  0  0  0
   27.0708  -34.7065   -0.3569 C   0  0  0  0  0  0  0  0  0  0  0  0
   26.3347  -33.6388   -0.8384 O   0  0  0  0  0  0  0  0  0  0  0  0
   30.4253  -35.9495    1.7301 O   0  0  0  0  0  0  0  0  0  0  0  0
   26.8127  -35.0333    0.8468 O   0  0  0  0  0  0  0  0  0  0  0  0
  2  1  1  0
  3  2  2  0
  4  5  1  0
  4  2  1  0
  5  6  1  1
  7 11  1  0
  7  5  1  0
  8  7  2  0
 10 12  1  0
 10  9  1  6
 10 11  1  0
 12 14  1  0
 13 12  2  0
 14 15  1  0
 15 16  1  1
 16 17  1  0
 17 21  1  0
 18 17  2  0
 19 20  1  0
 19 15  1  0
 22 19  2  0
M  END
$$$$
