NAD.pdb
     RDKit          3D

 22 21  0  0  1  0  0  0  0  0999 V2000
   24.2360  -14.2049  -15.1700 N   0  0  0  0  0  0  0  0  0  0  0  0
   24.5995  -13.6581  -16.3941 C   0  0  0  0  0  0  0  0  0  0  0  0
   25.4581  -14.2805  -17.1127 O   0  0  0  0  0  0  0  0  0  0  0  0
   24.0795  -12.4078  -16.9518 C   0  0  0  0  0  0  0  0  0  0  0  0
   22.9712  -11.8382  -16.1018 C   0  0  2  0  0  0  0  0  0  0  0  0
   21.7622  -12.6653  -16.2766 N   0  0  0  0  0  0  0  0  0  0  0  0
   22.6426  -10.4488  -16.5679 C   0  0  0  0  0  0  0  0  0  0  0  0
   23.4285   -9.4863  -16.5291 O   0  0  0  0  0  0  0  0  0  0  0  0
   19.7506   -9.1955  -18.5466 C   0  0  0  0  0  0  0  0  0  0  0  0
   20.8900   -8.9150  -17.5568 C   0  0  2  0  0  0  0  0  0  0  0  0
   21.3307  -10.2155  -17.0931 N   0  0  0  0  0  0  0  0  0  0  0  0
   20.3886   -8.2003  -16.3512 C   0  0  0  0  0  0  0  0  0  0  0  0
   19.8454   -8.8199  -15.3701 O   0  0  0  0  0  0  0  0  0  0  0  0
   20.4671   -6.7942  -16.1877 N   0  0  0  0  0  0  0  0  0  0  0  0
   20.0935   -6.1612  -14.9159 C   0  0  1  0  0  0  0  0  0  0  0  0
   20.7872   -4.8568  -14.7190 C   0  0  0  0  0  0  0  0  0  0  0  0
   22.1222   -5.0985  -14.1153 C   0  0  0  0  0  0  0  0  0  0  0  0
   22.4583   -6.2238  -13.6353 O   0  0  0  0  0  0  0  0  0  0  0  0
   18.6245   -5.8834  -15.0605 C   0  0  0  0  0  0  0  0  0  0  0  0
   17.7374   -5.9332  -14.0003 O   0  0  0  0  0  0  0  0  0  0  0  0
   23.1076   -4.1127  -14.0251 O   0  0  0  0  0  0  0  0  0  0  0  0
   18.1003   -5.5820  -16.1815 O   0  0  0  0  0  0  0  0  0  0  0  0
  2  1  1  0
  3  2  2  0
  4  5  1  0
  4  2  1  0
  5  6  1  6
  7 11  1  0
  7  5  1  0
  8  7  2  0
 10 12  1  0
 10  9  1  6
 10 11  1  0
 12 14  1  0
 13 12  2  0
 14 15  1  0
 15 16  1  6
 16 17  1  0
 17 21  1  0
 18 17  2  0
 19 20  1  0
 19 15  1  0
 22 19  2  0
M  END
$$$$
