NAD.pdb
     RDKit          3D

 22 21  0  0  1  0  0  0  0  0999 V2000
   21.2093  -13.6732  -17.2100 N   0  0  0  0  0  0  0  0  0  0  0  0
   20.5102  -13.4568  -16.0293 C   0  0  0  0  0  0  0  0  0  0  0  0
   19.6766  -14.3476  -15.6385 O   0  0  0  0  0  0  0  0  0  0  0  0
   20.6416  -12.2779  -15.1704 C   0  0  0  0  0  0  0  0  0  0  0  0
   21.6494  -11.2992  -15.7196 C   0  0  2  0  0  0  0  0  0  0  0  0
   23.0041  -11.8515  -15.5295 N   0  0  0  0  0  0  0  0  0  0  0  0
   21.5715  -10.0116  -14.9506 C   0  0  0  0  0  0  0  0  0  0  0  0
   21.9528   -9.8659  -13.7763 O   0  0  0  0  0  0  0  0  0  0  0  0
   20.8249   -6.5753  -16.2024 C   0  0  0  0  0  0  0  0  0  0  0  0
   21.0053   -7.5467  -15.0273 C   0  0  2  0  0  0  0  0  0  0  0  0
   21.0175   -8.8708  -15.6164 N   0  0  0  0  0  0  0  0  0  0  0  0
   19.8259   -7.5146  -14.1199 C   0  0  0  0  0  0  0  0  0  0  0  0
   18.7782   -8.2181  -14.3410 O   0  0  0  0  0  0  0  0  0  0  0  0
   19.7611   -6.7147  -12.9511 N   0  0  0  0  0  0  0  0  0  0  0  0
   18.5580   -6.7074  -12.1084 C   0  0  1  0  0  0  0  0  0  0  0  0
   18.8924   -6.5685  -10.6627 C   0  0  0  0  0  0  0  0  0  0  0  0
   17.6368   -6.4470   -9.8791 C   0  0  0  0  0  0  0  0  0  0  0  0
   16.5870   -7.0972  -10.1710 O   0  0  0  0  0  0  0  0  0  0  0  0
   17.8203   -5.4690  -12.5306 C   0  0  0  0  0  0  0  0  0  0  0  0
   16.4671   -5.2831  -12.3120 O   0  0  0  0  0  0  0  0  0  0  0  0
   17.5100   -5.6111   -8.7674 O   0  0  0  0  0  0  0  0  0  0  0  0
   18.4029   -4.5037  -13.1230 O   0  0  0  0  0  0  0  0  0  0  0  0
  2  1  1  0
  3  2  2  0
  4  5  1  0
  4  2  1  0
  5  6  1  1
  7 11  1  0
  7  5  1  0
  8  7  2  0
 10 12  1  0
 10  9  1  6
 10 11  1  0
 12 14  1  0
 13 12  2  0
 14 15  1  0
 15 16  1  1
 16 17  1  0
 17 21  1  0
 18 17  2  0
 19 20  1  0
 19 15  1  0
 22 19  2  0
M  END
$$$$
