NAD.pdb
     RDKit          3D

 22 21  0  0  1  0  0  0  0  0999 V2000
   16.9586  -12.6863  -15.1473 N   0  0  0  0  0  0  0  0  0  0  0  0
   18.2746  -13.0885  -15.3368 C   0  0  0  0  0  0  0  0  0  0  0  0
   18.6086  -14.2756  -14.9902 O   0  0  0  0  0  0  0  0  0  0  0  0
   19.3393  -12.2622  -15.9098 C   0  0  0  0  0  0  0  0  0  0  0  0
   18.8597  -10.8627  -16.2042 C   0  0  2  0  0  0  0  0  0  0  0  0
   18.2036  -10.8508  -17.5254 N   0  0  0  0  0  0  0  0  0  0  0  0
   20.0359   -9.9314  -16.2725 C   0  0  0  0  0  0  0  0  0  0  0  0
   20.8100   -9.7004  -15.3275 O   0  0  0  0  0  0  0  0  0  0  0  0
   21.5317   -8.2278  -19.2527 C   0  0  0  0  0  0  0  0  0  0  0  0
   21.4364   -8.4106  -17.7313 C   0  0  2  0  0  0  0  0  0  0  0  0
   20.2829   -9.2606  -17.5138 N   0  0  0  0  0  0  0  0  0  0  0  0
   21.1266   -7.1213  -17.0552 C   0  0  0  0  0  0  0  0  0  0  0  0
   19.9335   -6.6596  -16.9850 O   0  0  0  0  0  0  0  0  0  0  0  0
   22.1099   -6.3054  -16.4407 N   0  0  0  0  0  0  0  0  0  0  0  0
   21.7337   -5.0727  -15.7360 C   0  0  1  0  0  0  0  0  0  0  0  0
   22.4860   -4.9100  -14.4598 C   0  0  0  0  0  0  0  0  0  0  0  0
   21.8397   -5.7285  -13.4026 C   0  0  0  0  0  0  0  0  0  0  0  0
   20.6893   -6.2433  -13.5487 O   0  0  0  0  0  0  0  0  0  0  0  0
   22.1609   -3.9725  -16.6650 C   0  0  0  0  0  0  0  0  0  0  0  0
   21.6991   -2.6727  -16.5609 O   0  0  0  0  0  0  0  0  0  0  0  0
   22.4406   -5.9935  -12.1700 O   0  0  0  0  0  0  0  0  0  0  0  0
   22.9836   -4.1722  -17.6166 O   0  0  0  0  0  0  0  0  0  0  0  0
  2  1  1  0
  3  2  2  0
  4  5  1  0
  4  2  1  0
  5  6  1  6
  7 11  1  0
  7  5  1  0
  8  7  2  0
 10 12  1  0
 10  9  1  6
 10 11  1  0
 12 14  1  0
 13 12  2  0
 14 15  1  0
 15 16  1  1
 16 17  1  0
 17 21  1  0
 18 17  2  0
 19 20  1  0
 19 15  1  0
 22 19  2  0
M  END
$$$$
