NAD.pdb
     RDKit          3D

 22 21  0  0  1  0  0  0  0  0999 V2000
   16.6086  -11.4318  -18.3425 N   0  0  0  0  0  0  0  0  0  0  0  0
   16.7262  -10.0628  -18.1381 C   0  0  0  0  0  0  0  0  0  0  0  0
   16.1157   -9.2691  -18.9370 O   0  0  0  0  0  0  0  0  0  0  0  0
   17.5006   -9.4290  -17.0688 C   0  0  0  0  0  0  0  0  0  0  0  0
   18.1984  -10.4512  -16.2066 C   0  0  2  0  0  0  0  0  0  0  0  0
   17.1873  -11.1814  -15.4187 N   0  0  0  0  0  0  0  0  0  0  0  0
   19.1119   -9.7544  -15.2393 C   0  0  0  0  0  0  0  0  0  0  0  0
   18.7406   -9.2029  -14.1889 O   0  0  0  0  0  0  0  0  0  0  0  0
   22.8149   -9.8704  -14.9881 C   0  0  0  0  0  0  0  0  0  0  0  0
   21.4994   -9.1517  -14.6569 C   0  0  2  0  0  0  0  0  0  0  0  0
   20.5099   -9.7218  -15.5494 N   0  0  0  0  0  0  0  0  0  0  0  0
   21.5767   -7.7062  -15.0033 C   0  0  0  0  0  0  0  0  0  0  0  0
   22.3146   -6.8885  -14.3489 O   0  0  0  0  0  0  0  0  0  0  0  0
   20.8512   -7.1188  -16.0704 N   0  0  0  0  0  0  0  0  0  0  0  0
   21.0009   -5.6926  -16.3887 C   0  0  1  0  0  0  0  0  0  0  0  0
   20.7917   -5.4215  -17.8392 C   0  0  0  0  0  0  0  0  0  0  0  0
   21.9599   -5.9254  -18.6050 C   0  0  0  0  0  0  0  0  0  0  0  0
   21.8576   -6.3665  -19.7902 O   0  0  0  0  0  0  0  0  0  0  0  0
   19.8874   -5.0275  -15.6313 C   0  0  0  0  0  0  0  0  0  0  0  0
   18.9115   -5.7308  -14.9484 O   0  0  0  0  0  0  0  0  0  0  0  0
   23.2558   -5.9570  -18.0851 O   0  0  0  0  0  0  0  0  0  0  0  0
   19.7726   -3.7604  -15.5717 O   0  0  0  0  0  0  0  0  0  0  0  0
  2  1  1  0
  3  2  2  0
  4  5  1  0
  4  2  1  0
  5  6  1  1
  7 11  1  0
  7  5  1  0
  8  7  2  0
 10 12  1  0
 10  9  1  6
 10 11  1  0
 12 14  1  0
 13 12  2  0
 14 15  1  0
 15 16  1  6
 16 17  1  0
 17 21  1  0
 18 17  2  0
 19 20  1  0
 19 15  1  0
 22 19  2  0
M  END
$$$$
