NAD.pdb
     RDKit          3D

 22 21  0  0  1  0  0  0  0  0999 V2000
   16.5230  -15.1079  -14.1592 N   0  0  0  0  0  0  0  0  0  0  0  0
   16.6985  -14.4815  -15.3866 C   0  0  0  0  0  0  0  0  0  0  0  0
   15.7236  -14.4774  -16.2176 O   0  0  0  0  0  0  0  0  0  0  0  0
   17.9227  -13.8097  -15.8280 C   0  0  0  0  0  0  0  0  0  0  0  0
   17.7262  -12.3191  -15.9491 C   0  0  2  0  0  0  0  0  0  0  0  0
   16.9826  -12.0347  -17.1910 N   0  0  0  0  0  0  0  0  0  0  0  0
   19.0627  -11.6421  -16.0545 C   0  0  0  0  0  0  0  0  0  0  0  0
   19.9944  -11.7881  -15.2444 O   0  0  0  0  0  0  0  0  0  0  0  0
   20.5363   -9.6477  -18.8455 C   0  0  0  0  0  0  0  0  0  0  0  0
   20.5142  -10.0320  -17.3593 C   0  0  2  0  0  0  0  0  0  0  0  0
   19.2790  -10.7650  -17.1660 N   0  0  0  0  0  0  0  0  0  0  0  0
   20.4116   -8.8244  -16.4952 C   0  0  0  0  0  0  0  0  0  0  0  0
   19.2850   -8.2829  -16.2142 O   0  0  0  0  0  0  0  0  0  0  0  0
   21.5344   -8.1790  -15.9182 N   0  0  0  0  0  0  0  0  0  0  0  0
   21.3711   -6.9690  -15.1016 C   0  0  1  0  0  0  0  0  0  0  0  0
   22.4894   -6.7979  -14.1313 C   0  0  0  0  0  0  0  0  0  0  0  0
   22.2875   -5.5398  -13.3686 C   0  0  0  0  0  0  0  0  0  0  0  0
   23.2135   -4.6883  -13.2032 O   0  0  0  0  0  0  0  0  0  0  0  0
   21.4461   -5.8430  -16.0928 C   0  0  0  0  0  0  0  0  0  0  0  0
   20.8022   -4.6321  -15.9121 O   0  0  0  0  0  0  0  0  0  0  0  0
   21.0716   -5.1961  -12.7734 O   0  0  0  0  0  0  0  0  0  0  0  0
   22.1147   -5.9362  -17.1728 O   0  0  0  0  0  0  0  0  0  0  0  0
  2  1  1  0
  3  2  2  0
  4  5  1  0
  4  2  1  0
  5  6  1  6
  7 11  1  0
  7  5  1  0
  8  7  2  0
 10 12  1  0
 10  9  1  6
 10 11  1  0
 12 14  1  0
 13 12  2  0
 14 15  1  0
 15 16  1  1
 16 17  1  0
 17 21  1  0
 18 17  2  0
 19 20  1  0
 19 15  1  0
 22 19  2  0
M  END
$$$$
