NAD.pdb
     RDKit          3D

 22 21  0  0  1  0  0  0  0  0999 V2000
   11.8476  -12.8161   -9.0407 N   0  0  0  0  0  0  0  0  0  0  0  0
   12.9443  -12.8031   -9.8932 C   0  0  0  0  0  0  0  0  0  0  0  0
   13.4475  -13.9220  -10.2617 O   0  0  0  0  0  0  0  0  0  0  0  0
   13.5925  -11.6010  -10.4221 C   0  0  0  0  0  0  0  0  0  0  0  0
   12.9919  -10.3446   -9.8424 C   0  0  2  0  0  0  0  0  0  0  0  0
   11.6152  -10.1948  -10.3506 N   0  0  0  0  0  0  0  0  0  0  0  0
   13.7789   -9.1514  -10.3034 C   0  0  0  0  0  0  0  0  0  0  0  0
   13.7717   -8.7059  -11.4641 O   0  0  0  0  0  0  0  0  0  0  0  0
   15.9145   -6.7882   -8.3124 C   0  0  0  0  0  0  0  0  0  0  0  0
   15.3846   -7.3058   -9.6571 C   0  0  2  0  0  0  0  0  0  0  0  0
   14.5966   -8.4797   -9.3382 N   0  0  0  0  0  0  0  0  0  0  0  0
   16.4969   -7.7840  -10.5230 C   0  0  0  0  0  0  0  0  0  0  0  0
   17.1567   -8.8494  -10.2564 O   0  0  0  0  0  0  0  0  0  0  0  0
   16.9160   -7.1116  -11.6987 N   0  0  0  0  0  0  0  0  0  0  0  0
   17.9552   -7.6841  -12.5648 C   0  0  1  0  0  0  0  0  0  0  0  0
   17.3748   -8.3418  -13.7697 C   0  0  0  0  0  0  0  0  0  0  0  0
   18.4723   -8.7318  -14.6910 C   0  0  0  0  0  0  0  0  0  0  0  0
   18.9751   -7.9244  -15.5307 O   0  0  0  0  0  0  0  0  0  0  0  0
   18.7463   -6.4939  -13.0268 C   0  0  0  0  0  0  0  0  0  0  0  0
   18.2475   -5.2037  -13.0161 O   0  0  0  0  0  0  0  0  0  0  0  0
   19.0336  -10.0106  -14.7094 O   0  0  0  0  0  0  0  0  0  0  0  0
   19.9384   -6.6018  -13.4621 O   0  0  0  0  0  0  0  0  0  0  0  0
  2  1  1  0
  3  2  2  0
  4  5  1  0
  4  2  1  0
  5  6  1  6
  7 11  1  0
  7  5  1  0
  8  7  2  0
 10 12  1  0
 10  9  1  1
 10 11  1  0
 12 14  1  0
 13 12  2  0
 14 15  1  0
 15 16  1  6
 16 17  1  0
 17 21  1  0
 18 17  2  0
 19 20  1  0
 19 15  1  0
 22 19  2  0
M  END
$$$$
