EHW.pdb
     RDKit          3D

 34 36  0  0  1  0  0  0  0  0999 V2000
   27.4464  -22.4062  -17.1838 N   0  0  0  0  0  0  0  0  0  0  0  0
   28.5135  -21.5118  -16.8322 C   0  0  1  0  0  0  0  0  0  0  0  0
   29.0097  -20.7486  -17.9777 C   0  0  0  0  0  0  0  0  0  0  0  0
   29.3707  -21.7038  -19.1164 C   0  0  0  0  0  0  0  0  0  0  0  0
   28.1722  -22.1875  -19.8355 C   0  0  0  0  0  0  0  0  0  0  0  0
   27.2487  -21.4725  -20.2829 O   0  0  0  0  0  0  0  0  0  0  0  0
   28.2303  -20.7312  -15.5846 C   0  0  0  0  0  0  0  0  0  0  0  0
   29.1467  -19.9465  -15.2430 O   0  0  0  0  0  0  0  0  0  0  0  0
   28.0484  -23.5416  -20.0412 O   0  0  0  0  0  0  0  0  0  0  0  0
   27.0281  -20.8847  -14.8829 N   0  0  0  0  0  0  0  0  0  0  0  0
   26.4798  -20.2782  -13.7550 C   0  0  1  0  0  0  0  0  0  0  0  0
   25.3359  -19.3303  -14.0419 C   0  0  0  0  0  0  0  0  0  0  0  0
   25.6483  -18.2701  -15.0014 C   0  0  0  0  0  0  0  0  0  0  0  0
   25.1446  -18.1453  -16.2631 C   0  0  0  0  0  0  0  0  0  0  0  0
   25.6648  -17.0644  -16.8498 N   0  0  0  0  0  0  0  0  0  0  0  0
   26.5051  -16.5110  -15.9313 C   0  0  0  0  0  0  0  0  0  0  0  0
   26.4887  -17.2452  -14.8271 N   0  0  0  0  0  0  0  0  0  0  0  0
   26.3023  -21.0681  -12.5123 C   0  0  0  0  0  0  0  0  0  0  0  0
   25.7783  -22.2093  -12.4550 O   0  0  0  0  0  0  0  0  0  0  0  0
   26.7361  -20.5734  -11.2299 N   0  0  0  0  0  0  0  0  0  0  0  0
   26.4423  -21.3181  -10.0083 C   0  0  1  0  0  0  0  0  0  0  0  0
   27.6973  -21.2388   -9.1836 C   0  0  0  0  0  0  0  0  0  0  0  0
   27.6764  -20.2930   -8.0619 C   0  0  0  0  0  0  0  0  0  0  0  0
   26.8339  -19.1757   -7.9203 C   0  0  0  0  0  0  0  0  0  0  0  0
   27.1383  -18.5374   -6.7964 N   0  0  0  0  0  0  0  0  0  0  0  0
   28.1659  -19.1660   -6.1360 C   0  0  0  0  0  0  0  0  0  0  0  0
   28.8025  -18.8776   -4.9527 C   0  0  0  0  0  0  0  0  0  0  0  0
   29.8108  -19.7079   -4.5334 C   0  0  0  0  0  0  0  0  0  0  0  0
   30.1441  -20.7920   -5.3103 C   0  0  0  0  0  0  0  0  0  0  0  0
   29.5029  -21.0661   -6.4862 C   0  0  0  0  0  0  0  0  0  0  0  0
   28.4716  -20.2463   -6.9509 C   0  0  0  0  0  0  0  0  0  0  0  0
   25.2211  -20.8863   -9.3283 C   0  0  0  0  0  0  0  0  0  0  0  0
   24.5391  -19.8610   -9.6891 O   0  0  0  0  0  0  0  0  0  0  0  0
   24.7023  -21.5578   -8.2383 O   0  0  0  0  0  0  0  0  0  0  0  0
  2  1  1  6
  2  3  1  0
  3  4  1  0
  4  5  1  0
  5  9  1  0
  6  5  2  0
  7  2  1  0
  7  8  2  0
 10  7  1  0
 11 10  1  0
 11 12  1  6
 13 14  2  0
 13 12  1  0
 15 14  1  0
 16 17  2  0
 16 15  1  0
 17 13  1  0
 18 11  1  0
 19 18  2  0
 20 18  1  0
 21 20  1  0
 21 22  1  1
 22 23  1  0
 23 31  1  0
 24 25  1  0
 24 23  2  0
 25 26  1  0
 26 31  2  0
 26 27  1  0
 27 28  2  0
 28 29  1  0
 30 29  2  0
 31 30  1  0
 32 21  1  0
 32 34  1  0
 33 32  2  0
M  END
$$$$
