EHW.pdb
     RDKit          3D

 34 36  0  0  1  0  0  0  0  0999 V2000
   29.0118  -22.7621  -17.3265 N   0  0  0  0  0  0  0  0  0  0  0  0
   27.7355  -22.2337  -17.7187 C   0  0  1  0  0  0  0  0  0  0  0  0
   27.2586  -22.7932  -18.9838 C   0  0  0  0  0  0  0  0  0  0  0  0
   28.4518  -23.1727  -19.8622 C   0  0  0  0  0  0  0  0  0  0  0  0
   28.9944  -22.0078  -20.5941 C   0  0  0  0  0  0  0  0  0  0  0  0
   29.8980  -21.2442  -20.1882 O   0  0  0  0  0  0  0  0  0  0  0  0
   26.7486  -22.2010  -16.5913 C   0  0  0  0  0  0  0  0  0  0  0  0
   25.6445  -22.7354  -16.8511 O   0  0  0  0  0  0  0  0  0  0  0  0
   28.4712  -21.7269  -21.8345 O   0  0  0  0  0  0  0  0  0  0  0  0
   27.0660  -21.6179  -15.3582 N   0  0  0  0  0  0  0  0  0  0  0  0
   26.3598  -21.4042  -14.1766 C   0  0  1  0  0  0  0  0  0  0  0  0
   27.1724  -20.7873  -13.0592 C   0  0  0  0  0  0  0  0  0  0  0  0
   26.4669  -20.6755  -11.7817 C   0  0  0  0  0  0  0  0  0  0  0  0
   25.1748  -21.0377  -11.5357 C   0  0  0  0  0  0  0  0  0  0  0  0
   24.8705  -20.7791  -10.2614 N   0  0  0  0  0  0  0  0  0  0  0  0
   25.9976  -20.2480   -9.7104 C   0  0  0  0  0  0  0  0  0  0  0  0
   26.9478  -20.1883  -10.6335 N   0  0  0  0  0  0  0  0  0  0  0  0
   24.9614  -20.9140  -14.2377 C   0  0  0  0  0  0  0  0  0  0  0  0
   24.5948  -19.8578  -14.8125 O   0  0  0  0  0  0  0  0  0  0  0  0
   23.8757  -21.6380  -13.6258 N   0  0  0  0  0  0  0  0  0  0  0  0
   22.5201  -21.0945  -13.6381 C   0  0  1  0  0  0  0  0  0  0  0  0
   21.6279  -22.2448  -13.2611 C   0  0  0  0  0  0  0  0  0  0  0  0
   20.1952  -21.9456  -13.1557 C   0  0  0  0  0  0  0  0  0  0  0  0
   19.2272  -22.1041  -14.1637 C   0  0  0  0  0  0  0  0  0  0  0  0
   18.0505  -21.6885  -13.7098 N   0  0  0  0  0  0  0  0  0  0  0  0
   18.1516  -21.2438  -12.4140 C   0  0  0  0  0  0  0  0  0  0  0  0
   17.2138  -20.7367  -11.5468 C   0  0  0  0  0  0  0  0  0  0  0  0
   17.6167  -20.3754  -10.2862 C   0  0  0  0  0  0  0  0  0  0  0  0
   18.9377  -20.5341   -9.9407 C   0  0  0  0  0  0  0  0  0  0  0  0
   19.8603  -21.0388  -10.8143 C   0  0  0  0  0  0  0  0  0  0  0  0
   19.4935  -21.4180  -12.1079 C   0  0  0  0  0  0  0  0  0  0  0  0
   22.3565  -19.8872  -12.8283 C   0  0  0  0  0  0  0  0  0  0  0  0
   22.9768  -19.6918  -11.7221 O   0  0  0  0  0  0  0  0  0  0  0  0
   21.5170  -18.8544  -13.1980 O   0  0  0  0  0  0  0  0  0  0  0  0
  2  1  1  1
  2  3  1  0
  3  4  1  0
  4  5  1  0
  5  9  1  0
  6  5  2  0
  7  2  1  0
  7  8  2  0
 10  7  1  0
 11 10  1  0
 11 12  1  1
 13 14  2  0
 13 12  1  0
 15 14  1  0
 16 17  2  0
 16 15  1  0
 17 13  1  0
 18 11  1  0
 19 18  2  0
 20 18  1  0
 21 20  1  0
 21 22  1  1
 22 23  1  0
 23 31  1  0
 24 25  1  0
 24 23  2  0
 25 26  1  0
 26 31  2  0
 26 27  1  0
 27 28  2  0
 28 29  1  0
 30 29  2  0
 31 30  1  0
 32 21  1  0
 32 34  1  0
 33 32  2  0
M  END
$$$$
