EHW.pdb
     RDKit          3D

 34 36  0  0  1  0  0  0  0  0999 V2000
   30.2035  -22.5678  -18.2038 N   0  0  0  0  0  0  0  0  0  0  0  0
   28.8682  -22.7862  -17.7227 C   0  0  1  0  0  0  0  0  0  0  0  0
   28.4704  -24.1930  -17.7833 C   0  0  0  0  0  0  0  0  0  0  0  0
   28.2624  -24.6077  -19.2407 C   0  0  0  0  0  0  0  0  0  0  0  0
   26.9898  -24.0900  -19.7884 C   0  0  0  0  0  0  0  0  0  0  0  0
   25.8500  -24.3058  -19.3209 O   0  0  0  0  0  0  0  0  0  0  0  0
   28.5898  -22.0706  -16.4356 C   0  0  0  0  0  0  0  0  0  0  0  0
   29.5191  -22.1302  -15.5960 O   0  0  0  0  0  0  0  0  0  0  0  0
   27.0480  -23.2967  -20.9103 O   0  0  0  0  0  0  0  0  0  0  0  0
   27.3819  -21.3953  -16.2209 N   0  0  0  0  0  0  0  0  0  0  0  0
   26.8602  -20.6547  -15.1626 C   0  0  1  0  0  0  0  0  0  0  0  0
   26.3136  -19.2984  -15.5511 C   0  0  0  0  0  0  0  0  0  0  0  0
   27.3027  -18.3827  -16.1215 C   0  0  0  0  0  0  0  0  0  0  0  0
   28.6312  -18.6352  -16.3016 C   0  0  0  0  0  0  0  0  0  0  0  0
   29.2239  -17.5642  -16.8353 N   0  0  0  0  0  0  0  0  0  0  0  0
   28.2413  -16.6331  -16.9884 C   0  0  0  0  0  0  0  0  0  0  0  0
   27.0933  -17.1351  -16.5538 N   0  0  0  0  0  0  0  0  0  0  0  0
   26.0682  -21.3379  -14.1111 C   0  0  0  0  0  0  0  0  0  0  0  0
   25.3734  -22.3699  -14.2917 O   0  0  0  0  0  0  0  0  0  0  0  0
   26.0362  -20.8579  -12.7525 N   0  0  0  0  0  0  0  0  0  0  0  0
   25.2428  -21.5484  -11.7391 C   0  0  1  0  0  0  0  0  0  0  0  0
   26.2102  -21.8825  -10.6372 C   0  0  0  0  0  0  0  0  0  0  0  0
   26.3975  -20.8551   -9.6064 C   0  0  0  0  0  0  0  0  0  0  0  0
   25.4941  -19.8326   -9.2651 C   0  0  0  0  0  0  0  0  0  0  0  0
   26.0307  -19.0727   -8.3175 N   0  0  0  0  0  0  0  0  0  0  0  0
   27.2821  -19.5237   -7.9743 C   0  0  0  0  0  0  0  0  0  0  0  0
   28.1970  -19.0677   -7.0557 C   0  0  0  0  0  0  0  0  0  0  0  0
   29.3854  -19.7408   -6.9270 C   0  0  0  0  0  0  0  0  0  0  0  0
   29.6141  -20.8410   -7.7189 C   0  0  0  0  0  0  0  0  0  0  0  0
   28.6953  -21.2828   -8.6297 C   0  0  0  0  0  0  0  0  0  0  0  0
   27.4730  -20.6265   -8.7941 C   0  0  0  0  0  0  0  0  0  0  0  0
   24.0480  -20.8161  -11.3190 C   0  0  0  0  0  0  0  0  0  0  0  0
   23.8833  -19.5603  -11.5245 O   0  0  0  0  0  0  0  0  0  0  0  0
   22.9950  -21.4271  -10.6664 O   0  0  0  0  0  0  0  0  0  0  0  0
  2  1  1  1
  2  3  1  0
  3  4  1  0
  4  5  1  0
  5  9  1  0
  6  5  2  0
  7  2  1  0
  7  8  2  0
 10  7  1  0
 11 10  1  0
 11 12  1  6
 13 14  2  0
 13 12  1  0
 15 14  1  0
 16 17  2  0
 16 15  1  0
 17 13  1  0
 18 11  1  0
 19 18  2  0
 20 18  1  0
 21 20  1  0
 21 22  1  1
 22 23  1  0
 23 31  1  0
 24 25  1  0
 24 23  2  0
 25 26  1  0
 26 31  2  0
 26 27  1  0
 27 28  2  0
 28 29  1  0
 30 29  2  0
 31 30  1  0
 32 21  1  0
 32 34  1  0
 33 32  2  0
M  END
$$$$
