EHW.pdb
     RDKit          3D

 34 36  0  0  1  0  0  0  0  0999 V2000
   16.1421  -12.3106  -15.9014 N   0  0  0  0  0  0  0  0  0  0  0  0
   17.4778  -11.8343  -15.6755 C   0  0  1  0  0  0  0  0  0  0  0  0
   18.4879  -12.6458  -16.3554 C   0  0  0  0  0  0  0  0  0  0  0  0
   18.3196  -14.1144  -15.9626 C   0  0  0  0  0  0  0  0  0  0  0  0
   19.5625  -14.8893  -16.1676 C   0  0  0  0  0  0  0  0  0  0  0  0
   20.6378  -14.4413  -16.6228 O   0  0  0  0  0  0  0  0  0  0  0  0
   17.6000  -10.3491  -15.8342 C   0  0  0  0  0  0  0  0  0  0  0  0
   17.2286   -9.9130  -16.9496 O   0  0  0  0  0  0  0  0  0  0  0  0
   19.5523  -16.2224  -15.8301 O   0  0  0  0  0  0  0  0  0  0  0  0
   18.0883   -9.5409  -14.8000 N   0  0  0  0  0  0  0  0  0  0  0  0
   18.3361   -8.1761  -14.6709 C   0  0  1  0  0  0  0  0  0  0  0  0
   17.3136   -7.4249  -13.8466 C   0  0  0  0  0  0  0  0  0  0  0  0
   15.9393   -7.5257  -14.3397 C   0  0  0  0  0  0  0  0  0  0  0  0
   15.4891   -7.1392  -15.5682 C   0  0  0  0  0  0  0  0  0  0  0  0
   14.1770   -7.3703  -15.6591 N   0  0  0  0  0  0  0  0  0  0  0  0
   13.8110   -7.9111  -14.4635 C   0  0  0  0  0  0  0  0  0  0  0  0
   14.8768   -7.9967  -13.6791 N   0  0  0  0  0  0  0  0  0  0  0  0
   19.7268   -7.6998  -14.4744 C   0  0  0  0  0  0  0  0  0  0  0  0
   20.4878   -8.0682  -13.5442 O   0  0  0  0  0  0  0  0  0  0  0  0
   20.3368   -6.7481  -15.3687 N   0  0  0  0  0  0  0  0  0  0  0  0
   21.7137   -6.3084  -15.1590 C   0  0  1  0  0  0  0  0  0  0  0  0
   22.1555   -5.7429  -16.4806 C   0  0  0  0  0  0  0  0  0  0  0  0
   23.5012   -5.1592  -16.5179 C   0  0  0  0  0  0  0  0  0  0  0  0
   24.7209   -5.8596  -16.5310 C   0  0  0  0  0  0  0  0  0  0  0  0
   25.7248   -4.9904  -16.5222 N   0  0  0  0  0  0  0  0  0  0  0  0
   25.2578   -3.6987  -16.5059 C   0  0  0  0  0  0  0  0  0  0  0  0
   25.9131   -2.4907  -16.4980 C   0  0  0  0  0  0  0  0  0  0  0  0
   25.1650   -1.3409  -16.4887 C   0  0  0  0  0  0  0  0  0  0  0  0
   23.7939   -1.4413  -16.4877 C   0  0  0  0  0  0  0  0  0  0  0  0
   23.1552   -2.6500  -16.4943 C   0  0  0  0  0  0  0  0  0  0  0  0
   23.8782   -3.8453  -16.5026 C   0  0  0  0  0  0  0  0  0  0  0  0
   21.8847   -5.4175  -14.0112 C   0  0  0  0  0  0  0  0  0  0  0  0
   21.0050   -4.5553  -13.6517 O   0  0  0  0  0  0  0  0  0  0  0  0
   23.0150   -5.4394  -13.2175 O   0  0  0  0  0  0  0  0  0  0  0  0
  2  1  1  6
  2  3  1  0
  3  4  1  0
  4  5  1  0
  5  9  1  0
  6  5  2  0
  7  2  1  0
  7  8  2  0
 10  7  1  0
 11 10  1  0
 11 12  1  1
 13 14  2  0
 13 12  1  0
 15 14  1  0
 16 17  2  0
 16 15  1  0
 17 13  1  0
 18 11  1  0
 19 18  2  0
 20 18  1  0
 21 20  1  0
 21 22  1  6
 22 23  1  0
 23 31  1  0
 24 25  1  0
 24 23  2  0
 25 26  1  0
 26 31  2  0
 26 27  1  0
 27 28  2  0
 28 29  1  0
 30 29  2  0
 31 30  1  0
 32 21  1  0
 32 34  1  0
 33 32  2  0
M  END
$$$$
