EHW.pdb
     RDKit          3D

 34 36  0  0  1  0  0  0  0  0999 V2000
   31.0909  -29.7111  -18.1589 N   0  0  0  0  0  0  0  0  0  0  0  0
   31.6259  -30.8490  -17.4655 C   0  0  1  0  0  0  0  0  0  0  0  0
   30.9459  -31.1061  -16.1956 C   0  0  0  0  0  0  0  0  0  0  0  0
   29.5581  -31.6908  -16.4630 C   0  0  0  0  0  0  0  0  0  0  0  0
   28.7973  -31.9072  -15.2133 C   0  0  0  0  0  0  0  0  0  0  0  0
   27.6761  -31.4221  -14.9455 O   0  0  0  0  0  0  0  0  0  0  0  0
   31.8313  -32.0323  -18.3620 C   0  0  0  0  0  0  0  0  0  0  0  0
   31.1790  -31.9933  -19.4321 O   0  0  0  0  0  0  0  0  0  0  0  0
   29.3579  -32.7136  -14.2506 O   0  0  0  0  0  0  0  0  0  0  0  0
   32.6926  -33.0780  -18.0071 N   0  0  0  0  0  0  0  0  0  0  0  0
   33.0377  -34.2921  -18.5966 C   0  0  1  0  0  0  0  0  0  0  0  0
   33.9687  -35.1521  -17.7702 C   0  0  0  0  0  0  0  0  0  0  0  0
   34.9494  -35.9109  -18.5479 C   0  0  0  0  0  0  0  0  0  0  0  0
   34.9684  -36.0587  -19.9039 C   0  0  0  0  0  0  0  0  0  0  0  0
   36.0012  -36.8279  -20.2576 N   0  0  0  0  0  0  0  0  0  0  0  0
   36.6321  -37.1600  -19.0968 C   0  0  0  0  0  0  0  0  0  0  0  0
   35.9898  -36.6060  -18.0774 N   0  0  0  0  0  0  0  0  0  0  0  0
   32.0104  -35.0653  -19.3357 C   0  0  0  0  0  0  0  0  0  0  0  0
   30.7981  -35.1420  -19.0122 O   0  0  0  0  0  0  0  0  0  0  0  0
   32.3323  -35.8107  -20.5265 N   0  0  0  0  0  0  0  0  0  0  0  0
   31.2856  -36.4975  -21.2788 C   0  0  1  0  0  0  0  0  0  0  0  0
   30.2456  -35.4483  -21.5603 C   0  0  0  0  0  0  0  0  0  0  0  0
   29.0918  -35.8779  -22.3585 C   0  0  0  0  0  0  0  0  0  0  0  0
   27.9126  -36.4749  -21.8775 C   0  0  0  0  0  0  0  0  0  0  0  0
   27.1178  -36.7617  -22.9019 N   0  0  0  0  0  0  0  0  0  0  0  0
   27.6926  -36.3857  -24.0915 C   0  0  0  0  0  0  0  0  0  0  0  0
   27.2487  -36.4762  -25.3890 C   0  0  0  0  0  0  0  0  0  0  0  0
   28.0559  -36.0003  -26.3909 C   0  0  0  0  0  0  0  0  0  0  0  0
   29.2728  -35.4534  -26.0594 C   0  0  0  0  0  0  0  0  0  0  0  0
   29.7022  -35.3709  -24.7641 C   0  0  0  0  0  0  0  0  0  0  0  0
   28.9127  -35.8444  -23.7133 C   0  0  0  0  0  0  0  0  0  0  0  0
   31.7747  -37.2211  -22.4525 C   0  0  0  0  0  0  0  0  0  0  0  0
   32.7819  -36.8361  -23.1479 O   0  0  0  0  0  0  0  0  0  0  0  0
   31.1863  -38.3868  -22.9032 O   0  0  0  0  0  0  0  0  0  0  0  0
  2  1  1  6
  2  3  1  0
  3  4  1  0
  4  5  1  0
  5  9  1  0
  6  5  2  0
  7  2  1  0
  7  8  2  0
 10  7  1  0
 11 10  1  0
 11 12  1  1
 13 14  2  0
 13 12  1  0
 15 14  1  0
 16 17  2  0
 16 15  1  0
 17 13  1  0
 18 11  1  0
 19 18  2  0
 20 18  1  0
 21 20  1  0
 21 22  1  6
 22 23  1  0
 23 31  1  0
 24 25  1  0
 24 23  2  0
 25 26  1  0
 26 31  2  0
 26 27  1  0
 27 28  2  0
 28 29  1  0
 30 29  2  0
 31 30  1  0
 32 21  1  0
 32 34  1  0
 33 32  2  0
M  END
$$$$
