EHW.pdb
     RDKit          3D

 34 36  0  0  1  0  0  0  0  0999 V2000
   29.3995  -21.5299  -19.2880 N   0  0  0  0  0  0  0  0  0  0  0  0
   29.3878  -22.3494  -18.1088 C   0  0  1  0  0  0  0  0  0  0  0  0
   30.6967  -22.9344  -17.8162 C   0  0  0  0  0  0  0  0  0  0  0  0
   31.3866  -23.3334  -19.1216 C   0  0  0  0  0  0  0  0  0  0  0  0
   30.8197  -24.5748  -19.6917 C   0  0  0  0  0  0  0  0  0  0  0  0
   31.2591  -25.1902  -20.6878 O   0  0  0  0  0  0  0  0  0  0  0  0
   28.6753  -21.7038  -16.9592 C   0  0  0  0  0  0  0  0  0  0  0  0
   29.4171  -21.3883  -15.9988 O   0  0  0  0  0  0  0  0  0  0  0  0
   29.7116  -25.1149  -19.0820 O   0  0  0  0  0  0  0  0  0  0  0  0
   27.2932  -21.4801  -16.9881 N   0  0  0  0  0  0  0  0  0  0  0  0
   26.3904  -20.8769  -16.1154 C   0  0  1  0  0  0  0  0  0  0  0  0
   25.2601  -20.1328  -16.7923 C   0  0  0  0  0  0  0  0  0  0  0  0
   24.3411  -19.4551  -15.8767 C   0  0  0  0  0  0  0  0  0  0  0  0
   24.4517  -18.1748  -15.4187 C   0  0  0  0  0  0  0  0  0  0  0  0
   23.4389  -17.9046  -14.5913 N   0  0  0  0  0  0  0  0  0  0  0  0
   22.6883  -19.0403  -14.5390 C   0  0  0  0  0  0  0  0  0  0  0  0
   23.2415  -19.9646  -15.3124 N   0  0  0  0  0  0  0  0  0  0  0  0
   25.9808  -21.5870  -14.8794 C   0  0  0  0  0  0  0  0  0  0  0  0
   25.7585  -22.8218  -14.8004 O   0  0  0  0  0  0  0  0  0  0  0  0
   25.8045  -20.8934  -13.6283 N   0  0  0  0  0  0  0  0  0  0  0  0
   25.3923  -21.6178  -12.4289 C   0  0  1  0  0  0  0  0  0  0  0  0
   26.6161  -21.6699  -11.5565 C   0  0  0  0  0  0  0  0  0  0  0  0
   26.5129  -20.9991  -10.2555 C   0  0  0  0  0  0  0  0  0  0  0  0
   25.3459  -20.4768   -9.6695 C   0  0  0  0  0  0  0  0  0  0  0  0
   25.6551  -19.9079   -8.5101 N   0  0  0  0  0  0  0  0  0  0  0  0
   27.0007  -20.0118   -8.2539 C   0  0  0  0  0  0  0  0  0  0  0  0
   27.7641  -19.5846   -7.1940 C   0  0  0  0  0  0  0  0  0  0  0  0
   29.1112  -19.8432   -7.2123 C   0  0  0  0  0  0  0  0  0  0  0  0
   29.6431  -20.5171   -8.2859 C   0  0  0  0  0  0  0  0  0  0  0  0
   28.8718  -20.9352   -9.3343 C   0  0  0  0  0  0  0  0  0  0  0  0
   27.4963  -20.6918   -9.3569 C   0  0  0  0  0  0  0  0  0  0  0  0
   24.1935  -21.0752  -11.7896 C   0  0  0  0  0  0  0  0  0  0  0  0
   23.8798  -19.8314  -11.8219 O   0  0  0  0  0  0  0  0  0  0  0  0
   23.2978  -21.8684  -11.0993 O   0  0  0  0  0  0  0  0  0  0  0  0
  2  1  1  6
  2  3  1  0
  3  4  1  0
  4  5  1  0
  5  9  1  0
  6  5  2  0
  7  2  1  0
  7  8  2  0
 10  7  1  0
 11 10  1  0
 11 12  1  6
 13 14  2  0
 13 12  1  0
 15 14  1  0
 16 17  2  0
 16 15  1  0
 17 13  1  0
 18 11  1  0
 19 18  2  0
 20 18  1  0
 21 20  1  0
 21 22  1  1
 22 23  1  0
 23 31  1  0
 24 25  1  0
 24 23  2  0
 25 26  1  0
 26 31  2  0
 26 27  1  0
 27 28  2  0
 28 29  1  0
 30 29  2  0
 31 30  1  0
 32 21  1  0
 32 34  1  0
 33 32  2  0
M  END
$$$$
