EHW.pdb
     RDKit          3D

 34 36  0  0  1  0  0  0  0  0999 V2000
   15.2848  -20.6651    1.3978 N   0  0  0  0  0  0  0  0  0  0  0  0
   15.1047  -20.4317    2.8032 C   0  0  1  0  0  0  0  0  0  0  0  0
   14.4609  -21.5560    3.4832 C   0  0  0  0  0  0  0  0  0  0  0  0
   13.0754  -21.7975    2.8820 C   0  0  0  0  0  0  0  0  0  0  0  0
   12.1219  -20.7243    3.2375 C   0  0  0  0  0  0  0  0  0  0  0  0
   12.3913  -19.6927    3.8913 O   0  0  0  0  0  0  0  0  0  0  0  0
   16.3283  -19.8687    3.4604 C   0  0  0  0  0  0  0  0  0  0  0  0
   17.3765  -20.5261    3.2579 O   0  0  0  0  0  0  0  0  0  0  0  0
   10.8192  -20.8561    2.8170 O   0  0  0  0  0  0  0  0  0  0  0  0
   16.2733  -18.6985    4.2279 N   0  0  0  0  0  0  0  0  0  0  0  0
   17.2246  -17.9347    4.9004 C   0  0  1  0  0  0  0  0  0  0  0  0
   16.8450  -16.4829    5.0945 C   0  0  0  0  0  0  0  0  0  0  0  0
   17.2763  -15.5904    4.0177 C   0  0  0  0  0  0  0  0  0  0  0  0
   18.0446  -15.9303    2.9429 C   0  0  0  0  0  0  0  0  0  0  0  0
   18.2467  -14.8551    2.1770 N   0  0  0  0  0  0  0  0  0  0  0  0
   17.5891  -13.8322    2.7912 C   0  0  0  0  0  0  0  0  0  0  0  0
   17.0130  -14.2854    3.8963 N   0  0  0  0  0  0  0  0  0  0  0  0
   17.9523  -18.5200    6.0525 C   0  0  0  0  0  0  0  0  0  0  0  0
   17.4487  -19.3019    6.8982 O   0  0  0  0  0  0  0  0  0  0  0  0
   19.3430  -18.2316    6.2978 N   0  0  0  0  0  0  0  0  0  0  0  0
   19.9928  -18.6932    7.5217 C   0  0  1  0  0  0  0  0  0  0  0  0
   21.4671  -18.6535    7.2277 C   0  0  0  0  0  0  0  0  0  0  0  0
   22.3588  -18.9995    8.3404 C   0  0  0  0  0  0  0  0  0  0  0  0
   22.5425  -20.2746    8.9049 C   0  0  0  0  0  0  0  0  0  0  0  0
   23.3949  -20.1856    9.9193 N   0  0  0  0  0  0  0  0  0  0  0  0
   23.8231  -18.8916   10.0907 C   0  0  0  0  0  0  0  0  0  0  0  0
   24.6952  -18.3302   10.9923 C   0  0  0  0  0  0  0  0  0  0  0  0
   24.9383  -16.9824   10.9145 C   0  0  0  0  0  0  0  0  0  0  0  0
   24.3026  -16.2485    9.9414 C   0  0  0  0  0  0  0  0  0  0  0  0
   23.4362  -16.8200    9.0516 C   0  0  0  0  0  0  0  0  0  0  0  0
   23.1591  -18.1886    9.0959 C   0  0  0  0  0  0  0  0  0  0  0  0
   19.5771  -17.9707    8.7240 C   0  0  0  0  0  0  0  0  0  0  0  0
   19.3453  -16.7088    8.7425 O   0  0  0  0  0  0  0  0  0  0  0  0
   19.3973  -18.5984    9.9413 O   0  0  0  0  0  0  0  0  0  0  0  0
  2  1  1  6
  2  3  1  0
  3  4  1  0
  4  5  1  0
  5  9  1  0
  6  5  2  0
  7  2  1  0
  7  8  2  0
 10  7  1  0
 11 10  1  0
 11 12  1  1
 13 14  2  0
 13 12  1  0
 15 14  1  0
 16 17  2  0
 16 15  1  0
 17 13  1  0
 18 11  1  0
 19 18  2  0
 20 18  1  0
 21 20  1  0
 21 22  1  6
 22 23  1  0
 23 31  1  0
 24 25  1  0
 24 23  2  0
 25 26  1  0
 26 31  2  0
 26 27  1  0
 27 28  2  0
 28 29  1  0
 30 29  2  0
 31 30  1  0
 32 21  1  0
 32 34  1  0
 33 32  2  0
M  END
$$$$
