QDG.pdb
     RDKit          3D

 22 21  0  0  1  0  0  0  0  0999 V2000
   13.2880  -20.7135   18.7709 N   0  0  0  0  0  0  0  0  0  0  0  0
   12.3861  -19.6515   18.4706 C   0  0  0  0  0  0  0  0  0  0  0  0
   12.3501  -19.2688   17.2798 O   0  0  0  0  0  0  0  0  0  0  0  0
   11.5611  -19.0576   19.5126 C   0  0  0  0  0  0  0  0  0  0  0  0
   11.7567  -19.5248   20.8968 C   0  0  0  0  0  0  0  0  0  0  0  0
   10.8469  -18.9845   21.9457 C   0  0  2  0  0  0  0  0  0  0  0  0
   10.0286  -17.8903   21.5914 N   0  0  0  0  0  0  0  0  0  0  0  0
   11.6482  -18.6756   23.1725 C   0  0  0  0  0  0  0  0  0  0  0  0
   11.4154  -19.3120   24.2558 O   0  0  0  0  0  0  0  0  0  0  0  0
   12.6661  -17.6940   23.1743 N   0  0  0  0  0  0  0  0  0  0  0  0
   13.6995  -17.6625   24.2382 C   0  0  1  0  0  0  0  0  0  0  0  0
   14.4059  -19.0142   24.2312 C   0  0  0  0  0  0  0  0  0  0  0  0
   14.3131  -19.6819   25.5443 C   0  0  0  0  0  0  0  0  0  0  0  0
   14.6613  -19.0715   26.6185 O   0  0  0  0  0  0  0  0  0  0  0  0
   14.5873  -16.5274   23.9746 C   0  0  0  0  0  0  0  0  0  0  0  0
   15.4063  -16.1614   24.8966 O   0  0  0  0  0  0  0  0  0  0  0  0
   13.8561  -20.9790   25.7130 O   0  0  0  0  0  0  0  0  0  0  0  0
   14.6370  -15.7769   22.7834 N   0  0  0  0  0  0  0  0  0  0  0  0
   15.4349  -14.5780   22.7089 C   0  0  0  0  0  0  0  0  0  0  0  0
   16.8190  -14.9198   22.3315 C   0  0  0  0  0  0  0  0  0  0  0  0
   17.6438  -13.9519   21.7999 O   0  0  0  0  0  0  0  0  0  0  0  0
   17.2926  -16.0814   22.4781 O   0  0  0  0  0  0  0  0  0  0  0  0
  2  1  1  0
  2  3  2  0
  4  2  1  0
  5  4  1  0
  6  5  1  0
  6  7  1  6
  8  6  1  0
  8 10  1  0
  9  8  2  0
 11 10  1  0
 11 15  1  0
 12 13  1  0
 11 12  1  6
 13 14  2  0
 15 18  1  0
 16 15  2  0
 17 13  1  0
 18 19  1  0
 19 20  1  0
 20 21  1  0
 22 20  2  0
M  END
$$$$
