QDG.pdb
     RDKit          3D

 22 21  0  0  1  0  0  0  0  0999 V2000
    8.6461  -11.8498   19.3870 N   0  0  0  0  0  0  0  0  0  0  0  0
    7.9759  -13.1013   19.5134 C   0  0  0  0  0  0  0  0  0  0  0  0
    8.0053  -13.8543   18.5144 O   0  0  0  0  0  0  0  0  0  0  0  0
    7.2976  -13.4617   20.7500 C   0  0  0  0  0  0  0  0  0  0  0  0
    7.9855  -14.3858   21.6693 C   0  0  0  0  0  0  0  0  0  0  0  0
    8.4027  -15.7125   21.1347 C   0  0  2  0  0  0  0  0  0  0  0  0
    7.3889  -16.5534   20.6273 N   0  0  0  0  0  0  0  0  0  0  0  0
    9.2136  -16.4226   22.1743 C   0  0  0  0  0  0  0  0  0  0  0  0
    8.6463  -17.2611   22.9539 O   0  0  0  0  0  0  0  0  0  0  0  0
   10.6013  -16.1962   22.3248 N   0  0  0  0  0  0  0  0  0  0  0  0
   11.3924  -16.9310   23.3421 C   0  0  1  0  0  0  0  0  0  0  0  0
   12.8604  -16.8319   22.9405 C   0  0  0  0  0  0  0  0  0  0  0  0
   13.1114  -17.4786   21.6376 C   0  0  0  0  0  0  0  0  0  0  0  0
   12.7519  -18.6925   21.4259 O   0  0  0  0  0  0  0  0  0  0  0  0
   11.0955  -16.3500   24.6538 C   0  0  0  0  0  0  0  0  0  0  0  0
   10.9145  -15.0791   24.7357 O   0  0  0  0  0  0  0  0  0  0  0  0
   13.7345  -16.8437   20.5752 O   0  0  0  0  0  0  0  0  0  0  0  0
   10.9847  -17.0598   25.8657 N   0  0  0  0  0  0  0  0  0  0  0  0
   10.6977  -16.3638   27.0956 C   0  0  0  0  0  0  0  0  0  0  0  0
   10.7184  -17.3121   28.2248 C   0  0  0  0  0  0  0  0  0  0  0  0
   10.5972  -16.8442   29.5156 O   0  0  0  0  0  0  0  0  0  0  0  0
   10.8425  -18.5580   28.0592 O   0  0  0  0  0  0  0  0  0  0  0  0
  2  1  1  0
  2  3  2  0
  4  2  1  0
  5  4  1  0
  6  5  1  0
  6  7  1  1
  8  6  1  0
  8 10  1  0
  9  8  2  0
 11 10  1  0
 11 15  1  0
 12 13  1  0
 11 12  1  6
 13 14  2  0
 15 18  1  0
 16 15  2  0
 17 13  1  0
 18 19  1  0
 19 20  1  0
 20 21  1  0
 22 20  2  0
M  END
$$$$
