QDG.pdb
     RDKit          3D

 22 21  0  0  1  0  0  0  0  0999 V2000
    7.9260  -19.9189   17.1822 N   0  0  0  0  0  0  0  0  0  0  0  0
    8.0135  -18.5007   17.0704 C   0  0  0  0  0  0  0  0  0  0  0  0
    7.8269  -18.0174   15.9313 O   0  0  0  0  0  0  0  0  0  0  0  0
    8.3080  -17.6783   18.2348 C   0  0  0  0  0  0  0  0  0  0  0  0
    8.5285  -18.3605   19.5226 C   0  0  0  0  0  0  0  0  0  0  0  0
    8.8922  -17.5208   20.6984 C   0  0  2  0  0  0  0  0  0  0  0  0
    8.7403  -16.1236   20.5675 N   0  0  0  0  0  0  0  0  0  0  0  0
   10.2830  -17.8674   21.1320 C   0  0  0  0  0  0  0  0  0  0  0  0
   10.5999  -19.0912   21.3185 O   0  0  0  0  0  0  0  0  0  0  0  0
   11.2699  -16.8770   21.3437 N   0  0  0  0  0  0  0  0  0  0  0  0
   12.6226  -17.2351   21.8366 C   0  0  1  0  0  0  0  0  0  0  0  0
   13.6340  -16.4380   21.0196 C   0  0  0  0  0  0  0  0  0  0  0  0
   14.0118  -17.1477   19.7817 C   0  0  0  0  0  0  0  0  0  0  0  0
   13.9459  -18.4278   19.7115 O   0  0  0  0  0  0  0  0  0  0  0  0
   12.6696  -16.9569   23.2742 C   0  0  0  0  0  0  0  0  0  0  0  0
   13.3172  -15.9215   23.6784 O   0  0  0  0  0  0  0  0  0  0  0  0
   14.4522  -16.5061   18.6354 O   0  0  0  0  0  0  0  0  0  0  0  0
   12.0620  -17.7276   24.2850 N   0  0  0  0  0  0  0  0  0  0  0  0
   12.1418  -17.3153   25.6646 C   0  0  0  0  0  0  0  0  0  0  0  0
   11.2701  -18.1682   26.4938 C   0  0  0  0  0  0  0  0  0  0  0  0
   11.1648  -17.9304   27.8473 O   0  0  0  0  0  0  0  0  0  0  0  0
   10.6013  -19.1241   26.0100 O   0  0  0  0  0  0  0  0  0  0  0  0
  2  1  1  0
  2  3  2  0
  4  2  1  0
  5  4  1  0
  6  5  1  0
  6  7  1  6
  8  6  1  0
  8 10  1  0
  9  8  2  0
 11 10  1  0
 11 15  1  0
 12 13  1  0
 11 12  1  6
 13 14  2  0
 15 18  1  0
 16 15  2  0
 17 13  1  0
 18 19  1  0
 19 20  1  0
 20 21  1  0
 22 20  2  0
M  END
$$$$
