QDG.pdb
     RDKit          3D

 22 21  0  0  1  0  0  0  0  0999 V2000
    9.4516  -27.1649   45.2944 N   0  0  0  0  0  0  0  0  0  0  0  0
   10.1698  -26.1061   44.6662 C   0  0  0  0  0  0  0  0  0  0  0  0
    9.5719  -25.4876   43.7574 O   0  0  0  0  0  0  0  0  0  0  0  0
   11.5281  -25.7810   45.0765 C   0  0  0  0  0  0  0  0  0  0  0  0
   12.5768  -25.7690   44.0408 C   0  0  0  0  0  0  0  0  0  0  0  0
   12.8770  -27.0511   43.3436 C   0  0  2  0  0  0  0  0  0  0  0  0
   13.3612  -28.1178   44.1310 N   0  0  0  0  0  0  0  0  0  0  0  0
   13.7973  -26.7760   42.1947 C   0  0  0  0  0  0  0  0  0  0  0  0
   15.0609  -26.8655   42.3622 O   0  0  0  0  0  0  0  0  0  0  0  0
   13.3117  -26.4175   40.9159 N   0  0  0  0  0  0  0  0  0  0  0  0
   14.2370  -26.2055   39.7759 C   0  0  1  0  0  0  0  0  0  0  0  0
   13.6169  -26.8719   38.5522 C   0  0  0  0  0  0  0  0  0  0  0  0
   14.5086  -26.7894   37.3789 C   0  0  0  0  0  0  0  0  0  0  0  0
   14.0645  -26.3916   36.2421 O   0  0  0  0  0  0  0  0  0  0  0  0
   14.4467  -24.7635   39.6241 C   0  0  0  0  0  0  0  0  0  0  0  0
   13.4178  -23.9916   39.6098 O   0  0  0  0  0  0  0  0  0  0  0  0
   15.8528  -27.1239   37.4139 O   0  0  0  0  0  0  0  0  0  0  0  0
   15.6925  -24.1196   39.4892 N   0  0  0  0  0  0  0  0  0  0  0  0
   15.7589  -22.6930   39.2896 C   0  0  0  0  0  0  0  0  0  0  0  0
   15.8778  -22.0098   40.5912 C   0  0  0  0  0  0  0  0  0  0  0  0
   16.0679  -20.6454   40.6347 O   0  0  0  0  0  0  0  0  0  0  0  0
   15.8102  -22.6303   41.6892 O   0  0  0  0  0  0  0  0  0  0  0  0
  2  1  1  0
  2  3  2  0
  4  2  1  0
  5  4  1  0
  6  5  1  0
  6  7  1  1
  8  6  1  0
  8 10  1  0
  9  8  2  0
 11 10  1  0
 11 15  1  0
 12 13  1  0
 11 12  1  6
 13 14  2  0
 15 18  1  0
 16 15  2  0
 17 13  1  0
 18 19  1  0
 19 20  1  0
 20 21  1  0
 22 20  2  0
M  END
$$$$
