QDG.pdb
     RDKit          3D

 22 21  0  0  1  0  0  0  0  0999 V2000
    8.0691  -15.1623   16.9710 N   0  0  0  0  0  0  0  0  0  0  0  0
    7.9302  -13.8278   16.4900 C   0  0  0  0  0  0  0  0  0  0  0  0
    7.9372  -13.6781   15.2476 O   0  0  0  0  0  0  0  0  0  0  0  0
    7.7907  -12.7130   17.4156 C   0  0  0  0  0  0  0  0  0  0  0  0
    7.6645  -13.0208   18.8514 C   0  0  0  0  0  0  0  0  0  0  0  0
    8.9109  -13.3338   19.6053 C   0  0  2  0  0  0  0  0  0  0  0  0
   10.0214  -13.7856   18.8604 N   0  0  0  0  0  0  0  0  0  0  0  0
    8.5841  -14.2915   20.7091 C   0  0  0  0  0  0  0  0  0  0  0  0
    7.6805  -13.9895   21.5606 O   0  0  0  0  0  0  0  0  0  0  0  0
    9.2470  -15.5333   20.8435 N   0  0  0  0  0  0  0  0  0  0  0  0
    9.0455  -16.3847   22.0416 C   0  0  1  0  0  0  0  0  0  0  0  0
    8.4432  -17.7042   21.5702 C   0  0  0  0  0  0  0  0  0  0  0  0
    9.2676  -18.3324   20.5194 C   0  0  0  0  0  0  0  0  0  0  0  0
   10.4123  -17.8454   20.2026 O   0  0  0  0  0  0  0  0  0  0  0  0
   10.3373  -16.5297   22.7172 C   0  0  0  0  0  0  0  0  0  0  0  0
   10.3768  -17.1604   23.8377 O   0  0  0  0  0  0  0  0  0  0  0  0
    8.8813  -19.4622   19.8164 O   0  0  0  0  0  0  0  0  0  0  0  0
   11.5725  -16.0364   22.2526 N   0  0  0  0  0  0  0  0  0  0  0  0
   12.7562  -16.1472   23.0688 C   0  0  0  0  0  0  0  0  0  0  0  0
   13.9029  -15.5325   22.3746 C   0  0  0  0  0  0  0  0  0  0  0  0
   15.1477  -15.5411   22.9664 O   0  0  0  0  0  0  0  0  0  0  0  0
   13.7943  -14.9896   21.2394 O   0  0  0  0  0  0  0  0  0  0  0  0
  2  1  1  0
  2  3  2  0
  4  2  1  0
  5  4  1  0
  6  5  1  0
  6  7  1  6
  8  6  1  0
  8 10  1  0
  9  8  2  0
 11 10  1  0
 11 15  1  0
 12 13  1  0
 11 12  1  6
 13 14  2  0
 15 18  1  0
 16 15  2  0
 17 13  1  0
 18 19  1  0
 19 20  1  0
 20 21  1  0
 22 20  2  0
M  END
$$$$
