QDG.pdb
     RDKit          3D

 22 21  0  0  1  0  0  0  0  0999 V2000
    7.0290  -15.1931   18.1617 N   0  0  0  0  0  0  0  0  0  0  0  0
    7.3152  -13.8194   17.9118 C   0  0  0  0  0  0  0  0  0  0  0  0
    7.3472  -13.4645   16.7123 O   0  0  0  0  0  0  0  0  0  0  0  0
    7.5562  -12.8965   19.0115 C   0  0  0  0  0  0  0  0  0  0  0  0
    7.4759  -13.4249   20.3851 C   0  0  0  0  0  0  0  0  0  0  0  0
    8.7006  -14.0486   20.9604 C   0  0  2  0  0  0  0  0  0  0  0  0
    9.3591  -15.0222   20.1788 N   0  0  0  0  0  0  0  0  0  0  0  0
    8.3798  -14.5851   22.3211 C   0  0  0  0  0  0  0  0  0  0  0  0
    7.8936  -13.8053   23.2090 O   0  0  0  0  0  0  0  0  0  0  0  0
    8.5975  -15.9401   22.6620 N   0  0  0  0  0  0  0  0  0  0  0  0
    8.4047  -16.4219   24.0518 C   0  0  1  0  0  0  0  0  0  0  0  0
    7.3701  -17.5417   24.0094 C   0  0  0  0  0  0  0  0  0  0  0  0
    5.9936  -17.0108   24.0555 C   0  0  0  0  0  0  0  0  0  0  0  0
    5.7016  -16.0037   24.7959 O   0  0  0  0  0  0  0  0  0  0  0  0
    9.7092  -16.8385   24.5724 C   0  0  0  0  0  0  0  0  0  0  0  0
    9.7828  -17.2448   25.7907 O   0  0  0  0  0  0  0  0  0  0  0  0
    4.9433  -17.5421   23.3245 O   0  0  0  0  0  0  0  0  0  0  0  0
   10.9223  -16.8398   23.8560 N   0  0  0  0  0  0  0  0  0  0  0  0
   12.1535  -17.2150   24.5063 C   0  0  0  0  0  0  0  0  0  0  0  0
   13.1988  -16.2164   24.2147 C   0  0  0  0  0  0  0  0  0  0  0  0
   13.6025  -15.3392   25.1982 O   0  0  0  0  0  0  0  0  0  0  0  0
   13.7529  -16.1282   23.0832 O   0  0  0  0  0  0  0  0  0  0  0  0
  2  1  1  0
  2  3  2  0
  4  2  1  0
  5  4  1  0
  6  5  1  0
  6  7  1  6
  8  6  1  0
  8 10  1  0
  9  8  2  0
 11 10  1  0
 11 15  1  0
 12 13  1  0
 11 12  1  6
 13 14  2  0
 15 18  1  0
 16 15  2  0
 17 13  1  0
 18 19  1  0
 19 20  1  0
 20 21  1  0
 22 20  2  0
M  END
$$$$
