QDG.pdb
     RDKit          3D

 22 21  0  0  1  0  0  0  0  0999 V2000
    7.2510  -11.7156   18.5201 N   0  0  0  0  0  0  0  0  0  0  0  0
    7.8928  -12.9677   18.2929 C   0  0  0  0  0  0  0  0  0  0  0  0
    7.2767  -13.7899   17.5785 O   0  0  0  0  0  0  0  0  0  0  0  0
    9.1966  -13.2530   18.8740 C   0  0  0  0  0  0  0  0  0  0  0  0
    9.2648  -14.2481   19.9592 C   0  0  0  0  0  0  0  0  0  0  0  0
   10.6074  -14.5748   20.5164 C   0  0  2  0  0  0  0  0  0  0  0  0
   11.6820  -14.6636   19.6055 N   0  0  0  0  0  0  0  0  0  0  0  0
   10.5021  -15.8213   21.3397 C   0  0  0  0  0  0  0  0  0  0  0  0
    9.3751  -16.1527   21.8426 O   0  0  0  0  0  0  0  0  0  0  0  0
   11.6183  -16.6549   21.5821 N   0  0  0  0  0  0  0  0  0  0  0  0
   11.4865  -17.9021   22.3746 C   0  0  1  0  0  0  0  0  0  0  0  0
   12.3540  -18.9636   21.7063 C   0  0  0  0  0  0  0  0  0  0  0  0
   11.8966  -19.2525   20.3330 C   0  0  0  0  0  0  0  0  0  0  0  0
   12.5903  -18.8841   19.3177 O   0  0  0  0  0  0  0  0  0  0  0  0
   11.8719  -17.6042   23.7563 C   0  0  0  0  0  0  0  0  0  0  0  0
   12.9845  -16.9935   23.9653 O   0  0  0  0  0  0  0  0  0  0  0  0
   10.7196  -19.9239   20.0434 O   0  0  0  0  0  0  0  0  0  0  0  0
   11.1287  -17.9265   24.9090 N   0  0  0  0  0  0  0  0  0  0  0  0
   11.6019  -17.5383   26.2147 C   0  0  0  0  0  0  0  0  0  0  0  0
   12.2606  -18.6835   26.8699 C   0  0  0  0  0  0  0  0  0  0  0  0
   11.6096  -19.3661   27.8749 O   0  0  0  0  0  0  0  0  0  0  0  0
   13.4161  -19.0759   26.5443 O   0  0  0  0  0  0  0  0  0  0  0  0
  2  1  1  0
  2  3  2  0
  4  2  1  0
  5  4  1  0
  6  5  1  0
  6  7  1  6
  8  6  1  0
  8 10  1  0
  9  8  2  0
 11 10  1  0
 11 15  1  0
 12 13  1  0
 11 12  1  6
 13 14  2  0
 15 18  1  0
 16 15  2  0
 17 13  1  0
 18 19  1  0
 19 20  1  0
 20 21  1  0
 22 20  2  0
M  END
$$$$
