MHN.pdb
     RDKit          3D

 27 27  0  0  1  0  0  0  0  0999 V2000
   19.0415  -30.8528  -13.2399 C   0  0  0  0  0  0  0  0  0  0  0  0
   18.8255  -29.0469  -13.0691 S   0  0  0  0  0  0  0  0  0  0  0  0
   19.8486  -28.4927  -11.6476 C   0  0  0  0  0  0  0  0  0  0  0  0
   20.4609  -29.6840  -10.9971 C   0  0  0  0  0  0  0  0  0  0  0  0
   21.2979  -29.3951   -9.7770 C   0  0  2  0  0  0  0  0  0  0  0  0
   22.3574  -28.4996  -10.2301 N   0  0  0  0  0  0  0  0  0  0  0  0
   21.8591  -30.6703   -9.2779 C   0  0  0  0  0  0  0  0  0  0  0  0
   21.1008  -31.5694   -8.8881 O   0  0  0  0  0  0  0  0  0  0  0  0
   23.2540  -30.9391   -9.2147 N   0  0  0  0  0  0  0  0  0  0  0  0
   23.8207  -32.1770   -8.7219 C   0  0  1  0  0  0  0  0  0  0  0  0
   25.2768  -32.3018   -9.0658 C   0  0  0  0  0  0  0  0  0  0  0  0
   25.5568  -33.0474  -10.2831 C   0  0  0  0  0  0  0  0  0  0  0  0
   24.7235  -33.8350  -11.0642 C   0  0  0  0  0  0  0  0  0  0  0  0
   25.4350  -34.3285  -12.1051 N   0  0  0  0  0  0  0  0  0  0  0  0
   26.6885  -33.8656  -11.9874 C   0  0  0  0  0  0  0  0  0  0  0  0
   26.7546  -33.0990  -10.8940 N   0  0  0  0  0  0  0  0  0  0  0  0
   23.5306  -32.3996   -7.2919 C   0  0  0  0  0  0  0  0  0  0  0  0
   23.8301  -31.4946   -6.4681 O   0  0  0  0  0  0  0  0  0  0  0  0
   21.8871  -34.1127   -2.6859 N   0  0  0  0  0  0  0  0  0  0  0  0
   20.9631  -33.4682   -3.5745 C   0  0  0  0  0  0  0  0  0  0  0  0
   19.8298  -33.1513   -3.1619 O   0  0  0  0  0  0  0  0  0  0  0  0
   21.3400  -33.1766   -4.9713 C   0  0  0  0  0  0  0  0  0  0  0  0
   22.6936  -33.7101   -5.3688 C   0  0  2  0  0  0  0  0  0  0  0  0
   22.9297  -33.5816   -6.7859 N   0  0  0  0  0  0  0  0  0  0  0  0
   22.7891  -35.1460   -4.9982 C   0  0  0  0  0  0  0  0  0  0  0  0
   22.8911  -36.1246   -6.0090 O   0  0  0  0  0  0  0  0  0  0  0  0
   22.7856  -35.5675   -3.8070 O   0  0  0  0  0  0  0  0  0  0  0  0
  2  1  1  0
  3  2  1  0
  4  5  1  0
  4  3  1  0
  5  6  1  6
  7  8  2  0
  7  5  1  0
  9  7  1  0
 10  9  1  0
 11 12  1  0
 10 11  1  1
 12 13  2  0
 12 16  1  0
 13 14  1  0
 14 15  1  0
 16 15  2  0
 17 18  2  0
 17 10  1  0
 20 21  2  0
 20 19  1  0
 22 20  1  0
 23 24  1  0
 23 22  1  6
 24 17  1  0
 25 23  1  0
 26 25  1  0
 27 25  2  0
M  END
$$$$
