MHN.pdb
     RDKit          3D

 27 27  0  0  1  0  0  0  0  0999 V2000
   21.6913  -13.8969    0.8338 C   0  0  0  0  0  0  0  0  0  0  0  0
   20.1624  -14.8633    1.0893 S   0  0  0  0  0  0  0  0  0  0  0  0
   19.2693  -14.1309    2.5178 C   0  0  0  0  0  0  0  0  0  0  0  0
   18.0758  -14.9668    2.8238 C   0  0  0  0  0  0  0  0  0  0  0  0
   17.2396  -14.4977    3.9873 C   0  0  2  0  0  0  0  0  0  0  0  0
   18.0507  -13.4997    4.6772 N   0  0  0  0  0  0  0  0  0  0  0  0
   16.9635  -15.6559    4.8662 C   0  0  0  0  0  0  0  0  0  0  0  0
   15.9673  -16.3639    4.6619 O   0  0  0  0  0  0  0  0  0  0  0  0
   17.7918  -16.0201    5.9631 N   0  0  0  0  0  0  0  0  0  0  0  0
   17.6059  -17.2152    6.7592 C   0  0  1  0  0  0  0  0  0  0  0  0
   17.5342  -18.4494    5.9073 C   0  0  0  0  0  0  0  0  0  0  0  0
   16.1871  -18.8888    5.5780 C   0  0  0  0  0  0  0  0  0  0  0  0
   14.9582  -18.3281    5.8947 C   0  0  0  0  0  0  0  0  0  0  0  0
   13.9762  -19.0965    5.3670 N   0  0  0  0  0  0  0  0  0  0  0  0
   14.5672  -20.1191    4.7313 C   0  0  0  0  0  0  0  0  0  0  0  0
   15.8914  -19.9887    4.8615 N   0  0  0  0  0  0  0  0  0  0  0  0
   18.5817  -17.3150    7.8621 C   0  0  0  0  0  0  0  0  0  0  0  0
   19.8074  -17.3812    7.5785 O   0  0  0  0  0  0  0  0  0  0  0  0
   20.5340  -15.4417   12.9655 N   0  0  0  0  0  0  0  0  0  0  0  0
   19.9008  -16.6573   12.5410 C   0  0  0  0  0  0  0  0  0  0  0  0
   20.2255  -17.7389   13.0698 O   0  0  0  0  0  0  0  0  0  0  0  0
   18.8696  -16.6407   11.4854 C   0  0  0  0  0  0  0  0  0  0  0  0
   19.2476  -17.4064   10.2421 C   0  0  2  0  0  0  0  0  0  0  0  0
   18.2184  -17.3409    9.2338 N   0  0  0  0  0  0  0  0  0  0  0  0
   19.4837  -18.8317   10.5901 C   0  0  0  0  0  0  0  0  0  0  0  0
   18.4699  -19.7854   10.3607 O   0  0  0  0  0  0  0  0  0  0  0  0
   20.5592  -19.2652   11.0919 O   0  0  0  0  0  0  0  0  0  0  0  0
  2  1  1  0
  3  2  1  0
  4  5  1  0
  4  3  1  0
  5  6  1  1
  7  8  2  0
  7  5  1  0
  9  7  1  0
 10  9  1  0
 11 12  1  0
 10 11  1  6
 12 13  2  0
 12 16  1  0
 13 14  1  0
 14 15  1  0
 16 15  2  0
 17 18  2  0
 17 10  1  0
 20 21  2  0
 20 19  1  0
 22 20  1  0
 23 24  1  0
 23 22  1  1
 24 17  1  0
 25 23  1  0
 26 25  1  0
 27 25  2  0
M  END
$$$$
