MHN.pdb
     RDKit          3D

 27 27  0  0  1  0  0  0  0  0999 V2000
   29.7336  -33.9671  -21.1789 C   0  0  0  0  0  0  0  0  0  0  0  0
   29.1824  -32.6113  -20.0857 S   0  0  0  0  0  0  0  0  0  0  0  0
   28.7542  -33.3446  -18.4568 C   0  0  0  0  0  0  0  0  0  0  0  0
   28.3019  -32.2611  -17.5410 C   0  0  0  0  0  0  0  0  0  0  0  0
   29.3277  -31.1975  -17.2423 C   0  0  2  0  0  0  0  0  0  0  0  0
   30.1749  -31.7525  -16.1916 N   0  0  0  0  0  0  0  0  0  0  0  0
   28.6243  -29.9839  -16.7703 C   0  0  0  0  0  0  0  0  0  0  0  0
   28.3605  -29.8504  -15.5670 O   0  0  0  0  0  0  0  0  0  0  0  0
   28.2193  -28.9293  -17.6339 N   0  0  0  0  0  0  0  0  0  0  0  0
   27.5996  -27.7016  -17.1807 C   0  0  1  0  0  0  0  0  0  0  0  0
   28.3234  -26.4886  -17.6893 C   0  0  0  0  0  0  0  0  0  0  0  0
   29.5826  -26.2014  -17.0200 C   0  0  0  0  0  0  0  0  0  0  0  0
   30.2144  -26.8616  -15.9760 C   0  0  0  0  0  0  0  0  0  0  0  0
   31.3733  -26.2225  -15.6900 N   0  0  0  0  0  0  0  0  0  0  0  0
   31.4743  -25.1828  -16.5315 C   0  0  0  0  0  0  0  0  0  0  0  0
   30.3986  -25.1759  -17.3253 N   0  0  0  0  0  0  0  0  0  0  0  0
   26.1469  -27.6745  -17.4405 C   0  0  0  0  0  0  0  0  0  0  0  0
   25.6998  -28.3109  -18.4317 O   0  0  0  0  0  0  0  0  0  0  0  0
   23.5850  -26.1771  -13.5270 N   0  0  0  0  0  0  0  0  0  0  0  0
   22.9860  -26.8528  -14.6421 C   0  0  0  0  0  0  0  0  0  0  0  0
   22.4682  -27.9751  -14.4773 O   0  0  0  0  0  0  0  0  0  0  0  0
   22.9765  -26.2335  -15.9817 C   0  0  0  0  0  0  0  0  0  0  0  0
   23.8217  -26.9558  -17.0008 C   0  0  2  0  0  0  0  0  0  0  0  0
   25.2166  -26.9687  -16.6340 N   0  0  0  0  0  0  0  0  0  0  0  0
   23.6827  -26.2898  -18.3220 C   0  0  0  0  0  0  0  0  0  0  0  0
   24.5745  -25.2582  -18.6832 O   0  0  0  0  0  0  0  0  0  0  0  0
   22.7969  -26.5893  -19.1717 O   0  0  0  0  0  0  0  0  0  0  0  0
  2  1  1  0
  3  2  1  0
  4  5  1  0
  4  3  1  0
  5  6  1  1
  7  8  2  0
  7  5  1  0
  9  7  1  0
 10  9  1  0
 11 12  1  0
 10 11  1  6
 12 13  2  0
 12 16  1  0
 13 14  1  0
 14 15  1  0
 16 15  2  0
 17 18  2  0
 17 10  1  0
 20 21  2  0
 20 19  1  0
 22 20  1  0
 23 24  1  0
 23 22  1  1
 24 17  1  0
 25 23  1  0
 26 25  1  0
 27 25  2  0
M  END
$$$$
