MHN.pdb
     RDKit          3D

 27 27  0  0  1  0  0  0  0  0999 V2000
   16.9713  -16.7777  -16.2414 C   0  0  0  0  0  0  0  0  0  0  0  0
   17.2816  -16.6776  -18.0388 S   0  0  0  0  0  0  0  0  0  0  0  0
   19.0916  -16.8447  -18.3045 C   0  0  0  0  0  0  0  0  0  0  0  0
   19.7977  -15.8121  -17.4969 C   0  0  0  0  0  0  0  0  0  0  0  0
   19.9054  -14.4522  -18.1387 C   0  0  2  0  0  0  0  0  0  0  0  0
   20.4429  -14.6895  -19.4746 N   0  0  0  0  0  0  0  0  0  0  0  0
   20.8310  -13.6237  -17.3345 C   0  0  0  0  0  0  0  0  0  0  0  0
   20.5588  -13.3596  -16.1548 O   0  0  0  0  0  0  0  0  0  0  0  0
   22.0493  -13.0948  -17.8426 N   0  0  0  0  0  0  0  0  0  0  0  0
   22.8829  -12.1485  -17.1311 C   0  0  1  0  0  0  0  0  0  0  0  0
   24.2714  -12.0887  -17.6989 C   0  0  0  0  0  0  0  0  0  0  0  0
   25.2044  -11.2619  -16.9492 C   0  0  0  0  0  0  0  0  0  0  0  0
   26.0395  -11.5867  -15.8900 C   0  0  0  0  0  0  0  0  0  0  0  0
   26.7272  -10.4811  -15.5184 N   0  0  0  0  0  0  0  0  0  0  0  0
   26.3381   -9.4799  -16.3217 C   0  0  0  0  0  0  0  0  0  0  0  0
   25.4260   -9.9543  -17.1764 N   0  0  0  0  0  0  0  0  0  0  0  0
   22.2431  -10.8253  -16.9948 C   0  0  0  0  0  0  0  0  0  0  0  0
   21.5932  -10.3665  -17.9718 O   0  0  0  0  0  0  0  0  0  0  0  0
   20.4402   -6.2173  -15.4783 N   0  0  0  0  0  0  0  0  0  0  0  0
   20.0921   -7.2612  -14.5574 C   0  0  0  0  0  0  0  0  0  0  0  0
   19.2722   -7.0316  -13.6465 O   0  0  0  0  0  0  0  0  0  0  0  0
   20.6943   -8.6032  -14.6773 C   0  0  0  0  0  0  0  0  0  0  0  0
   21.6958   -8.7317  -15.7976 C   0  0  2  0  0  0  0  0  0  0  0  0
   22.3173  -10.0331  -15.8197 N   0  0  0  0  0  0  0  0  0  0  0  0
   22.7542   -7.7010  -15.6374 C   0  0  0  0  0  0  0  0  0  0  0  0
   24.0975   -8.0973  -15.4683 O   0  0  0  0  0  0  0  0  0  0  0  0
   22.5321   -6.4572  -15.6416 O   0  0  0  0  0  0  0  0  0  0  0  0
  2  1  1  0
  3  2  1  0
  4  5  1  0
  4  3  1  0
  5  6  1  6
  7  8  2  0
  7  5  1  0
  9  7  1  0
 10  9  1  0
 11 12  1  0
 10 11  1  6
 12 13  2  0
 12 16  1  0
 13 14  1  0
 14 15  1  0
 16 15  2  0
 17 18  2  0
 17 10  1  0
 20 21  2  0
 20 19  1  0
 22 20  1  0
 23 24  1  0
 23 22  1  1
 24 17  1  0
 25 23  1  0
 26 25  1  0
 27 25  2  0
M  END
$$$$
