MHN.pdb
     RDKit          3D

 27 27  0  0  1  0  0  0  0  0999 V2000
   17.6929  -15.4311  -17.0535 C   0  0  0  0  0  0  0  0  0  0  0  0
   17.8809  -15.0663  -18.8335 S   0  0  0  0  0  0  0  0  0  0  0  0
   19.6783  -15.0324  -19.2112 C   0  0  0  0  0  0  0  0  0  0  0  0
   20.2861  -13.8339  -18.5701 C   0  0  0  0  0  0  0  0  0  0  0  0
   21.7786  -13.6997  -18.7354 C   0  0  2  0  0  0  0  0  0  0  0  0
   22.3563  -14.8386  -18.0292 N   0  0  0  0  0  0  0  0  0  0  0  0
   22.2075  -12.4229  -18.1223 C   0  0  0  0  0  0  0  0  0  0  0  0
   21.9037  -12.1674  -16.9485 O   0  0  0  0  0  0  0  0  0  0  0  0
   22.9685  -11.4404  -18.8135 N   0  0  0  0  0  0  0  0  0  0  0  0
   23.3387  -10.1577  -18.2528 C   0  0  1  0  0  0  0  0  0  0  0  0
   24.3059   -9.4205  -19.1331 C   0  0  0  0  0  0  0  0  0  0  0  0
   24.7949   -8.1637  -18.5877 C   0  0  0  0  0  0  0  0  0  0  0  0
   24.5426   -7.5579  -17.3653 C   0  0  0  0  0  0  0  0  0  0  0  0
   25.2245   -6.3897  -17.3054 N   0  0  0  0  0  0  0  0  0  0  0  0
   25.8928   -6.2576  -18.4609 C   0  0  0  0  0  0  0  0  0  0  0  0
   25.6312   -7.3235  -19.2244 N   0  0  0  0  0  0  0  0  0  0  0  0
   22.1642   -9.3533  -17.8627 C   0  0  0  0  0  0  0  0  0  0  0  0
   21.2687   -9.1377  -18.7223 O   0  0  0  0  0  0  0  0  0  0  0  0
   18.5365   -6.6178  -15.3420 N   0  0  0  0  0  0  0  0  0  0  0  0
   18.6045   -8.0278  -15.0847 C   0  0  0  0  0  0  0  0  0  0  0  0
   17.6768   -8.5873  -14.4673 O   0  0  0  0  0  0  0  0  0  0  0  0
   19.7606   -8.8223  -15.5432 C   0  0  0  0  0  0  0  0  0  0  0  0
   20.8036   -8.0227  -16.2833 C   0  0  2  0  0  0  0  0  0  0  0  0
   21.9823   -8.8042  -16.5667 N   0  0  0  0  0  0  0  0  0  0  0  0
   21.1976   -6.8453  -15.4667 C   0  0  0  0  0  0  0  0  0  0  0  0
   22.5260   -6.7246  -15.0077 O   0  0  0  0  0  0  0  0  0  0  0  0
   20.4052   -5.9157  -15.1435 O   0  0  0  0  0  0  0  0  0  0  0  0
  2  1  1  0
  3  2  1  0
  4  5  1  0
  4  3  1  0
  5  6  1  1
  7  8  2  0
  7  5  1  0
  9  7  1  0
 10  9  1  0
 11 12  1  0
 10 11  1  6
 12 13  2  0
 12 16  1  0
 13 14  1  0
 14 15  1  0
 16 15  2  0
 17 18  2  0
 17 10  1  0
 20 21  2  0
 20 19  1  0
 22 20  1  0
 23 24  1  0
 23 22  1  1
 24 17  1  0
 25 23  1  0
 26 25  1  0
 27 25  2  0
M  END
$$$$
