MHN.pdb
     RDKit          3D

 27 27  0  0  1  0  0  0  0  0999 V2000
   17.6044  -13.0147  -21.8956 C   0  0  0  0  0  0  0  0  0  0  0  0
   18.1973  -14.5289  -21.0633 S   0  0  0  0  0  0  0  0  0  0  0  0
   19.9928  -14.6943  -21.4148 C   0  0  0  0  0  0  0  0  0  0  0  0
   20.5514  -15.7926  -20.5790 C   0  0  0  0  0  0  0  0  0  0  0  0
   22.0399  -16.0009  -20.6966 C   0  0  2  0  0  0  0  0  0  0  0  0
   22.2388  -16.7139  -21.9543 N   0  0  0  0  0  0  0  0  0  0  0  0
   22.4937  -16.8160  -19.5478 C   0  0  0  0  0  0  0  0  0  0  0  0
   22.6193  -18.0427  -19.6707 O   0  0  0  0  0  0  0  0  0  0  0  0
   22.8044  -16.2668  -18.2735 N   0  0  0  0  0  0  0  0  0  0  0  0
   23.2819  -17.0439  -17.1490 C   0  0  1  0  0  0  0  0  0  0  0  0
   24.6958  -16.6926  -16.7861 C   0  0  0  0  0  0  0  0  0  0  0  0
   25.6977  -17.1052  -17.7567 C   0  0  0  0  0  0  0  0  0  0  0  0
   26.3384  -18.3247  -17.9212 C   0  0  0  0  0  0  0  0  0  0  0  0
   27.1962  -18.2326  -18.9648 N   0  0  0  0  0  0  0  0  0  0  0  0
   27.1020  -16.9857  -19.4503 C   0  0  0  0  0  0  0  0  0  0  0  0
   26.2028  -16.3158  -18.7223 N   0  0  0  0  0  0  0  0  0  0  0  0
   22.3519  -17.0075  -16.0034 C   0  0  0  0  0  0  0  0  0  0  0  0
   21.9730  -15.8869  -15.5699 O   0  0  0  0  0  0  0  0  0  0  0  0
   18.7702  -17.8096  -12.4324 N   0  0  0  0  0  0  0  0  0  0  0  0
   18.5657  -17.2704  -13.7463 C   0  0  0  0  0  0  0  0  0  0  0  0
   17.4699  -16.7506  -14.0357 O   0  0  0  0  0  0  0  0  0  0  0  0
   19.6386  -17.3248  -14.7582 C   0  0  0  0  0  0  0  0  0  0  0  0
   20.8867  -18.0342  -14.2959 C   0  0  2  0  0  0  0  0  0  0  0  0
   21.8553  -18.1688  -15.3561 N   0  0  0  0  0  0  0  0  0  0  0  0
   20.5320  -19.3894  -13.7998 C   0  0  0  0  0  0  0  0  0  0  0  0
   21.2016  -20.5201  -14.3127 O   0  0  0  0  0  0  0  0  0  0  0  0
   19.6472  -19.6096  -12.9251 O   0  0  0  0  0  0  0  0  0  0  0  0
  2  1  1  0
  3  2  1  0
  4  5  1  0
  4  3  1  0
  5  6  1  6
  7  8  2  0
  7  5  1  0
  9  7  1  0
 10  9  1  0
 11 12  1  0
 10 11  1  1
 12 13  2  0
 12 16  1  0
 13 14  1  0
 14 15  1  0
 16 15  2  0
 17 18  2  0
 17 10  1  0
 20 21  2  0
 20 19  1  0
 22 20  1  0
 23 24  1  0
 23 22  1  6
 24 17  1  0
 25 23  1  0
 26 25  1  0
 27 25  2  0
M  END
$$$$
