MHN.pdb
     RDKit          3D

 27 27  0  0  1  0  0  0  0  0999 V2000
   28.2027  -18.3130   -6.0590 C   0  0  0  0  0  0  0  0  0  0  0  0
   27.0476  -19.6892   -5.7298 S   0  0  0  0  0  0  0  0  0  0  0  0
   27.2726  -20.9388   -7.0574 C   0  0  0  0  0  0  0  0  0  0  0  0
   26.7629  -20.3806   -8.3402 C   0  0  0  0  0  0  0  0  0  0  0  0
   26.8150  -21.3188   -9.5192 C   0  0  2  0  0  0  0  0  0  0  0  0
   28.2328  -21.5620   -9.7655 N   0  0  0  0  0  0  0  0  0  0  0  0
   26.1821  -20.6531  -10.6795 C   0  0  0  0  0  0  0  0  0  0  0  0
   26.4914  -19.4887  -10.9692 O   0  0  0  0  0  0  0  0  0  0  0  0
   25.2127  -21.2815  -11.5085 N   0  0  0  0  0  0  0  0  0  0  0  0
   24.6751  -20.6939  -12.7178 C   0  0  1  0  0  0  0  0  0  0  0  0
   25.1763  -21.3911  -13.9493 C   0  0  0  0  0  0  0  0  0  0  0  0
   26.4170  -20.8597  -14.4918 C   0  0  0  0  0  0  0  0  0  0  0  0
   27.1841  -19.7782  -14.0831 C   0  0  0  0  0  0  0  0  0  0  0  0
   28.2586  -19.6688  -14.8997 N   0  0  0  0  0  0  0  0  0  0  0  0
   28.1754  -20.6562  -15.8038 C   0  0  0  0  0  0  0  0  0  0  0  0
   27.0701  -21.3657  -15.5539 N   0  0  0  0  0  0  0  0  0  0  0  0
   23.2061  -20.5575  -12.6731 C   0  0  0  0  0  0  0  0  0  0  0  0
   22.5490  -21.3491  -11.9458 O   0  0  0  0  0  0  0  0  0  0  0  0
   18.2708  -18.2742  -14.9902 N   0  0  0  0  0  0  0  0  0  0  0  0
   19.0089  -18.1573  -13.7653 C   0  0  0  0  0  0  0  0  0  0  0  0
   18.3977  -18.0016  -12.6897 O   0  0  0  0  0  0  0  0  0  0  0  0
   20.4833  -18.2194  -13.7655 C   0  0  0  0  0  0  0  0  0  0  0  0
   21.0445  -19.5483  -13.3253 C   0  0  2  0  0  0  0  0  0  0  0  0
   22.4842  -19.5800  -13.4063 N   0  0  0  0  0  0  0  0  0  0  0  0
   20.4951  -20.6282  -14.1858 C   0  0  0  0  0  0  0  0  0  0  0  0
   19.3911  -21.3849  -13.7402 O   0  0  0  0  0  0  0  0  0  0  0  0
   20.9588  -20.9273  -15.3224 O   0  0  0  0  0  0  0  0  0  0  0  0
  2  1  1  0
  3  2  1  0
  4  5  1  0
  4  3  1  0
  5  6  1  6
  7  8  2  0
  7  5  1  0
  9  7  1  0
 10  9  1  0
 11 12  1  0
 10 11  1  6
 12 13  2  0
 12 16  1  0
 13 14  1  0
 14 15  1  0
 16 15  2  0
 17 18  2  0
 17 10  1  0
 20 21  2  0
 20 19  1  0
 22 20  1  0
 23 24  1  0
 23 22  1  6
 24 17  1  0
 25 23  1  0
 26 25  1  0
 27 25  2  0
M  END
$$$$
