MHN.pdb
     RDKit          3D

 27 27  0  0  1  0  0  0  0  0999 V2000
   28.9632  -13.3638  -15.1201 C   0  0  0  0  0  0  0  0  0  0  0  0
   27.3953  -12.4395  -15.2757 S   0  0  0  0  0  0  0  0  0  0  0  0
   27.6933  -11.0167  -16.3989 C   0  0  0  0  0  0  0  0  0  0  0  0
   26.4355  -10.2308  -16.5303 C   0  0  0  0  0  0  0  0  0  0  0  0
   25.1766  -11.0466  -16.6797 C   0  0  2  0  0  0  0  0  0  0  0  0
   25.3514  -11.8182  -17.9060 N   0  0  0  0  0  0  0  0  0  0  0  0
   24.0269  -10.1219  -16.7948 C   0  0  0  0  0  0  0  0  0  0  0  0
   23.8423   -9.4920  -17.8458 O   0  0  0  0  0  0  0  0  0  0  0  0
   23.0920   -9.9024  -15.7461 N   0  0  0  0  0  0  0  0  0  0  0  0
   21.8701   -9.1396  -15.8941 C   0  0  1  0  0  0  0  0  0  0  0  0
   20.6516   -9.9816  -15.6487 C   0  0  0  0  0  0  0  0  0  0  0  0
   20.4530  -11.0635  -16.6006 C   0  0  0  0  0  0  0  0  0  0  0  0
   20.5544  -12.4368  -16.4316 C   0  0  0  0  0  0  0  0  0  0  0  0
   20.2779  -13.0455  -17.6090 N   0  0  0  0  0  0  0  0  0  0  0  0
   20.0077  -12.0824  -18.5027 C   0  0  0  0  0  0  0  0  0  0  0  0
   20.1143  -10.8977  -17.8923 N   0  0  0  0  0  0  0  0  0  0  0  0
   21.8896   -7.8873  -15.1131 C   0  0  0  0  0  0  0  0  0  0  0  0
   22.2892   -7.9278  -13.9189 O   0  0  0  0  0  0  0  0  0  0  0  0
   22.9615   -2.4800  -14.0036 N   0  0  0  0  0  0  0  0  0  0  0  0
   21.8565   -2.9816  -14.7693 C   0  0  0  0  0  0  0  0  0  0  0  0
   20.7818   -2.3495  -14.7878 O   0  0  0  0  0  0  0  0  0  0  0  0
   21.9788   -4.2374  -15.5348 C   0  0  0  0  0  0  0  0  0  0  0  0
   21.5227   -5.4637  -14.7845 C   0  0  2  0  0  0  0  0  0  0  0  0
   21.4818   -6.6306  -15.6313 N   0  0  0  0  0  0  0  0  0  0  0  0
   20.1639   -5.2293  -14.2304 C   0  0  0  0  0  0  0  0  0  0  0  0
   20.0197   -4.6896  -12.9350 O   0  0  0  0  0  0  0  0  0  0  0  0
   19.0954   -5.4859  -14.8539 O   0  0  0  0  0  0  0  0  0  0  0  0
  2  1  1  0
  3  2  1  0
  4  5  1  0
  4  3  1  0
  5  6  1  6
  7  8  2  0
  7  5  1  0
  9  7  1  0
 10  9  1  0
 11 12  1  0
 10 11  1  1
 12 13  2  0
 12 16  1  0
 13 14  1  0
 14 15  1  0
 16 15  2  0
 17 18  2  0
 17 10  1  0
 20 21  2  0
 20 19  1  0
 22 20  1  0
 23 24  1  0
 23 22  1  6
 24 17  1  0
 25 23  1  0
 26 25  1  0
 27 25  2  0
M  END
$$$$
