VRA.pdb
     RDKit          3D

 24 23  0  0  1  0  0  0  0  0999 V2000
    7.0700  -12.9338   21.3383 C   0  0  0  0  0  0  0  0  0  0  0  0
    8.4364  -13.0775   20.6120 C   0  0  2  0  0  0  0  0  0  0  0  0
    8.2226  -12.4291   19.2585 C   0  0  0  0  0  0  0  0  0  0  0  0
    8.7100  -14.5338   20.5644 C   0  0  2  0  0  0  0  0  0  0  0  0
    7.8384  -15.1167   19.5337 N   0  0  0  0  0  0  0  0  0  0  0  0
    8.5391  -15.2992   21.8074 C   0  0  0  0  0  0  0  0  0  0  0  0
    7.3502  -15.6059   22.1822 O   0  0  0  0  0  0  0  0  0  0  0  0
    9.8793  -19.5240   20.2265 N   0  0  0  0  0  0  0  0  0  0  0  0
   11.2145  -19.9145   20.4241 C   0  0  0  0  0  0  0  0  0  0  0  0
   11.9662  -20.1756   19.3828 N   0  0  0  0  0  0  0  0  0  0  0  0
   11.7550  -20.0289   21.7354 N   0  0  0  0  0  0  0  0  0  0  0  0
   10.8768  -19.6862   22.8396 C   0  0  0  0  0  0  0  0  0  0  0  0
   10.5020  -18.2262   22.8293 C   0  0  0  0  0  0  0  0  0  0  0  0
    9.6926  -17.7893   23.9919 C   0  0  0  0  0  0  0  0  0  0  0  0
    9.2882  -16.3419   23.9770 C   0  0  2  0  0  0  0  0  0  0  0  0
    9.5578  -15.7506   22.6588 N   0  0  0  0  0  0  0  0  0  0  0  0
    9.8516  -15.5264   25.0636 C   0  0  0  0  0  0  0  0  0  0  0  0
   11.0087  -15.0370   24.9716 O   0  0  0  0  0  0  0  0  0  0  0  0
   12.9670  -20.4045   19.4754 C   0  0  0  0  0  0  0  0  0  0  0  0
    8.8335  -13.3664   27.8086 C   0  0  2  0  0  0  0  0  0  0  0  0
    9.7701  -14.4421   27.3129 N   0  0  0  0  0  0  0  0  0  0  0  0
    9.1583  -15.2327   26.2700 C   0  0  0  0  0  0  0  0  0  0  0  0
   10.2093  -15.2864   28.4514 O   0  0  0  0  0  0  0  0  0  0  0  0
    9.9016  -16.5049   28.4727 O   0  0  0  0  0  0  0  0  0  0  0  0
  2  1  1  1
  2  3  1  0
  4  2  1  0
  4  6  1  0
  4  5  1  6
  6  7  2  0
  9  8  1  0
  9 11  1  0
 10  9  2  0
 12 11  1  0
 13 12  1  0
 14 13  1  0
 15 14  1  6
 16  6  1  0
 16 15  1  0
 17 18  2  0
 17 15  1  0
 20 19  1  6
 20 21  1  0
 21 17  1  0
 22 24  1  0
 22 20  1  0
 23 22  2  0
M  END
$$$$
