VRA.pdb
     RDKit          3D

 24 23  0  0  1  0  0  0  0  0999 V2000
    7.1376  -11.9455   27.5701 C   0  0  0  0  0  0  0  0  0  0  0  0
    7.6512  -13.1902   26.7942 C   0  0  2  0  0  0  0  0  0  0  0  0
    8.9668  -12.7476   26.1848 C   0  0  0  0  0  0  0  0  0  0  0  0
    6.5899  -13.5108   25.8099 C   0  0  2  0  0  0  0  0  0  0  0  0
    5.3960  -13.9239   26.5618 N   0  0  0  0  0  0  0  0  0  0  0  0
    6.8852  -14.5385   24.8016 C   0  0  0  0  0  0  0  0  0  0  0  0
    6.6769  -15.7699   25.0993 O   0  0  0  0  0  0  0  0  0  0  0  0
    6.9633  -12.6777   16.8611 N   0  0  0  0  0  0  0  0  0  0  0  0
    7.6042  -13.8712   17.2339 C   0  0  0  0  0  0  0  0  0  0  0  0
    7.8363  -14.7850   16.3237 N   0  0  0  0  0  0  0  0  0  0  0  0
    8.0011  -14.0961   18.5818 N   0  0  0  0  0  0  0  0  0  0  0  0
    8.7302  -15.3214   18.8557 C   0  0  0  0  0  0  0  0  0  0  0  0
    8.3871  -15.8907   20.2086 C   0  0  0  0  0  0  0  0  0  0  0  0
    7.9123  -14.8915   21.1955 C   0  0  0  0  0  0  0  0  0  0  0  0
    7.6991  -15.4223   22.5853 C   0  0  2  0  0  0  0  0  0  0  0  0
    7.3822  -14.3233   23.5080 N   0  0  0  0  0  0  0  0  0  0  0  0
    8.7850  -16.2693   23.1020 C   0  0  0  0  0  0  0  0  0  0  0  0
    9.0879  -17.3512   22.5323 O   0  0  0  0  0  0  0  0  0  0  0  0
    8.3536  -15.6505   16.5381 C   0  0  0  0  0  0  0  0  0  0  0  0
   11.9912  -15.9624   24.4346 C   0  0  2  0  0  0  0  0  0  0  0  0
   10.7085  -16.7356   24.6265 N   0  0  0  0  0  0  0  0  0  0  0  0
    9.5577  -15.9470   24.2515 C   0  0  0  0  0  0  0  0  0  0  0  0
   10.6135  -17.2061   26.0306 O   0  0  0  0  0  0  0  0  0  0  0  0
    9.6164  -16.8841   26.7249 O   0  0  0  0  0  0  0  0  0  0  0  0
  2  1  1  1
  2  3  1  0
  4  2  1  0
  4  6  1  0
  4  5  1  1
  6  7  2  0
  9  8  1  0
  9 11  1  0
 10  9  2  0
 12 11  1  0
 13 12  1  0
 14 13  1  0
 15 14  1  6
 16  6  1  0
 16 15  1  0
 17 18  2  0
 17 15  1  0
 20 19  1  6
 20 21  1  0
 21 17  1  0
 22 24  1  0
 22 20  1  0
 23 22  2  0
M  END
$$$$
