VRA.pdb
     RDKit          3D

 24 23  0  0  1  0  0  0  0  0999 V2000
    7.7365  -12.7242   27.3370 C   0  0  0  0  0  0  0  0  0  0  0  0
    6.8616  -12.0435   26.2477 C   0  0  2  0  0  0  0  0  0  0  0  0
    6.0178  -11.0375   27.0054 C   0  0  0  0  0  0  0  0  0  0  0  0
    6.0941  -13.1407   25.6114 C   0  0  2  0  0  0  0  0  0  0  0  0
    5.4594  -13.9200   26.6844 N   0  0  0  0  0  0  0  0  0  0  0  0
    6.8275  -14.0646   24.7348 C   0  0  0  0  0  0  0  0  0  0  0  0
    7.3030  -15.1448   25.2400 O   0  0  0  0  0  0  0  0  0  0  0  0
    8.3933  -12.8882   18.0199 N   0  0  0  0  0  0  0  0  0  0  0  0
    8.3552  -14.0905   17.2938 C   0  0  0  0  0  0  0  0  0  0  0  0
    7.8601  -14.0906   16.0804 N   0  0  0  0  0  0  0  0  0  0  0  0
    8.8457  -15.3006   17.8595 N   0  0  0  0  0  0  0  0  0  0  0  0
    8.2251  -15.7471   19.0937 C   0  0  0  0  0  0  0  0  0  0  0  0
    8.9159  -15.1819   20.3084 C   0  0  0  0  0  0  0  0  0  0  0  0
    8.0528  -14.3432   21.1740 C   0  0  0  0  0  0  0  0  0  0  0  0
    7.9111  -14.8267   22.5899 C   0  0  2  0  0  0  0  0  0  0  0  0
    7.0745  -13.8993   23.3643 N   0  0  0  0  0  0  0  0  0  0  0  0
    9.1777  -15.1195   23.2780 C   0  0  0  0  0  0  0  0  0  0  0  0
    9.9513  -14.1902   23.6312 O   0  0  0  0  0  0  0  0  0  0  0  0
    7.8814  -14.9296   15.4818 C   0  0  0  0  0  0  0  0  0  0  0  0
   10.9138  -17.8177   25.1296 C   0  0  1  0  0  0  0  0  0  0  0  0
   10.9319  -16.6720   24.1461 N   0  0  0  0  0  0  0  0  0  0  0  0
    9.6196  -16.4344   23.5909 C   0  0  0  0  0  0  0  0  0  0  0  0
   11.9333  -16.9402   23.0844 O   0  0  0  0  0  0  0  0  0  0  0  0
   13.1549  -16.9685   23.3789 O   0  0  0  0  0  0  0  0  0  0  0  0
  2  1  1  1
  2  3  1  0
  4  2  1  0
  4  6  1  0
  4  5  1  1
  6  7  2  0
  9  8  1  0
  9 11  1  0
 10  9  2  0
 12 11  1  0
 13 12  1  0
 14 13  1  0
 15 14  1  6
 16  6  1  0
 16 15  1  0
 17 18  2  0
 17 15  1  0
 20 19  1  1
 20 21  1  0
 21 17  1  0
 22 24  1  0
 22 20  1  0
 23 22  2  0
M  END
$$$$
