VRA.pdb
     RDKit          3D

 24 23  0  0  1  0  0  0  0  0999 V2000
    7.2372  -12.2897   20.3865 C   0  0  0  0  0  0  0  0  0  0  0  0
    8.0238  -12.5854   19.0791 C   0  0  2  0  0  0  0  0  0  0  0  0
    7.2344  -13.6844   18.3956 C   0  0  0  0  0  0  0  0  0  0  0  0
    9.3848  -12.9801   19.5147 C   0  0  2  0  0  0  0  0  0  0  0  0
   10.2255  -13.0787   18.3125 N   0  0  0  0  0  0  0  0  0  0  0  0
    9.5190  -14.2266   20.2815 C   0  0  0  0  0  0  0  0  0  0  0  0
    8.9665  -14.2997   21.4380 O   0  0  0  0  0  0  0  0  0  0  0  0
   13.9442  -18.9441   17.0011 N   0  0  0  0  0  0  0  0  0  0  0  0
   14.2769  -19.7612   18.0947 C   0  0  0  0  0  0  0  0  0  0  0  0
   15.5081  -20.1921   18.2210 N   0  0  0  0  0  0  0  0  0  0  0  0
   13.2963  -20.1233   19.0601 N   0  0  0  0  0  0  0  0  0  0  0  0
   11.9626  -19.5798   18.8769 C   0  0  0  0  0  0  0  0  0  0  0  0
   11.7199  -18.3756   19.7506 C   0  0  0  0  0  0  0  0  0  0  0  0
   10.3533  -17.8093   19.6541 C   0  0  0  0  0  0  0  0  0  0  0  0
   10.0710  -16.6671   20.5893 C   0  0  2  0  0  0  0  0  0  0  0  0
   10.2009  -15.3852   19.8824 N   0  0  0  0  0  0  0  0  0  0  0  0
   10.8462  -16.6792   21.8392 C   0  0  0  0  0  0  0  0  0  0  0  0
   11.9971  -16.1698   21.8912 O   0  0  0  0  0  0  0  0  0  0  0  0
   15.8130  -20.7424   19.0376 C   0  0  0  0  0  0  0  0  0  0  0  0
   10.3019  -16.9439   25.4739 C   0  0  1  0  0  0  0  0  0  0  0  0
   11.1657  -17.1989   24.2619 N   0  0  0  0  0  0  0  0  0  0  0  0
   10.3752  -17.2495   23.0538 C   0  0  0  0  0  0  0  0  0  0  0  0
   11.9450  -18.4465   24.4567 O   0  0  0  0  0  0  0  0  0  0  0  0
   11.6893  -19.4528   23.7483 O   0  0  0  0  0  0  0  0  0  0  0  0
  2  1  1  1
  2  3  1  0
  4  2  1  0
  4  6  1  0
  4  5  1  6
  6  7  2  0
  9  8  1  0
  9 11  1  0
 10  9  2  0
 12 11  1  0
 13 12  1  0
 14 13  1  0
 15 14  1  6
 16  6  1  0
 16 15  1  0
 17 18  2  0
 17 15  1  0
 20 19  1  6
 20 21  1  0
 21 17  1  0
 22 24  1  0
 22 20  1  0
 23 22  2  0
M  END
$$$$
