VRA.pdb
     RDKit          3D

 24 23  0  0  1  0  0  0  0  0999 V2000
   18.9434  -12.8402   16.4321 C   0  0  0  0  0  0  0  0  0  0  0  0
   17.9581  -12.7793   17.6324 C   0  0  2  0  0  0  0  0  0  0  0  0
   18.6785  -13.4950   18.7581 C   0  0  0  0  0  0  0  0  0  0  0  0
   16.7206  -13.4488   17.1652 C   0  0  2  0  0  0  0  0  0  0  0  0
   16.2340  -12.7132   15.9888 N   0  0  0  0  0  0  0  0  0  0  0  0
   15.6145  -13.5800   18.1240 C   0  0  0  0  0  0  0  0  0  0  0  0
   15.0306  -12.5146   18.5389 O   0  0  0  0  0  0  0  0  0  0  0  0
   13.9933  -16.1774   15.1609 N   0  0  0  0  0  0  0  0  0  0  0  0
   13.1705  -17.3162   15.1736 C   0  0  0  0  0  0  0  0  0  0  0  0
   13.3898  -18.2746   14.3071 N   0  0  0  0  0  0  0  0  0  0  0  0
   12.1079  -17.4384   16.1121 N   0  0  0  0  0  0  0  0  0  0  0  0
   11.9003  -16.3227   17.0177 C   0  0  0  0  0  0  0  0  0  0  0  0
   12.7997  -16.4019   18.2248 C   0  0  0  0  0  0  0  0  0  0  0  0
   12.7483  -15.2145   19.1108 C   0  0  0  0  0  0  0  0  0  0  0  0
   14.0690  -14.8014   19.6973 C   0  0  2  0  0  0  0  0  0  0  0  0
   15.1039  -14.7736   18.6542 N   0  0  0  0  0  0  0  0  0  0  0  0
   14.5002  -15.5777   20.8697 C   0  0  0  0  0  0  0  0  0  0  0  0
   13.7205  -15.7699   21.8402 O   0  0  0  0  0  0  0  0  0  0  0  0
   12.8526  -19.1543   14.3180 C   0  0  0  0  0  0  0  0  0  0  0  0
   15.7795  -18.3665   22.0360 C   0  0  1  0  0  0  0  0  0  0  0  0
   16.1602  -16.9120   22.1757 N   0  0  0  0  0  0  0  0  0  0  0  0
   15.7925  -16.1567   21.0005 C   0  0  0  0  0  0  0  0  0  0  0  0
   17.6115  -16.8004   22.4641 O   0  0  0  0  0  0  0  0  0  0  0  0
   18.0737  -17.3069   23.5175 O   0  0  0  0  0  0  0  0  0  0  0  0
  2  1  1  6
  2  3  1  0
  4  2  1  0
  4  6  1  0
  4  5  1  6
  6  7  2  0
  9  8  1  0
  9 11  1  0
 10  9  2  0
 12 11  1  0
 13 12  1  0
 14 13  1  0
 15 14  1  6
 16  6  1  0
 16 15  1  0
 17 18  2  0
 17 15  1  0
 20 19  1  1
 20 21  1  0
 21 17  1  0
 22 24  1  0
 22 20  1  0
 23 22  2  0
M  END
$$$$
