VRA.pdb
     RDKit          3D

 24 23  0  0  1  0  0  0  0  0999 V2000
    7.9869  -13.1981   27.2129 C   0  0  0  0  0  0  0  0  0  0  0  0
    6.8423  -12.4286   26.4967 C   0  0  2  0  0  0  0  0  0  0  0  0
    6.0959  -11.7238   27.6122 C   0  0  0  0  0  0  0  0  0  0  0  0
    6.0553  -13.4618   25.7817 C   0  0  2  0  0  0  0  0  0  0  0  0
    5.6979  -14.5025   26.7567 N   0  0  0  0  0  0  0  0  0  0  0  0
    6.6785  -14.1071   24.6176 C   0  0  0  0  0  0  0  0  0  0  0  0
    6.9185  -15.3673   24.6682 O   0  0  0  0  0  0  0  0  0  0  0  0
    7.1723  -14.7045   16.9596 N   0  0  0  0  0  0  0  0  0  0  0  0
    8.5562  -14.5446   16.7771 C   0  0  0  0  0  0  0  0  0  0  0  0
    9.1499  -15.1767   15.7944 N   0  0  0  0  0  0  0  0  0  0  0  0
    9.3149  -13.7088   17.6435 N   0  0  0  0  0  0  0  0  0  0  0  0
    8.5975  -13.0659   18.7297 C   0  0  0  0  0  0  0  0  0  0  0  0
    8.5346  -13.9382   19.9575 C   0  0  0  0  0  0  0  0  0  0  0  0
    7.7948  -13.3457   21.0974 C   0  0  0  0  0  0  0  0  0  0  0  0
    7.7352  -14.2025   22.3307 C   0  0  2  0  0  0  0  0  0  0  0  0
    7.0516  -13.4863   23.4168 N   0  0  0  0  0  0  0  0  0  0  0  0
    9.0267  -14.7518   22.7708 C   0  0  0  0  0  0  0  0  0  0  0  0
    9.8575  -14.0344   23.3887 O   0  0  0  0  0  0  0  0  0  0  0  0
   10.1677  -15.1163   15.6421 C   0  0  0  0  0  0  0  0  0  0  0  0
   10.6221  -17.8669   23.7252 C   0  0  1  0  0  0  0  0  0  0  0  0
   10.7303  -16.5693   22.9606 N   0  0  0  0  0  0  0  0  0  0  0  0
    9.4314  -16.0956   22.5417 C   0  0  0  0  0  0  0  0  0  0  0  0
   11.6459  -16.7439   21.8060 O   0  0  0  0  0  0  0  0  0  0  0  0
   11.1868  -16.6828   20.6375 O   0  0  0  0  0  0  0  0  0  0  0  0
  2  1  1  1
  2  3  1  0
  4  2  1  0
  4  6  1  0
  4  5  1  1
  6  7  2  0
  9  8  1  0
  9 11  1  0
 10  9  2  0
 12 11  1  0
 13 12  1  0
 14 13  1  0
 15 14  1  6
 16  6  1  0
 16 15  1  0
 17 18  2  0
 17 15  1  0
 20 19  1  1
 20 21  1  0
 21 17  1  0
 22 24  1  0
 22 20  1  0
 23 22  2  0
M  END
$$$$
