VRA.pdb
     RDKit          3D

 24 23  0  0  1  0  0  0  0  0999 V2000
    7.7517  -12.4419   18.6323 C   0  0  0  0  0  0  0  0  0  0  0  0
    7.8439  -13.4128   19.8423 C   0  0  2  0  0  0  0  0  0  0  0  0
    8.6991  -12.6814   20.8581 C   0  0  0  0  0  0  0  0  0  0  0  0
    8.4461  -14.6578   19.3079 C   0  0  2  0  0  0  0  0  0  0  0  0
    7.5102  -15.2168   18.3215 N   0  0  0  0  0  0  0  0  0  0  0  0
    8.7948  -15.7123   20.2703 C   0  0  0  0  0  0  0  0  0  0  0  0
    7.8525  -16.4328   20.7615 O   0  0  0  0  0  0  0  0  0  0  0  0
   13.5830  -17.6224   16.8874 N   0  0  0  0  0  0  0  0  0  0  0  0
   12.8941  -18.8335   17.0684 C   0  0  0  0  0  0  0  0  0  0  0  0
   12.4988  -19.5089   16.0171 N   0  0  0  0  0  0  0  0  0  0  0  0
   12.6230  -19.3308   18.3738 N   0  0  0  0  0  0  0  0  0  0  0  0
   13.1459  -18.5640   19.4902 C   0  0  0  0  0  0  0  0  0  0  0  0
   12.1345  -17.5804   20.0210 C   0  0  0  0  0  0  0  0  0  0  0  0
   11.3537  -18.0661   21.1839 C   0  0  0  0  0  0  0  0  0  0  0  0
   10.3300  -17.0999   21.7104 C   0  0  2  0  0  0  0  0  0  0  0  0
   10.0804  -16.0357   20.7280 N   0  0  0  0  0  0  0  0  0  0  0  0
   10.6191  -16.5511   23.0440 C   0  0  0  0  0  0  0  0  0  0  0  0
   10.9523  -15.3449   23.1884 O   0  0  0  0  0  0  0  0  0  0  0  0
   11.9587  -20.3829   16.1009 C   0  0  0  0  0  0  0  0  0  0  0  0
    9.4615  -15.6304   25.6359 C   0  0  2  0  0  0  0  0  0  0  0  0
   10.5481  -16.6743   25.5382 N   0  0  0  0  0  0  0  0  0  0  0  0
   10.5490  -17.3132   24.2425 C   0  0  0  0  0  0  0  0  0  0  0  0
   10.3920  -17.6627   26.6339 O   0  0  0  0  0  0  0  0  0  0  0  0
   10.0525  -18.8416   26.3600 O   0  0  0  0  0  0  0  0  0  0  0  0
  2  1  1  6
  2  3  1  0
  4  2  1  0
  4  6  1  0
  4  5  1  6
  6  7  2  0
  9  8  1  0
  9 11  1  0
 10  9  2  0
 12 11  1  0
 13 12  1  0
 14 13  1  0
 15 14  1  6
 16  6  1  0
 16 15  1  0
 17 18  2  0
 17 15  1  0
 20 19  1  6
 20 21  1  0
 21 17  1  0
 22 24  1  0
 22 20  1  0
 23 22  2  0
M  END
$$$$
