VQY.pdb
     RDKit          3D

 29 29  0  0  1  0  0  0  0  0999 V2000
   26.1936  -18.0939  -15.4273 C   0  0  0  0  0  0  0  0  0  0  0  0
   27.0684  -19.1290  -16.0847 C   0  0  1  0  0  0  0  0  0  0  0  0
   28.2615  -18.5265  -16.7451 C   0  0  0  0  0  0  0  0  0  0  0  0
   27.3892  -20.1830  -15.0529 C   0  0  2  0  0  0  0  0  0  0  0  0
   28.1952  -21.2497  -15.5962 N   0  0  0  0  0  0  0  0  0  0  0  0
   26.1774  -20.7869  -14.4439 C   0  0  0  0  0  0  0  0  0  0  0  0
   25.4684  -21.6055  -15.0670 O   0  0  0  0  0  0  0  0  0  0  0  0
   26.1444  -19.8489   -8.5938 N   0  0  0  0  0  0  0  0  0  0  0  0
   26.7834  -20.9348   -9.2374 C   0  0  0  0  0  0  0  0  0  0  0  0
   27.8583  -21.3792   -8.7860 O   0  0  0  0  0  0  0  0  0  0  0  0
   26.1813  -21.5422  -10.4427 C   0  0  0  0  0  0  0  0  0  0  0  0
   25.0265  -20.7710  -10.9706 C   0  0  0  0  0  0  0  0  0  0  0  0
   24.6572  -20.9889  -12.4120 C   0  0  2  0  0  0  0  0  0  0  0  0
   25.8137  -20.4384  -13.1462 N   0  0  0  0  0  0  0  0  0  0  0  0
   23.4262  -20.3483  -12.8256 C   0  0  0  0  0  0  0  0  0  0  0  0
   23.4025  -19.0985  -12.9580 O   0  0  0  0  0  0  0  0  0  0  0  0
   17.2165  -17.8026  -18.0498 O   0  0  0  0  0  0  0  0  0  0  0  0
   18.2700  -18.3132  -17.2862 C   0  0  0  0  0  0  0  0  0  0  0  0
   19.1031  -17.4933  -16.5447 C   0  0  0  0  0  0  0  0  0  0  0  0
   20.1347  -17.9999  -15.7983 C   0  0  0  0  0  0  0  0  0  0  0  0
   20.3517  -19.3610  -15.7826 C   0  0  0  0  0  0  0  0  0  0  0  0
   21.4362  -19.9475  -15.0105 C   0  0  0  0  0  0  0  0  0  0  0  0
   21.0852  -20.2949  -13.5803 C   0  0  2  0  0  0  0  0  0  0  0  0
   22.2529  -21.0677  -13.0918 N   0  0  0  0  0  0  0  0  0  0  0  0
   19.9422  -21.2375  -13.5826 C   0  0  0  0  0  0  0  0  0  0  0  0
   20.1138  -22.6089  -13.7790 O   0  0  0  0  0  0  0  0  0  0  0  0
   19.5329  -20.1979  -16.5147 C   0  0  0  0  0  0  0  0  0  0  0  0
   18.4872  -19.6662  -17.2695 C   0  0  0  0  0  0  0  0  0  0  0  0
   18.7494  -20.8767  -13.4105 O   0  0  0  0  0  0  0  0  0  0  0  0
  2  1  1  1
  3  2  1  0
  4  2  1  0
  4  5  1  6
  6 14  1  0
  6  4  1  0
  7  6  2  0
  8  9  1  0
  9 10  2  0
 11 12  1  0
 11  9  1  0
 13 12  1  1
 13 14  1  0
 15 13  1  0
 16 15  2  0
 18 28  2  0
 18 17  1  0
 19 18  1  0
 20 21  1  0
 20 19  2  0
 21 27  2  0
 22 21  1  0
 23 22  1  6
 23 25  1  0
 23 24  1  0
 24 15  1  0
 25 26  1  0
 27 28  1  0
 29 25  2  0
M  END
$$$$
