VQY.pdb
     RDKit          3D

 29 29  0  0  1  0  0  0  0  0999 V2000
   28.0315  -14.3027  -15.3259 C   0  0  0  0  0  0  0  0  0  0  0  0
   27.1902  -13.2001  -15.9136 C   0  0  1  0  0  0  0  0  0  0  0  0
   28.0022  -12.0103  -16.2976 C   0  0  0  0  0  0  0  0  0  0  0  0
   26.3761  -13.7922  -17.0384 C   0  0  2  0  0  0  0  0  0  0  0  0
   27.2071  -14.3771  -18.0631 N   0  0  0  0  0  0  0  0  0  0  0  0
   25.4752  -12.8051  -17.6850 C   0  0  0  0  0  0  0  0  0  0  0  0
   25.8230  -12.1666  -18.7010 O   0  0  0  0  0  0  0  0  0  0  0  0
   19.2474   -9.9687  -16.6531 N   0  0  0  0  0  0  0  0  0  0  0  0
   19.9146  -11.2153  -16.7024 C   0  0  0  0  0  0  0  0  0  0  0  0
   19.8526  -11.9921  -15.7281 O   0  0  0  0  0  0  0  0  0  0  0  0
   20.6852  -11.5982  -17.9040 C   0  0  0  0  0  0  0  0  0  0  0  0
   21.9230  -12.3561  -17.5870 C   0  0  0  0  0  0  0  0  0  0  0  0
   23.2264  -11.6120  -17.6827 C   0  0  2  0  0  0  0  0  0  0  0  0
   24.2091  -12.5781  -17.1529 N   0  0  0  0  0  0  0  0  0  0  0  0
   23.2697  -10.3682  -16.9427 C   0  0  0  0  0  0  0  0  0  0  0  0
   23.5214  -10.3982  -15.7115 O   0  0  0  0  0  0  0  0  0  0  0  0
   23.0408   -1.5188  -16.4728 O   0  0  0  0  0  0  0  0  0  0  0  0
   23.3037   -2.8752  -16.6848 C   0  0  0  0  0  0  0  0  0  0  0  0
   24.2432   -3.5655  -15.9388 C   0  0  0  0  0  0  0  0  0  0  0  0
   24.4969   -4.8953  -16.1517 C   0  0  0  0  0  0  0  0  0  0  0  0
   23.8001   -5.5667  -17.1334 C   0  0  0  0  0  0  0  0  0  0  0  0
   24.0361   -6.9769  -17.4018 C   0  0  0  0  0  0  0  0  0  0  0  0
   23.1151   -7.9281  -16.6694 C   0  0  2  0  0  0  0  0  0  0  0  0
   23.0467   -9.1225  -17.5457 N   0  0  0  0  0  0  0  0  0  0  0  0
   21.7492   -7.3543  -16.6517 C   0  0  0  0  0  0  0  0  0  0  0  0
   21.2878   -6.5735  -15.5904 O   0  0  0  0  0  0  0  0  0  0  0  0
   22.8580   -4.8980  -17.8897 C   0  0  0  0  0  0  0  0  0  0  0  0
   22.6117   -3.5442  -17.6604 C   0  0  0  0  0  0  0  0  0  0  0  0
   20.9161   -7.5261  -17.5784 O   0  0  0  0  0  0  0  0  0  0  0  0
  2  1  1  6
  3  2  1  0
  4  2  1  0
  4  5  1  6
  6 14  1  0
  6  4  1  0
  7  6  2  0
  8  9  1  0
  9 10  2  0
 11 12  1  0
 11  9  1  0
 13 12  1  1
 13 14  1  0
 15 13  1  0
 16 15  2  0
 18 28  2  0
 18 17  1  0
 19 18  1  0
 20 21  1  0
 20 19  2  0
 21 27  2  0
 22 21  1  0
 23 22  1  6
 23 25  1  0
 23 24  1  0
 24 15  1  0
 25 26  1  0
 27 28  1  0
 29 25  2  0
M  END
$$$$
