VQY.pdb
     RDKit          3D

 29 29  0  0  1  0  0  0  0  0999 V2000
   21.0621  -12.7060  -19.7240 C   0  0  0  0  0  0  0  0  0  0  0  0
   20.5330  -11.4550  -19.0728 C   0  0  1  0  0  0  0  0  0  0  0  0
   19.3429  -10.9058  -19.7831 C   0  0  0  0  0  0  0  0  0  0  0  0
   20.3059  -11.7575  -17.6115 C   0  0  2  0  0  0  0  0  0  0  0  0
   19.3514  -12.8224  -17.4176 N   0  0  0  0  0  0  0  0  0  0  0  0
   19.8410  -10.5774  -16.8399 C   0  0  0  0  0  0  0  0  0  0  0  0
   18.6260  -10.3243  -16.6968 O   0  0  0  0  0  0  0  0  0  0  0  0
   19.1847   -7.0739  -12.9412 N   0  0  0  0  0  0  0  0  0  0  0  0
   19.2390   -8.4178  -12.5023 C   0  0  0  0  0  0  0  0  0  0  0  0
   18.4952   -8.7993  -11.5761 O   0  0  0  0  0  0  0  0  0  0  0  0
   20.1749   -9.3692  -13.1373 C   0  0  0  0  0  0  0  0  0  0  0  0
   21.0489   -8.7354  -14.1578 C   0  0  0  0  0  0  0  0  0  0  0  0
   20.4515   -8.4905  -15.5160 C   0  0  2  0  0  0  0  0  0  0  0  0
   20.7752   -9.7254  -16.2575 N   0  0  0  0  0  0  0  0  0  0  0  0
   20.9645   -7.3230  -16.2019 C   0  0  0  0  0  0  0  0  0  0  0  0
   22.1510   -7.3304  -16.6170 O   0  0  0  0  0  0  0  0  0  0  0  0
   15.1068   -5.4543  -20.0495 O   0  0  0  0  0  0  0  0  0  0  0  0
   16.4596   -5.4669  -19.6979 C   0  0  0  0  0  0  0  0  0  0  0  0
   17.1308   -6.6420  -19.4067 C   0  0  0  0  0  0  0  0  0  0  0  0
   18.4571   -6.6479  -19.0620 C   0  0  0  0  0  0  0  0  0  0  0  0
   19.1445   -5.4545  -19.0028 C   0  0  0  0  0  0  0  0  0  0  0  0
   20.5518   -5.4070  -18.6372 C   0  0  0  0  0  0  0  0  0  0  0  0
   20.8226   -5.0729  -17.1866 C   0  0  2  0  0  0  0  0  0  0  0  0
   20.1876   -6.1785  -16.4292 N   0  0  0  0  0  0  0  0  0  0  0  0
   20.0714   -3.8470  -16.8287 C   0  0  0  0  0  0  0  0  0  0  0  0
   20.4593   -2.5834  -17.2780 O   0  0  0  0  0  0  0  0  0  0  0  0
   18.4951   -4.2702  -19.2895 C   0  0  0  0  0  0  0  0  0  0  0  0
   17.1446   -4.2814  -19.6386 C   0  0  0  0  0  0  0  0  0  0  0  0
   19.0435   -3.8541  -16.1038 O   0  0  0  0  0  0  0  0  0  0  0  0
  2  1  1  6
  3  2  1  0
  4  2  1  0
  4  5  1  6
  6 14  1  0
  6  4  1  0
  7  6  2  0
  8  9  1  0
  9 10  2  0
 11 12  1  0
 11  9  1  0
 13 12  1  1
 13 14  1  0
 15 13  1  0
 16 15  2  0
 18 28  2  0
 18 17  1  0
 19 18  1  0
 20 21  1  0
 20 19  2  0
 21 27  2  0
 22 21  1  0
 23 22  1  6
 23 25  1  0
 23 24  1  0
 24 15  1  0
 25 26  1  0
 27 28  1  0
 29 25  2  0
M  END
$$$$
