VQY.pdb
     RDKit          3D

 29 29  0  0  1  0  0  0  0  0999 V2000
   17.7426  -20.1731    3.0346 C   0  0  0  0  0  0  0  0  0  0  0  0
   16.6144  -19.9157    2.0703 C   0  0  1  0  0  0  0  0  0  0  0  0
   16.9578  -20.3158    0.6759 C   0  0  0  0  0  0  0  0  0  0  0  0
   15.3755  -20.5764    2.6244 C   0  0  2  0  0  0  0  0  0  0  0  0
   14.2943  -20.5951    1.6688 N   0  0  0  0  0  0  0  0  0  0  0  0
   14.8801  -19.9318    3.8666 C   0  0  0  0  0  0  0  0  0  0  0  0
   13.6755  -19.9788    4.1947 O   0  0  0  0  0  0  0  0  0  0  0  0
   14.7072  -22.6416    7.9599 N   0  0  0  0  0  0  0  0  0  0  0  0
   14.5608  -21.4866    8.7637 C   0  0  0  0  0  0  0  0  0  0  0  0
   14.2002  -21.5990    9.9529 O   0  0  0  0  0  0  0  0  0  0  0  0
   14.8326  -20.1487    8.1979 C   0  0  0  0  0  0  0  0  0  0  0  0
   15.2089  -20.1877    6.7612 C   0  0  0  0  0  0  0  0  0  0  0  0
   15.5092  -18.8734    6.0948 C   0  0  2  0  0  0  0  0  0  0  0  0
   15.7728  -19.2553    4.6932 N   0  0  0  0  0  0  0  0  0  0  0  0
   16.6318  -18.1518    6.6567 C   0  0  0  0  0  0  0  0  0  0  0  0
   17.7902  -18.6196    6.5174 O   0  0  0  0  0  0  0  0  0  0  0  0
   18.9658  -12.4252    2.6105 O   0  0  0  0  0  0  0  0  0  0  0  0
   18.5617  -13.0227    3.8077 C   0  0  0  0  0  0  0  0  0  0  0  0
   18.1793  -14.3514    3.8718 C   0  0  0  0  0  0  0  0  0  0  0  0
   17.7836  -14.9315    5.0486 C   0  0  0  0  0  0  0  0  0  0  0  0
   17.7648  -14.1755    6.2011 C   0  0  0  0  0  0  0  0  0  0  0  0
   17.3480  -14.7431    7.4740 C   0  0  0  0  0  0  0  0  0  0  0  0
   17.7204  -16.1956    7.6768 C   0  0  2  0  0  0  0  0  0  0  0  0
   16.4818  -16.9426    7.3496 N   0  0  0  0  0  0  0  0  0  0  0  0
   17.9711  -16.4294    9.1183 C   0  0  0  0  0  0  0  0  0  0  0  0
   17.0524  -17.0959    9.9310 O   0  0  0  0  0  0  0  0  0  0  0  0
   18.1423  -12.8480    6.1606 C   0  0  0  0  0  0  0  0  0  0  0  0
   18.5425  -12.2725    4.9545 C   0  0  0  0  0  0  0  0  0  0  0  0
   19.0154  -16.0496    9.7079 O   0  0  0  0  0  0  0  0  0  0  0  0
  2  1  1  1
  3  2  1  0
  4  2  1  0
  4  5  1  6
  6 14  1  0
  6  4  1  0
  7  6  2  0
  8  9  1  0
  9 10  2  0
 11 12  1  0
 11  9  1  0
 13 12  1  1
 13 14  1  0
 15 13  1  0
 16 15  2  0
 18 28  2  0
 18 17  1  0
 19 18  1  0
 20 21  1  0
 20 19  2  0
 21 27  2  0
 22 21  1  0
 23 22  1  1
 23 25  1  0
 23 24  1  0
 24 15  1  0
 25 26  1  0
 27 28  1  0
 29 25  2  0
M  END
$$$$
