VQY.pdb
     RDKit          3D

 29 29  0  0  1  0  0  0  0  0999 V2000
   39.3202   -3.9410  -10.4045 C   0  0  0  0  0  0  0  0  0  0  0  0
   38.4841   -5.1226  -10.8212 C   0  0  1  0  0  0  0  0  0  0  0  0
   37.8417   -4.9219  -12.1514 C   0  0  0  0  0  0  0  0  0  0  0  0
   39.3488   -6.3559  -10.7229 C   0  0  2  0  0  0  0  0  0  0  0  0
   38.6704   -7.5364  -11.2012 N   0  0  0  0  0  0  0  0  0  0  0  0
   39.8211   -6.6251   -9.3414 C   0  0  0  0  0  0  0  0  0  0  0  0
   40.4698   -5.7769   -8.6929 O   0  0  0  0  0  0  0  0  0  0  0  0
   36.9111  -11.0336   -6.2292 N   0  0  0  0  0  0  0  0  0  0  0  0
   36.5471   -9.6666   -6.2548 C   0  0  0  0  0  0  0  0  0  0  0  0
   35.3840   -9.3279   -5.9560 O   0  0  0  0  0  0  0  0  0  0  0  0
   37.5402   -8.6406   -6.6356 C   0  0  0  0  0  0  0  0  0  0  0  0
   38.8720   -9.2108   -6.9648 C   0  0  0  0  0  0  0  0  0  0  0  0
   39.9472   -8.2458   -7.3824 C   0  0  2  0  0  0  0  0  0  0  0  0
   39.5391   -7.8510   -8.7452 N   0  0  0  0  0  0  0  0  0  0  0  0
   41.2875   -8.7939   -7.3796 C   0  0  0  0  0  0  0  0  0  0  0  0
   41.7231   -9.3481   -8.4204 O   0  0  0  0  0  0  0  0  0  0  0  0
   49.6390  -10.5546   -5.2381 O   0  0  0  0  0  0  0  0  0  0  0  0
   48.3262  -10.0777   -5.2910 C   0  0  0  0  0  0  0  0  0  0  0  0
   47.3702  -10.4569   -4.3646 C   0  0  0  0  0  0  0  0  0  0  0  0
   46.0844   -9.9862   -4.4220 C   0  0  0  0  0  0  0  0  0  0  0  0
   45.7299   -9.1119   -5.4269 C   0  0  0  0  0  0  0  0  0  0  0  0
   44.3770   -8.5879   -5.5343 C   0  0  0  0  0  0  0  0  0  0  0  0
   43.4272   -9.4376   -6.3499 C   0  0  2  0  0  0  0  0  0  0  0  0
   42.1281   -8.7278   -6.2598 N   0  0  0  0  0  0  0  0  0  0  0  0
   43.2335  -10.7352   -5.6617 C   0  0  0  0  0  0  0  0  0  0  0  0
   43.9514  -11.8777   -6.0198 O   0  0  0  0  0  0  0  0  0  0  0  0
   46.6673   -8.7199   -6.3618 C   0  0  0  0  0  0  0  0  0  0  0  0
   47.9720   -9.2083   -6.2894 C   0  0  0  0  0  0  0  0  0  0  0  0
   42.4191  -10.9011   -4.7174 O   0  0  0  0  0  0  0  0  0  0  0  0
  2  1  1  6
  3  2  1  0
  4  2  1  0
  4  5  1  1
  6 14  1  0
  6  4  1  0
  7  6  2  0
  8  9  1  0
  9 10  2  0
 11 12  1  0
 11  9  1  0
 13 12  1  6
 13 14  1  0
 15 13  1  0
 16 15  2  0
 18 28  2  0
 18 17  1  0
 19 18  1  0
 20 21  1  0
 20 19  2  0
 21 27  2  0
 22 21  1  0
 23 22  1  1
 23 25  1  0
 23 24  1  0
 24 15  1  0
 25 26  1  0
 27 28  1  0
 29 25  2  0
M  END
$$$$
