VQY.pdb
     RDKit          3D

 29 29  0  0  1  0  0  0  0  0999 V2000
   18.7703  -11.2844  -14.9033 C   0  0  0  0  0  0  0  0  0  0  0  0
   18.7836  -12.2963  -16.0191 C   0  0  1  0  0  0  0  0  0  0  0  0
   18.4941  -13.6767  -15.5362 C   0  0  0  0  0  0  0  0  0  0  0  0
   17.8524  -11.8024  -17.0995 C   0  0  2  0  0  0  0  0  0  0  0  0
   17.6681  -12.7774  -18.1474 N   0  0  0  0  0  0  0  0  0  0  0  0
   18.3089  -10.5358  -17.7250 C   0  0  0  0  0  0  0  0  0  0  0  0
   18.5470  -10.4572  -18.9489 O   0  0  0  0  0  0  0  0  0  0  0  0
   18.0875   -7.6342  -20.8448 N   0  0  0  0  0  0  0  0  0  0  0  0
   17.4343   -6.5210  -20.2651 C   0  0  0  0  0  0  0  0  0  0  0  0
   17.2568   -5.4853  -20.9377 O   0  0  0  0  0  0  0  0  0  0  0  0
   16.9637   -6.5822  -18.8655 C   0  0  0  0  0  0  0  0  0  0  0  0
   17.2371   -7.8891  -18.2140 C   0  0  0  0  0  0  0  0  0  0  0  0
   18.5208   -8.0150  -17.4407 C   0  0  2  0  0  0  0  0  0  0  0  0
   18.4791   -9.4017  -16.9359 N   0  0  0  0  0  0  0  0  0  0  0  0
   18.6679   -7.0703  -16.3532 C   0  0  0  0  0  0  0  0  0  0  0  0
   17.8478   -7.1021  -15.4012 O   0  0  0  0  0  0  0  0  0  0  0  0
   22.9258  -10.5198  -13.1223 O   0  0  0  0  0  0  0  0  0  0  0  0
   22.5190   -9.2473  -13.5333 C   0  0  0  0  0  0  0  0  0  0  0  0
   22.8205   -8.7512  -14.7899 C   0  0  0  0  0  0  0  0  0  0  0  0
   22.4193   -7.5025  -15.1870 C   0  0  0  0  0  0  0  0  0  0  0  0
   21.6959   -6.7169  -14.3154 C   0  0  0  0  0  0  0  0  0  0  0  0
   21.2511   -5.3827  -14.6873 C   0  0  0  0  0  0  0  0  0  0  0  0
   19.7961   -5.2852  -15.0909 C   0  0  2  0  0  0  0  0  0  0  0  0
   19.6964   -6.1186  -16.3136 N   0  0  0  0  0  0  0  0  0  0  0  0
   19.5091   -3.8957  -15.5178 C   0  0  0  0  0  0  0  0  0  0  0  0
   19.4013   -2.8473  -14.6024 O   0  0  0  0  0  0  0  0  0  0  0  0
   21.3835   -7.1916  -13.0569 C   0  0  0  0  0  0  0  0  0  0  0  0
   21.7996   -8.4650  -12.6681 C   0  0  0  0  0  0  0  0  0  0  0  0
   19.3436   -3.5629  -16.7195 O   0  0  0  0  0  0  0  0  0  0  0  0
  2  1  1  1
  3  2  1  0
  4  2  1  0
  4  5  1  6
  6 14  1  0
  6  4  1  0
  7  6  2  0
  8  9  1  0
  9 10  2  0
 11 12  1  0
 11  9  1  0
 13 12  1  1
 13 14  1  0
 15 13  1  0
 16 15  2  0
 18 28  2  0
 18 17  1  0
 19 18  1  0
 20 21  1  0
 20 19  2  0
 21 27  2  0
 22 21  1  0
 23 22  1  6
 23 25  1  0
 23 24  1  0
 24 15  1  0
 25 26  1  0
 27 28  1  0
 29 25  2  0
M  END
$$$$
