VQY.pdb
     RDKit          3D

 29 29  0  0  1  0  0  0  0  0999 V2000
   22.0626  -14.0955  -20.7967 C   0  0  0  0  0  0  0  0  0  0  0  0
   21.4832  -14.6871  -19.5384 C   0  0  1  0  0  0  0  0  0  0  0  0
   21.9539  -16.0811  -19.2982 C   0  0  0  0  0  0  0  0  0  0  0  0
   21.7635  -13.7277  -18.4073 C   0  0  2  0  0  0  0  0  0  0  0  0
   21.2400  -14.2015  -17.1487 N   0  0  0  0  0  0  0  0  0  0  0  0
   21.2174  -12.3687  -18.6500 C   0  0  0  0  0  0  0  0  0  0  0  0
   21.5224  -11.7112  -19.6676 O   0  0  0  0  0  0  0  0  0  0  0  0
   15.5248  -11.1724  -17.7328 N   0  0  0  0  0  0  0  0  0  0  0  0
   16.2243  -11.2992  -16.5095 C   0  0  0  0  0  0  0  0  0  0  0  0
   15.6048  -11.5937  -15.4673 O   0  0  0  0  0  0  0  0  0  0  0  0
   17.6855  -11.0824  -16.4636 C   0  0  0  0  0  0  0  0  0  0  0  0
   18.2658  -10.7332  -17.7859 C   0  0  0  0  0  0  0  0  0  0  0  0
   19.7437  -10.4593  -17.8358 C   0  0  2  0  0  0  0  0  0  0  0  0
   20.3427  -11.8042  -17.7259 N   0  0  0  0  0  0  0  0  0  0  0  0
   20.2335   -9.5853  -16.7903 C   0  0  0  0  0  0  0  0  0  0  0  0
   20.2593  -10.0048  -15.6056 O   0  0  0  0  0  0  0  0  0  0  0  0
   22.4622   -1.5825  -13.7421 O   0  0  0  0  0  0  0  0  0  0  0  0
   22.3886   -2.8116  -14.4036 C   0  0  0  0  0  0  0  0  0  0  0  0
   22.9792   -3.9552  -13.8942 C   0  0  0  0  0  0  0  0  0  0  0  0
   22.9040   -5.1574  -14.5478 C   0  0  0  0  0  0  0  0  0  0  0  0
   22.2232   -5.2341  -15.7439 C   0  0  0  0  0  0  0  0  0  0  0  0
   22.1190   -6.4854  -16.4786 C   0  0  0  0  0  0  0  0  0  0  0  0
   21.1656   -7.4975  -15.8821 C   0  0  2  0  0  0  0  0  0  0  0  0
   20.6883   -8.2841  -17.0452 N   0  0  0  0  0  0  0  0  0  0  0  0
   19.9785   -6.7849  -15.3547 C   0  0  0  0  0  0  0  0  0  0  0  0
   18.8545   -6.5338  -16.1437 O   0  0  0  0  0  0  0  0  0  0  0  0
   21.6262   -4.1060  -16.2706 C   0  0  0  0  0  0  0  0  0  0  0  0
   21.7121   -2.8897  -15.5929 C   0  0  0  0  0  0  0  0  0  0  0  0
   19.8970   -6.3593  -14.1737 O   0  0  0  0  0  0  0  0  0  0  0  0
  2  1  1  6
  3  2  1  0
  4  2  1  0
  4  5  1  1
  6 14  1  0
  6  4  1  0
  7  6  2  0
  8  9  1  0
  9 10  2  0
 11 12  1  0
 11  9  1  0
 13 12  1  1
 13 14  1  0
 15 13  1  0
 16 15  2  0
 18 28  2  0
 18 17  1  0
 19 18  1  0
 20 21  1  0
 20 19  2  0
 21 27  2  0
 22 21  1  0
 23 22  1  6
 23 25  1  0
 23 24  1  0
 24 15  1  0
 25 26  1  0
 27 28  1  0
 29 25  2  0
M  END
$$$$
