NNE.pdb
     RDKit          3D

 26 25  0  0  1  0  0  0  0  0999 V2000
    6.8328  -12.5534   18.5856 N   0  0  0  0  0  0  0  0  0  0  0  0
    7.8129  -13.4000   19.1358 C   0  0  0  0  0  0  0  0  0  0  0  0
    8.6332  -13.9541   18.3626 O   0  0  0  0  0  0  0  0  0  0  0  0
    7.8944  -13.6516   20.5954 C   0  0  0  0  0  0  0  0  0  0  0  0
    8.2256  -15.0886   20.9222 C   0  0  2  0  0  0  0  0  0  0  0  0
    7.3705  -16.0154   20.2524 N   0  0  0  0  0  0  0  0  0  0  0  0
    8.2611  -15.2796   22.3847 C   0  0  0  0  0  0  0  0  0  0  0  0
    8.9471  -14.5053   23.1394 O   0  0  0  0  0  0  0  0  0  0  0  0
    6.9010  -18.8696   23.2787 N   0  0  0  0  0  0  0  0  0  0  0  0
    6.0793  -18.4868   24.3843 C   0  0  0  0  0  0  0  0  0  0  0  0
    5.0988  -19.2163   24.6638 O   0  0  0  0  0  0  0  0  0  0  0  0
    6.4626  -17.2611   25.0987 C   0  0  0  0  0  0  0  0  0  0  0  0
    7.6813  -16.5636   24.4873 C   0  0  2  0  0  0  0  0  0  0  0  0
    7.5716  -16.2985   23.0981 N   0  0  0  0  0  0  0  0  0  0  0  0
    8.8692  -17.2958   24.9278 C   0  0  0  0  0  0  0  0  0  0  0  0
    8.7544  -18.5656   24.9377 O   0  0  0  0  0  0  0  0  0  0  0  0
   10.0818  -16.7365   25.3259 N   0  0  0  0  0  0  0  0  0  0  0  0
   11.1657  -17.6398   25.7649 C   0  0  1  0  0  0  0  0  0  0  0  0
   12.4919  -17.0818   25.3878 C   0  0  0  0  0  0  0  0  0  0  0  0
   12.6042  -16.8720   23.9209 C   0  0  0  0  0  0  0  0  0  0  0  0
   13.9161  -16.2384   23.5499 C   0  0  0  0  0  0  0  0  0  0  0  0
   14.6706  -15.9379   24.5052 O   0  0  0  0  0  0  0  0  0  0  0  0
   11.0627  -17.7812   27.2294 C   0  0  0  0  0  0  0  0  0  0  0  0
   11.7870  -18.7812   27.9171 O   0  0  0  0  0  0  0  0  0  0  0  0
   14.3176  -15.9807   22.2693 O   0  0  0  0  0  0  0  0  0  0  0  0
   10.3565  -17.0609   27.9632 O   0  0  0  0  0  0  0  0  0  0  0  0
  2  1  1  0
  2  4  1  0
  3  2  2  0
  5  4  1  0
  5  6  1  6
  7  5  1  0
  8  7  2  0
  9 10  1  0
 10 12  1  0
 11 10  2  0
 13 12  1  6
 13 14  1  0
 14  7  1  0
 15 13  1  0
 15 16  2  0
 17 15  1  0
 18 17  1  0
 19 20  1  0
 18 19  1  1
 20 21  1  0
 21 25  1  0
 21 22  2  0
 23 18  1  0
 24 23  1  0
 26 23  2  0
M  END
$$$$
