NNE.pdb
     RDKit          3D

 26 25  0  0  1  0  0  0  0  0999 V2000
   12.6248  -15.6719   11.0321 N   0  0  0  0  0  0  0  0  0  0  0  0
   11.7648  -16.3160   11.9407 C   0  0  0  0  0  0  0  0  0  0  0  0
   10.9866  -17.2022   11.5087 O   0  0  0  0  0  0  0  0  0  0  0  0
   11.7563  -15.9710   13.3834 C   0  0  0  0  0  0  0  0  0  0  0  0
   10.6807  -16.7020   14.1517 C   0  0  2  0  0  0  0  0  0  0  0  0
    9.3695  -16.4270   13.6578 N   0  0  0  0  0  0  0  0  0  0  0  0
   10.8260  -16.4424   15.5968 C   0  0  0  0  0  0  0  0  0  0  0  0
   11.6648  -15.5802   16.0359 O   0  0  0  0  0  0  0  0  0  0  0  0
    7.3555  -18.4289   19.6553 N   0  0  0  0  0  0  0  0  0  0  0  0
    7.9430  -17.8270   18.4992 C   0  0  0  0  0  0  0  0  0  0  0  0
    7.6569  -18.3116   17.3789 O   0  0  0  0  0  0  0  0  0  0  0  0
    8.8374  -16.6844   18.7319 C   0  0  0  0  0  0  0  0  0  0  0  0
   10.1847  -16.8186   18.0160 C   0  0  2  0  0  0  0  0  0  0  0  0
   10.0881  -17.0882   16.6267 N   0  0  0  0  0  0  0  0  0  0  0  0
   11.0111  -17.7291   18.8093 C   0  0  0  0  0  0  0  0  0  0  0  0
   11.0010  -18.9459   18.4287 O   0  0  0  0  0  0  0  0  0  0  0  0
   11.7868  -17.3865   19.9150 N   0  0  0  0  0  0  0  0  0  0  0  0
   12.5537  -18.4501   20.5963 C   0  0  1  0  0  0  0  0  0  0  0  0
   13.8264  -17.9058   21.1406 C   0  0  0  0  0  0  0  0  0  0  0  0
   14.6803  -17.3275   20.0706 C   0  0  0  0  0  0  0  0  0  0  0  0
   15.9803  -16.8081   20.6184 C   0  0  0  0  0  0  0  0  0  0  0  0
   16.1098  -16.8563   21.8646 O   0  0  0  0  0  0  0  0  0  0  0  0
   11.7113  -18.9797   21.6850 C   0  0  0  0  0  0  0  0  0  0  0  0
   12.1020  -20.1236   22.4174 O   0  0  0  0  0  0  0  0  0  0  0  0
   16.9957  -16.3026   19.8561 O   0  0  0  0  0  0  0  0  0  0  0  0
   10.6231  -18.4865   22.0432 O   0  0  0  0  0  0  0  0  0  0  0  0
  2  1  1  0
  2  4  1  0
  3  2  2  0
  5  4  1  0
  5  6  1  6
  7  5  1  0
  8  7  2  0
  9 10  1  0
 10 12  1  0
 11 10  2  0
 13 12  1  1
 13 14  1  0
 14  7  1  0
 15 13  1  0
 15 16  2  0
 17 15  1  0
 18 17  1  0
 19 20  1  0
 18 19  1  1
 20 21  1  0
 21 25  1  0
 21 22  2  0
 23 18  1  0
 24 23  1  0
 26 23  2  0
M  END
$$$$
