NNE.pdb
     RDKit          3D

 26 25  0  0  1  0  0  0  0  0999 V2000
    7.7067  -12.8719   15.2408 N   0  0  0  0  0  0  0  0  0  0  0  0
    7.3089  -13.8512   16.1697 C   0  0  0  0  0  0  0  0  0  0  0  0
    6.7952  -14.9144   15.7412 O   0  0  0  0  0  0  0  0  0  0  0  0
    7.4792  -13.6544   17.6300 C   0  0  0  0  0  0  0  0  0  0  0  0
    8.2560  -14.7732   18.2829 C   0  0  2  0  0  0  0  0  0  0  0  0
    7.6299  -16.0459   18.1180 N   0  0  0  0  0  0  0  0  0  0  0  0
    8.5361  -14.4393   19.6924 C   0  0  0  0  0  0  0  0  0  0  0  0
    9.3541  -13.5045   20.0038 O   0  0  0  0  0  0  0  0  0  0  0  0
    8.0477  -13.1852   24.9924 N   0  0  0  0  0  0  0  0  0  0  0  0
    7.5320  -14.4289   24.5113 C   0  0  0  0  0  0  0  0  0  0  0  0
    7.4363  -15.3764   25.3267 O   0  0  0  0  0  0  0  0  0  0  0  0
    7.1578  -14.4837   23.0912 C   0  0  0  0  0  0  0  0  0  0  0  0
    8.3220  -14.8753   22.1763 C   0  0  2  0  0  0  0  0  0  0  0  0
    7.9598  -15.0849   20.8209 N   0  0  0  0  0  0  0  0  0  0  0  0
    9.0528  -15.9561   22.8390 C   0  0  0  0  0  0  0  0  0  0  0  0
    8.4444  -17.0754   22.8882 O   0  0  0  0  0  0  0  0  0  0  0  0
   10.3231  -15.8662   23.4047 N   0  0  0  0  0  0  0  0  0  0  0  0
   10.9397  -17.0917   23.9537 C   0  0  1  0  0  0  0  0  0  0  0  0
   12.2839  -17.3101   23.3556 C   0  0  0  0  0  0  0  0  0  0  0  0
   13.2201  -16.2044   23.6864 C   0  0  0  0  0  0  0  0  0  0  0  0
   14.5384  -16.3643   22.9817 C   0  0  0  0  0  0  0  0  0  0  0  0
   15.4143  -15.5096   23.2544 O   0  0  0  0  0  0  0  0  0  0  0  0
   11.0464  -16.9211   25.4149 C   0  0  0  0  0  0  0  0  0  0  0  0
   11.4910  -17.9782   26.2409 O   0  0  0  0  0  0  0  0  0  0  0  0
   14.8243  -17.3587   22.0889 O   0  0  0  0  0  0  0  0  0  0  0  0
   10.7657  -15.8720   26.0284 O   0  0  0  0  0  0  0  0  0  0  0  0
  2  1  1  0
  2  4  1  0
  3  2  2  0
  5  4  1  0
  5  6  1  1
  7  5  1  0
  8  7  2  0
  9 10  1  0
 10 12  1  0
 11 10  2  0
 13 12  1  1
 13 14  1  0
 14  7  1  0
 15 13  1  0
 15 16  2  0
 17 15  1  0
 18 17  1  0
 19 20  1  0
 18 19  1  6
 20 21  1  0
 21 25  1  0
 21 22  2  0
 23 18  1  0
 24 23  1  0
 26 23  2  0
M  END
$$$$
