NNE.pdb
     RDKit          3D

 26 25  0  0  1  0  0  0  0  0999 V2000
   10.7139  -19.5788   14.2605 N   0  0  0  0  0  0  0  0  0  0  0  0
   11.4192  -18.3830   14.4902 C   0  0  0  0  0  0  0  0  0  0  0  0
   11.9700  -17.8120   13.5164 O   0  0  0  0  0  0  0  0  0  0  0  0
   11.5272  -17.7906   15.8458 C   0  0  0  0  0  0  0  0  0  0  0  0
   10.2918  -17.0189   16.2456 C   0  0  2  0  0  0  0  0  0  0  0  0
    9.8321  -16.1454   15.2139 N   0  0  0  0  0  0  0  0  0  0  0  0
   10.5176  -16.3338   17.5325 C   0  0  0  0  0  0  0  0  0  0  0  0
   11.4397  -15.4552   17.6647 O   0  0  0  0  0  0  0  0  0  0  0  0
    6.5274  -16.5367   20.6968 N   0  0  0  0  0  0  0  0  0  0  0  0
    7.6513  -15.6560   20.6235 C   0  0  0  0  0  0  0  0  0  0  0  0
    7.4526  -14.4879   20.2140 O   0  0  0  0  0  0  0  0  0  0  0  0
    8.9493  -16.2060   21.0385 C   0  0  0  0  0  0  0  0  0  0  0  0
   10.0529  -15.9964   19.9975 C   0  0  2  0  0  0  0  0  0  0  0  0
    9.7745  -16.5567   18.7244 N   0  0  0  0  0  0  0  0  0  0  0  0
   11.3201  -16.3761   20.6230 C   0  0  0  0  0  0  0  0  0  0  0  0
   11.5604  -17.6280   20.6515 O   0  0  0  0  0  0  0  0  0  0  0  0
   12.2600  -15.5077   21.1744 N   0  0  0  0  0  0  0  0  0  0  0  0
   13.4785  -16.0804   21.7835 C   0  0  1  0  0  0  0  0  0  0  0  0
   14.6570  -15.2198   21.4959 C   0  0  0  0  0  0  0  0  0  0  0  0
   14.9015  -15.0907   20.0358 C   0  0  0  0  0  0  0  0  0  0  0  0
   16.0659  -14.1850   19.7463 C   0  0  0  0  0  0  0  0  0  0  0  0
   16.5371  -14.2497   18.5861 O   0  0  0  0  0  0  0  0  0  0  0  0
   13.2491  -16.1724   23.2376 C   0  0  0  0  0  0  0  0  0  0  0  0
   14.1685  -16.8389   24.0791 O   0  0  0  0  0  0  0  0  0  0  0  0
   16.6206  -13.3230   20.6501 O   0  0  0  0  0  0  0  0  0  0  0  0
   12.2639  -15.6905   23.8317 O   0  0  0  0  0  0  0  0  0  0  0  0
  2  1  1  0
  2  4  1  0
  3  2  2  0
  5  4  1  0
  5  6  1  6
  7  5  1  0
  8  7  2  0
  9 10  1  0
 10 12  1  0
 11 10  2  0
 13 12  1  1
 13 14  1  0
 14  7  1  0
 15 13  1  0
 15 16  2  0
 17 15  1  0
 18 17  1  0
 19 20  1  0
 18 19  1  1
 20 21  1  0
 21 25  1  0
 21 22  2  0
 23 18  1  0
 24 23  1  0
 26 23  2  0
M  END
$$$$
