NNE.pdb
     RDKit          3D

 26 25  0  0  1  0  0  0  0  0999 V2000
   13.6805  -15.3026   15.6282 N   0  0  0  0  0  0  0  0  0  0  0  0
   14.2586  -14.8710   16.8363 C   0  0  0  0  0  0  0  0  0  0  0  0
   15.4944  -15.0240   17.0012 O   0  0  0  0  0  0  0  0  0  0  0  0
   13.4462  -14.2481   17.9098 C   0  0  0  0  0  0  0  0  0  0  0  0
   12.7114  -15.2655   18.7504 C   0  0  2  0  0  0  0  0  0  0  0  0
   11.7927  -16.0480   17.9873 N   0  0  0  0  0  0  0  0  0  0  0  0
   12.0895  -14.6059   19.9143 C   0  0  0  0  0  0  0  0  0  0  0  0
   12.6272  -14.6611   21.0751 O   0  0  0  0  0  0  0  0  0  0  0  0
    8.4229  -12.4619   18.8086 N   0  0  0  0  0  0  0  0  0  0  0  0
    8.0198  -13.8110   18.5605 C   0  0  0  0  0  0  0  0  0  0  0  0
    7.1603  -14.0096   17.6696 O   0  0  0  0  0  0  0  0  0  0  0  0
    8.6554  -14.8516   19.3806 C   0  0  0  0  0  0  0  0  0  0  0  0
    9.6299  -14.2884   20.4194 C   0  0  2  0  0  0  0  0  0  0  0  0
   10.8756  -13.8656   19.8886 N   0  0  0  0  0  0  0  0  0  0  0  0
    9.6746  -15.2356   21.5339 C   0  0  0  0  0  0  0  0  0  0  0  0
    8.5882  -15.3568   22.1902 O   0  0  0  0  0  0  0  0  0  0  0  0
   10.7748  -15.9951   21.9265 N   0  0  0  0  0  0  0  0  0  0  0  0
   10.6484  -16.8563   23.1206 C   0  0  1  0  0  0  0  0  0  0  0  0
   10.4046  -18.2678   22.7200 C   0  0  0  0  0  0  0  0  0  0  0  0
   11.6401  -18.9164   22.2086 C   0  0  0  0  0  0  0  0  0  0  0  0
   11.4059  -20.3604   21.8623 C   0  0  0  0  0  0  0  0  0  0  0  0
   10.2587  -20.8045   22.1050 O   0  0  0  0  0  0  0  0  0  0  0  0
   11.9051  -16.7463   23.8848 C   0  0  0  0  0  0  0  0  0  0  0  0
   13.0719  -16.2102   23.2942 O   0  0  0  0  0  0  0  0  0  0  0  0
   12.3454  -21.1883   21.3151 O   0  0  0  0  0  0  0  0  0  0  0  0
   12.0462  -17.1016   25.0721 O   0  0  0  0  0  0  0  0  0  0  0  0
  2  1  1  0
  2  4  1  0
  3  2  2  0
  5  4  1  0
  5  6  1  6
  7  5  1  0
  8  7  2  0
  9 10  1  0
 10 12  1  0
 11 10  2  0
 13 12  1  6
 13 14  1  0
 14  7  1  0
 15 13  1  0
 15 16  2  0
 17 15  1  0
 18 17  1  0
 19 20  1  0
 18 19  1  6
 20 21  1  0
 21 25  1  0
 21 22  2  0
 23 18  1  0
 24 23  1  0
 26 23  2  0
M  END
$$$$
