NNE.pdb
     RDKit          3D

 26 25  0  0  1  0  0  0  0  0999 V2000
   14.5364  -19.2991   15.0297 N   0  0  0  0  0  0  0  0  0  0  0  0
   15.0710  -18.0984   15.5324 C   0  0  0  0  0  0  0  0  0  0  0  0
   16.0631  -17.5914   14.9523 O   0  0  0  0  0  0  0  0  0  0  0  0
   14.4948  -17.4276   16.7233 C   0  0  0  0  0  0  0  0  0  0  0  0
   15.1894  -17.8186   18.0064 C   0  0  2  0  0  0  0  0  0  0  0  0
   15.2127  -19.2317   18.2099 N   0  0  0  0  0  0  0  0  0  0  0  0
   14.6107  -17.0752   19.1418 C   0  0  0  0  0  0  0  0  0  0  0  0
   14.6394  -15.7956   19.1819 O   0  0  0  0  0  0  0  0  0  0  0  0
   10.9058  -15.3051   22.6140 N   0  0  0  0  0  0  0  0  0  0  0  0
   11.5217  -16.5593   22.9171 C   0  0  0  0  0  0  0  0  0  0  0  0
   11.5789  -16.9064   24.1205 O   0  0  0  0  0  0  0  0  0  0  0  0
   12.0365  -17.3342   21.7796 C   0  0  0  0  0  0  0  0  0  0  0  0
   13.4736  -16.9647   21.4002 C   0  0  2  0  0  0  0  0  0  0  0  0
   13.9824  -17.6620   20.2745 N   0  0  0  0  0  0  0  0  0  0  0  0
   14.2740  -17.0137   22.6242 C   0  0  0  0  0  0  0  0  0  0  0  0
   13.9677  -16.1503   23.5109 O   0  0  0  0  0  0  0  0  0  0  0  0
   15.3140  -17.9010   22.8940 N   0  0  0  0  0  0  0  0  0  0  0  0
   16.0568  -17.7534   24.1629 C   0  0  1  0  0  0  0  0  0  0  0  0
   16.7601  -16.4435   24.2040 C   0  0  0  0  0  0  0  0  0  0  0  0
   17.9497  -16.4289   23.3134 C   0  0  0  0  0  0  0  0  0  0  0  0
   18.8961  -15.3166   23.6700 C   0  0  0  0  0  0  0  0  0  0  0  0
   19.2202  -14.5494   22.7327 O   0  0  0  0  0  0  0  0  0  0  0  0
   15.0809  -17.8501   25.2646 C   0  0  0  0  0  0  0  0  0  0  0  0
   13.9949  -16.9502   25.3565 O   0  0  0  0  0  0  0  0  0  0  0  0
   19.4056  -15.1034   24.9201 O   0  0  0  0  0  0  0  0  0  0  0  0
   15.1239  -18.6994   26.1771 O   0  0  0  0  0  0  0  0  0  0  0  0
  2  1  1  0
  2  4  1  0
  3  2  2  0
  5  4  1  0
  5  6  1  1
  7  5  1  0
  8  7  2  0
  9 10  1  0
 10 12  1  0
 11 10  2  0
 13 12  1  1
 13 14  1  0
 14  7  1  0
 15 13  1  0
 15 16  2  0
 17 15  1  0
 18 17  1  0
 19 20  1  0
 18 19  1  6
 20 21  1  0
 21 25  1  0
 21 22  2  0
 23 18  1  0
 24 23  1  0
 26 23  2  0
M  END
$$$$
