NNE.pdb
     RDKit          3D

 26 25  0  0  1  0  0  0  0  0999 V2000
    4.8898  -19.5724   18.3946 N   0  0  0  0  0  0  0  0  0  0  0  0
    6.1607  -19.7520   17.8179 C   0  0  0  0  0  0  0  0  0  0  0  0
    6.3817  -20.7999   17.1614 O   0  0  0  0  0  0  0  0  0  0  0  0
    7.2352  -18.7408   17.9703 C   0  0  0  0  0  0  0  0  0  0  0  0
    7.6305  -18.5222   19.4117 C   0  0  2  0  0  0  0  0  0  0  0  0
    6.5040  -18.4584   20.2867 N   0  0  0  0  0  0  0  0  0  0  0  0
    8.5205  -17.3505   19.5201 C   0  0  0  0  0  0  0  0  0  0  0  0
    9.6643  -17.3294   18.9448 O   0  0  0  0  0  0  0  0  0  0  0  0
    6.4549  -12.8397   19.3630 N   0  0  0  0  0  0  0  0  0  0  0  0
    7.7706  -13.3856   19.2400 C   0  0  0  0  0  0  0  0  0  0  0  0
    8.2280  -13.5534   18.0848 O   0  0  0  0  0  0  0  0  0  0  0  0
    8.4732  -13.7035   20.4909 C   0  0  0  0  0  0  0  0  0  0  0  0
    9.1274  -15.0883   20.4791 C   0  0  2  0  0  0  0  0  0  0  0  0
    8.2296  -16.1608   20.2429 N   0  0  0  0  0  0  0  0  0  0  0  0
    9.9693  -15.1829   21.6723 C   0  0  0  0  0  0  0  0  0  0  0  0
    9.4590  -14.7059   22.7388 O   0  0  0  0  0  0  0  0  0  0  0  0
   11.2467  -15.7357   21.7380 N   0  0  0  0  0  0  0  0  0  0  0  0
   11.9509  -15.7338   23.0371 C   0  0  1  0  0  0  0  0  0  0  0  0
   11.3921  -16.7817   23.9327 C   0  0  0  0  0  0  0  0  0  0  0  0
   11.4052  -18.1208   23.2886 C   0  0  0  0  0  0  0  0  0  0  0  0
   10.9209  -19.1919   24.2259 C   0  0  0  0  0  0  0  0  0  0  0  0
   11.6583  -19.4347   25.2105 O   0  0  0  0  0  0  0  0  0  0  0  0
   13.3787  -15.9902   22.7707 C   0  0  0  0  0  0  0  0  0  0  0  0
   13.8331  -16.2949   21.4675 O   0  0  0  0  0  0  0  0  0  0  0  0
    9.7582  -19.8924   24.0676 O   0  0  0  0  0  0  0  0  0  0  0  0
   14.2772  -15.9625   23.6354 O   0  0  0  0  0  0  0  0  0  0  0  0
  2  1  1  0
  2  4  1  0
  3  2  2  0
  5  4  1  0
  5  6  1  1
  7  5  1  0
  8  7  2  0
  9 10  1  0
 10 12  1  0
 11 10  2  0
 13 12  1  1
 13 14  1  0
 14  7  1  0
 15 13  1  0
 15 16  2  0
 17 15  1  0
 18 17  1  0
 19 20  1  0
 18 19  1  1
 20 21  1  0
 21 25  1  0
 21 22  2  0
 23 18  1  0
 24 23  1  0
 26 23  2  0
M  END
$$$$
