NNE.pdb
     RDKit          3D

 26 25  0  0  1  0  0  0  0  0999 V2000
   15.6746  -15.2465   14.4959 N   0  0  0  0  0  0  0  0  0  0  0  0
   16.1335  -14.2585   15.3866 C   0  0  0  0  0  0  0  0  0  0  0  0
   17.1339  -13.5720   15.0613 O   0  0  0  0  0  0  0  0  0  0  0  0
   15.4689  -14.0157   16.6902 C   0  0  0  0  0  0  0  0  0  0  0  0
   14.4224  -15.0556   17.0143 C   0  0  2  0  0  0  0  0  0  0  0  0
   13.4790  -15.2336   15.9573 N   0  0  0  0  0  0  0  0  0  0  0  0
   13.7924  -14.7517   18.3134 C   0  0  0  0  0  0  0  0  0  0  0  0
   14.4954  -14.4229   19.3319 O   0  0  0  0  0  0  0  0  0  0  0  0
   10.3262  -15.8296   17.9162 N   0  0  0  0  0  0  0  0  0  0  0  0
    9.5504  -14.9969   18.7815 C   0  0  0  0  0  0  0  0  0  0  0  0
    8.3031  -15.0283   18.6588 O   0  0  0  0  0  0  0  0  0  0  0  0
   10.2930  -14.1720   19.7447 C   0  0  0  0  0  0  0  0  0  0  0  0
   11.7782  -14.5364   19.8306 C   0  0  2  0  0  0  0  0  0  0  0  0
   12.3957  -14.7867   18.5783 N   0  0  0  0  0  0  0  0  0  0  0  0
   11.9139  -15.5746   20.8529 C   0  0  0  0  0  0  0  0  0  0  0  0
   11.6714  -16.7626   20.4588 O   0  0  0  0  0  0  0  0  0  0  0  0
   12.2764  -15.3784   22.1839 N   0  0  0  0  0  0  0  0  0  0  0  0
   12.6513  -16.5556   22.9945 C   0  0  1  0  0  0  0  0  0  0  0  0
   14.1227  -16.7689   22.9516 C   0  0  0  0  0  0  0  0  0  0  0  0
   14.8615  -15.4860   22.8219 C   0  0  0  0  0  0  0  0  0  0  0  0
   16.3480  -15.7048   22.7702 C   0  0  0  0  0  0  0  0  0  0  0  0
   16.9368  -15.2420   21.7646 O   0  0  0  0  0  0  0  0  0  0  0  0
   12.2062  -16.3045   24.3780 C   0  0  0  0  0  0  0  0  0  0  0  0
   11.5400  -15.1066   24.7225 O   0  0  0  0  0  0  0  0  0  0  0  0
   17.0687  -16.3596   23.7291 O   0  0  0  0  0  0  0  0  0  0  0  0
   12.3706  -17.0938   25.3298 O   0  0  0  0  0  0  0  0  0  0  0  0
  2  1  1  0
  2  4  1  0
  3  2  2  0
  5  4  1  0
  5  6  1  6
  7  5  1  0
  8  7  2  0
  9 10  1  0
 10 12  1  0
 11 10  2  0
 13 12  1  6
 13 14  1  0
 14  7  1  0
 15 13  1  0
 15 16  2  0
 17 15  1  0
 18 17  1  0
 19 20  1  0
 18 19  1  1
 20 21  1  0
 21 25  1  0
 21 22  2  0
 23 18  1  0
 24 23  1  0
 26 23  2  0
M  END
$$$$
