NNE.pdb
     RDKit          3D

 26 25  0  0  1  0  0  0  0  0999 V2000
   14.0950  -13.4957   18.1894 N   0  0  0  0  0  0  0  0  0  0  0  0
   13.1682  -14.5223   18.4488 C   0  0  0  0  0  0  0  0  0  0  0  0
   13.0940  -15.4842   17.6444 O   0  0  0  0  0  0  0  0  0  0  0  0
   12.2836  -14.4906   19.6390 C   0  0  0  0  0  0  0  0  0  0  0  0
   12.2837  -15.7948   20.4011 C   0  0  2  0  0  0  0  0  0  0  0  0
   11.3776  -16.7519   19.8520 N   0  0  0  0  0  0  0  0  0  0  0  0
   12.0645  -15.5413   21.8379 C   0  0  0  0  0  0  0  0  0  0  0  0
   12.2676  -14.3840   22.3469 O   0  0  0  0  0  0  0  0  0  0  0  0
    7.8250  -14.1933   21.9644 N   0  0  0  0  0  0  0  0  0  0  0  0
    8.6837  -14.7406   22.9680 C   0  0  0  0  0  0  0  0  0  0  0  0
    8.9557  -14.0226   23.9592 O   0  0  0  0  0  0  0  0  0  0  0  0
    9.1741  -16.1076   22.7438 C   0  0  0  0  0  0  0  0  0  0  0  0
   10.4324  -16.4364   23.5527 C   0  0  2  0  0  0  0  0  0  0  0  0
   11.6234  -16.5058   22.7852 N   0  0  0  0  0  0  0  0  0  0  0  0
   10.1205  -17.5928   24.3934 C   0  0  0  0  0  0  0  0  0  0  0  0
    9.1730  -17.4198   25.2287 O   0  0  0  0  0  0  0  0  0  0  0  0
   10.7551  -18.8329   24.3577 N   0  0  0  0  0  0  0  0  0  0  0  0
   11.4608  -19.2999   25.5691 C   0  0  1  0  0  0  0  0  0  0  0  0
   12.7699  -18.6075   25.7073 C   0  0  0  0  0  0  0  0  0  0  0  0
   13.5144  -18.5752   24.4215 C   0  0  0  0  0  0  0  0  0  0  0  0
   14.9621  -18.9343   24.6096 C   0  0  0  0  0  0  0  0  0  0  0  0
   15.2390  -19.5706   25.6539 O   0  0  0  0  0  0  0  0  0  0  0  0
   10.5974  -19.0078   26.7287 C   0  0  0  0  0  0  0  0  0  0  0  0
   10.3496  -17.6771   27.1352 O   0  0  0  0  0  0  0  0  0  0  0  0
   15.9600  -18.6149   23.7323 O   0  0  0  0  0  0  0  0  0  0  0  0
   10.0313  -19.8728   27.4266 O   0  0  0  0  0  0  0  0  0  0  0  0
  2  1  1  0
  2  4  1  0
  3  2  2  0
  5  4  1  0
  5  6  1  6
  7  5  1  0
  8  7  2  0
  9 10  1  0
 10 12  1  0
 11 10  2  0
 13 12  1  6
 13 14  1  0
 14  7  1  0
 15 13  1  0
 15 16  2  0
 17 15  1  0
 18 17  1  0
 19 20  1  0
 18 19  1  1
 20 21  1  0
 21 25  1  0
 21 22  2  0
 23 18  1  0
 24 23  1  0
 26 23  2  0
M  END
$$$$
