PWM.pdb
     RDKit          3D

 30 32  0  0  1  0  0  0  0  0999 V2000
   27.3422  -19.4051  -15.8048 N   0  0  0  0  0  0  0  0  0  0  0  0
   28.4490  -19.1014  -16.7218 C   0  0  0  0  0  0  0  0  0  0  0  0
   29.6759  -19.6819  -16.0410 C   0  0  0  0  0  0  0  0  0  0  0  0
   29.1120  -20.6914  -15.0669 C   0  0  0  0  0  0  0  0  0  0  0  0
   27.6690  -20.7813  -15.4678 C   0  0  1  0  0  0  0  0  0  0  0  0
   26.7989  -21.3007  -14.3896 C   0  0  0  0  0  0  0  0  0  0  0  0
   27.0401  -22.4431  -13.9309 O   0  0  0  0  0  0  0  0  0  0  0  0
   25.7241  -20.5655  -13.8687 N   0  0  0  0  0  0  0  0  0  0  0  0
   25.1081  -20.8563  -12.5494 C   0  0  1  0  0  0  0  0  0  0  0  0
   25.6173  -19.8587  -11.5516 C   0  0  0  0  0  0  0  0  0  0  0  0
   26.7809  -20.3728  -10.8216 C   0  0  0  0  0  0  0  0  0  0  0  0
   27.9013  -20.9816  -11.3959 C   0  0  0  0  0  0  0  0  0  0  0  0
   28.7256  -21.3333  -10.4026 N   0  0  0  0  0  0  0  0  0  0  0  0
   28.2109  -20.9914   -9.2215 C   0  0  0  0  0  0  0  0  0  0  0  0
   28.6452  -21.1242   -7.9087 C   0  0  0  0  0  0  0  0  0  0  0  0
   27.8982  -20.6740   -6.8537 C   0  0  0  0  0  0  0  0  0  0  0  0
   26.6782  -20.0689   -7.0783 C   0  0  0  0  0  0  0  0  0  0  0  0
   26.2548  -19.9414   -8.3894 C   0  0  0  0  0  0  0  0  0  0  0  0
   27.0091  -20.3960   -9.4534 C   0  0  0  0  0  0  0  0  0  0  0  0
   23.6529  -20.8531  -12.7515 C   0  0  0  0  0  0  0  0  0  0  0  0
   23.1743  -20.0227  -13.5922 O   0  0  0  0  0  0  0  0  0  0  0  0
   19.4902  -25.1721  -10.3108 C   0  0  0  0  0  0  0  0  0  0  0  0
   18.3219  -24.2869  -11.3843 S   0  0  0  0  0  0  0  0  0  0  0  0
   19.1005  -22.7663  -12.0404 C   0  0  0  0  0  0  0  0  0  0  0  0
   20.5779  -22.7548  -11.7210 C   0  0  0  0  0  0  0  0  0  0  0  0
   21.2763  -21.5647  -12.3440 C   0  0  2  0  0  0  0  0  0  0  0  0
   22.7049  -21.6839  -12.1114 N   0  0  0  0  0  0  0  0  0  0  0  0
   20.6995  -20.2865  -11.9252 C   0  0  0  0  0  0  0  0  0  0  0  0
   21.1279  -19.7641  -10.8427 O   0  0  0  0  0  0  0  0  0  0  0  0
   19.7204  -19.5694  -12.5898 O   0  0  0  0  0  0  0  0  0  0  0  0
  1  2  1  0
  3  2  1  0
  4  3  1  0
  5  4  1  0
  5  1  1  0
  6  7  2  0
  5  6  1  1
  8  6  1  0
  9  8  1  0
 10 11  1  0
  9 10  1  1
 11 12  2  0
 11 19  1  0
 12 13  1  0
 13 14  1  0
 14 15  2  0
 15 16  1  0
 17 16  2  0
 18 17  1  0
 19 18  2  0
 19 14  1  0
 20 27  1  0
 20  9  1  0
 21 20  2  0
 22 23  1  0
 23 24  1  0
 26 25  1  1
 25 24  1  0
 26 27  1  0
 28 26  1  0
 29 28  2  0
 30 28  1  0
M  END
$$$$
