PWM.pdb
     RDKit          3D

 30 32  0  0  1  0  0  0  0  0999 V2000
   27.4522  -19.1323  -14.9248 N   0  0  0  0  0  0  0  0  0  0  0  0
   28.4133  -18.8641  -16.0030 C   0  0  0  0  0  0  0  0  0  0  0  0
   29.4741  -19.9385  -15.8416 C   0  0  0  0  0  0  0  0  0  0  0  0
   28.7876  -21.0131  -15.0291 C   0  0  0  0  0  0  0  0  0  0  0  0
   27.3515  -20.5787  -15.0355 C   0  0  1  0  0  0  0  0  0  0  0  0
   26.5655  -21.1580  -13.9238 C   0  0  0  0  0  0  0  0  0  0  0  0
   26.3915  -22.4001  -13.9042 O   0  0  0  0  0  0  0  0  0  0  0  0
   26.0139  -20.3721  -12.9014 N   0  0  0  0  0  0  0  0  0  0  0  0
   25.2272  -20.9409  -11.7780 C   0  0  1  0  0  0  0  0  0  0  0  0
   25.6088  -20.2272  -10.5150 C   0  0  0  0  0  0  0  0  0  0  0  0
   26.8959  -20.7018   -9.9960 C   0  0  0  0  0  0  0  0  0  0  0  0
   27.8152  -21.4929  -10.6921 C   0  0  0  0  0  0  0  0  0  0  0  0
   28.8452  -21.7338   -9.8729 N   0  0  0  0  0  0  0  0  0  0  0  0
   28.6518  -21.1494   -8.6905 C   0  0  0  0  0  0  0  0  0  0  0  0
   29.3915  -21.0873   -7.5164 C   0  0  0  0  0  0  0  0  0  0  0  0
   28.9464  -20.3991   -6.4200 C   0  0  0  0  0  0  0  0  0  0  0  0
   27.7330  -19.7425   -6.4612 C   0  0  0  0  0  0  0  0  0  0  0  0
   27.0041  -19.8105   -7.6354 C   0  0  0  0  0  0  0  0  0  0  0  0
   27.4539  -20.5052   -8.7412 C   0  0  0  0  0  0  0  0  0  0  0  0
   23.8113  -20.8329  -12.1551 C   0  0  0  0  0  0  0  0  0  0  0  0
   23.3702  -19.6797  -12.4729 O   0  0  0  0  0  0  0  0  0  0  0  0
   22.8552  -25.2555  -14.4732 C   0  0  0  0  0  0  0  0  0  0  0  0
   21.6743  -24.4624  -15.6034 S   0  0  0  0  0  0  0  0  0  0  0  0
   21.0628  -22.8984  -14.8762 C   0  0  0  0  0  0  0  0  0  0  0  0
   21.0593  -22.9886  -13.3674 C   0  0  0  0  0  0  0  0  0  0  0  0
   21.5207  -21.6961  -12.7279 C   0  0  2  0  0  0  0  0  0  0  0  0
   22.8651  -21.8817  -12.2108 N   0  0  0  0  0  0  0  0  0  0  0  0
   20.5634  -21.1740  -11.7517 C   0  0  0  0  0  0  0  0  0  0  0  0
   20.7183  -21.5031  -10.5286 O   0  0  0  0  0  0  0  0  0  0  0  0
   19.4874  -20.3457  -12.0175 O   0  0  0  0  0  0  0  0  0  0  0  0
  1  2  1  0
  3  2  1  0
  4  3  1  0
  5  4  1  0
  5  1  1  0
  6  7  2  0
  5  6  1  1
  8  6  1  0
  9  8  1  0
 10 11  1  0
  9 10  1  1
 11 12  2  0
 11 19  1  0
 12 13  1  0
 13 14  1  0
 14 15  2  0
 15 16  1  0
 17 16  2  0
 18 17  1  0
 19 18  2  0
 19 14  1  0
 20 27  1  0
 20  9  1  0
 21 20  2  0
 22 23  1  0
 23 24  1  0
 26 25  1  1
 25 24  1  0
 26 27  1  0
 28 26  1  0
 29 28  2  0
 30 28  1  0
M  END
$$$$
