PWM.pdb
     RDKit          3D

 30 32  0  0  1  0  0  0  0  0999 V2000
   26.3194  -19.9368  -17.3784 N   0  0  0  0  0  0  0  0  0  0  0  0
   27.0418  -19.8743  -18.6561 C   0  0  0  0  0  0  0  0  0  0  0  0
   28.3782  -20.5354  -18.3690 C   0  0  0  0  0  0  0  0  0  0  0  0
   28.1214  -21.3583  -17.1269 C   0  0  0  0  0  0  0  0  0  0  0  0
   26.6290  -21.3017  -16.9843 C   0  0  1  0  0  0  0  0  0  0  0  0
   26.1665  -21.5911  -15.6088 C   0  0  0  0  0  0  0  0  0  0  0  0
   25.8433  -22.7699  -15.3271 O   0  0  0  0  0  0  0  0  0  0  0  0
   26.0785  -20.6008  -14.6195 N   0  0  0  0  0  0  0  0  0  0  0  0
   25.9805  -20.9103  -13.1707 C   0  0  1  0  0  0  0  0  0  0  0  0
   26.9811  -20.0717  -12.4320 C   0  0  0  0  0  0  0  0  0  0  0  0
   27.2592  -20.6149  -11.0983 C   0  0  0  0  0  0  0  0  0  0  0  0
   27.9427  -21.8044  -10.8275 C   0  0  0  0  0  0  0  0  0  0  0  0
   27.9677  -21.9646   -9.4995 N   0  0  0  0  0  0  0  0  0  0  0  0
   27.3440  -20.9549   -8.8926 C   0  0  0  0  0  0  0  0  0  0  0  0
   27.0900  -20.6415   -7.5634 C   0  0  0  0  0  0  0  0  0  0  0  0
   26.4066  -19.5100   -7.2078 C   0  0  0  0  0  0  0  0  0  0  0  0
   25.9491  -18.6439   -8.1803 C   0  0  0  0  0  0  0  0  0  0  0  0
   26.2074  -18.9652   -9.5012 C   0  0  0  0  0  0  0  0  0  0  0  0
   26.8970  -20.1072   -9.8591 C   0  0  0  0  0  0  0  0  0  0  0  0
   24.5787  -20.6971  -12.7859 C   0  0  0  0  0  0  0  0  0  0  0  0
   23.9501  -19.7406  -13.3476 O   0  0  0  0  0  0  0  0  0  0  0  0
   21.3089  -23.5921   -7.8891 C   0  0  0  0  0  0  0  0  0  0  0  0
   19.9258  -23.2462   -9.0152 S   0  0  0  0  0  0  0  0  0  0  0  0
   20.4558  -22.0779  -10.3203 C   0  0  0  0  0  0  0  0  0  0  0  0
   21.9565  -22.1316  -10.4930 C   0  0  0  0  0  0  0  0  0  0  0  0
   22.4299  -21.1846  -11.5754 C   0  0  2  0  0  0  0  0  0  0  0  0
   23.8317  -21.4477  -11.8494 N   0  0  0  0  0  0  0  0  0  0  0  0
   22.1239  -19.7849  -11.2768 C   0  0  0  0  0  0  0  0  0  0  0  0
   22.9393  -19.1402  -10.5367 O   0  0  0  0  0  0  0  0  0  0  0  0
   21.0240  -19.0714  -11.7193 O   0  0  0  0  0  0  0  0  0  0  0  0
  1  2  1  0
  3  2  1  0
  4  3  1  0
  5  4  1  0
  5  1  1  0
  6  7  2  0
  5  6  1  1
  8  6  1  0
  9  8  1  0
 10 11  1  0
  9 10  1  1
 11 12  2  0
 11 19  1  0
 12 13  1  0
 13 14  1  0
 14 15  2  0
 15 16  1  0
 17 16  2  0
 18 17  1  0
 19 18  2  0
 19 14  1  0
 20 27  1  0
 20  9  1  0
 21 20  2  0
 22 23  1  0
 23 24  1  0
 26 25  1  1
 25 24  1  0
 26 27  1  0
 28 26  1  0
 29 28  2  0
 30 28  1  0
M  END
$$$$
