PWM.pdb
     RDKit          3D

 30 32  0  0  1  0  0  0  0  0999 V2000
   27.8932  -20.7753  -15.2151 N   0  0  0  0  0  0  0  0  0  0  0  0
   28.4939  -20.4696  -16.5205 C   0  0  0  0  0  0  0  0  0  0  0  0
   27.9124  -19.1190  -16.8987 C   0  0  0  0  0  0  0  0  0  0  0  0
   27.4394  -18.5416  -15.5837 C   0  0  0  0  0  0  0  0  0  0  0  0
   28.0268  -19.4790  -14.5702 C   0  0  1  0  0  0  0  0  0  0  0  0
   27.3230  -19.4414  -13.2691 C   0  0  0  0  0  0  0  0  0  0  0  0
   27.2106  -18.3359  -12.6870 O   0  0  0  0  0  0  0  0  0  0  0  0
   26.7827  -20.5893  -12.6713 N   0  0  0  0  0  0  0  0  0  0  0  0
   25.7882  -20.5368  -11.5700 C   0  0  1  0  0  0  0  0  0  0  0  0
   24.5930  -21.3534  -11.9633 C   0  0  0  0  0  0  0  0  0  0  0  0
   23.6146  -20.5527  -12.7068 C   0  0  0  0  0  0  0  0  0  0  0  0
   23.6858  -20.2324  -14.0661 C   0  0  0  0  0  0  0  0  0  0  0  0
   22.6261  -19.4702  -14.3594 N   0  0  0  0  0  0  0  0  0  0  0  0
   21.8729  -19.2762  -13.2768 C   0  0  0  0  0  0  0  0  0  0  0  0
   20.6949  -18.5801  -13.0373 C   0  0  0  0  0  0  0  0  0  0  0  0
   20.1199  -18.5425  -11.7957 C   0  0  0  0  0  0  0  0  0  0  0  0
   20.7100  -19.2073  -10.7398 C   0  0  0  0  0  0  0  0  0  0  0  0
   21.8830  -19.8978  -10.9889 C   0  0  0  0  0  0  0  0  0  0  0  0
   22.4626  -19.9351  -12.2421 C   0  0  0  0  0  0  0  0  0  0  0  0
   26.4796  -20.9842  -10.3533 C   0  0  0  0  0  0  0  0  0  0  0  0
   27.2119  -22.0244  -10.4378 O   0  0  0  0  0  0  0  0  0  0  0  0
   28.3075  -17.7041   -5.4196 C   0  0  0  0  0  0  0  0  0  0  0  0
   29.3725  -19.1197   -5.8232 S   0  0  0  0  0  0  0  0  0  0  0  0
   28.5741  -20.1631   -7.0970 C   0  0  0  0  0  0  0  0  0  0  0  0
   27.1149  -20.3726   -6.7630 C   0  0  0  0  0  0  0  0  0  0  0  0
   26.3985  -21.1510   -7.8462 C   0  0  2  0  0  0  0  0  0  0  0  0
   26.4281  -20.3798   -9.0764 N   0  0  0  0  0  0  0  0  0  0  0  0
   25.0631  -21.5901   -7.4389 C   0  0  0  0  0  0  0  0  0  0  0  0
   24.0571  -20.9879   -7.9426 O   0  0  0  0  0  0  0  0  0  0  0  0
   24.7681  -22.6079   -6.5493 O   0  0  0  0  0  0  0  0  0  0  0  0
  1  2  1  0
  3  2  1  0
  4  3  1  0
  5  4  1  0
  5  1  1  0
  6  7  2  0
  5  6  1  1
  8  6  1  0
  9  8  1  0
 10 11  1  0
  9 10  1  6
 11 12  2  0
 11 19  1  0
 12 13  1  0
 13 14  1  0
 14 15  2  0
 15 16  1  0
 17 16  2  0
 18 17  1  0
 19 18  2  0
 19 14  1  0
 20 27  1  0
 20  9  1  0
 21 20  2  0
 22 23  1  0
 23 24  1  0
 26 25  1  1
 25 24  1  0
 26 27  1  0
 28 26  1  0
 29 28  2  0
 30 28  1  0
M  END
$$$$
