PWM.pdb
     RDKit          3D

 30 32  0  0  1  0  0  0  0  0999 V2000
   27.1505  -19.1518  -14.8712 N   0  0  0  0  0  0  0  0  0  0  0  0
   27.9615  -18.9731  -16.0830 C   0  0  0  0  0  0  0  0  0  0  0  0
   29.2811  -19.6512  -15.7599 C   0  0  0  0  0  0  0  0  0  0  0  0
   28.9452  -20.5821  -14.6168 C   0  0  0  0  0  0  0  0  0  0  0  0
   27.4458  -20.5450  -14.5776 C   0  0  1  0  0  0  0  0  0  0  0  0
   26.8896  -20.9572  -13.2698 C   0  0  0  0  0  0  0  0  0  0  0  0
   26.0239  -21.8649  -13.2527 O   0  0  0  0  0  0  0  0  0  0  0  0
   27.2942  -20.3724  -12.0609 N   0  0  0  0  0  0  0  0  0  0  0  0
   26.7395  -20.7718  -10.7429 C   0  0  1  0  0  0  0  0  0  0  0  0
   27.6280  -20.2283   -9.6635 C   0  0  0  0  0  0  0  0  0  0  0  0
   27.0650  -20.4683   -8.3306 C   0  0  0  0  0  0  0  0  0  0  0  0
   25.8267  -21.0599   -8.0619 C   0  0  0  0  0  0  0  0  0  0  0  0
   25.6649  -21.0767   -6.7339 N   0  0  0  0  0  0  0  0  0  0  0  0
   26.7191  -20.5337   -6.1252 C   0  0  0  0  0  0  0  0  0  0  0  0
   27.0508  -20.3085   -4.7951 C   0  0  0  0  0  0  0  0  0  0  0  0
   28.2311  -19.7146   -4.4375 C   0  0  0  0  0  0  0  0  0  0  0  0
   29.1297  -19.3215   -5.4087 C   0  0  0  0  0  0  0  0  0  0  0  0
   28.7899  -19.5504   -6.7304 C   0  0  0  0  0  0  0  0  0  0  0  0
   27.5987  -20.1498   -7.0903 C   0  0  0  0  0  0  0  0  0  0  0  0
   25.3492  -20.2980  -10.7074 C   0  0  0  0  0  0  0  0  0  0  0  0
   25.1469  -19.0471  -10.8477 O   0  0  0  0  0  0  0  0  0  0  0  0
   21.0153  -23.6346  -13.8075 C   0  0  0  0  0  0  0  0  0  0  0  0
   20.3583  -21.9422  -13.8803 S   0  0  0  0  0  0  0  0  0  0  0  0
   20.9365  -20.9815  -12.4341 C   0  0  0  0  0  0  0  0  0  0  0  0
   22.3414  -21.3943  -12.0590 C   0  0  0  0  0  0  0  0  0  0  0  0
   22.8597  -20.6056  -10.8750 C   0  0  2  0  0  0  0  0  0  0  0  0
   24.1878  -21.0857  -10.5361 N   0  0  0  0  0  0  0  0  0  0  0  0
   21.9194  -20.5839   -9.7537 C   0  0  0  0  0  0  0  0  0  0  0  0
   22.1576  -21.3480   -8.7599 O   0  0  0  0  0  0  0  0  0  0  0  0
   20.7777  -19.8086   -9.6531 O   0  0  0  0  0  0  0  0  0  0  0  0
  1  2  1  0
  3  2  1  0
  4  3  1  0
  5  4  1  0
  5  1  1  0
  6  7  2  0
  5  6  1  1
  8  6  1  0
  9  8  1  0
 10 11  1  0
  9 10  1  1
 11 12  2  0
 11 19  1  0
 12 13  1  0
 13 14  1  0
 14 15  2  0
 15 16  1  0
 17 16  2  0
 18 17  1  0
 19 18  2  0
 19 14  1  0
 20 27  1  0
 20  9  1  0
 21 20  2  0
 22 23  1  0
 23 24  1  0
 26 25  1  6
 25 24  1  0
 26 27  1  0
 28 26  1  0
 29 28  2  0
 30 28  1  0
M  END
$$$$
