PWM.pdb
     RDKit          3D

 30 32  0  0  1  0  0  0  0  0999 V2000
   15.2646  -26.0808   -4.9171 N   0  0  0  0  0  0  0  0  0  0  0  0
   15.9819  -26.9337   -5.8743 C   0  0  0  0  0  0  0  0  0  0  0  0
   16.5612  -25.9626   -6.8876 C   0  0  0  0  0  0  0  0  0  0  0  0
   16.5621  -24.6346   -6.1647 C   0  0  0  0  0  0  0  0  0  0  0  0
   16.2426  -25.0178   -4.7497 C   0  0  1  0  0  0  0  0  0  0  0  0
   15.6983  -23.8954   -3.9538 C   0  0  0  0  0  0  0  0  0  0  0  0
   16.4021  -22.8654   -3.8219 O   0  0  0  0  0  0  0  0  0  0  0  0
   14.4343  -23.9446   -3.3482 N   0  0  0  0  0  0  0  0  0  0  0  0
   13.8038  -22.7702   -2.6941 C   0  0  1  0  0  0  0  0  0  0  0  0
   12.3714  -22.6884   -3.1319 C   0  0  0  0  0  0  0  0  0  0  0  0
   12.2250  -21.8804   -4.3472 C   0  0  0  0  0  0  0  0  0  0  0  0
   12.2832  -22.3611   -5.6591 C   0  0  0  0  0  0  0  0  0  0  0  0
   12.1315  -21.3164   -6.4810 N   0  0  0  0  0  0  0  0  0  0  0  0
   11.9789  -20.1896   -5.7854 C   0  0  0  0  0  0  0  0  0  0  0  0
   11.7916  -18.8593   -6.1389 C   0  0  0  0  0  0  0  0  0  0  0  0
   11.6616  -17.8748   -5.1968 C   0  0  0  0  0  0  0  0  0  0  0  0
   11.7152  -18.1909   -3.8543 C   0  0  0  0  0  0  0  0  0  0  0  0
   11.9019  -19.5187   -3.5127 C   0  0  0  0  0  0  0  0  0  0  0  0
   12.0330  -20.5115   -4.4640 C   0  0  0  0  0  0  0  0  0  0  0  0
   14.0085  -22.9303   -1.2480 C   0  0  0  0  0  0  0  0  0  0  0  0
   13.8323  -24.0909   -0.7506 O   0  0  0  0  0  0  0  0  0  0  0  0
   17.0218  -20.3079    5.6170 C   0  0  0  0  0  0  0  0  0  0  0  0
   16.6935  -19.9912    3.8584 S   0  0  0  0  0  0  0  0  0  0  0  0
   15.5801  -21.2784    3.1858 C   0  0  0  0  0  0  0  0  0  0  0  0
   15.4017  -21.0903    1.6966 C   0  0  0  0  0  0  0  0  0  0  0  0
   14.5511  -22.1870    1.0915 C   0  0  2  0  0  0  0  0  0  0  0  0
   14.3896  -21.9267   -0.3281 N   0  0  0  0  0  0  0  0  0  0  0  0
   13.2962  -22.3948    1.8154 C   0  0  0  0  0  0  0  0  0  0  0  0
   12.2910  -21.6816    1.4848 O   0  0  0  0  0  0  0  0  0  0  0  0
   13.0781  -23.2991    2.8396 O   0  0  0  0  0  0  0  0  0  0  0  0
  1  2  1  0
  3  2  1  0
  4  3  1  0
  5  4  1  0
  5  1  1  0
  6  7  2  0
  5  6  1  1
  8  6  1  0
  9  8  1  0
 10 11  1  0
  9 10  1  1
 11 12  2  0
 11 19  1  0
 12 13  1  0
 13 14  1  0
 14 15  2  0
 15 16  1  0
 17 16  2  0
 18 17  1  0
 19 18  2  0
 19 14  1  0
 20 27  1  0
 20  9  1  0
 21 20  2  0
 22 23  1  0
 23 24  1  0
 26 25  1  1
 25 24  1  0
 26 27  1  0
 28 26  1  0
 29 28  2  0
 30 28  1  0
M  END
$$$$
