QRE.pdb
     RDKit          3D

 30 29  0  0  1  0  0  0  0  0999 V2000
   26.5499  -15.2309  -17.5320 N   0  0  0  0  0  0  0  0  0  0  0  0
   25.7643  -16.2665  -18.1075 C   0  0  0  0  0  0  0  0  0  0  0  0
   24.7102  -15.9145  -18.6784 O   0  0  0  0  0  0  0  0  0  0  0  0
   26.1932  -17.6756  -18.0242 C   0  0  0  0  0  0  0  0  0  0  0  0
   27.4927  -17.8640  -17.2939 C   0  0  0  0  0  0  0  0  0  0  0  0
   27.8613  -19.3050  -17.2965 C   0  0  2  0  0  0  0  0  0  0  0  0
   28.0350  -19.8361  -18.6359 N   0  0  0  0  0  0  0  0  0  0  0  0
   26.8460  -20.1388  -16.5521 C   0  0  0  0  0  0  0  0  0  0  0  0
   26.7280  -21.3357  -16.8544 O   0  0  0  0  0  0  0  0  0  0  0  0
   26.9273  -20.3508   -8.3120 N   0  0  0  0  0  0  0  0  0  0  0  0
   27.5696  -20.8925   -9.4559 C   0  0  0  0  0  0  0  0  0  0  0  0
   28.8418  -21.1974   -9.4684 N   0  0  0  0  0  0  0  0  0  0  0  0
   26.8189  -21.1143  -10.6272 N   0  0  0  0  0  0  0  0  0  0  0  0
   25.4210  -20.6863  -10.7285 C   0  0  0  0  0  0  0  0  0  0  0  0
   24.9004  -20.9050  -12.1178 C   0  0  0  0  0  0  0  0  0  0  0  0
   25.6728  -20.2786  -13.2015 C   0  0  0  0  0  0  0  0  0  0  0  0
   25.2473  -20.4074  -14.6061 C   0  0  2  0  0  0  0  0  0  0  0  0
   26.0334  -19.6072  -15.5311 N   0  0  0  0  0  0  0  0  0  0  0  0
   23.8350  -20.1720  -14.8164 C   0  0  0  0  0  0  0  0  0  0  0  0
   23.4328  -18.9598  -14.6935 O   0  0  0  0  0  0  0  0  0  0  0  0
   29.2273  -21.5294  -10.3943 N   0  0  0  0  0  0  0  0  0  0  0  0
   22.8724  -21.1756  -15.1422 C   0  0  2  0  0  0  0  0  0  0  0  0
   21.4548  -20.7822  -15.1906 C   0  0  0  0  0  0  0  0  0  0  0  0
   20.8529  -20.9495  -13.8429 C   0  0  0  0  0  0  0  0  0  0  0  0
   19.3559  -20.9793  -13.9027 C   0  0  0  0  0  0  0  0  0  0  0  0
   18.7603  -21.1739  -12.5393 O   0  0  0  0  0  0  0  0  0  0  0  0
   19.4343  -21.2985  -11.4954 C   0  0  0  0  0  0  0  0  0  0  0  0
   21.3809  -19.3616  -15.6101 O   0  0  0  0  0  0  0  0  0  0  0  0
   20.7733  -18.9300  -16.5998 O   0  0  0  0  0  0  0  0  0  0  0  0
   17.3795  -21.2196  -12.4165 O   0  0  0  0  0  0  0  0  0  0  0  0
  2  3  2  0
  2  1  1  0
  4  2  1  0
  5  4  1  0
  5  6  1  0
  6  7  1  6
  6  8  1  0
  8 18  1  0
  9  8  2  0
 10 11  1  0
 11 12  2  0
 11 13  1  0
 13 14  1  0
 15 14  1  0
 16 15  1  0
 17 19  1  0
 17 16  1  1
 18 17  1  0
 19 20  2  0
 21 19  1  0
 21 22  1  0
 22 23  1  6
 23 24  1  0
 25 26  2  0
 25 24  1  0
 27 30  1  0
 27 22  1  0
 28 27  2  0
 29 25  1  0
M  END
$$$$
