QRE.pdb
     RDKit          3D

 30 29  0  0  1  0  0  0  0  0999 V2000
   27.9559  -17.1245  -16.1109 N   0  0  0  0  0  0  0  0  0  0  0  0
   27.2291  -18.0725  -16.8816 C   0  0  0  0  0  0  0  0  0  0  0  0
   26.8316  -17.6916  -18.0032 O   0  0  0  0  0  0  0  0  0  0  0  0
   26.9721  -19.4298  -16.3637 C   0  0  0  0  0  0  0  0  0  0  0  0
   27.5742  -19.6783  -15.0098 C   0  0  0  0  0  0  0  0  0  0  0  0
   27.2691  -21.0680  -14.5762 C   0  0  2  0  0  0  0  0  0  0  0  0
   27.6016  -22.0555  -15.5865 N   0  0  0  0  0  0  0  0  0  0  0  0
   25.8196  -21.2204  -14.1812 C   0  0  0  0  0  0  0  0  0  0  0  0
   25.0946  -21.9576  -14.8658 O   0  0  0  0  0  0  0  0  0  0  0  0
   21.0566  -22.5271   -8.3862 N   0  0  0  0  0  0  0  0  0  0  0  0
   20.3214  -21.3132   -8.4042 C   0  0  0  0  0  0  0  0  0  0  0  0
   19.0193  -21.2789   -8.2815 N   0  0  0  0  0  0  0  0  0  0  0  0
   21.0092  -20.0936   -8.5594 N   0  0  0  0  0  0  0  0  0  0  0  0
   22.3846  -20.0535   -9.0637 C   0  0  0  0  0  0  0  0  0  0  0  0
   22.4346  -20.4871  -10.4984 C   0  0  0  0  0  0  0  0  0  0  0  0
   23.7588  -20.4486  -11.1375 C   0  0  0  0  0  0  0  0  0  0  0  0
   23.9208  -20.7829  -12.5632 C   0  0  2  0  0  0  0  0  0  0  0  0
   25.2659  -20.5584  -13.0674 N   0  0  0  0  0  0  0  0  0  0  0  0
   22.9497  -20.1499  -13.4295 C   0  0  0  0  0  0  0  0  0  0  0  0
   23.2044  -18.9450  -13.7898 O   0  0  0  0  0  0  0  0  0  0  0  0
   18.5772  -20.3204   -8.3245 N   0  0  0  0  0  0  0  0  0  0  0  0
   21.7468  -20.7584  -13.9015 C   0  0  2  0  0  0  0  0  0  0  0  0
   20.9155  -19.9991  -14.8496 C   0  0  0  0  0  0  0  0  0  0  0  0
   20.2665  -20.9413  -15.7970 C   0  0  0  0  0  0  0  0  0  0  0  0
   18.8218  -20.6063  -16.0120 C   0  0  0  0  0  0  0  0  0  0  0  0
   18.1743  -21.5721  -16.9604 O   0  0  0  0  0  0  0  0  0  0  0  0
   17.5000  -22.5588  -16.5981 C   0  0  0  0  0  0  0  0  0  0  0  0
   19.8863  -19.2612  -14.0777 O   0  0  0  0  0  0  0  0  0  0  0  0
   19.2177  -18.3046  -14.4933 O   0  0  0  0  0  0  0  0  0  0  0  0
   18.3251  -21.3682  -18.3240 O   0  0  0  0  0  0  0  0  0  0  0  0
  2  3  2  0
  2  1  1  0
  4  2  1  0
  5  4  1  0
  5  6  1  0
  6  7  1  6
  6  8  1  0
  8 18  1  0
  9  8  2  0
 10 11  1  0
 11 12  2  0
 11 13  1  0
 13 14  1  0
 15 14  1  0
 16 15  1  0
 17 19  1  0
 17 16  1  1
 18 17  1  0
 19 20  2  0
 21 19  1  0
 21 22  1  0
 22 23  1  1
 23 24  1  0
 25 26  2  0
 25 24  1  0
 27 30  1  0
 27 22  1  0
 28 27  2  0
 29 25  1  0
M  END
$$$$
