QRE.pdb
     RDKit          3D

 30 29  0  0  1  0  0  0  0  0999 V2000
   18.9520  -29.6746   -9.7935 N   0  0  0  0  0  0  0  0  0  0  0  0
   17.6628  -29.2540   -9.3670 C   0  0  0  0  0  0  0  0  0  0  0  0
   16.9472  -30.1195   -8.8193 O   0  0  0  0  0  0  0  0  0  0  0  0
   17.2163  -27.8625   -9.5693 C   0  0  0  0  0  0  0  0  0  0  0  0
   18.1951  -27.0262  -10.3440 C   0  0  0  0  0  0  0  0  0  0  0  0
   18.4863  -25.7760   -9.5925 C   0  0  2  0  0  0  0  0  0  0  0  0
   17.4457  -25.4412   -8.6379 N   0  0  0  0  0  0  0  0  0  0  0  0
   18.7099  -24.6084  -10.5236 C   0  0  0  0  0  0  0  0  0  0  0  0
   18.0321  -23.5829  -10.3592 O   0  0  0  0  0  0  0  0  0  0  0  0
   25.7526  -23.6573  -15.2343 N   0  0  0  0  0  0  0  0  0  0  0  0
   24.6377  -24.5163  -15.4176 C   0  0  0  0  0  0  0  0  0  0  0  0
   24.7573  -25.7316  -15.8870 N   0  0  0  0  0  0  0  0  0  0  0  0
   23.3494  -24.0534  -15.0849 N   0  0  0  0  0  0  0  0  0  0  0  0
   23.1418  -22.7148  -14.5257 C   0  0  0  0  0  0  0  0  0  0  0  0
   21.7407  -22.5680  -14.0118 C   0  0  0  0  0  0  0  0  0  0  0  0
   21.3097  -23.5660  -13.0210 C   0  0  0  0  0  0  0  0  0  0  0  0
   19.9551  -23.5226  -12.4433 C   0  0  2  0  0  0  0  0  0  0  0  0
   19.6572  -24.6431  -11.5661 N   0  0  0  0  0  0  0  0  0  0  0  0
   18.9028  -23.3613  -13.4236 C   0  0  0  0  0  0  0  0  0  0  0  0
   18.5184  -24.4245  -14.0301 O   0  0  0  0  0  0  0  0  0  0  0  0
   23.8534  -26.2523  -16.0541 N   0  0  0  0  0  0  0  0  0  0  0  0
   18.2744  -22.1238  -13.7611 C   0  0  2  0  0  0  0  0  0  0  0  0
   17.1365  -22.1598  -14.6941 C   0  0  0  0  0  0  0  0  0  0  0  0
   16.2486  -20.9987  -14.4300 C   0  0  0  0  0  0  0  0  0  0  0  0
   15.2883  -21.2759  -13.3135 C   0  0  0  0  0  0  0  0  0  0  0  0
   14.3795  -20.1063  -13.0739 O   0  0  0  0  0  0  0  0  0  0  0  0
   14.5225  -18.9900  -13.6150 C   0  0  0  0  0  0  0  0  0  0  0  0
   17.6673  -22.0926  -16.0773 O   0  0  0  0  0  0  0  0  0  0  0  0
   18.8512  -21.9041  -16.3896 O   0  0  0  0  0  0  0  0  0  0  0  0
   13.3121  -20.2605  -12.2017 O   0  0  0  0  0  0  0  0  0  0  0  0
  2  3  2  0
  2  1  1  0
  4  2  1  0
  5  4  1  0
  5  6  1  0
  6  7  1  1
  6  8  1  0
  8 18  1  0
  9  8  2  0
 10 11  1  0
 11 12  2  0
 11 13  1  0
 13 14  1  0
 15 14  1  0
 16 15  1  0
 17 19  1  0
 17 16  1  6
 18 17  1  0
 19 20  2  0
 21 19  1  0
 21 22  1  0
 22 23  1  1
 23 24  1  0
 25 26  2  0
 25 24  1  0
 27 30  1  0
 27 22  1  0
 28 27  2  0
 29 25  1  0
M  END
$$$$
