QRE.pdb
     RDKit          3D

 30 29  0  0  1  0  0  0  0  0999 V2000
   18.4748  -21.9407  -10.4437 N   0  0  0  0  0  0  0  0  0  0  0  0
   19.0914  -22.3509   -9.2303 C   0  0  0  0  0  0  0  0  0  0  0  0
   18.3443  -22.8685   -8.3729 O   0  0  0  0  0  0  0  0  0  0  0  0
   20.5398  -22.1668   -9.0185 C   0  0  0  0  0  0  0  0  0  0  0  0
   21.2075  -21.3718  -10.1046 C   0  0  0  0  0  0  0  0  0  0  0  0
   22.6295  -21.1292   -9.7418 C   0  0  2  0  0  0  0  0  0  0  0  0
   22.7720  -20.3527   -8.5240 N   0  0  0  0  0  0  0  0  0  0  0  0
   23.3799  -20.4501  -10.8625 C   0  0  0  0  0  0  0  0  0  0  0  0
   23.3347  -19.2132  -10.9400 O   0  0  0  0  0  0  0  0  0  0  0  0
   29.4904  -21.0491  -18.4851 N   0  0  0  0  0  0  0  0  0  0  0  0
   28.9826  -21.6108  -17.2847 C   0  0  0  0  0  0  0  0  0  0  0  0
   29.0335  -22.8937  -17.0332 N   0  0  0  0  0  0  0  0  0  0  0  0
   28.3999  -20.7647  -16.3208 N   0  0  0  0  0  0  0  0  0  0  0  0
   27.8866  -21.2930  -15.0540 C   0  0  0  0  0  0  0  0  0  0  0  0
   26.5080  -20.7689  -14.7823 C   0  0  0  0  0  0  0  0  0  0  0  0
   25.9254  -21.1317  -13.4814 C   0  0  0  0  0  0  0  0  0  0  0  0
   24.6087  -20.6135  -13.0712 C   0  0  2  0  0  0  0  0  0  0  0  0
   24.1262  -21.1690  -11.8172 N   0  0  0  0  0  0  0  0  0  0  0  0
   23.5892  -20.7240  -14.0924 C   0  0  0  0  0  0  0  0  0  0  0  0
   23.0954  -21.8928  -14.2832 O   0  0  0  0  0  0  0  0  0  0  0  0
   28.5742  -23.2059  -16.1346 N   0  0  0  0  0  0  0  0  0  0  0  0
   23.1039  -19.6445  -14.8918 C   0  0  1  0  0  0  0  0  0  0  0  0
   22.0721  -19.9413  -15.8988 C   0  0  0  0  0  0  0  0  0  0  0  0
   20.7576  -19.4469  -15.4148 C   0  0  0  0  0  0  0  0  0  0  0  0
   20.7353  -17.9534  -15.2950 C   0  0  0  0  0  0  0  0  0  0  0  0
   19.3942  -17.4642  -14.8328 O   0  0  0  0  0  0  0  0  0  0  0  0
   18.3718  -18.1792  -14.7794 C   0  0  0  0  0  0  0  0  0  0  0  0
   22.4428  -19.2550  -17.1602 O   0  0  0  0  0  0  0  0  0  0  0  0
   23.3620  -18.4354  -17.2949 O   0  0  0  0  0  0  0  0  0  0  0  0
   19.2685  -16.1406  -14.4378 O   0  0  0  0  0  0  0  0  0  0  0  0
  2  3  2  0
  2  1  1  0
  4  2  1  0
  5  4  1  0
  5  6  1  0
  6  7  1  1
  6  8  1  0
  8 18  1  0
  9  8  2  0
 10 11  1  0
 11 12  2  0
 11 13  1  0
 13 14  1  0
 15 14  1  0
 16 15  1  0
 17 19  1  0
 17 16  1  6
 18 17  1  0
 19 20  2  0
 21 19  1  0
 21 22  1  0
 22 23  1  6
 23 24  1  0
 25 26  2  0
 25 24  1  0
 27 30  1  0
 27 22  1  0
 28 27  2  0
 29 25  1  0
M  END
$$$$
