QRE.pdb
     RDKit          3D

 30 29  0  0  1  0  0  0  0  0999 V2000
   26.0958  -19.2027  -20.0600 N   0  0  0  0  0  0  0  0  0  0  0  0
   27.5144  -19.2914  -20.0799 C   0  0  0  0  0  0  0  0  0  0  0  0
   28.0666  -19.1418  -21.1906 O   0  0  0  0  0  0  0  0  0  0  0  0
   28.2733  -19.5453  -18.8404 C   0  0  0  0  0  0  0  0  0  0  0  0
   27.4092  -19.6176  -17.6134 C   0  0  0  0  0  0  0  0  0  0  0  0
   27.9378  -20.6593  -16.6925 C   0  0  2  0  0  0  0  0  0  0  0  0
   28.4869  -21.8031  -17.3971 N   0  0  0  0  0  0  0  0  0  0  0  0
   26.8823  -21.1267  -15.7191 C   0  0  0  0  0  0  0  0  0  0  0  0
   25.9392  -21.8064  -16.1510 O   0  0  0  0  0  0  0  0  0  0  0  0
   24.0024  -19.4440   -8.3591 N   0  0  0  0  0  0  0  0  0  0  0  0
   23.9482  -20.8404   -8.1106 C   0  0  0  0  0  0  0  0  0  0  0  0
   22.9132  -21.4147   -7.5533 N   0  0  0  0  0  0  0  0  0  0  0  0
   25.0441  -21.6477   -8.4736 N   0  0  0  0  0  0  0  0  0  0  0  0
   26.0110  -21.2101   -9.4840 C   0  0  0  0  0  0  0  0  0  0  0  0
   25.4494  -21.3839  -10.8636 C   0  0  0  0  0  0  0  0  0  0  0  0
   26.3654  -21.0846  -11.9748 C   0  0  0  0  0  0  0  0  0  0  0  0
   25.9295  -21.2293  -13.3746 C   0  0  2  0  0  0  0  0  0  0  0  0
   26.9321  -20.8200  -14.3448 N   0  0  0  0  0  0  0  0  0  0  0  0
   24.6631  -20.5920  -13.6649 C   0  0  0  0  0  0  0  0  0  0  0  0
   24.6983  -19.3316  -13.9021 O   0  0  0  0  0  0  0  0  0  0  0  0
   22.9761  -22.4625   -7.4340 N   0  0  0  0  0  0  0  0  0  0  0  0
   23.3977  -21.2534  -13.7023 C   0  0  2  0  0  0  0  0  0  0  0  0
   22.2111  -20.4539  -14.0478 C   0  0  0  0  0  0  0  0  0  0  0  0
   22.0811  -20.3822  -15.5258 C   0  0  0  0  0  0  0  0  0  0  0  0
   20.8756  -19.5945  -15.9401 C   0  0  0  0  0  0  0  0  0  0  0  0
   20.7236  -19.5764  -17.4327 O   0  0  0  0  0  0  0  0  0  0  0  0
   20.7323  -20.6008  -18.1468 C   0  0  0  0  0  0  0  0  0  0  0  0
   21.0193  -21.1138  -13.4617 O   0  0  0  0  0  0  0  0  0  0  0  0
   20.9344  -22.3097  -13.1497 O   0  0  0  0  0  0  0  0  0  0  0  0
   20.5623  -18.3553  -18.0706 O   0  0  0  0  0  0  0  0  0  0  0  0
  2  3  2  0
  2  1  1  0
  4  2  1  0
  5  4  1  0
  5  6  1  0
  6  7  1  6
  6  8  1  0
  8 18  1  0
  9  8  2  0
 10 11  1  0
 11 12  2  0
 11 13  1  0
 13 14  1  0
 15 14  1  0
 16 15  1  0
 17 19  1  0
 17 16  1  1
 18 17  1  0
 19 20  2  0
 21 19  1  0
 21 22  1  0
 22 23  1  6
 23 24  1  0
 25 26  2  0
 25 24  1  0
 27 30  1  0
 27 22  1  0
 28 27  2  0
 29 25  1  0
M  END
$$$$
