QRE.pdb
     RDKit          3D

 30 29  0  0  1  0  0  0  0  0999 V2000
   16.6629  -16.5053  -15.1959 N   0  0  0  0  0  0  0  0  0  0  0  0
   17.0964  -15.4349  -16.0248 C   0  0  0  0  0  0  0  0  0  0  0  0
   16.2958  -14.4877  -16.1761 O   0  0  0  0  0  0  0  0  0  0  0  0
   18.4275  -15.4625  -16.6605 C   0  0  0  0  0  0  0  0  0  0  0  0
   19.2781  -14.2715  -16.3210 C   0  0  0  0  0  0  0  0  0  0  0  0
   20.6017  -14.3983  -16.9878 C   0  0  2  0  0  0  0  0  0  0  0  0
   21.3077  -15.6073  -16.6056 N   0  0  0  0  0  0  0  0  0  0  0  0
   21.4765  -13.1976  -16.7174 C   0  0  0  0  0  0  0  0  0  0  0  0
   21.5843  -12.7957  -15.5491 O   0  0  0  0  0  0  0  0  0  0  0  0
   29.1764  -12.4412  -16.2499 N   0  0  0  0  0  0  0  0  0  0  0  0
   28.1761  -13.4355  -16.4090 C   0  0  0  0  0  0  0  0  0  0  0  0
   28.1296  -14.5102  -15.6643 N   0  0  0  0  0  0  0  0  0  0  0  0
   27.1915  -13.2693  -17.4027 N   0  0  0  0  0  0  0  0  0  0  0  0
   26.1506  -12.2452  -17.2800 C   0  0  0  0  0  0  0  0  0  0  0  0
   25.2282  -12.2846  -18.4618 C   0  0  0  0  0  0  0  0  0  0  0  0
   24.1533  -11.2807  -18.4741 C   0  0  0  0  0  0  0  0  0  0  0  0
   23.0271  -11.3664  -17.5280 C   0  0  2  0  0  0  0  0  0  0  0  0
   22.1714  -12.5225  -17.7404 N   0  0  0  0  0  0  0  0  0  0  0  0
   22.2298  -10.1611  -17.4525 C   0  0  0  0  0  0  0  0  0  0  0  0
   21.4484   -9.9293  -18.4434 O   0  0  0  0  0  0  0  0  0  0  0  0
   27.3454  -15.1851  -15.8774 N   0  0  0  0  0  0  0  0  0  0  0  0
   22.2523   -9.2250  -16.3739 C   0  0  2  0  0  0  0  0  0  0  0  0
   21.4244   -8.0139  -16.4941 C   0  0  0  0  0  0  0  0  0  0  0  0
   20.2886   -8.0993  -15.5406 C   0  0  0  0  0  0  0  0  0  0  0  0
   19.4644   -6.8479  -15.5445 C   0  0  0  0  0  0  0  0  0  0  0  0
   18.2557   -6.9892  -14.6667 O   0  0  0  0  0  0  0  0  0  0  0  0
   17.4384   -7.9296  -14.7518 C   0  0  0  0  0  0  0  0  0  0  0  0
   22.2712   -6.8387  -16.1757 O   0  0  0  0  0  0  0  0  0  0  0  0
   23.3940   -6.8760  -15.6535 O   0  0  0  0  0  0  0  0  0  0  0  0
   18.0201   -6.0249  -13.6980 O   0  0  0  0  0  0  0  0  0  0  0  0
  2  3  2  0
  2  1  1  0
  4  2  1  0
  5  4  1  0
  5  6  1  0
  6  7  1  1
  6  8  1  0
  8 18  1  0
  9  8  2  0
 10 11  1  0
 11 12  2  0
 11 13  1  0
 13 14  1  0
 15 14  1  0
 16 15  1  0
 17 19  1  0
 17 16  1  6
 18 17  1  0
 19 20  2  0
 21 19  1  0
 21 22  1  0
 22 23  1  6
 23 24  1  0
 25 26  2  0
 25 24  1  0
 27 30  1  0
 27 22  1  0
 28 27  2  0
 29 25  1  0
M  END
$$$$
