QRE.pdb
     RDKit          3D

 30 29  0  0  1  0  0  0  0  0999 V2000
   26.7912  -14.1037  -15.9345 N   0  0  0  0  0  0  0  0  0  0  0  0
   26.2498  -14.6632  -17.1239 C   0  0  0  0  0  0  0  0  0  0  0  0
   25.3660  -13.9953  -17.7016 O   0  0  0  0  0  0  0  0  0  0  0  0
   26.7245  -15.9647  -17.6312 C   0  0  0  0  0  0  0  0  0  0  0  0
   27.7719  -16.6005  -16.7615 C   0  0  0  0  0  0  0  0  0  0  0  0
   27.8638  -18.0521  -17.0728 C   0  0  2  0  0  0  0  0  0  0  0  0
   27.7654  -18.3273  -18.4944 N   0  0  0  0  0  0  0  0  0  0  0  0
   26.8140  -18.8459  -16.3325 C   0  0  0  0  0  0  0  0  0  0  0  0
   26.0412  -19.5603  -16.9885 O   0  0  0  0  0  0  0  0  0  0  0  0
   25.9512  -20.6664   -7.5135 N   0  0  0  0  0  0  0  0  0  0  0  0
   24.7300  -21.0776   -8.1085 C   0  0  0  0  0  0  0  0  0  0  0  0
   23.7153  -21.5080   -7.4036 N   0  0  0  0  0  0  0  0  0  0  0  0
   24.5942  -21.0245   -9.5097 N   0  0  0  0  0  0  0  0  0  0  0  0
   25.6075  -20.3795  -10.3493 C   0  0  0  0  0  0  0  0  0  0  0  0
   25.1898  -20.3966  -11.7895 C   0  0  0  0  0  0  0  0  0  0  0  0
   26.0690  -19.6778  -12.7241 C   0  0  0  0  0  0  0  0  0  0  0  0
   25.7659  -19.6325  -14.1652 C   0  0  2  0  0  0  0  0  0  0  0  0
   26.6834  -18.8039  -14.9302 N   0  0  0  0  0  0  0  0  0  0  0  0
   24.3970  -19.2729  -14.4669 C   0  0  0  0  0  0  0  0  0  0  0  0
   24.0915  -18.0326  -14.3456 O   0  0  0  0  0  0  0  0  0  0  0  0
   22.8577  -21.7879   -7.9533 N   0  0  0  0  0  0  0  0  0  0  0  0
   23.3779  -20.1845  -14.8799 C   0  0  2  0  0  0  0  0  0  0  0  0
   22.0153  -19.6589  -15.0640 C   0  0  0  0  0  0  0  0  0  0  0  0
   21.1781  -20.6887  -15.7311 C   0  0  0  0  0  0  0  0  0  0  0  0
   19.7910  -20.1891  -15.9991 C   0  0  0  0  0  0  0  0  0  0  0  0
   18.8124  -21.3228  -16.0918 O   0  0  0  0  0  0  0  0  0  0  0  0
   17.7746  -21.4060  -15.4023 C   0  0  0  0  0  0  0  0  0  0  0  0
   21.4580  -19.3342  -13.7285 O   0  0  0  0  0  0  0  0  0  0  0  0
   20.7011  -18.3880  -13.4708 O   0  0  0  0  0  0  0  0  0  0  0  0
   19.0630  -22.3463  -16.9937 O   0  0  0  0  0  0  0  0  0  0  0  0
  2  3  2  0
  2  1  1  0
  4  2  1  0
  5  4  1  0
  5  6  1  0
  6  7  1  6
  6  8  1  0
  8 18  1  0
  9  8  2  0
 10 11  1  0
 11 12  2  0
 11 13  1  0
 13 14  1  0
 15 14  1  0
 16 15  1  0
 17 19  1  0
 17 16  1  1
 18 17  1  0
 19 20  2  0
 21 19  1  0
 21 22  1  0
 22 23  1  6
 23 24  1  0
 25 26  2  0
 25 24  1  0
 27 30  1  0
 27 22  1  0
 28 27  2  0
 29 25  1  0
M  END
$$$$
