QRE.pdb
     RDKit          3D

 30 29  0  0  1  0  0  0  0  0999 V2000
   18.6937  -15.3631  -15.0413 N   0  0  0  0  0  0  0  0  0  0  0  0
   17.5451  -15.8801  -14.3824 C   0  0  0  0  0  0  0  0  0  0  0  0
   17.5352  -17.1100  -14.1626 O   0  0  0  0  0  0  0  0  0  0  0  0
   16.4364  -14.9909  -13.9866 C   0  0  0  0  0  0  0  0  0  0  0  0
   16.7086  -13.5380  -14.2560 C   0  0  0  0  0  0  0  0  0  0  0  0
   15.6735  -12.7049  -13.5873 C   0  0  2  0  0  0  0  0  0  0  0  0
   14.3433  -12.9278  -14.1233 N   0  0  0  0  0  0  0  0  0  0  0  0
   16.0084  -11.2346  -13.6665 C   0  0  0  0  0  0  0  0  0  0  0  0
   15.5630  -10.5773  -14.6191 O   0  0  0  0  0  0  0  0  0  0  0  0
   14.4614   -6.2783   -7.2531 N   0  0  0  0  0  0  0  0  0  0  0  0
   13.5607   -7.1648   -7.8992 C   0  0  0  0  0  0  0  0  0  0  0  0
   12.3321   -7.3423   -7.4857 N   0  0  0  0  0  0  0  0  0  0  0  0
   13.9951   -7.8857   -9.0289 N   0  0  0  0  0  0  0  0  0  0  0  0
   15.3343   -7.6879   -9.5901 C   0  0  0  0  0  0  0  0  0  0  0  0
   15.5012   -8.4808  -10.8520 C   0  0  0  0  0  0  0  0  0  0  0  0
   16.8520   -8.4893  -11.4339 C   0  0  0  0  0  0  0  0  0  0  0  0
   17.1204   -9.1682  -12.7135 C   0  0  2  0  0  0  0  0  0  0  0  0
   16.8040  -10.5872  -12.7005 N   0  0  0  0  0  0  0  0  0  0  0  0
   18.4596   -8.9590  -13.2206 C   0  0  0  0  0  0  0  0  0  0  0  0
   19.4106   -9.5309  -12.5766 O   0  0  0  0  0  0  0  0  0  0  0  0
   11.7378   -7.9905   -8.0711 N   0  0  0  0  0  0  0  0  0  0  0  0
   18.7933   -8.1721  -14.3649 C   0  0  2  0  0  0  0  0  0  0  0  0
   20.2104   -8.0863  -14.7537 C   0  0  0  0  0  0  0  0  0  0  0  0
   20.3057   -7.6203  -16.1609 C   0  0  0  0  0  0  0  0  0  0  0  0
   21.7293   -7.4278  -16.5875 C   0  0  0  0  0  0  0  0  0  0  0  0
   21.8123   -6.9462  -18.0061 O   0  0  0  0  0  0  0  0  0  0  0  0
   21.8623   -5.7416  -18.3315 C   0  0  0  0  0  0  0  0  0  0  0  0
   20.8827   -7.1217  -13.8497 O   0  0  0  0  0  0  0  0  0  0  0  0
   20.3394   -6.1664  -13.2778 O   0  0  0  0  0  0  0  0  0  0  0  0
   21.8363   -7.8845  -19.0272 O   0  0  0  0  0  0  0  0  0  0  0  0
  2  3  2  0
  2  1  1  0
  4  2  1  0
  5  4  1  0
  5  6  1  0
  6  7  1  6
  6  8  1  0
  8 18  1  0
  9  8  2  0
 10 11  1  0
 11 12  2  0
 11 13  1  0
 13 14  1  0
 15 14  1  0
 16 15  1  0
 17 19  1  0
 17 16  1  1
 18 17  1  0
 19 20  2  0
 21 19  1  0
 21 22  1  0
 22 23  1  6
 23 24  1  0
 25 26  2  0
 25 24  1  0
 27 30  1  0
 27 22  1  0
 28 27  2  0
 29 25  1  0
M  END
$$$$
