WVH.pdb
     RDKit          3D

 32 34  0  0  1  0  0  0  0  0999 V2000
    5.6691  -17.8046   24.4278 N   0  0  0  0  0  0  0  0  0  0  0  0
    6.3439  -16.5331   24.2884 C   0  0  1  0  0  0  0  0  0  0  0  0
    7.0572  -16.1740   25.5769 C   0  0  0  0  0  0  0  0  0  0  0  0
    6.4619  -15.0328   26.2742 C   0  0  0  0  0  0  0  0  0  0  0  0
    5.3088  -15.0357   27.0561 C   0  0  0  0  0  0  0  0  0  0  0  0
    5.1030  -13.7908   27.5161 N   0  0  0  0  0  0  0  0  0  0  0  0
    6.0747  -12.9781   27.0656 C   0  0  0  0  0  0  0  0  0  0  0  0
    6.3222  -11.6296   27.2433 C   0  0  0  0  0  0  0  0  0  0  0  0
    7.4114  -11.0348   26.6559 C   0  0  0  0  0  0  0  0  0  0  0  0
    8.2551  -11.8138   25.8829 C   0  0  0  0  0  0  0  0  0  0  0  0
    8.0375  -13.1416   25.6902 C   0  0  0  0  0  0  0  0  0  0  0  0
    6.9284  -13.7251   26.2940 C   0  0  0  0  0  0  0  0  0  0  0  0
    7.2807  -16.6171   23.1486 C   0  0  0  0  0  0  0  0  0  0  0  0
    7.9383  -17.6659   22.8847 O   0  0  0  0  0  0  0  0  0  0  0  0
    6.8544  -13.9845   19.9639 C   0  0  0  0  0  0  0  0  0  0  0  0
    8.2645  -14.2028   20.4074 C   0  0  2  0  0  0  0  0  0  0  0  0
    9.1796  -14.2188   19.2002 C   0  0  0  0  0  0  0  0  0  0  0  0
    8.4110  -15.4750   21.2233 C   0  0  2  0  0  0  0  0  0  0  0  0
    7.4635  -15.4937   22.3078 N   0  0  0  0  0  0  0  0  0  0  0  0
    9.8112  -15.5950   21.7500 C   0  0  0  0  0  0  0  0  0  0  0  0
   10.0238  -15.5536   22.9792 O   0  0  0  0  0  0  0  0  0  0  0  0
   10.9204  -15.7569   20.8874 N   0  0  0  0  0  0  0  0  0  0  0  0
   12.1139  -16.4027   21.3827 C   0  0  1  0  0  0  0  0  0  0  0  0
   11.8385  -17.8084   21.8465 C   0  0  0  0  0  0  0  0  0  0  0  0
   11.6394  -17.8035   23.3098 C   0  0  0  0  0  0  0  0  0  0  0  0
   11.8049  -16.6636   24.1018 C   0  0  0  0  0  0  0  0  0  0  0  0
   11.5610  -16.9515   25.3863 N   0  0  0  0  0  0  0  0  0  0  0  0
   11.2456  -18.2486   25.4197 C   0  0  0  0  0  0  0  0  0  0  0  0
   11.2919  -18.7614   24.1764 N   0  0  0  0  0  0  0  0  0  0  0  0
   13.1212  -16.3464   20.3139 C   0  0  0  0  0  0  0  0  0  0  0  0
   14.2967  -16.6934   20.5533 O   0  0  0  0  0  0  0  0  0  0  0  0
   12.7981  -15.9172   19.0458 O   0  0  0  0  0  0  0  0  0  0  0  0
  2  1  1  1
  2  3  1  0
  4  5  2  0
  4  3  1  0
  6  5  1  0
  7 12  2  0
  7  6  1  0
  8  7  1  0
  9 10  1  0
  9  8  2  0
 10 11  2  0
 11 12  1  0
 12  4  1  0
 13  2  1  0
 13 14  2  0
 16 15  1  6
 16 18  1  0
 17 16  1  0
 18 19  1  1
 19 13  1  0
 20 18  1  0
 21 20  2  0
 22 20  1  0
 23 22  1  0
 23 30  1  0
 24 25  1  0
 23 24  1  6
 25 29  1  0
 26 27  1  0
 26 25  2  0
 27 28  1  0
 28 29  2  0
 30 32  1  0
 31 30  2  0
M  END
$$$$
