WVH.pdb
     RDKit          3D

 32 34  0  0  1  0  0  0  0  0999 V2000
    6.3314  -17.5074   25.1382 N   0  0  0  0  0  0  0  0  0  0  0  0
    6.9128  -16.2569   24.7025 C   0  0  1  0  0  0  0  0  0  0  0  0
    8.1055  -15.9032   25.5686 C   0  0  0  0  0  0  0  0  0  0  0  0
    7.7819  -14.9796   26.6573 C   0  0  0  0  0  0  0  0  0  0  0  0
    7.6279  -15.2934   28.0060 C   0  0  0  0  0  0  0  0  0  0  0  0
    7.3346  -14.1662   28.6747 N   0  0  0  0  0  0  0  0  0  0  0  0
    7.2913  -13.1320   27.8166 C   0  0  0  0  0  0  0  0  0  0  0  0
    7.0359  -11.7844   27.9895 C   0  0  0  0  0  0  0  0  0  0  0  0
    7.0541  -10.9258   26.9182 C   0  0  0  0  0  0  0  0  0  0  0  0
    7.3336  -11.4383   25.6630 C   0  0  0  0  0  0  0  0  0  0  0  0
    7.5887  -12.7582   25.4623 C   0  0  0  0  0  0  0  0  0  0  0  0
    7.5653  -13.6115   26.5606 C   0  0  0  0  0  0  0  0  0  0  0  0
    7.2873  -16.3801   23.2783 C   0  0  0  0  0  0  0  0  0  0  0  0
    7.2360  -17.4803   22.6544 O   0  0  0  0  0  0  0  0  0  0  0  0
    6.4172  -13.7040   20.4620 C   0  0  0  0  0  0  0  0  0  0  0  0
    7.8822  -13.9980   20.4788 C   0  0  2  0  0  0  0  0  0  0  0  0
    8.4102  -14.0282   19.0592 C   0  0  0  0  0  0  0  0  0  0  0  0
    8.1913  -15.2945   21.2064 C   0  0  2  0  0  0  0  0  0  0  0  0
    7.7218  -15.2368   22.5666 N   0  0  0  0  0  0  0  0  0  0  0  0
    9.6664  -15.5687   21.1734 C   0  0  0  0  0  0  0  0  0  0  0  0
   10.4636  -14.7741   21.7129 O   0  0  0  0  0  0  0  0  0  0  0  0
   10.1967  -16.7176   20.5413 N   0  0  0  0  0  0  0  0  0  0  0  0
   11.6294  -16.8880   20.4692 C   0  0  1  0  0  0  0  0  0  0  0  0
   12.2649  -16.8700   21.8340 C   0  0  0  0  0  0  0  0  0  0  0  0
   11.7696  -18.0232   22.6122 C   0  0  0  0  0  0  0  0  0  0  0  0
   10.6146  -18.7353   22.2760 C   0  0  0  0  0  0  0  0  0  0  0  0
   10.4070  -19.7242   23.1542 N   0  0  0  0  0  0  0  0  0  0  0  0
   11.4069  -19.6499   24.0361 C   0  0  0  0  0  0  0  0  0  0  0  0
   12.2248  -18.6312   23.7133 N   0  0  0  0  0  0  0  0  0  0  0  0
   11.8883  -18.1379   19.7405 C   0  0  0  0  0  0  0  0  0  0  0  0
   10.9303  -18.8538   19.3812 O   0  0  0  0  0  0  0  0  0  0  0  0
   13.1707  -18.5416   19.4421 O   0  0  0  0  0  0  0  0  0  0  0  0
  2  1  1  1
  2  3  1  0
  4  5  2  0
  4  3  1  0
  6  5  1  0
  7 12  2  0
  7  6  1  0
  8  7  1  0
  9 10  1  0
  9  8  2  0
 10 11  2  0
 11 12  1  0
 12  4  1  0
 13  2  1  0
 13 14  2  0
 16 15  1  6
 16 18  1  0
 17 16  1  0
 18 19  1  1
 19 13  1  0
 20 18  1  0
 21 20  2  0
 22 20  1  0
 23 22  1  0
 23 30  1  0
 24 25  1  0
 23 24  1  1
 25 29  1  0
 26 27  1  0
 26 25  2  0
 27 28  1  0
 28 29  2  0
 30 32  1  0
 31 30  2  0
M  END
$$$$
