WVH.pdb
     RDKit          3D

 32 34  0  0  1  0  0  0  0  0999 V2000
    6.3426  -18.6851   25.2177 N   0  0  0  0  0  0  0  0  0  0  0  0
    6.5787  -17.3045   24.8574 C   0  0  1  0  0  0  0  0  0  0  0  0
    7.2442  -16.5697   26.0041 C   0  0  0  0  0  0  0  0  0  0  0  0
    6.6026  -15.2949   26.3301 C   0  0  0  0  0  0  0  0  0  0  0  0
    5.2385  -15.0571   26.4835 C   0  0  0  0  0  0  0  0  0  0  0  0
    5.0631  -13.7590   26.7802 N   0  0  0  0  0  0  0  0  0  0  0  0
    6.2571  -13.1425   26.8261 C   0  0  0  0  0  0  0  0  0  0  0  0
    6.6243  -11.8348   27.0835 C   0  0  0  0  0  0  0  0  0  0  0  0
    7.9458  -11.4626   27.0656 C   0  0  0  0  0  0  0  0  0  0  0  0
    8.9012  -12.4242   26.7845 C   0  0  0  0  0  0  0  0  0  0  0  0
    8.5705  -13.7172   26.5275 C   0  0  0  0  0  0  0  0  0  0  0  0
    7.2261  -14.0739   26.5505 C   0  0  0  0  0  0  0  0  0  0  0  0
    7.4040  -17.2699   23.6321 C   0  0  0  0  0  0  0  0  0  0  0  0
    8.0044  -18.2916   23.1874 O   0  0  0  0  0  0  0  0  0  0  0  0
    6.5869  -14.4631   20.7374 C   0  0  0  0  0  0  0  0  0  0  0  0
    8.0467  -14.6362   21.0055 C   0  0  2  0  0  0  0  0  0  0  0  0
    8.8166  -14.5404   19.7042 C   0  0  0  0  0  0  0  0  0  0  0  0
    8.3400  -15.9430   21.7211 C   0  0  2  0  0  0  0  0  0  0  0  0
    7.5407  -16.0585   22.9134 N   0  0  0  0  0  0  0  0  0  0  0  0
    9.7995  -16.0329   22.0591 C   0  0  0  0  0  0  0  0  0  0  0  0
   10.2947  -15.2628   22.9074 O   0  0  0  0  0  0  0  0  0  0  0  0
   10.6509  -16.9774   21.4396 N   0  0  0  0  0  0  0  0  0  0  0  0
   12.0494  -17.0130   21.8001 C   0  0  1  0  0  0  0  0  0  0  0  0
   12.5321  -18.4202   22.0319 C   0  0  0  0  0  0  0  0  0  0  0  0
   11.9011  -18.9512   23.2569 C   0  0  0  0  0  0  0  0  0  0  0  0
   12.1527  -18.4383   24.5327 C   0  0  0  0  0  0  0  0  0  0  0  0
   11.4473  -19.1107   25.4507 N   0  0  0  0  0  0  0  0  0  0  0  0
   10.7569  -20.0360   24.7798 C   0  0  0  0  0  0  0  0  0  0  0  0
   11.0272  -19.9425   23.4649 N   0  0  0  0  0  0  0  0  0  0  0  0
   12.7961  -16.3263   20.7366 C   0  0  0  0  0  0  0  0  0  0  0  0
   14.0061  -16.0646   20.9008 O   0  0  0  0  0  0  0  0  0  0  0  0
   12.1898  -15.9619   19.5550 O   0  0  0  0  0  0  0  0  0  0  0  0
  2  1  1  1
  2  3  1  0
  4  5  2  0
  4  3  1  0
  6  5  1  0
  7 12  2  0
  7  6  1  0
  8  7  1  0
  9 10  1  0
  9  8  2  0
 10 11  2  0
 11 12  1  0
 12  4  1  0
 13  2  1  0
 13 14  2  0
 16 15  1  6
 16 18  1  0
 17 16  1  0
 18 19  1  1
 19 13  1  0
 20 18  1  0
 21 20  2  0
 22 20  1  0
 23 22  1  0
 23 30  1  0
 24 25  1  0
 23 24  1  6
 25 29  1  0
 26 27  1  0
 26 25  2  0
 27 28  1  0
 28 29  2  0
 30 32  1  0
 31 30  2  0
M  END
$$$$
