WVH.pdb
     RDKit          3D

 32 34  0  0  1  0  0  0  0  0999 V2000
    6.3664  -17.0214   23.4091 N   0  0  0  0  0  0  0  0  0  0  0  0
    7.6388  -16.3461   23.5373 C   0  0  1  0  0  0  0  0  0  0  0  0
    7.8969  -15.9845   24.9866 C   0  0  0  0  0  0  0  0  0  0  0  0
    6.9928  -14.9541   25.5002 C   0  0  0  0  0  0  0  0  0  0  0  0
    5.7091  -15.1415   26.0080 C   0  0  0  0  0  0  0  0  0  0  0  0
    5.2167  -13.9465   26.3731 N   0  0  0  0  0  0  0  0  0  0  0  0
    6.1274  -12.9892   26.1236 C   0  0  0  0  0  0  0  0  0  0  0  0
    6.1185  -11.6195   26.3104 C   0  0  0  0  0  0  0  0  0  0  0  0
    7.2062  -10.8585   25.9601 C   0  0  0  0  0  0  0  0  0  0  0  0
    8.3106  -11.4918   25.4165 C   0  0  0  0  0  0  0  0  0  0  0  0
    8.3485  -12.8364   25.2211 C   0  0  0  0  0  0  0  0  0  0  0  0
    7.2362  -13.5895   25.5826 C   0  0  0  0  0  0  0  0  0  0  0  0
    8.6969  -17.2235   22.9947 C   0  0  0  0  0  0  0  0  0  0  0  0
    8.5561  -18.4776   22.8960 O   0  0  0  0  0  0  0  0  0  0  0  0
   12.1955  -15.5026   21.0787 C   0  0  0  0  0  0  0  0  0  0  0  0
   11.6266  -16.8636   20.8399 C   0  0  2  0  0  0  0  0  0  0  0  0
   10.5994  -16.7965   19.7284 C   0  0  0  0  0  0  0  0  0  0  0  0
   11.0292  -17.4573   22.1033 C   0  0  2  0  0  0  0  0  0  0  0  0
    9.9212  -16.6603   22.5631 N   0  0  0  0  0  0  0  0  0  0  0  0
   12.0770  -17.5625   23.1726 C   0  0  0  0  0  0  0  0  0  0  0  0
   12.3751  -16.5630   23.8582 O   0  0  0  0  0  0  0  0  0  0  0  0
   12.7519  -18.7770   23.4374 N   0  0  0  0  0  0  0  0  0  0  0  0
   13.7558  -18.8171   24.4754 C   0  0  1  0  0  0  0  0  0  0  0  0
   13.8046  -20.1595   25.1556 C   0  0  0  0  0  0  0  0  0  0  0  0
   12.5520  -20.3637   25.9107 C   0  0  0  0  0  0  0  0  0  0  0  0
   11.6725  -19.3256   26.2311 C   0  0  0  0  0  0  0  0  0  0  0  0
   10.6254  -19.7997   26.9175 N   0  0  0  0  0  0  0  0  0  0  0  0
   10.8272  -21.1143   27.0361 C   0  0  0  0  0  0  0  0  0  0  0  0
   11.9812  -21.4548   26.4335 N   0  0  0  0  0  0  0  0  0  0  0  0
   15.0389  -18.4463   23.8620 C   0  0  0  0  0  0  0  0  0  0  0  0
   15.1050  -18.2656   22.6281 O   0  0  0  0  0  0  0  0  0  0  0  0
   16.1782  -18.2919   24.6202 O   0  0  0  0  0  0  0  0  0  0  0  0
  2  1  1  1
  2  3  1  0
  4  5  2  0
  4  3  1  0
  6  5  1  0
  7 12  2  0
  7  6  1  0
  8  7  1  0
  9 10  1  0
  9  8  2  0
 10 11  2  0
 11 12  1  0
 12  4  1  0
 13  2  1  0
 13 14  2  0
 16 15  1  1
 16 18  1  0
 17 16  1  0
 18 19  1  1
 19 13  1  0
 20 18  1  0
 21 20  2  0
 22 20  1  0
 23 22  1  0
 23 30  1  0
 24 25  1  0
 23 24  1  6
 25 29  1  0
 26 27  1  0
 26 25  2  0
 27 28  1  0
 28 29  2  0
 30 32  1  0
 31 30  2  0
M  END
$$$$
