WVH.pdb
     RDKit          3D

 32 34  0  0  1  0  0  0  0  0999 V2000
    6.4204  -17.0861   24.6750 N   0  0  0  0  0  0  0  0  0  0  0  0
    7.0522  -15.8656   24.2248 C   0  0  1  0  0  0  0  0  0  0  0  0
    8.1444  -15.4530   25.1916 C   0  0  0  0  0  0  0  0  0  0  0  0
    7.6413  -14.7562   26.3767 C   0  0  0  0  0  0  0  0  0  0  0  0
    7.4131  -15.3029   27.6377 C   0  0  0  0  0  0  0  0  0  0  0  0
    6.9526  -14.3335   28.4451 N   0  0  0  0  0  0  0  0  0  0  0  0
    6.8718  -13.1786   27.7613 C   0  0  0  0  0  0  0  0  0  0  0  0
    6.4659  -11.9067   28.1199 C   0  0  0  0  0  0  0  0  0  0  0  0
    6.4812  -10.8833   27.2048 C   0  0  0  0  0  0  0  0  0  0  0  0
    6.9115  -11.1525   25.9168 C   0  0  0  0  0  0  0  0  0  0  0  0
    7.3164  -12.3926   25.5352 C   0  0  0  0  0  0  0  0  0  0  0  0
    7.2933  -13.4158   26.4774 C   0  0  0  0  0  0  0  0  0  0  0  0
    7.5800  -16.0811   22.8615 C   0  0  0  0  0  0  0  0  0  0  0  0
    7.8076  -17.2355   22.3950 O   0  0  0  0  0  0  0  0  0  0  0  0
    6.8771  -13.1932   20.0146 C   0  0  0  0  0  0  0  0  0  0  0  0
    8.2526  -13.7734   19.9492 C   0  0  2  0  0  0  0  0  0  0  0  0
    8.6730  -13.9206   18.5012 C   0  0  0  0  0  0  0  0  0  0  0  0
    8.3434  -15.0992   20.6839 C   0  0  2  0  0  0  0  0  0  0  0  0
    7.8473  -14.9680   22.0295 N   0  0  0  0  0  0  0  0  0  0  0  0
    9.7617  -15.5898   20.6949 C   0  0  0  0  0  0  0  0  0  0  0  0
   10.6765  -14.8523   21.1157 O   0  0  0  0  0  0  0  0  0  0  0  0
   10.1062  -16.8831   20.2372 N   0  0  0  0  0  0  0  0  0  0  0  0
   11.4979  -17.2660   20.1796 C   0  0  1  0  0  0  0  0  0  0  0  0
   11.7629  -18.5314   20.9513 C   0  0  0  0  0  0  0  0  0  0  0  0
   11.5907  -18.2624   22.3931 C   0  0  0  0  0  0  0  0  0  0  0  0
   12.2928  -17.2648   23.0756 C   0  0  0  0  0  0  0  0  0  0  0  0
   11.9382  -17.2482   24.3665 N   0  0  0  0  0  0  0  0  0  0  0  0
   11.0278  -18.2142   24.5110 C   0  0  0  0  0  0  0  0  0  0  0  0
   10.8179  -18.8235   23.3297 N   0  0  0  0  0  0  0  0  0  0  0  0
   11.8650  -17.3806   18.7610 C   0  0  0  0  0  0  0  0  0  0  0  0
   13.0539  -17.5964   18.4455 O   0  0  0  0  0  0  0  0  0  0  0  0
   10.9231  -17.2552   17.7641 O   0  0  0  0  0  0  0  0  0  0  0  0
  2  1  1  1
  2  3  1  0
  4  5  2  0
  4  3  1  0
  6  5  1  0
  7 12  2  0
  7  6  1  0
  8  7  1  0
  9 10  1  0
  9  8  2  0
 10 11  2  0
 11 12  1  0
 12  4  1  0
 13  2  1  0
 13 14  2  0
 16 15  1  6
 16 18  1  0
 17 16  1  0
 18 19  1  1
 19 13  1  0
 20 18  1  0
 21 20  2  0
 22 20  1  0
 23 22  1  0
 23 30  1  0
 24 25  1  0
 23 24  1  1
 25 29  1  0
 26 27  1  0
 26 25  2  0
 27 28  1  0
 28 29  2  0
 30 32  1  0
 31 30  2  0
M  END
$$$$
