WVH.pdb
     RDKit          3D

 32 34  0  0  1  0  0  0  0  0999 V2000
    6.2954  -18.7452   24.5783 N   0  0  0  0  0  0  0  0  0  0  0  0
    6.6209  -17.3415   24.4552 C   0  0  1  0  0  0  0  0  0  0  0  0
    7.2561  -16.8363   25.7355 C   0  0  0  0  0  0  0  0  0  0  0  0
    6.6298  -15.6201   26.2566 C   0  0  0  0  0  0  0  0  0  0  0  0
    5.2666  -15.3393   26.3198 C   0  0  0  0  0  0  0  0  0  0  0  0
    5.1074  -14.1217   26.8637 N   0  0  0  0  0  0  0  0  0  0  0  0
    6.3109  -13.5987   27.1569 C   0  0  0  0  0  0  0  0  0  0  0  0
    6.6952  -12.3954   27.7187 C   0  0  0  0  0  0  0  0  0  0  0  0
    8.0233  -12.1056   27.9111 C   0  0  0  0  0  0  0  0  0  0  0  0
    8.9680  -13.0433   27.5309 C   0  0  0  0  0  0  0  0  0  0  0  0
    8.6204  -14.2346   26.9762 C   0  0  0  0  0  0  0  0  0  0  0  0
    7.2695  -14.5089   26.7896 C   0  0  0  0  0  0  0  0  0  0  0  0
    7.5153  -17.1634   23.2924 C   0  0  0  0  0  0  0  0  0  0  0  0
    8.0344  -18.1406   22.6778 O   0  0  0  0  0  0  0  0  0  0  0  0
    6.9264  -13.7682   21.0276 C   0  0  0  0  0  0  0  0  0  0  0  0
    8.3614  -14.1541   21.1851 C   0  0  2  0  0  0  0  0  0  0  0  0
    9.1075  -13.8707   19.8974 C   0  0  0  0  0  0  0  0  0  0  0  0
    8.5149  -15.6069   21.5992 C   0  0  2  0  0  0  0  0  0  0  0  0
    7.8152  -15.8591   22.8324 N   0  0  0  0  0  0  0  0  0  0  0  0
    9.9678  -15.9547   21.7417 C   0  0  0  0  0  0  0  0  0  0  0  0
   10.7382  -15.8395   20.7664 O   0  0  0  0  0  0  0  0  0  0  0  0
   10.5068  -16.4170   22.9651 N   0  0  0  0  0  0  0  0  0  0  0  0
   11.8797  -16.8642   23.0096 C   0  0  1  0  0  0  0  0  0  0  0  0
   12.3149  -17.1971   24.4120 C   0  0  0  0  0  0  0  0  0  0  0  0
   12.2679  -15.9722   25.2355 C   0  0  0  0  0  0  0  0  0  0  0  0
   12.0091  -14.7037   24.7082 C   0  0  0  0  0  0  0  0  0  0  0  0
   12.0288  -13.7840   25.6807 N   0  0  0  0  0  0  0  0  0  0  0  0
   12.2946  -14.4465   26.8092 C   0  0  0  0  0  0  0  0  0  0  0  0
   12.4383  -15.7581   26.5449 N   0  0  0  0  0  0  0  0  0  0  0  0
   12.0009  -18.0066   22.0929 C   0  0  0  0  0  0  0  0  0  0  0  0
   13.1230  -18.3253   21.6472 O   0  0  0  0  0  0  0  0  0  0  0  0
   10.8993  -18.7396   21.7109 O   0  0  0  0  0  0  0  0  0  0  0  0
  2  1  1  1
  2  3  1  0
  4  5  2  0
  4  3  1  0
  6  5  1  0
  7 12  2  0
  7  6  1  0
  8  7  1  0
  9 10  1  0
  9  8  2  0
 10 11  2  0
 11 12  1  0
 12  4  1  0
 13  2  1  0
 13 14  2  0
 16 15  1  6
 16 18  1  0
 17 16  1  0
 18 19  1  1
 19 13  1  0
 20 18  1  0
 21 20  2  0
 22 20  1  0
 23 22  1  0
 23 30  1  0
 24 25  1  0
 23 24  1  1
 25 29  1  0
 26 27  1  0
 26 25  2  0
 27 28  1  0
 28 29  2  0
 30 32  1  0
 31 30  2  0
M  END
$$$$
