WVH.pdb
     RDKit          3D

 32 34  0  0  1  0  0  0  0  0999 V2000
    5.5670  -17.3552   23.7971 N   0  0  0  0  0  0  0  0  0  0  0  0
    6.3627  -16.1535   23.6779 C   0  0  1  0  0  0  0  0  0  0  0  0
    7.2172  -15.9654   24.9158 C   0  0  0  0  0  0  0  0  0  0  0  0
    6.6272  -15.0548   25.8985 C   0  0  0  0  0  0  0  0  0  0  0  0
    5.5706  -15.3259   26.7652 C   0  0  0  0  0  0  0  0  0  0  0  0
    5.3335  -14.2294   27.5037 N   0  0  0  0  0  0  0  0  0  0  0  0
    6.1924  -13.2562   27.1530 C   0  0  0  0  0  0  0  0  0  0  0  0
    6.3667  -11.9588   27.5975 C   0  0  0  0  0  0  0  0  0  0  0  0
    7.3415  -11.1583   27.0553 C   0  0  0  0  0  0  0  0  0  0  0  0
    8.1450  -11.6781   26.0550 C   0  0  0  0  0  0  0  0  0  0  0  0
    7.9974  -12.9495   25.5977 C   0  0  0  0  0  0  0  0  0  0  0  0
    7.0038  -13.7442   26.1602 C   0  0  0  0  0  0  0  0  0  0  0  0
    7.1851  -16.2501   22.4539 C   0  0  0  0  0  0  0  0  0  0  0  0
    7.5927  -17.3567   21.9941 O   0  0  0  0  0  0  0  0  0  0  0  0
    6.9969  -13.1531   19.6682 C   0  0  0  0  0  0  0  0  0  0  0  0
    8.3633  -13.7034   19.9190 C   0  0  2  0  0  0  0  0  0  0  0  0
    9.1527  -13.7108   18.6260 C   0  0  0  0  0  0  0  0  0  0  0  0
    8.3110  -15.0893   20.5373 C   0  0  2  0  0  0  0  0  0  0  0  0
    7.5412  -15.0727   21.7543 N   0  0  0  0  0  0  0  0  0  0  0  0
    9.7001  -15.5910   20.8039 C   0  0  0  0  0  0  0  0  0  0  0  0
   10.3902  -15.0747   21.7067 O   0  0  0  0  0  0  0  0  0  0  0  0
   10.2668  -16.6487   20.0550 N   0  0  0  0  0  0  0  0  0  0  0  0
   11.6544  -16.9954   20.2579 C   0  0  1  0  0  0  0  0  0  0  0  0
   11.8504  -18.4848   20.3596 C   0  0  0  0  0  0  0  0  0  0  0  0
   11.5192  -18.9226   21.7305 C   0  0  0  0  0  0  0  0  0  0  0  0
   11.7240  -18.1251   22.8601 C   0  0  0  0  0  0  0  0  0  0  0  0
   11.3357  -18.7755   23.9640 N   0  0  0  0  0  0  0  0  0  0  0  0
   10.8907  -19.9656   23.5532 C   0  0  0  0  0  0  0  0  0  0  0  0
   10.9997  -20.0561   22.2150 N   0  0  0  0  0  0  0  0  0  0  0  0
   12.4235  -16.3970   19.1576 C   0  0  0  0  0  0  0  0  0  0  0  0
   11.8230  -15.9113   18.1762 O   0  0  0  0  0  0  0  0  0  0  0  0
   13.7999  -16.3584   19.1826 O   0  0  0  0  0  0  0  0  0  0  0  0
  2  1  1  1
  2  3  1  0
  4  5  2  0
  4  3  1  0
  6  5  1  0
  7 12  2  0
  7  6  1  0
  8  7  1  0
  9 10  1  0
  9  8  2  0
 10 11  2  0
 11 12  1  0
 12  4  1  0
 13  2  1  0
 13 14  2  0
 16 15  1  6
 16 18  1  0
 17 16  1  0
 18 19  1  1
 19 13  1  0
 20 18  1  0
 21 20  2  0
 22 20  1  0
 23 22  1  0
 23 30  1  0
 24 25  1  0
 23 24  1  6
 25 29  1  0
 26 27  1  0
 26 25  2  0
 27 28  1  0
 28 29  2  0
 30 32  1  0
 31 30  2  0
M  END
$$$$
