WVH.pdb
     RDKit          3D

 32 34  0  0  1  0  0  0  0  0999 V2000
    6.0262  -17.7791   24.2189 N   0  0  0  0  0  0  0  0  0  0  0  0
    6.5904  -16.4603   24.0343 C   0  0  1  0  0  0  0  0  0  0  0  0
    7.3809  -16.0517   25.2615 C   0  0  0  0  0  0  0  0  0  0  0  0
    6.7105  -15.0362   26.0754 C   0  0  0  0  0  0  0  0  0  0  0  0
    5.6194  -15.2247   26.9209 C   0  0  0  0  0  0  0  0  0  0  0  0
    5.3079  -14.0456   27.4835 N   0  0  0  0  0  0  0  0  0  0  0  0
    6.1514  -13.0978   27.0387 C   0  0  0  0  0  0  0  0  0  0  0  0
    6.2592  -11.7449   27.3015 C   0  0  0  0  0  0  0  0  0  0  0  0
    7.2343  -10.9903   26.6974 C   0  0  0  0  0  0  0  0  0  0  0  0
    8.1059  -11.6130   25.8205 C   0  0  0  0  0  0  0  0  0  0  0  0
    8.0245  -12.9410   25.5426 C   0  0  0  0  0  0  0  0  0  0  0  0
    7.0295  -13.6878   26.1651 C   0  0  0  0  0  0  0  0  0  0  0  0
    7.4314  -16.4713   22.8193 C   0  0  0  0  0  0  0  0  0  0  0  0
    7.9189  -17.5362   22.3393 O   0  0  0  0  0  0  0  0  0  0  0  0
    7.0036  -13.3700   20.0641 C   0  0  0  0  0  0  0  0  0  0  0  0
    8.4098  -13.7992   20.3316 C   0  0  2  0  0  0  0  0  0  0  0  0
    9.2180  -13.7151   19.0530 C   0  0  0  0  0  0  0  0  0  0  0  0
    8.4723  -15.1938   20.9290 C   0  0  2  0  0  0  0  0  0  0  0  0
    7.7141  -15.2559   22.1518 N   0  0  0  0  0  0  0  0  0  0  0  0
    9.8989  -15.5880   21.1775 C   0  0  0  0  0  0  0  0  0  0  0  0
   10.5750  -14.9851   22.0361 O   0  0  0  0  0  0  0  0  0  0  0  0
   10.5172  -16.6389   20.4605 N   0  0  0  0  0  0  0  0  0  0  0  0
   11.8788  -17.0050   20.7750 C   0  0  1  0  0  0  0  0  0  0  0  0
   12.0635  -18.4989   20.8082 C   0  0  0  0  0  0  0  0  0  0  0  0
   11.3964  -19.0411   22.0090 C   0  0  0  0  0  0  0  0  0  0  0  0
   11.3691  -18.3744   23.2373 C   0  0  0  0  0  0  0  0  0  0  0  0
   10.6988  -19.0974   24.1430 N   0  0  0  0  0  0  0  0  0  0  0  0
   10.3034  -20.2051   23.5108 C   0  0  0  0  0  0  0  0  0  0  0  0
   10.7203  -20.1737   22.2317 N   0  0  0  0  0  0  0  0  0  0  0  0
   12.7502  -16.3486   19.7902 C   0  0  0  0  0  0  0  0  0  0  0  0
   13.9831  -16.3094   19.9846 O   0  0  0  0  0  0  0  0  0  0  0  0
   12.2366  -15.7716   18.6500 O   0  0  0  0  0  0  0  0  0  0  0  0
  2  1  1  1
  2  3  1  0
  4  5  2  0
  4  3  1  0
  6  5  1  0
  7 12  2  0
  7  6  1  0
  8  7  1  0
  9 10  1  0
  9  8  2  0
 10 11  2  0
 11 12  1  0
 12  4  1  0
 13  2  1  0
 13 14  2  0
 16 15  1  6
 16 18  1  0
 17 16  1  0
 18 19  1  1
 19 13  1  0
 20 18  1  0
 21 20  2  0
 22 20  1  0
 23 22  1  0
 23 30  1  0
 24 25  1  0
 23 24  1  6
 25 29  1  0
 26 27  1  0
 26 25  2  0
 27 28  1  0
 28 29  2  0
 30 32  1  0
 31 30  2  0
M  END
$$$$
