WVH.pdb
     RDKit          3D

 32 34  0  0  1  0  0  0  0  0999 V2000
    6.3050  -17.4682   23.7582 N   0  0  0  0  0  0  0  0  0  0  0  0
    6.9064  -16.1785   23.5006 C   0  0  1  0  0  0  0  0  0  0  0  0
    7.8035  -15.7782   24.6551 C   0  0  0  0  0  0  0  0  0  0  0  0
    7.1294  -14.9516   25.6577 C   0  0  0  0  0  0  0  0  0  0  0  0
    6.0731  -15.3292   26.4840 C   0  0  0  0  0  0  0  0  0  0  0  0
    5.7442  -14.2833   27.2596 N   0  0  0  0  0  0  0  0  0  0  0  0
    6.5430  -13.2407   26.9720 C   0  0  0  0  0  0  0  0  0  0  0  0
    6.6178  -11.9545   27.4732 C   0  0  0  0  0  0  0  0  0  0  0  0
    7.5486  -11.0683   26.9903 C   0  0  0  0  0  0  0  0  0  0  0  0
    8.4096  -11.4903   25.9917 C   0  0  0  0  0  0  0  0  0  0  0  0
    8.3599  -12.7483   25.4794 C   0  0  0  0  0  0  0  0  0  0  0  0
    7.4095  -13.6309   25.9823 C   0  0  0  0  0  0  0  0  0  0  0  0
    7.6519  -16.2501   22.2267 C   0  0  0  0  0  0  0  0  0  0  0  0
    7.8856  -17.3449   21.6361 O   0  0  0  0  0  0  0  0  0  0  0  0
    7.2605  -12.9898   19.7841 C   0  0  0  0  0  0  0  0  0  0  0  0
    8.6296  -13.5878   19.7564 C   0  0  2  0  0  0  0  0  0  0  0  0
    9.1851  -13.5194   18.3486 C   0  0  0  0  0  0  0  0  0  0  0  0
    8.6356  -15.0134   20.2794 C   0  0  2  0  0  0  0  0  0  0  0  0
    8.1308  -15.0609   21.6274 N   0  0  0  0  0  0  0  0  0  0  0  0
   10.0233  -15.5817   20.2203 C   0  0  0  0  0  0  0  0  0  0  0  0
   10.5307  -15.8828   19.1204 O   0  0  0  0  0  0  0  0  0  0  0  0
   10.7927  -15.7922   21.3885 N   0  0  0  0  0  0  0  0  0  0  0  0
   12.1001  -16.3961   21.2756 C   0  0  1  0  0  0  0  0  0  0  0  0
   13.1968  -15.3646   21.2943 C   0  0  0  0  0  0  0  0  0  0  0  0
   13.3833  -14.8337   19.9290 C   0  0  0  0  0  0  0  0  0  0  0  0
   13.1704  -13.4938   19.5922 C   0  0  0  0  0  0  0  0  0  0  0  0
   13.4136  -13.2983   18.2903 N   0  0  0  0  0  0  0  0  0  0  0  0
   13.7750  -14.4867   17.8004 C   0  0  0  0  0  0  0  0  0  0  0  0
   13.7576  -15.4085   18.7806 N   0  0  0  0  0  0  0  0  0  0  0  0
   12.2274  -17.3776   22.3622 C   0  0  0  0  0  0  0  0  0  0  0  0
   11.2498  -17.6087   23.1041 O   0  0  0  0  0  0  0  0  0  0  0  0
   13.4067  -18.0534   22.5837 O   0  0  0  0  0  0  0  0  0  0  0  0
  2  1  1  1
  2  3  1  0
  4  5  2  0
  4  3  1  0
  6  5  1  0
  7 12  2  0
  7  6  1  0
  8  7  1  0
  9 10  1  0
  9  8  2  0
 10 11  2  0
 11 12  1  0
 12  4  1  0
 13  2  1  0
 13 14  2  0
 16 15  1  6
 16 18  1  0
 17 16  1  0
 18 19  1  1
 19 13  1  0
 20 18  1  0
 21 20  2  0
 22 20  1  0
 23 22  1  0
 23 30  1  0
 24 25  1  0
 23 24  1  1
 25 29  1  0
 26 27  1  0
 26 25  2  0
 27 28  1  0
 28 29  2  0
 30 32  1  0
 31 30  2  0
M  END
$$$$
