KYK.pdb
     RDKit          3D

 31 31  0  0  1  0  0  0  0  0999 V2000
   23.8693  -19.0780  -15.5095 N   0  0  0  0  0  0  0  0  0  0  0  0
   22.9478  -19.8723  -16.2512 C   0  0  1  0  0  0  0  0  0  0  0  0
   23.4746  -20.3184  -17.5686 C   0  0  0  0  0  0  0  0  0  0  0  0
   23.4517  -19.2939  -18.6501 C   0  0  0  0  0  0  0  0  0  0  0  0
   22.9542  -17.9421  -18.2697 C   0  0  0  0  0  0  0  0  0  0  0  0
   22.9533  -17.0739  -19.5397 C   0  0  0  0  0  0  0  0  0  0  0  0
   22.4994  -15.7452  -19.1774 N   0  0  0  0  0  0  0  0  0  0  0  0
   22.4267  -20.9933  -15.4272 C   0  0  0  0  0  0  0  0  0  0  0  0
   22.6917  -22.1617  -15.7912 O   0  0  0  0  0  0  0  0  0  0  0  0
   26.9756  -21.5508  -10.6019 O   0  0  0  0  0  0  0  0  0  0  0  0
   25.6149  -21.5225  -10.9075 C   0  0  0  0  0  0  0  0  0  0  0  0
   25.0480  -22.4550  -11.7496 C   0  0  0  0  0  0  0  0  0  0  0  0
   23.7022  -22.4134  -12.0417 C   0  0  0  0  0  0  0  0  0  0  0  0
   22.8442  -21.4391  -11.5106 C   0  0  0  0  0  0  0  0  0  0  0  0
   21.4173  -21.4961  -11.8873 C   0  0  0  0  0  0  0  0  0  0  0  0
   21.1850  -21.7921  -13.3551 C   0  0  2  0  0  0  0  0  0  0  0  0
   21.6517  -20.7934  -14.2607 N   0  0  0  0  0  0  0  0  0  0  0  0
   19.8001  -22.2467  -13.5822 C   0  0  0  0  0  0  0  0  0  0  0  0
   18.9634  -21.3436  -13.8971 O   0  0  0  0  0  0  0  0  0  0  0  0
   23.4222  -20.5179  -10.6740 C   0  0  0  0  0  0  0  0  0  0  0  0
   24.7907  -20.5572  -10.3749 C   0  0  0  0  0  0  0  0  0  0  0  0
   19.3892  -23.5924  -13.4670 N   0  0  0  0  0  0  0  0  0  0  0  0
   17.9896  -23.9321  -13.6273 C   0  0  1  0  0  0  0  0  0  0  0  0
   17.8780  -25.4116  -13.7544 C   0  0  0  0  0  0  0  0  0  0  0  0
   16.4873  -25.9327  -13.8792 C   0  0  0  0  0  0  0  0  0  0  0  0
   16.4934  -27.4480  -13.8708 C   0  0  0  0  0  0  0  0  0  0  0  0
   15.0934  -27.9925  -14.1529 C   0  0  0  0  0  0  0  0  0  0  0  0
   15.2607  -29.4372  -14.3126 N   0  0  0  0  0  0  0  0  0  0  0  0
   17.2356  -23.3658  -12.4792 C   0  0  0  0  0  0  0  0  0  0  0  0
   16.0044  -23.1733  -12.6206 O   0  0  0  0  0  0  0  0  0  0  0  0
   17.8038  -23.0363  -11.2665 O   0  0  0  0  0  0  0  0  0  0  0  0
  2  1  1  1
  3  2  1  0
  4  3  1  0
  5  4  1  0
  6  5  1  0
  7  6  1  0
  8  2  1  0
  8  9  2  0
 10 11  1  0
 11 12  2  0
 12 13  1  0
 14 13  2  0
 14 15  1  0
 16 15  1  1
 16 17  1  0
 17  8  1  0
 18 16  1  0
 19 18  2  0
 20 14  1  0
 21 11  1  0
 21 20  2  0
 22 18  1  0
 23 24  1  1
 23 22  1  0
 24 25  1  0
 25 26  1  0
 26 27  1  0
 27 28  1  0
 29 23  1  0
 30 29  2  0
 31 29  1  0
M  END
$$$$
