KYK.pdb
     RDKit          3D

 31 31  0  0  1  0  0  0  0  0999 V2000
   21.6018  -28.4434  -15.5038 N   0  0  0  0  0  0  0  0  0  0  0  0
   22.0432  -27.9467  -14.2435 C   0  0  1  0  0  0  0  0  0  0  0  0
   22.5419  -26.5465  -14.2987 C   0  0  0  0  0  0  0  0  0  0  0  0
   21.6714  -25.5827  -15.0289 C   0  0  0  0  0  0  0  0  0  0  0  0
   21.2887  -24.3468  -14.2903 C   0  0  0  0  0  0  0  0  0  0  0  0
   20.3364  -23.5433  -15.1926 C   0  0  0  0  0  0  0  0  0  0  0  0
   20.0806  -22.2664  -14.5546 N   0  0  0  0  0  0  0  0  0  0  0  0
   21.0077  -28.1508  -13.1979 C   0  0  0  0  0  0  0  0  0  0  0  0
   19.8210  -28.2999  -13.5687 O   0  0  0  0  0  0  0  0  0  0  0  0
   20.8590  -34.7508  -12.1039 O   0  0  0  0  0  0  0  0  0  0  0  0
   20.8708  -33.4745  -11.5415 C   0  0  0  0  0  0  0  0  0  0  0  0
   19.7217  -32.8974  -11.0446 C   0  0  0  0  0  0  0  0  0  0  0  0
   19.7499  -31.6357  -10.4921 C   0  0  0  0  0  0  0  0  0  0  0  0
   20.9261  -30.8765  -10.4035 C   0  0  0  0  0  0  0  0  0  0  0  0
   20.8393  -29.5383   -9.7848 C   0  0  0  0  0  0  0  0  0  0  0  0
   20.4041  -28.4494  -10.7444 C   0  0  2  0  0  0  0  0  0  0  0  0
   21.3076  -28.1828  -11.8158 N   0  0  0  0  0  0  0  0  0  0  0  0
   19.9383  -27.2600  -10.0064 C   0  0  0  0  0  0  0  0  0  0  0  0
   20.8447  -26.4659   -9.6032 O   0  0  0  0  0  0  0  0  0  0  0  0
   22.0618  -31.4634  -10.9018 C   0  0  0  0  0  0  0  0  0  0  0  0
   22.0366  -32.7467  -11.4645 C   0  0  0  0  0  0  0  0  0  0  0  0
   18.5788  -26.9848   -9.7436 N   0  0  0  0  0  0  0  0  0  0  0  0
   18.2099  -25.7424   -9.0951 C   0  0  1  0  0  0  0  0  0  0  0  0
   18.4637  -24.6243  -10.0454 C   0  0  0  0  0  0  0  0  0  0  0  0
   17.4616  -24.4843  -11.1396 C   0  0  0  0  0  0  0  0  0  0  0  0
   17.8442  -23.3402  -12.0566 C   0  0  0  0  0  0  0  0  0  0  0  0
   16.8386  -23.2088  -13.2001 C   0  0  0  0  0  0  0  0  0  0  0  0
   17.2852  -22.0560  -13.9827 N   0  0  0  0  0  0  0  0  0  0  0  0
   16.7963  -25.8480   -8.6501 C   0  0  0  0  0  0  0  0  0  0  0  0
   16.1439  -26.8615   -8.9964 O   0  0  0  0  0  0  0  0  0  0  0  0
   16.1540  -24.9006   -7.8805 O   0  0  0  0  0  0  0  0  0  0  0  0
  2  1  1  6
  3  2  1  0
  4  3  1  0
  5  4  1  0
  6  5  1  0
  7  6  1  0
  8  2  1  0
  8  9  2  0
 10 11  1  0
 11 12  2  0
 12 13  1  0
 14 13  2  0
 14 15  1  0
 16 15  1  1
 16 17  1  0
 17  8  1  0
 18 16  1  0
 19 18  2  0
 20 14  1  0
 21 11  1  0
 21 20  2  0
 22 18  1  0
 23 24  1  6
 23 22  1  0
 24 25  1  0
 25 26  1  0
 26 27  1  0
 27 28  1  0
 29 23  1  0
 30 29  2  0
 31 29  1  0
M  END
$$$$
