KYK.pdb
     RDKit          3D

 31 31  0  0  1  0  0  0  0  0999 V2000
   26.2228  -18.7498  -17.8362 N   0  0  0  0  0  0  0  0  0  0  0  0
   25.3710  -18.4007  -16.7487 C   0  0  1  0  0  0  0  0  0  0  0  0
   25.5747  -17.0118  -16.2572 C   0  0  0  0  0  0  0  0  0  0  0  0
   26.8267  -16.7814  -15.4829 C   0  0  0  0  0  0  0  0  0  0  0  0
   27.4081  -17.9694  -14.7973 C   0  0  0  0  0  0  0  0  0  0  0  0
   28.6480  -17.4954  -14.0197 C   0  0  0  0  0  0  0  0  0  0  0  0
   29.2584  -18.6530  -13.3950 N   0  0  0  0  0  0  0  0  0  0  0  0
   23.9509  -18.6990  -17.0669 C   0  0  0  0  0  0  0  0  0  0  0  0
   23.4263  -18.0954  -18.0304 O   0  0  0  0  0  0  0  0  0  0  0  0
   23.1263  -23.1190  -22.0354 O   0  0  0  0  0  0  0  0  0  0  0  0
   22.7502  -22.7009  -20.7590 C   0  0  0  0  0  0  0  0  0  0  0  0
   21.4367  -22.4136  -20.4548 C   0  0  0  0  0  0  0  0  0  0  0  0
   21.0814  -22.0016  -19.1891 C   0  0  0  0  0  0  0  0  0  0  0  0
   22.0157  -21.8523  -18.1536 C   0  0  0  0  0  0  0  0  0  0  0  0
   21.5199  -21.4114  -16.8341 C   0  0  0  0  0  0  0  0  0  0  0  0
   21.8034  -19.9540  -16.5315 C   0  0  2  0  0  0  0  0  0  0  0  0
   23.1779  -19.6280  -16.3317 N   0  0  0  0  0  0  0  0  0  0  0  0
   20.8821  -19.4478  -15.4966 C   0  0  0  0  0  0  0  0  0  0  0  0
   21.2978  -19.5222  -14.2981 O   0  0  0  0  0  0  0  0  0  0  0  0
   23.3189  -22.1419  -18.4707 C   0  0  0  0  0  0  0  0  0  0  0  0
   23.6838  -22.5612  -19.7572 C   0  0  0  0  0  0  0  0  0  0  0  0
   19.6091  -18.9067  -15.7789 N   0  0  0  0  0  0  0  0  0  0  0  0
   18.8109  -18.3505  -14.7049 C   0  0  1  0  0  0  0  0  0  0  0  0
   17.6984  -17.5643  -15.3064 C   0  0  0  0  0  0  0  0  0  0  0  0
   16.7590  -16.9468  -14.3280 C   0  0  0  0  0  0  0  0  0  0  0  0
   15.6156  -16.2693  -15.0559 C   0  0  0  0  0  0  0  0  0  0  0  0
   14.6029  -15.7060  -14.0594 C   0  0  0  0  0  0  0  0  0  0  0  0
   13.4581  -15.2795  -14.8645 N   0  0  0  0  0  0  0  0  0  0  0  0
   18.3600  -19.4643  -13.8311 C   0  0  0  0  0  0  0  0  0  0  0  0
   18.1536  -20.5821  -14.3609 O   0  0  0  0  0  0  0  0  0  0  0  0
   18.1522  -19.3474  -12.4726 O   0  0  0  0  0  0  0  0  0  0  0  0
  2  1  1  6
  3  2  1  0
  4  3  1  0
  5  4  1  0
  6  5  1  0
  7  6  1  0
  8  2  1  0
  8  9  2  0
 10 11  1  0
 11 12  2  0
 12 13  1  0
 14 13  2  0
 14 15  1  0
 16 15  1  1
 16 17  1  0
 17  8  1  0
 18 16  1  0
 19 18  2  0
 20 14  1  0
 21 11  1  0
 21 20  2  0
 22 18  1  0
 23 24  1  6
 23 22  1  0
 24 25  1  0
 25 26  1  0
 26 27  1  0
 27 28  1  0
 29 23  1  0
 30 29  2  0
 31 29  1  0
M  END
$$$$
