KYK.pdb
     RDKit          3D

 31 31  0  0  1  0  0  0  0  0999 V2000
   25.4496  -24.8984  -15.5577 N   0  0  0  0  0  0  0  0  0  0  0  0
   26.0295  -23.6219  -15.8109 C   0  0  1  0  0  0  0  0  0  0  0  0
   26.5661  -23.4766  -17.1904 C   0  0  0  0  0  0  0  0  0  0  0  0
   27.7217  -24.3552  -17.5261 C   0  0  0  0  0  0  0  0  0  0  0  0
   29.0756  -23.7507  -17.3820 C   0  0  0  0  0  0  0  0  0  0  0  0
   30.0993  -24.7782  -17.8948 C   0  0  0  0  0  0  0  0  0  0  0  0
   30.4229  -25.6760  -16.8030 N   0  0  0  0  0  0  0  0  0  0  0  0
   25.0964  -22.5286  -15.4353 C   0  0  0  0  0  0  0  0  0  0  0  0
   23.8712  -22.7157  -15.6140 O   0  0  0  0  0  0  0  0  0  0  0  0
   23.3200  -21.4673   -8.5026 O   0  0  0  0  0  0  0  0  0  0  0  0
   23.7869  -20.9446   -9.7086 C   0  0  0  0  0  0  0  0  0  0  0  0
   22.9274  -20.3866  -10.6307 C   0  0  0  0  0  0  0  0  0  0  0  0
   23.4042  -19.8747  -11.8175 C   0  0  0  0  0  0  0  0  0  0  0  0
   24.7661  -19.8897  -12.1532 C   0  0  0  0  0  0  0  0  0  0  0  0
   25.1643  -19.3059  -13.4500 C   0  0  0  0  0  0  0  0  0  0  0  0
   24.7451  -20.1351  -14.6469 C   0  0  2  0  0  0  0  0  0  0  0  0
   25.5339  -21.2988  -14.8900 N   0  0  0  0  0  0  0  0  0  0  0  0
   24.5181  -19.2746  -15.8234 C   0  0  0  0  0  0  0  0  0  0  0  0
   25.5618  -18.8536  -16.4136 O   0  0  0  0  0  0  0  0  0  0  0  0
   25.6096  -20.4478  -11.2260 C   0  0  0  0  0  0  0  0  0  0  0  0
   25.1279  -20.9696  -10.0179 C   0  0  0  0  0  0  0  0  0  0  0  0
   23.2367  -18.9176  -16.2964 N   0  0  0  0  0  0  0  0  0  0  0  0
   23.1132  -18.0294  -17.4348 C   0  0  1  0  0  0  0  0  0  0  0  0
   22.8803  -18.8561  -18.6513 C   0  0  0  0  0  0  0  0  0  0  0  0
   22.7062  -18.0864  -19.9155 C   0  0  0  0  0  0  0  0  0  0  0  0
   22.4333  -19.0298  -21.0694 C   0  0  0  0  0  0  0  0  0  0  0  0
   22.3564  -18.2590  -22.3870 C   0  0  0  0  0  0  0  0  0  0  0  0
   21.9018  -19.2304  -23.3822 N   0  0  0  0  0  0  0  0  0  0  0  0
   22.0300  -17.0528  -17.1516 C   0  0  0  0  0  0  0  0  0  0  0  0
   21.2249  -17.3177  -16.2272 O   0  0  0  0  0  0  0  0  0  0  0  0
   21.8518  -15.8722  -17.8420 O   0  0  0  0  0  0  0  0  0  0  0  0
  2  1  1  6
  3  2  1  0
  4  3  1  0
  5  4  1  0
  6  5  1  0
  7  6  1  0
  8  2  1  0
  8  9  2  0
 10 11  1  0
 11 12  2  0
 12 13  1  0
 14 13  2  0
 14 15  1  0
 16 15  1  1
 16 17  1  0
 17  8  1  0
 18 16  1  0
 19 18  2  0
 20 14  1  0
 21 11  1  0
 21 20  2  0
 22 18  1  0
 23 24  1  6
 23 22  1  0
 24 25  1  0
 25 26  1  0
 26 27  1  0
 27 28  1  0
 29 23  1  0
 30 29  2  0
 31 29  1  0
M  END
$$$$
