KYK.pdb
     RDKit          3D

 31 31  0  0  1  0  0  0  0  0999 V2000
   18.4298  -14.7878  -17.9679 N   0  0  0  0  0  0  0  0  0  0  0  0
   19.2364  -14.1069  -18.9250 C   0  0  1  0  0  0  0  0  0  0  0  0
   19.3931  -14.8487  -20.2045 C   0  0  0  0  0  0  0  0  0  0  0  0
   20.2972  -16.0319  -20.1547 C   0  0  0  0  0  0  0  0  0  0  0  0
   20.6555  -16.5334  -18.7984 C   0  0  0  0  0  0  0  0  0  0  0  0
   21.4762  -17.8217  -18.9821 C   0  0  0  0  0  0  0  0  0  0  0  0
   21.8971  -18.2791  -17.6720 N   0  0  0  0  0  0  0  0  0  0  0  0
   18.7680  -12.7106  -19.1197 C   0  0  0  0  0  0  0  0  0  0  0  0
   18.1296  -12.4462  -20.1640 O   0  0  0  0  0  0  0  0  0  0  0  0
   12.4881  -11.9477  -19.6421 O   0  0  0  0  0  0  0  0  0  0  0  0
   13.6834  -11.4778  -19.0979 C   0  0  0  0  0  0  0  0  0  0  0  0
   14.2220  -10.2687  -19.4829 C   0  0  0  0  0  0  0  0  0  0  0  0
   15.4037   -9.8185  -18.9360 C   0  0  0  0  0  0  0  0  0  0  0  0
   16.1164  -10.5485  -17.9734 C   0  0  0  0  0  0  0  0  0  0  0  0
   17.3684   -9.9646  -17.4512 C   0  0  0  0  0  0  0  0  0  0  0  0
   18.5943  -10.3194  -18.2680 C   0  0  2  0  0  0  0  0  0  0  0  0
   19.0128  -11.6805  -18.1815 N   0  0  0  0  0  0  0  0  0  0  0  0
   19.6617   -9.3212  -18.0664 C   0  0  0  0  0  0  0  0  0  0  0  0
   20.4062   -9.5009  -17.0524 O   0  0  0  0  0  0  0  0  0  0  0  0
   15.5684  -11.7496  -17.5997 C   0  0  0  0  0  0  0  0  0  0  0  0
   14.3667  -12.2106  -18.1540 C   0  0  0  0  0  0  0  0  0  0  0  0
   19.8759   -8.2204  -18.9240 N   0  0  0  0  0  0  0  0  0  0  0  0
   20.8818   -7.2330  -18.5874 C   0  0  1  0  0  0  0  0  0  0  0  0
   21.0634   -6.3310  -19.7583 C   0  0  0  0  0  0  0  0  0  0  0  0
   22.0129   -5.2021  -19.5458 C   0  0  0  0  0  0  0  0  0  0  0  0
   22.1542   -4.3905  -20.8176 C   0  0  0  0  0  0  0  0  0  0  0  0
   23.1518   -3.2497  -20.6191 C   0  0  0  0  0  0  0  0  0  0  0  0
   23.3079   -2.6332  -21.9367 N   0  0  0  0  0  0  0  0  0  0  0  0
   20.4561   -6.5346  -17.3470 C   0  0  0  0  0  0  0  0  0  0  0  0
   19.2533   -6.1943  -17.2459 O   0  0  0  0  0  0  0  0  0  0  0  0
   21.3005   -6.2347  -16.2985 O   0  0  0  0  0  0  0  0  0  0  0  0
  2  1  1  1
  3  2  1  0
  4  3  1  0
  5  4  1  0
  6  5  1  0
  7  6  1  0
  8  2  1  0
  8  9  2  0
 10 11  1  0
 11 12  2  0
 12 13  1  0
 14 13  2  0
 14 15  1  0
 16 15  1  1
 16 17  1  0
 17  8  1  0
 18 16  1  0
 19 18  2  0
 20 14  1  0
 21 11  1  0
 21 20  2  0
 22 18  1  0
 23 24  1  6
 23 22  1  0
 24 25  1  0
 25 26  1  0
 26 27  1  0
 27 28  1  0
 29 23  1  0
 30 29  2  0
 31 29  1  0
M  END
$$$$
