KYK.pdb
     RDKit          3D

 31 31  0  0  1  0  0  0  0  0999 V2000
   28.3795  -21.0664  -17.4085 N   0  0  0  0  0  0  0  0  0  0  0  0
   27.5585  -22.2267  -17.3106 C   0  0  1  0  0  0  0  0  0  0  0  0
   28.2649  -23.4857  -17.6684 C   0  0  0  0  0  0  0  0  0  0  0  0
   28.7158  -23.5893  -19.0846 C   0  0  0  0  0  0  0  0  0  0  0  0
   27.8279  -24.3510  -20.0071 C   0  0  0  0  0  0  0  0  0  0  0  0
   28.4492  -25.7446  -20.2036 C   0  0  0  0  0  0  0  0  0  0  0  0
   27.5282  -26.5422  -20.9900 N   0  0  0  0  0  0  0  0  0  0  0  0
   26.8889  -22.2956  -15.9863 C   0  0  0  0  0  0  0  0  0  0  0  0
   26.1029  -23.2473  -15.7751 O   0  0  0  0  0  0  0  0  0  0  0  0
   24.5073  -20.2749   -7.5975 O   0  0  0  0  0  0  0  0  0  0  0  0
   25.1850  -20.3982   -8.8104 C   0  0  0  0  0  0  0  0  0  0  0  0
   25.3612  -19.3178   -9.6483 C   0  0  0  0  0  0  0  0  0  0  0  0
   26.0329  -19.4561  -10.8431 C   0  0  0  0  0  0  0  0  0  0  0  0
   26.5677  -20.6801  -11.2713 C   0  0  0  0  0  0  0  0  0  0  0  0
   27.2748  -20.7091  -12.5676 C   0  0  0  0  0  0  0  0  0  0  0  0
   26.4403  -21.2608  -13.7056 C   0  0  2  0  0  0  0  0  0  0  0  0
   27.1028  -21.3385  -14.9668 N   0  0  0  0  0  0  0  0  0  0  0  0
   25.1108  -20.6222  -13.7342 C   0  0  0  0  0  0  0  0  0  0  0  0
   25.0707  -19.4430  -14.2059 O   0  0  0  0  0  0  0  0  0  0  0  0
   26.3850  -21.7464  -10.4273 C   0  0  0  0  0  0  0  0  0  0  0  0
   25.7021  -21.6093   -9.2112 C   0  0  0  0  0  0  0  0  0  0  0  0
   23.9317  -21.2485  -13.2752 N   0  0  0  0  0  0  0  0  0  0  0  0
   22.6648  -20.5513  -13.3698 C   0  0  1  0  0  0  0  0  0  0  0  0
   22.2780  -20.4746  -14.8058 C   0  0  0  0  0  0  0  0  0  0  0  0
   20.9271  -19.9023  -15.0673 C   0  0  0  0  0  0  0  0  0  0  0  0
   20.6259  -19.9287  -16.5522 C   0  0  0  0  0  0  0  0  0  0  0  0
   19.2455  -19.3347  -16.8311 C   0  0  0  0  0  0  0  0  0  0  0  0
   19.0991  -19.3530  -18.2868 N   0  0  0  0  0  0  0  0  0  0  0  0
   21.6763  -21.2580  -12.5148 C   0  0  0  0  0  0  0  0  0  0  0  0
   21.7439  -22.5085  -12.4467 O   0  0  0  0  0  0  0  0  0  0  0  0
   20.6865  -20.6263  -11.7914 O   0  0  0  0  0  0  0  0  0  0  0  0
  2  1  1  1
  3  2  1  0
  4  3  1  0
  5  4  1  0
  6  5  1  0
  7  6  1  0
  8  2  1  0
  8  9  2  0
 10 11  1  0
 11 12  2  0
 12 13  1  0
 14 13  2  0
 14 15  1  0
 16 15  1  1
 16 17  1  0
 17  8  1  0
 18 16  1  0
 19 18  2  0
 20 14  1  0
 21 11  1  0
 21 20  2  0
 22 18  1  0
 23 24  1  6
 23 22  1  0
 24 25  1  0
 25 26  1  0
 26 27  1  0
 27 28  1  0
 29 23  1  0
 30 29  2  0
 31 29  1  0
M  END
$$$$
