KYK.pdb
     RDKit          3D

 31 31  0  0  1  0  0  0  0  0999 V2000
   15.5689  -13.8916  -15.9121 N   0  0  0  0  0  0  0  0  0  0  0  0
   16.4874  -14.0020  -16.9957 C   0  0  1  0  0  0  0  0  0  0  0  0
   15.9422  -14.7457  -18.1626 C   0  0  0  0  0  0  0  0  0  0  0  0
   15.0704  -15.9082  -17.8334 C   0  0  0  0  0  0  0  0  0  0  0  0
   15.7661  -17.1712  -17.4586 C   0  0  0  0  0  0  0  0  0  0  0  0
   14.6888  -18.2481  -17.2440 C   0  0  0  0  0  0  0  0  0  0  0  0
   15.3493  -19.4705  -16.8290 N   0  0  0  0  0  0  0  0  0  0  0  0
   17.0398  -12.6730  -17.3637 C   0  0  0  0  0  0  0  0  0  0  0  0
   17.7854  -12.6051  -18.3674 O   0  0  0  0  0  0  0  0  0  0  0  0
   12.5631   -9.7804  -21.3207 O   0  0  0  0  0  0  0  0  0  0  0  0
   13.4656   -9.6047  -20.2718 C   0  0  0  0  0  0  0  0  0  0  0  0
   13.1514   -9.9795  -18.9830 C   0  0  0  0  0  0  0  0  0  0  0  0
   14.0539   -9.7992  -17.9578 C   0  0  0  0  0  0  0  0  0  0  0  0
   15.3220   -9.2345  -18.1589 C   0  0  0  0  0  0  0  0  0  0  0  0
   16.2102   -9.0962  -16.9871 C   0  0  0  0  0  0  0  0  0  0  0  0
   17.2604  -10.1838  -16.8856 C   0  0  2  0  0  0  0  0  0  0  0  0
   16.7588  -11.4951  -16.6323 N   0  0  0  0  0  0  0  0  0  0  0  0
   18.3697   -9.7571  -16.0117 C   0  0  0  0  0  0  0  0  0  0  0  0
   18.3098  -10.1515  -14.8052 O   0  0  0  0  0  0  0  0  0  0  0  0
   15.6210   -8.8665  -19.4464 C   0  0  0  0  0  0  0  0  0  0  0  0
   14.7054   -9.0484  -20.4916 C   0  0  0  0  0  0  0  0  0  0  0  0
   19.4493   -8.9601  -16.4501 N   0  0  0  0  0  0  0  0  0  0  0  0
   20.5477   -8.6796  -15.5474 C   0  0  1  0  0  0  0  0  0  0  0  0
   21.7347   -9.4582  -15.9973 C   0  0  0  0  0  0  0  0  0  0  0  0
   22.9739   -9.2405  -15.1985 C   0  0  0  0  0  0  0  0  0  0  0  0
   24.1161  -10.0545  -15.7719 C   0  0  0  0  0  0  0  0  0  0  0  0
   25.3709   -9.8990  -14.9131 C   0  0  0  0  0  0  0  0  0  0  0  0
   26.3867  -10.7377  -15.5499 N   0  0  0  0  0  0  0  0  0  0  0  0
   20.7653   -7.2101  -15.5168 C   0  0  0  0  0  0  0  0  0  0  0  0
   21.0183   -6.6750  -14.4112 O   0  0  0  0  0  0  0  0  0  0  0  0
   20.7053   -6.3952  -16.6279 O   0  0  0  0  0  0  0  0  0  0  0  0
  2  1  1  1
  3  2  1  0
  4  3  1  0
  5  4  1  0
  6  5  1  0
  7  6  1  0
  8  2  1  0
  8  9  2  0
 10 11  1  0
 11 12  2  0
 12 13  1  0
 14 13  2  0
 14 15  1  0
 16 15  1  1
 16 17  1  0
 17  8  1  0
 18 16  1  0
 19 18  2  0
 20 14  1  0
 21 11  1  0
 21 20  2  0
 22 18  1  0
 23 24  1  6
 23 22  1  0
 24 25  1  0
 25 26  1  0
 26 27  1  0
 27 28  1  0
 29 23  1  0
 30 29  2  0
 31 29  1  0
M  END
$$$$
