KYK.pdb
     RDKit          3D

 31 31  0  0  1  0  0  0  0  0999 V2000
   28.2928  -22.2052  -16.7903 N   0  0  0  0  0  0  0  0  0  0  0  0
   28.0780  -21.0203  -16.0287 C   0  0  1  0  0  0  0  0  0  0  0  0
   27.9664  -19.7922  -16.8602 C   0  0  0  0  0  0  0  0  0  0  0  0
   28.0726  -20.0007  -18.3316 C   0  0  0  0  0  0  0  0  0  0  0  0
   26.8206  -19.8155  -19.1177 C   0  0  0  0  0  0  0  0  0  0  0  0
   27.1751  -19.9955  -20.6038 C   0  0  0  0  0  0  0  0  0  0  0  0
   25.9537  -19.8769  -21.3765 N   0  0  0  0  0  0  0  0  0  0  0  0
   26.9386  -21.1890  -15.0905 C   0  0  0  0  0  0  0  0  0  0  0  0
   26.0481  -22.0162  -15.3917 O   0  0  0  0  0  0  0  0  0  0  0  0
   22.1842  -20.9648   -7.5286 O   0  0  0  0  0  0  0  0  0  0  0  0
   23.1413  -20.7233   -8.5141 C   0  0  0  0  0  0  0  0  0  0  0  0
   24.3563  -21.3745   -8.5108 C   0  0  0  0  0  0  0  0  0  0  0  0
   25.2913  -21.1248   -9.4913 C   0  0  0  0  0  0  0  0  0  0  0  0
   25.0683  -20.2111  -10.5320 C   0  0  0  0  0  0  0  0  0  0  0  0
   26.1392  -20.0290  -11.5325 C   0  0  0  0  0  0  0  0  0  0  0  0
   25.7935  -20.5755  -12.9028 C   0  0  2  0  0  0  0  0  0  0  0  0
   26.8226  -20.4595  -13.8840 N   0  0  0  0  0  0  0  0  0  0  0  0
   24.4628  -20.1044  -13.3312 C   0  0  0  0  0  0  0  0  0  0  0  0
   24.4368  -18.9864  -13.9347 O   0  0  0  0  0  0  0  0  0  0  0  0
   23.8548  -19.5707  -10.5227 C   0  0  0  0  0  0  0  0  0  0  0  0
   22.9015  -19.8222   -9.5267 C   0  0  0  0  0  0  0  0  0  0  0  0
   23.2681  -20.8215  -13.1040 N   0  0  0  0  0  0  0  0  0  0  0  0
   22.0177  -20.3217  -13.6395 C   0  0  1  0  0  0  0  0  0  0  0  0
   21.8709  -20.8238  -15.0338 C   0  0  0  0  0  0  0  0  0  0  0  0
   20.6023  -20.4388  -15.7144 C   0  0  0  0  0  0  0  0  0  0  0  0
   20.5320  -21.0736  -17.0886 C   0  0  0  0  0  0  0  0  0  0  0  0
   19.2797  -20.6093  -17.8316 C   0  0  0  0  0  0  0  0  0  0  0  0
   19.3435  -21.2516  -19.1447 N   0  0  0  0  0  0  0  0  0  0  0  0
   20.9191  -20.7366  -12.7292 C   0  0  0  0  0  0  0  0  0  0  0  0
   21.0482  -21.8161  -12.1040 O   0  0  0  0  0  0  0  0  0  0  0  0
   19.7640  -20.0103  -12.5284 O   0  0  0  0  0  0  0  0  0  0  0  0
  2  1  1  6
  3  2  1  0
  4  3  1  0
  5  4  1  0
  6  5  1  0
  7  6  1  0
  8  2  1  0
  8  9  2  0
 10 11  1  0
 11 12  2  0
 12 13  1  0
 14 13  2  0
 14 15  1  0
 16 15  1  1
 16 17  1  0
 17  8  1  0
 18 16  1  0
 19 18  2  0
 20 14  1  0
 21 11  1  0
 21 20  2  0
 22 18  1  0
 23 24  1  6
 23 22  1  0
 24 25  1  0
 25 26  1  0
 26 27  1  0
 27 28  1  0
 29 23  1  0
 30 29  2  0
 31 29  1  0
M  END
$$$$
