VCK.pdb
     RDKit          3D

 23 22  0  0  1  0  0  0  0  0999 V2000
    7.4352  -12.5851   20.5587 C   0  0  0  0  0  0  0  0  0  0  0  0
    8.2580  -13.7734   20.0738 C   0  0  2  0  0  0  0  0  0  0  0  0
    7.6161  -14.2204   18.7812 C   0  0  0  0  0  0  0  0  0  0  0  0
    8.0611  -14.8888   21.1044 C   0  0  2  0  0  0  0  0  0  0  0  0
    6.6284  -15.2927   21.0550 N   0  0  0  0  0  0  0  0  0  0  0  0
    8.4040  -14.4716   22.4752 C   0  0  0  0  0  0  0  0  0  0  0  0
    9.6327  -14.2493   22.7402 O   0  0  0  0  0  0  0  0  0  0  0  0
    7.5038  -14.2932   23.5198 N   0  0  0  0  0  0  0  0  0  0  0  0
    7.8606  -13.8470   24.8523 C   0  0  1  0  0  0  0  0  0  0  0  0
    6.6902  -13.1471   25.5326 C   0  0  0  0  0  0  0  0  0  0  0  0
    7.0603  -12.7125   27.2362 S   0  0  0  0  0  0  0  0  0  0  0  0
    8.2169  -14.9974   25.7243 C   0  0  0  0  0  0  0  0  0  0  0  0
    7.3063  -15.8163   26.0087 O   0  0  0  0  0  0  0  0  0  0  0  0
    9.4962  -15.2234   26.2448 N   0  0  0  0  0  0  0  0  0  0  0  0
    9.8426  -16.2709   27.1808 C   0  0  1  0  0  0  0  0  0  0  0  0
   10.9613  -17.0815   26.5203 C   0  0  0  0  0  0  0  0  0  0  0  0
   11.4218  -18.2023   27.4209 C   0  0  0  0  0  0  0  0  0  0  0  0
   12.4430  -19.0099   26.6604 C   0  0  0  0  0  0  0  0  0  0  0  0
   12.8355  -20.2685   27.4166 C   0  0  0  0  0  0  0  0  0  0  0  0
   13.6098  -21.0860   26.5007 N   0  0  0  0  0  0  0  0  0  0  0  0
   10.4535  -15.6948   28.4265 C   0  0  0  0  0  0  0  0  0  0  0  0
   10.8533  -14.5025   28.4512 O   0  0  0  0  0  0  0  0  0  0  0  0
   10.5949  -16.4481   29.5751 O   0  0  0  0  0  0  0  0  0  0  0  0
  2  1  1  1
  3  2  1  0
  4  5  1  1
  4  2  1  0
  6  4  1  0
  6  7  2  0
  8  6  1  0
  9  8  1  0
  9 12  1  0
  9 10  1  1
 11 10  1  0
 12 13  2  0
 12 14  1  0
 14 15  1  0
 15 21  1  0
 15 16  1  6
 16 17  1  0
 18 19  1  0
 18 17  1  0
 20 19  1  0
 21 22  2  0
 21 23  1  0
M  END
$$$$
