VCK.pdb
     RDKit          3D

 23 22  0  0  1  0  0  0  0  0999 V2000
    6.9314  -13.8238   21.1529 C   0  0  0  0  0  0  0  0  0  0  0  0
    8.1754  -13.3313   20.4221 C   0  0  2  0  0  0  0  0  0  0  0  0
    7.6907  -12.2989   19.4311 C   0  0  0  0  0  0  0  0  0  0  0  0
    8.7152  -14.5245   19.6286 C   0  0  2  0  0  0  0  0  0  0  0  0
    7.6420  -14.9580   18.6914 N   0  0  0  0  0  0  0  0  0  0  0  0
    9.1015  -15.6581   20.4870 C   0  0  0  0  0  0  0  0  0  0  0  0
    8.2522  -16.5966   20.6518 O   0  0  0  0  0  0  0  0  0  0  0  0
   10.3198  -15.8042   21.1409 N   0  0  0  0  0  0  0  0  0  0  0  0
   10.6729  -16.9239   21.9916 C   0  0  1  0  0  0  0  0  0  0  0  0
   12.1777  -17.1655   21.9908 C   0  0  0  0  0  0  0  0  0  0  0  0
   12.7722  -17.7205   20.3887 S   0  0  0  0  0  0  0  0  0  0  0  0
   10.2980  -16.6603   23.4061 C   0  0  0  0  0  0  0  0  0  0  0  0
   10.7337  -15.6074   23.9374 O   0  0  0  0  0  0  0  0  0  0  0  0
    9.4946  -17.5073   24.1778 N   0  0  0  0  0  0  0  0  0  0  0  0
    9.2066  -17.3301   25.5846 C   0  0  1  0  0  0  0  0  0  0  0  0
    7.8675  -18.0284   25.8380 C   0  0  0  0  0  0  0  0  0  0  0  0
    7.9585  -19.5029   25.5264 C   0  0  0  0  0  0  0  0  0  0  0  0
    6.6055  -20.1115   25.7955 C   0  0  0  0  0  0  0  0  0  0  0  0
    6.5930  -21.6010   25.4935 C   0  0  0  0  0  0  0  0  0  0  0  0
    5.2820  -22.0964   25.8708 N   0  0  0  0  0  0  0  0  0  0  0  0
   10.2042  -18.0674   26.4320 C   0  0  0  0  0  0  0  0  0  0  0  0
   10.9934  -18.8989   25.9146 O   0  0  0  0  0  0  0  0  0  0  0  0
   10.2870  -17.8586   27.7945 O   0  0  0  0  0  0  0  0  0  0  0  0
  2  1  1  1
  3  2  1  0
  4  5  1  6
  4  2  1  0
  6  4  1  0
  6  7  2  0
  8  6  1  0
  9  8  1  0
  9 12  1  0
  9 10  1  1
 11 10  1  0
 12 13  2  0
 12 14  1  0
 14 15  1  0
 15 21  1  0
 15 16  1  6
 16 17  1  0
 18 19  1  0
 18 17  1  0
 20 19  1  0
 21 22  2  0
 21 23  1  0
M  END
$$$$
