VCK.pdb
     RDKit          3D

 23 22  0  0  1  0  0  0  0  0999 V2000
    7.3142  -14.2677   17.3350 C   0  0  0  0  0  0  0  0  0  0  0  0
    8.0559  -14.7247   18.5860 C   0  0  2  0  0  0  0  0  0  0  0  0
    7.3189  -15.9478   19.0796 C   0  0  0  0  0  0  0  0  0  0  0  0
    7.8756  -13.6173   19.6281 C   0  0  2  0  0  0  0  0  0  0  0  0
    8.5261  -12.3901   19.0905 N   0  0  0  0  0  0  0  0  0  0  0  0
    8.4707  -13.9539   20.9332 C   0  0  0  0  0  0  0  0  0  0  0  0
    9.7441  -13.9825   21.0175 O   0  0  0  0  0  0  0  0  0  0  0  0
    7.7670  -14.2451   22.0965 N   0  0  0  0  0  0  0  0  0  0  0  0
    8.3750  -14.5958   23.3652 C   0  0  1  0  0  0  0  0  0  0  0  0
    7.3520  -14.5681   24.4945 C   0  0  0  0  0  0  0  0  0  0  0  0
    6.6484  -12.9316   24.7291 S   0  0  0  0  0  0  0  0  0  0  0  0
    8.9180  -15.9796   23.3340 C   0  0  0  0  0  0  0  0  0  0  0  0
    8.3123  -16.8270   22.6299 O   0  0  0  0  0  0  0  0  0  0  0  0
   10.0553  -16.3943   24.0362 N   0  0  0  0  0  0  0  0  0  0  0  0
   10.6621  -17.7044   23.9416 C   0  0  1  0  0  0  0  0  0  0  0  0
   11.6096  -17.6507   22.7398 C   0  0  0  0  0  0  0  0  0  0  0  0
   10.8874  -18.0134   21.4645 C   0  0  0  0  0  0  0  0  0  0  0  0
   11.8944  -17.9783   20.3428 C   0  0  0  0  0  0  0  0  0  0  0  0
   11.2366  -18.2191   18.9940 C   0  0  0  0  0  0  0  0  0  0  0  0
   12.2870  -18.1498   17.9947 N   0  0  0  0  0  0  0  0  0  0  0  0
   11.5429  -17.9730   25.1286 C   0  0  0  0  0  0  0  0  0  0  0  0
   11.8273  -17.0519   25.9365 O   0  0  0  0  0  0  0  0  0  0  0  0
   12.0646  -19.2286   25.3699 O   0  0  0  0  0  0  0  0  0  0  0  0
  2  1  1  6
  3  2  1  0
  4  5  1  6
  4  2  1  0
  6  4  1  0
  6  7  2  0
  8  6  1  0
  9  8  1  0
  9 12  1  0
  9 10  1  1
 11 10  1  0
 12 13  2  0
 12 14  1  0
 14 15  1  0
 15 21  1  0
 15 16  1  6
 16 17  1  0
 18 19  1  0
 18 17  1  0
 20 19  1  0
 21 22  2  0
 21 23  1  0
M  END
$$$$
