VCK.pdb
     RDKit          3D

 23 22  0  0  1  0  0  0  0  0999 V2000
    9.1246  -13.0819   19.6605 C   0  0  0  0  0  0  0  0  0  0  0  0
    7.6535  -13.3272   19.9763 C   0  0  2  0  0  0  0  0  0  0  0  0
    7.2009  -12.1357   20.7877 C   0  0  0  0  0  0  0  0  0  0  0  0
    7.6026  -14.5588   20.8849 C   0  0  2  0  0  0  0  0  0  0  0  0
    6.1705  -14.9341   21.0461 N   0  0  0  0  0  0  0  0  0  0  0  0
    8.1971  -14.3190   22.2116 C   0  0  0  0  0  0  0  0  0  0  0  0
    9.4700  -14.2704   22.2937 O   0  0  0  0  0  0  0  0  0  0  0  0
    7.4933  -14.1366   23.3968 N   0  0  0  0  0  0  0  0  0  0  0  0
    8.1014  -13.9318   24.6969 C   0  0  1  0  0  0  0  0  0  0  0  0
    7.1775  -13.1485   25.6218 C   0  0  0  0  0  0  0  0  0  0  0  0
    7.8762  -12.9502   27.2652 S   0  0  0  0  0  0  0  0  0  0  0  0
    8.3623  -15.2287   25.3758 C   0  0  0  0  0  0  0  0  0  0  0  0
    7.3685  -15.9317   25.6899 O   0  0  0  0  0  0  0  0  0  0  0  0
    9.6388  -15.7120   25.6848 N   0  0  0  0  0  0  0  0  0  0  0  0
    9.9175  -16.9707   26.3415 C   0  0  1  0  0  0  0  0  0  0  0  0
   11.0094  -17.6528   25.5124 C   0  0  0  0  0  0  0  0  0  0  0  0
   10.4391  -18.7861   24.6940 C   0  0  0  0  0  0  0  0  0  0  0  0
   11.5738  -19.4061   23.9183 C   0  0  0  0  0  0  0  0  0  0  0  0
   11.1145  -20.6249   23.1349 C   0  0  0  0  0  0  0  0  0  0  0  0
   12.2370  -21.0483   22.3181 N   0  0  0  0  0  0  0  0  0  0  0  0
   10.5307  -16.7442   27.6942 C   0  0  0  0  0  0  0  0  0  0  0  0
   10.9346  -15.6017   28.0309 O   0  0  0  0  0  0  0  0  0  0  0  0
   10.6698  -17.7734   28.6042 O   0  0  0  0  0  0  0  0  0  0  0  0
  2  1  1  1
  3  2  1  0
  4  5  1  1
  4  2  1  0
  6  4  1  0
  6  7  2  0
  8  6  1  0
  9  8  1  0
  9 12  1  0
  9 10  1  1
 11 10  1  0
 12 13  2  0
 12 14  1  0
 14 15  1  0
 15 21  1  0
 15 16  1  6
 16 17  1  0
 18 19  1  0
 18 17  1  0
 20 19  1  0
 21 22  2  0
 21 23  1  0
M  END
$$$$
