VCK.pdb
     RDKit          3D

 23 22  0  0  1  0  0  0  0  0999 V2000
    7.6577  -19.4168   17.6939 C   0  0  0  0  0  0  0  0  0  0  0  0
    6.4722  -19.3307   18.6485 C   0  0  2  0  0  0  0  0  0  0  0  0
    5.9058  -17.9402   18.4795 C   0  0  0  0  0  0  0  0  0  0  0  0
    7.0452  -19.4337   20.0648 C   0  0  2  0  0  0  0  0  0  0  0  0
    5.8972  -19.6036   20.9982 N   0  0  0  0  0  0  0  0  0  0  0  0
    7.8228  -18.2455   20.4579 C   0  0  0  0  0  0  0  0  0  0  0  0
    8.8661  -17.9649   19.7783 O   0  0  0  0  0  0  0  0  0  0  0  0
    7.5220  -17.3893   21.5114 N   0  0  0  0  0  0  0  0  0  0  0  0
    8.3490  -16.2762   21.9348 C   0  0  1  0  0  0  0  0  0  0  0  0
    7.5388  -15.2546   22.7238 C   0  0  0  0  0  0  0  0  0  0  0  0
    8.5808  -13.9925   23.4650 S   0  0  0  0  0  0  0  0  0  0  0  0
    9.4352  -16.7315   22.8424 C   0  0  0  0  0  0  0  0  0  0  0  0
    9.1001  -17.2385   23.9429 O   0  0  0  0  0  0  0  0  0  0  0  0
   10.7997  -16.6308   22.5484 N   0  0  0  0  0  0  0  0  0  0  0  0
   11.8723  -17.1080   23.3941 C   0  0  1  0  0  0  0  0  0  0  0  0
   12.7647  -17.9769   22.5032 C   0  0  0  0  0  0  0  0  0  0  0  0
   12.0225  -19.2010   22.0234 C   0  0  0  0  0  0  0  0  0  0  0  0
   12.9412  -19.9599   21.0995 C   0  0  0  0  0  0  0  0  0  0  0  0
   12.2759  -21.2139   20.5565 C   0  0  0  0  0  0  0  0  0  0  0  0
   13.2620  -21.8921   19.7353 N   0  0  0  0  0  0  0  0  0  0  0  0
   12.7467  -15.9714   23.8420 C   0  0  0  0  0  0  0  0  0  0  0  0
   12.6672  -14.8454   23.2872 O   0  0  0  0  0  0  0  0  0  0  0  0
   13.6580  -16.1237   24.8681 O   0  0  0  0  0  0  0  0  0  0  0  0
  2  1  1  6
  3  2  1  0
  4  5  1  1
  4  2  1  0
  6  4  1  0
  6  7  2  0
  8  6  1  0
  9  8  1  0
  9 12  1  0
  9 10  1  1
 11 10  1  0
 12 13  2  0
 12 14  1  0
 14 15  1  0
 15 21  1  0
 15 16  1  6
 16 17  1  0
 18 19  1  0
 18 17  1  0
 20 19  1  0
 21 22  2  0
 21 23  1  0
M  END
$$$$
