VCK.pdb
     RDKit          3D

 23 22  0  0  1  0  0  0  0  0999 V2000
    7.8447  -12.5435   20.3425 C   0  0  0  0  0  0  0  0  0  0  0  0
    8.3737  -13.4266   19.2181 C   0  0  2  0  0  0  0  0  0  0  0  0
    7.2939  -13.4413   18.1614 C   0  0  0  0  0  0  0  0  0  0  0  0
    8.4861  -14.8418   19.7921 C   0  0  2  0  0  0  0  0  0  0  0  0
    7.1105  -15.2885   20.1476 N   0  0  0  0  0  0  0  0  0  0  0  0
    9.3461  -14.9108   20.9865 C   0  0  0  0  0  0  0  0  0  0  0  0
   10.5794  -14.6112   20.8504 O   0  0  0  0  0  0  0  0  0  0  0  0
    8.9351  -15.2742   22.2641 N   0  0  0  0  0  0  0  0  0  0  0  0
    9.8157  -15.4172   23.4070 C   0  0  1  0  0  0  0  0  0  0  0  0
    9.1238  -14.9866   24.6949 C   0  0  0  0  0  0  0  0  0  0  0  0
    7.3490  -15.2593   24.6324 S   0  0  0  0  0  0  0  0  0  0  0  0
   10.2093  -16.8374   23.6049 C   0  0  0  0  0  0  0  0  0  0  0  0
    9.2952  -17.7006   23.6024 O   0  0  0  0  0  0  0  0  0  0  0  0
   11.5270  -17.2695   23.7925 N   0  0  0  0  0  0  0  0  0  0  0  0
   11.9407  -18.6493   23.9286 C   0  0  1  0  0  0  0  0  0  0  0  0
   12.8552  -18.9410   22.7355 C   0  0  0  0  0  0  0  0  0  0  0  0
   12.0914  -18.8599   21.4357 C   0  0  0  0  0  0  0  0  0  0  0  0
   13.0547  -19.1736   20.3189 C   0  0  0  0  0  0  0  0  0  0  0  0
   12.4376  -18.9034   18.9566 C   0  0  0  0  0  0  0  0  0  0  0  0
   13.4603  -19.1880   17.9668 N   0  0  0  0  0  0  0  0  0  0  0  0
   12.8050  -18.8313   25.1439 C   0  0  0  0  0  0  0  0  0  0  0  0
   13.2236  -17.8348   25.7870 O   0  0  0  0  0  0  0  0  0  0  0  0
   13.1651  -20.0872   25.5910 O   0  0  0  0  0  0  0  0  0  0  0  0
  2  1  1  1
  3  2  1  0
  4  5  1  1
  4  2  1  0
  6  4  1  0
  6  7  2  0
  8  6  1  0
  9  8  1  0
  9 12  1  0
  9 10  1  1
 11 10  1  0
 12 13  2  0
 12 14  1  0
 14 15  1  0
 15 21  1  0
 15 16  1  6
 16 17  1  0
 18 19  1  0
 18 17  1  0
 20 19  1  0
 21 22  2  0
 21 23  1  0
M  END
$$$$
