VCK.pdb
     RDKit          3D

 23 22  0  0  1  0  0  0  0  0999 V2000
    5.1701  -21.3453   24.5328 C   0  0  0  0  0  0  0  0  0  0  0  0
    6.2485  -20.3417   24.1406 C   0  0  2  0  0  0  0  0  0  0  0  0
    7.2244  -20.3120   25.2937 C   0  0  0  0  0  0  0  0  0  0  0  0
    5.5649  -18.9732   24.0706 C   0  0  2  0  0  0  0  0  0  0  0  0
    4.6204  -19.0058   22.9196 N   0  0  0  0  0  0  0  0  0  0  0  0
    6.5174  -17.8637   23.8897 C   0  0  0  0  0  0  0  0  0  0  0  0
    7.1703  -17.8120   22.7940 O   0  0  0  0  0  0  0  0  0  0  0  0
    6.7738  -16.8541   24.8108 N   0  0  0  0  0  0  0  0  0  0  0  0
    7.7612  -15.8068   24.6369 C   0  0  1  0  0  0  0  0  0  0  0  0
    7.6504  -14.7551   25.7342 C   0  0  0  0  0  0  0  0  0  0  0  0
    6.0321  -13.9750   25.7616 S   0  0  0  0  0  0  0  0  0  0  0  0
    9.1415  -16.3526   24.7262 C   0  0  0  0  0  0  0  0  0  0  0  0
    9.4383  -17.0206   25.7491 O   0  0  0  0  0  0  0  0  0  0  0  0
   10.1246  -16.1695   23.7472 N   0  0  0  0  0  0  0  0  0  0  0  0
   11.4395  -16.7730   23.7628 C   0  0  1  0  0  0  0  0  0  0  0  0
   11.9228  -16.7822   22.3098 C   0  0  0  0  0  0  0  0  0  0  0  0
   12.0088  -18.1922   21.7770 C   0  0  0  0  0  0  0  0  0  0  0  0
   12.3948  -18.1084   20.3218 C   0  0  0  0  0  0  0  0  0  0  0  0
   12.4483  -19.4842   19.6781 C   0  0  0  0  0  0  0  0  0  0  0  0
   12.8489  -19.2878   18.2969 N   0  0  0  0  0  0  0  0  0  0  0  0
   12.4182  -15.9038   24.5002 C   0  0  0  0  0  0  0  0  0  0  0  0
   13.6172  -16.2601   24.6333 O   0  0  0  0  0  0  0  0  0  0  0  0
   12.0375  -14.6963   25.0512 O   0  0  0  0  0  0  0  0  0  0  0  0
  2  1  1  1
  3  2  1  0
  4  5  1  6
  4  2  1  0
  6  4  1  0
  6  7  2  0
  8  6  1  0
  9  8  1  0
  9 12  1  0
  9 10  1  1
 11 10  1  0
 12 13  2  0
 12 14  1  0
 14 15  1  0
 15 21  1  0
 15 16  1  6
 16 17  1  0
 18 19  1  0
 18 17  1  0
 20 19  1  0
 21 22  2  0
 21 23  1  0
M  END
$$$$
