VCK.pdb
     RDKit          3D

 23 22  0  0  1  0  0  0  0  0999 V2000
    6.1494  -16.2922   22.4798 C   0  0  0  0  0  0  0  0  0  0  0  0
    7.1485  -15.8730   21.4074 C   0  0  2  0  0  0  0  0  0  0  0  0
    8.4022  -16.6726   21.6755 C   0  0  0  0  0  0  0  0  0  0  0  0
    7.4701  -14.3981   21.6645 C   0  0  2  0  0  0  0  0  0  0  0  0
    8.4117  -13.9555   20.5989 N   0  0  0  0  0  0  0  0  0  0  0  0
    8.0817  -14.1650   22.9845 C   0  0  0  0  0  0  0  0  0  0  0  0
    9.3176  -14.4506   23.1270 O   0  0  0  0  0  0  0  0  0  0  0  0
    7.4317  -13.6551   24.1029 N   0  0  0  0  0  0  0  0  0  0  0  0
    8.0635  -13.4014   25.3830 C   0  0  1  0  0  0  0  0  0  0  0  0
    7.1278  -12.6490   26.3216 C   0  0  0  0  0  0  0  0  0  0  0  0
    5.4328  -13.2317   26.1962 S   0  0  0  0  0  0  0  0  0  0  0  0
    8.4046  -14.6737   26.0727 C   0  0  0  0  0  0  0  0  0  0  0  0
    7.7817  -15.7092   25.7257 O   0  0  0  0  0  0  0  0  0  0  0  0
    9.3708  -14.7886   27.0786 N   0  0  0  0  0  0  0  0  0  0  0  0
    9.8043  -16.0309   27.6805 C   0  0  1  0  0  0  0  0  0  0  0  0
   10.9139  -16.5785   26.7784 C   0  0  0  0  0  0  0  0  0  0  0  0
   11.3555  -17.9484   27.2344 C   0  0  0  0  0  0  0  0  0  0  0  0
   12.4585  -18.4037   26.3127 C   0  0  0  0  0  0  0  0  0  0  0  0
   12.9583  -19.7906   26.6823 C   0  0  0  0  0  0  0  0  0  0  0  0
   13.8921  -20.1919   25.6461 N   0  0  0  0  0  0  0  0  0  0  0  0
   10.4606  -15.7815   29.0086 C   0  0  0  0  0  0  0  0  0  0  0  0
   10.7407  -14.6112   29.3747 O   0  0  0  0  0  0  0  0  0  0  0  0
   10.7752  -16.8192   29.8636 O   0  0  0  0  0  0  0  0  0  0  0  0
  2  1  1  1
  3  2  1  0
  4  5  1  6
  4  2  1  0
  6  4  1  0
  6  7  2  0
  8  6  1  0
  9  8  1  0
  9 12  1  0
  9 10  1  1
 11 10  1  0
 12 13  2  0
 12 14  1  0
 14 15  1  0
 15 21  1  0
 15 16  1  6
 16 17  1  0
 18 19  1  0
 18 17  1  0
 20 19  1  0
 21 22  2  0
 21 23  1  0
M  END
$$$$
