VCK.pdb
     RDKit          3D

 23 22  0  0  1  0  0  0  0  0999 V2000
    7.9897  -16.1181   20.7050 C   0  0  0  0  0  0  0  0  0  0  0  0
    6.9352  -15.0209   20.7969 C   0  0  2  0  0  0  0  0  0  0  0  0
    6.4546  -14.7903   19.3832 C   0  0  0  0  0  0  0  0  0  0  0  0
    7.6636  -13.7545   21.2560 C   0  0  2  0  0  0  0  0  0  0  0  0
    8.7321  -13.4692   20.2586 N   0  0  0  0  0  0  0  0  0  0  0  0
    8.2674  -13.8917   22.5930 C   0  0  0  0  0  0  0  0  0  0  0  0
    9.4617  -14.3365   22.6643 O   0  0  0  0  0  0  0  0  0  0  0  0
    7.6516  -13.5765   23.7992 N   0  0  0  0  0  0  0  0  0  0  0  0
    8.2239  -13.8205   25.1088 C   0  0  1  0  0  0  0  0  0  0  0  0
    7.3353  -13.2608   26.2131 C   0  0  0  0  0  0  0  0  0  0  0  0
    5.5907  -13.5295   25.8781 S   0  0  0  0  0  0  0  0  0  0  0  0
    8.3462  -15.2780   25.3762 C   0  0  0  0  0  0  0  0  0  0  0  0
    7.4789  -16.0369   24.8735 O   0  0  0  0  0  0  0  0  0  0  0  0
    9.3613  -15.8536   26.1486 N   0  0  0  0  0  0  0  0  0  0  0  0
    9.4974  -17.2667   26.4276 C   0  0  1  0  0  0  0  0  0  0  0  0
   10.4895  -17.8124   25.3967 C   0  0  0  0  0  0  0  0  0  0  0  0
   10.7127  -19.2929   25.5911 C   0  0  0  0  0  0  0  0  0  0  0  0
   11.6586  -19.7582   24.5130 C   0  0  0  0  0  0  0  0  0  0  0  0
   11.8467  -21.2660   24.5478 C   0  0  0  0  0  0  0  0  0  0  0  0
   12.7340  -21.6052   23.4503 N   0  0  0  0  0  0  0  0  0  0  0  0
   10.1510  -17.4881   27.7620 C   0  0  0  0  0  0  0  0  0  0  0  0
   10.8078  -16.5682   28.3138 O   0  0  0  0  0  0  0  0  0  0  0  0
   10.0534  -18.6977   28.4209 O   0  0  0  0  0  0  0  0  0  0  0  0
  2  1  1  6
  3  2  1  0
  4  5  1  6
  4  2  1  0
  6  4  1  0
  6  7  2  0
  8  6  1  0
  9  8  1  0
  9 12  1  0
  9 10  1  1
 11 10  1  0
 12 13  2  0
 12 14  1  0
 14 15  1  0
 15 21  1  0
 15 16  1  6
 16 17  1  0
 18 19  1  0
 18 17  1  0
 20 19  1  0
 21 22  2  0
 21 23  1  0
M  END
$$$$
