VCK.pdb
     RDKit          3D

 23 22  0  0  1  0  0  0  0  0999 V2000
    7.3951  -12.3602   20.6907 C   0  0  0  0  0  0  0  0  0  0  0  0
    8.2077  -13.3538   19.8681 C   0  0  2  0  0  0  0  0  0  0  0  0
    7.4812  -13.4908   18.5504 C   0  0  0  0  0  0  0  0  0  0  0  0
    8.1163  -14.6984   20.5950 C   0  0  2  0  0  0  0  0  0  0  0  0
    6.6789  -15.0864   20.6344 N   0  0  0  0  0  0  0  0  0  0  0  0
    8.6460  -14.6461   21.9689 C   0  0  0  0  0  0  0  0  0  0  0  0
    9.9132  -14.6118   22.1176 O   0  0  0  0  0  0  0  0  0  0  0  0
    7.8858  -14.6284   23.1330 N   0  0  0  0  0  0  0  0  0  0  0  0
    8.4252  -14.7305   24.4749 C   0  0  1  0  0  0  0  0  0  0  0  0
    7.4043  -14.2872   25.5160 C   0  0  0  0  0  0  0  0  0  0  0  0
    6.8313  -12.6087   25.2287 S   0  0  0  0  0  0  0  0  0  0  0  0
    8.7693  -16.1383   24.8076 C   0  0  0  0  0  0  0  0  0  0  0  0
    7.8585  -16.9992   24.7084 O   0  0  0  0  0  0  0  0  0  0  0  0
   10.0373  -16.5612   25.2218 N   0  0  0  0  0  0  0  0  0  0  0  0
   10.4186  -17.9348   25.4693 C   0  0  1  0  0  0  0  0  0  0  0  0
   10.5400  -18.5990   24.0949 C   0  0  0  0  0  0  0  0  0  0  0  0
   11.4837  -17.8286   23.2030 C   0  0  0  0  0  0  0  0  0  0  0  0
   11.7155  -18.6530   21.9620 C   0  0  0  0  0  0  0  0  0  0  0  0
   12.7600  -18.0197   21.0578 C   0  0  0  0  0  0  0  0  0  0  0  0
   12.8598  -18.8584   19.8774 N   0  0  0  0  0  0  0  0  0  0  0  0
   11.7946  -18.0086   26.0678 C   0  0  0  0  0  0  0  0  0  0  0  0
   12.3200  -19.1209   26.3299 O   0  0  0  0  0  0  0  0  0  0  0  0
   12.5214  -16.8683   26.3473 O   0  0  0  0  0  0  0  0  0  0  0  0
  2  1  1  1
  3  2  1  0
  4  5  1  1
  4  2  1  0
  6  4  1  0
  6  7  2  0
  8  6  1  0
  9  8  1  0
  9 12  1  0
  9 10  1  1
 11 10  1  0
 12 13  2  0
 12 14  1  0
 14 15  1  0
 15 21  1  0
 15 16  1  6
 16 17  1  0
 18 19  1  0
 18 17  1  0
 20 19  1  0
 21 22  2  0
 21 23  1  0
M  END
$$$$
