HGT.pdb
     RDKit          3D

 22 22  0  0  1  0  0  0  0  0999 V2000
   21.5833   -7.4705  -17.4192 N   0  0  0  0  0  0  0  0  0  0  0  0
   22.3601   -8.4983  -16.7626 C   0  0  1  0  0  0  0  0  0  0  0  0
   22.1232   -8.4785  -15.2701 C   0  0  0  0  0  0  0  0  0  0  0  0
   22.1815   -7.0424  -14.8216 C   0  0  0  0  0  0  0  0  0  0  0  0
   22.9606   -6.0570  -15.3783 C   0  0  0  0  0  0  0  0  0  0  0  0
   22.7110   -4.9379  -14.6836 N   0  0  0  0  0  0  0  0  0  0  0  0
   21.8090   -5.1835  -13.7169 C   0  0  0  0  0  0  0  0  0  0  0  0
   21.4989   -6.4764  -13.8194 N   0  0  0  0  0  0  0  0  0  0  0  0
   22.0661   -9.8249  -17.3499 C   0  0  0  0  0  0  0  0  0  0  0  0
   22.6668  -10.8147  -16.8859 O   0  0  0  0  0  0  0  0  0  0  0  0
   21.1310   -9.9673  -18.4070 N   0  0  0  0  0  0  0  0  0  0  0  0
   20.8585  -11.2457  -18.9853 C   0  0  0  0  0  0  0  0  0  0  0  0
   19.6196  -11.8653  -18.4817 C   0  0  0  0  0  0  0  0  0  0  0  0
   19.2283  -12.9532  -18.9756 O   0  0  0  0  0  0  0  0  0  0  0  0
   18.8670  -13.1178  -15.1884 C   0  0  0  0  0  0  0  0  0  0  0  0
   17.7527  -12.1167  -15.4587 C   0  0  1  0  0  0  0  0  0  0  0  0
   18.0688  -10.9050  -14.8696 O   0  0  0  0  0  0  0  0  0  0  0  0
   17.6117  -11.9521  -16.9659 C   0  0  2  0  0  0  0  0  0  0  0  0
   18.8228  -11.2990  -17.4515 N   0  0  0  0  0  0  0  0  0  0  0  0
   16.4220  -11.1057  -17.2277 C   0  0  0  0  0  0  0  0  0  0  0  0
   16.6002   -9.9440  -17.6663 O   0  0  0  0  0  0  0  0  0  0  0  0
   15.1225  -11.5288  -17.0140 O   0  0  0  0  0  0  0  0  0  0  0  0
  2  1  1  6
  3  2  1  0
  3  4  1  0
  4  5  2  0
  5  6  1  0
  7  6  1  0
  8  4  1  0
  8  7  2  0
  9  2  1  0
  9 10  2  0
 11  9  1  0
 12 11  1  0
 12 13  1  0
 13 19  1  0
 14 13  2  0
 16 15  1  6
 16 17  1  0
 18 16  1  0
 18 20  1  0
 18 19  1  1
 20 22  1  0
 21 20  2  0
M  END
$$$$
