HGT.pdb
     RDKit          3D

 22 22  0  0  1  0  0  0  0  0999 V2000
   14.9128  -18.1055    4.6192 N   0  0  0  0  0  0  0  0  0  0  0  0
   16.2484  -18.5889    4.8905 C   0  0  1  0  0  0  0  0  0  0  0  0
   16.9197  -19.0525    3.6183 C   0  0  0  0  0  0  0  0  0  0  0  0
   16.5262  -20.4887    3.3963 C   0  0  0  0  0  0  0  0  0  0  0  0
   15.3123  -20.9262    2.9240 C   0  0  0  0  0  0  0  0  0  0  0  0
   15.3825  -22.2643    2.8787 N   0  0  0  0  0  0  0  0  0  0  0  0
   16.5890  -22.6801    3.3029 C   0  0  0  0  0  0  0  0  0  0  0  0
   17.2722  -21.5781    3.6143 N   0  0  0  0  0  0  0  0  0  0  0  0
   17.0432  -17.5525    5.5871 C   0  0  0  0  0  0  0  0  0  0  0  0
   16.6524  -16.3702    5.5143 O   0  0  0  0  0  0  0  0  0  0  0  0
   18.2125  -17.8919    6.3149 N   0  0  0  0  0  0  0  0  0  0  0  0
   18.9328  -16.9058    7.0577 C   0  0  0  0  0  0  0  0  0  0  0  0
   20.1370  -17.4357    7.7222 C   0  0  0  0  0  0  0  0  0  0  0  0
   20.4101  -18.6588    7.6218 O   0  0  0  0  0  0  0  0  0  0  0  0
   22.4092  -15.1370   10.4453 C   0  0  0  0  0  0  0  0  0  0  0  0
   23.1456  -16.0073    9.4368 C   0  0  1  0  0  0  0  0  0  0  0  0
   24.3273  -16.4615    9.9960 O   0  0  0  0  0  0  0  0  0  0  0  0
   22.2473  -17.1812    9.0708 C   0  0  2  0  0  0  0  0  0  0  0  0
   21.0275  -16.6347    8.4853 N   0  0  0  0  0  0  0  0  0  0  0  0
   21.9390  -17.9305   10.3133 C   0  0  0  0  0  0  0  0  0  0  0  0
   20.9374  -17.5864   10.9855 O   0  0  0  0  0  0  0  0  0  0  0  0
   22.6984  -18.9916   10.7727 O   0  0  0  0  0  0  0  0  0  0  0  0
  2  1  1  6
  3  2  1  0
  3  4  1  0
  4  5  2  0
  5  6  1  0
  7  6  1  0
  8  4  1  0
  8  7  2  0
  9  2  1  0
  9 10  2  0
 11  9  1  0
 12 11  1  0
 12 13  1  0
 13 19  1  0
 14 13  2  0
 16 15  1  1
 16 17  1  0
 18 16  1  0
 18 20  1  0
 18 19  1  1
 20 22  1  0
 21 20  2  0
M  END
$$$$
