HGT.pdb
     RDKit          3D

 22 22  0  0  1  0  0  0  0  0999 V2000
   23.7313  -20.0178  -17.9941 N   0  0  0  0  0  0  0  0  0  0  0  0
   23.9306  -19.9119  -16.5658 C   0  0  1  0  0  0  0  0  0  0  0  0
   22.9087  -20.7379  -15.8191 C   0  0  0  0  0  0  0  0  0  0  0  0
   21.5687  -20.0774  -16.0061 C   0  0  0  0  0  0  0  0  0  0  0  0
   20.5407  -20.5504  -16.7854 C   0  0  0  0  0  0  0  0  0  0  0  0
   19.5397  -19.6659  -16.6712 N   0  0  0  0  0  0  0  0  0  0  0  0
   19.8999  -18.6609  -15.8533 C   0  0  0  0  0  0  0  0  0  0  0  0
   21.1442  -18.9327  -15.4581 N   0  0  0  0  0  0  0  0  0  0  0  0
   25.3154  -20.2912  -16.2061 C   0  0  0  0  0  0  0  0  0  0  0  0
   26.1109  -20.5438  -17.1330 O   0  0  0  0  0  0  0  0  0  0  0  0
   25.7261  -20.3655  -14.8503 N   0  0  0  0  0  0  0  0  0  0  0  0
   26.9557  -19.7791  -14.4176 C   0  0  0  0  0  0  0  0  0  0  0  0
   27.1679  -19.8687  -12.9618 C   0  0  0  0  0  0  0  0  0  0  0  0
   28.0222  -19.1257  -12.4153 O   0  0  0  0  0  0  0  0  0  0  0  0
   24.6179  -18.5535  -11.9794 C   0  0  0  0  0  0  0  0  0  0  0  0
   24.4952  -19.7957  -11.1084 C   0  0  1  0  0  0  0  0  0  0  0  0
   23.7323  -20.7455  -11.7651 O   0  0  0  0  0  0  0  0  0  0  0  0
   25.8945  -20.3332  -10.8405 C   0  0  2  0  0  0  0  0  0  0  0  0
   26.4529  -20.7607  -12.1190 N   0  0  0  0  0  0  0  0  0  0  0  0
   25.7762  -21.4840   -9.9122 C   0  0  0  0  0  0  0  0  0  0  0  0
   26.0763  -22.6262  -10.3354 O   0  0  0  0  0  0  0  0  0  0  0  0
   25.3517  -21.3662   -8.6009 O   0  0  0  0  0  0  0  0  0  0  0  0
  2  1  1  6
  3  2  1  0
  3  4  1  0
  4  5  2  0
  5  6  1  0
  7  6  1  0
  8  4  1  0
  8  7  2  0
  9  2  1  0
  9 10  2  0
 11  9  1  0
 12 11  1  0
 12 13  1  0
 13 19  1  0
 14 13  2  0
 16 15  1  6
 16 17  1  0
 18 16  1  0
 18 20  1  0
 18 19  1  6
 20 22  1  0
 21 20  2  0
M  END
$$$$
