HGT.pdb
     RDKit          3D

 22 22  0  0  1  0  0  0  0  0999 V2000
   19.0479  -12.5562  -15.8986 N   0  0  0  0  0  0  0  0  0  0  0  0
   17.7977  -11.9392  -16.2822 C   0  0  1  0  0  0  0  0  0  0  0  0
   16.6759  -12.3924  -15.3765 C   0  0  0  0  0  0  0  0  0  0  0  0
   16.5347  -13.8823  -15.5415 C   0  0  0  0  0  0  0  0  0  0  0  0
   15.9203  -14.5205  -16.5918 C   0  0  0  0  0  0  0  0  0  0  0  0
   16.0169  -15.8349  -16.3463 N   0  0  0  0  0  0  0  0  0  0  0  0
   16.6658  -16.0437  -15.1870 C   0  0  0  0  0  0  0  0  0  0  0  0
   16.9733  -14.8363  -14.7118 N   0  0  0  0  0  0  0  0  0  0  0  0
   17.9310  -10.4651  -16.2994 C   0  0  0  0  0  0  0  0  0  0  0  0
   17.0170   -9.8026  -16.8299 O   0  0  0  0  0  0  0  0  0  0  0  0
   19.0620   -9.8249  -15.7309 N   0  0  0  0  0  0  0  0  0  0  0  0
   19.1690   -8.3999  -15.7046 C   0  0  0  0  0  0  0  0  0  0  0  0
   20.4297   -7.9171  -15.1131 C   0  0  0  0  0  0  0  0  0  0  0  0
   21.2365   -8.7447  -14.6184 O   0  0  0  0  0  0  0  0  0  0  0  0
   22.9342   -5.9044  -16.8501 C   0  0  0  0  0  0  0  0  0  0  0  0
   22.6948   -5.1485  -15.5508 C   0  0  1  0  0  0  0  0  0  0  0  0
   21.8323   -4.0918  -15.7846 O   0  0  0  0  0  0  0  0  0  0  0  0
   22.0891   -6.1129  -14.5400 C   0  0  2  0  0  0  0  0  0  0  0  0
   20.7987   -6.5465  -15.0655 N   0  0  0  0  0  0  0  0  0  0  0  0
   21.9131   -5.3869  -13.2586 C   0  0  0  0  0  0  0  0  0  0  0  0
   20.7630   -4.9943  -12.9475 O   0  0  0  0  0  0  0  0  0  0  0  0
   22.9514   -5.1181  -12.3849 O   0  0  0  0  0  0  0  0  0  0  0  0
  2  1  1  1
  3  2  1  0
  3  4  1  0
  4  5  2  0
  5  6  1  0
  7  6  1  0
  8  4  1  0
  8  7  2  0
  9  2  1  0
  9 10  2  0
 11  9  1  0
 12 11  1  0
 12 13  1  0
 13 19  1  0
 14 13  2  0
 16 15  1  6
 16 17  1  0
 18 16  1  0
 18 20  1  0
 18 19  1  6
 20 22  1  0
 21 20  2  0
M  END
$$$$
