HGT.pdb
     RDKit          3D

 22 22  0  0  1  0  0  0  0  0999 V2000
   16.9032  -14.7885  -19.3021 N   0  0  0  0  0  0  0  0  0  0  0  0
   16.7330  -13.4613  -18.7540 C   0  0  1  0  0  0  0  0  0  0  0  0
   15.4252  -13.3545  -18.0040 C   0  0  0  0  0  0  0  0  0  0  0  0
   15.4337  -14.4069  -16.9273 C   0  0  0  0  0  0  0  0  0  0  0  0
   15.8751  -14.2346  -15.6376 C   0  0  0  0  0  0  0  0  0  0  0  0
   15.7078  -15.4119  -15.0186 N   0  0  0  0  0  0  0  0  0  0  0  0
   15.1804  -16.3116  -15.8677 C   0  0  0  0  0  0  0  0  0  0  0  0
   15.0210  -15.6759  -17.0290 N   0  0  0  0  0  0  0  0  0  0  0  0
   17.8882  -13.1003  -17.9018 C   0  0  0  0  0  0  0  0  0  0  0  0
   18.6693  -14.0111  -17.5611 O   0  0  0  0  0  0  0  0  0  0  0  0
   18.1013  -11.7611  -17.4852 N   0  0  0  0  0  0  0  0  0  0  0  0
   19.1940  -11.4184  -16.6298 C   0  0  0  0  0  0  0  0  0  0  0  0
   19.2184   -9.9941  -16.2515 C   0  0  0  0  0  0  0  0  0  0  0  0
   18.3936   -9.2021  -16.7741 O   0  0  0  0  0  0  0  0  0  0  0  0
   19.8508   -6.6437  -12.8527 C   0  0  0  0  0  0  0  0  0  0  0  0
   19.9844   -8.0789  -13.3418 C   0  0  1  0  0  0  0  0  0  0  0  0
   18.8958   -8.8162  -12.9099 O   0  0  0  0  0  0  0  0  0  0  0  0
   20.0434   -8.0630  -14.8633 C   0  0  2  0  0  0  0  0  0  0  0  0
   20.1344   -9.4479  -15.3136 N   0  0  0  0  0  0  0  0  0  0  0  0
   21.2501   -7.3021  -15.2698 C   0  0  0  0  0  0  0  0  0  0  0  0
   22.3430   -7.9127  -15.3484 O   0  0  0  0  0  0  0  0  0  0  0  0
   21.2359   -5.9513  -15.5678 O   0  0  0  0  0  0  0  0  0  0  0  0
  2  1  1  1
  3  2  1  0
  3  4  1  0
  4  5  2  0
  5  6  1  0
  7  6  1  0
  8  4  1  0
  8  7  2  0
  9  2  1  0
  9 10  2  0
 11  9  1  0
 12 11  1  0
 12 13  1  0
 13 19  1  0
 14 13  2  0
 16 15  1  6
 16 17  1  0
 18 16  1  0
 18 20  1  0
 18 19  1  1
 20 22  1  0
 21 20  2  0
M  END
$$$$
