HGT.pdb
     RDKit          3D

 22 22  0  0  1  0  0  0  0  0999 V2000
   21.2570  -25.9367  -17.6446 N   0  0  0  0  0  0  0  0  0  0  0  0
   21.2448  -24.6212  -17.0446 C   0  0  1  0  0  0  0  0  0  0  0  0
   20.0612  -23.8193  -17.5346 C   0  0  0  0  0  0  0  0  0  0  0  0
   20.2375  -23.6106  -19.0152 C   0  0  0  0  0  0  0  0  0  0  0  0
   21.0325  -22.6570  -19.6039 C   0  0  0  0  0  0  0  0  0  0  0  0
   20.9008  -22.8179  -20.9283 N   0  0  0  0  0  0  0  0  0  0  0  0
   20.0570  -23.8317  -21.1908 C   0  0  0  0  0  0  0  0  0  0  0  0
   19.6634  -24.3020  -20.0067 N   0  0  0  0  0  0  0  0  0  0  0  0
   21.2675  -24.7246  -15.5682 C   0  0  0  0  0  0  0  0  0  0  0  0
   21.3129  -23.6664  -14.9096 O   0  0  0  0  0  0  0  0  0  0  0  0
   21.2385  -25.9869  -14.9215 N   0  0  0  0  0  0  0  0  0  0  0  0
   21.3365  -26.0910  -13.4994 C   0  0  0  0  0  0  0  0  0  0  0  0
   20.2038  -26.8057  -12.8841 C   0  0  0  0  0  0  0  0  0  0  0  0
   19.1683  -27.0227  -13.5632 O   0  0  0  0  0  0  0  0  0  0  0  0
   18.3227  -29.2726   -9.0063 C   0  0  0  0  0  0  0  0  0  0  0  0
   19.4655  -28.4459   -9.5784 C   0  0  1  0  0  0  0  0  0  0  0  0
   20.6035  -29.2289   -9.6629 O   0  0  0  0  0  0  0  0  0  0  0  0
   19.0565  -27.9551  -10.9607 C   0  0  2  0  0  0  0  0  0  0  0  0
   20.2084  -27.2749  -11.5437 N   0  0  0  0  0  0  0  0  0  0  0  0
   17.9220  -27.0134  -10.7983 C   0  0  0  0  0  0  0  0  0  0  0  0
   18.1593  -25.8622  -10.3599 O   0  0  0  0  0  0  0  0  0  0  0  0
   16.6123  -27.3364  -11.1048 O   0  0  0  0  0  0  0  0  0  0  0  0
  2  1  1  6
  3  2  1  0
  3  4  1  0
  4  5  2  0
  5  6  1  0
  7  6  1  0
  8  4  1  0
  8  7  2  0
  9  2  1  0
  9 10  2  0
 11  9  1  0
 12 11  1  0
 12 13  1  0
 13 19  1  0
 14 13  2  0
 16 15  1  6
 16 17  1  0
 18 16  1  0
 18 20  1  0
 18 19  1  1
 20 22  1  0
 21 20  2  0
M  END
$$$$
