CGR.pdb
     RDKit          3D

 22 21  0  0  1  0  0  0  0  0999 V2000
    7.8946  -15.5113   17.6035 N   0  0  0  0  0  0  0  0  0  0  0  0
    8.6594  -14.3073   17.8367 C   0  0  1  0  0  0  0  0  0  0  0  0
    8.3241  -13.2433   16.8028 C   0  0  0  0  0  0  0  0  0  0  0  0
    8.4600  -13.9797   15.1459 S   0  0  0  0  0  0  0  0  0  0  0  0
    8.3932  -13.8295   19.2084 C   0  0  0  0  0  0  0  0  0  0  0  0
    9.1562  -12.9758   19.7188 O   0  0  0  0  0  0  0  0  0  0  0  0
    7.2813  -14.3452   19.9195 N   0  0  0  0  0  0  0  0  0  0  0  0
    7.0537  -13.9014   21.2792 C   0  0  0  0  0  0  0  0  0  0  0  0
    7.5174  -14.9458   22.2505 C   0  0  0  0  0  0  0  0  0  0  0  0
    6.9964  -16.1051   22.2132 O   0  0  0  0  0  0  0  0  0  0  0  0
   13.9788  -16.7651   19.2443 N   0  0  0  0  0  0  0  0  0  0  0  0
   13.1077  -15.7924   19.7998 C   0  0  0  0  0  0  0  0  0  0  0  0
   13.0958  -14.5878   19.3360 N   0  0  0  0  0  0  0  0  0  0  0  0
   12.2192  -16.0866   20.8740 N   0  0  0  0  0  0  0  0  0  0  0  0
   12.6680  -16.5778   22.1386 C   0  0  0  0  0  0  0  0  0  0  0  0
   11.5886  -16.7799   23.1539 C   0  0  0  0  0  0  0  0  0  0  0  0
   10.8149  -15.5386   23.4844 C   0  0  0  0  0  0  0  0  0  0  0  0
    9.3654  -15.7741   23.7409 C   0  0  2  0  0  0  0  0  0  0  0  0
    8.5193  -14.7161   23.2257 N   0  0  0  0  0  0  0  0  0  0  0  0
    9.1804  -15.8089   25.2344 C   0  0  0  0  0  0  0  0  0  0  0  0
    8.7402  -14.8133   25.8727 O   0  0  0  0  0  0  0  0  0  0  0  0
    9.4944  -16.9468   25.9360 O   0  0  0  0  0  0  0  0  0  0  0  0
  2  1  1  6
  2  5  1  0
  2  3  1  0
  4  3  1  0
  5  6  2  0
  7  5  1  0
  7  8  1  0
  8  9  1  0
  9 19  1  0
  9 10  2  0
 11 12  1  0
 12 13  2  0
 14 12  1  0
 14 15  1  0
 16 17  1  0
 16 15  1  0
 18 17  1  1
 18 20  1  0
 19 18  1  0
 20 22  1  0
 21 20  2  0
M  END
$$$$
