CGR.pdb
     RDKit          3D

 22 21  0  0  1  0  0  0  0  0999 V2000
    7.8214  -14.1537   18.4059 N   0  0  0  0  0  0  0  0  0  0  0  0
    8.5191  -14.0390   19.6664 C   0  0  1  0  0  0  0  0  0  0  0  0
    8.1404  -12.7504   20.3803 C   0  0  0  0  0  0  0  0  0  0  0  0
    8.6354  -11.3430   19.3410 S   0  0  0  0  0  0  0  0  0  0  0  0
    8.2125  -15.2238   20.4927 C   0  0  0  0  0  0  0  0  0  0  0  0
    7.0738  -15.7429   20.4210 O   0  0  0  0  0  0  0  0  0  0  0  0
    9.2113  -15.7498   21.3494 N   0  0  0  0  0  0  0  0  0  0  0  0
    8.9250  -16.9549   22.1000 C   0  0  0  0  0  0  0  0  0  0  0  0
    8.6475  -16.6189   23.5350 C   0  0  0  0  0  0  0  0  0  0  0  0
    8.3701  -15.4188   23.8505 O   0  0  0  0  0  0  0  0  0  0  0  0
    7.0666  -23.0437   23.9086 N   0  0  0  0  0  0  0  0  0  0  0  0
    6.1407  -22.6074   24.8915 C   0  0  0  0  0  0  0  0  0  0  0  0
    5.3358  -23.4495   25.4475 N   0  0  0  0  0  0  0  0  0  0  0  0
    6.0525  -21.2478   25.3084 N   0  0  0  0  0  0  0  0  0  0  0  0
    7.1415  -20.5519   25.9179 C   0  0  0  0  0  0  0  0  0  0  0  0
    6.8569  -19.1276   26.2745 C   0  0  0  0  0  0  0  0  0  0  0  0
    8.0412  -18.3788   26.8087 C   0  0  0  0  0  0  0  0  0  0  0  0
    8.4589  -17.2199   25.9693 C   0  0  2  0  0  0  0  0  0  0  0  0
    8.6759  -17.5745   24.5808 N   0  0  0  0  0  0  0  0  0  0  0  0
    9.7719  -16.7275   26.5167 C   0  0  0  0  0  0  0  0  0  0  0  0
   10.8218  -16.7180   25.8167 O   0  0  0  0  0  0  0  0  0  0  0  0
    9.8461  -16.2734   27.8105 O   0  0  0  0  0  0  0  0  0  0  0  0
  2  1  1  6
  2  5  1  0
  2  3  1  0
  4  3  1  0
  5  6  2  0
  7  5  1  0
  7  8  1  0
  8  9  1  0
  9 19  1  0
  9 10  2  0
 11 12  1  0
 12 13  2  0
 14 12  1  0
 14 15  1  0
 16 17  1  0
 16 15  1  0
 18 17  1  1
 18 20  1  0
 19 18  1  0
 20 22  1  0
 21 20  2  0
M  END
$$$$
