CGR.pdb
     RDKit          3D

 22 21  0  0  1  0  0  0  0  0999 V2000
    1.3210  -21.7817   23.1242 N   0  0  0  0  0  0  0  0  0  0  0  0
    0.5376  -20.6719   22.6307 C   0  0  1  0  0  0  0  0  0  0  0  0
   -0.3955  -20.1447   23.7100 C   0  0  0  0  0  0  0  0  0  0  0  0
   -1.3069  -21.5458   24.4256 S   0  0  0  0  0  0  0  0  0  0  0  0
    1.4521  -19.6185   22.1464 C   0  0  0  0  0  0  0  0  0  0  0  0
    0.9730  -18.5639   21.6670 O   0  0  0  0  0  0  0  0  0  0  0  0
    2.8519  -19.8208   22.2333 N   0  0  0  0  0  0  0  0  0  0  0  0
    3.7396  -18.7997   21.7165 C   0  0  0  0  0  0  0  0  0  0  0  0
    4.9308  -18.6447   22.6143 C   0  0  0  0  0  0  0  0  0  0  0  0
    5.6740  -19.6512   22.8412 O   0  0  0  0  0  0  0  0  0  0  0  0
    8.9579  -13.6161   18.2564 N   0  0  0  0  0  0  0  0  0  0  0  0
    9.1560  -12.8110   19.4081 C   0  0  0  0  0  0  0  0  0  0  0  0
    9.7402  -11.6642   19.3086 N   0  0  0  0  0  0  0  0  0  0  0  0
    8.7298  -13.2157   20.7060 N   0  0  0  0  0  0  0  0  0  0  0  0
    8.2416  -14.5289   20.9870 C   0  0  0  0  0  0  0  0  0  0  0  0
    7.8835  -14.7738   22.4183 C   0  0  0  0  0  0  0  0  0  0  0  0
    6.5395  -15.4086   22.6161 C   0  0  0  0  0  0  0  0  0  0  0  0
    6.5964  -16.8215   23.0881 C   0  0  2  0  0  0  0  0  0  0  0  0
    5.2860  -17.4227   23.2373 N   0  0  0  0  0  0  0  0  0  0  0  0
    7.2408  -16.8080   24.4485 C   0  0  0  0  0  0  0  0  0  0  0  0
    6.5618  -16.9185   25.5064 O   0  0  0  0  0  0  0  0  0  0  0  0
    8.6028  -16.6722   24.5586 O   0  0  0  0  0  0  0  0  0  0  0  0
  2  1  1  1
  2  5  1  0
  2  3  1  0
  4  3  1  0
  5  6  2  0
  7  5  1  0
  7  8  1  0
  8  9  1  0
  9 19  1  0
  9 10  2  0
 11 12  1  0
 12 13  2  0
 14 12  1  0
 14 15  1  0
 16 17  1  0
 16 15  1  0
 18 17  1  1
 18 20  1  0
 19 18  1  0
 20 22  1  0
 21 20  2  0
M  END
$$$$
