CGR.pdb
     RDKit          3D

 22 21  0  0  1  0  0  0  0  0999 V2000
    8.8794  -14.8260   16.9236 N   0  0  0  0  0  0  0  0  0  0  0  0
    8.8137  -13.8870   18.0204 C   0  0  1  0  0  0  0  0  0  0  0  0
    7.7799  -12.8054   17.7468 C   0  0  0  0  0  0  0  0  0  0  0  0
    7.7391  -11.6684   19.1651 S   0  0  0  0  0  0  0  0  0  0  0  0
    8.5081  -14.6235   19.2632 C   0  0  0  0  0  0  0  0  0  0  0  0
    8.5966  -14.0309   20.3643 O   0  0  0  0  0  0  0  0  0  0  0  0
    8.1210  -15.9846   19.1862 N   0  0  0  0  0  0  0  0  0  0  0  0
    7.6837  -16.6566   20.3922 C   0  0  0  0  0  0  0  0  0  0  0  0
    8.7829  -16.6597   21.4124 C   0  0  0  0  0  0  0  0  0  0  0  0
    9.9893  -16.5438   21.0274 O   0  0  0  0  0  0  0  0  0  0  0  0
    9.5540  -13.8643   29.8587 N   0  0  0  0  0  0  0  0  0  0  0  0
   10.5834  -14.8266   29.6910 C   0  0  0  0  0  0  0  0  0  0  0  0
   11.4277  -15.0497   30.6416 N   0  0  0  0  0  0  0  0  0  0  0  0
   10.7361  -15.5815   28.4923 N   0  0  0  0  0  0  0  0  0  0  0  0
    9.8315  -15.4784   27.3910 C   0  0  0  0  0  0  0  0  0  0  0  0
   10.1970  -16.3024   26.1976 C   0  0  0  0  0  0  0  0  0  0  0  0
    9.1187  -16.3940   25.1596 C   0  0  0  0  0  0  0  0  0  0  0  0
    9.6194  -16.6735   23.7836 C   0  0  2  0  0  0  0  0  0  0  0  0
    8.5560  -16.7861   22.8053 N   0  0  0  0  0  0  0  0  0  0  0  0
   10.3269  -18.0014   23.8315 C   0  0  0  0  0  0  0  0  0  0  0  0
    9.7500  -19.0738   23.5005 O   0  0  0  0  0  0  0  0  0  0  0  0
   11.6350  -18.0647   24.2445 O   0  0  0  0  0  0  0  0  0  0  0  0
  2  1  1  6
  2  5  1  0
  2  3  1  0
  4  3  1  0
  5  6  2  0
  7  5  1  0
  7  8  1  0
  8  9  1  0
  9 19  1  0
  9 10  2  0
 11 12  1  0
 12 13  2  0
 14 12  1  0
 14 15  1  0
 16 17  1  0
 16 15  1  0
 18 17  1  1
 18 20  1  0
 19 18  1  0
 20 22  1  0
 21 20  2  0
M  END
$$$$
