CGR.pdb
     RDKit          3D

 22 21  0  0  1  0  0  0  0  0999 V2000
    5.2453  -12.7364   26.5844 N   0  0  0  0  0  0  0  0  0  0  0  0
    6.6722  -12.8558   26.3882 C   0  0  1  0  0  0  0  0  0  0  0  0
    7.4284  -12.4370   27.6397 C   0  0  0  0  0  0  0  0  0  0  0  0
    6.7484  -10.8566   28.2280 S   0  0  0  0  0  0  0  0  0  0  0  0
    6.9882  -14.2471   26.0072 C   0  0  0  0  0  0  0  0  0  0  0  0
    6.0680  -15.0978   25.9754 O   0  0  0  0  0  0  0  0  0  0  0  0
    8.3244  -14.5922   25.6853 N   0  0  0  0  0  0  0  0  0  0  0  0
    8.6335  -15.9711   25.3683 C   0  0  0  0  0  0  0  0  0  0  0  0
    8.8481  -16.1288   23.8924 C   0  0  0  0  0  0  0  0  0  0  0  0
    9.1338  -17.2760   23.4242 O   0  0  0  0  0  0  0  0  0  0  0  0
    9.0566  -15.0668   15.3673 N   0  0  0  0  0  0  0  0  0  0  0  0
    8.2452  -14.2964   16.2402 C   0  0  0  0  0  0  0  0  0  0  0  0
    8.0291  -13.0474   15.9961 N   0  0  0  0  0  0  0  0  0  0  0  0
    7.6389  -14.8478   17.4057 N   0  0  0  0  0  0  0  0  0  0  0  0
    8.3877  -15.2343   18.5598 C   0  0  0  0  0  0  0  0  0  0  0  0
    9.0220  -14.1037   19.3055 C   0  0  0  0  0  0  0  0  0  0  0  0
    8.6287  -14.0223   20.7502 C   0  0  0  0  0  0  0  0  0  0  0  0
    9.0016  -15.2225   21.5519 C   0  0  2  0  0  0  0  0  0  0  0  0
    8.7502  -15.0578   22.9698 N   0  0  0  0  0  0  0  0  0  0  0  0
   10.4831  -15.4265   21.3801 C   0  0  0  0  0  0  0  0  0  0  0  0
   11.3235  -14.8574   22.1301 O   0  0  0  0  0  0  0  0  0  0  0  0
   10.9491  -16.2505   20.3854 O   0  0  0  0  0  0  0  0  0  0  0  0
  2  1  1  1
  2  5  1  0
  2  3  1  0
  4  3  1  0
  5  6  2  0
  7  5  1  0
  7  8  1  0
  8  9  1  0
  9 19  1  0
  9 10  2  0
 11 12  1  0
 12 13  2  0
 14 12  1  0
 14 15  1  0
 16 17  1  0
 16 15  1  0
 18 17  1  6
 18 20  1  0
 19 18  1  0
 20 22  1  0
 21 20  2  0
M  END
$$$$
