CGR.pdb
     RDKit          3D

 22 21  0  0  1  0  0  0  0  0999 V2000
    9.0484  -13.5088   18.1492 N   0  0  0  0  0  0  0  0  0  0  0  0
    7.6605  -13.3464   17.7802 C   0  0  1  0  0  0  0  0  0  0  0  0
    7.3816  -13.9815   16.4265 C   0  0  0  0  0  0  0  0  0  0  0  0
    8.3898  -13.1384   15.1702 S   0  0  0  0  0  0  0  0  0  0  0  0
    6.8125  -13.9338   18.8368 C   0  0  0  0  0  0  0  0  0  0  0  0
    5.5653  -13.8729   18.7262 O   0  0  0  0  0  0  0  0  0  0  0  0
    7.4253  -14.5542   19.9537 N   0  0  0  0  0  0  0  0  0  0  0  0
    6.5860  -15.1883   20.9493 C   0  0  0  0  0  0  0  0  0  0  0  0
    7.4315  -15.8167   22.0168 C   0  0  0  0  0  0  0  0  0  0  0  0
    6.8720  -16.2854   23.0580 O   0  0  0  0  0  0  0  0  0  0  0  0
   15.1200  -20.8843   21.3392 N   0  0  0  0  0  0  0  0  0  0  0  0
   13.9624  -21.2087   22.0931 C   0  0  0  0  0  0  0  0  0  0  0  0
   13.5897  -22.4382   22.2182 N   0  0  0  0  0  0  0  0  0  0  0  0
   13.1679  -20.2174   22.7383 N   0  0  0  0  0  0  0  0  0  0  0  0
   12.4229  -19.2325   22.0193 C   0  0  0  0  0  0  0  0  0  0  0  0
   11.7007  -18.2415   22.8755 C   0  0  0  0  0  0  0  0  0  0  0  0
   10.9146  -17.2219   22.1065 C   0  0  0  0  0  0  0  0  0  0  0  0
    9.6009  -16.8757   22.7201 C   0  0  2  0  0  0  0  0  0  0  0  0
    8.8421  -15.9225   21.9351 N   0  0  0  0  0  0  0  0  0  0  0  0
    9.8896  -16.2322   24.0500 C   0  0  0  0  0  0  0  0  0  0  0  0
    9.7500  -14.9913   24.2319 O   0  0  0  0  0  0  0  0  0  0  0  0
   10.3174  -17.0019   25.1036 O   0  0  0  0  0  0  0  0  0  0  0  0
  2  1  1  1
  2  5  1  0
  2  3  1  0
  4  3  1  0
  5  6  2  0
  7  5  1  0
  7  8  1  0
  8  9  1  0
  9 19  1  0
  9 10  2  0
 11 12  1  0
 12 13  2  0
 14 12  1  0
 14 15  1  0
 16 17  1  0
 16 15  1  0
 18 17  1  6
 18 20  1  0
 19 18  1  0
 20 22  1  0
 21 20  2  0
M  END
$$$$
