CGR.pdb
     RDKit          3D

 22 21  0  0  1  0  0  0  0  0999 V2000
   10.1637  -14.6769   26.7349 N   0  0  0  0  0  0  0  0  0  0  0  0
    9.8455  -15.6179   27.7848 C   0  0  1  0  0  0  0  0  0  0  0  0
    9.5272  -14.8935   29.0838 C   0  0  0  0  0  0  0  0  0  0  0  0
   10.5606  -13.4010   29.1853 S   0  0  0  0  0  0  0  0  0  0  0  0
    8.7150  -16.4604   27.3458 C   0  0  0  0  0  0  0  0  0  0  0  0
    8.3004  -17.3715   28.1004 O   0  0  0  0  0  0  0  0  0  0  0  0
    8.1218  -16.2219   26.0811 N   0  0  0  0  0  0  0  0  0  0  0  0
    6.9885  -17.0281   25.6771 C   0  0  0  0  0  0  0  0  0  0  0  0
    7.2100  -17.5823   24.3012 C   0  0  0  0  0  0  0  0  0  0  0  0
    6.2076  -17.8045   23.5512 O   0  0  0  0  0  0  0  0  0  0  0  0
    6.4389  -12.5008   18.9300 N   0  0  0  0  0  0  0  0  0  0  0  0
    7.5241  -13.2785   18.4490 C   0  0  0  0  0  0  0  0  0  0  0  0
    7.7895  -13.3160   17.1863 N   0  0  0  0  0  0  0  0  0  0  0  0
    8.3602  -14.0415   19.3143 N   0  0  0  0  0  0  0  0  0  0  0  0
    8.1836  -14.0747   20.7319 C   0  0  0  0  0  0  0  0  0  0  0  0
    9.1602  -14.9362   21.4673 C   0  0  0  0  0  0  0  0  0  0  0  0
    8.5558  -15.7388   22.5805 C   0  0  0  0  0  0  0  0  0  0  0  0
    9.0813  -17.1300   22.6837 C   0  0  2  0  0  0  0  0  0  0  0  0
    8.4918  -17.8792   23.7755 N   0  0  0  0  0  0  0  0  0  0  0  0
   10.5579  -17.0260   22.9573 C   0  0  0  0  0  0  0  0  0  0  0  0
   11.0109  -16.9284   24.1311 O   0  0  0  0  0  0  0  0  0  0  0  0
   11.4492  -17.0359   21.9127 O   0  0  0  0  0  0  0  0  0  0  0  0
  2  1  1  6
  2  5  1  0
  2  3  1  0
  4  3  1  0
  5  6  2  0
  7  5  1  0
  7  8  1  0
  8  9  1  0
  9 19  1  0
  9 10  2  0
 11 12  1  0
 12 13  2  0
 14 12  1  0
 14 15  1  0
 16 17  1  0
 16 15  1  0
 18 17  1  1
 18 20  1  0
 19 18  1  0
 20 22  1  0
 21 20  2  0
M  END
$$$$
