EKK.pdb
     RDKit          3D

 28 27  0  0  1  0  0  0  0  0999 V2000
   22.3156  -12.8037  -17.8364 N   0  0  0  0  0  0  0  0  0  0  0  0
   23.1156  -11.9125  -16.9509 C   0  0  1  0  0  0  0  0  0  0  0  0
   24.3742  -11.5509  -17.7118 C   0  0  0  0  0  0  0  0  0  0  0  0
   25.2605  -10.7084  -16.8561 C   0  0  0  0  0  0  0  0  0  0  0  0
   26.5445  -11.4656  -16.6501 C   0  0  0  0  0  0  0  0  0  0  0  0
   27.1516  -11.9747  -17.6289 O   0  0  0  0  0  0  0  0  0  0  0  0
   22.3133  -10.6853  -16.7787 C   0  0  0  0  0  0  0  0  0  0  0  0
   21.9304  -10.0526  -17.8056 O   0  0  0  0  0  0  0  0  0  0  0  0
   27.0197  -11.5758  -15.3626 O   0  0  0  0  0  0  0  0  0  0  0  0
   21.9117  -10.1275  -15.5355 N   0  0  0  0  0  0  0  0  0  0  0  0
   21.0796   -8.9390  -15.4967 C   0  0  1  0  0  0  0  0  0  0  0  0
   19.8777   -9.1942  -14.5756 C   0  0  0  0  0  0  0  0  0  0  0  0
   18.8257   -9.8760  -15.4152 C   0  0  0  0  0  0  0  0  0  0  0  0
   17.6011  -10.2508  -14.6498 C   0  0  0  0  0  0  0  0  0  0  0  0
   16.6024  -10.9001  -15.5830 C   0  0  0  0  0  0  0  0  0  0  0  0
   15.4874  -11.3517  -14.7524 N   0  0  0  0  0  0  0  0  0  0  0  0
   21.8343   -7.7423  -15.0196 C   0  0  0  0  0  0  0  0  0  0  0  0
   22.7490   -7.8518  -14.1501 O   0  0  0  0  0  0  0  0  0  0  0  0
   21.5612   -6.4612  -15.5125 N   0  0  0  0  0  0  0  0  0  0  0  0
   22.3846   -5.2545  -15.0624 C   0  0  1  0  0  0  0  0  0  0  0  0
   22.1351   -4.3226  -16.1677 C   0  0  0  0  0  0  0  0  0  0  0  0
   22.5989   -2.9700  -16.2731 C   0  0  0  0  0  0  0  0  0  0  0  0
   22.4296   -2.1226  -17.4258 C   0  0  0  0  0  0  0  0  0  0  0  0
   22.9383   -0.7637  -17.5036 C   0  0  0  0  0  0  0  0  0  0  0  0
   22.6596   -0.2858  -18.9080 N   0  0  0  0  0  0  0  0  0  0  0  0
   21.9721   -5.0768  -13.7022 C   0  0  0  0  0  0  0  0  0  0  0  0
   22.7291   -4.4975  -12.6812 O   0  0  0  0  0  0  0  0  0  0  0  0
   20.8186   -5.4723  -13.3061 O   0  0  0  0  0  0  0  0  0  0  0  0
  2  7  1  0
  2  1  1  6
  3  2  1  0
  3  4  1  0
  4  5  1  0
  5  6  2  0
  7  8  2  0
  9  5  1  0
 10 11  1  0
 10  7  1  0
 11 12  1  1
 13 12  1  0
 14 15  1  0
 14 13  1  0
 16 15  1  0
 17 11  1  0
 17 19  1  0
 18 17  2  0
 20 19  1  0
 20 21  1  6
 22 21  1  0
 23 24  1  0
 23 22  1  0
 24 25  1  0
 26 20  1  0
 27 26  1  0
 28 26  2  0
M  END
$$$$
