EKK.pdb
     RDKit          3D

 28 27  0  0  1  0  0  0  0  0999 V2000
   25.2397  -17.0253  -17.2646 N   0  0  0  0  0  0  0  0  0  0  0  0
   23.8811  -17.4093  -17.7388 C   0  0  1  0  0  0  0  0  0  0  0  0
   24.0207  -17.8175  -19.1906 C   0  0  0  0  0  0  0  0  0  0  0  0
   25.2132  -17.1520  -19.7928 C   0  0  0  0  0  0  0  0  0  0  0  0
   24.9430  -15.6718  -19.8151 C   0  0  0  0  0  0  0  0  0  0  0  0
   25.8254  -14.8543  -19.4421 O   0  0  0  0  0  0  0  0  0  0  0  0
   23.5019  -18.6043  -16.9593 C   0  0  0  0  0  0  0  0  0  0  0  0
   22.4921  -19.2771  -17.3185 O   0  0  0  0  0  0  0  0  0  0  0  0
   23.7064  -15.2563  -20.2550 O   0  0  0  0  0  0  0  0  0  0  0  0
   24.1814  -19.0926  -15.8113 N   0  0  0  0  0  0  0  0  0  0  0  0
   23.6750  -20.2472  -15.0922 C   0  0  1  0  0  0  0  0  0  0  0  0
   24.7763  -20.7901  -14.1699 C   0  0  0  0  0  0  0  0  0  0  0  0
   24.2969  -22.1285  -13.6644 C   0  0  0  0  0  0  0  0  0  0  0  0
   24.6065  -23.2606  -14.5854 C   0  0  0  0  0  0  0  0  0  0  0  0
   24.1768  -24.5628  -13.9457 C   0  0  0  0  0  0  0  0  0  0  0  0
   24.5010  -25.6230  -14.8987 N   0  0  0  0  0  0  0  0  0  0  0  0
   22.4615  -19.9175  -14.2873 C   0  0  0  0  0  0  0  0  0  0  0  0
   22.5157  -19.0804  -13.3381 O   0  0  0  0  0  0  0  0  0  0  0  0
   21.2247  -20.5176  -14.5498 N   0  0  0  0  0  0  0  0  0  0  0  0
   19.9760  -20.1201  -13.7627 C   0  0  1  0  0  0  0  0  0  0  0  0
   19.2410  -19.3579  -14.7781 C   0  0  0  0  0  0  0  0  0  0  0  0
   18.0144  -18.6388  -14.5927 C   0  0  0  0  0  0  0  0  0  0  0  0
   17.2331  -18.0457  -15.6477 C   0  0  0  0  0  0  0  0  0  0  0  0
   15.9748  -17.3549  -15.4223 C   0  0  0  0  0  0  0  0  0  0  0  0
   15.4227  -17.0219  -16.7872 N   0  0  0  0  0  0  0  0  0  0  0  0
   19.5609  -21.3595  -13.1765 C   0  0  0  0  0  0  0  0  0  0  0  0
   20.0499  -22.6275  -13.4992 O   0  0  0  0  0  0  0  0  0  0  0  0
   18.6512  -21.3898  -12.2736 O   0  0  0  0  0  0  0  0  0  0  0  0
  2  7  1  0
  2  1  1  1
  3  2  1  0
  3  4  1  0
  4  5  1  0
  5  6  2  0
  7  8  2  0
  9  5  1  0
 10 11  1  0
 10  7  1  0
 11 12  1  1
 13 12  1  0
 14 15  1  0
 14 13  1  0
 16 15  1  0
 17 11  1  0
 17 19  1  0
 18 17  2  0
 20 19  1  0
 20 21  1  6
 22 21  1  0
 23 24  1  0
 23 22  1  0
 24 25  1  0
 26 20  1  0
 27 26  1  0
 28 26  2  0
M  END
$$$$
