EKK.pdb
     RDKit          3D

 28 27  0  0  1  0  0  0  0  0999 V2000
   28.4580  -21.8237  -16.9706 N   0  0  0  0  0  0  0  0  0  0  0  0
   28.4084  -20.6949  -16.0002 C   0  0  1  0  0  0  0  0  0  0  0  0
   28.0287  -19.4564  -16.7849 C   0  0  0  0  0  0  0  0  0  0  0  0
   27.1118  -19.8250  -17.9033 C   0  0  0  0  0  0  0  0  0  0  0  0
   27.8904  -19.7063  -19.1855 C   0  0  0  0  0  0  0  0  0  0  0  0
   28.5594  -18.6688  -19.4345 O   0  0  0  0  0  0  0  0  0  0  0  0
   27.3049  -21.0071  -15.0707 C   0  0  0  0  0  0  0  0  0  0  0  0
   26.2724  -21.5878  -15.5160 O   0  0  0  0  0  0  0  0  0  0  0  0
   27.8401  -20.7668  -20.0621 O   0  0  0  0  0  0  0  0  0  0  0  0
   27.2869  -20.7152  -13.6806 N   0  0  0  0  0  0  0  0  0  0  0  0
   26.1159  -21.0210  -12.8795 C   0  0  1  0  0  0  0  0  0  0  0  0
   26.3911  -20.6402  -11.4175 C   0  0  0  0  0  0  0  0  0  0  0  0
   25.1602  -21.0203  -10.6320 C   0  0  0  0  0  0  0  0  0  0  0  0
   25.2197  -20.6177   -9.1967 C   0  0  0  0  0  0  0  0  0  0  0  0
   23.9546  -21.0622   -8.4956 C   0  0  0  0  0  0  0  0  0  0  0  0
   24.0893  -20.6602   -7.0965 N   0  0  0  0  0  0  0  0  0  0  0  0
   24.9010  -20.3028  -13.3668 C   0  0  0  0  0  0  0  0  0  0  0  0
   24.9253  -19.0560  -13.5888 O   0  0  0  0  0  0  0  0  0  0  0  0
   23.6957  -20.9766  -13.5954 N   0  0  0  0  0  0  0  0  0  0  0  0
   22.4640  -20.2305  -14.1081 C   0  0  1  0  0  0  0  0  0  0  0  0
   22.6760  -20.3113  -15.5575 C   0  0  0  0  0  0  0  0  0  0  0  0
   21.6798  -20.1835  -16.5807 C   0  0  0  0  0  0  0  0  0  0  0  0
   21.9281  -20.2779  -17.9966 C   0  0  0  0  0  0  0  0  0  0  0  0
   20.8856  -20.1666  -19.0026 C   0  0  0  0  0  0  0  0  0  0  0  0
   21.5869  -20.1312  -20.3388 N   0  0  0  0  0  0  0  0  0  0  0  0
   21.3940  -20.8430  -13.3785 C   0  0  0  0  0  0  0  0  0  0  0  0
   20.0991  -20.3386  -13.2376 O   0  0  0  0  0  0  0  0  0  0  0  0
   21.5680  -21.9527  -12.7604 O   0  0  0  0  0  0  0  0  0  0  0  0
  2  7  1  0
  2  1  1  6
  3  2  1  0
  3  4  1  0
  4  5  1  0
  5  6  2  0
  7  8  2  0
  9  5  1  0
 10 11  1  0
 10  7  1  0
 11 12  1  1
 13 12  1  0
 14 15  1  0
 14 13  1  0
 16 15  1  0
 17 11  1  0
 17 19  1  0
 18 17  2  0
 20 19  1  0
 20 21  1  6
 22 21  1  0
 23 24  1  0
 23 22  1  0
 24 25  1  0
 26 20  1  0
 27 26  1  0
 28 26  2  0
M  END
$$$$
