EKK.pdb
     RDKit          3D

 28 27  0  0  1  0  0  0  0  0999 V2000
   25.7304  -22.3631  -13.2962 N   0  0  0  0  0  0  0  0  0  0  0  0
   25.5496  -21.1072  -12.5163 C   0  0  1  0  0  0  0  0  0  0  0  0
   26.5593  -20.1107  -13.0464 C   0  0  0  0  0  0  0  0  0  0  0  0
   27.7598  -20.8306  -13.5641 C   0  0  0  0  0  0  0  0  0  0  0  0
   27.5091  -21.1455  -15.0140 C   0  0  0  0  0  0  0  0  0  0  0  0
   27.4458  -22.3399  -15.4081 O   0  0  0  0  0  0  0  0  0  0  0  0
   24.1983  -20.6142  -12.8486 C   0  0  0  0  0  0  0  0  0  0  0  0
   23.8129  -19.5082  -12.3693 O   0  0  0  0  0  0  0  0  0  0  0  0
   27.3542  -20.0853  -15.8787 O   0  0  0  0  0  0  0  0  0  0  0  0
   23.2583  -21.2765  -13.6826 N   0  0  0  0  0  0  0  0  0  0  0  0
   21.9465  -20.7005  -13.9148 C   0  0  1  0  0  0  0  0  0  0  0  0
   21.8455  -20.2491  -15.3792 C   0  0  0  0  0  0  0  0  0  0  0  0
   22.3256  -18.8194  -15.4257 C   0  0  0  0  0  0  0  0  0  0  0  0
   22.3766  -18.2511  -16.8042 C   0  0  0  0  0  0  0  0  0  0  0  0
   22.8170  -16.8050  -16.7372 C   0  0  0  0  0  0  0  0  0  0  0  0
   22.8649  -16.3189  -18.1152 N   0  0  0  0  0  0  0  0  0  0  0  0
   20.8490  -21.6654  -13.6087 C   0  0  0  0  0  0  0  0  0  0  0  0
   20.9164  -22.8720  -13.9884 O   0  0  0  0  0  0  0  0  0  0  0  0
   19.7105  -21.2753  -12.8943 N   0  0  0  0  0  0  0  0  0  0  0  0
   18.6037  -22.2791  -12.5716 C   0  0  1  0  0  0  0  0  0  0  0  0
   18.9782  -22.6741  -11.2093 C   0  0  0  0  0  0  0  0  0  0  0  0
   18.3485  -23.6773  -10.4011 C   0  0  0  0  0  0  0  0  0  0  0  0
   18.6695  -23.9553   -9.0246 C   0  0  0  0  0  0  0  0  0  0  0  0
   18.0386  -25.0118   -8.2518 C   0  0  0  0  0  0  0  0  0  0  0  0
   18.7072  -25.0052   -6.8985 N   0  0  0  0  0  0  0  0  0  0  0  0
   17.4146  -21.5736  -12.9466 C   0  0  0  0  0  0  0  0  0  0  0  0
   17.3591  -20.3079  -13.5347 O   0  0  0  0  0  0  0  0  0  0  0  0
   16.2551  -22.0816  -12.7437 O   0  0  0  0  0  0  0  0  0  0  0  0
  2  7  1  0
  2  1  1  6
  3  2  1  0
  3  4  1  0
  4  5  1  0
  5  6  2  0
  7  8  2  0
  9  5  1  0
 10 11  1  0
 10  7  1  0
 11 12  1  6
 13 12  1  0
 14 15  1  0
 14 13  1  0
 16 15  1  0
 17 11  1  0
 17 19  1  0
 18 17  2  0
 20 19  1  0
 20 21  1  1
 22 21  1  0
 23 24  1  0
 23 22  1  0
 24 25  1  0
 26 20  1  0
 27 26  1  0
 28 26  2  0
M  END
$$$$
