EKK.pdb
     RDKit          3D

 28 27  0  0  1  0  0  0  0  0999 V2000
   17.4324  -10.3479  -14.4835 N   0  0  0  0  0  0  0  0  0  0  0  0
   18.0166   -9.8657  -13.2012 C   0  0  1  0  0  0  0  0  0  0  0  0
   19.1183   -8.8900  -13.5589 C   0  0  0  0  0  0  0  0  0  0  0  0
   20.2911   -9.6287  -14.1124 C   0  0  0  0  0  0  0  0  0  0  0  0
   21.2909   -8.6062  -14.5805 C   0  0  0  0  0  0  0  0  0  0  0  0
   21.0285   -7.3764  -14.5128 O   0  0  0  0  0  0  0  0  0  0  0  0
   16.9412   -9.1167  -12.5216 C   0  0  0  0  0  0  0  0  0  0  0  0
   16.1623   -8.3975  -13.2126 O   0  0  0  0  0  0  0  0  0  0  0  0
   22.4885   -9.0677  -15.0789 O   0  0  0  0  0  0  0  0  0  0  0  0
   16.6822   -9.1257  -11.1249 N   0  0  0  0  0  0  0  0  0  0  0  0
   15.5961   -8.3370  -10.5728 C   0  0  1  0  0  0  0  0  0  0  0  0
   14.8870   -9.1500   -9.4798 C   0  0  0  0  0  0  0  0  0  0  0  0
   13.7380   -9.8641  -10.1480 C   0  0  0  0  0  0  0  0  0  0  0  0
   12.8915  -10.6485   -9.2026 C   0  0  0  0  0  0  0  0  0  0  0  0
   11.7252  -11.2535   -9.9533 C   0  0  0  0  0  0  0  0  0  0  0  0
   12.2510  -12.4063  -10.6826 N   0  0  0  0  0  0  0  0  0  0  0  0
   16.0765   -7.0422  -10.0054 C   0  0  0  0  0  0  0  0  0  0  0  0
   17.0797   -7.0005   -9.2331 O   0  0  0  0  0  0  0  0  0  0  0  0
   15.4399   -5.8321  -10.3038 N   0  0  0  0  0  0  0  0  0  0  0  0
   16.0436   -4.4980   -9.8650 C   0  0  1  0  0  0  0  0  0  0  0  0
   15.9245   -3.7207  -11.1034 C   0  0  0  0  0  0  0  0  0  0  0  0
   16.4180   -2.3949  -11.3373 C   0  0  0  0  0  0  0  0  0  0  0  0
   16.3305   -1.6860  -12.5883 C   0  0  0  0  0  0  0  0  0  0  0  0
   16.8561   -0.3463  -12.7892 C   0  0  0  0  0  0  0  0  0  0  0  0
   16.6238   -0.0126  -14.2429 N   0  0  0  0  0  0  0  0  0  0  0  0
   15.3620   -4.2295   -8.6339 C   0  0  0  0  0  0  0  0  0  0  0  0
   15.7679   -3.3271   -7.6480 O   0  0  0  0  0  0  0  0  0  0  0  0
   14.2783   -4.8448   -8.3325 O   0  0  0  0  0  0  0  0  0  0  0  0
  2  7  1  0
  2  1  1  6
  3  2  1  0
  3  4  1  0
  4  5  1  0
  5  6  2  0
  7  8  2  0
  9  5  1  0
 10 11  1  0
 10  7  1  0
 11 12  1  1
 13 12  1  0
 14 15  1  0
 14 13  1  0
 16 15  1  0
 17 11  1  0
 17 19  1  0
 18 17  2  0
 20 19  1  0
 20 21  1  6
 22 21  1  0
 23 24  1  0
 23 22  1  0
 24 25  1  0
 26 20  1  0
 27 26  1  0
 28 26  2  0
M  END
$$$$
