EKK.pdb
     RDKit          3D

 28 27  0  0  1  0  0  0  0  0999 V2000
   22.6782   -9.5386  -18.5202 N   0  0  0  0  0  0  0  0  0  0  0  0
   22.4430  -10.0113  -17.1275 C   0  0  1  0  0  0  0  0  0  0  0  0
   21.7735   -8.8744  -16.3840 C   0  0  0  0  0  0  0  0  0  0  0  0
   22.7935   -7.8643  -15.9756 C   0  0  0  0  0  0  0  0  0  0  0  0
   22.1080   -6.8618  -15.0871 C   0  0  0  0  0  0  0  0  0  0  0  0
   22.1125   -7.0065  -13.8361 O   0  0  0  0  0  0  0  0  0  0  0  0
   21.4778  -11.1232  -17.2340 C   0  0  0  0  0  0  0  0  0  0  0  0
   20.5489  -11.0503  -18.0903 O   0  0  0  0  0  0  0  0  0  0  0  0
   21.4847   -5.7943  -15.6933 O   0  0  0  0  0  0  0  0  0  0  0  0
   21.4899  -12.3069  -16.4488 N   0  0  0  0  0  0  0  0  0  0  0  0
   20.5378  -13.3714  -16.7076 C   0  0  1  0  0  0  0  0  0  0  0  0
   21.0898  -14.6898  -16.1460 C   0  0  0  0  0  0  0  0  0  0  0  0
   20.1845  -15.7873  -16.6485 C   0  0  0  0  0  0  0  0  0  0  0  0
   20.5716  -17.1465  -16.1706 C   0  0  0  0  0  0  0  0  0  0  0  0
   19.6990  -18.1844  -16.8421 C   0  0  0  0  0  0  0  0  0  0  0  0
   20.0258  -19.4681  -16.2234 N   0  0  0  0  0  0  0  0  0  0  0  0
   19.2022  -13.0871  -16.1039 C   0  0  0  0  0  0  0  0  0  0  0  0
   19.1017  -12.6420  -14.9222 O   0  0  0  0  0  0  0  0  0  0  0  0
   18.0170  -13.3002  -16.8171 N   0  0  0  0  0  0  0  0  0  0  0  0
   16.6658  -12.8807  -16.2383 C   0  0  1  0  0  0  0  0  0  0  0  0
   15.8946  -12.6639  -17.4673 C   0  0  0  0  0  0  0  0  0  0  0  0
   14.6756  -11.9203  -17.5976 C   0  0  0  0  0  0  0  0  0  0  0  0
   13.9138  -11.7825  -18.8126 C   0  0  0  0  0  0  0  0  0  0  0  0
   12.7210  -10.9601  -18.9222 C   0  0  0  0  0  0  0  0  0  0  0  0
   12.3302  -10.9709  -20.3801 N   0  0  0  0  0  0  0  0  0  0  0  0
   16.4138  -13.8901  -15.2535 C   0  0  0  0  0  0  0  0  0  0  0  0
   15.7902  -13.6979  -14.0185 O   0  0  0  0  0  0  0  0  0  0  0  0
   16.7764  -15.1045  -15.4466 O   0  0  0  0  0  0  0  0  0  0  0  0
  2  7  1  0
  2  1  1  6
  3  2  1  0
  3  4  1  0
  4  5  1  0
  5  6  2  0
  7  8  2  0
  9  5  1  0
 10 11  1  0
 10  7  1  0
 11 12  1  1
 13 12  1  0
 14 15  1  0
 14 13  1  0
 16 15  1  0
 17 11  1  0
 17 19  1  0
 18 17  2  0
 20 19  1  0
 20 21  1  6
 22 21  1  0
 23 24  1  0
 23 22  1  0
 24 25  1  0
 26 20  1  0
 27 26  1  0
 28 26  2  0
M  END
$$$$
