EKK.pdb
     RDKit          3D

 28 27  0  0  1  0  0  0  0  0999 V2000
   25.2163  -22.4834  -13.7980 N   0  0  0  0  0  0  0  0  0  0  0  0
   24.2043  -22.6349  -14.8801 C   0  0  1  0  0  0  0  0  0  0  0  0
   23.8515  -24.1061  -14.9498 C   0  0  0  0  0  0  0  0  0  0  0  0
   24.9812  -24.8712  -15.5547 C   0  0  0  0  0  0  0  0  0  0  0  0
   24.9724  -24.5982  -17.0345 C   0  0  0  0  0  0  0  0  0  0  0  0
   24.2099  -25.2447  -17.8003 O   0  0  0  0  0  0  0  0  0  0  0  0
   23.0099  -21.8963  -14.4249 C   0  0  0  0  0  0  0  0  0  0  0  0
   22.5797  -22.0882  -13.2504 O   0  0  0  0  0  0  0  0  0  0  0  0
   25.8226  -23.6242  -17.5078 O   0  0  0  0  0  0  0  0  0  0  0  0
   22.2735  -20.9584  -15.1970 N   0  0  0  0  0  0  0  0  0  0  0  0
   21.0921  -20.3191  -14.6474 C   0  0  1  0  0  0  0  0  0  0  0  0
   20.6593  -19.1750  -15.5759 C   0  0  0  0  0  0  0  0  0  0  0  0
   21.7570  -18.1408  -15.5294 C   0  0  0  0  0  0  0  0  0  0  0  0
   22.3892  -17.8809  -16.8555 C   0  0  0  0  0  0  0  0  0  0  0  0
   23.4905  -16.8555  -16.6966 C   0  0  0  0  0  0  0  0  0  0  0  0
   23.9988  -16.5774  -18.0388 N   0  0  0  0  0  0  0  0  0  0  0  0
   19.9637  -21.2815  -14.4748 C   0  0  0  0  0  0  0  0  0  0  0  0
   19.8220  -22.2678  -15.2569 O   0  0  0  0  0  0  0  0  0  0  0  0
   19.0250  -21.1311  -13.4477 N   0  0  0  0  0  0  0  0  0  0  0  0
   17.9356  -22.1789  -13.2197 C   0  0  1  0  0  0  0  0  0  0  0  0
   18.3634  -22.7469  -11.9365 C   0  0  0  0  0  0  0  0  0  0  0  0
   17.8554  -23.9315  -11.3084 C   0  0  0  0  0  0  0  0  0  0  0  0
   18.3144  -24.4661  -10.0519 C   0  0  0  0  0  0  0  0  0  0  0  0
   17.6725  -25.5778   -9.3712 C   0  0  0  0  0  0  0  0  0  0  0  0
   18.4968  -25.8530   -8.1370 N   0  0  0  0  0  0  0  0  0  0  0  0
   16.7301  -21.4412  -13.4536 C   0  0  0  0  0  0  0  0  0  0  0  0
   15.4718  -21.9843  -13.7236 O   0  0  0  0  0  0  0  0  0  0  0  0
   16.7290  -20.1592  -13.4424 O   0  0  0  0  0  0  0  0  0  0  0  0
  2  7  1  0
  2  1  1  1
  3  2  1  0
  3  4  1  0
  4  5  1  0
  5  6  2  0
  7  8  2  0
  9  5  1  0
 10 11  1  0
 10  7  1  0
 11 12  1  6
 13 12  1  0
 14 15  1  0
 14 13  1  0
 16 15  1  0
 17 11  1  0
 17 19  1  0
 18 17  2  0
 20 19  1  0
 20 21  1  1
 22 21  1  0
 23 24  1  0
 23 22  1  0
 24 25  1  0
 26 20  1  0
 27 26  1  0
 28 26  2  0
M  END
$$$$
