EKK.pdb
     RDKit          3D

 28 27  0  0  1  0  0  0  0  0999 V2000
   27.0896  -21.8515  -15.9547 N   0  0  0  0  0  0  0  0  0  0  0  0
   26.8584  -20.6198  -15.1499 C   0  0  1  0  0  0  0  0  0  0  0  0
   26.7895  -19.4632  -16.1252 C   0  0  0  0  0  0  0  0  0  0  0  0
   25.6560  -19.6662  -17.0746 C   0  0  0  0  0  0  0  0  0  0  0  0
   25.7353  -18.5808  -18.1138 C   0  0  0  0  0  0  0  0  0  0  0  0
   24.7946  -17.7546  -18.2497 O   0  0  0  0  0  0  0  0  0  0  0  0
   25.5268  -20.7820  -14.5335 C   0  0  0  0  0  0  0  0  0  0  0  0
   24.6765  -21.5313  -15.0965 O   0  0  0  0  0  0  0  0  0  0  0  0
   26.8656  -18.5311  -18.8984 O   0  0  0  0  0  0  0  0  0  0  0  0
   25.0915  -20.1642  -13.3307 N   0  0  0  0  0  0  0  0  0  0  0  0
   23.7889  -20.4773  -12.7722 C   0  0  1  0  0  0  0  0  0  0  0  0
   23.8133  -20.2187  -11.2587 C   0  0  0  0  0  0  0  0  0  0  0  0
   22.4914  -20.7025  -10.7154 C   0  0  0  0  0  0  0  0  0  0  0  0
   22.3335  -20.4854   -9.2478 C   0  0  0  0  0  0  0  0  0  0  0  0
   20.9965  -21.0332   -8.7982 C   0  0  0  0  0  0  0  0  0  0  0  0
   20.8527  -20.6776   -7.3875 N   0  0  0  0  0  0  0  0  0  0  0  0
   22.7011  -19.6723  -13.4030 C   0  0  0  0  0  0  0  0  0  0  0  0
   22.7947  -18.4129  -13.5016 O   0  0  0  0  0  0  0  0  0  0  0  0
   21.5430  -20.2757  -13.9065 N   0  0  0  0  0  0  0  0  0  0  0  0
   20.4216  -19.4353  -14.5172 C   0  0  1  0  0  0  0  0  0  0  0  0
   20.1606  -20.1803  -15.7537 C   0  0  0  0  0  0  0  0  0  0  0  0
   19.3626  -19.7502  -16.8646 C   0  0  0  0  0  0  0  0  0  0  0  0
   19.0594  -20.5470  -18.0259 C   0  0  0  0  0  0  0  0  0  0  0  0
   18.3116  -20.0482  -19.1675 C   0  0  0  0  0  0  0  0  0  0  0  0
   18.2300  -21.1887  -20.1529 N   0  0  0  0  0  0  0  0  0  0  0  0
   19.5111  -19.2754  -13.4228 C   0  0  0  0  0  0  0  0  0  0  0  0
   19.3315  -20.1685  -12.3640 O   0  0  0  0  0  0  0  0  0  0  0  0
   18.7476  -18.2483  -13.3451 O   0  0  0  0  0  0  0  0  0  0  0  0
  2  7  1  0
  2  1  1  6
  3  2  1  0
  3  4  1  0
  4  5  1  0
  5  6  2  0
  7  8  2  0
  9  5  1  0
 10 11  1  0
 10  7  1  0
 11 12  1  1
 13 12  1  0
 14 15  1  0
 14 13  1  0
 16 15  1  0
 17 11  1  0
 17 19  1  0
 18 17  2  0
 20 19  1  0
 20 21  1  6
 22 21  1  0
 23 24  1  0
 23 22  1  0
 24 25  1  0
 26 20  1  0
 27 26  1  0
 28 26  2  0
M  END
$$$$
