EKK.pdb
     RDKit          3D

 28 27  0  0  1  0  0  0  0  0999 V2000
   27.5271  -22.8816  -17.0557 N   0  0  0  0  0  0  0  0  0  0  0  0
   27.7578  -21.7883  -16.0709 C   0  0  1  0  0  0  0  0  0  0  0  0
   27.7954  -20.4920  -16.8532 C   0  0  0  0  0  0  0  0  0  0  0  0
   26.9367  -20.6072  -18.0685 C   0  0  0  0  0  0  0  0  0  0  0  0
   27.2884  -19.4642  -18.9818 C   0  0  0  0  0  0  0  0  0  0  0  0
   28.4444  -19.3689  -19.4722 O   0  0  0  0  0  0  0  0  0  0  0  0
   26.5648  -21.7668  -15.2016 C   0  0  0  0  0  0  0  0  0  0  0  0
   25.5249  -22.3866  -15.5703 O   0  0  0  0  0  0  0  0  0  0  0  0
   26.3047  -18.5402  -19.2541 O   0  0  0  0  0  0  0  0  0  0  0  0
   26.4652  -21.1019  -13.9502 N   0  0  0  0  0  0  0  0  0  0  0  0
   25.2851  -21.2662  -13.1215 C   0  0  1  0  0  0  0  0  0  0  0  0
   25.6085  -20.8189  -11.6885 C   0  0  0  0  0  0  0  0  0  0  0  0
   24.3764  -21.0914  -10.8613 C   0  0  0  0  0  0  0  0  0  0  0  0
   24.4849  -20.6127   -9.4525 C   0  0  0  0  0  0  0  0  0  0  0  0
   23.2402  -21.0082   -8.6884 C   0  0  0  0  0  0  0  0  0  0  0  0
   23.4055  -20.4984   -7.3283 N   0  0  0  0  0  0  0  0  0  0  0  0
   24.1226  -20.4870  -13.6418 C   0  0  0  0  0  0  0  0  0  0  0  0
   24.2197  -19.2449  -13.8709 O   0  0  0  0  0  0  0  0  0  0  0  0
   22.8883  -21.0963  -13.8948 N   0  0  0  0  0  0  0  0  0  0  0  0
   21.7225  -20.2969  -14.4768 C   0  0  1  0  0  0  0  0  0  0  0  0
   21.1997  -21.2496  -15.4623 C   0  0  0  0  0  0  0  0  0  0  0  0
   20.0813  -21.0540  -16.3380 C   0  0  0  0  0  0  0  0  0  0  0  0
   19.6318  -21.9948  -17.3322 C   0  0  0  0  0  0  0  0  0  0  0  0
   18.5198  -21.7402  -18.2322 C   0  0  0  0  0  0  0  0  0  0  0  0
   18.4335  -22.9358  -19.1494 N   0  0  0  0  0  0  0  0  0  0  0  0
   21.0372  -19.8351  -13.3067 C   0  0  0  0  0  0  0  0  0  0  0  0
   20.9981  -20.4787  -12.0676 O   0  0  0  0  0  0  0  0  0  0  0  0
   20.3648  -18.7436  -13.3241 O   0  0  0  0  0  0  0  0  0  0  0  0
  2  7  1  0
  2  1  1  6
  3  2  1  0
  3  4  1  0
  4  5  1  0
  5  6  2  0
  7  8  2  0
  9  5  1  0
 10 11  1  0
 10  7  1  0
 11 12  1  1
 13 12  1  0
 14 15  1  0
 14 13  1  0
 16 15  1  0
 17 11  1  0
 17 19  1  0
 18 17  2  0
 20 19  1  0
 20 21  1  6
 22 21  1  0
 23 24  1  0
 23 22  1  0
 24 25  1  0
 26 20  1  0
 27 26  1  0
 28 26  2  0
M  END
$$$$
