WIF.pdb
     RDKit          3D

 34 36  0  0  1  0  0  0  0  0999 V2000
   24.7121  -20.4606  -13.8611 N   0  0  0  0  0  0  0  0  0  0  0  0
   23.4797  -20.2725  -13.1460 C   0  0  1  0  0  0  0  0  0  0  0  0
   22.2610  -20.4180  -13.9714 C   0  0  0  0  0  0  0  0  0  0  0  0
   22.1904  -19.5734  -15.1598 C   0  0  0  0  0  0  0  0  0  0  0  0
   22.8032  -19.7618  -16.3764 C   0  0  0  0  0  0  0  0  0  0  0  0
   22.4490  -18.7336  -17.1539 N   0  0  0  0  0  0  0  0  0  0  0  0
   21.6308  -17.8844  -16.4920 C   0  0  0  0  0  0  0  0  0  0  0  0
   21.0153  -16.6995  -16.8736 C   0  0  0  0  0  0  0  0  0  0  0  0
   20.2309  -16.0511  -15.9718 C   0  0  0  0  0  0  0  0  0  0  0  0
   20.0213  -16.5244  -14.6896 C   0  0  0  0  0  0  0  0  0  0  0  0
   20.6463  -17.7033  -14.3414 C   0  0  0  0  0  0  0  0  0  0  0  0
   21.4607  -18.4039  -15.2334 C   0  0  0  0  0  0  0  0  0  0  0  0
   23.4961  -21.0888  -11.9145 C   0  0  0  0  0  0  0  0  0  0  0  0
   23.6672  -22.3270  -11.9698 O   0  0  0  0  0  0  0  0  0  0  0  0
   26.3576  -19.4065   -7.9125 C   0  0  0  0  0  0  0  0  0  0  0  0
   25.5281  -20.2485   -8.8572 C   0  0  0  0  0  0  0  0  0  0  0  0
   24.1059  -20.4012   -8.3709 C   0  0  2  0  0  0  0  0  0  0  0  0
   24.0443  -21.2093   -7.0835 C   0  0  0  0  0  0  0  0  0  0  0  0
   23.3163  -21.1774   -9.4034 C   0  0  2  0  0  0  0  0  0  0  0  0
   23.3122  -20.4337  -10.6570 N   0  0  0  0  0  0  0  0  0  0  0  0
   21.9182  -21.4330   -8.9382 C   0  0  0  0  0  0  0  0  0  0  0  0
   21.1391  -20.4334   -8.7759 O   0  0  0  0  0  0  0  0  0  0  0  0
   21.4391  -22.7226   -8.6767 N   0  0  0  0  0  0  0  0  0  0  0  0
   20.0667  -22.9006   -8.1548 C   0  0  1  0  0  0  0  0  0  0  0  0
   19.3734  -23.9653   -8.9299 C   0  0  0  0  0  0  0  0  0  0  0  0
   18.0214  -24.2097   -8.4013 C   0  0  0  0  0  0  0  0  0  0  0  0
   17.7780  -25.1572   -7.4036 C   0  0  0  0  0  0  0  0  0  0  0  0
   16.5229  -25.3780   -6.8830 C   0  0  0  0  0  0  0  0  0  0  0  0
   15.4427  -24.6510   -7.3438 C   0  0  0  0  0  0  0  0  0  0  0  0
   15.6408  -23.7059   -8.3282 C   0  0  0  0  0  0  0  0  0  0  0  0
   16.9059  -23.5023   -8.8340 C   0  0  0  0  0  0  0  0  0  0  0  0
   20.1301  -23.2429   -6.7301 C   0  0  0  0  0  0  0  0  0  0  0  0
   19.0970  -22.9446   -5.8730 O   0  0  0  0  0  0  0  0  0  0  0  0
   21.1464  -23.8175   -6.2777 O   0  0  0  0  0  0  0  0  0  0  0  0
  2  1  1  6
  3  2  1  0
  4  3  1  0
  5  4  2  0
  6  5  1  0
  7  6  1  0
  7 12  2  0
  8  7  1  0
  9  8  2  0
  9 10  1  0
 10 11  2  0
 11 12  1  0
 12  4  1  0
 13  2  1  0
 14 13  2  0
 15 16  1  0
 16 17  1  0
 17 19  1  0
 17 18  1  1
 19 21  1  0
 19 20  1  6
 20 13  1  0
 21 23  1  0
 22 21  2  0
 23 24  1  0
 24 25  1  6
 25 26  1  0
 26 27  2  0
 27 28  1  0
 29 28  2  0
 30 29  1  0
 31 26  1  0
 31 30  2  0
 32 24  1  0
 32 33  1  0
 34 32  2  0
M  END
$$$$
