WIF.pdb
     RDKit          3D

 34 36  0  0  1  0  0  0  0  0999 V2000
   28.2746  -20.9030  -10.5831 N   0  0  0  0  0  0  0  0  0  0  0  0
   26.9836  -21.0523   -9.9695 C   0  0  1  0  0  0  0  0  0  0  0  0
   26.9122  -20.5905   -8.5661 C   0  0  0  0  0  0  0  0  0  0  0  0
   28.1688  -20.6088   -7.8235 C   0  0  0  0  0  0  0  0  0  0  0  0
   29.3780  -21.1389   -8.2082 C   0  0  0  0  0  0  0  0  0  0  0  0
   30.2349  -20.9212   -7.2054 N   0  0  0  0  0  0  0  0  0  0  0  0
   29.6318  -20.2710   -6.1845 C   0  0  0  0  0  0  0  0  0  0  0  0
   30.1022  -19.8347   -4.9530 C   0  0  0  0  0  0  0  0  0  0  0  0
   29.2433  -19.1954   -4.1149 C   0  0  0  0  0  0  0  0  0  0  0  0
   27.9196  -18.9622   -4.4398 C   0  0  0  0  0  0  0  0  0  0  0  0
   27.4831  -19.4076   -5.6698 C   0  0  0  0  0  0  0  0  0  0  0  0
   28.3284  -20.0687   -6.5631 C   0  0  0  0  0  0  0  0  0  0  0  0
   25.9476  -20.4907  -10.8608 C   0  0  0  0  0  0  0  0  0  0  0  0
   25.6882  -19.2668  -10.8490 O   0  0  0  0  0  0  0  0  0  0  0  0
   26.6598  -20.4916  -15.6291 C   0  0  0  0  0  0  0  0  0  0  0  0
   26.0669  -20.3168  -14.2480 C   0  0  0  0  0  0  0  0  0  0  0  0
   24.7722  -21.0796  -14.0926 C   0  0  2  0  0  0  0  0  0  0  0  0
   23.6977  -20.5437  -15.0268 C   0  0  0  0  0  0  0  0  0  0  0  0
   24.2538  -20.8821  -12.6840 C   0  0  2  0  0  0  0  0  0  0  0  0
   25.2468  -21.3760  -11.7380 N   0  0  0  0  0  0  0  0  0  0  0  0
   22.9450  -21.5776  -12.4845 C   0  0  0  0  0  0  0  0  0  0  0  0
   22.9456  -22.8486  -12.3539 O   0  0  0  0  0  0  0  0  0  0  0  0
   21.7283  -20.8862  -12.4368 N   0  0  0  0  0  0  0  0  0  0  0  0
   20.4630  -21.6413  -12.3089 C   0  0  1  0  0  0  0  0  0  0  0  0
   19.8615  -21.3825  -10.9724 C   0  0  0  0  0  0  0  0  0  0  0  0
   18.5688  -22.0725  -10.8310 C   0  0  0  0  0  0  0  0  0  0  0  0
   17.3527  -21.4063  -11.0033 C   0  0  0  0  0  0  0  0  0  0  0  0
   16.1377  -22.0450  -10.8986 C   0  0  0  0  0  0  0  0  0  0  0  0
   16.0858  -23.3954  -10.6133 C   0  0  0  0  0  0  0  0  0  0  0  0
   17.2641  -24.0894  -10.4361 C   0  0  0  0  0  0  0  0  0  0  0  0
   18.4681  -23.4292  -10.5458 C   0  0  0  0  0  0  0  0  0  0  0  0
   19.5489  -21.2419  -13.3840 C   0  0  0  0  0  0  0  0  0  0  0  0
   19.5134  -19.9500  -13.8539 O   0  0  0  0  0  0  0  0  0  0  0  0
   18.7792  -22.0913  -13.8876 O   0  0  0  0  0  0  0  0  0  0  0  0
  2  1  1  6
  3  2  1  0
  4  3  1  0
  5  4  2  0
  6  5  1  0
  7  6  1  0
  7 12  2  0
  8  7  1  0
  9  8  2  0
  9 10  1  0
 10 11  2  0
 11 12  1  0
 12  4  1  0
 13  2  1  0
 14 13  2  0
 15 16  1  0
 16 17  1  0
 17 19  1  0
 17 18  1  6
 19 21  1  0
 19 20  1  1
 20 13  1  0
 21 23  1  0
 22 21  2  0
 23 24  1  0
 24 25  1  1
 25 26  1  0
 26 27  2  0
 27 28  1  0
 29 28  2  0
 30 29  1  0
 31 26  1  0
 31 30  2  0
 32 24  1  0
 32 33  1  0
 34 32  2  0
M  END
$$$$
