WIF.pdb
     RDKit          3D

 34 36  0  0  1  0  0  0  0  0999 V2000
   28.4309  -20.7801  -15.3441 N   0  0  0  0  0  0  0  0  0  0  0  0
   27.4305  -20.0978  -14.5700 C   0  0  1  0  0  0  0  0  0  0  0  0
   26.4334  -19.3549  -15.3710 C   0  0  0  0  0  0  0  0  0  0  0  0
   26.9610  -18.2903  -16.2189 C   0  0  0  0  0  0  0  0  0  0  0  0
   27.2678  -18.3413  -17.5585 C   0  0  0  0  0  0  0  0  0  0  0  0
   27.7194  -17.1304  -17.9006 N   0  0  0  0  0  0  0  0  0  0  0  0
   27.7187  -16.2944  -16.8377 C   0  0  0  0  0  0  0  0  0  0  0  0
   28.0917  -14.9638  -16.7013 C   0  0  0  0  0  0  0  0  0  0  0  0
   27.9776  -14.3753  -15.4808 C   0  0  0  0  0  0  0  0  0  0  0  0
   27.5049  -15.0489  -14.3696 C   0  0  0  0  0  0  0  0  0  0  0  0
   27.1427  -16.3688  -14.5378 C   0  0  0  0  0  0  0  0  0  0  0  0
   27.2424  -17.0150  -15.7715 C   0  0  0  0  0  0  0  0  0  0  0  0
   26.8582  -21.0290  -13.5757 C   0  0  0  0  0  0  0  0  0  0  0  0
   26.6363  -22.2242  -13.8719 O   0  0  0  0  0  0  0  0  0  0  0  0
   27.1044  -20.4444   -8.0762 C   0  0  0  0  0  0  0  0  0  0  0  0
   26.9095  -20.9780   -9.4786 C   0  0  0  0  0  0  0  0  0  0  0  0
   25.5769  -20.5627  -10.0567 C   0  0  2  0  0  0  0  0  0  0  0  0
   24.4211  -21.1779   -9.2821 C   0  0  0  0  0  0  0  0  0  0  0  0
   25.4727  -21.0881  -11.4727 C   0  0  2  0  0  0  0  0  0  0  0  0
   26.5630  -20.5354  -12.2667 N   0  0  0  0  0  0  0  0  0  0  0  0
   24.1510  -20.7459  -12.0829 C   0  0  0  0  0  0  0  0  0  0  0  0
   23.8825  -19.5161  -12.3019 O   0  0  0  0  0  0  0  0  0  0  0  0
   23.2053  -21.7223  -12.4194 N   0  0  0  0  0  0  0  0  0  0  0  0
   21.9064  -21.3136  -12.9967 C   0  0  1  0  0  0  0  0  0  0  0  0
   21.6168  -22.1359  -14.2029 C   0  0  0  0  0  0  0  0  0  0  0  0
   20.2570  -21.8789  -14.7049 C   0  0  0  0  0  0  0  0  0  0  0  0
   19.1873  -22.7279  -14.4092 C   0  0  0  0  0  0  0  0  0  0  0  0
   17.9062  -22.4857  -14.8513 C   0  0  0  0  0  0  0  0  0  0  0  0
   17.6361  -21.3693  -15.6183 C   0  0  0  0  0  0  0  0  0  0  0  0
   18.6646  -20.5061  -15.9322 C   0  0  0  0  0  0  0  0  0  0  0  0
   19.9385  -20.7689  -15.4785 C   0  0  0  0  0  0  0  0  0  0  0  0
   20.8551  -21.4721  -11.9865 C   0  0  0  0  0  0  0  0  0  0  0  0
   19.7945  -20.6002  -11.9106 O   0  0  0  0  0  0  0  0  0  0  0  0
   20.9206  -22.4193  -11.1704 O   0  0  0  0  0  0  0  0  0  0  0  0
  2  1  1  6
  3  2  1  0
  4  3  1  0
  5  4  2  0
  6  5  1  0
  7  6  1  0
  7 12  2  0
  8  7  1  0
  9  8  2  0
  9 10  1  0
 10 11  2  0
 11 12  1  0
 12  4  1  0
 13  2  1  0
 14 13  2  0
 15 16  1  0
 16 17  1  0
 17 19  1  0
 17 18  1  1
 19 21  1  0
 19 20  1  6
 20 13  1  0
 21 23  1  0
 22 21  2  0
 23 24  1  0
 24 25  1  6
 25 26  1  0
 26 27  2  0
 27 28  1  0
 29 28  2  0
 30 29  1  0
 31 26  1  0
 31 30  2  0
 32 24  1  0
 32 33  1  0
 34 32  2  0
M  END
$$$$
