WIF.pdb
     RDKit          3D

 34 36  0  0  1  0  0  0  0  0999 V2000
   27.4504  -20.8432  -14.7539 N   0  0  0  0  0  0  0  0  0  0  0  0
   27.8799  -20.1562  -13.5669 C   0  0  1  0  0  0  0  0  0  0  0  0
   27.0583  -18.9808  -13.2049 C   0  0  0  0  0  0  0  0  0  0  0  0
   26.8820  -17.9786  -14.2515 C   0  0  0  0  0  0  0  0  0  0  0  0
   25.7651  -17.2268  -14.5315 C   0  0  0  0  0  0  0  0  0  0  0  0
   26.0716  -16.4480  -15.5740 N   0  0  0  0  0  0  0  0  0  0  0  0
   27.3425  -16.6631  -15.9830 C   0  0  0  0  0  0  0  0  0  0  0  0
   28.0971  -16.1043  -17.0061 C   0  0  0  0  0  0  0  0  0  0  0  0
   29.3767  -16.5294  -17.1810 C   0  0  0  0  0  0  0  0  0  0  0  0
   29.9571  -17.4963  -16.3808 C   0  0  0  0  0  0  0  0  0  0  0  0
   29.1818  -18.0317  -15.3738 C   0  0  0  0  0  0  0  0  0  0  0  0
   27.8634  -17.6265  -15.1562 C   0  0  0  0  0  0  0  0  0  0  0  0
   28.0779  -21.1341  -12.4771 C   0  0  0  0  0  0  0  0  0  0  0  0
   27.4032  -22.1868  -12.4315 O   0  0  0  0  0  0  0  0  0  0  0  0
   32.7099  -22.7583  -10.6358 C   0  0  0  0  0  0  0  0  0  0  0  0
   31.2634  -22.4705  -10.9735 C   0  0  0  0  0  0  0  0  0  0  0  0
   30.5373  -21.8177   -9.8206 C   0  0  2  0  0  0  0  0  0  0  0  0
   30.5105  -22.7233   -8.5986 C   0  0  0  0  0  0  0  0  0  0  0  0
   29.0943  -21.5892  -10.2175 C   0  0  2  0  0  0  0  0  0  0  0  0
   29.0575  -20.8521  -11.4745 N   0  0  0  0  0  0  0  0  0  0  0  0
   28.3486  -20.8507   -9.1521 C   0  0  0  0  0  0  0  0  0  0  0  0
   28.9745  -20.5235   -8.0874 O   0  0  0  0  0  0  0  0  0  0  0  0
   26.9969  -20.5089   -9.2829 N   0  0  0  0  0  0  0  0  0  0  0  0
   26.0703  -20.7476   -8.1551 C   0  0  1  0  0  0  0  0  0  0  0  0
   25.9795  -19.5210   -7.3171 C   0  0  0  0  0  0  0  0  0  0  0  0
   27.0298  -19.5055   -6.2857 C   0  0  0  0  0  0  0  0  0  0  0  0
   27.9488  -18.4580   -6.1825 C   0  0  0  0  0  0  0  0  0  0  0  0
   28.9200  -18.4189   -5.2075 C   0  0  0  0  0  0  0  0  0  0  0  0
   29.0152  -19.4392   -4.2815 C   0  0  0  0  0  0  0  0  0  0  0  0
   28.1267  -20.4916   -4.3490 C   0  0  0  0  0  0  0  0  0  0  0  0
   27.1631  -20.5091   -5.3334 C   0  0  0  0  0  0  0  0  0  0  0  0
   24.7540  -21.1252   -8.6802 C   0  0  0  0  0  0  0  0  0  0  0  0
   23.7120  -21.4474   -7.8429 O   0  0  0  0  0  0  0  0  0  0  0  0
   24.5697  -21.1592   -9.9182 O   0  0  0  0  0  0  0  0  0  0  0  0
  2  1  1  6
  3  2  1  0
  4  3  1  0
  5  4  2  0
  6  5  1  0
  7  6  1  0
  7 12  2  0
  8  7  1  0
  9  8  2  0
  9 10  1  0
 10 11  2  0
 11 12  1  0
 12  4  1  0
 13  2  1  0
 14 13  2  0
 15 16  1  0
 16 17  1  0
 17 19  1  0
 17 18  1  1
 19 21  1  0
 19 20  1  6
 20 13  1  0
 21 23  1  0
 22 21  2  0
 23 24  1  0
 24 25  1  6
 25 26  1  0
 26 27  2  0
 27 28  1  0
 29 28  2  0
 30 29  1  0
 31 26  1  0
 31 30  2  0
 32 24  1  0
 32 33  1  0
 34 32  2  0
M  END
$$$$
