WIF.pdb
     RDKit          3D

 34 36  0  0  1  0  0  0  0  0999 V2000
   23.1564  -17.3279  -18.4249 N   0  0  0  0  0  0  0  0  0  0  0  0
   23.0006  -17.8833  -17.1086 C   0  0  1  0  0  0  0  0  0  0  0  0
   21.6149  -18.2691  -16.7637 C   0  0  0  0  0  0  0  0  0  0  0  0
   20.6478  -17.1782  -16.6916 C   0  0  0  0  0  0  0  0  0  0  0  0
   20.0675  -16.4844  -17.7275 C   0  0  0  0  0  0  0  0  0  0  0  0
   19.2505  -15.5789  -17.1798 N   0  0  0  0  0  0  0  0  0  0  0  0
   19.2762  -15.6560  -15.8300 C   0  0  0  0  0  0  0  0  0  0  0  0
   18.6110  -14.9380  -14.8449 C   0  0  0  0  0  0  0  0  0  0  0  0
   18.8436  -15.2475  -13.5415 C   0  0  0  0  0  0  0  0  0  0  0  0
   19.7162  -16.2490  -13.1573 C   0  0  0  0  0  0  0  0  0  0  0  0
   20.3611  -16.9436  -14.1590 C   0  0  0  0  0  0  0  0  0  0  0  0
   20.1540  -16.6612  -15.5107 C   0  0  0  0  0  0  0  0  0  0  0  0
   24.0098  -18.9417  -16.8987 C   0  0  0  0  0  0  0  0  0  0  0  0
   24.2927  -19.7468  -17.8137 O   0  0  0  0  0  0  0  0  0  0  0  0
   28.5411  -17.5931  -14.6707 C   0  0  0  0  0  0  0  0  0  0  0  0
   27.4097  -18.2844  -15.3997 C   0  0  0  0  0  0  0  0  0  0  0  0
   26.8047  -19.3944  -14.5726 C   0  0  2  0  0  0  0  0  0  0  0  0
   27.8173  -20.4962  -14.2986 C   0  0  0  0  0  0  0  0  0  0  0  0
   25.6784  -20.0320  -15.3582 C   0  0  2  0  0  0  0  0  0  0  0  0
   24.6573  -19.0271  -15.6267 N   0  0  0  0  0  0  0  0  0  0  0  0
   25.0926  -21.1941  -14.6215 C   0  0  0  0  0  0  0  0  0  0  0  0
   25.8682  -22.1493  -14.2772 O   0  0  0  0  0  0  0  0  0  0  0  0
   23.7319  -21.2686  -14.2993 N   0  0  0  0  0  0  0  0  0  0  0  0
   23.3240  -21.4720  -12.8923 C   0  0  1  0  0  0  0  0  0  0  0  0
   23.9098  -20.3987  -12.0438 C   0  0  0  0  0  0  0  0  0  0  0  0
   23.4943  -20.5479  -10.6395 C   0  0  0  0  0  0  0  0  0  0  0  0
   24.2953  -21.1976   -9.6968 C   0  0  0  0  0  0  0  0  0  0  0  0
   23.9300  -21.3221   -8.3753 C   0  0  0  0  0  0  0  0  0  0  0  0
   22.7320  -20.7952   -7.9338 C   0  0  0  0  0  0  0  0  0  0  0  0
   21.9126  -20.1462   -8.8331 C   0  0  0  0  0  0  0  0  0  0  0  0
   22.2991  -20.0337  -10.1505 C   0  0  0  0  0  0  0  0  0  0  0  0
   21.8599  -21.4708  -12.8066 C   0  0  0  0  0  0  0  0  0  0  0  0
   21.1917  -22.2783  -11.9165 O   0  0  0  0  0  0  0  0  0  0  0  0
   21.1978  -20.7215  -13.5602 O   0  0  0  0  0  0  0  0  0  0  0  0
  2  1  1  6
  3  2  1  0
  4  3  1  0
  5  4  2  0
  6  5  1  0
  7  6  1  0
  7 12  2  0
  8  7  1  0
  9  8  2  0
  9 10  1  0
 10 11  2  0
 11 12  1  0
 12  4  1  0
 13  2  1  0
 14 13  2  0
 15 16  1  0
 16 17  1  0
 17 19  1  0
 17 18  1  6
 19 21  1  0
 19 20  1  1
 20 13  1  0
 21 23  1  0
 22 21  2  0
 23 24  1  0
 24 25  1  1
 25 26  1  0
 26 27  2  0
 27 28  1  0
 29 28  2  0
 30 29  1  0
 31 26  1  0
 31 30  2  0
 32 24  1  0
 32 33  1  0
 34 32  2  0
M  END
$$$$
