WIF.pdb
     RDKit          3D

 34 36  0  0  1  0  0  0  0  0999 V2000
   20.7394  -19.4492  -14.6949 N   0  0  0  0  0  0  0  0  0  0  0  0
   21.9026  -18.7755  -14.1862 C   0  0  1  0  0  0  0  0  0  0  0  0
   21.6320  -17.4540  -13.5794 C   0  0  0  0  0  0  0  0  0  0  0  0
   21.2681  -16.3878  -14.5076 C   0  0  0  0  0  0  0  0  0  0  0  0
   20.0105  -15.9533  -14.8551 C   0  0  0  0  0  0  0  0  0  0  0  0
   20.1714  -14.9600  -15.7353 N   0  0  0  0  0  0  0  0  0  0  0  0
   21.4827  -14.7313  -15.9740 C   0  0  0  0  0  0  0  0  0  0  0  0
   22.1329  -13.8200  -16.7958 C   0  0  0  0  0  0  0  0  0  0  0  0
   23.4921  -13.8252  -16.8297 C   0  0  0  0  0  0  0  0  0  0  0  0
   24.2534  -14.7017  -16.0786 C   0  0  0  0  0  0  0  0  0  0  0  0
   23.5781  -15.5941  -15.2727 C   0  0  0  0  0  0  0  0  0  0  0  0
   22.1838  -15.6259  -15.2052 C   0  0  0  0  0  0  0  0  0  0  0  0
   22.6749  -19.7030  -13.3340 C   0  0  0  0  0  0  0  0  0  0  0  0
   22.1044  -20.3980  -12.4640 O   0  0  0  0  0  0  0  0  0  0  0  0
   26.0540  -22.7215  -15.9479 C   0  0  0  0  0  0  0  0  0  0  0  0
   25.1259  -22.1592  -14.8934 C   0  0  0  0  0  0  0  0  0  0  0  0
   25.8801  -21.3880  -13.8357 C   0  0  2  0  0  0  0  0  0  0  0  0
   26.7988  -22.2989  -13.0353 C   0  0  0  0  0  0  0  0  0  0  0  0
   24.8869  -20.8077  -12.8514 C   0  0  2  0  0  0  0  0  0  0  0  0
   24.0893  -19.7901  -13.5245 N   0  0  0  0  0  0  0  0  0  0  0  0
   25.5790  -20.2302  -11.6583 C   0  0  0  0  0  0  0  0  0  0  0  0
   26.1745  -19.1069  -11.7853 O   0  0  0  0  0  0  0  0  0  0  0  0
   25.5955  -20.8759  -10.4158 N   0  0  0  0  0  0  0  0  0  0  0  0
   26.5329  -20.4190   -9.3670 C   0  0  1  0  0  0  0  0  0  0  0  0
   25.9010  -20.5812   -8.0293 C   0  0  0  0  0  0  0  0  0  0  0  0
   26.8105  -20.1438   -6.9576 C   0  0  0  0  0  0  0  0  0  0  0  0
   27.5984  -21.0489   -6.2417 C   0  0  0  0  0  0  0  0  0  0  0  0
   28.4713  -20.6507   -5.2544 C   0  0  0  0  0  0  0  0  0  0  0  0
   28.5954  -19.3124   -4.9363 C   0  0  0  0  0  0  0  0  0  0  0  0
   27.8353  -18.3869   -5.6198 C   0  0  0  0  0  0  0  0  0  0  0  0
   26.9686  -18.8089   -6.6040 C   0  0  0  0  0  0  0  0  0  0  0  0
   27.7770  -21.1903   -9.4587 C   0  0  0  0  0  0  0  0  0  0  0  0
   29.0070  -20.5847   -9.3531 O   0  0  0  0  0  0  0  0  0  0  0  0
   27.7242  -22.4280   -9.6397 O   0  0  0  0  0  0  0  0  0  0  0  0
  2  1  1  1
  3  2  1  0
  4  3  1  0
  5  4  2  0
  6  5  1  0
  7  6  1  0
  7 12  2  0
  8  7  1  0
  9  8  2  0
  9 10  1  0
 10 11  2  0
 11 12  1  0
 12  4  1  0
 13  2  1  0
 14 13  2  0
 15 16  1  0
 16 17  1  0
 17 19  1  0
 17 18  1  1
 19 21  1  0
 19 20  1  6
 20 13  1  0
 21 23  1  0
 22 21  2  0
 23 24  1  0
 24 25  1  1
 25 26  1  0
 26 27  2  0
 27 28  1  0
 29 28  2  0
 30 29  1  0
 31 26  1  0
 31 30  2  0
 32 24  1  0
 32 33  1  0
 34 32  2  0
M  END
$$$$
