YNY.pdb
     RDKit          3D

 33 34  0  0  1  0  0  0  0  0999 V2000
    8.2470  -12.4574   16.5699 O   0  0  0  0  0  0  0  0  0  0  0  0
    8.0635  -13.1615   17.7568 C   0  0  0  0  0  0  0  0  0  0  0  0
    8.5114  -12.6244   18.9347 C   0  0  0  0  0  0  0  0  0  0  0  0
    8.3707  -13.2575   20.1464 C   0  0  0  0  0  0  0  0  0  0  0  0
    7.7368  -14.5037   20.1323 C   0  0  0  0  0  0  0  0  0  0  0  0
    7.6176  -15.2384   21.4247 C   0  0  0  0  0  0  0  0  0  0  0  0
    9.0272  -15.4413   21.9590 C   0  0  2  0  0  0  0  0  0  0  0  0
    9.8297  -16.0310   20.8860 N   0  0  0  0  0  0  0  0  0  0  0  0
    9.0797  -16.2940   23.1482 C   0  0  0  0  0  0  0  0  0  0  0  0
    8.2259  -16.1895   24.0805 O   0  0  0  0  0  0  0  0  0  0  0  0
    7.2653  -15.0889   18.9715 C   0  0  0  0  0  0  0  0  0  0  0  0
    7.4399  -14.3951   17.7725 C   0  0  0  0  0  0  0  0  0  0  0  0
   11.1191  -20.6526   22.1563 N   0  0  0  0  0  0  0  0  0  0  0  0
   10.3725  -20.2017   23.2681 C   0  0  0  0  0  0  0  0  0  0  0  0
    9.1753  -20.5015   23.4103 O   0  0  0  0  0  0  0  0  0  0  0  0
   11.0187  -19.3555   24.3018 C   0  0  0  0  0  0  0  0  0  0  0  0
   10.2513  -18.0675   24.5399 C   0  0  2  0  0  0  0  0  0  0  0  0
   10.0679  -17.2985   23.3630 N   0  0  0  0  0  0  0  0  0  0  0  0
   10.9205  -17.3572   25.6519 C   0  0  0  0  0  0  0  0  0  0  0  0
   11.9865  -17.7858   26.1771 O   0  0  0  0  0  0  0  0  0  0  0  0
    5.1812  -12.9027   27.2605 O   0  0  0  0  0  0  0  0  0  0  0  0
    6.5476  -13.1340   27.2619 C   0  0  0  0  0  0  0  0  0  0  0  0
    7.3772  -12.6506   28.2564 C   0  0  0  0  0  0  0  0  0  0  0  0
    8.7572  -12.9058   28.2286 C   0  0  0  0  0  0  0  0  0  0  0  0
    9.3109  -13.6477   27.2048 C   0  0  0  0  0  0  0  0  0  0  0  0
   10.7504  -13.9155   27.1554 C   0  0  0  0  0  0  0  0  0  0  0  0
   11.0677  -15.3647   27.2270 C   0  0  2  0  0  0  0  0  0  0  0  0
   10.4136  -16.1500   26.2073 N   0  0  0  0  0  0  0  0  0  0  0  0
   10.7967  -15.9591   28.5242 C   0  0  0  0  0  0  0  0  0  0  0  0
    9.9095  -16.8551   28.7095 O   0  0  0  0  0  0  0  0  0  0  0  0
    8.4474  -14.1177   26.2211 C   0  0  0  0  0  0  0  0  0  0  0  0
    7.0954  -13.8756   26.2345 C   0  0  0  0  0  0  0  0  0  0  0  0
   11.5125  -15.5706   29.6721 O   0  0  0  0  0  0  0  0  0  0  0  0
  2 12  2  0
  2  1  1  0
  3  2  1  0
  4  5  1  0
  4  3  2  0
  5 11  2  0
  6  5  1  0
  7  6  1  0
  7  8  1  6
  9  7  1  0
  9 10  2  0
 11 12  1  0
 13 14  1  0
 14 15  2  0
 16 14  1  0
 17 16  1  6
 17 18  1  0
 18  9  1  0
 19 20  2  0
 19 17  1  0
 22 21  1  0
 22 23  2  0
 24 23  1  0
 25 24  2  0
 26 25  1  0
 27 28  1  0
 27 26  1  1
 28 19  1  0
 29 27  1  0
 30 29  2  0
 31 32  2  0
 31 25  1  0
 32 22  1  0
 33 29  1  0
M  END
$$$$
