YNY.pdb
     RDKit          3D

 33 34  0  0  1  0  0  0  0  0999 V2000
    9.5111  -19.6965    6.5152 O   0  0  0  0  0  0  0  0  0  0  0  0
    9.5805  -19.9229    7.8871 C   0  0  0  0  0  0  0  0  0  0  0  0
    9.8362  -18.8743    8.7307 C   0  0  0  0  0  0  0  0  0  0  0  0
    9.9227  -19.0163   10.0949 C   0  0  0  0  0  0  0  0  0  0  0  0
    9.7356  -20.3051   10.6039 C   0  0  0  0  0  0  0  0  0  0  0  0
    9.8767  -20.4992   12.0758 C   0  0  0  0  0  0  0  0  0  0  0  0
    8.4834  -20.7492   12.6327 C   0  0  2  0  0  0  0  0  0  0  0  0
    7.7098  -19.5174   12.4668 N   0  0  0  0  0  0  0  0  0  0  0  0
    8.4850  -21.1521   14.0403 C   0  0  0  0  0  0  0  0  0  0  0  0
    7.6041  -20.7363   14.8529 O   0  0  0  0  0  0  0  0  0  0  0  0
    9.4737  -21.3965    9.7962 C   0  0  0  0  0  0  0  0  0  0  0  0
    9.3992  -21.1863    8.4178 C   0  0  0  0  0  0  0  0  0  0  0  0
    6.8586  -23.6638   18.3259 N   0  0  0  0  0  0  0  0  0  0  0  0
    8.0710  -23.8114   17.6151 C   0  0  0  0  0  0  0  0  0  0  0  0
    9.0813  -24.2979   18.1498 O   0  0  0  0  0  0  0  0  0  0  0  0
    8.1553  -23.3869   16.1957 C   0  0  0  0  0  0  0  0  0  0  0  0
    9.4163  -22.5889   15.9172 C   0  0  2  0  0  0  0  0  0  0  0  0
    9.4499  -22.0301   14.6148 N   0  0  0  0  0  0  0  0  0  0  0  0
   10.5672  -23.4552   16.2550 C   0  0  0  0  0  0  0  0  0  0  0  0
   10.8505  -24.4870   15.5834 O   0  0  0  0  0  0  0  0  0  0  0  0
   19.1928  -22.5515   17.7553 O   0  0  0  0  0  0  0  0  0  0  0  0
   17.8122  -22.4679   17.8420 C   0  0  0  0  0  0  0  0  0  0  0  0
   17.1053  -23.0029   18.9028 C   0  0  0  0  0  0  0  0  0  0  0  0
   15.7068  -22.8980   18.9606 C   0  0  0  0  0  0  0  0  0  0  0  0
   15.0113  -22.2553   17.9562 C   0  0  0  0  0  0  0  0  0  0  0  0
   13.5511  -22.1451   17.9962 C   0  0  0  0  0  0  0  0  0  0  0  0
   12.8708  -23.2793   17.3205 C   0  0  2  0  0  0  0  0  0  0  0  0
   11.4301  -23.1913   17.3543 N   0  0  0  0  0  0  0  0  0  0  0  0
   13.2740  -24.5830   17.8178 C   0  0  0  0  0  0  0  0  0  0  0  0
   12.6921  -25.1703   18.7878 O   0  0  0  0  0  0  0  0  0  0  0  0
   15.7540  -21.7297   16.9044 C   0  0  0  0  0  0  0  0  0  0  0  0
   17.1225  -21.8250   16.8338 C   0  0  0  0  0  0  0  0  0  0  0  0
   14.3519  -25.2842   17.2456 O   0  0  0  0  0  0  0  0  0  0  0  0
  2 12  2  0
  2  1  1  0
  3  2  1  0
  4  5  1  0
  4  3  2  0
  5 11  2  0
  6  5  1  0
  7  6  1  0
  7  8  1  1
  9  7  1  0
  9 10  2  0
 11 12  1  0
 13 14  1  0
 14 15  2  0
 16 14  1  0
 17 16  1  6
 17 18  1  0
 18  9  1  0
 19 20  2  0
 19 17  1  0
 22 21  1  0
 22 23  2  0
 24 23  1  0
 25 24  2  0
 26 25  1  0
 27 28  1  0
 27 26  1  1
 28 19  1  0
 29 27  1  0
 30 29  2  0
 31 32  2  0
 31 25  1  0
 32 22  1  0
 33 29  1  0
M  END
$$$$
