YNY.pdb
     RDKit          3D

 33 34  0  0  1  0  0  0  0  0999 V2000
   15.2909  -22.7615    9.7622 O   0  0  0  0  0  0  0  0  0  0  0  0
   14.9609  -22.3893   11.0625 C   0  0  0  0  0  0  0  0  0  0  0  0
   15.8483  -21.6474   11.7964 C   0  0  0  0  0  0  0  0  0  0  0  0
   15.5981  -21.2433   13.0860 C   0  0  0  0  0  0  0  0  0  0  0  0
   14.3716  -21.6280   13.6363 C   0  0  0  0  0  0  0  0  0  0  0  0
   14.0948  -21.2496   15.0521 C   0  0  0  0  0  0  0  0  0  0  0  0
   12.9662  -20.2299   15.0333 C   0  0  2  0  0  0  0  0  0  0  0  0
   13.4786  -19.0098   14.4073 N   0  0  0  0  0  0  0  0  0  0  0  0
   12.4382  -19.9244   16.3644 C   0  0  0  0  0  0  0  0  0  0  0  0
   12.9886  -19.0651   17.1179 O   0  0  0  0  0  0  0  0  0  0  0  0
   13.4409  -22.3751   12.9379 C   0  0  0  0  0  0  0  0  0  0  0  0
   13.7556  -22.7552   11.6317 C   0  0  0  0  0  0  0  0  0  0  0  0
   10.2273  -22.9291   17.3747 N   0  0  0  0  0  0  0  0  0  0  0  0
    9.1338  -22.2007   17.8949 C   0  0  0  0  0  0  0  0  0  0  0  0
    7.9965  -22.6960   17.9598 O   0  0  0  0  0  0  0  0  0  0  0  0
    9.3320  -20.8141   18.3849 C   0  0  0  0  0  0  0  0  0  0  0  0
   10.7726  -20.3603   18.2327 C   0  0  2  0  0  0  0  0  0  0  0  0
   11.2833  -20.5455   16.9232 N   0  0  0  0  0  0  0  0  0  0  0  0
   11.5541  -21.0133   19.3059 C   0  0  0  0  0  0  0  0  0  0  0  0
   11.9880  -22.1946   19.1963 O   0  0  0  0  0  0  0  0  0  0  0  0
   17.5470  -20.6015   17.5629 O   0  0  0  0  0  0  0  0  0  0  0  0
   16.6668  -20.5423   18.6317 C   0  0  0  0  0  0  0  0  0  0  0  0
   16.5964  -21.5397   19.5863 C   0  0  0  0  0  0  0  0  0  0  0  0
   15.6949  -21.4467   20.6580 C   0  0  0  0  0  0  0  0  0  0  0  0
   14.8611  -20.3531   20.7780 C   0  0  0  0  0  0  0  0  0  0  0  0
   13.9078  -20.2447   21.8850 C   0  0  0  0  0  0  0  0  0  0  0  0
   12.6277  -20.9466   21.6115 C   0  0  2  0  0  0  0  0  0  0  0  0
   11.8686  -20.3629   20.5309 N   0  0  0  0  0  0  0  0  0  0  0  0
   11.7687  -21.0709   22.7760 C   0  0  0  0  0  0  0  0  0  0  0  0
   10.5795  -20.6144   22.8178 O   0  0  0  0  0  0  0  0  0  0  0  0
   14.9580  -19.3693   19.7998 C   0  0  0  0  0  0  0  0  0  0  0  0
   15.8348  -19.4467   18.7452 C   0  0  0  0  0  0  0  0  0  0  0  0
   12.2106  -21.7145   23.9470 O   0  0  0  0  0  0  0  0  0  0  0  0
  2 12  2  0
  2  1  1  0
  3  2  1  0
  4  5  1  0
  4  3  2  0
  5 11  2  0
  6  5  1  0
  7  6  1  0
  7  8  1  1
  9  7  1  0
  9 10  2  0
 11 12  1  0
 13 14  1  0
 14 15  2  0
 16 14  1  0
 17 16  1  6
 17 18  1  0
 18  9  1  0
 19 20  2  0
 19 17  1  0
 22 21  1  0
 22 23  2  0
 24 23  1  0
 25 24  2  0
 26 25  1  0
 27 28  1  0
 27 26  1  1
 28 19  1  0
 29 27  1  0
 30 29  2  0
 31 32  2  0
 31 25  1  0
 32 22  1  0
 33 29  1  0
M  END
$$$$
