YNY.pdb
     RDKit          3D

 33 34  0  0  1  0  0  0  0  0999 V2000
   12.0555  -20.1540   12.8171 O   0  0  0  0  0  0  0  0  0  0  0  0
   11.8742  -20.1703   14.1974 C   0  0  0  0  0  0  0  0  0  0  0  0
   11.2097  -21.2185   14.7771 C   0  0  0  0  0  0  0  0  0  0  0  0
   10.9881  -21.3065   16.1306 C   0  0  0  0  0  0  0  0  0  0  0  0
   11.4788  -20.2583   16.9153 C   0  0  0  0  0  0  0  0  0  0  0  0
   11.2068  -20.3000   18.3810 C   0  0  0  0  0  0  0  0  0  0  0  0
    9.7269  -20.0052   18.5730 C   0  0  2  0  0  0  0  0  0  0  0  0
    9.4579  -18.6847   18.0009 N   0  0  0  0  0  0  0  0  0  0  0  0
    9.3061  -20.0372   19.9750 C   0  0  0  0  0  0  0  0  0  0  0  0
    9.0767  -18.9728   20.6258 O   0  0  0  0  0  0  0  0  0  0  0  0
   12.1571  -19.1786   16.3801 C   0  0  0  0  0  0  0  0  0  0  0  0
   12.3489  -19.1478   14.9974 C   0  0  0  0  0  0  0  0  0  0  0  0
    9.7271  -23.6112   20.8363 N   0  0  0  0  0  0  0  0  0  0  0  0
    8.6374  -23.7885   21.7184 C   0  0  0  0  0  0  0  0  0  0  0  0
    8.1232  -24.9050   21.8979 O   0  0  0  0  0  0  0  0  0  0  0  0
    8.0866  -22.6271   22.4598 C   0  0  0  0  0  0  0  0  0  0  0  0
    8.7984  -21.3357   22.0989 C   0  0  2  0  0  0  0  0  0  0  0  0
    9.1161  -21.2371   20.7207 N   0  0  0  0  0  0  0  0  0  0  0  0
    9.9507  -21.1986   23.0167 C   0  0  0  0  0  0  0  0  0  0  0  0
   11.0683  -21.7359   22.7757 O   0  0  0  0  0  0  0  0  0  0  0  0
   13.1521  -16.7163   20.2442 O   0  0  0  0  0  0  0  0  0  0  0  0
   12.6936  -17.2117   21.4546 C   0  0  0  0  0  0  0  0  0  0  0  0
   11.4168  -16.9586   21.9199 C   0  0  0  0  0  0  0  0  0  0  0  0
   10.9836  -17.4784   23.1497 C   0  0  0  0  0  0  0  0  0  0  0  0
   11.8280  -18.2549   23.9174 C   0  0  0  0  0  0  0  0  0  0  0  0
   11.3952  -18.7975   25.2075 C   0  0  0  0  0  0  0  0  0  0  0  0
   10.9910  -20.2242   25.1241 C   0  0  2  0  0  0  0  0  0  0  0  0
    9.8824  -20.4588   24.2294 N   0  0  0  0  0  0  0  0  0  0  0  0
   10.6900  -20.8228   26.4127 C   0  0  0  0  0  0  0  0  0  0  0  0
    9.5456  -21.2978   26.7112 O   0  0  0  0  0  0  0  0  0  0  0  0
   13.1052  -18.4888   23.4192 C   0  0  0  0  0  0  0  0  0  0  0  0
   13.5434  -17.9865   22.2182 C   0  0  0  0  0  0  0  0  0  0  0  0
   11.6645  -20.9130   27.4242 O   0  0  0  0  0  0  0  0  0  0  0  0
  2 12  2  0
  2  1  1  0
  3  2  1  0
  4  5  1  0
  4  3  2  0
  5 11  2  0
  6  5  1  0
  7  6  1  0
  7  8  1  1
  9  7  1  0
  9 10  2  0
 11 12  1  0
 13 14  1  0
 14 15  2  0
 16 14  1  0
 17 16  1  6
 17 18  1  0
 18  9  1  0
 19 20  2  0
 19 17  1  0
 22 21  1  0
 22 23  2  0
 24 23  1  0
 25 24  2  0
 26 25  1  0
 27 28  1  0
 27 26  1  1
 28 19  1  0
 29 27  1  0
 30 29  2  0
 31 32  2  0
 31 25  1  0
 32 22  1  0
 33 29  1  0
M  END
$$$$
