YNY.pdb
     RDKit          3D

 33 34  0  0  1  0  0  0  0  0999 V2000
    6.9297  -13.0046   16.1201 O   0  0  0  0  0  0  0  0  0  0  0  0
    7.1956  -13.3978   17.4289 C   0  0  0  0  0  0  0  0  0  0  0  0
    8.4649  -13.7818   17.7721 C   0  0  0  0  0  0  0  0  0  0  0  0
    8.8067  -14.1853   19.0407 C   0  0  0  0  0  0  0  0  0  0  0  0
    7.7835  -14.1900   19.9937 C   0  0  0  0  0  0  0  0  0  0  0  0
    8.1124  -14.6739   21.3654 C   0  0  0  0  0  0  0  0  0  0  0  0
    8.0141  -16.1917   21.3431 C   0  0  2  0  0  0  0  0  0  0  0  0
    6.5947  -16.5469   21.3907 N   0  0  0  0  0  0  0  0  0  0  0  0
    8.7273  -16.8355   22.4480 C   0  0  0  0  0  0  0  0  0  0  0  0
    8.2717  -16.8229   23.6318 O   0  0  0  0  0  0  0  0  0  0  0  0
    6.4868  -13.8104   19.6994 C   0  0  0  0  0  0  0  0  0  0  0  0
    6.2037  -13.4117   18.3915 C   0  0  0  0  0  0  0  0  0  0  0  0
   10.5851  -21.1912   23.7837 N   0  0  0  0  0  0  0  0  0  0  0  0
   10.8714  -20.2726   22.7488 C   0  0  0  0  0  0  0  0  0  0  0  0
   10.4266  -20.4306   21.5997 O   0  0  0  0  0  0  0  0  0  0  0  0
   11.7154  -19.0836   23.0247 C   0  0  0  0  0  0  0  0  0  0  0  0
   10.8790  -17.8551   23.3342 C   0  0  2  0  0  0  0  0  0  0  0  0
    9.9675  -17.5226   22.3005 N   0  0  0  0  0  0  0  0  0  0  0  0
   11.8131  -16.7729   23.7151 C   0  0  0  0  0  0  0  0  0  0  0  0
   12.5937  -16.2353   22.8800 O   0  0  0  0  0  0  0  0  0  0  0  0
   10.4356  -17.5047   30.9304 O   0  0  0  0  0  0  0  0  0  0  0  0
   10.8688  -16.7232   29.8711 C   0  0  0  0  0  0  0  0  0  0  0  0
   12.1002  -16.0950   29.8722 C   0  0  0  0  0  0  0  0  0  0  0  0
   12.5090  -15.3125   28.7810 C   0  0  0  0  0  0  0  0  0  0  0  0
   11.6858  -15.1576   27.6838 C   0  0  0  0  0  0  0  0  0  0  0  0
   12.0930  -14.3369   26.5407 C   0  0  0  0  0  0  0  0  0  0  0  0
   12.7033  -15.1365   25.4480 C   0  0  2  0  0  0  0  0  0  0  0  0
   11.9003  -16.2652   25.0408 N   0  0  0  0  0  0  0  0  0  0  0  0
   14.0484  -15.5984   25.7426 C   0  0  0  0  0  0  0  0  0  0  0  0
   15.0282  -14.8091   25.9460 O   0  0  0  0  0  0  0  0  0  0  0  0
   10.4543  -15.8028   27.7167 C   0  0  0  0  0  0  0  0  0  0  0  0
   10.0403  -16.5712   28.7774 C   0  0  0  0  0  0  0  0  0  0  0  0
   14.3512  -16.9706   25.8209 O   0  0  0  0  0  0  0  0  0  0  0  0
  2 12  2  0
  2  1  1  0
  3  2  1  0
  4  5  1  0
  4  3  2  0
  5 11  2  0
  6  5  1  0
  7  6  1  0
  7  8  1  1
  9  7  1  0
  9 10  2  0
 11 12  1  0
 13 14  1  0
 14 15  2  0
 16 14  1  0
 17 16  1  6
 17 18  1  0
 18  9  1  0
 19 20  2  0
 19 17  1  0
 22 21  1  0
 22 23  2  0
 24 23  1  0
 25 24  2  0
 26 25  1  0
 27 28  1  0
 27 26  1  1
 28 19  1  0
 29 27  1  0
 30 29  2  0
 31 32  2  0
 31 25  1  0
 32 22  1  0
 33 29  1  0
M  END
$$$$
