YNY.pdb
     RDKit          3D

 33 34  0  0  1  0  0  0  0  0999 V2000
    7.2540  -11.7335   17.6198 O   0  0  0  0  0  0  0  0  0  0  0  0
    7.5210  -12.4801   18.7642 C   0  0  0  0  0  0  0  0  0  0  0  0
    6.4992  -13.1466   19.3872 C   0  0  0  0  0  0  0  0  0  0  0  0
    6.6809  -13.9017   20.5211 C   0  0  0  0  0  0  0  0  0  0  0  0
    7.9819  -13.9660   21.0293 C   0  0  0  0  0  0  0  0  0  0  0  0
    8.1997  -14.7341   22.2889 C   0  0  0  0  0  0  0  0  0  0  0  0
    8.6911  -16.1182   21.8931 C   0  0  2  0  0  0  0  0  0  0  0  0
    7.5584  -16.8453   21.3174 N   0  0  0  0  0  0  0  0  0  0  0  0
    9.2540  -16.8760   23.0124 C   0  0  0  0  0  0  0  0  0  0  0  0
    8.5213  -17.5651   23.7853 O   0  0  0  0  0  0  0  0  0  0  0  0
    9.0480  -13.3136   20.4379 C   0  0  0  0  0  0  0  0  0  0  0  0
    8.7975  -12.5617   19.2883 C   0  0  0  0  0  0  0  0  0  0  0  0
   12.6040  -20.2296   23.1258 N   0  0  0  0  0  0  0  0  0  0  0  0
   12.8013  -18.8350   23.0105 C   0  0  0  0  0  0  0  0  0  0  0  0
   13.0748  -18.3066   21.9200 O   0  0  0  0  0  0  0  0  0  0  0  0
   12.6765  -17.9667   24.2074 C   0  0  0  0  0  0  0  0  0  0  0  0
   11.2397  -17.5413   24.4508 C   0  0  2  0  0  0  0  0  0  0  0  0
   10.6434  -16.9126   23.3287 N   0  0  0  0  0  0  0  0  0  0  0  0
   11.2237  -16.7422   25.6959 C   0  0  0  0  0  0  0  0  0  0  0  0
   11.9881  -15.7512   25.8673 O   0  0  0  0  0  0  0  0  0  0  0  0
    6.8436  -11.9174   24.8961 O   0  0  0  0  0  0  0  0  0  0  0  0
    7.3292  -12.9042   25.7393 C   0  0  0  0  0  0  0  0  0  0  0  0
    6.7956  -14.1791   25.7682 C   0  0  0  0  0  0  0  0  0  0  0  0
    7.3135  -15.1558   26.6330 C   0  0  0  0  0  0  0  0  0  0  0  0
    8.3692  -14.8591   27.4714 C   0  0  0  0  0  0  0  0  0  0  0  0
    8.9157  -15.8638   28.3868 C   0  0  0  0  0  0  0  0  0  0  0  0
   10.2906  -16.2885   28.0189 C   0  0  2  0  0  0  0  0  0  0  0  0
   10.3538  -17.0323   26.7831 N   0  0  0  0  0  0  0  0  0  0  0  0
   10.9664  -17.0452   29.0581 C   0  0  0  0  0  0  0  0  0  0  0  0
   11.3658  -18.2451   28.8998 O   0  0  0  0  0  0  0  0  0  0  0  0
    8.8810  -13.5671   27.4165 C   0  0  0  0  0  0  0  0  0  0  0  0
    8.3843  -12.6007   26.5761 C   0  0  0  0  0  0  0  0  0  0  0  0
   11.2225  -16.4849   30.3236 O   0  0  0  0  0  0  0  0  0  0  0  0
  2 12  2  0
  2  1  1  0
  3  2  1  0
  4  5  1  0
  4  3  2  0
  5 11  2  0
  6  5  1  0
  7  6  1  0
  7  8  1  1
  9  7  1  0
  9 10  2  0
 11 12  1  0
 13 14  1  0
 14 15  2  0
 16 14  1  0
 17 16  1  6
 17 18  1  0
 18  9  1  0
 19 20  2  0
 19 17  1  0
 22 21  1  0
 22 23  2  0
 24 23  1  0
 25 24  2  0
 26 25  1  0
 27 28  1  0
 27 26  1  1
 28 19  1  0
 29 27  1  0
 30 29  2  0
 31 32  2  0
 31 25  1  0
 32 22  1  0
 33 29  1  0
M  END
$$$$
