YNY.pdb
     RDKit          3D

 33 34  0  0  1  0  0  0  0  0999 V2000
   15.5672  -12.2439    7.8634 O   0  0  0  0  0  0  0  0  0  0  0  0
   14.9803  -12.6700    9.0518 C   0  0  0  0  0  0  0  0  0  0  0  0
   15.6044  -12.4085   10.2429 C   0  0  0  0  0  0  0  0  0  0  0  0
   15.0913  -12.7977   11.4570 C   0  0  0  0  0  0  0  0  0  0  0  0
   13.8764  -13.4894   11.4312 C   0  0  0  0  0  0  0  0  0  0  0  0
   13.3222  -13.9711   12.7292 C   0  0  0  0  0  0  0  0  0  0  0  0
   14.3790  -14.8590   13.3684 C   0  0  2  0  0  0  0  0  0  0  0  0
   14.5499  -16.0346   12.5127 N   0  0  0  0  0  0  0  0  0  0  0  0
   14.0391  -15.2775   14.7297 C   0  0  0  0  0  0  0  0  0  0  0  0
   13.8491  -14.4337   15.6577 O   0  0  0  0  0  0  0  0  0  0  0  0
   13.2055  -13.7773   10.2568 C   0  0  0  0  0  0  0  0  0  0  0  0
   13.7798  -13.3554    9.0560 C   0  0  0  0  0  0  0  0  0  0  0  0
   11.6882  -19.0713   14.4586 N   0  0  0  0  0  0  0  0  0  0  0  0
   11.7843  -18.7069   15.8206 C   0  0  0  0  0  0  0  0  0  0  0  0
   10.7714  -18.5156   16.5139 O   0  0  0  0  0  0  0  0  0  0  0  0
   13.1169  -18.5513   16.4546 C   0  0  0  0  0  0  0  0  0  0  0  0
   13.5895  -17.1088   16.4323 C   0  0  2  0  0  0  0  0  0  0  0  0
   13.8901  -16.6376   15.1294 N   0  0  0  0  0  0  0  0  0  0  0  0
   14.6955  -16.9943   17.4083 C   0  0  0  0  0  0  0  0  0  0  0  0
   15.8696  -17.3754   17.1400 O   0  0  0  0  0  0  0  0  0  0  0  0
   18.4790  -12.0063   15.7568 O   0  0  0  0  0  0  0  0  0  0  0  0
   17.7833  -12.6554   16.7644 C   0  0  0  0  0  0  0  0  0  0  0  0
   16.4149  -12.5308   16.9154 C   0  0  0  0  0  0  0  0  0  0  0  0
   15.7410  -13.2048   17.9459 C   0  0  0  0  0  0  0  0  0  0  0  0
   16.4358  -14.0073   18.8283 C   0  0  0  0  0  0  0  0  0  0  0  0
   15.7495  -14.7103   19.9150 C   0  0  0  0  0  0  0  0  0  0  0  0
   15.5794  -16.1606   19.6436 C   0  0  2  0  0  0  0  0  0  0  0  0
   14.5165  -16.4526   18.7112 N   0  0  0  0  0  0  0  0  0  0  0  0
   15.3879  -16.9607   20.8405 C   0  0  0  0  0  0  0  0  0  0  0  0
   14.3367  -17.6471   21.0602 O   0  0  0  0  0  0  0  0  0  0  0  0
   17.8109  -14.1093   18.6474 C   0  0  0  0  0  0  0  0  0  0  0  0
   18.4841  -13.4555   17.6444 C   0  0  0  0  0  0  0  0  0  0  0  0
   16.3717  -17.0236   21.8450 O   0  0  0  0  0  0  0  0  0  0  0  0
  2 12  2  0
  2  1  1  0
  3  2  1  0
  4  5  1  0
  4  3  2  0
  5 11  2  0
  6  5  1  0
  7  6  1  0
  7  8  1  6
  9  7  1  0
  9 10  2  0
 11 12  1  0
 13 14  1  0
 14 15  2  0
 16 14  1  0
 17 16  1  6
 17 18  1  0
 18  9  1  0
 19 20  2  0
 19 17  1  0
 22 21  1  0
 22 23  2  0
 24 23  1  0
 25 24  2  0
 26 25  1  0
 27 28  1  0
 27 26  1  1
 28 19  1  0
 29 27  1  0
 30 29  2  0
 31 32  2  0
 31 25  1  0
 32 22  1  0
 33 29  1  0
M  END
$$$$
