YNY.pdb
     RDKit          3D

 33 34  0  0  1  0  0  0  0  0999 V2000
    6.7668  -14.2981   16.9270 O   0  0  0  0  0  0  0  0  0  0  0  0
    7.9900  -14.1054   17.5633 C   0  0  0  0  0  0  0  0  0  0  0  0
    9.0944  -14.7832   17.1191 C   0  0  0  0  0  0  0  0  0  0  0  0
   10.3352  -14.6496   17.6947 C   0  0  0  0  0  0  0  0  0  0  0  0
   10.4314  -13.7732   18.7799 C   0  0  0  0  0  0  0  0  0  0  0  0
   11.7536  -13.6484   19.4585 C   0  0  0  0  0  0  0  0  0  0  0  0
   12.0758  -15.0036   20.0696 C   0  0  2  0  0  0  0  0  0  0  0  0
   11.9591  -16.0084   19.0114 N   0  0  0  0  0  0  0  0  0  0  0  0
   11.2035  -15.3562   21.1915 C   0  0  0  0  0  0  0  0  0  0  0  0
   10.9613  -14.5373   22.1295 O   0  0  0  0  0  0  0  0  0  0  0  0
    9.3481  -13.0644   19.2660 C   0  0  0  0  0  0  0  0  0  0  0  0
    8.1142  -13.2450   18.6380 C   0  0  0  0  0  0  0  0  0  0  0  0
    8.5340  -19.3585   19.9392 N   0  0  0  0  0  0  0  0  0  0  0  0
    8.2481  -18.4442   20.9780 C   0  0  0  0  0  0  0  0  0  0  0  0
    7.2813  -17.6670   20.9103 O   0  0  0  0  0  0  0  0  0  0  0  0
    9.1077  -18.4023   22.1870 C   0  0  0  0  0  0  0  0  0  0  0  0
    9.7212  -17.0299   22.3982 C   0  0  2  0  0  0  0  0  0  0  0  0
   10.5580  -16.6195   21.3299 N   0  0  0  0  0  0  0  0  0  0  0  0
   10.3667  -17.0380   23.7294 C   0  0  0  0  0  0  0  0  0  0  0  0
   11.4931  -17.5750   23.9259 O   0  0  0  0  0  0  0  0  0  0  0  0
    5.5560  -12.1919   26.8776 O   0  0  0  0  0  0  0  0  0  0  0  0
    6.7754  -12.8413   26.7676 C   0  0  0  0  0  0  0  0  0  0  0  0
    7.3277  -13.1729   25.5445 C   0  0  0  0  0  0  0  0  0  0  0  0
    8.5665  -13.8283   25.4691 C   0  0  0  0  0  0  0  0  0  0  0  0
    9.2575  -14.1528   26.6192 C   0  0  0  0  0  0  0  0  0  0  0  0
   10.5471  -14.8452   26.5588 C   0  0  0  0  0  0  0  0  0  0  0  0
   10.4165  -16.2682   26.1538 C   0  0  2  0  0  0  0  0  0  0  0  0
    9.7679  -16.4478   24.8765 N   0  0  0  0  0  0  0  0  0  0  0  0
    9.7486  -17.0980   27.1411 C   0  0  0  0  0  0  0  0  0  0  0  0
    8.6695  -17.7333   26.9036 O   0  0  0  0  0  0  0  0  0  0  0  0
    8.6724  -13.8050   27.8320 C   0  0  0  0  0  0  0  0  0  0  0  0
    7.4608  -13.1641   27.9216 C   0  0  0  0  0  0  0  0  0  0  0  0
   10.2654  -17.2494   28.4414 O   0  0  0  0  0  0  0  0  0  0  0  0
  2 12  2  0
  2  1  1  0
  3  2  1  0
  4  5  1  0
  4  3  2  0
  5 11  2  0
  6  5  1  0
  7  6  1  0
  7  8  1  6
  9  7  1  0
  9 10  2  0
 11 12  1  0
 13 14  1  0
 14 15  2  0
 16 14  1  0
 17 16  1  6
 17 18  1  0
 18  9  1  0
 19 20  2  0
 19 17  1  0
 22 21  1  0
 22 23  2  0
 24 23  1  0
 25 24  2  0
 26 25  1  0
 27 28  1  0
 27 26  1  1
 28 19  1  0
 29 27  1  0
 30 29  2  0
 31 32  2  0
 31 25  1  0
 32 22  1  0
 33 29  1  0
M  END
$$$$
