YNY.pdb
     RDKit          3D

 33 34  0  0  1  0  0  0  0  0999 V2000
    7.8854  -12.2417   17.2262 O   0  0  0  0  0  0  0  0  0  0  0  0
    7.7274  -13.0502   18.3485 C   0  0  0  0  0  0  0  0  0  0  0  0
    8.0592  -12.5600   19.5838 C   0  0  0  0  0  0  0  0  0  0  0  0
    7.9347  -13.2955   20.7382 C   0  0  0  0  0  0  0  0  0  0  0  0
    7.4440  -14.5977   20.6016 C   0  0  0  0  0  0  0  0  0  0  0  0
    7.3485  -15.4378   21.8301 C   0  0  0  0  0  0  0  0  0  0  0  0
    8.7407  -15.5044   22.4395 C   0  0  2  0  0  0  0  0  0  0  0  0
    9.6768  -15.8648   21.3731 N   0  0  0  0  0  0  0  0  0  0  0  0
    8.8463  -16.4625   23.5416 C   0  0  0  0  0  0  0  0  0  0  0  0
    7.9446  -16.5590   24.4286 O   0  0  0  0  0  0  0  0  0  0  0  0
    7.0933  -15.1394   19.3786 C   0  0  0  0  0  0  0  0  0  0  0  0
    7.2442  -14.3411   18.2430 C   0  0  0  0  0  0  0  0  0  0  0  0
    9.3828  -20.0302   22.8203 N   0  0  0  0  0  0  0  0  0  0  0  0
   10.6609  -20.2356   23.3872 C   0  0  0  0  0  0  0  0  0  0  0  0
   11.4117  -21.1394   22.9840 O   0  0  0  0  0  0  0  0  0  0  0  0
   11.1353  -19.3571   24.4851 C   0  0  0  0  0  0  0  0  0  0  0  0
   10.1415  -18.2525   24.7959 C   0  0  2  0  0  0  0  0  0  0  0  0
    9.9427  -17.3568   23.7151 N   0  0  0  0  0  0  0  0  0  0  0  0
   10.5720  -17.6183   26.0614 C   0  0  0  0  0  0  0  0  0  0  0  0
   10.9645  -18.2963   27.0523 O   0  0  0  0  0  0  0  0  0  0  0  0
    5.6194  -12.1847   26.4294 O   0  0  0  0  0  0  0  0  0  0  0  0
    6.9047  -12.6315   26.6920 C   0  0  0  0  0  0  0  0  0  0  0  0
    7.5049  -12.4693   27.9267 C   0  0  0  0  0  0  0  0  0  0  0  0
    8.8079  -12.9365   28.1595 C   0  0  0  0  0  0  0  0  0  0  0  0
    9.5139  -13.5692   27.1563 C   0  0  0  0  0  0  0  0  0  0  0  0
   10.8780  -14.0545   27.3795 C   0  0  0  0  0  0  0  0  0  0  0  0
   10.9531  -15.5350   27.4712 C   0  0  2  0  0  0  0  0  0  0  0  0
   10.5726  -16.2089   26.2524 N   0  0  0  0  0  0  0  0  0  0  0  0
   10.1899  -16.0919   28.5743 C   0  0  0  0  0  0  0  0  0  0  0  0
   10.4655  -15.8656   29.7979 O   0  0  0  0  0  0  0  0  0  0  0  0
    8.8800  -13.7148   25.9271 C   0  0  0  0  0  0  0  0  0  0  0  0
    7.6060  -13.2624   25.6841 C   0  0  0  0  0  0  0  0  0  0  0  0
    9.0818  -16.9299   28.3492 O   0  0  0  0  0  0  0  0  0  0  0  0
  2 12  2  0
  2  1  1  0
  3  2  1  0
  4  5  1  0
  4  3  2  0
  5 11  2  0
  6  5  1  0
  7  6  1  0
  7  8  1  6
  9  7  1  0
  9 10  2  0
 11 12  1  0
 13 14  1  0
 14 15  2  0
 16 14  1  0
 17 16  1  6
 17 18  1  0
 18  9  1  0
 19 20  2  0
 19 17  1  0
 22 21  1  0
 22 23  2  0
 24 23  1  0
 25 24  2  0
 26 25  1  0
 27 28  1  0
 27 26  1  6
 28 19  1  0
 29 27  1  0
 30 29  2  0
 31 32  2  0
 31 25  1  0
 32 22  1  0
 33 29  1  0
M  END
$$$$
