YNY.pdb
     RDKit          3D

 33 34  0  0  1  0  0  0  0  0999 V2000
    7.8880  -12.4786   17.0181 O   0  0  0  0  0  0  0  0  0  0  0  0
    7.8054  -13.0035   18.3050 C   0  0  0  0  0  0  0  0  0  0  0  0
    8.9516  -13.1867   19.0325 C   0  0  0  0  0  0  0  0  0  0  0  0
    8.9540  -13.7013   20.3069 C   0  0  0  0  0  0  0  0  0  0  0  0
    7.7101  -14.0406   20.8479 C   0  0  0  0  0  0  0  0  0  0  0  0
    7.6862  -14.6510   22.2084 C   0  0  0  0  0  0  0  0  0  0  0  0
    8.0785  -16.1125   22.0532 C   0  0  2  0  0  0  0  0  0  0  0  0
    7.0348  -16.7727   21.2671 N   0  0  0  0  0  0  0  0  0  0  0  0
    8.2542  -16.8048   23.3314 C   0  0  0  0  0  0  0  0  0  0  0  0
    7.3813  -17.6096   23.7782 O   0  0  0  0  0  0  0  0  0  0  0  0
    6.5242  -13.8742   20.1565 C   0  0  0  0  0  0  0  0  0  0  0  0
    6.5893  -13.3473   18.8651 C   0  0  0  0  0  0  0  0  0  0  0  0
   11.4164  -20.3369   26.4459 N   0  0  0  0  0  0  0  0  0  0  0  0
   10.1866  -19.6678   26.2544 C   0  0  0  0  0  0  0  0  0  0  0  0
    9.2820  -19.7171   27.1043 O   0  0  0  0  0  0  0  0  0  0  0  0
    9.9560  -18.8786   25.0190 C   0  0  0  0  0  0  0  0  0  0  0  0
    9.7119  -17.4112   25.3219 C   0  0  2  0  0  0  0  0  0  0  0  0
    9.3952  -16.6464   24.1709 N   0  0  0  0  0  0  0  0  0  0  0  0
   10.8751  -16.9234   26.0952 C   0  0  0  0  0  0  0  0  0  0  0  0
   11.9289  -17.6077   26.2258 O   0  0  0  0  0  0  0  0  0  0  0  0
    6.5740  -10.8621   25.4326 O   0  0  0  0  0  0  0  0  0  0  0  0
    7.0835  -11.9892   26.0578 C   0  0  0  0  0  0  0  0  0  0  0  0
    6.2682  -12.9732   26.5849 C   0  0  0  0  0  0  0  0  0  0  0  0
    6.8177  -14.1037   27.2095 C   0  0  0  0  0  0  0  0  0  0  0  0
    8.1865  -14.2531   27.3071 C   0  0  0  0  0  0  0  0  0  0  0  0
    8.7765  -15.4221   27.9640 C   0  0  0  0  0  0  0  0  0  0  0  0
   10.2599  -15.3666   28.0111 C   0  0  2  0  0  0  0  0  0  0  0  0
   10.8891  -15.6583   26.7448 N   0  0  0  0  0  0  0  0  0  0  0  0
   10.8445  -16.2168   29.0334 C   0  0  0  0  0  0  0  0  0  0  0  0
   10.6533  -16.0401   30.2810 O   0  0  0  0  0  0  0  0  0  0  0  0
    8.9764  -13.2440   26.7668 C   0  0  0  0  0  0  0  0  0  0  0  0
    8.4532  -12.1319   26.1533 C   0  0  0  0  0  0  0  0  0  0  0  0
   11.6719  -17.3044   28.6967 O   0  0  0  0  0  0  0  0  0  0  0  0
  2 12  2  0
  2  1  1  0
  3  2  1  0
  4  5  1  0
  4  3  2  0
  5 11  2  0
  6  5  1  0
  7  6  1  0
  7  8  1  6
  9  7  1  0
  9 10  2  0
 11 12  1  0
 13 14  1  0
 14 15  2  0
 16 14  1  0
 17 16  1  6
 17 18  1  0
 18  9  1  0
 19 20  2  0
 19 17  1  0
 22 21  1  0
 22 23  2  0
 24 23  1  0
 25 24  2  0
 26 25  1  0
 27 28  1  0
 27 26  1  6
 28 19  1  0
 29 27  1  0
 30 29  2  0
 31 32  2  0
 31 25  1  0
 32 22  1  0
 33 29  1  0
M  END
$$$$
