YNY.pdb
     RDKit          3D

 33 34  0  0  1  0  0  0  0  0999 V2000
    8.4609  -13.1652   17.8631 O   0  0  0  0  0  0  0  0  0  0  0  0
    8.1810  -13.5663   19.1666 C   0  0  0  0  0  0  0  0  0  0  0  0
    8.0697  -14.9016   19.4512 C   0  0  0  0  0  0  0  0  0  0  0  0
    7.7930  -15.3770   20.7107 C   0  0  0  0  0  0  0  0  0  0  0  0
    7.6245  -14.4220   21.7180 C   0  0  0  0  0  0  0  0  0  0  0  0
    7.2706  -14.9058   23.0835 C   0  0  0  0  0  0  0  0  0  0  0  0
    7.2536  -16.4260   23.0322 C   0  0  2  0  0  0  0  0  0  0  0  0
    5.9495  -16.8737   23.5245 N   0  0  0  0  0  0  0  0  0  0  0  0
    8.3231  -17.0450   23.8176 C   0  0  0  0  0  0  0  0  0  0  0  0
    8.1160  -17.4974   24.9844 O   0  0  0  0  0  0  0  0  0  0  0  0
    7.7280  -13.0631   21.4838 C   0  0  0  0  0  0  0  0  0  0  0  0
    8.0100  -12.6441   20.1820 C   0  0  0  0  0  0  0  0  0  0  0  0
   12.5821  -19.8115   24.8265 N   0  0  0  0  0  0  0  0  0  0  0  0
   12.9681  -18.9163   23.8034 C   0  0  0  0  0  0  0  0  0  0  0  0
   14.1483  -18.8343   23.4243 O   0  0  0  0  0  0  0  0  0  0  0  0
   11.9528  -18.0521   23.1519 C   0  0  0  0  0  0  0  0  0  0  0  0
   10.7103  -17.8931   24.0095 C   0  0  2  0  0  0  0  0  0  0  0  0
    9.6629  -17.1967   23.3553 N   0  0  0  0  0  0  0  0  0  0  0  0
   11.1391  -17.3081   25.2990 C   0  0  0  0  0  0  0  0  0  0  0  0
   12.0013  -17.8653   26.0351 O   0  0  0  0  0  0  0  0  0  0  0  0
    5.0911  -13.1209   27.2250 O   0  0  0  0  0  0  0  0  0  0  0  0
    6.4617  -13.3259   27.2184 C   0  0  0  0  0  0  0  0  0  0  0  0
    7.2426  -13.1321   28.3426 C   0  0  0  0  0  0  0  0  0  0  0  0
    8.6283  -13.3516   28.3018 C   0  0  0  0  0  0  0  0  0  0  0  0
    9.2368  -13.7675   27.1347 C   0  0  0  0  0  0  0  0  0  0  0  0
   10.6830  -13.9922   27.0722 C   0  0  0  0  0  0  0  0  0  0  0  0
   11.0384  -15.4331   27.0157 C   0  0  2  0  0  0  0  0  0  0  0  0
   10.6129  -16.0855   25.8000 N   0  0  0  0  0  0  0  0  0  0  0  0
   10.5585  -16.1987   28.1528 C   0  0  0  0  0  0  0  0  0  0  0  0
    9.7654  -17.1901   28.0418 O   0  0  0  0  0  0  0  0  0  0  0  0
    8.4213  -13.9518   26.0233 C   0  0  0  0  0  0  0  0  0  0  0  0
    7.0643  -13.7404   26.0477 C   0  0  0  0  0  0  0  0  0  0  0  0
   10.9495  -15.8816   29.4672 O   0  0  0  0  0  0  0  0  0  0  0  0
  2 12  2  0
  2  1  1  0
  3  2  1  0
  4  5  1  0
  4  3  2  0
  5 11  2  0
  6  5  1  0
  7  6  1  0
  7  8  1  1
  9  7  1  0
  9 10  2  0
 11 12  1  0
 13 14  1  0
 14 15  2  0
 16 14  1  0
 17 16  1  6
 17 18  1  0
 18  9  1  0
 19 20  2  0
 19 17  1  0
 22 21  1  0
 22 23  2  0
 24 23  1  0
 25 24  2  0
 26 25  1  0
 27 28  1  0
 27 26  1  1
 28 19  1  0
 29 27  1  0
 30 29  2  0
 31 32  2  0
 31 25  1  0
 32 22  1  0
 33 29  1  0
M  END
$$$$
