HDT.pdb
     RDKit          3D

 26 26  0  0  1  0  0  0  0  0999 V2000
   28.3456  -22.1315  -17.6259 N   0  0  0  0  0  0  0  0  0  0  0  0
   27.2787  -22.6909  -16.8453 C   0  0  1  0  0  0  0  0  0  0  0  0
   27.8470  -23.5575  -15.7457 C   0  0  0  0  0  0  0  0  0  0  0  0
   28.4883  -24.7802  -16.3211 C   0  0  0  0  0  0  0  0  0  0  0  0
   27.8682  -25.9511  -16.6660 C   0  0  0  0  0  0  0  0  0  0  0  0
   28.7971  -26.7928  -17.1426 N   0  0  0  0  0  0  0  0  0  0  0  0
   29.9711  -26.1417  -17.0888 C   0  0  0  0  0  0  0  0  0  0  0  0
   29.7893  -24.9204  -16.5912 N   0  0  0  0  0  0  0  0  0  0  0  0
   26.4833  -21.5862  -16.2029 C   0  0  0  0  0  0  0  0  0  0  0  0
   27.1423  -20.6596  -15.7212 O   0  0  0  0  0  0  0  0  0  0  0  0
   25.0834  -21.6130  -16.1571 N   0  0  0  0  0  0  0  0  0  0  0  0
   24.1918  -20.7298  -15.4731 C   0  0  1  0  0  0  0  0  0  0  0  0
   23.1277  -20.1436  -16.3716 C   0  0  0  0  0  0  0  0  0  0  0  0
   22.3022  -19.2001  -15.5757 C   0  0  0  0  0  0  0  0  0  0  0  0
   22.7394  -18.5803  -14.5518 O   0  0  0  0  0  0  0  0  0  0  0  0
   23.7103  -21.1919  -14.1685 C   0  0  0  0  0  0  0  0  0  0  0  0
   22.8590  -22.1444  -14.0534 O   0  0  0  0  0  0  0  0  0  0  0  0
   20.9694  -18.9311  -15.9100 O   0  0  0  0  0  0  0  0  0  0  0  0
   25.8243  -21.5232  -10.8604 C   0  0  0  0  0  0  0  0  0  0  0  0
   24.5704  -20.6964  -10.5956 C   0  0  1  0  0  0  0  0  0  0  0  0
   24.8266  -19.3504  -10.6971 O   0  0  0  0  0  0  0  0  0  0  0  0
   23.5533  -21.0665  -11.6861 C   0  0  2  0  0  0  0  0  0  0  0  0
   24.1364  -20.6350  -12.9303 N   0  0  0  0  0  0  0  0  0  0  0  0
   22.2977  -20.3688  -11.3668 C   0  0  0  0  0  0  0  0  0  0  0  0
   21.8996  -19.4449  -12.1113 O   0  0  0  0  0  0  0  0  0  0  0  0
   21.5330  -20.6972  -10.2656 O   0  0  0  0  0  0  0  0  0  0  0  0
  2  3  1  0
  2  1  1  1
  2  9  1  0
  3  4  1  0
  4  8  1  0
  4  5  2  0
  5  6  1  0
  7  6  1  0
  8  7  2  0
  9 10  2  0
 11  9  1  0
 11 12  1  0
 12 16  1  0
 13 14  1  0
 12 13  1  6
 14 15  2  0
 14 18  1  0
 16 23  1  0
 16 17  2  0
 20 19  1  6
 20 22  1  0
 20 21  1  0
 22 24  1  0
 22 23  1  6
 24 25  2  0
 24 26  1  0
M  END
$$$$
