HDT.pdb
     RDKit          3D

 26 26  0  0  1  0  0  0  0  0999 V2000
   17.8244  -12.1376  -15.9718 N   0  0  0  0  0  0  0  0  0  0  0  0
   19.0496  -11.4740  -16.3170 C   0  0  1  0  0  0  0  0  0  0  0  0
   19.5960  -12.0427  -17.6058 C   0  0  0  0  0  0  0  0  0  0  0  0
   19.9305  -13.4911  -17.4389 C   0  0  0  0  0  0  0  0  0  0  0  0
   19.9909  -14.1928  -16.2649 C   0  0  0  0  0  0  0  0  0  0  0  0
   20.3245  -15.4599  -16.5506 N   0  0  0  0  0  0  0  0  0  0  0  0
   20.4659  -15.5297  -17.8848 C   0  0  0  0  0  0  0  0  0  0  0  0
   20.2280  -14.3381  -18.4286 N   0  0  0  0  0  0  0  0  0  0  0  0
   18.7926  -10.0060  -16.5283 C   0  0  0  0  0  0  0  0  0  0  0  0
   17.8994   -9.7274  -17.3342 O   0  0  0  0  0  0  0  0  0  0  0  0
   19.5241   -9.0220  -15.8506 N   0  0  0  0  0  0  0  0  0  0  0  0
   19.2971   -7.6118  -15.8003 C   0  0  1  0  0  0  0  0  0  0  0  0
   17.8428   -7.2485  -15.6102 C   0  0  0  0  0  0  0  0  0  0  0  0
   17.7144   -5.7697  -15.6503 C   0  0  0  0  0  0  0  0  0  0  0  0
   18.4526   -4.9847  -14.9702 O   0  0  0  0  0  0  0  0  0  0  0  0
   20.2365   -6.8421  -14.9802 C   0  0  0  0  0  0  0  0  0  0  0  0
   20.1668   -6.8220  -13.6996 O   0  0  0  0  0  0  0  0  0  0  0  0
   16.7563   -5.1389  -16.4531 O   0  0  0  0  0  0  0  0  0  0  0  0
   24.1408   -6.4520  -15.8048 C   0  0  0  0  0  0  0  0  0  0  0  0
   23.4719   -5.1094  -15.5293 C   0  0  1  0  0  0  0  0  0  0  0  0
   23.0402   -4.5165  -16.6910 O   0  0  0  0  0  0  0  0  0  0  0  0
   22.2384   -5.3957  -14.6591 C   0  0  2  0  0  0  0  0  0  0  0  0
   21.2947   -6.0594  -15.5211 N   0  0  0  0  0  0  0  0  0  0  0  0
   21.7482   -4.1021  -14.1577 C   0  0  0  0  0  0  0  0  0  0  0  0
   20.6648   -3.6454  -14.5866 O   0  0  0  0  0  0  0  0  0  0  0  0
   22.4446   -3.3641  -13.2219 O   0  0  0  0  0  0  0  0  0  0  0  0
  2  3  1  0
  2  1  1  6
  2  9  1  0
  3  4  1  0
  4  8  1  0
  4  5  2  0
  5  6  1  0
  7  6  1  0
  8  7  2  0
  9 10  2  0
 11  9  1  0
 11 12  1  0
 12 16  1  0
 13 14  1  0
 12 13  1  1
 14 15  2  0
 14 18  1  0
 16 23  1  0
 16 17  2  0
 20 19  1  6
 20 22  1  0
 20 21  1  0
 22 24  1  0
 22 23  1  6
 24 25  2  0
 24 26  1  0
M  END
$$$$
