HDT.pdb
     RDKit          3D

 26 26  0  0  1  0  0  0  0  0999 V2000
   17.6867  -11.8557  -17.7242 N   0  0  0  0  0  0  0  0  0  0  0  0
   18.2261  -11.5633  -16.4265 C   0  0  1  0  0  0  0  0  0  0  0  0
   19.4913  -12.3591  -16.2053 C   0  0  0  0  0  0  0  0  0  0  0  0
   19.1928  -13.8248  -16.1932 C   0  0  0  0  0  0  0  0  0  0  0  0
   18.3209  -14.4813  -15.3666 C   0  0  0  0  0  0  0  0  0  0  0  0
   18.3475  -15.7850  -15.6796 N   0  0  0  0  0  0  0  0  0  0  0  0
   19.2264  -15.9217  -16.6865 C   0  0  0  0  0  0  0  0  0  0  0  0
   19.7421  -14.7356  -17.0019 N   0  0  0  0  0  0  0  0  0  0  0  0
   18.5741  -10.1016  -16.3363 C   0  0  0  0  0  0  0  0  0  0  0  0
   19.2529   -9.6526  -17.2649 O   0  0  0  0  0  0  0  0  0  0  0  0
   18.1518   -9.3057  -15.2636 N   0  0  0  0  0  0  0  0  0  0  0  0
   18.3572   -7.9076  -15.0495 C   0  0  1  0  0  0  0  0  0  0  0  0
   17.1611   -7.2162  -14.4373 C   0  0  0  0  0  0  0  0  0  0  0  0
   15.9660   -7.5126  -15.2673 C   0  0  0  0  0  0  0  0  0  0  0  0
   15.9257   -7.3266  -16.5272 O   0  0  0  0  0  0  0  0  0  0  0  0
   19.6492   -7.5329  -14.4685 C   0  0  0  0  0  0  0  0  0  0  0  0
   20.0097   -7.9188  -13.2996 O   0  0  0  0  0  0  0  0  0  0  0  0
   14.7907   -8.0235  -14.7034 O   0  0  0  0  0  0  0  0  0  0  0  0
   23.1943   -7.8033  -15.9497 C   0  0  0  0  0  0  0  0  0  0  0  0
   22.9056   -6.3462  -15.6043 C   0  0  1  0  0  0  0  0  0  0  0  0
   22.3874   -5.6687  -16.6814 O   0  0  0  0  0  0  0  0  0  0  0  0
   21.8422   -6.3528  -14.4952 C   0  0  2  0  0  0  0  0  0  0  0  0
   20.6066   -6.7199  -15.1374 N   0  0  0  0  0  0  0  0  0  0  0  0
   21.8092   -5.0013  -13.9142 C   0  0  0  0  0  0  0  0  0  0  0  0
   20.8211   -4.2632  -14.1269 O   0  0  0  0  0  0  0  0  0  0  0  0
   22.8371   -4.5101  -13.1349 O   0  0  0  0  0  0  0  0  0  0  0  0
  2  3  1  0
  2  1  1  6
  2  9  1  0
  3  4  1  0
  4  8  1  0
  4  5  2  0
  5  6  1  0
  7  6  1  0
  8  7  2  0
  9 10  2  0
 11  9  1  0
 11 12  1  0
 12 16  1  0
 13 14  1  0
 12 13  1  1
 14 15  2  0
 14 18  1  0
 16 23  1  0
 16 17  2  0
 20 19  1  6
 20 22  1  0
 20 21  1  0
 22 24  1  0
 22 23  1  6
 24 25  2  0
 24 26  1  0
M  END
$$$$
