HDT.pdb
     RDKit          3D

 26 26  0  0  1  0  0  0  0  0999 V2000
   21.2583  -11.8252  -17.8752 N   0  0  0  0  0  0  0  0  0  0  0  0
   21.0015  -10.6881  -18.7128 C   0  0  1  0  0  0  0  0  0  0  0  0
   19.9185  -11.0211  -19.7125 C   0  0  0  0  0  0  0  0  0  0  0  0
   20.3784  -12.0975  -20.6438 C   0  0  0  0  0  0  0  0  0  0  0  0
   19.6312  -13.1308  -21.1419 C   0  0  0  0  0  0  0  0  0  0  0  0
   20.4169  -13.8709  -21.9378 N   0  0  0  0  0  0  0  0  0  0  0  0
   21.6305  -13.2946  -21.9248 C   0  0  0  0  0  0  0  0  0  0  0  0
   21.6126  -12.2184  -21.1414 N   0  0  0  0  0  0  0  0  0  0  0  0
   20.5212   -9.5344  -17.8737 C   0  0  0  0  0  0  0  0  0  0  0  0
   20.2103   -8.5124  -18.4929 O   0  0  0  0  0  0  0  0  0  0  0  0
   20.4346   -9.6206  -16.4781 N   0  0  0  0  0  0  0  0  0  0  0  0
   20.0553   -8.6117  -15.5396 C   0  0  1  0  0  0  0  0  0  0  0  0
   19.1371   -9.1226  -14.4536 C   0  0  0  0  0  0  0  0  0  0  0  0
   17.9184   -9.6849  -15.0889 C   0  0  0  0  0  0  0  0  0  0  0  0
   17.1059   -8.9891  -15.7813 O   0  0  0  0  0  0  0  0  0  0  0  0
   21.1329   -7.7351  -15.0730 C   0  0  0  0  0  0  0  0  0  0  0  0
   22.2156   -8.1965  -14.5630 O   0  0  0  0  0  0  0  0  0  0  0  0
   17.5840  -11.0386  -14.9620 O   0  0  0  0  0  0  0  0  0  0  0  0
   22.5670   -4.6370  -16.9161 C   0  0  0  0  0  0  0  0  0  0  0  0
   22.1566   -4.2300  -15.5048 C   0  0  1  0  0  0  0  0  0  0  0  0
   20.8829   -3.7155  -15.4817 O   0  0  0  0  0  0  0  0  0  0  0  0
   22.1648   -5.5079  -14.6517 C   0  0  2  0  0  0  0  0  0  0  0  0
   21.0774   -6.3149  -15.1420 N   0  0  0  0  0  0  0  0  0  0  0  0
   21.9899   -5.0977  -13.2495 C   0  0  0  0  0  0  0  0  0  0  0  0
   20.9227   -5.3717  -12.6558 O   0  0  0  0  0  0  0  0  0  0  0  0
   22.9680   -4.4147  -12.5552 O   0  0  0  0  0  0  0  0  0  0  0  0
  2  3  1  0
  2  1  1  1
  2  9  1  0
  3  4  1  0
  4  8  1  0
  4  5  2  0
  5  6  1  0
  7  6  1  0
  8  7  2  0
  9 10  2  0
 11  9  1  0
 11 12  1  0
 12 16  1  0
 13 14  1  0
 12 13  1  1
 14 15  2  0
 14 18  1  0
 16 23  1  0
 16 17  2  0
 20 19  1  6
 20 22  1  0
 20 21  1  0
 22 24  1  0
 22 23  1  6
 24 25  2  0
 24 26  1  0
M  END
$$$$
