HDT.pdb
     RDKit          3D

 26 26  0  0  1  0  0  0  0  0999 V2000
   34.4131  -35.7877  -10.6988 N   0  0  0  0  0  0  0  0  0  0  0  0
   35.1291  -36.3204   -9.5744 C   0  0  1  0  0  0  0  0  0  0  0  0
   36.5168  -35.7250   -9.5208 C   0  0  0  0  0  0  0  0  0  0  0  0
   37.3464  -36.2266  -10.6598 C   0  0  0  0  0  0  0  0  0  0  0  0
   37.8541  -35.4902  -11.6963 C   0  0  0  0  0  0  0  0  0  0  0  0
   38.5376  -36.3160  -12.5020 N   0  0  0  0  0  0  0  0  0  0  0  0
   38.4475  -37.5430  -11.9622 C   0  0  0  0  0  0  0  0  0  0  0  0
   37.7260  -37.4943  -10.8445 N   0  0  0  0  0  0  0  0  0  0  0  0
   34.4177  -35.9580   -8.2984 C   0  0  0  0  0  0  0  0  0  0  0  0
   33.9294  -34.8245   -8.2587 O   0  0  0  0  0  0  0  0  0  0  0  0
   34.3190  -36.8544   -7.2264 N   0  0  0  0  0  0  0  0  0  0  0  0
   33.6462  -36.6866   -5.9766 C   0  0  1  0  0  0  0  0  0  0  0  0
   32.2626  -36.0960   -6.1191 C   0  0  0  0  0  0  0  0  0  0  0  0
   31.7058  -35.8604   -4.7628 C   0  0  0  0  0  0  0  0  0  0  0  0
   31.1068  -36.7591   -4.0867 O   0  0  0  0  0  0  0  0  0  0  0  0
   33.7425  -37.8117   -5.0428 C   0  0  0  0  0  0  0  0  0  0  0  0
   33.2519  -38.9659   -5.3117 O   0  0  0  0  0  0  0  0  0  0  0  0
   31.8083  -34.6129   -4.1353 O   0  0  0  0  0  0  0  0  0  0  0  0
   35.2791  -39.5973   -0.7051 C   0  0  0  0  0  0  0  0  0  0  0  0
   35.1459  -38.3870   -1.6233 C   0  0  1  0  0  0  0  0  0  0  0  0
   36.3763  -37.8994   -1.9919 O   0  0  0  0  0  0  0  0  0  0  0  0
   34.4289  -38.8680   -2.8943 C   0  0  2  0  0  0  0  0  0  0  0  0
   34.3788  -37.7278   -3.7728 N   0  0  0  0  0  0  0  0  0  0  0  0
   33.0957  -39.3419   -2.4905 C   0  0  0  0  0  0  0  0  0  0  0  0
   32.0822  -38.6867   -2.8223 O   0  0  0  0  0  0  0  0  0  0  0  0
   32.9169  -40.4940   -1.7516 O   0  0  0  0  0  0  0  0  0  0  0  0
  2  3  1  0
  2  1  1  6
  2  9  1  0
  3  4  1  0
  4  8  1  0
  4  5  2  0
  5  6  1  0
  7  6  1  0
  8  7  2  0
  9 10  2  0
 11  9  1  0
 11 12  1  0
 12 16  1  0
 13 14  1  0
 12 13  1  6
 14 15  2  0
 14 18  1  0
 16 23  1  0
 16 17  2  0
 20 19  1  1
 20 22  1  0
 20 21  1  0
 22 24  1  0
 22 23  1  6
 24 25  2  0
 24 26  1  0
M  END
$$$$
