HDT.pdb
     RDKit          3D

 26 26  0  0  1  0  0  0  0  0999 V2000
   19.1278  -13.6445  -15.4754 N   0  0  0  0  0  0  0  0  0  0  0  0
   18.4672  -13.5824  -16.7483 C   0  0  1  0  0  0  0  0  0  0  0  0
   17.5326  -14.7599  -16.8996 C   0  0  0  0  0  0  0  0  0  0  0  0
   18.2926  -16.0457  -16.8177 C   0  0  0  0  0  0  0  0  0  0  0  0
   18.9922  -16.6548  -17.8245 C   0  0  0  0  0  0  0  0  0  0  0  0
   19.5257  -17.7856  -17.3397 N   0  0  0  0  0  0  0  0  0  0  0  0
   19.1551  -17.8649  -16.0508 C   0  0  0  0  0  0  0  0  0  0  0  0
   18.4069  -16.8119  -15.7290 N   0  0  0  0  0  0  0  0  0  0  0  0
   17.6471  -12.3232  -16.8365 C   0  0  0  0  0  0  0  0  0  0  0  0
   17.0512  -12.1437  -17.9030 O   0  0  0  0  0  0  0  0  0  0  0  0
   17.5688  -11.4155  -15.7723 N   0  0  0  0  0  0  0  0  0  0  0  0
   16.9144  -10.1458  -15.7234 C   0  0  1  0  0  0  0  0  0  0  0  0
   15.7253  -10.1236  -14.7913 C   0  0  0  0  0  0  0  0  0  0  0  0
   15.1605   -8.7503  -14.7760 C   0  0  0  0  0  0  0  0  0  0  0  0
   15.6989   -7.7794  -14.1505 O   0  0  0  0  0  0  0  0  0  0  0  0
   17.7932   -8.9770  -15.6287 C   0  0  0  0  0  0  0  0  0  0  0  0
   18.6718   -8.8570  -14.7019 O   0  0  0  0  0  0  0  0  0  0  0  0
   13.9807   -8.4357  -15.4610 O   0  0  0  0  0  0  0  0  0  0  0  0
   19.8632   -7.3354  -18.4526 C   0  0  0  0  0  0  0  0  0  0  0  0
   18.9554   -6.2858  -17.8202 C   0  0  1  0  0  0  0  0  0  0  0  0
   17.7651   -6.1786  -18.4978 O   0  0  0  0  0  0  0  0  0  0  0  0
   18.6448   -6.7653  -16.3939 C   0  0  2  0  0  0  0  0  0  0  0  0
   17.7527   -7.8862  -16.5415 N   0  0  0  0  0  0  0  0  0  0  0  0
   18.0342   -5.6348  -15.6767 C   0  0  0  0  0  0  0  0  0  0  0  0
   16.8360   -5.7049  -15.3221 O   0  0  0  0  0  0  0  0  0  0  0  0
   18.7394   -4.4869  -15.3761 O   0  0  0  0  0  0  0  0  0  0  0  0
  2  3  1  0
  2  1  1  1
  2  9  1  0
  3  4  1  0
  4  8  1  0
  4  5  2  0
  5  6  1  0
  7  6  1  0
  8  7  2  0
  9 10  2  0
 11  9  1  0
 11 12  1  0
 12 16  1  0
 13 14  1  0
 12 13  1  1
 14 15  2  0
 14 18  1  0
 16 23  1  0
 16 17  2  0
 20 19  1  6
 20 22  1  0
 20 21  1  0
 22 24  1  0
 22 23  1  6
 24 25  2  0
 24 26  1  0
M  END
$$$$
