LGW.pdb
     RDKit          3D

 27 28  0  0  1  0  0  0  0  0999 V2000
    6.9271  -12.4398   19.1907 C   0  0  0  0  0  0  0  0  0  0  0  0
    8.0500  -13.4035   19.4067 C   0  0  1  0  0  0  0  0  0  0  0  0
    9.3800  -12.6501   19.4695 C   0  0  0  0  0  0  0  0  0  0  0  0
    7.9433  -14.2479   20.6140 C   0  0  0  0  0  0  0  0  0  0  0  0
    9.0562  -15.2007   20.8167 C   0  0  2  0  0  0  0  0  0  0  0  0
    9.2842  -16.0047   19.6115 N   0  0  0  0  0  0  0  0  0  0  0  0
    8.8905  -16.0771   21.9684 C   0  0  0  0  0  0  0  0  0  0  0  0
    7.8615  -16.0830   22.7010 O   0  0  0  0  0  0  0  0  0  0  0  0
    9.9360  -16.9938   22.3081 N   0  0  0  0  0  0  0  0  0  0  0  0
    9.6615  -18.0498   23.2305 C   0  0  0  0  0  0  0  0  0  0  0  0
   10.0962  -17.6452   24.6062 C   0  0  0  0  0  0  0  0  0  0  0  0
   10.3739  -18.5254   25.4588 O   0  0  0  0  0  0  0  0  0  0  0  0
   10.2063  -16.2734   24.9898 N   0  0  0  0  0  0  0  0  0  0  0  0
   10.4667  -15.9647   26.3634 C   0  0  1  0  0  0  0  0  0  0  0  0
    9.2710  -16.0726   27.2184 C   0  0  0  0  0  0  0  0  0  0  0  0
    8.0354  -15.4817   26.7070 C   0  0  0  0  0  0  0  0  0  0  0  0
    6.8846  -16.0162   26.1733 C   0  0  0  0  0  0  0  0  0  0  0  0
    6.0106  -15.0216   25.8603 N   0  0  0  0  0  0  0  0  0  0  0  0
    6.5629  -13.8246   26.1784 C   0  0  0  0  0  0  0  0  0  0  0  0
    6.0683  -12.5430   26.0508 C   0  0  0  0  0  0  0  0  0  0  0  0
    6.8401  -11.4836   26.4575 C   0  0  0  0  0  0  0  0  0  0  0  0
    8.0898  -11.7218   26.9832 C   0  0  0  0  0  0  0  0  0  0  0  0
    8.5748  -13.0236   27.1047 C   0  0  0  0  0  0  0  0  0  0  0  0
    7.8059  -14.0943   26.6989 C   0  0  0  0  0  0  0  0  0  0  0  0
   11.6054  -16.7563   26.9113 C   0  0  0  0  0  0  0  0  0  0  0  0
   12.8621  -16.6452   26.3680 O   0  0  0  0  0  0  0  0  0  0  0  0
   11.3994  -17.5163   27.8683 O   0  0  0  0  0  0  0  0  0  0  0  0
  2  4  1  0
  2  1  1  1
  2  3  1  0
  5  4  1  0
  5  6  1  6
  7  5  1  0
  8  7  2  0
  9  7  1  0
 10  9  1  0
 11 10  1  0
 11 13  1  0
 12 11  2  0
 14 15  1  1
 14 25  1  0
 14 13  1  0
 16 15  1  0
 16 17  2  0
 18 17  1  0
 19 24  2  0
 19 18  1  0
 20 19  1  0
 21 22  1  0
 21 20  2  0
 22 23  2  0
 23 24  1  0
 24 16  1  0
 25 26  1  0
 27 25  2  0
M  END
$$$$
