LGW.pdb
     RDKit          3D

 27 28  0  0  1  0  0  0  0  0999 V2000
    7.5904  -11.8599   20.7252 C   0  0  0  0  0  0  0  0  0  0  0  0
    7.7397  -13.3395   20.5679 C   0  0  1  0  0  0  0  0  0  0  0  0
    7.5181  -13.7343   19.1065 C   0  0  0  0  0  0  0  0  0  0  0  0
    9.0349  -13.9004   21.0037 C   0  0  0  0  0  0  0  0  0  0  0  0
    9.1316  -15.3753   20.9529 C   0  0  2  0  0  0  0  0  0  0  0  0
    7.9983  -15.9993   21.6438 N   0  0  0  0  0  0  0  0  0  0  0  0
   10.3814  -15.9107   21.4756 C   0  0  0  0  0  0  0  0  0  0  0  0
   11.5219  -15.5048   21.1147 O   0  0  0  0  0  0  0  0  0  0  0  0
   10.3422  -16.9531   22.4559 N   0  0  0  0  0  0  0  0  0  0  0  0
   11.5687  -17.4310   23.0112 C   0  0  0  0  0  0  0  0  0  0  0  0
   11.5597  -17.2394   24.4971 C   0  0  0  0  0  0  0  0  0  0  0  0
   12.5827  -17.5204   25.1705 O   0  0  0  0  0  0  0  0  0  0  0  0
   10.4115  -16.7425   25.1869 N   0  0  0  0  0  0  0  0  0  0  0  0
   10.4978  -16.5357   26.6010 C   0  0  1  0  0  0  0  0  0  0  0  0
    9.7796  -15.3316   27.0555 C   0  0  0  0  0  0  0  0  0  0  0  0
    8.4163  -15.1470   26.5607 C   0  0  0  0  0  0  0  0  0  0  0  0
    7.4166  -16.0224   26.2017 C   0  0  0  0  0  0  0  0  0  0  0  0
    6.3095  -15.3321   25.8155 N   0  0  0  0  0  0  0  0  0  0  0  0
    6.5558  -14.0021   25.9116 C   0  0  0  0  0  0  0  0  0  0  0  0
    5.7510  -12.9157   25.6370 C   0  0  0  0  0  0  0  0  0  0  0  0
    6.2475  -11.6500   25.8236 C   0  0  0  0  0  0  0  0  0  0  0  0
    7.5365  -11.4914   26.2799 C   0  0  0  0  0  0  0  0  0  0  0  0
    8.3369  -12.6004   26.5522 C   0  0  0  0  0  0  0  0  0  0  0  0
    7.8461  -13.8761   26.3680 C   0  0  0  0  0  0  0  0  0  0  0  0
   10.0852  -17.7436   27.3720 C   0  0  0  0  0  0  0  0  0  0  0  0
    9.5255  -18.8242   26.7352 O   0  0  0  0  0  0  0  0  0  0  0  0
   10.2579  -17.7571   28.5991 O   0  0  0  0  0  0  0  0  0  0  0  0
  2  4  1  0
  2  1  1  6
  2  3  1  0
  5  4  1  0
  5  6  1  1
  7  5  1  0
  8  7  2  0
  9  7  1  0
 10  9  1  0
 11 10  1  0
 11 13  1  0
 12 11  2  0
 14 15  1  1
 14 25  1  0
 14 13  1  0
 16 15  1  0
 16 17  2  0
 18 17  1  0
 19 24  2  0
 19 18  1  0
 20 19  1  0
 21 22  1  0
 21 20  2  0
 22 23  2  0
 23 24  1  0
 24 16  1  0
 25 26  1  0
 27 25  2  0
M  END
$$$$
