LGW.pdb
     RDKit          3D

 27 28  0  0  1  0  0  0  0  0999 V2000
    6.7488  -12.2806   21.3390 C   0  0  0  0  0  0  0  0  0  0  0  0
    7.3166  -13.6202   20.9935 C   0  0  1  0  0  0  0  0  0  0  0  0
    7.5335  -13.7214   19.4824 C   0  0  0  0  0  0  0  0  0  0  0  0
    8.5863  -13.9676   21.6638 C   0  0  0  0  0  0  0  0  0  0  0  0
    9.0918  -15.3299   21.3882 C   0  0  2  0  0  0  0  0  0  0  0  0
    8.0380  -16.3304   21.5865 N   0  0  0  0  0  0  0  0  0  0  0  0
   10.2707  -15.6976   22.1608 C   0  0  0  0  0  0  0  0  0  0  0  0
   11.2805  -14.9507   22.2949 O   0  0  0  0  0  0  0  0  0  0  0  0
   10.3106  -16.9693   22.8168 N   0  0  0  0  0  0  0  0  0  0  0  0
   11.5098  -17.3708   23.4815 C   0  0  0  0  0  0  0  0  0  0  0  0
   11.3551  -17.1843   24.9601 C   0  0  0  0  0  0  0  0  0  0  0  0
   12.3727  -17.0336   25.6817 O   0  0  0  0  0  0  0  0  0  0  0  0
   10.0723  -17.1732   25.5891 N   0  0  0  0  0  0  0  0  0  0  0  0
   10.0026  -16.9359   26.9993 C   0  0  1  0  0  0  0  0  0  0  0  0
    8.6641  -16.5154   27.4508 C   0  0  0  0  0  0  0  0  0  0  0  0
    7.7769  -15.9361   26.4436 C   0  0  0  0  0  0  0  0  0  0  0  0
    6.9177  -16.4822   25.5171 C   0  0  0  0  0  0  0  0  0  0  0  0
    6.3001  -15.4938   24.8151 N   0  0  0  0  0  0  0  0  0  0  0  0
    6.7359  -14.2895   25.2608 C   0  0  0  0  0  0  0  0  0  0  0  0
    6.4035  -13.0100   24.8663 C   0  0  0  0  0  0  0  0  0  0  0  0
    6.9961  -11.9412   25.4908 C   0  0  0  0  0  0  0  0  0  0  0  0
    7.9087  -12.1682   26.4961 C   0  0  0  0  0  0  0  0  0  0  0  0
    8.2338  -13.4682   26.8823 C   0  0  0  0  0  0  0  0  0  0  0  0
    7.6429  -14.5482   26.2605 C   0  0  0  0  0  0  0  0  0  0  0  0
   10.5088  -18.0945   27.7900 C   0  0  0  0  0  0  0  0  0  0  0  0
   10.7199  -17.9814   29.1425 O   0  0  0  0  0  0  0  0  0  0  0  0
   10.7344  -19.1639   27.2058 O   0  0  0  0  0  0  0  0  0  0  0  0
  2  4  1  0
  2  1  1  6
  2  3  1  0
  5  4  1  0
  5  6  1  1
  7  5  1  0
  8  7  2  0
  9  7  1  0
 10  9  1  0
 11 10  1  0
 11 13  1  0
 12 11  2  0
 14 15  1  1
 14 25  1  0
 14 13  1  0
 16 15  1  0
 16 17  2  0
 18 17  1  0
 19 24  2  0
 19 18  1  0
 20 19  1  0
 21 22  1  0
 21 20  2  0
 22 23  2  0
 23 24  1  0
 24 16  1  0
 25 26  1  0
 27 25  2  0
M  END
$$$$
