LGW.pdb
     RDKit          3D

 27 28  0  0  1  0  0  0  0  0999 V2000
    7.1635  -12.4873   20.6314 C   0  0  0  0  0  0  0  0  0  0  0  0
    7.4497  -13.9054   21.0100 C   0  0  1  0  0  0  0  0  0  0  0  0
    6.1405  -14.6872   21.1337 C   0  0  0  0  0  0  0  0  0  0  0  0
    8.3405  -14.6439   20.0918 C   0  0  0  0  0  0  0  0  0  0  0  0
    8.8368  -15.9401   20.6026 C   0  0  2  0  0  0  0  0  0  0  0  0
    7.8255  -16.5966   21.4376 N   0  0  0  0  0  0  0  0  0  0  0  0
   10.0951  -15.8533   21.3313 C   0  0  0  0  0  0  0  0  0  0  0  0
   11.0532  -15.1057   20.9866 O   0  0  0  0  0  0  0  0  0  0  0  0
   10.2801  -16.6466   22.5084 N   0  0  0  0  0  0  0  0  0  0  0  0
   11.5448  -16.6202   23.1723 C   0  0  0  0  0  0  0  0  0  0  0  0
   11.3370  -16.6144   24.6561 C   0  0  0  0  0  0  0  0  0  0  0  0
   12.3221  -16.4849   25.4254 O   0  0  0  0  0  0  0  0  0  0  0  0
   10.0392  -16.7545   25.2369 N   0  0  0  0  0  0  0  0  0  0  0  0
    9.9297  -16.8164   26.6630 C   0  0  1  0  0  0  0  0  0  0  0  0
    8.5636  -16.5563   27.1512 C   0  0  0  0  0  0  0  0  0  0  0  0
    7.6964  -15.7489   26.2947 C   0  0  0  0  0  0  0  0  0  0  0  0
    6.7940  -16.0617   25.3035 C   0  0  0  0  0  0  0  0  0  0  0  0
    6.2240  -14.9260   24.8172 N   0  0  0  0  0  0  0  0  0  0  0  0
    6.7345  -13.8538   25.4719 C   0  0  0  0  0  0  0  0  0  0  0  0
    6.4704  -12.5066   25.3356 C   0  0  0  0  0  0  0  0  0  0  0  0
    7.1323  -11.6098   26.1362 C   0  0  0  0  0  0  0  0  0  0  0  0
    8.0449  -12.0728   27.0569 C   0  0  0  0  0  0  0  0  0  0  0  0
    8.3005  -13.4380   27.1814 C   0  0  0  0  0  0  0  0  0  0  0  0
    7.6396  -14.3465   26.3813 C   0  0  0  0  0  0  0  0  0  0  0  0
   10.4753  -18.0902   27.2139 C   0  0  0  0  0  0  0  0  0  0  0  0
   10.5909  -18.2746   28.5702 O   0  0  0  0  0  0  0  0  0  0  0  0
   10.8216  -18.9822   26.4264 O   0  0  0  0  0  0  0  0  0  0  0  0
  2  4  1  0
  2  1  1  6
  2  3  1  0
  5  4  1  0
  5  6  1  1
  7  5  1  0
  8  7  2  0
  9  7  1  0
 10  9  1  0
 11 10  1  0
 11 13  1  0
 12 11  2  0
 14 15  1  6
 14 25  1  0
 14 13  1  0
 16 15  1  0
 16 17  2  0
 18 17  1  0
 19 24  2  0
 19 18  1  0
 20 19  1  0
 21 22  1  0
 21 20  2  0
 22 23  2  0
 23 24  1  0
 24 16  1  0
 25 26  1  0
 27 25  2  0
M  END
$$$$
