LGW.pdb
     RDKit          3D

 27 28  0  0  1  0  0  0  0  0999 V2000
    7.5112  -12.0903   20.1914 C   0  0  0  0  0  0  0  0  0  0  0  0
    7.5219  -13.4855   20.7294 C   0  0  1  0  0  0  0  0  0  0  0  0
    6.1798  -14.1640   20.4482 C   0  0  0  0  0  0  0  0  0  0  0  0
    8.5952  -14.3601   20.2145 C   0  0  0  0  0  0  0  0  0  0  0  0
    8.7408  -15.6560   20.9122 C   0  0  2  0  0  0  0  0  0  0  0  0
    7.7402  -15.7945   21.9755 N   0  0  0  0  0  0  0  0  0  0  0  0
   10.0712  -15.8967   21.4546 C   0  0  0  0  0  0  0  0  0  0  0  0
   11.1206  -15.9151   20.7518 O   0  0  0  0  0  0  0  0  0  0  0  0
   10.2250  -16.1247   22.8594 N   0  0  0  0  0  0  0  0  0  0  0  0
   11.5280  -16.3915   23.3812 C   0  0  0  0  0  0  0  0  0  0  0  0
   11.4500  -16.5756   24.8661 C   0  0  0  0  0  0  0  0  0  0  0  0
   12.5045  -16.6114   25.5485 O   0  0  0  0  0  0  0  0  0  0  0  0
   10.2004  -16.7159   25.5445 N   0  0  0  0  0  0  0  0  0  0  0  0
   10.2087  -16.9090   26.9631 C   0  0  1  0  0  0  0  0  0  0  0  0
    9.0128  -16.3629   27.6294 C   0  0  0  0  0  0  0  0  0  0  0  0
    8.0207  -15.7086   26.7779 C   0  0  0  0  0  0  0  0  0  0  0  0
    7.1149  -16.1775   25.8535 C   0  0  0  0  0  0  0  0  0  0  0  0
    6.3973  -15.1427   25.3381 N   0  0  0  0  0  0  0  0  0  0  0  0
    6.8122  -13.9838   25.9070 C   0  0  0  0  0  0  0  0  0  0  0  0
    6.3903  -12.6847   25.7133 C   0  0  0  0  0  0  0  0  0  0  0  0
    6.9822  -11.6743   26.4290 C   0  0  0  0  0  0  0  0  0  0  0  0
    7.9832  -11.9781   27.3238 C   0  0  0  0  0  0  0  0  0  0  0  0
    8.3981  -13.2968   27.5073 C   0  0  0  0  0  0  0  0  0  0  0  0
    7.8086  -14.3186   26.7925 C   0  0  0  0  0  0  0  0  0  0  0  0
   10.4404  -18.3344   27.3350 C   0  0  0  0  0  0  0  0  0  0  0  0
   10.6705  -18.6892   28.6419 O   0  0  0  0  0  0  0  0  0  0  0  0
   10.4200  -19.1955   26.4441 O   0  0  0  0  0  0  0  0  0  0  0  0
  2  4  1  0
  2  1  1  6
  2  3  1  0
  5  4  1  0
  5  6  1  1
  7  5  1  0
  8  7  2  0
  9  7  1  0
 10  9  1  0
 11 10  1  0
 11 13  1  0
 12 11  2  0
 14 15  1  6
 14 25  1  0
 14 13  1  0
 16 15  1  0
 16 17  2  0
 18 17  1  0
 19 24  2  0
 19 18  1  0
 20 19  1  0
 21 22  1  0
 21 20  2  0
 22 23  2  0
 23 24  1  0
 24 16  1  0
 25 26  1  0
 27 25  2  0
M  END
$$$$
