LGW.pdb
     RDKit          3D

 27 28  0  0  1  0  0  0  0  0999 V2000
    8.0455  -12.7819   19.6545 C   0  0  0  0  0  0  0  0  0  0  0  0
    8.0047  -13.9974   20.5247 C   0  0  1  0  0  0  0  0  0  0  0  0
    6.8959  -13.8547   21.5692 C   0  0  0  0  0  0  0  0  0  0  0  0
    7.8092  -15.2808   19.8201 C   0  0  0  0  0  0  0  0  0  0  0  0
    8.3072  -16.4750   20.5366 C   0  0  2  0  0  0  0  0  0  0  0  0
    7.4200  -16.8262   21.6504 N   0  0  0  0  0  0  0  0  0  0  0  0
    9.6769  -16.3552   21.0178 C   0  0  0  0  0  0  0  0  0  0  0  0
   10.6769  -16.2238   20.2573 O   0  0  0  0  0  0  0  0  0  0  0  0
    9.9301  -16.3821   22.4264 N   0  0  0  0  0  0  0  0  0  0  0  0
   11.2620  -16.1685   22.8971 C   0  0  0  0  0  0  0  0  0  0  0  0
   11.2878  -16.2435   24.3933 C   0  0  0  0  0  0  0  0  0  0  0  0
   12.3566  -16.0143   25.0130 O   0  0  0  0  0  0  0  0  0  0  0  0
   10.1232  -16.5731   25.1524 N   0  0  0  0  0  0  0  0  0  0  0  0
   10.2158  -16.5801   26.5811 C   0  0  1  0  0  0  0  0  0  0  0  0
    8.9208  -16.3526   27.2470 C   0  0  0  0  0  0  0  0  0  0  0  0
    7.9027  -15.6296   26.4865 C   0  0  0  0  0  0  0  0  0  0  0  0
    6.8881  -16.0327   25.6482 C   0  0  0  0  0  0  0  0  0  0  0  0
    6.1987  -14.9499   25.1970 N   0  0  0  0  0  0  0  0  0  0  0  0
    6.7403  -13.8238   25.7238 C   0  0  0  0  0  0  0  0  0  0  0  0
    6.3915  -12.4985   25.5658 C   0  0  0  0  0  0  0  0  0  0  0  0
    7.1120  -11.5331   26.2233 C   0  0  0  0  0  0  0  0  0  0  0  0
    8.1664  -11.9072   27.0254 C   0  0  0  0  0  0  0  0  0  0  0  0
    8.5060  -13.2516   27.1738 C   0  0  0  0  0  0  0  0  0  0  0  0
    7.7872  -14.2285   26.5171 C   0  0  0  0  0  0  0  0  0  0  0  0
   10.8880  -17.8080   27.0949 C   0  0  0  0  0  0  0  0  0  0  0  0
   11.2442  -17.9108   28.4175 O   0  0  0  0  0  0  0  0  0  0  0  0
   11.1185  -18.7370   26.3077 O   0  0  0  0  0  0  0  0  0  0  0  0
  2  4  1  0
  2  1  1  6
  2  3  1  0
  5  4  1  0
  5  6  1  1
  7  5  1  0
  8  7  2  0
  9  7  1  0
 10  9  1  0
 11 10  1  0
 11 13  1  0
 12 11  2  0
 14 15  1  1
 14 25  1  0
 14 13  1  0
 16 15  1  0
 16 17  2  0
 18 17  1  0
 19 24  2  0
 19 18  1  0
 20 19  1  0
 21 22  1  0
 21 20  2  0
 22 23  2  0
 23 24  1  0
 24 16  1  0
 25 26  1  0
 27 25  2  0
M  END
$$$$
