LGW.pdb
     RDKit          3D

 27 28  0  0  1  0  0  0  0  0999 V2000
    7.2161  -19.5182   17.6433 C   0  0  0  0  0  0  0  0  0  0  0  0
    7.6568  -20.0864   18.9545 C   0  0  1  0  0  0  0  0  0  0  0  0
    7.3974  -21.5938   18.9841 C   0  0  0  0  0  0  0  0  0  0  0  0
    9.0732  -19.8573   19.3058 C   0  0  0  0  0  0  0  0  0  0  0  0
    9.3133  -19.4112   20.6953 C   0  0  2  0  0  0  0  0  0  0  0  0
    8.1964  -19.7886   21.5677 N   0  0  0  0  0  0  0  0  0  0  0  0
    9.5805  -17.9854   20.8275 C   0  0  0  0  0  0  0  0  0  0  0  0
   10.6019  -17.4174   20.3483 O   0  0  0  0  0  0  0  0  0  0  0  0
    8.6477  -17.1596   21.5325 N   0  0  0  0  0  0  0  0  0  0  0  0
    8.8399  -15.7439   21.5390 C   0  0  0  0  0  0  0  0  0  0  0  0
    9.3997  -15.3157   22.8613 C   0  0  0  0  0  0  0  0  0  0  0  0
    9.7373  -14.1186   23.0398 O   0  0  0  0  0  0  0  0  0  0  0  0
    9.5675  -16.2342   23.9427 N   0  0  0  0  0  0  0  0  0  0  0  0
   10.2236  -15.7804   25.1315 C   0  0  1  0  0  0  0  0  0  0  0  0
    9.3275  -15.7172   26.3000 C   0  0  0  0  0  0  0  0  0  0  0  0
    7.9638  -15.2460   26.0642 C   0  0  0  0  0  0  0  0  0  0  0  0
    6.7848  -15.8859   25.7554 C   0  0  0  0  0  0  0  0  0  0  0  0
    5.7754  -14.9793   25.6539 N   0  0  0  0  0  0  0  0  0  0  0  0
    6.2646  -13.7371   25.8913 C   0  0  0  0  0  0  0  0  0  0  0  0
    5.6354  -12.5094   25.9043 C   0  0  0  0  0  0  0  0  0  0  0  0
    6.3695  -11.3832   26.1804 C   0  0  0  0  0  0  0  0  0  0  0  0
    7.7165  -11.5023   26.4381 C   0  0  0  0  0  0  0  0  0  0  0  0
    8.3371  -12.7510   26.4205 C   0  0  0  0  0  0  0  0  0  0  0  0
    7.6071  -13.8881   26.1443 C   0  0  0  0  0  0  0  0  0  0  0  0
   11.4561  -16.5658   25.4281 C   0  0  0  0  0  0  0  0  0  0  0  0
   12.3120  -16.1756   26.4290 O   0  0  0  0  0  0  0  0  0  0  0  0
   11.6949  -17.5796   24.7564 O   0  0  0  0  0  0  0  0  0  0  0  0
  2  4  1  0
  2  1  1  6
  2  3  1  0
  5  4  1  0
  5  6  1  1
  7  5  1  0
  8  7  2  0
  9  7  1  0
 10  9  1  0
 11 10  1  0
 11 13  1  0
 12 11  2  0
 14 15  1  1
 14 25  1  0
 14 13  1  0
 16 15  1  0
 16 17  2  0
 18 17  1  0
 19 24  2  0
 19 18  1  0
 20 19  1  0
 21 22  1  0
 21 20  2  0
 22 23  2  0
 23 24  1  0
 24 16  1  0
 25 26  1  0
 27 25  2  0
M  END
$$$$
