LGW.pdb
     RDKit          3D

 27 28  0  0  1  0  0  0  0  0999 V2000
    7.5120  -12.7344   19.4138 C   0  0  0  0  0  0  0  0  0  0  0  0
    7.9690  -13.9264   20.1926 C   0  0  1  0  0  0  0  0  0  0  0  0
    7.3697  -13.8919   21.5998 C   0  0  0  0  0  0  0  0  0  0  0  0
    7.6562  -15.2394   19.5924 C   0  0  0  0  0  0  0  0  0  0  0  0
    8.1237  -16.4117   20.3634 C   0  0  2  0  0  0  0  0  0  0  0  0
    7.2311  -16.6855   21.4944 N   0  0  0  0  0  0  0  0  0  0  0  0
    9.4978  -16.3074   20.8355 C   0  0  0  0  0  0  0  0  0  0  0  0
   10.4924  -16.1682   20.0693 O   0  0  0  0  0  0  0  0  0  0  0  0
    9.7621  -16.3594   22.2414 N   0  0  0  0  0  0  0  0  0  0  0  0
   11.1108  -16.2470   22.6993 C   0  0  0  0  0  0  0  0  0  0  0  0
   11.1484  -16.3575   24.1931 C   0  0  0  0  0  0  0  0  0  0  0  0
   12.2384  -16.2215   24.8034 O   0  0  0  0  0  0  0  0  0  0  0  0
    9.9716  -16.6176   24.9604 N   0  0  0  0  0  0  0  0  0  0  0  0
   10.0861  -16.6957   26.3854 C   0  0  1  0  0  0  0  0  0  0  0  0
    8.8319  -16.3671   27.0864 C   0  0  0  0  0  0  0  0  0  0  0  0
    7.8386  -15.5960   26.3407 C   0  0  0  0  0  0  0  0  0  0  0  0
    6.8365  -15.9460   25.4643 C   0  0  0  0  0  0  0  0  0  0  0  0
    6.1698  -14.8343   25.0510 N   0  0  0  0  0  0  0  0  0  0  0  0
    6.7140  -13.7414   25.6410 C   0  0  0  0  0  0  0  0  0  0  0  0
    6.3845  -12.4056   25.5388 C   0  0  0  0  0  0  0  0  0  0  0  0
    7.1031  -11.4817   26.2553 C   0  0  0  0  0  0  0  0  0  0  0  0
    8.1362  -11.9067   27.0597 C   0  0  0  0  0  0  0  0  0  0  0  0
    8.4564  -13.2609   27.1513 C   0  0  0  0  0  0  0  0  0  0  0  0
    7.7394  -14.1964   26.4350 C   0  0  0  0  0  0  0  0  0  0  0  0
   10.6374  -18.0066   26.8340 C   0  0  0  0  0  0  0  0  0  0  0  0
   11.0385  -18.1900   28.1349 O   0  0  0  0  0  0  0  0  0  0  0  0
   10.7260  -18.9304   26.0127 O   0  0  0  0  0  0  0  0  0  0  0  0
  2  4  1  0
  2  1  1  6
  2  3  1  0
  5  4  1  0
  5  6  1  1
  7  5  1  0
  8  7  2  0
  9  7  1  0
 10  9  1  0
 11 10  1  0
 11 13  1  0
 12 11  2  0
 14 15  1  1
 14 25  1  0
 14 13  1  0
 16 15  1  0
 16 17  2  0
 18 17  1  0
 19 24  2  0
 19 18  1  0
 20 19  1  0
 21 22  1  0
 21 20  2  0
 22 23  2  0
 23 24  1  0
 24 16  1  0
 25 26  1  0
 27 25  2  0
M  END
$$$$
