LGW.pdb
     RDKit          3D

 27 28  0  0  1  0  0  0  0  0999 V2000
    7.4595  -12.4416   19.9848 C   0  0  0  0  0  0  0  0  0  0  0  0
    7.8854  -13.7327   20.6075 C   0  0  1  0  0  0  0  0  0  0  0  0
    7.2427  -13.8839   21.9876 C   0  0  0  0  0  0  0  0  0  0  0  0
    7.5842  -14.9489   19.8251 C   0  0  0  0  0  0  0  0  0  0  0  0
    8.0496  -16.2169   20.4277 C   0  0  2  0  0  0  0  0  0  0  0  0
    7.1556  -16.6427   21.5095 N   0  0  0  0  0  0  0  0  0  0  0  0
    9.4234  -16.1801   20.9109 C   0  0  0  0  0  0  0  0  0  0  0  0
   10.4306  -16.3649   20.1713 O   0  0  0  0  0  0  0  0  0  0  0  0
    9.6728  -15.9191   22.2961 N   0  0  0  0  0  0  0  0  0  0  0  0
   11.0154  -15.6948   22.7300 C   0  0  0  0  0  0  0  0  0  0  0  0
   11.1290  -15.9881   24.1949 C   0  0  0  0  0  0  0  0  0  0  0  0
   12.2242  -15.8123   24.7852 O   0  0  0  0  0  0  0  0  0  0  0  0
   10.0200  -16.4694   24.9563 N   0  0  0  0  0  0  0  0  0  0  0  0
   10.1975  -16.6930   26.3593 C   0  0  1  0  0  0  0  0  0  0  0  0
    9.0066  -16.3481   27.1563 C   0  0  0  0  0  0  0  0  0  0  0  0
    7.9143  -15.6731   26.4573 C   0  0  0  0  0  0  0  0  0  0  0  0
    6.8383  -16.1264   25.7283 C   0  0  0  0  0  0  0  0  0  0  0  0
    6.0938  -15.0739   25.2932 N   0  0  0  0  0  0  0  0  0  0  0  0
    6.6590  -13.9186   25.7227 C   0  0  0  0  0  0  0  0  0  0  0  0
    6.2747  -12.6063   25.5396 C   0  0  0  0  0  0  0  0  0  0  0  0
    7.0324  -11.6033   26.0904 C   0  0  0  0  0  0  0  0  0  0  0  0
    8.1585  -11.9274   26.8129 C   0  0  0  0  0  0  0  0  0  0  0  0
    8.5331  -13.2592   26.9880 C   0  0  0  0  0  0  0  0  0  0  0  0
    7.7774  -14.2737   26.4383 C   0  0  0  0  0  0  0  0  0  0  0  0
   10.6715  -18.0761   26.6526 C   0  0  0  0  0  0  0  0  0  0  0  0
   10.7659  -19.0118   25.6515 O   0  0  0  0  0  0  0  0  0  0  0  0
   10.9815  -18.3674   27.8166 O   0  0  0  0  0  0  0  0  0  0  0  0
  2  4  1  0
  2  1  1  6
  2  3  1  0
  5  4  1  0
  5  6  1  1
  7  5  1  0
  8  7  2  0
  9  7  1  0
 10  9  1  0
 11 10  1  0
 11 13  1  0
 12 11  2  0
 14 15  1  1
 14 25  1  0
 14 13  1  0
 16 15  1  0
 16 17  2  0
 18 17  1  0
 19 24  2  0
 19 18  1  0
 20 19  1  0
 21 22  1  0
 21 20  2  0
 22 23  2  0
 23 24  1  0
 24 16  1  0
 25 26  1  0
 27 25  2  0
M  END
$$$$
