CIF.pdb
     RDKit          3D

 26 26  0  0  1  0  0  0  0  0999 V2000
    7.9905  -14.3824   19.3935 N   0  0  0  0  0  0  0  0  0  0  0  0
    7.3515  -15.0976   20.4608 C   0  0  1  0  0  0  0  0  0  0  0  0
    7.3268  -16.5680   20.0833 C   0  0  0  0  0  0  0  0  0  0  0  0
    6.4330  -17.4449   21.3986 S   0  0  0  0  0  0  0  0  0  0  0  0
    8.0507  -14.8879   21.7533 C   0  0  0  0  0  0  0  0  0  0  0  0
    9.2799  -14.7872   21.7609 O   0  0  0  0  0  0  0  0  0  0  0  0
    5.6827  -12.0215   26.0060 C   0  0  0  0  0  0  0  0  0  0  0  0
    6.6021  -12.4968   24.8686 C   0  0  0  0  0  0  0  0  0  0  0  0
    7.0633  -13.8540   25.2385 C   0  0  2  0  0  0  0  0  0  0  0  0
    7.8377  -13.7552   26.5620 C   0  0  0  0  0  0  0  0  0  0  0  0
    7.8727  -14.6038   24.2497 C   0  0  2  0  0  0  0  0  0  0  0  0
    7.3020  -14.8051   22.9672 N   0  0  0  0  0  0  0  0  0  0  0  0
    8.5889  -15.7958   24.8188 C   0  0  0  0  0  0  0  0  0  0  0  0
    7.9638  -16.8843   24.7463 O   0  0  0  0  0  0  0  0  0  0  0  0
    9.8493  -15.7744   25.4013 N   0  0  0  0  0  0  0  0  0  0  0  0
   10.5714  -16.9599   25.8621 C   0  0  1  0  0  0  0  0  0  0  0  0
   11.7632  -16.5896   26.6768 C   0  0  0  0  0  0  0  0  0  0  0  0
   11.3805  -15.8222   27.8806 C   0  0  0  0  0  0  0  0  0  0  0  0
   11.3058  -16.4311   29.1387 C   0  0  0  0  0  0  0  0  0  0  0  0
   10.9793  -15.7512   30.2874 C   0  0  0  0  0  0  0  0  0  0  0  0
   10.7105  -14.3998   30.2030 C   0  0  0  0  0  0  0  0  0  0  0  0
   10.7820  -13.7922   28.9677 C   0  0  0  0  0  0  0  0  0  0  0  0
   11.1076  -14.4583   27.8073 C   0  0  0  0  0  0  0  0  0  0  0  0
    9.6723  -17.8313   26.6319 C   0  0  0  0  0  0  0  0  0  0  0  0
    9.9551  -19.1200   27.0323 O   0  0  0  0  0  0  0  0  0  0  0  0
    8.5449  -17.3802   26.9592 O   0  0  0  0  0  0  0  0  0  0  0  0
  2  1  1  6
  3  2  1  0
  3  4  1  0
  5  2  1  0
  5  6  2  0
  7  8  1  0
  9  8  1  0
  9 11  1  0
  9 10  1  1
 11 12  1  6
 12  5  1  0
 13 11  1  0
 13 15  1  0
 14 13  2  0
 16 15  1  0
 16 24  1  0
 16 17  1  1
 18 17  1  0
 19 18  2  0
 20 19  1  0
 21 22  1  0
 21 20  2  0
 22 23  2  0
 23 18  1  0
 24 26  2  0
 24 25  1  0
M  END
$$$$
