CIF.pdb
     RDKit          3D

 26 26  0  0  1  0  0  0  0  0999 V2000
    6.1003  -19.6619   20.5804 N   0  0  0  0  0  0  0  0  0  0  0  0
    6.1142  -18.7230   21.6655 C   0  0  1  0  0  0  0  0  0  0  0  0
    6.2217  -19.5114   22.9586 C   0  0  0  0  0  0  0  0  0  0  0  0
    4.5383  -20.0068   23.4266 S   0  0  0  0  0  0  0  0  0  0  0  0
    7.2312  -17.7542   21.5343 C   0  0  0  0  0  0  0  0  0  0  0  0
    8.3237  -18.1507   21.1217 O   0  0  0  0  0  0  0  0  0  0  0  0
    6.6271  -12.4003   20.0038 C   0  0  0  0  0  0  0  0  0  0  0  0
    7.1818  -13.8327   20.0759 C   0  0  0  0  0  0  0  0  0  0  0  0
    7.6655  -14.0284   21.4612 C   0  0  2  0  0  0  0  0  0  0  0  0
    8.8429  -13.0705   21.6998 C   0  0  0  0  0  0  0  0  0  0  0  0
    8.0544  -15.3978   21.8720 C   0  0  2  0  0  0  0  0  0  0  0  0
    7.0344  -16.3830   21.8835 N   0  0  0  0  0  0  0  0  0  0  0  0
    8.9940  -15.4446   23.0437 C   0  0  0  0  0  0  0  0  0  0  0  0
   10.1117  -14.8993   22.8592 O   0  0  0  0  0  0  0  0  0  0  0  0
    8.7196  -16.0318   24.2718 N   0  0  0  0  0  0  0  0  0  0  0  0
    9.6281  -16.0227   25.4180 C   0  0  1  0  0  0  0  0  0  0  0  0
    9.8260  -14.6428   25.9455 C   0  0  0  0  0  0  0  0  0  0  0  0
    8.5363  -13.9860   26.2446 C   0  0  0  0  0  0  0  0  0  0  0  0
    8.4802  -12.7826   26.9573 C   0  0  0  0  0  0  0  0  0  0  0  0
    7.3062  -12.1248   27.2354 C   0  0  0  0  0  0  0  0  0  0  0  0
    6.1193  -12.6730   26.7924 C   0  0  0  0  0  0  0  0  0  0  0  0
    6.1655  -13.8580   26.0895 C   0  0  0  0  0  0  0  0  0  0  0  0
    7.3326  -14.5299   25.8023 C   0  0  0  0  0  0  0  0  0  0  0  0
    9.1180  -16.9090   26.4737 C   0  0  0  0  0  0  0  0  0  0  0  0
    7.9922  -17.6995   26.3809 O   0  0  0  0  0  0  0  0  0  0  0  0
    9.7482  -16.9613   27.5607 O   0  0  0  0  0  0  0  0  0  0  0  0
  2  1  1  6
  3  2  1  0
  3  4  1  0
  5  2  1  0
  5  6  2  0
  7  8  1  0
  9  8  1  0
  9 11  1  0
  9 10  1  6
 11 12  1  1
 12  5  1  0
 13 11  1  0
 13 15  1  0
 14 13  2  0
 16 15  1  0
 16 24  1  0
 16 17  1  1
 18 17  1  0
 19 18  2  0
 20 19  1  0
 21 22  1  0
 21 20  2  0
 22 23  2  0
 23 18  1  0
 24 26  2  0
 24 25  1  0
M  END
$$$$
