CIF.pdb
     RDKit          3D

 26 26  0  0  1  0  0  0  0  0999 V2000
    5.7556  -19.2702   20.5517 N   0  0  0  0  0  0  0  0  0  0  0  0
    5.5385  -18.1417   21.4111 C   0  0  1  0  0  0  0  0  0  0  0  0
    5.1451  -18.6703   22.7789 C   0  0  0  0  0  0  0  0  0  0  0  0
    3.4009  -19.1668   22.6811 S   0  0  0  0  0  0  0  0  0  0  0  0
    6.7448  -17.2809   21.4960 C   0  0  0  0  0  0  0  0  0  0  0  0
    7.8602  -17.8054   21.4541 O   0  0  0  0  0  0  0  0  0  0  0  0
    7.0490  -12.1645   19.3797 C   0  0  0  0  0  0  0  0  0  0  0  0
    7.2891  -13.6374   19.7507 C   0  0  0  0  0  0  0  0  0  0  0  0
    7.6375  -13.6586   21.1893 C   0  0  2  0  0  0  0  0  0  0  0  0
    8.9873  -12.9464   21.3682 C   0  0  0  0  0  0  0  0  0  0  0  0
    7.6804  -14.9727   21.8722 C   0  0  2  0  0  0  0  0  0  0  0  0
    6.6062  -15.8648   21.6245 N   0  0  0  0  0  0  0  0  0  0  0  0
    8.1324  -14.9070   23.3038 C   0  0  0  0  0  0  0  0  0  0  0  0
    7.6316  -13.9757   23.9840 O   0  0  0  0  0  0  0  0  0  0  0  0
    9.0366  -15.7745   23.9024 N   0  0  0  0  0  0  0  0  0  0  0  0
    9.4083  -15.7403   25.3165 C   0  0  1  0  0  0  0  0  0  0  0  0
    8.2091  -15.8252   26.1975 C   0  0  0  0  0  0  0  0  0  0  0  0
    7.6266  -14.4908   26.4512 C   0  0  0  0  0  0  0  0  0  0  0  0
    8.4238  -13.4133   26.8549 C   0  0  0  0  0  0  0  0  0  0  0  0
    7.9291  -12.1507   27.0770 C   0  0  0  0  0  0  0  0  0  0  0  0
    6.5791  -11.9271   26.8946 C   0  0  0  0  0  0  0  0  0  0  0  0
    5.7868  -12.9828   26.4969 C   0  0  0  0  0  0  0  0  0  0  0  0
    6.2661  -14.2536   26.2700 C   0  0  0  0  0  0  0  0  0  0  0  0
   10.3469  -16.8305   25.6184 C   0  0  0  0  0  0  0  0  0  0  0  0
   10.7716  -17.7916   24.7257 O   0  0  0  0  0  0  0  0  0  0  0  0
   10.8094  -16.9095   26.7851 O   0  0  0  0  0  0  0  0  0  0  0  0
  2  1  1  6
  3  2  1  0
  3  4  1  0
  5  2  1  0
  5  6  2  0
  7  8  1  0
  9  8  1  0
  9 11  1  0
  9 10  1  6
 11 12  1  1
 12  5  1  0
 13 11  1  0
 13 15  1  0
 14 13  2  0
 16 15  1  0
 16 24  1  0
 16 17  1  1
 18 17  1  0
 19 18  2  0
 20 19  1  0
 21 22  1  0
 21 20  2  0
 22 23  2  0
 23 18  1  0
 24 26  2  0
 24 25  1  0
M  END
$$$$
