YPY.pdb
     RDKit          3D

 32 34  0  0  1  0  0  0  0  0999 V2000
    7.7353  -13.3367   13.2024 O   0  0  0  0  0  0  0  0  0  0  0  0
    8.0311  -13.8390   14.4767 C   0  0  0  0  0  0  0  0  0  0  0  0
    8.6234  -15.0729   14.6328 C   0  0  0  0  0  0  0  0  0  0  0  0
    8.9145  -15.5665   15.8884 C   0  0  0  0  0  0  0  0  0  0  0  0
    8.6282  -14.8523   17.0508 C   0  0  0  0  0  0  0  0  0  0  0  0
    8.9719  -15.4375   18.3715 C   0  0  0  0  0  0  0  0  0  0  0  0
    9.6988  -14.4054   19.1565 C   0  0  2  0  0  0  0  0  0  0  0  0
   10.9743  -14.0699   18.5862 N   0  0  0  0  0  0  0  0  0  0  0  0
    9.8436  -14.6643   20.5873 C   0  0  0  0  0  0  0  0  0  0  0  0
   11.0721  -14.7552   20.9558 O   0  0  0  0  0  0  0  0  0  0  0  0
    8.0367  -13.6211   16.8836 C   0  0  0  0  0  0  0  0  0  0  0  0
    7.7415  -13.1195   15.6145 C   0  0  0  0  0  0  0  0  0  0  0  0
    8.8591  -14.8203   21.5654 N   0  0  0  0  0  0  0  0  0  0  0  0
    7.4210  -14.8492   21.3821 C   0  0  0  0  0  0  0  0  0  0  0  0
    6.8014  -14.8324   22.7485 C   0  0  0  0  0  0  0  0  0  0  0  0
    7.9227  -14.5347   23.7203 C   0  0  0  0  0  0  0  0  0  0  0  0
    9.1568  -14.9830   22.9854 C   0  0  1  0  0  0  0  0  0  0  0  0
    9.4626  -16.4051   23.3006 C   0  0  0  0  0  0  0  0  0  0  0  0
    8.6156  -17.2808   23.0043 O   0  0  0  0  0  0  0  0  0  0  0  0
   10.9023  -15.3106   31.4991 O   0  0  0  0  0  0  0  0  0  0  0  0
   10.8329  -15.3112   30.1134 C   0  0  0  0  0  0  0  0  0  0  0  0
   11.3829  -16.3392   29.3717 C   0  0  0  0  0  0  0  0  0  0  0  0
   11.3336  -16.3747   27.9948 C   0  0  0  0  0  0  0  0  0  0  0  0
   10.7091  -15.3397   27.3343 C   0  0  0  0  0  0  0  0  0  0  0  0
   10.6416  -15.3485   25.8591 C   0  0  0  0  0  0  0  0  0  0  0  0
   10.9573  -16.7091   25.3376 C   0  0  2  0  0  0  0  0  0  0  0  0
   10.6544  -16.8195   23.9145 N   0  0  0  0  0  0  0  0  0  0  0  0
   10.2501  -17.8072   26.0257 C   0  0  0  0  0  0  0  0  0  0  0  0
   10.9167  -18.6828   26.6305 O   0  0  0  0  0  0  0  0  0  0  0  0
   10.1547  -14.3032   28.0891 C   0  0  0  0  0  0  0  0  0  0  0  0
   10.2033  -14.2678   29.4564 C   0  0  0  0  0  0  0  0  0  0  0  0
    8.8721  -17.9650   26.0682 O   0  0  0  0  0  0  0  0  0  0  0  0
  2  1  1  0
  3  2  2  0
  4  3  1  0
  5 11  1  0
  5  4  2  0
  6  5  1  0
  7  6  1  0
  7  8  1  6
  9  7  1  0
  9 13  1  0
 10  9  2  0
 11 12  2  0
 12  2  1  0
 13 17  1  0
 13 14  1  0
 14 15  1  0
 16 17  1  0
 16 15  1  0
 17 18  1  6
 19 18  2  0
 20 21  1  0
 21 22  2  0
 21 31  1  0
 22 23  1  0
 23 24  2  0
 24 25  1  0
 26 25  1  1
 26 28  1  0
 26 27  1  0
 27 18  1  0
 28 32  1  0
 29 28  2  0
 30 24  1  0
 31 30  2  0
M  END
$$$$
