YPY.pdb
     RDKit          3D

 32 34  0  0  1  0  0  0  0  0999 V2000
    6.0526  -20.4330   24.0713 O   0  0  0  0  0  0  0  0  0  0  0  0
    6.6542  -20.1320   22.8420 C   0  0  0  0  0  0  0  0  0  0  0  0
    5.8923  -19.8690   21.7249 C   0  0  0  0  0  0  0  0  0  0  0  0
    6.4861  -19.5725   20.5147 C   0  0  0  0  0  0  0  0  0  0  0  0
    7.8706  -19.5243   20.3600 C   0  0  0  0  0  0  0  0  0  0  0  0
    8.4465  -19.1938   19.0319 C   0  0  0  0  0  0  0  0  0  0  0  0
    8.4652  -17.7137   18.8943 C   0  0  2  0  0  0  0  0  0  0  0  0
    9.0110  -17.2794   17.6380 N   0  0  0  0  0  0  0  0  0  0  0  0
    9.0817  -16.9701   19.9908 C   0  0  0  0  0  0  0  0  0  0  0  0
   10.3647  -17.0539   19.9907 O   0  0  0  0  0  0  0  0  0  0  0  0
    8.6223  -19.7885   21.4820 C   0  0  0  0  0  0  0  0  0  0  0  0
    8.0239  -20.0884   22.7073 C   0  0  0  0  0  0  0  0  0  0  0  0
    8.4805  -16.2123   20.9980 N   0  0  0  0  0  0  0  0  0  0  0  0
    7.0642  -16.0514   21.2637 C   0  0  0  0  0  0  0  0  0  0  0  0
    6.9299  -14.9868   22.3124 C   0  0  0  0  0  0  0  0  0  0  0  0
    8.2991  -14.3588   22.4587 C   0  0  0  0  0  0  0  0  0  0  0  0
    9.2351  -15.4331   21.9753 C   0  0  1  0  0  0  0  0  0  0  0  0
    9.6726  -16.2915   23.1098 C   0  0  0  0  0  0  0  0  0  0  0  0
    9.1053  -17.3968   23.2793 O   0  0  0  0  0  0  0  0  0  0  0  0
    8.8017  -12.7167   29.1241 O   0  0  0  0  0  0  0  0  0  0  0  0
    9.6149  -13.5255   28.3432 C   0  0  0  0  0  0  0  0  0  0  0  0
   10.1678  -14.6851   28.8521 C   0  0  0  0  0  0  0  0  0  0  0  0
   10.9795  -15.5135   28.1076 C   0  0  0  0  0  0  0  0  0  0  0  0
   11.2487  -15.1669   26.8019 C   0  0  0  0  0  0  0  0  0  0  0  0
   12.1165  -16.0334   25.9792 C   0  0  0  0  0  0  0  0  0  0  0  0
   11.2959  -16.8038   25.0013 C   0  0  2  0  0  0  0  0  0  0  0  0
   10.6913  -15.9276   24.0036 N   0  0  0  0  0  0  0  0  0  0  0  0
   10.2093  -17.5989   25.6069 C   0  0  0  0  0  0  0  0  0  0  0  0
    9.0205  -17.2190   25.4689 O   0  0  0  0  0  0  0  0  0  0  0  0
   10.6869  -13.9937   26.2926 C   0  0  0  0  0  0  0  0  0  0  0  0
    9.8806  -13.1710   27.0316 C   0  0  0  0  0  0  0  0  0  0  0  0
   10.3865  -18.7656   26.3369 O   0  0  0  0  0  0  0  0  0  0  0  0
  2  1  1  0
  3  2  2  0
  4  3  1  0
  5 11  1  0
  5  4  2  0
  6  5  1  0
  7  6  1  0
  7  8  1  6
  9  7  1  0
  9 13  1  0
 10  9  2  0
 11 12  2  0
 12  2  1  0
 13 17  1  0
 13 14  1  0
 14 15  1  0
 16 17  1  0
 16 15  1  0
 17 18  1  1
 19 18  2  0
 20 21  1  0
 21 22  2  0
 21 31  1  0
 22 23  1  0
 23 24  2  0
 24 25  1  0
 26 25  1  1
 26 28  1  0
 26 27  1  0
 27 18  1  0
 28 32  1  0
 29 28  2  0
 30 24  1  0
 31 30  2  0
M  END
$$$$
