YPY.pdb
     RDKit          3D

 32 34  0  0  1  0  0  0  0  0999 V2000
    5.2231  -22.6385   28.5273 O   0  0  0  0  0  0  0  0  0  0  0  0
    5.9296  -21.7972   27.6574 C   0  0  0  0  0  0  0  0  0  0  0  0
    7.0363  -22.2514   26.9743 C   0  0  0  0  0  0  0  0  0  0  0  0
    7.7313  -21.4219   26.1176 C   0  0  0  0  0  0  0  0  0  0  0  0
    7.3555  -20.0972   25.9007 C   0  0  0  0  0  0  0  0  0  0  0  0
    8.1428  -19.2586   24.9617 C   0  0  0  0  0  0  0  0  0  0  0  0
    7.4364  -19.2462   23.6537 C   0  0  2  0  0  0  0  0  0  0  0  0
    7.4004  -20.5400   23.0295 N   0  0  0  0  0  0  0  0  0  0  0  0
    7.8763  -18.2389   22.6908 C   0  0  0  0  0  0  0  0  0  0  0  0
    8.7655  -18.6833   21.8753 O   0  0  0  0  0  0  0  0  0  0  0  0
    6.2488  -19.6536   26.5878 C   0  0  0  0  0  0  0  0  0  0  0  0
    5.5440  -20.4909   27.4547 C   0  0  0  0  0  0  0  0  0  0  0  0
    7.4720  -16.9097   22.5494 N   0  0  0  0  0  0  0  0  0  0  0  0
    6.2805  -16.2813   23.0859 C   0  0  0  0  0  0  0  0  0  0  0  0
    6.1991  -14.9072   22.4888 C   0  0  0  0  0  0  0  0  0  0  0  0
    7.2430  -14.8566   21.3942 C   0  0  0  0  0  0  0  0  0  0  0  0
    8.2331  -15.9145   21.7997 C   0  0  1  0  0  0  0  0  0  0  0  0
    9.3073  -15.3255   22.6450 C   0  0  0  0  0  0  0  0  0  0  0  0
   10.0906  -14.4947   22.1270 O   0  0  0  0  0  0  0  0  0  0  0  0
    5.3095  -11.8808   26.3958 O   0  0  0  0  0  0  0  0  0  0  0  0
    6.4657  -12.6472   26.3658 C   0  0  0  0  0  0  0  0  0  0  0  0
    7.7137  -12.0550   26.3321 C   0  0  0  0  0  0  0  0  0  0  0  0
    8.8840  -12.7825   26.3020 C   0  0  0  0  0  0  0  0  0  0  0  0
    8.8012  -14.1576   26.3054 C   0  0  0  0  0  0  0  0  0  0  0  0
   10.0374  -14.9647   26.2719 C   0  0  0  0  0  0  0  0  0  0  0  0
   10.5236  -15.1034   24.8692 C   0  0  2  0  0  0  0  0  0  0  0  0
    9.4904  -15.6522   23.9973 N   0  0  0  0  0  0  0  0  0  0  0  0
   11.7236  -15.9501   24.7186 C   0  0  0  0  0  0  0  0  0  0  0  0
   12.8548  -15.4590   24.9543 O   0  0  0  0  0  0  0  0  0  0  0  0
    7.5370  -14.7508   26.3397 C   0  0  0  0  0  0  0  0  0  0  0  0
    6.3748  -14.0286   26.3699 C   0  0  0  0  0  0  0  0  0  0  0  0
   11.7157  -17.2821   24.3293 O   0  0  0  0  0  0  0  0  0  0  0  0
  2  1  1  0
  3  2  2  0
  4  3  1  0
  5 11  1  0
  5  4  2  0
  6  5  1  0
  7  6  1  0
  7  8  1  6
  9  7  1  0
  9 13  1  0
 10  9  2  0
 11 12  2  0
 12  2  1  0
 13 17  1  0
 13 14  1  0
 14 15  1  0
 16 17  1  0
 16 15  1  0
 17 18  1  1
 19 18  2  0
 20 21  1  0
 21 22  2  0
 21 31  1  0
 22 23  1  0
 23 24  2  0
 24 25  1  0
 26 25  1  1
 26 28  1  0
 26 27  1  0
 27 18  1  0
 28 32  1  0
 29 28  2  0
 30 24  1  0
 31 30  2  0
M  END
$$$$
