YPY.pdb
     RDKit          3D

 32 34  0  0  1  0  0  0  0  0999 V2000
    6.4841  -10.2933   26.1070 O   0  0  0  0  0  0  0  0  0  0  0  0
    6.6668  -11.6774   26.2286 C   0  0  0  0  0  0  0  0  0  0  0  0
    7.9198  -12.2395   26.1215 C   0  0  0  0  0  0  0  0  0  0  0  0
    8.0985  -13.6028   26.2416 C   0  0  0  0  0  0  0  0  0  0  0  0
    7.0344  -14.4726   26.4746 C   0  0  0  0  0  0  0  0  0  0  0  0
    7.2948  -15.9291   26.5994 C   0  0  0  0  0  0  0  0  0  0  0  0
    6.7215  -16.6026   25.4046 C   0  0  2  0  0  0  0  0  0  0  0  0
    6.0881  -17.8528   25.7220 N   0  0  0  0  0  0  0  0  0  0  0  0
    7.6202  -16.7729   24.2649 C   0  0  0  0  0  0  0  0  0  0  0  0
    8.1795  -17.9304   24.2395 O   0  0  0  0  0  0  0  0  0  0  0  0
    5.7872  -13.9008   26.5800 C   0  0  0  0  0  0  0  0  0  0  0  0
    5.6039  -12.5220   26.4591 C   0  0  0  0  0  0  0  0  0  0  0  0
    7.9372  -15.8760   23.2426 N   0  0  0  0  0  0  0  0  0  0  0  0
    7.4457  -14.5238   23.0627 C   0  0  0  0  0  0  0  0  0  0  0  0
    7.9195  -14.0571   21.7177 C   0  0  0  0  0  0  0  0  0  0  0  0
    8.4842  -15.2754   21.0195 C   0  0  0  0  0  0  0  0  0  0  0  0
    8.8557  -16.1928   22.1528 C   0  0  1  0  0  0  0  0  0  0  0  0
   10.2662  -15.9624   22.5682 C   0  0  0  0  0  0  0  0  0  0  0  0
   10.8941  -15.0060   22.0551 O   0  0  0  0  0  0  0  0  0  0  0  0
    8.8479  -14.5952   29.0027 O   0  0  0  0  0  0  0  0  0  0  0  0
    9.7300  -15.1972   28.1170 C   0  0  0  0  0  0  0  0  0  0  0  0
    9.7870  -16.5720   27.9903 C   0  0  0  0  0  0  0  0  0  0  0  0
   10.6492  -17.2059   27.1218 C   0  0  0  0  0  0  0  0  0  0  0  0
   11.4879  -16.4326   26.3497 C   0  0  0  0  0  0  0  0  0  0  0  0
   12.4243  -17.0827   25.4109 C   0  0  0  0  0  0  0  0  0  0  0  0
   12.2660  -16.5068   24.0448 C   0  0  2  0  0  0  0  0  0  0  0  0
   10.9335  -16.7625   23.5081 N   0  0  0  0  0  0  0  0  0  0  0  0
   13.2429  -17.0024   23.0550 C   0  0  0  0  0  0  0  0  0  0  0  0
   14.4585  -16.7230   23.1993 O   0  0  0  0  0  0  0  0  0  0  0  0
   11.4259  -15.0433   26.4817 C   0  0  0  0  0  0  0  0  0  0  0  0
   10.5696  -14.4136   27.3439 C   0  0  0  0  0  0  0  0  0  0  0  0
   12.9313  -17.7746   21.9449 O   0  0  0  0  0  0  0  0  0  0  0  0
  2  1  1  0
  3  2  2  0
  4  3  1  0
  5 11  1  0
  5  4  2  0
  6  5  1  0
  7  6  1  0
  7  8  1  1
  9  7  1  0
  9 13  1  0
 10  9  2  0
 11 12  2  0
 12  2  1  0
 13 17  1  0
 13 14  1  0
 14 15  1  0
 16 17  1  0
 16 15  1  0
 17 18  1  1
 19 18  2  0
 20 21  1  0
 21 22  2  0
 21 31  1  0
 22 23  1  0
 23 24  2  0
 24 25  1  0
 26 25  1  1
 26 28  1  0
 26 27  1  0
 27 18  1  0
 28 32  1  0
 29 28  2  0
 30 24  1  0
 31 30  2  0
M  END
$$$$
