YPY.pdb
     RDKit          3D

 32 34  0  0  1  0  0  0  0  0999 V2000
   12.3485  -18.0544   13.0005 O   0  0  0  0  0  0  0  0  0  0  0  0
   12.0251  -17.6890   14.3141 C   0  0  0  0  0  0  0  0  0  0  0  0
   12.9896  -17.6482   15.2968 C   0  0  0  0  0  0  0  0  0  0  0  0
   12.6700  -17.2879   16.5903 C   0  0  0  0  0  0  0  0  0  0  0  0
   11.3709  -16.9507   16.9667 C   0  0  0  0  0  0  0  0  0  0  0  0
   11.0941  -16.5666   18.3741 C   0  0  0  0  0  0  0  0  0  0  0  0
   11.2174  -15.0890   18.4800 C   0  0  2  0  0  0  0  0  0  0  0  0
   12.5722  -14.6327   18.3345 N   0  0  0  0  0  0  0  0  0  0  0  0
   10.6057  -14.4717   19.6548 C   0  0  0  0  0  0  0  0  0  0  0  0
   11.4335  -14.3214   20.6271 O   0  0  0  0  0  0  0  0  0  0  0  0
   10.4152  -16.9947   15.9775 C   0  0  0  0  0  0  0  0  0  0  0  0
   10.7361  -17.3585   14.6683 C   0  0  0  0  0  0  0  0  0  0  0  0
    9.2910  -14.0427   19.8491 N   0  0  0  0  0  0  0  0  0  0  0  0
    8.1850  -14.1161   18.9144 C   0  0  0  0  0  0  0  0  0  0  0  0
    7.0469  -13.3451   19.5157 C   0  0  0  0  0  0  0  0  0  0  0  0
    7.6154  -12.6099   20.7102 C   0  0  0  0  0  0  0  0  0  0  0  0
    8.8225  -13.4255   21.0865 C   0  0  1  0  0  0  0  0  0  0  0  0
    8.4574  -14.4639   22.0884 C   0  0  0  0  0  0  0  0  0  0  0  0
    8.4536  -15.6661   21.7323 O   0  0  0  0  0  0  0  0  0  0  0  0
   10.9839  -16.2030   30.3175 O   0  0  0  0  0  0  0  0  0  0  0  0
   10.5822  -15.6129   29.1277 C   0  0  0  0  0  0  0  0  0  0  0  0
    9.7255  -14.5288   29.1225 C   0  0  0  0  0  0  0  0  0  0  0  0
    9.3047  -13.9162   27.9618 C   0  0  0  0  0  0  0  0  0  0  0  0
    9.7596  -14.4089   26.7585 C   0  0  0  0  0  0  0  0  0  0  0  0
    9.3252  -13.7750   25.4974 C   0  0  0  0  0  0  0  0  0  0  0  0
    8.6997  -14.7887   24.6007 C   0  0  2  0  0  0  0  0  0  0  0  0
    8.1160  -14.1671   23.4167 N   0  0  0  0  0  0  0  0  0  0  0  0
    7.6447  -15.6012   25.2381 C   0  0  0  0  0  0  0  0  0  0  0  0
    7.9600  -16.6652   25.8254 O   0  0  0  0  0  0  0  0  0  0  0  0
   10.6256  -15.5049   26.7698 C   0  0  0  0  0  0  0  0  0  0  0  0
   11.0438  -16.1133   27.9223 C   0  0  0  0  0  0  0  0  0  0  0  0
    6.2933  -15.2863   25.2492 O   0  0  0  0  0  0  0  0  0  0  0  0
  2  1  1  0
  3  2  2  0
  4  3  1  0
  5 11  1  0
  5  4  2  0
  6  5  1  0
  7  6  1  0
  7  8  1  1
  9  7  1  0
  9 13  1  0
 10  9  2  0
 11 12  2  0
 12  2  1  0
 13 17  1  0
 13 14  1  0
 14 15  1  0
 16 17  1  0
 16 15  1  0
 17 18  1  1
 19 18  2  0
 20 21  1  0
 21 22  2  0
 21 31  1  0
 22 23  1  0
 23 24  2  0
 24 25  1  0
 26 25  1  1
 26 28  1  0
 26 27  1  0
 27 18  1  0
 28 32  1  0
 29 28  2  0
 30 24  1  0
 31 30  2  0
M  END
$$$$
