YPY.pdb
     RDKit          3D

 32 34  0  0  1  0  0  0  0  0999 V2000
    4.1763  -10.5764   28.0558 O   0  0  0  0  0  0  0  0  0  0  0  0
    5.0616  -11.4759   27.4468 C   0  0  0  0  0  0  0  0  0  0  0  0
    4.7658  -12.0475   26.2289 C   0  0  0  0  0  0  0  0  0  0  0  0
    5.6386  -12.9332   25.6300 C   0  0  0  0  0  0  0  0  0  0  0  0
    6.8503  -13.2924   26.2181 C   0  0  0  0  0  0  0  0  0  0  0  0
    7.7476  -14.2468   25.5188 C   0  0  0  0  0  0  0  0  0  0  0  0
    6.9026  -15.1615   24.7069 C   0  0  2  0  0  0  0  0  0  0  0  0
    6.1402  -16.0751   25.5125 N   0  0  0  0  0  0  0  0  0  0  0  0
    7.5804  -15.8867   23.6346 C   0  0  0  0  0  0  0  0  0  0  0  0
    7.6356  -17.1537   23.8468 O   0  0  0  0  0  0  0  0  0  0  0  0
    7.1361  -12.7157   27.4344 C   0  0  0  0  0  0  0  0  0  0  0  0
    6.2549  -11.8193   28.0421 C   0  0  0  0  0  0  0  0  0  0  0  0
    8.1533  -15.3999   22.4578 N   0  0  0  0  0  0  0  0  0  0  0  0
    7.9406  -14.1083   21.8339 C   0  0  0  0  0  0  0  0  0  0  0  0
    8.6174  -14.1477   20.4955 C   0  0  0  0  0  0  0  0  0  0  0  0
    9.0094  -15.5903   20.2594 C   0  0  0  0  0  0  0  0  0  0  0  0
    9.0956  -16.1656   21.6470 C   0  0  1  0  0  0  0  0  0  0  0  0
   10.4789  -16.0336   22.1803 C   0  0  0  0  0  0  0  0  0  0  0  0
   10.9273  -14.8848   22.4072 O   0  0  0  0  0  0  0  0  0  0  0  0
   11.9116  -14.0223   29.0323 O   0  0  0  0  0  0  0  0  0  0  0  0
   11.6370  -14.8867   27.9823 C   0  0  0  0  0  0  0  0  0  0  0  0
   11.4727  -16.2416   28.1977 C   0  0  0  0  0  0  0  0  0  0  0  0
   11.1989  -17.1308   27.1809 C   0  0  0  0  0  0  0  0  0  0  0  0
   11.0856  -16.6439   25.8972 C   0  0  0  0  0  0  0  0  0  0  0  0
   10.7945  -17.5720   24.7860 C   0  0  0  0  0  0  0  0  0  0  0  0
   11.8619  -17.4837   23.7488 C   0  0  2  0  0  0  0  0  0  0  0  0
   11.3114  -17.1319   22.4441 N   0  0  0  0  0  0  0  0  0  0  0  0
   12.6508  -18.7196   23.5761 C   0  0  0  0  0  0  0  0  0  0  0  0
   12.1412  -19.6932   22.9687 O   0  0  0  0  0  0  0  0  0  0  0  0
   11.2525  -15.2733   25.6853 C   0  0  0  0  0  0  0  0  0  0  0  0
   11.5241  -14.3901   26.6949 C   0  0  0  0  0  0  0  0  0  0  0  0
   13.9458  -18.9098   24.0370 O   0  0  0  0  0  0  0  0  0  0  0  0
  2  1  1  0
  3  2  2  0
  4  3  1  0
  5 11  1  0
  5  4  2  0
  6  5  1  0
  7  6  1  0
  7  8  1  1
  9  7  1  0
  9 13  1  0
 10  9  2  0
 11 12  2  0
 12  2  1  0
 13 17  1  0
 13 14  1  0
 14 15  1  0
 16 17  1  0
 16 15  1  0
 17 18  1  1
 19 18  2  0
 20 21  1  0
 21 22  2  0
 21 31  1  0
 22 23  1  0
 23 24  2  0
 24 25  1  0
 26 25  1  1
 26 28  1  0
 26 27  1  0
 27 18  1  0
 28 32  1  0
 29 28  2  0
 30 24  1  0
 31 30  2  0
M  END
$$$$
