YPY.pdb
     RDKit          3D

 32 34  0  0  1  0  0  0  0  0999 V2000
    5.6520  -10.3804   26.9879 O   0  0  0  0  0  0  0  0  0  0  0  0
    5.9449  -11.7416   26.8298 C   0  0  0  0  0  0  0  0  0  0  0  0
    7.1980  -12.1564   26.4355 C   0  0  0  0  0  0  0  0  0  0  0  0
    7.4854  -13.4974   26.2803 C   0  0  0  0  0  0  0  0  0  0  0  0
    6.5353  -14.4910   26.5111 C   0  0  0  0  0  0  0  0  0  0  0  0
    6.9101  -15.9165   26.3314 C   0  0  0  0  0  0  0  0  0  0  0  0
    6.4301  -16.3529   24.9939 C   0  0  2  0  0  0  0  0  0  0  0  0
    5.6108  -17.5318   25.0551 N   0  0  0  0  0  0  0  0  0  0  0  0
    7.4505  -16.5067   23.9592 C   0  0  0  0  0  0  0  0  0  0  0  0
    7.9450  -17.6929   23.9189 O   0  0  0  0  0  0  0  0  0  0  0  0
    5.2871  -14.0659   26.9046 C   0  0  0  0  0  0  0  0  0  0  0  0
    4.9940  -12.7100   27.0625 C   0  0  0  0  0  0  0  0  0  0  0  0
    7.9380  -15.5686   23.0469 N   0  0  0  0  0  0  0  0  0  0  0  0
    7.5106  -14.1942   22.8714 C   0  0  0  0  0  0  0  0  0  0  0  0
    8.1917  -13.6739   21.6398 C   0  0  0  0  0  0  0  0  0  0  0  0
    8.8264  -14.8716   20.9667 C   0  0  0  0  0  0  0  0  0  0  0  0
    9.0021  -15.8573   22.0898 C   0  0  1  0  0  0  0  0  0  0  0  0
   10.3393  -15.6929   22.7223 C   0  0  0  0  0  0  0  0  0  0  0  0
   10.8094  -14.5364   22.8394 O   0  0  0  0  0  0  0  0  0  0  0  0
    9.8580  -13.8702   28.7907 O   0  0  0  0  0  0  0  0  0  0  0  0
   10.5061  -14.7085   27.8949 C   0  0  0  0  0  0  0  0  0  0  0  0
   11.4034  -14.2084   26.9707 C   0  0  0  0  0  0  0  0  0  0  0  0
   12.0662  -15.0092   26.0658 C   0  0  0  0  0  0  0  0  0  0  0  0
   11.8205  -16.3645   26.0867 C   0  0  0  0  0  0  0  0  0  0  0  0
   12.5141  -17.2484   25.1283 C   0  0  0  0  0  0  0  0  0  0  0  0
   12.4495  -16.6704   23.7555 C   0  0  2  0  0  0  0  0  0  0  0  0
   11.1051  -16.7686   23.1970 N   0  0  0  0  0  0  0  0  0  0  0  0
   13.3760  -17.2893   22.7869 C   0  0  0  0  0  0  0  0  0  0  0  0
   14.6140  -17.1760   22.9632 O   0  0  0  0  0  0  0  0  0  0  0  0
   10.9126  -16.8645   27.0232 C   0  0  0  0  0  0  0  0  0  0  0  0
   10.2544  -16.0696   27.9221 C   0  0  0  0  0  0  0  0  0  0  0  0
   12.9920  -18.0091   21.6644 O   0  0  0  0  0  0  0  0  0  0  0  0
  2  1  1  0
  3  2  2  0
  4  3  1  0
  5 11  1  0
  5  4  2  0
  6  5  1  0
  7  6  1  0
  7  8  1  1
  9  7  1  0
  9 13  1  0
 10  9  2  0
 11 12  2  0
 12  2  1  0
 13 17  1  0
 13 14  1  0
 14 15  1  0
 16 17  1  0
 16 15  1  0
 17 18  1  1
 19 18  2  0
 20 21  1  0
 21 22  2  0
 21 31  1  0
 22 23  1  0
 23 24  2  0
 24 25  1  0
 26 25  1  1
 26 28  1  0
 26 27  1  0
 27 18  1  0
 28 32  1  0
 29 28  2  0
 30 24  1  0
 31 30  2  0
M  END
$$$$
