YPY.pdb
     RDKit          3D

 32 34  0  0  1  0  0  0  0  0999 V2000
    9.3592  -11.9848   19.6639 O   0  0  0  0  0  0  0  0  0  0  0  0
    8.5208  -12.8569   20.3712 C   0  0  0  0  0  0  0  0  0  0  0  0
    7.7302  -13.7718   19.7113 C   0  0  0  0  0  0  0  0  0  0  0  0
    6.9050  -14.6304   20.4090 C   0  0  0  0  0  0  0  0  0  0  0  0
    6.8284  -14.6179   21.8008 C   0  0  0  0  0  0  0  0  0  0  0  0
    5.9244  -15.5720   22.4916 C   0  0  0  0  0  0  0  0  0  0  0  0
    6.5693  -16.9112   22.4740 C   0  0  2  0  0  0  0  0  0  0  0  0
    5.6273  -17.9837   22.6390 N   0  0  0  0  0  0  0  0  0  0  0  0
    7.7006  -17.0961   23.3803 C   0  0  0  0  0  0  0  0  0  0  0  0
    7.3510  -17.5656   24.5251 O   0  0  0  0  0  0  0  0  0  0  0  0
    7.6222  -13.7003   22.4501 C   0  0  0  0  0  0  0  0  0  0  0  0
    8.4579  -12.8309   21.7465 C   0  0  0  0  0  0  0  0  0  0  0  0
    9.0570  -16.8376   23.1712 N   0  0  0  0  0  0  0  0  0  0  0  0
    9.6674  -16.1425   22.0547 C   0  0  0  0  0  0  0  0  0  0  0  0
   11.1527  -16.3048   22.1924 C   0  0  0  0  0  0  0  0  0  0  0  0
   11.3690  -17.3317   23.2828 C   0  0  0  0  0  0  0  0  0  0  0  0
   10.1059  -17.2556   24.0969 C   0  0  1  0  0  0  0  0  0  0  0  0
   10.2574  -16.2702   25.2020 C   0  0  0  0  0  0  0  0  0  0  0  0
   10.4374  -15.0642   24.9099 O   0  0  0  0  0  0  0  0  0  0  0  0
    5.8792  -12.1937   25.3351 O   0  0  0  0  0  0  0  0  0  0  0  0
    6.7376  -12.9654   26.1051 C   0  0  0  0  0  0  0  0  0  0  0  0
    6.4666  -14.2963   26.3591 C   0  0  0  0  0  0  0  0  0  0  0  0
    7.2949  -15.0944   27.1185 C   0  0  0  0  0  0  0  0  0  0  0  0
    8.4396  -14.5375   27.6448 C   0  0  0  0  0  0  0  0  0  0  0  0
    9.3462  -15.3666   28.4643 C   0  0  0  0  0  0  0  0  0  0  0  0
   10.5529  -15.7445   27.6743 C   0  0  2  0  0  0  0  0  0  0  0  0
   10.2090  -16.6212   26.5598 N   0  0  0  0  0  0  0  0  0  0  0  0
   11.6094  -16.4177   28.4555 C   0  0  0  0  0  0  0  0  0  0  0  0
   12.1577  -15.8034   29.4033 O   0  0  0  0  0  0  0  0  0  0  0  0
    8.7086  -13.1916   27.3847 C   0  0  0  0  0  0  0  0  0  0  0  0
    7.8864  -12.3990   26.6304 C   0  0  0  0  0  0  0  0  0  0  0  0
   12.0657  -17.7091   28.2322 O   0  0  0  0  0  0  0  0  0  0  0  0
  2  1  1  0
  3  2  2  0
  4  3  1  0
  5 11  1  0
  5  4  2  0
  6  5  1  0
  7  6  1  0
  7  8  1  1
  9  7  1  0
  9 13  1  0
 10  9  2  0
 11 12  2  0
 12  2  1  0
 13 17  1  0
 13 14  1  0
 14 15  1  0
 16 17  1  0
 16 15  1  0
 17 18  1  1
 19 18  2  0
 20 21  1  0
 21 22  2  0
 21 31  1  0
 22 23  1  0
 23 24  2  0
 24 25  1  0
 26 25  1  1
 26 28  1  0
 26 27  1  0
 27 18  1  0
 28 32  1  0
 29 28  2  0
 30 24  1  0
 31 30  2  0
M  END
$$$$
