YPY.pdb
     RDKit          3D

 32 34  0  0  1  0  0  0  0  0999 V2000
    9.3035  -11.9281   19.7036 O   0  0  0  0  0  0  0  0  0  0  0  0
    8.4448  -12.8414   20.3300 C   0  0  0  0  0  0  0  0  0  0  0  0
    8.3789  -12.9258   21.7033 C   0  0  0  0  0  0  0  0  0  0  0  0
    7.5327  -13.8256   22.3191 C   0  0  0  0  0  0  0  0  0  0  0  0
    6.7102  -14.6861   21.5937 C   0  0  0  0  0  0  0  0  0  0  0  0
    5.8181  -15.6273   22.3171 C   0  0  0  0  0  0  0  0  0  0  0  0
    6.4374  -16.9778   22.2672 C   0  0  2  0  0  0  0  0  0  0  0  0
    5.4807  -18.0346   22.4480 N   0  0  0  0  0  0  0  0  0  0  0  0
    7.5904  -17.1930   23.1387 C   0  0  0  0  0  0  0  0  0  0  0  0
    7.2667  -17.6858   24.2814 O   0  0  0  0  0  0  0  0  0  0  0  0
    6.7837  -14.5935   20.2227 C   0  0  0  0  0  0  0  0  0  0  0  0
    7.6388  -13.6839   19.5975 C   0  0  0  0  0  0  0  0  0  0  0  0
    8.9431  -16.9413   22.8998 N   0  0  0  0  0  0  0  0  0  0  0  0
    9.5307  -16.2309   21.7807 C   0  0  0  0  0  0  0  0  0  0  0  0
   11.0175  -16.4071   21.8775 C   0  0  0  0  0  0  0  0  0  0  0  0
   11.2531  -17.4553   22.9435 C   0  0  0  0  0  0  0  0  0  0  0  0
   10.0117  -17.3841   23.7907 C   0  0  1  0  0  0  0  0  0  0  0  0
   10.1993  -16.4201   24.9091 C   0  0  0  0  0  0  0  0  0  0  0  0
   10.4802  -15.2294   24.6341 O   0  0  0  0  0  0  0  0  0  0  0  0
    6.0926  -11.8601   25.2314 O   0  0  0  0  0  0  0  0  0  0  0  0
    6.8506  -12.7707   25.9533 C   0  0  0  0  0  0  0  0  0  0  0  0
    8.0790  -12.4186   26.4792 C   0  0  0  0  0  0  0  0  0  0  0  0
    8.8600  -13.2948   27.2015 C   0  0  0  0  0  0  0  0  0  0  0  0
    8.3928  -14.5746   27.4050 C   0  0  0  0  0  0  0  0  0  0  0  0
    9.2075  -15.5372   28.1735 C   0  0  0  0  0  0  0  0  0  0  0  0
   10.4194  -15.9224   27.3950 C   0  0  2  0  0  0  0  0  0  0  0  0
   10.0775  -16.7749   26.2612 N   0  0  0  0  0  0  0  0  0  0  0  0
   11.4527  -16.6260   28.1803 C   0  0  0  0  0  0  0  0  0  0  0  0
   11.6168  -17.8596   28.0131 O   0  0  0  0  0  0  0  0  0  0  0  0
    7.1503  -14.9251   26.8713 C   0  0  0  0  0  0  0  0  0  0  0  0
    6.3744  -14.0550   26.1542 C   0  0  0  0  0  0  0  0  0  0  0  0
   12.2872  -16.0299   29.1151 O   0  0  0  0  0  0  0  0  0  0  0  0
  2  1  1  0
  3  2  2  0
  4  3  1  0
  5 11  1  0
  5  4  2  0
  6  5  1  0
  7  6  1  0
  7  8  1  1
  9  7  1  0
  9 13  1  0
 10  9  2  0
 11 12  2  0
 12  2  1  0
 13 17  1  0
 13 14  1  0
 14 15  1  0
 16 17  1  0
 16 15  1  0
 17 18  1  1
 19 18  2  0
 20 21  1  0
 21 22  2  0
 21 31  1  0
 22 23  1  0
 23 24  2  0
 24 25  1  0
 26 25  1  1
 26 28  1  0
 26 27  1  0
 27 18  1  0
 28 32  1  0
 29 28  2  0
 30 24  1  0
 31 30  2  0
M  END
$$$$
