YPY.pdb
     RDKit          3D

 32 34  0  0  1  0  0  0  0  0999 V2000
    6.8632  -10.5618   25.7192 O   0  0  0  0  0  0  0  0  0  0  0  0
    6.7736  -11.9452   25.9241 C   0  0  0  0  0  0  0  0  0  0  0  0
    5.5564  -12.5893   25.8941 C   0  0  0  0  0  0  0  0  0  0  0  0
    5.4694  -13.9519   26.0958 C   0  0  0  0  0  0  0  0  0  0  0  0
    6.5942  -14.7390   26.3379 C   0  0  0  0  0  0  0  0  0  0  0  0
    6.4331  -16.2010   26.5414 C   0  0  0  0  0  0  0  0  0  0  0  0
    6.3168  -16.8412   25.2048 C   0  0  2  0  0  0  0  0  0  0  0  0
    5.8084  -18.1834   25.2741 N   0  0  0  0  0  0  0  0  0  0  0  0
    7.5105  -16.8018   24.3629 C   0  0  0  0  0  0  0  0  0  0  0  0
    8.3025  -17.7925   24.5740 O   0  0  0  0  0  0  0  0  0  0  0  0
    7.8050  -14.0857   26.3657 C   0  0  0  0  0  0  0  0  0  0  0  0
    7.8955  -12.7075   26.1616 C   0  0  0  0  0  0  0  0  0  0  0  0
    7.8864  -15.8639   23.3989 N   0  0  0  0  0  0  0  0  0  0  0  0
    7.2196  -14.6218   23.0600 C   0  0  0  0  0  0  0  0  0  0  0  0
    7.8929  -14.0797   21.8336 C   0  0  0  0  0  0  0  0  0  0  0  0
    8.8024  -15.1781   21.3270 C   0  0  0  0  0  0  0  0  0  0  0  0
    9.0656  -16.0127   22.5510 C   0  0  1  0  0  0  0  0  0  0  0  0
   10.2857  -15.5331   23.2556 C   0  0  0  0  0  0  0  0  0  0  0  0
   10.2807  -14.3791   23.7460 O   0  0  0  0  0  0  0  0  0  0  0  0
    9.0666  -15.4606   29.3030 O   0  0  0  0  0  0  0  0  0  0  0  0
    9.9968  -15.7849   28.3259 C   0  0  0  0  0  0  0  0  0  0  0  0
   11.0170  -14.9139   27.9946 C   0  0  0  0  0  0  0  0  0  0  0  0
   11.9592  -15.2008   27.0305 C   0  0  0  0  0  0  0  0  0  0  0  0
   11.8763  -16.4077   26.3716 C   0  0  0  0  0  0  0  0  0  0  0  0
   12.8701  -16.7433   25.3321 C   0  0  0  0  0  0  0  0  0  0  0  0
   12.6504  -15.9037   24.1198 C   0  0  2  0  0  0  0  0  0  0  0  0
   11.4467  -16.3077   23.4010 N   0  0  0  0  0  0  0  0  0  0  0  0
   13.7671  -15.9193   23.1543 C   0  0  0  0  0  0  0  0  0  0  0  0
   13.5808  -16.3968   22.0081 O   0  0  0  0  0  0  0  0  0  0  0  0
   10.8430  -17.2845   26.7107 C   0  0  0  0  0  0  0  0  0  0  0  0
    9.9074  -16.9999   27.6683 C   0  0  0  0  0  0  0  0  0  0  0  0
   15.0443  -15.4379   23.4047 O   0  0  0  0  0  0  0  0  0  0  0  0
  2  1  1  0
  3  2  2  0
  4  3  1  0
  5 11  1  0
  5  4  2  0
  6  5  1  0
  7  6  1  0
  7  8  1  1
  9  7  1  0
  9 13  1  0
 10  9  2  0
 11 12  2  0
 12  2  1  0
 13 17  1  0
 13 14  1  0
 14 15  1  0
 16 17  1  0
 16 15  1  0
 17 18  1  1
 19 18  2  0
 20 21  1  0
 21 22  2  0
 21 31  1  0
 22 23  1  0
 23 24  2  0
 24 25  1  0
 26 25  1  1
 26 28  1  0
 26 27  1  0
 27 18  1  0
 28 32  1  0
 29 28  2  0
 30 24  1  0
 31 30  2  0
M  END
$$$$
