RTV.pdb
     RDKit          3D

 26 25  0  0  1  0  0  0  0  0999 V2000
   16.0985  -18.4796   21.0973 N   0  0  0  0  0  0  0  0  0  0  0  0
   15.6657  -19.6850   21.7042 C   0  0  0  0  0  0  0  0  0  0  0  0
   16.4484  -20.7213   21.5897 N   0  0  0  0  0  0  0  0  0  0  0  0
   14.4434  -19.7600   22.4014 N   0  0  0  0  0  0  0  0  0  0  0  0
   13.4769  -18.7040   22.2444 C   0  0  0  0  0  0  0  0  0  0  0  0
   13.2596  -18.3397   20.8168 C   0  0  0  0  0  0  0  0  0  0  0  0
   12.4229  -17.1325   20.5451 C   0  0  0  0  0  0  0  0  0  0  0  0
   10.9879  -17.5017   20.3332 C   0  0  2  0  0  0  0  0  0  0  0  0
   10.6997  -17.6582   18.9149 N   0  0  0  0  0  0  0  0  0  0  0  0
   10.0678  -16.4457   20.8459 C   0  0  0  0  0  0  0  0  0  0  0  0
   10.0315  -15.3219   20.2696 O   0  0  0  0  0  0  0  0  0  0  0  0
   16.2027  -21.6448   21.9597 C   0  0  0  0  0  0  0  0  0  0  0  0
    6.5176  -16.2179   20.8691 C   0  0  2  0  0  0  0  0  0  0  0  0
    6.8893  -15.9441   22.3013 O   0  0  0  0  0  0  0  0  0  0  0  0
    6.7051  -17.1000   23.0451 C   0  0  2  0  0  0  0  0  0  0  0  0
    8.3511  -15.5301   22.4393 N   0  0  0  0  0  0  0  0  0  0  0  0
    9.2086  -16.6326   21.9701 C   0  0  0  0  0  0  0  0  0  0  0  0
    8.7121  -15.1456   23.8163 O   0  0  0  0  0  0  0  0  0  0  0  0
    9.5443  -15.8130   24.5086 C   0  0  0  0  0  0  0  0  0  0  0  0
    8.1318  -11.7962   27.4311 C   0  0  1  0  0  0  0  0  0  0  0  0
    7.6878  -12.2676   26.0664 C   0  0  0  0  0  0  0  0  0  0  0  0
    6.1990  -12.5371   26.1249 C   0  0  2  0  0  0  0  0  0  0  0  0
    8.3757  -13.5927   25.7748 N   0  0  0  0  0  0  0  0  0  0  0  0
    8.1361  -14.0104   24.4060 C   0  0  0  0  0  0  0  0  0  0  0  0
    8.0318  -14.6421   26.7462 O   0  0  0  0  0  0  0  0  0  0  0  0
    8.7671  -14.7238   27.9489 O   0  0  0  0  0  0  0  0  0  0  0  0
  1  2  1  0
  2  3  2  0
  4  5  1  0
  4  2  1  0
  6  7  1  0
  6  5  1  0
  8  9  1  6
  8  7  1  0
 10  8  1  0
 11 10  2  0
 13 12  1  1
 13 15  1  0
 14 13  1  0
 15 16  1  1
 16 10  1  0
 17 15  1  0
 17 18  2  0
 20 19  1  6
 20 21  1  0
 20 22  1  0
 22 23  1  1
 23 17  1  0
 24 22  1  0
 25 24  1  0
 26 24  2  0
M  END
$$$$
