RTV.pdb
     RDKit          3D

 26 25  0  0  1  0  0  0  0  0999 V2000
   14.9762  -17.7098   13.5232 N   0  0  0  0  0  0  0  0  0  0  0  0
   14.3957  -18.4550   12.4665 C   0  0  0  0  0  0  0  0  0  0  0  0
   15.0405  -18.4796   11.3337 N   0  0  0  0  0  0  0  0  0  0  0  0
   13.1754  -19.1399   12.6333 N   0  0  0  0  0  0  0  0  0  0  0  0
   12.4590  -19.0104   13.8758 C   0  0  0  0  0  0  0  0  0  0  0  0
   11.6176  -17.7824   13.9217 C   0  0  0  0  0  0  0  0  0  0  0  0
   10.9532  -17.4642   15.2212 C   0  0  0  0  0  0  0  0  0  0  0  0
    9.5915  -18.0804   15.3011 C   0  0  2  0  0  0  0  0  0  0  0  0
    8.8799  -17.9241   14.0408 N   0  0  0  0  0  0  0  0  0  0  0  0
    8.7554  -17.4305   16.3514 C   0  0  0  0  0  0  0  0  0  0  0  0
    8.1366  -16.3631   16.0788 O   0  0  0  0  0  0  0  0  0  0  0  0
   14.6637  -18.9252   10.4913 C   0  0  0  0  0  0  0  0  0  0  0  0
    6.0171  -19.0180   18.3836 C   0  0  2  0  0  0  0  0  0  0  0  0
    6.8726  -18.2581   19.3609 O   0  0  0  0  0  0  0  0  0  0  0  0
    7.6873  -19.1524   20.0391 C   0  0  2  0  0  0  0  0  0  0  0  0
    7.7744  -17.2470   18.6597 N   0  0  0  0  0  0  0  0  0  0  0  0
    8.6093  -17.9525   17.6717 C   0  0  0  0  0  0  0  0  0  0  0  0
    8.6182  -16.4826   19.5966 O   0  0  0  0  0  0  0  0  0  0  0  0
    9.8517  -16.7437   19.7630 C   0  0  0  0  0  0  0  0  0  0  0  0
    6.9041  -13.1246   21.6124 C   0  0  1  0  0  0  0  0  0  0  0  0
    8.3768  -13.1876   21.2821 C   0  0  0  0  0  0  0  0  0  0  0  0
    8.5604  -12.6955   19.8620 C   0  0  1  0  0  0  0  0  0  0  0  0
    8.8087  -14.6459   21.3143 N   0  0  0  0  0  0  0  0  0  0  0  0
    8.0698  -15.4265   20.3396 C   0  0  0  0  0  0  0  0  0  0  0  0
    8.7454  -15.2320   22.6617 O   0  0  0  0  0  0  0  0  0  0  0  0
    9.6669  -14.7947   23.6382 O   0  0  0  0  0  0  0  0  0  0  0  0
  1  2  1  0
  2  3  2  0
  4  5  1  0
  4  2  1  0
  6  7  1  0
  6  5  1  0
  8  9  1  6
  8  7  1  0
 10  8  1  0
 11 10  2  0
 13 12  1  1
 13 15  1  0
 14 13  1  0
 15 16  1  1
 16 10  1  0
 17 15  1  0
 17 18  2  0
 20 19  1  1
 20 21  1  0
 20 22  1  0
 22 23  1  6
 23 17  1  0
 24 22  1  0
 25 24  1  0
 26 24  2  0
M  END
$$$$
