RTV.pdb
     RDKit          3D

 26 25  0  0  1  0  0  0  0  0999 V2000
   10.2321  -12.5623   18.4896 N   0  0  0  0  0  0  0  0  0  0  0  0
    9.0651  -12.4850   19.2901 C   0  0  0  0  0  0  0  0  0  0  0  0
    8.5195  -11.3095   19.4320 N   0  0  0  0  0  0  0  0  0  0  0  0
    8.5179  -13.6288   19.9053 N   0  0  0  0  0  0  0  0  0  0  0  0
    8.5717  -14.8926   19.2170 C   0  0  0  0  0  0  0  0  0  0  0  0
    7.2220  -15.3828   18.8219 C   0  0  0  0  0  0  0  0  0  0  0  0
    6.4068  -16.0508   19.8804 C   0  0  0  0  0  0  0  0  0  0  0  0
    7.2349  -17.0041   20.6841 C   0  0  2  0  0  0  0  0  0  0  0  0
    6.9738  -18.3788   20.2830 N   0  0  0  0  0  0  0  0  0  0  0  0
    6.9203  -16.9127   22.1392 C   0  0  0  0  0  0  0  0  0  0  0  0
    5.7316  -16.6877   22.5036 O   0  0  0  0  0  0  0  0  0  0  0  0
    7.6954  -11.1483   20.0194 C   0  0  0  0  0  0  0  0  0  0  0  0
    7.1506  -18.0537   26.7458 C   0  0  2  0  0  0  0  0  0  0  0  0
    7.5861  -18.1878   25.3117 O   0  0  0  0  0  0  0  0  0  0  0  0
    6.7294  -19.0613   24.6588 C   0  0  1  0  0  0  0  0  0  0  0  0
    7.5377  -16.8521   24.5763 N   0  0  0  0  0  0  0  0  0  0  0  0
    7.9007  -17.0679   23.1648 C   0  0  0  0  0  0  0  0  0  0  0  0
    8.4100  -15.8299   25.1831 O   0  0  0  0  0  0  0  0  0  0  0  0
    9.6684  -15.8195   25.0000 C   0  0  0  0  0  0  0  0  0  0  0  0
    6.5732  -12.6906   27.3608 C   0  0  1  0  0  0  0  0  0  0  0  0
    7.9345  -12.4920   26.7370 C   0  0  0  0  0  0  0  0  0  0  0  0
    7.7333  -12.0610   25.2995 C   0  0  1  0  0  0  0  0  0  0  0  0
    8.6454  -13.8366   26.7102 N   0  0  0  0  0  0  0  0  0  0  0  0
    7.8608  -14.8230   25.9911 C   0  0  0  0  0  0  0  0  0  0  0  0
    9.0371  -14.3037   28.0487 O   0  0  0  0  0  0  0  0  0  0  0  0
   10.0269  -13.5877   28.7569 O   0  0  0  0  0  0  0  0  0  0  0  0
  1  2  1  0
  2  3  2  0
  4  5  1  0
  4  2  1  0
  6  7  1  0
  6  5  1  0
  8  9  1  6
  8  7  1  0
 10  8  1  0
 11 10  2  0
 13 12  1  1
 13 15  1  0
 14 13  1  0
 15 16  1  1
 16 10  1  0
 17 15  1  0
 17 18  2  0
 20 19  1  1
 20 21  1  0
 20 22  1  0
 22 23  1  6
 23 17  1  0
 24 22  1  0
 25 24  1  0
 26 24  2  0
M  END
$$$$
