RTV.pdb
     RDKit          3D

 26 25  0  0  1  0  0  0  0  0999 V2000
    6.8770  -13.7958   17.7789 N   0  0  0  0  0  0  0  0  0  0  0  0
    8.0605  -13.1904   18.2702 C   0  0  0  0  0  0  0  0  0  0  0  0
    7.9427  -12.0101   18.8113 N   0  0  0  0  0  0  0  0  0  0  0  0
    9.3098  -13.8362   18.1787 N   0  0  0  0  0  0  0  0  0  0  0  0
    9.3615  -15.2150   17.7665 C   0  0  0  0  0  0  0  0  0  0  0  0
    9.7287  -16.1290   18.8836 C   0  0  0  0  0  0  0  0  0  0  0  0
    9.9472  -15.5074   20.2241 C   0  0  0  0  0  0  0  0  0  0  0  0
   10.3602  -16.5293   21.2368 C   0  0  2  0  0  0  0  0  0  0  0  0
   10.1060  -17.8754   20.7443 N   0  0  0  0  0  0  0  0  0  0  0  0
    9.5938  -16.3837   22.5079 C   0  0  0  0  0  0  0  0  0  0  0  0
    8.9193  -15.3342   22.7085 O   0  0  0  0  0  0  0  0  0  0  0  0
    8.7478  -11.4698   19.1431 C   0  0  0  0  0  0  0  0  0  0  0  0
    6.9171  -18.4156   24.3197 C   0  0  2  0  0  0  0  0  0  0  0  0
    8.0814  -18.2446   25.2574 O   0  0  0  0  0  0  0  0  0  0  0  0
    8.8509  -19.3982   25.2378 C   0  0  2  0  0  0  0  0  0  0  0  0
    8.9771  -17.0809   24.8442 N   0  0  0  0  0  0  0  0  0  0  0  0
    9.5757  -17.3785   23.5312 C   0  0  0  0  0  0  0  0  0  0  0  0
   10.0280  -16.7843   25.8351 O   0  0  0  0  0  0  0  0  0  0  0  0
   11.2491  -17.0776   25.6343 C   0  0  0  0  0  0  0  0  0  0  0  0
    8.9048  -14.6292   29.3090 C   0  0  1  0  0  0  0  0  0  0  0  0
   10.3051  -14.5112   28.7549 C   0  0  0  0  0  0  0  0  0  0  0  0
   10.2960  -13.4441   27.6808 C   0  0  1  0  0  0  0  0  0  0  0  0
   10.6616  -15.8275   28.0809 N   0  0  0  0  0  0  0  0  0  0  0  0
    9.6992  -16.1569   27.0461 C   0  0  0  0  0  0  0  0  0  0  0  0
   10.8497  -16.9282   29.0381 O   0  0  0  0  0  0  0  0  0  0  0  0
   11.8893  -16.8332   29.9890 O   0  0  0  0  0  0  0  0  0  0  0  0
  1  2  1  0
  2  3  2  0
  4  5  1  0
  4  2  1  0
  6  7  1  0
  6  5  1  0
  8  9  1  6
  8  7  1  0
 10  8  1  0
 11 10  2  0
 13 12  1  1
 13 15  1  0
 14 13  1  0
 15 16  1  1
 16 10  1  0
 17 15  1  0
 17 18  2  0
 20 19  1  1
 20 21  1  0
 20 22  1  0
 22 23  1  6
 23 17  1  0
 24 22  1  0
 25 24  1  0
 26 24  2  0
M  END
$$$$
