RTV.pdb
     RDKit          3D

 26 25  0  0  1  0  0  0  0  0999 V2000
   15.3645  -15.3014   20.3330 N   0  0  0  0  0  0  0  0  0  0  0  0
   15.4527  -14.5393   19.1413 C   0  0  0  0  0  0  0  0  0  0  0  0
   16.6014  -14.5327   18.5247 N   0  0  0  0  0  0  0  0  0  0  0  0
   14.3470  -13.8207   18.6442 N   0  0  0  0  0  0  0  0  0  0  0  0
   13.1321  -13.7745   19.4160 C   0  0  0  0  0  0  0  0  0  0  0  0
   12.3091  -15.0052   19.2552 C   0  0  0  0  0  0  0  0  0  0  0  0
   11.9937  -15.7766   20.4949 C   0  0  0  0  0  0  0  0  0  0  0  0
   10.6352  -16.4001   20.4168 C   0  0  2  0  0  0  0  0  0  0  0  0
    9.8945  -15.8813   19.2761 N   0  0  0  0  0  0  0  0  0  0  0  0
    9.8226  -16.0999   21.6309 C   0  0  0  0  0  0  0  0  0  0  0  0
    8.5773  -15.9206   21.5147 O   0  0  0  0  0  0  0  0  0  0  0  0
   16.7954  -13.9271   17.7211 C   0  0  0  0  0  0  0  0  0  0  0  0
    8.5908  -18.0642   22.5047 C   0  0  2  0  0  0  0  0  0  0  0  0
    9.1014  -17.8475   23.9035 O   0  0  0  0  0  0  0  0  0  0  0  0
   10.1732  -18.6980   24.1302 C   0  0  2  0  0  0  0  0  0  0  0  0
    9.5894  -16.4177   24.1147 N   0  0  0  0  0  0  0  0  0  0  0  0
   10.3783  -16.0015   22.9419 C   0  0  0  0  0  0  0  0  0  0  0  0
   10.3772  -16.2558   25.3504 O   0  0  0  0  0  0  0  0  0  0  0  0
   11.5975  -16.6061   25.4253 C   0  0  0  0  0  0  0  0  0  0  0  0
    8.4534  -14.6874   28.8613 C   0  0  1  0  0  0  0  0  0  0  0  0
    9.8503  -14.2605   28.4761 C   0  0  0  0  0  0  0  0  0  0  0  0
    9.7364  -13.0966   27.5144 C   0  0  1  0  0  0  0  0  0  0  0  0
   10.5062  -15.4072   27.7219 N   0  0  0  0  0  0  0  0  0  0  0  0
    9.7881  -15.6982   26.4951 C   0  0  0  0  0  0  0  0  0  0  0  0
   10.6965  -16.6049   28.5540 O   0  0  0  0  0  0  0  0  0  0  0  0
   11.6522  -16.5672   29.5929 O   0  0  0  0  0  0  0  0  0  0  0  0
  1  2  1  0
  2  3  2  0
  4  5  1  0
  4  2  1  0
  6  7  1  0
  6  5  1  0
  8  9  1  6
  8  7  1  0
 10  8  1  0
 11 10  2  0
 13 12  1  1
 13 15  1  0
 14 13  1  0
 15 16  1  1
 16 10  1  0
 17 15  1  0
 17 18  2  0
 20 19  1  1
 20 21  1  0
 20 22  1  0
 22 23  1  6
 23 17  1  0
 24 22  1  0
 25 24  1  0
 26 24  2  0
M  END
$$$$
