RTV.pdb
     RDKit          3D

 26 25  0  0  1  0  0  0  0  0999 V2000
   16.5700  -15.0863   18.5744 N   0  0  0  0  0  0  0  0  0  0  0  0
   15.3648  -14.4066   18.2675 C   0  0  0  0  0  0  0  0  0  0  0  0
   15.2604  -13.1717   18.6720 N   0  0  0  0  0  0  0  0  0  0  0  0
   14.3251  -15.0376   17.5555 N   0  0  0  0  0  0  0  0  0  0  0  0
   13.2609  -15.6789   18.2835 C   0  0  0  0  0  0  0  0  0  0  0  0
   12.2880  -14.7019   18.8466 C   0  0  0  0  0  0  0  0  0  0  0  0
   10.9930  -15.2490   19.3513 C   0  0  0  0  0  0  0  0  0  0  0  0
   11.1967  -16.0885   20.5737 C   0  0  2  0  0  0  0  0  0  0  0  0
   11.2088  -17.5033   20.2315 N   0  0  0  0  0  0  0  0  0  0  0  0
   10.0976  -15.8938   21.5629 C   0  0  0  0  0  0  0  0  0  0  0  0
    9.5785  -14.7495   21.6958 O   0  0  0  0  0  0  0  0  0  0  0  0
   14.4411  -12.5900   18.4706 C   0  0  0  0  0  0  0  0  0  0  0  0
    7.3051  -18.7598   22.4425 C   0  0  2  0  0  0  0  0  0  0  0  0
    7.8041  -18.0236   23.6563 O   0  0  0  0  0  0  0  0  0  0  0  0
    8.7640  -18.7973   24.2915 C   0  0  2  0  0  0  0  0  0  0  0  0
    8.4498  -16.6917   23.2871 N   0  0  0  0  0  0  0  0  0  0  0  0
    9.5866  -16.9434   22.3841 C   0  0  0  0  0  0  0  0  0  0  0  0
    8.8870  -15.9190   24.4642 O   0  0  0  0  0  0  0  0  0  0  0  0
   10.1069  -15.8585   24.8186 C   0  0  0  0  0  0  0  0  0  0  0  0
    7.0155  -12.5636   25.7151 C   0  0  1  0  0  0  0  0  0  0  0  0
    7.1642  -13.5503   26.8490 C   0  0  0  0  0  0  0  0  0  0  0  0
    7.6355  -12.7919   28.0718 C   0  0  2  0  0  0  0  0  0  0  0  0
    8.2611  -14.5373   26.4790 N   0  0  0  0  0  0  0  0  0  0  0  0
    7.9490  -15.2161   25.2351 C   0  0  0  0  0  0  0  0  0  0  0  0
    8.5739  -15.4788   27.5647 O   0  0  0  0  0  0  0  0  0  0  0  0
    7.8188  -16.6670   27.6739 O   0  0  0  0  0  0  0  0  0  0  0  0
  1  2  1  0
  2  3  2  0
  4  5  1  0
  4  2  1  0
  6  7  1  0
  6  5  1  0
  8  9  1  6
  8  7  1  0
 10  8  1  0
 11 10  2  0
 13 12  1  1
 13 15  1  0
 14 13  1  0
 15 16  1  1
 16 10  1  0
 17 15  1  0
 17 18  2  0
 20 19  1  1
 20 21  1  0
 20 22  1  0
 22 23  1  6
 23 17  1  0
 24 22  1  0
 25 24  1  0
 26 24  2  0
M  END
$$$$
