RTV.pdb
     RDKit          3D

 26 25  0  0  1  0  0  0  0  0999 V2000
    7.8991  -17.4523   16.5431 N   0  0  0  0  0  0  0  0  0  0  0  0
    7.6186  -17.7219   15.1803 C   0  0  0  0  0  0  0  0  0  0  0  0
    6.9534  -18.8115   14.9156 N   0  0  0  0  0  0  0  0  0  0  0  0
    8.0395  -16.8501   14.1562 N   0  0  0  0  0  0  0  0  0  0  0  0
    9.0066  -15.8260   14.4560 C   0  0  0  0  0  0  0  0  0  0  0  0
   10.3493  -16.3871   14.7729 C   0  0  0  0  0  0  0  0  0  0  0  0
   11.4704  -15.4131   14.9326 C   0  0  0  0  0  0  0  0  0  0  0  0
   12.7811  -16.1156   15.1033 C   0  0  2  0  0  0  0  0  0  0  0  0
   13.0646  -16.9644   13.9552 N   0  0  0  0  0  0  0  0  0  0  0  0
   12.7772  -17.0012   16.3034 C   0  0  0  0  0  0  0  0  0  0  0  0
   12.1420  -18.0928   16.2663 O   0  0  0  0  0  0  0  0  0  0  0  0
    6.6634  -19.0668   13.9665 C   0  0  0  0  0  0  0  0  0  0  0  0
   14.7604  -19.3197   17.4400 C   0  0  2  0  0  0  0  0  0  0  0  0
   14.6549  -18.4692   18.6768 O   0  0  0  0  0  0  0  0  0  0  0  0
   15.7521  -17.6233   18.7388 C   0  0  2  0  0  0  0  0  0  0  0  0
   13.3994  -17.6026   18.6647 N   0  0  0  0  0  0  0  0  0  0  0  0
   13.4618  -16.6835   17.5148 C   0  0  0  0  0  0  0  0  0  0  0  0
   13.2088  -16.8493   19.9178 O   0  0  0  0  0  0  0  0  0  0  0  0
   13.7698  -15.7268   20.1241 C   0  0  0  0  0  0  0  0  0  0  0  0
   10.3301  -18.2882   22.6369 C   0  0  1  0  0  0  0  0  0  0  0  0
   10.7046  -16.8248   22.6286 C   0  0  0  0  0  0  0  0  0  0  0  0
    9.8745  -16.1343   21.5672 C   0  0  1  0  0  0  0  0  0  0  0  0
   12.1620  -16.7099   22.2080 N   0  0  0  0  0  0  0  0  0  0  0  0
   12.3856  -17.3623   20.9313 C   0  0  0  0  0  0  0  0  0  0  0  0
   13.0953  -17.1776   23.2441 O   0  0  0  0  0  0  0  0  0  0  0  0
   13.2194  -16.4304   24.4358 O   0  0  0  0  0  0  0  0  0  0  0  0
  1  2  1  0
  2  3  2  0
  4  5  1  0
  4  2  1  0
  6  7  1  0
  6  5  1  0
  8  9  1  6
  8  7  1  0
 10  8  1  0
 11 10  2  0
 13 12  1  1
 13 15  1  0
 14 13  1  0
 15 16  1  1
 16 10  1  0
 17 15  1  0
 17 18  2  0
 20 19  1  1
 20 21  1  0
 20 22  1  0
 22 23  1  6
 23 17  1  0
 24 22  1  0
 25 24  1  0
 26 24  2  0
M  END
$$$$
