MLV.pdb
     RDKit          3D

 24 23  0  0  1  0  0  0  0  0999 V2000
    6.6118  -19.8405   21.2997 C   0  0  0  0  0  0  0  0  0  0  0  0
    6.6636  -19.1129   19.6387 S   0  0  0  0  0  0  0  0  0  0  0  0
    7.0292  -17.3444   19.7285 C   0  0  0  0  0  0  0  0  0  0  0  0
    7.7628  -17.0789   21.0149 C   0  0  0  0  0  0  0  0  0  0  0  0
    7.8740  -15.5587   21.1706 C   0  0  2  0  0  0  0  0  0  0  0  0
    8.6718  -15.0558   20.0942 N   0  0  0  0  0  0  0  0  0  0  0  0
    8.4756  -15.2751   22.5034 C   0  0  0  0  0  0  0  0  0  0  0  0
    9.7281  -15.2946   22.5836 O   0  0  0  0  0  0  0  0  0  0  0  0
    8.1024  -11.7012   25.6477 C   0  0  0  0  0  0  0  0  0  0  0  0
    6.9666  -12.6657   25.6123 C   0  0  2  0  0  0  0  0  0  0  0  0
    5.9687  -12.2111   26.6930 C   0  0  0  0  0  0  0  0  0  0  0  0
    7.2820  -14.0800   25.9212 C   0  0  0  0  0  0  0  0  0  0  0  0
    8.0928  -14.8649   24.9817 C   0  0  2  0  0  0  0  0  0  0  0  0
    7.6601  -14.9956   23.6297 N   0  0  0  0  0  0  0  0  0  0  0  0
    8.5559  -16.1329   25.6156 C   0  0  0  0  0  0  0  0  0  0  0  0
    7.6966  -17.0356   25.9077 O   0  0  0  0  0  0  0  0  0  0  0  0
   11.1387  -18.3831   24.2550 C   0  0  0  0  0  0  0  0  0  0  0  0
   11.4985  -18.3189   25.7447 C   0  0  1  0  0  0  0  0  0  0  0  0
   12.6778  -17.4003   25.8949 C   0  0  0  0  0  0  0  0  0  0  0  0
   10.2541  -17.7990   26.4290 C   0  0  2  0  0  0  0  0  0  0  0  0
    9.8916  -16.4533   25.9479 N   0  0  0  0  0  0  0  0  0  0  0  0
   10.5592  -17.6826   27.8687 C   0  0  0  0  0  0  0  0  0  0  0  0
   10.5641  -16.5519   28.4044 O   0  0  0  0  0  0  0  0  0  0  0  0
   10.8441  -18.7716   28.6683 O   0  0  0  0  0  0  0  0  0  0  0  0
  2  3  1  0
  2  1  1  0
  4  5  1  0
  4  3  1  0
  5  6  1  6
  7  8  2  0
  7  5  1  0
 10  9  1  1
 10 12  1  0
 10 11  1  0
 13 12  1  1
 13 14  1  0
 14  7  1  0
 15 16  2  0
 15 13  1  0
 18 17  1  6
 18 20  1  0
 19 18  1  0
 20 22  1  0
 20 21  1  6
 21 15  1  0
 22 24  1  0
 23 22  2  0
M  END
$$$$
