MLV.pdb
     RDKit          3D

 24 23  0  0  1  0  0  0  0  0999 V2000
    4.1403  -18.9794   22.4513 C   0  0  0  0  0  0  0  0  0  0  0  0
    4.1159  -18.5346   20.6928 S   0  0  0  0  0  0  0  0  0  0  0  0
    5.0825  -17.0347   20.4011 C   0  0  0  0  0  0  0  0  0  0  0  0
    6.0510  -16.8684   21.5403 C   0  0  0  0  0  0  0  0  0  0  0  0
    6.7158  -15.4976   21.3769 C   0  0  2  0  0  0  0  0  0  0  0  0
    7.4504  -15.5002   20.1487 N   0  0  0  0  0  0  0  0  0  0  0  0
    7.5900  -15.2657   22.5604 C   0  0  0  0  0  0  0  0  0  0  0  0
    8.8163  -15.4954   22.4220 O   0  0  0  0  0  0  0  0  0  0  0  0
    7.6970  -11.4859   25.4912 C   0  0  0  0  0  0  0  0  0  0  0  0
    6.6650  -12.5123   25.8119 C   0  0  2  0  0  0  0  0  0  0  0  0
    5.9522  -12.0358   27.0907 C   0  0  0  0  0  0  0  0  0  0  0  0
    7.1525  -13.8801   26.1055 C   0  0  0  0  0  0  0  0  0  0  0  0
    7.7427  -14.6870   25.0299 C   0  0  2  0  0  0  0  0  0  0  0  0
    7.0513  -14.8047   23.7889 N   0  0  0  0  0  0  0  0  0  0  0  0
    8.2852  -15.9679   25.5677 C   0  0  0  0  0  0  0  0  0  0  0  0
    7.4773  -16.8323   26.0564 O   0  0  0  0  0  0  0  0  0  0  0  0
   10.7338  -18.2625   23.8259 C   0  0  0  0  0  0  0  0  0  0  0  0
   11.2287  -18.2105   25.2768 C   0  0  1  0  0  0  0  0  0  0  0  0
   12.4304  -17.3099   25.3219 C   0  0  0  0  0  0  0  0  0  0  0  0
   10.0597  -17.6757   26.0734 C   0  0  2  0  0  0  0  0  0  0  0  0
    9.6480  -16.3401   25.6038 N   0  0  0  0  0  0  0  0  0  0  0  0
   10.5098  -17.5294   27.4718 C   0  0  0  0  0  0  0  0  0  0  0  0
   10.5785  -16.3867   27.9768 O   0  0  0  0  0  0  0  0  0  0  0  0
   10.8645  -18.6028   28.2646 O   0  0  0  0  0  0  0  0  0  0  0  0
  2  3  1  0
  2  1  1  0
  4  5  1  0
  4  3  1  0
  5  6  1  6
  7  8  2  0
  7  5  1  0
 10  9  1  1
 10 12  1  0
 10 11  1  0
 13 12  1  1
 13 14  1  0
 14  7  1  0
 15 16  2  0
 15 13  1  0
 18 17  1  6
 18 20  1  0
 19 18  1  0
 20 22  1  0
 20 21  1  6
 21 15  1  0
 22 24  1  0
 23 22  2  0
M  END
$$$$
