MLV.pdb
     RDKit          3D

 24 23  0  0  1  0  0  0  0  0999 V2000
    5.7769  -20.9034   24.7478 C   0  0  0  0  0  0  0  0  0  0  0  0
    4.9780  -20.8667   23.1196 S   0  0  0  0  0  0  0  0  0  0  0  0
    5.1929  -19.2493   22.3404 C   0  0  0  0  0  0  0  0  0  0  0  0
    6.3476  -18.5534   23.0082 C   0  0  0  0  0  0  0  0  0  0  0  0
    6.4205  -17.1357   22.4315 C   0  0  2  0  0  0  0  0  0  0  0  0
    6.8181  -17.2305   21.0600 N   0  0  0  0  0  0  0  0  0  0  0  0
    7.3891  -16.3547   23.2504 C   0  0  0  0  0  0  0  0  0  0  0  0
    8.5969  -16.4032   22.9120 O   0  0  0  0  0  0  0  0  0  0  0  0
    7.4270  -11.8179   24.9527 C   0  0  0  0  0  0  0  0  0  0  0  0
    6.5576  -12.8071   25.6506 C   0  0  2  0  0  0  0  0  0  0  0  0
    5.8904  -12.0597   26.8197 C   0  0  0  0  0  0  0  0  0  0  0  0
    7.2320  -13.9810   26.2524 C   0  0  0  0  0  0  0  0  0  0  0  0
    7.7814  -15.0280   25.3817 C   0  0  2  0  0  0  0  0  0  0  0  0
    6.9565  -15.5909   24.3645 N   0  0  0  0  0  0  0  0  0  0  0  0
    8.5597  -16.0212   26.1767 C   0  0  0  0  0  0  0  0  0  0  0  0
    7.9334  -16.9200   26.8391 O   0  0  0  0  0  0  0  0  0  0  0  0
   11.6452  -17.9375   24.8782 C   0  0  0  0  0  0  0  0  0  0  0  0
   11.9741  -17.5145   26.3154 C   0  0  1  0  0  0  0  0  0  0  0  0
   12.8810  -16.3186   26.2479 C   0  0  0  0  0  0  0  0  0  0  0  0
   10.6371  -17.2066   26.9517 C   0  0  2  0  0  0  0  0  0  0  0  0
    9.9676  -16.0733   26.2874 N   0  0  0  0  0  0  0  0  0  0  0  0
   10.8961  -16.8053   28.3486 C   0  0  0  0  0  0  0  0  0  0  0  0
   11.4345  -17.6206   29.1303 O   0  0  0  0  0  0  0  0  0  0  0  0
   10.5711  -15.5592   28.8465 O   0  0  0  0  0  0  0  0  0  0  0  0
  2  3  1  0
  2  1  1  0
  4  5  1  0
  4  3  1  0
  5  6  1  6
  7  8  2  0
  7  5  1  0
 10  9  1  1
 10 12  1  0
 10 11  1  0
 13 12  1  1
 13 14  1  0
 14  7  1  0
 15 16  2  0
 15 13  1  0
 18 17  1  6
 18 20  1  0
 19 18  1  0
 20 22  1  0
 20 21  1  6
 21 15  1  0
 22 24  1  0
 23 22  2  0
M  END
$$$$
