MLV.pdb
     RDKit          3D

 24 23  0  0  1  0  0  0  0  0999 V2000
    8.8142  -20.5117   21.9443 C   0  0  0  0  0  0  0  0  0  0  0  0
    7.8935  -20.0132   20.4629 S   0  0  0  0  0  0  0  0  0  0  0  0
    7.8037  -18.2112   20.3445 C   0  0  0  0  0  0  0  0  0  0  0  0
    8.4619  -17.6247   21.5636 C   0  0  0  0  0  0  0  0  0  0  0  0
    8.3383  -16.1010   21.4598 C   0  0  2  0  0  0  0  0  0  0  0  0
    9.1204  -15.6638   20.3439 N   0  0  0  0  0  0  0  0  0  0  0  0
    8.8059  -15.5124   22.7458 C   0  0  0  0  0  0  0  0  0  0  0  0
   10.0349  -15.2839   22.8591 O   0  0  0  0  0  0  0  0  0  0  0  0
    7.6989  -11.6222   25.3723 C   0  0  0  0  0  0  0  0  0  0  0  0
    6.7174  -12.7435   25.4040 C   0  0  2  0  0  0  0  0  0  0  0  0
    5.6038  -12.3267   26.3821 C   0  0  0  0  0  0  0  0  0  0  0  0
    7.2144  -14.0520   25.8895 C   0  0  0  0  0  0  0  0  0  0  0  0
    8.2209  -14.7817   25.1080 C   0  0  2  0  0  0  0  0  0  0  0  0
    7.8938  -15.2252   23.7934 N   0  0  0  0  0  0  0  0  0  0  0  0
    8.9149  -15.7941   25.9552 C   0  0  0  0  0  0  0  0  0  0  0  0
    8.3278  -16.9023   26.2117 O   0  0  0  0  0  0  0  0  0  0  0  0
   12.8321  -16.5634   25.9244 C   0  0  0  0  0  0  0  0  0  0  0  0
   12.3262  -16.5820   27.3724 C   0  0  1  0  0  0  0  0  0  0  0  0
   12.7133  -15.2791   28.0127 C   0  0  0  0  0  0  0  0  0  0  0  0
   10.8289  -16.7652   27.2647 C   0  0  2  0  0  0  0  0  0  0  0  0
   10.1966  -15.6521   26.5332 N   0  0  0  0  0  0  0  0  0  0  0  0
   10.2840  -16.7539   28.6368 C   0  0  0  0  0  0  0  0  0  0  0  0
   10.5988  -17.6703   29.4285 O   0  0  0  0  0  0  0  0  0  0  0  0
    9.4324  -15.7709   29.1005 O   0  0  0  0  0  0  0  0  0  0  0  0
  2  3  1  0
  2  1  1  0
  4  5  1  0
  4  3  1  0
  5  6  1  6
  7  8  2  0
  7  5  1  0
 10  9  1  1
 10 12  1  0
 10 11  1  0
 13 12  1  1
 13 14  1  0
 14  7  1  0
 15 16  2  0
 15 13  1  0
 18 17  1  6
 18 20  1  0
 19 18  1  0
 20 22  1  0
 20 21  1  6
 21 15  1  0
 22 24  1  0
 23 22  2  0
M  END
$$$$
