MLV.pdb
     RDKit          3D

 24 23  0  0  1  0  0  0  0  0999 V2000
    8.3748  -11.3764   19.5779 C   0  0  0  0  0  0  0  0  0  0  0  0
    7.8284  -12.6171   18.3725 S   0  0  0  0  0  0  0  0  0  0  0  0
    7.7892  -14.2615   19.1233 C   0  0  0  0  0  0  0  0  0  0  0  0
    8.2777  -14.1445   20.5415 C   0  0  0  0  0  0  0  0  0  0  0  0
    8.2214  -15.5453   21.1599 C   0  0  2  0  0  0  0  0  0  0  0  0
    6.8801  -16.0311   21.0457 N   0  0  0  0  0  0  0  0  0  0  0  0
    8.6685  -15.4414   22.5770 C   0  0  0  0  0  0  0  0  0  0  0  0
    9.9042  -15.4818   22.7933 O   0  0  0  0  0  0  0  0  0  0  0  0
    8.0283  -12.0638   25.8910 C   0  0  0  0  0  0  0  0  0  0  0  0
    6.8775  -12.9750   25.6326 C   0  0  2  0  0  0  0  0  0  0  0  0
    5.7547  -12.5512   26.5970 C   0  0  0  0  0  0  0  0  0  0  0  0
    7.1005  -14.4187   25.8798 C   0  0  0  0  0  0  0  0  0  0  0  0
    8.0253  -15.1681   25.0200 C   0  0  2  0  0  0  0  0  0  0  0  0
    7.7304  -15.3028   23.6318 N   0  0  0  0  0  0  0  0  0  0  0  0
    8.4684  -16.4246   25.6901 C   0  0  0  0  0  0  0  0  0  0  0  0
    7.5887  -17.2721   26.0731 O   0  0  0  0  0  0  0  0  0  0  0  0
   10.8648  -19.0040   24.4280 C   0  0  0  0  0  0  0  0  0  0  0  0
   11.3225  -18.7376   25.8676 C   0  0  1  0  0  0  0  0  0  0  0  0
   12.5176  -17.8289   25.8106 C   0  0  0  0  0  0  0  0  0  0  0  0
   10.1307  -18.1037   26.5494 C   0  0  2  0  0  0  0  0  0  0  0  0
    9.8056  -16.7899   25.9647 N   0  0  0  0  0  0  0  0  0  0  0  0
   10.5001  -17.8764   27.9606 C   0  0  0  0  0  0  0  0  0  0  0  0
   10.5720  -16.7049   28.3940 O   0  0  0  0  0  0  0  0  0  0  0  0
   10.7748  -18.9035   28.8416 O   0  0  0  0  0  0  0  0  0  0  0  0
  2  3  1  0
  2  1  1  0
  4  5  1  0
  4  3  1  0
  5  6  1  1
  7  8  2  0
  7  5  1  0
 10  9  1  1
 10 12  1  0
 10 11  1  0
 13 12  1  1
 13 14  1  0
 14  7  1  0
 15 16  2  0
 15 13  1  0
 18 17  1  6
 18 20  1  0
 19 18  1  0
 20 22  1  0
 20 21  1  6
 21 15  1  0
 22 24  1  0
 23 22  2  0
M  END
$$$$
