FKT.pdb
     RDKit          3D

 28 28  0  0  1  0  0  0  0  0999 V2000
   28.2842  -20.3177  -16.4803 N   0  0  0  0  0  0  0  0  0  0  0  0
   27.5996  -19.4465  -15.5289 C   0  0  1  0  0  0  0  0  0  0  0  0
   26.9037  -18.3971  -16.4043 C   0  0  0  0  0  0  0  0  0  0  0  0
   27.8966  -17.4165  -16.8679 C   0  0  0  0  0  0  0  0  0  0  0  0
   28.6606  -17.5286  -18.0024 C   0  0  0  0  0  0  0  0  0  0  0  0
   29.5746  -16.5816  -18.4076 C   0  0  0  0  0  0  0  0  0  0  0  0
   29.7581  -15.4461  -17.6571 C   0  0  0  0  0  0  0  0  0  0  0  0
   29.0020  -15.2941  -16.4976 C   0  0  0  0  0  0  0  0  0  0  0  0
   28.0917  -16.2542  -16.1095 C   0  0  0  0  0  0  0  0  0  0  0  0
   26.5816  -20.2306  -14.7970 C   0  0  0  0  0  0  0  0  0  0  0  0
   25.9991  -21.2357  -15.3135 O   0  0  0  0  0  0  0  0  0  0  0  0
   26.1886  -19.9158  -13.4726 N   0  0  0  0  0  0  0  0  0  0  0  0
   25.1390  -20.5538  -12.7564 C   0  0  1  0  0  0  0  0  0  0  0  0
   25.1572  -20.3029  -11.2699 C   0  0  0  0  0  0  0  0  0  0  0  0
   24.0092  -21.0259  -10.5763 C   0  0  0  0  0  0  0  0  0  0  0  0
   24.1288  -20.7913   -9.1020 C   0  0  0  0  0  0  0  0  0  0  0  0
   23.0515  -21.5130   -8.3197 C   0  0  0  0  0  0  0  0  0  0  0  0
   23.2008  -21.3290   -6.8967 N   0  0  0  0  0  0  0  0  0  0  0  0
   23.8307  -20.1023  -13.2635 C   0  0  0  0  0  0  0  0  0  0  0  0
   23.6129  -18.8370  -13.2427 O   0  0  0  0  0  0  0  0  0  0  0  0
   22.0965  -19.8332  -16.4649 C   0  0  0  0  0  0  0  0  0  0  0  0
   21.2186  -20.7292  -15.6374 C   0  0  1  0  0  0  0  0  0  0  0  0
   21.3256  -22.0623  -15.9484 O   0  0  0  0  0  0  0  0  0  0  0  0
   21.4835  -20.4241  -14.1714 C   0  0  2  0  0  0  0  0  0  0  0  0
   22.7952  -20.8921  -13.7691 N   0  0  0  0  0  0  0  0  0  0  0  0
   20.4743  -21.0114  -13.2758 C   0  0  0  0  0  0  0  0  0  0  0  0
   20.7762  -21.8884  -12.4100 O   0  0  0  0  0  0  0  0  0  0  0  0
   19.1602  -20.6189  -13.3557 O   0  0  0  0  0  0  0  0  0  0  0  0
  2  1  1  6
  2 10  1  0
  2  3  1  0
  3  4  1  0
  4  5  2  0
  4  9  1  0
  5  6  1  0
  6  7  2  0
  7  8  1  0
  9  8  2  0
 10 11  2  0
 12 13  1  0
 12 10  1  0
 13 14  1  1
 15 14  1  0
 16 15  1  0
 17 18  1  0
 17 16  1  0
 19 13  1  0
 20 19  2  0
 22 23  1  0
 22 21  1  6
 24 22  1  0
 24 25  1  1
 25 19  1  0
 26 28  1  0
 26 24  1  0
 27 26  2  0
M  END
$$$$
