FKT.pdb
     RDKit          3D

 28 28  0  0  1  0  0  0  0  0999 V2000
   21.6466  -19.5728  -14.3446 N   0  0  0  0  0  0  0  0  0  0  0  0
   21.8141  -19.2229  -15.7526 C   0  0  1  0  0  0  0  0  0  0  0  0
   20.6349  -18.2911  -16.0576 C   0  0  0  0  0  0  0  0  0  0  0  0
   19.6106  -19.0341  -16.8066 C   0  0  0  0  0  0  0  0  0  0  0  0
   18.5068  -19.6416  -16.2626 C   0  0  0  0  0  0  0  0  0  0  0  0
   17.5639  -20.3212  -17.0013 C   0  0  0  0  0  0  0  0  0  0  0  0
   17.7043  -20.4163  -18.3642 C   0  0  0  0  0  0  0  0  0  0  0  0
   18.8115  -19.8134  -18.9556 C   0  0  0  0  0  0  0  0  0  0  0  0
   19.7442  -19.1372  -18.1979 C   0  0  0  0  0  0  0  0  0  0  0  0
   23.0831  -18.4829  -15.9221 C   0  0  0  0  0  0  0  0  0  0  0  0
   23.5181  -17.6723  -15.0446 O   0  0  0  0  0  0  0  0  0  0  0  0
   23.8990  -18.6283  -17.0714 N   0  0  0  0  0  0  0  0  0  0  0  0
   25.1759  -18.0289  -17.2503 C   0  0  1  0  0  0  0  0  0  0  0  0
   26.2358  -18.9655  -17.7719 C   0  0  0  0  0  0  0  0  0  0  0  0
   26.5756  -20.0382  -16.7444 C   0  0  0  0  0  0  0  0  0  0  0  0
   27.6575  -20.9051  -17.3107 C   0  0  0  0  0  0  0  0  0  0  0  0
   28.1118  -21.9654  -16.3295 C   0  0  0  0  0  0  0  0  0  0  0  0
   29.1743  -22.7802  -16.8666 N   0  0  0  0  0  0  0  0  0  0  0  0
   25.0798  -16.9019  -18.1954 C   0  0  0  0  0  0  0  0  0  0  0  0
   24.5696  -17.1593  -19.3454 O   0  0  0  0  0  0  0  0  0  0  0  0
   23.1209  -13.7142  -18.2856 C   0  0  0  0  0  0  0  0  0  0  0  0
   24.5727  -13.3289  -18.3307 C   0  0  1  0  0  0  0  0  0  0  0  0
   25.0763  -12.8972  -17.1285 O   0  0  0  0  0  0  0  0  0  0  0  0
   25.3490  -14.4893  -18.9332 C   0  0  2  0  0  0  0  0  0  0  0  0
   25.4780  -15.5793  -17.9862 N   0  0  0  0  0  0  0  0  0  0  0  0
   26.6910  -14.0990  -19.3938 C   0  0  0  0  0  0  0  0  0  0  0  0
   26.8599  -13.2689  -20.3385 O   0  0  0  0  0  0  0  0  0  0  0  0
   27.8116  -14.6314  -18.8037 O   0  0  0  0  0  0  0  0  0  0  0  0
  2  1  1  1
  2 10  1  0
  2  3  1  0
  3  4  1  0
  4  5  2  0
  4  9  1  0
  5  6  1  0
  6  7  2  0
  7  8  1  0
  9  8  2  0
 10 11  2  0
 12 13  1  0
 12 10  1  0
 13 14  1  6
 15 14  1  0
 16 15  1  0
 17 18  1  0
 17 16  1  0
 19 13  1  0
 20 19  2  0
 22 23  1  0
 22 21  1  1
 24 22  1  0
 24 25  1  1
 25 19  1  0
 26 28  1  0
 26 24  1  0
 27 26  2  0
M  END
$$$$
