FKT.pdb
     RDKit          3D

 28 28  0  0  1  0  0  0  0  0999 V2000
   28.5044  -20.6807   -9.0062 N   0  0  0  0  0  0  0  0  0  0  0  0
   27.0568  -20.6374   -8.8185 C   0  0  1  0  0  0  0  0  0  0  0  0
   26.8229  -19.4059   -7.9350 C   0  0  0  0  0  0  0  0  0  0  0  0
   27.4438  -19.6271   -6.6204 C   0  0  0  0  0  0  0  0  0  0  0  0
   27.0159  -20.5262   -5.6760 C   0  0  0  0  0  0  0  0  0  0  0  0
   27.6320  -20.7102   -4.4582 C   0  0  0  0  0  0  0  0  0  0  0  0
   28.7419  -19.9679   -4.1366 C   0  0  0  0  0  0  0  0  0  0  0  0
   29.2082  -19.0437   -5.0680 C   0  0  0  0  0  0  0  0  0  0  0  0
   28.5769  -18.8750   -6.2822 C   0  0  0  0  0  0  0  0  0  0  0  0
   26.4024  -20.4346  -10.1290 C   0  0  0  0  0  0  0  0  0  0  0  0
   26.6622  -19.4343  -10.8695 O   0  0  0  0  0  0  0  0  0  0  0  0
   25.4443  -21.3407  -10.6473 N   0  0  0  0  0  0  0  0  0  0  0  0
   24.8637  -21.2660  -11.9431 C   0  0  1  0  0  0  0  0  0  0  0  0
   25.0826  -22.4904  -12.7951 C   0  0  0  0  0  0  0  0  0  0  0  0
   24.4387  -22.3280  -14.1666 C   0  0  0  0  0  0  0  0  0  0  0  0
   25.3683  -22.8994  -15.1924 C   0  0  0  0  0  0  0  0  0  0  0  0
   24.8532  -22.7019  -16.6027 C   0  0  0  0  0  0  0  0  0  0  0  0
   25.7113  -23.3203  -17.5838 N   0  0  0  0  0  0  0  0  0  0  0  0
   23.4083  -21.0580  -11.8361 C   0  0  0  0  0  0  0  0  0  0  0  0
   22.8128  -21.6563  -10.8684 O   0  0  0  0  0  0  0  0  0  0  0  0
   21.3930  -18.2735  -14.1683 C   0  0  0  0  0  0  0  0  0  0  0  0
   20.8242  -18.5959  -12.8153 C   0  0  1  0  0  0  0  0  0  0  0  0
   19.4857  -18.3172  -12.6883 O   0  0  0  0  0  0  0  0  0  0  0  0
   21.1784  -20.0378  -12.4873 C   0  0  2  0  0  0  0  0  0  0  0  0
   22.5963  -20.2810  -12.6659 N   0  0  0  0  0  0  0  0  0  0  0  0
   20.4244  -21.0081  -13.2968 C   0  0  0  0  0  0  0  0  0  0  0  0
   20.9611  -21.6396  -14.2576 O   0  0  0  0  0  0  0  0  0  0  0  0
   19.1005  -21.2585  -13.0286 O   0  0  0  0  0  0  0  0  0  0  0  0
  2  1  1  6
  2 10  1  0
  2  3  1  0
  3  4  1  0
  4  5  2  0
  4  9  1  0
  5  6  1  0
  6  7  2  0
  7  8  1  0
  9  8  2  0
 10 11  2  0
 12 13  1  0
 12 10  1  0
 13 14  1  1
 15 14  1  0
 16 15  1  0
 17 18  1  0
 17 16  1  0
 19 13  1  0
 20 19  2  0
 22 23  1  0
 22 21  1  6
 24 22  1  0
 24 25  1  6
 25 19  1  0
 26 28  1  0
 26 24  1  0
 27 26  2  0
M  END
$$$$
