FKT.pdb
     RDKit          3D

 28 28  0  0  1  0  0  0  0  0999 V2000
   26.7714  -18.4918   -7.8827 N   0  0  0  0  0  0  0  0  0  0  0  0
   27.0662  -19.8025   -8.4557 C   0  0  1  0  0  0  0  0  0  0  0  0
   26.9064  -20.7770   -7.2824 C   0  0  0  0  0  0  0  0  0  0  0  0
   27.9534  -20.5108   -6.2847 C   0  0  0  0  0  0  0  0  0  0  0  0
   29.2957  -20.7406   -6.4546 C   0  0  0  0  0  0  0  0  0  0  0  0
   30.2472  -20.4683   -5.4970 C   0  0  0  0  0  0  0  0  0  0  0  0
   29.8666  -19.9350   -4.2900 C   0  0  0  0  0  0  0  0  0  0  0  0
   28.5129  -19.6869   -4.0775 C   0  0  0  0  0  0  0  0  0  0  0  0
   27.5759  -19.9665   -5.0496 C   0  0  0  0  0  0  0  0  0  0  0  0
   26.0627  -20.1152   -9.4958 C   0  0  0  0  0  0  0  0  0  0  0  0
   24.8677  -19.6851   -9.4367 O   0  0  0  0  0  0  0  0  0  0  0  0
   26.3653  -20.9130  -10.6270 N   0  0  0  0  0  0  0  0  0  0  0  0
   26.0258  -20.5918  -11.9699 C   0  0  1  0  0  0  0  0  0  0  0  0
   27.0975  -20.9191  -12.9785 C   0  0  0  0  0  0  0  0  0  0  0  0
   26.6782  -20.4992  -14.3820 C   0  0  0  0  0  0  0  0  0  0  0  0
   27.7463  -20.9292  -15.3396 C   0  0  0  0  0  0  0  0  0  0  0  0
   27.5145  -20.3872  -16.7345 C   0  0  0  0  0  0  0  0  0  0  0  0
   28.5504  -20.7942  -17.6523 N   0  0  0  0  0  0  0  0  0  0  0  0
   24.8063  -21.3155  -12.3723 C   0  0  0  0  0  0  0  0  0  0  0  0
   24.8407  -22.5956  -12.2761 O   0  0  0  0  0  0  0  0  0  0  0  0
   21.2608  -21.2050  -11.0188 C   0  0  0  0  0  0  0  0  0  0  0  0
   21.1898  -20.8868  -12.4857 C   0  0  1  0  0  0  0  0  0  0  0  0
   21.0308  -19.5516  -12.7632 O   0  0  0  0  0  0  0  0  0  0  0  0
   22.4025  -21.5076  -13.1612 C   0  0  2  0  0  0  0  0  0  0  0  0
   23.6104  -20.7706  -12.8460 N   0  0  0  0  0  0  0  0  0  0  0  0
   22.2621  -21.5862  -14.6238 C   0  0  0  0  0  0  0  0  0  0  0  0
   23.0305  -20.9476  -15.4059 O   0  0  0  0  0  0  0  0  0  0  0  0
   21.2808  -22.3649  -15.1879 O   0  0  0  0  0  0  0  0  0  0  0  0
  2  1  1  1
  2 10  1  0
  2  3  1  0
  3  4  1  0
  4  5  2  0
  4  9  1  0
  5  6  1  0
  6  7  2  0
  7  8  1  0
  9  8  2  0
 10 11  2  0
 12 13  1  0
 12 10  1  0
 13 14  1  6
 15 14  1  0
 16 15  1  0
 17 18  1  0
 17 16  1  0
 19 13  1  0
 20 19  2  0
 22 23  1  0
 22 21  1  1
 24 22  1  0
 24 25  1  6
 25 19  1  0
 26 28  1  0
 26 24  1  0
 27 26  2  0
M  END
$$$$
