FKT.pdb
     RDKit          3D

 28 28  0  0  1  0  0  0  0  0999 V2000
   24.1256  -12.7811  -17.1589 N   0  0  0  0  0  0  0  0  0  0  0  0
   23.1714  -11.9670  -17.9070 C   0  0  1  0  0  0  0  0  0  0  0  0
   21.7976  -12.4807  -17.4593 C   0  0  0  0  0  0  0  0  0  0  0  0
   21.5086  -13.7508  -18.1418 C   0  0  0  0  0  0  0  0  0  0  0  0
   21.6839  -15.0027  -17.6075 C   0  0  0  0  0  0  0  0  0  0  0  0
   21.3917  -16.1698  -18.2776 C   0  0  0  0  0  0  0  0  0  0  0  0
   20.8941  -16.1155  -19.5564 C   0  0  0  0  0  0  0  0  0  0  0  0
   20.7017  -14.8636  -20.1353 C   0  0  0  0  0  0  0  0  0  0  0  0
   21.0004  -13.7068  -19.4471 C   0  0  0  0  0  0  0  0  0  0  0  0
   23.3219  -10.5512  -17.5075 C   0  0  0  0  0  0  0  0  0  0  0  0
   23.7406  -10.2121  -16.3559 O   0  0  0  0  0  0  0  0  0  0  0  0
   23.0112   -9.4791  -18.3802 N   0  0  0  0  0  0  0  0  0  0  0  0
   23.1976   -8.1011  -18.0832 C   0  0  1  0  0  0  0  0  0  0  0  0
   23.3166   -7.2133  -19.2958 C   0  0  0  0  0  0  0  0  0  0  0  0
   23.7119   -5.7953  -18.9022 C   0  0  0  0  0  0  0  0  0  0  0  0
   23.7605   -4.9594  -20.1439 C   0  0  0  0  0  0  0  0  0  0  0  0
   24.2627   -3.5574  -19.8692 C   0  0  0  0  0  0  0  0  0  0  0  0
   24.5336   -2.8315  -21.0860 N   0  0  0  0  0  0  0  0  0  0  0  0
   22.0700   -7.5984  -17.2778 C   0  0  0  0  0  0  0  0  0  0  0  0
   20.9095   -7.6404  -17.8261 O   0  0  0  0  0  0  0  0  0  0  0  0
   20.1934   -8.8957  -14.7646 C   0  0  0  0  0  0  0  0  0  0  0  0
   20.6250   -7.6137  -14.1099 C   0  0  1  0  0  0  0  0  0  0  0  0
   21.6141   -7.7687  -13.1703 O   0  0  0  0  0  0  0  0  0  0  0  0
   20.9785   -6.6211  -15.2064 C   0  0  2  0  0  0  0  0  0  0  0  0
   22.1143   -7.0810  -15.9810 N   0  0  0  0  0  0  0  0  0  0  0  0
   21.2721   -5.2768  -14.6850 C   0  0  0  0  0  0  0  0  0  0  0  0
   22.3928   -4.7137  -14.8772 O   0  0  0  0  0  0  0  0  0  0  0  0
   20.3260   -4.5871  -13.9663 O   0  0  0  0  0  0  0  0  0  0  0  0
  2  1  1  1
  2 10  1  0
  2  3  1  0
  3  4  1  0
  4  5  2  0
  4  9  1  0
  5  6  1  0
  6  7  2  0
  7  8  1  0
  9  8  2  0
 10 11  2  0
 12 13  1  0
 12 10  1  0
 13 14  1  6
 15 14  1  0
 16 15  1  0
 17 18  1  0
 17 16  1  0
 19 13  1  0
 20 19  2  0
 22 23  1  0
 22 21  1  6
 24 22  1  0
 24 25  1  1
 25 19  1  0
 26 28  1  0
 26 24  1  0
 27 26  2  0
M  END
$$$$
