FKT.pdb
     RDKit          3D

 28 28  0  0  1  0  0  0  0  0999 V2000
   27.0276  -22.5457   -9.5826 N   0  0  0  0  0  0  0  0  0  0  0  0
   26.2908  -21.3206   -9.8809 C   0  0  1  0  0  0  0  0  0  0  0  0
   27.3658  -20.2276   -9.9178 C   0  0  0  0  0  0  0  0  0  0  0  0
   27.7185  -19.8474   -8.5418 C   0  0  0  0  0  0  0  0  0  0  0  0
   28.8182  -20.2874   -7.8485 C   0  0  0  0  0  0  0  0  0  0  0  0
   29.1187  -19.8993   -6.5617 C   0  0  0  0  0  0  0  0  0  0  0  0
   28.2921  -19.0221   -5.9035 C   0  0  0  0  0  0  0  0  0  0  0  0
   27.1647  -18.5520   -6.5723 C   0  0  0  0  0  0  0  0  0  0  0  0
   26.8818  -18.9528   -7.8609 C   0  0  0  0  0  0  0  0  0  0  0  0
   25.6658  -21.4419  -11.2156 C   0  0  0  0  0  0  0  0  0  0  0  0
   26.1764  -22.1470  -12.1422 O   0  0  0  0  0  0  0  0  0  0  0  0
   24.4573  -20.7824  -11.5507 N   0  0  0  0  0  0  0  0  0  0  0  0
   23.7388  -20.9569  -12.7652 C   0  0  1  0  0  0  0  0  0  0  0  0
   22.3601  -20.3470  -12.7663 C   0  0  0  0  0  0  0  0  0  0  0  0
   21.6213  -20.6603  -14.0616 C   0  0  0  0  0  0  0  0  0  0  0  0
   20.2651  -20.0287  -13.9935 C   0  0  0  0  0  0  0  0  0  0  0  0
   19.4261  -20.3447  -15.2139 C   0  0  0  0  0  0  0  0  0  0  0  0
   18.0789  -19.8440  -15.0889 N   0  0  0  0  0  0  0  0  0  0  0  0
   24.4855  -20.3601  -13.8872 C   0  0  0  0  0  0  0  0  0  0  0  0
   24.8005  -19.1205  -13.7719 O   0  0  0  0  0  0  0  0  0  0  0  0
   27.8477  -21.0668  -15.2537 C   0  0  0  0  0  0  0  0  0  0  0  0
   26.9207  -21.1915  -16.4298 C   0  0  1  0  0  0  0  0  0  0  0  0
   26.6587  -22.4866  -16.8031 O   0  0  0  0  0  0  0  0  0  0  0  0
   25.6696  -20.3803  -16.1310 C   0  0  2  0  0  0  0  0  0  0  0  0
   24.8955  -20.9873  -15.0662 N   0  0  0  0  0  0  0  0  0  0  0  0
   24.8052  -20.2112  -17.3098 C   0  0  0  0  0  0  0  0  0  0  0  0
   23.6005  -20.6094  -17.3198 O   0  0  0  0  0  0  0  0  0  0  0  0
   25.2880  -19.6087  -18.4461 O   0  0  0  0  0  0  0  0  0  0  0  0
  2  1  1  6
  2 10  1  0
  2  3  1  0
  3  4  1  0
  4  5  2  0
  4  9  1  0
  5  6  1  0
  6  7  2  0
  7  8  1  0
  9  8  2  0
 10 11  2  0
 12 13  1  0
 12 10  1  0
 13 14  1  1
 15 14  1  0
 16 15  1  0
 17 18  1  0
 17 16  1  0
 19 13  1  0
 20 19  2  0
 22 23  1  0
 22 21  1  1
 24 22  1  0
 24 25  1  1
 25 19  1  0
 26 28  1  0
 26 24  1  0
 27 26  2  0
M  END
$$$$
