FKT.pdb
     RDKit          3D

 28 28  0  0  1  0  0  0  0  0999 V2000
   28.6228  -21.0106   -8.7938 N   0  0  0  0  0  0  0  0  0  0  0  0
   27.1722  -20.8685   -8.7021 C   0  0  1  0  0  0  0  0  0  0  0  0
   26.9643  -19.5355   -7.9728 C   0  0  0  0  0  0  0  0  0  0  0  0
   27.3902  -19.6771   -6.5725 C   0  0  0  0  0  0  0  0  0  0  0  0
   26.8909  -20.5863   -5.6738 C   0  0  0  0  0  0  0  0  0  0  0  0
   27.3243  -20.6933   -4.3710 C   0  0  0  0  0  0  0  0  0  0  0  0
   28.3123  -19.8580   -3.9102 C   0  0  0  0  0  0  0  0  0  0  0  0
   28.8455  -18.9205   -4.7911 C   0  0  0  0  0  0  0  0  0  0  0  0
   28.3978  -18.8298   -6.0921 C   0  0  0  0  0  0  0  0  0  0  0  0
   26.6054  -20.7778  -10.0649 C   0  0  0  0  0  0  0  0  0  0  0  0
   27.1000  -20.0180  -10.9562 O   0  0  0  0  0  0  0  0  0  0  0  0
   25.4755  -21.5315  -10.4687 N   0  0  0  0  0  0  0  0  0  0  0  0
   24.9068  -21.5200  -11.7719 C   0  0  1  0  0  0  0  0  0  0  0  0
   24.8575  -22.8697  -12.4417 C   0  0  0  0  0  0  0  0  0  0  0  0
   24.6015  -22.7320  -13.9375 C   0  0  0  0  0  0  0  0  0  0  0  0
   24.5489  -24.1050  -14.5334 C   0  0  0  0  0  0  0  0  0  0  0  0
   24.3911  -24.0684  -16.0390 C   0  0  0  0  0  0  0  0  0  0  0  0
   24.3360  -25.3922  -16.6098 N   0  0  0  0  0  0  0  0  0  0  0  0
   23.5273  -21.0036  -11.7192 C   0  0  0  0  0  0  0  0  0  0  0  0
   23.2340  -20.2512  -10.7207 O   0  0  0  0  0  0  0  0  0  0  0  0
   22.5945  -19.2925  -15.2631 C   0  0  0  0  0  0  0  0  0  0  0  0
   22.4425  -19.0729  -13.7843 C   0  0  1  0  0  0  0  0  0  0  0  0
   21.9456  -17.8378  -13.4485 O   0  0  0  0  0  0  0  0  0  0  0  0
   21.6324  -20.2284  -13.2178 C   0  0  2  0  0  0  0  0  0  0  0  0
   22.4963  -21.2350  -12.6330 N   0  0  0  0  0  0  0  0  0  0  0  0
   20.7715  -20.8684  -14.2251 C   0  0  0  0  0  0  0  0  0  0  0  0
   21.2210  -21.7310  -15.0399 O   0  0  0  0  0  0  0  0  0  0  0  0
   19.4393  -20.5434  -14.3098 O   0  0  0  0  0  0  0  0  0  0  0  0
  2  1  1  6
  2 10  1  0
  2  3  1  0
  3  4  1  0
  4  5  2  0
  4  9  1  0
  5  6  1  0
  6  7  2  0
  7  8  1  0
  9  8  2  0
 10 11  2  0
 12 13  1  0
 12 10  1  0
 13 14  1  1
 15 14  1  0
 16 15  1  0
 17 18  1  0
 17 16  1  0
 19 13  1  0
 20 19  2  0
 22 23  1  0
 22 21  1  6
 24 22  1  0
 24 25  1  6
 25 19  1  0
 26 28  1  0
 26 24  1  0
 27 26  2  0
M  END
$$$$
