FKT.pdb
     RDKit          3D

 28 28  0  0  1  0  0  0  0  0999 V2000
   28.7524  -21.0061   -9.4463 N   0  0  0  0  0  0  0  0  0  0  0  0
   27.3101  -20.8017   -9.3422 C   0  0  1  0  0  0  0  0  0  0  0  0
   27.1659  -19.4743   -8.5879 C   0  0  0  0  0  0  0  0  0  0  0  0
   27.6066  -19.6564   -7.1968 C   0  0  0  0  0  0  0  0  0  0  0  0
   26.9654  -20.4133   -6.2484 C   0  0  0  0  0  0  0  0  0  0  0  0
   27.4168  -20.5663   -4.9563 C   0  0  0  0  0  0  0  0  0  0  0  0
   28.5725  -19.9397   -4.5591 C   0  0  0  0  0  0  0  0  0  0  0  0
   29.2535  -19.1616   -5.4919 C   0  0  0  0  0  0  0  0  0  0  0  0
   28.7848  -19.0215   -6.7810 C   0  0  0  0  0  0  0  0  0  0  0  0
   26.7397  -20.6613  -10.6993 C   0  0  0  0  0  0  0  0  0  0  0  0
   27.3138  -19.9848  -11.6098 O   0  0  0  0  0  0  0  0  0  0  0  0
   25.5175  -21.2714  -11.0758 N   0  0  0  0  0  0  0  0  0  0  0  0
   25.0275  -21.3700  -12.4069 C   0  0  1  0  0  0  0  0  0  0  0  0
   24.9031  -22.7814  -12.9218 C   0  0  0  0  0  0  0  0  0  0  0  0
   24.5769  -22.7969  -14.4102 C   0  0  0  0  0  0  0  0  0  0  0  0
   24.5213  -24.2229  -14.8641 C   0  0  0  0  0  0  0  0  0  0  0  0
   25.6497  -24.5639  -15.8149 C   0  0  0  0  0  0  0  0  0  0  0  0
   25.6728  -25.9678  -16.1459 N   0  0  0  0  0  0  0  0  0  0  0  0
   23.6957  -20.7460  -12.5052 C   0  0  0  0  0  0  0  0  0  0  0  0
   22.9540  -20.8089  -11.4587 O   0  0  0  0  0  0  0  0  0  0  0  0
   22.6360  -17.2426  -14.5149 C   0  0  0  0  0  0  0  0  0  0  0  0
   21.7913  -18.4466  -14.8231 C   0  0  1  0  0  0  0  0  0  0  0  0
   22.0844  -19.0453  -16.0235 O   0  0  0  0  0  0  0  0  0  0  0  0
   21.8710  -19.3938  -13.6362 C   0  0  2  0  0  0  0  0  0  0  0  0
   23.1428  -20.0889  -13.6070 N   0  0  0  0  0  0  0  0  0  0  0  0
   20.7860  -20.3878  -13.6266 C   0  0  0  0  0  0  0  0  0  0  0  0
   19.6348  -20.1186  -13.1661 O   0  0  0  0  0  0  0  0  0  0  0  0
   20.9953  -21.6513  -14.1238 O   0  0  0  0  0  0  0  0  0  0  0  0
  2  1  1  6
  2 10  1  0
  2  3  1  0
  3  4  1  0
  4  5  2  0
  4  9  1  0
  5  6  1  0
  6  7  2  0
  7  8  1  0
  9  8  2  0
 10 11  2  0
 12 13  1  0
 12 10  1  0
 13 14  1  1
 15 14  1  0
 16 15  1  0
 17 18  1  0
 17 16  1  0
 19 13  1  0
 20 19  2  0
 22 23  1  0
 22 21  1  1
 24 22  1  0
 24 25  1  6
 25 19  1  0
 26 28  1  0
 26 24  1  0
 27 26  2  0
M  END
$$$$
