FKT.pdb
     RDKit          3D

 28 28  0  0  1  0  0  0  0  0999 V2000
   28.6767  -21.1143   -9.2444 N   0  0  0  0  0  0  0  0  0  0  0  0
   27.2384  -20.9091   -9.0955 C   0  0  1  0  0  0  0  0  0  0  0  0
   27.1168  -19.5488   -8.3980 C   0  0  0  0  0  0  0  0  0  0  0  0
   27.5657  -19.6768   -7.0035 C   0  0  0  0  0  0  0  0  0  0  0  0
   26.9690  -20.4510   -6.0402 C   0  0  0  0  0  0  0  0  0  0  0  0
   27.4269  -20.5514   -4.7453 C   0  0  0  0  0  0  0  0  0  0  0  0
   28.5432  -19.8499   -4.3606 C   0  0  0  0  0  0  0  0  0  0  0  0
   29.1784  -19.0518   -5.3087 C   0  0  0  0  0  0  0  0  0  0  0  0
   28.7039  -18.9653   -6.6004 C   0  0  0  0  0  0  0  0  0  0  0  0
   26.6169  -20.8328  -10.4352 C   0  0  0  0  0  0  0  0  0  0  0  0
   27.1991  -20.2832  -11.4228 O   0  0  0  0  0  0  0  0  0  0  0  0
   25.3334  -21.3675  -10.7081 N   0  0  0  0  0  0  0  0  0  0  0  0
   24.7990  -21.5920  -12.0064 C   0  0  1  0  0  0  0  0  0  0  0  0
   24.2439  -22.9772  -12.2204 C   0  0  0  0  0  0  0  0  0  0  0  0
   23.8226  -23.1828  -13.6702 C   0  0  0  0  0  0  0  0  0  0  0  0
   24.8010  -24.1148  -14.3160 C   0  0  0  0  0  0  0  0  0  0  0  0
   24.4808  -24.3568  -15.7762 C   0  0  0  0  0  0  0  0  0  0  0  0
   25.5421  -25.0610  -16.4535 N   0  0  0  0  0  0  0  0  0  0  0  0
   23.7124  -20.6346  -12.2808 C   0  0  0  0  0  0  0  0  0  0  0  0
   22.9708  -20.3074  -11.2848 O   0  0  0  0  0  0  0  0  0  0  0  0
   23.3440  -17.4003  -14.9740 C   0  0  0  0  0  0  0  0  0  0  0  0
   22.3504  -18.5184  -15.1181 C   0  0  1  0  0  0  0  0  0  0  0  0
   22.6159  -19.3745  -16.1582 O   0  0  0  0  0  0  0  0  0  0  0  0
   22.2289  -19.2164  -13.7725 C   0  0  2  0  0  0  0  0  0  0  0  0
   23.3937  -20.0360  -13.5021 N   0  0  0  0  0  0  0  0  0  0  0  0
   21.0241  -20.0553  -13.6726 C   0  0  0  0  0  0  0  0  0  0  0  0
   19.9464  -19.6218  -13.1621 O   0  0  0  0  0  0  0  0  0  0  0  0
   21.0360  -21.3483  -14.1366 O   0  0  0  0  0  0  0  0  0  0  0  0
  2  1  1  6
  2 10  1  0
  2  3  1  0
  3  4  1  0
  4  5  2  0
  4  9  1  0
  5  6  1  0
  6  7  2  0
  7  8  1  0
  9  8  2  0
 10 11  2  0
 12 13  1  0
 12 10  1  0
 13 14  1  1
 15 14  1  0
 16 15  1  0
 17 18  1  0
 17 16  1  0
 19 13  1  0
 20 19  2  0
 22 23  1  0
 22 21  1  1
 24 22  1  0
 24 25  1  6
 25 19  1  0
 26 28  1  0
 26 24  1  0
 27 26  2  0
M  END
$$$$
