HMI.pdb
     RDKit          3D

 27 27  0  0  1  0  0  0  0  0999 V2000
   27.5976  -21.8188  -15.6339 N   0  0  0  0  0  0  0  0  0  0  0  0
   27.6802  -20.7266  -14.6185 C   0  0  1  0  0  0  0  0  0  0  0  0
   26.9567  -19.5830  -15.2624 C   0  0  0  0  0  0  0  0  0  0  0  0
   27.8417  -18.8101  -16.1264 C   0  0  0  0  0  0  0  0  0  0  0  0
   28.5201  -17.6517  -15.8570 C   0  0  0  0  0  0  0  0  0  0  0  0
   29.1758  -17.3190  -16.9720 N   0  0  0  0  0  0  0  0  0  0  0  0
   28.9525  -18.2089  -17.9499 C   0  0  0  0  0  0  0  0  0  0  0  0
   28.1279  -19.1247  -17.4170 N   0  0  0  0  0  0  0  0  0  0  0  0
   26.9655  -21.1870  -13.4059 C   0  0  0  0  0  0  0  0  0  0  0  0
   25.9517  -21.9684  -13.5199 O   0  0  0  0  0  0  0  0  0  0  0  0
   25.7182  -20.1026   -5.6688 C   0  0  0  0  0  0  0  0  0  0  0  0
   26.9679  -20.5126   -6.8922 S   0  0  0  0  0  0  0  0  0  0  0  0
   26.1593  -20.8640   -8.4695 C   0  0  0  0  0  0  0  0  0  0  0  0
   27.0184  -20.7002   -9.6614 C   0  0  0  0  0  0  0  0  0  0  0  0
   26.3742  -21.0155  -10.9951 C   0  0  2  0  0  0  0  0  0  0  0  0
   27.2930  -20.8511  -12.0721 N   0  0  0  0  0  0  0  0  0  0  0  0
   25.0834  -20.3124  -11.1511 C   0  0  0  0  0  0  0  0  0  0  0  0
   24.9443  -19.0564  -11.1665 O   0  0  0  0  0  0  0  0  0  0  0  0
   21.1371  -22.3476  -14.4922 C   0  0  0  0  0  0  0  0  0  0  0  0
   21.7039  -22.0638  -13.1022 C   0  0  0  0  0  0  0  0  0  0  0  0
   22.1068  -20.6240  -12.9612 C   0  0  2  0  0  0  0  0  0  0  0  0
   23.0196  -20.1524  -14.0684 C   0  0  0  0  0  0  0  0  0  0  0  0
   22.5830  -20.3352  -11.5835 C   0  0  2  0  0  0  0  0  0  0  0  0
   23.8473  -21.0253  -11.3021 N   0  0  0  0  0  0  0  0  0  0  0  0
   21.6173  -20.7847  -10.5832 C   0  0  0  0  0  0  0  0  0  0  0  0
   20.4012  -20.1450  -10.4720 O   0  0  0  0  0  0  0  0  0  0  0  0
   21.8677  -21.7359   -9.8252 O   0  0  0  0  0  0  0  0  0  0  0  0
  2  3  1  0
  2  1  1  6
  3  4  1  0
  4  8  1  0
  5  4  2  0
  5  6  1  0
  6  7  1  0
  8  7  2  0
  9 10  2  0
  9  2  1  0
 12 11  1  0
 13 14  1  0
 13 12  1  0
 15 14  1  1
 15 16  1  0
 16  9  1  0
 17 15  1  0
 17 24  1  0
 18 17  2  0
 20 19  1  0
 21 20  1  0
 21 22  1  6
 23 24  1  1
 23 21  1  0
 25 23  1  0
 26 25  1  0
 27 25  2  0
M  END
$$$$
