HMI.pdb
     RDKit          3D

 27 27  0  0  1  0  0  0  0  0999 V2000
   14.1985  -11.7408  -12.4797 N   0  0  0  0  0  0  0  0  0  0  0  0
   15.6219  -11.2896  -12.5129 C   0  0  1  0  0  0  0  0  0  0  0  0
   16.0088  -11.4295  -13.9539 C   0  0  0  0  0  0  0  0  0  0  0  0
   16.1149  -12.8307  -14.3445 C   0  0  0  0  0  0  0  0  0  0  0  0
   15.1222  -13.7203  -14.6566 C   0  0  0  0  0  0  0  0  0  0  0  0
   15.7169  -14.8860  -14.9239 N   0  0  0  0  0  0  0  0  0  0  0  0
   17.0486  -14.7909  -14.7989 C   0  0  0  0  0  0  0  0  0  0  0  0
   17.2831  -13.5182  -14.4411 N   0  0  0  0  0  0  0  0  0  0  0  0
   15.6518   -9.8694  -12.0942 C   0  0  0  0  0  0  0  0  0  0  0  0
   14.5500   -9.2310  -11.9213 O   0  0  0  0  0  0  0  0  0  0  0  0
   14.6332   -4.7139   -7.3003 C   0  0  0  0  0  0  0  0  0  0  0  0
   14.6036   -6.3567   -8.0261 S   0  0  0  0  0  0  0  0  0  0  0  0
   15.7722   -6.4166   -9.4030 C   0  0  0  0  0  0  0  0  0  0  0  0
   15.9165   -7.7419  -10.0420 C   0  0  0  0  0  0  0  0  0  0  0  0
   16.7575   -7.7864  -11.3005 C   0  0  2  0  0  0  0  0  0  0  0  0
   16.8131   -9.1017  -11.8466 N   0  0  0  0  0  0  0  0  0  0  0  0
   18.0657   -7.1285  -11.0995 C   0  0  0  0  0  0  0  0  0  0  0  0
   18.9345   -7.4943  -10.2577 O   0  0  0  0  0  0  0  0  0  0  0  0
   22.1046   -7.7151  -14.7223 C   0  0  0  0  0  0  0  0  0  0  0  0
   21.6222   -6.5625  -13.8432 C   0  0  0  0  0  0  0  0  0  0  0  0
   20.2380   -6.8183  -13.3199 C   0  0  2  0  0  0  0  0  0  0  0  0
   19.2258   -7.0617  -14.4143 C   0  0  0  0  0  0  0  0  0  0  0  0
   19.8490   -5.7943  -12.3158 C   0  0  2  0  0  0  0  0  0  0  0  0
   18.4638   -5.9855  -11.8703 N   0  0  0  0  0  0  0  0  0  0  0  0
   19.9385   -4.4457  -12.8712 C   0  0  0  0  0  0  0  0  0  0  0  0
   21.1534   -3.7944  -12.8912 O   0  0  0  0  0  0  0  0  0  0  0  0
   18.9391   -3.8679  -13.3289 O   0  0  0  0  0  0  0  0  0  0  0  0
  2  3  1  0
  2  1  1  6
  3  4  1  0
  4  8  1  0
  5  4  2  0
  5  6  1  0
  6  7  1  0
  8  7  2  0
  9 10  2  0
  9  2  1  0
 12 11  1  0
 13 14  1  0
 13 12  1  0
 15 14  1  1
 15 16  1  0
 16  9  1  0
 17 15  1  0
 17 24  1  0
 18 17  2  0
 20 19  1  0
 21 20  1  0
 21 22  1  6
 23 24  1  6
 23 21  1  0
 25 23  1  0
 26 25  1  0
 27 25  2  0
M  END
$$$$
