HMI.pdb
     RDKit          3D

 27 27  0  0  1  0  0  0  0  0999 V2000
   28.2107  -19.3748  -16.6802 N   0  0  0  0  0  0  0  0  0  0  0  0
   28.0792  -18.7294  -15.3397 C   0  0  1  0  0  0  0  0  0  0  0  0
   26.8241  -17.9184  -15.4540 C   0  0  0  0  0  0  0  0  0  0  0  0
   27.0504  -16.6873  -16.2026 C   0  0  0  0  0  0  0  0  0  0  0  0
   27.7030  -15.5470  -15.8174 C   0  0  0  0  0  0  0  0  0  0  0  0
   27.6238  -14.6915  -16.8399 N   0  0  0  0  0  0  0  0  0  0  0  0
   26.9500  -15.2262  -17.8686 C   0  0  0  0  0  0  0  0  0  0  0  0
   26.6009  -16.4580  -17.4643 N   0  0  0  0  0  0  0  0  0  0  0  0
   27.9210  -19.8074  -14.3367 C   0  0  0  0  0  0  0  0  0  0  0  0
   27.0691  -20.7480  -14.5388 O   0  0  0  0  0  0  0  0  0  0  0  0
   33.2480  -22.4566  -10.8676 C   0  0  0  0  0  0  0  0  0  0  0  0
   31.7519  -21.7817  -10.1379 S   0  0  0  0  0  0  0  0  0  0  0  0
   30.5291  -21.5090  -11.4400 C   0  0  0  0  0  0  0  0  0  0  0  0
   29.2596  -20.9021  -10.9869 C   0  0  0  0  0  0  0  0  0  0  0  0
   28.1874  -20.7341  -12.0429 C   0  0  2  0  0  0  0  0  0  0  0  0
   28.6411  -19.9259  -13.1256 N   0  0  0  0  0  0  0  0  0  0  0  0
   26.8991  -20.3257  -11.4444 C   0  0  0  0  0  0  0  0  0  0  0  0
   26.6030  -19.1438  -11.1088 O   0  0  0  0  0  0  0  0  0  0  0  0
   22.4576  -21.5135  -13.7576 C   0  0  0  0  0  0  0  0  0  0  0  0
   23.5306  -20.8811  -12.8729 C   0  0  0  0  0  0  0  0  0  0  0  0
   23.4290  -21.3720  -11.4573 C   0  0  2  0  0  0  0  0  0  0  0  0
   22.0556  -21.1776  -10.8593 C   0  0  0  0  0  0  0  0  0  0  0  0
   24.5552  -20.8617  -10.6330 C   0  0  2  0  0  0  0  0  0  0  0  0
   25.8500  -21.2709  -11.1898 N   0  0  0  0  0  0  0  0  0  0  0  0
   24.4918  -21.3808   -9.2685 C   0  0  0  0  0  0  0  0  0  0  0  0
   23.5415  -20.8946   -8.3962 O   0  0  0  0  0  0  0  0  0  0  0  0
   25.2793  -22.2558   -8.8731 O   0  0  0  0  0  0  0  0  0  0  0  0
  2  3  1  0
  2  1  1  6
  3  4  1  0
  4  8  1  0
  5  4  2  0
  5  6  1  0
  6  7  1  0
  8  7  2  0
  9 10  2  0
  9  2  1  0
 12 11  1  0
 13 14  1  0
 13 12  1  0
 15 14  1  1
 15 16  1  0
 16  9  1  0
 17 15  1  0
 17 24  1  0
 18 17  2  0
 20 19  1  0
 21 20  1  0
 21 22  1  1
 23 24  1  6
 23 21  1  0
 25 23  1  0
 26 25  1  0
 27 25  2  0
M  END
$$$$
