HMI.pdb
     RDKit          3D

 27 27  0  0  1  0  0  0  0  0999 V2000
   24.8772  -21.6618  -16.4715 N   0  0  0  0  0  0  0  0  0  0  0  0
   25.1629  -20.6078  -15.4525 C   0  0  1  0  0  0  0  0  0  0  0  0
   23.8073  -20.0783  -15.0947 C   0  0  0  0  0  0  0  0  0  0  0  0
   23.2785  -19.2130  -16.1429 C   0  0  0  0  0  0  0  0  0  0  0  0
   23.6919  -17.9655  -16.5267 C   0  0  0  0  0  0  0  0  0  0  0  0
   22.8790  -17.5742  -17.5115 N   0  0  0  0  0  0  0  0  0  0  0  0
   21.9590  -18.5113  -17.7821 C   0  0  0  0  0  0  0  0  0  0  0  0
   22.2149  -19.5183  -16.9317 N   0  0  0  0  0  0  0  0  0  0  0  0
   25.7948  -21.2696  -14.2882 C   0  0  0  0  0  0  0  0  0  0  0  0
   25.3226  -22.3823  -13.8518 O   0  0  0  0  0  0  0  0  0  0  0  0
   31.8291  -21.4773  -12.2357 C   0  0  0  0  0  0  0  0  0  0  0  0
   31.0912  -21.7576  -10.6222 S   0  0  0  0  0  0  0  0  0  0  0  0
   29.2928  -21.6639  -10.7694 C   0  0  0  0  0  0  0  0  0  0  0  0
   28.7966  -21.2342  -12.0940 C   0  0  0  0  0  0  0  0  0  0  0  0
   27.3006  -21.3306  -12.3082 C   0  0  2  0  0  0  0  0  0  0  0  0
   26.9170  -20.7938  -13.5716 N   0  0  0  0  0  0  0  0  0  0  0  0
   26.5536  -20.8076  -11.1449 C   0  0  0  0  0  0  0  0  0  0  0  0
   26.1039  -19.6306  -11.0474 O   0  0  0  0  0  0  0  0  0  0  0  0
   28.0139  -19.3414   -6.8192 C   0  0  0  0  0  0  0  0  0  0  0  0
   27.3243  -20.4959   -7.5441 C   0  0  0  0  0  0  0  0  0  0  0  0
   26.0183  -20.0605   -8.1442 C   0  0  2  0  0  0  0  0  0  0  0  0
   25.1092  -19.3744   -7.1521 C   0  0  0  0  0  0  0  0  0  0  0  0
   25.3916  -21.1640   -8.9173 C   0  0  2  0  0  0  0  0  0  0  0  0
   26.2719  -21.6229   -9.9983 N   0  0  0  0  0  0  0  0  0  0  0  0
   24.1402  -20.7337   -9.5370 C   0  0  0  0  0  0  0  0  0  0  0  0
   22.9387  -21.0426   -8.9358 O   0  0  0  0  0  0  0  0  0  0  0  0
   24.1330  -20.0917  -10.6000 O   0  0  0  0  0  0  0  0  0  0  0  0
  2  3  1  0
  2  1  1  6
  3  4  1  0
  4  8  1  0
  5  4  2  0
  5  6  1  0
  6  7  1  0
  8  7  2  0
  9 10  2  0
  9  2  1  0
 12 11  1  0
 13 14  1  0
 13 12  1  0
 15 14  1  1
 15 16  1  0
 16  9  1  0
 17 15  1  0
 17 24  1  0
 18 17  2  0
 20 19  1  0
 21 20  1  0
 21 22  1  1
 23 24  1  6
 23 21  1  0
 25 23  1  0
 26 25  1  0
 27 25  2  0
M  END
$$$$
