HMI.pdb
     RDKit          3D

 27 27  0  0  1  0  0  0  0  0999 V2000
   28.1475  -21.7857  -16.4725 N   0  0  0  0  0  0  0  0  0  0  0  0
   28.0845  -20.6764  -15.4745 C   0  0  1  0  0  0  0  0  0  0  0  0
   27.4728  -19.5413  -16.2383 C   0  0  0  0  0  0  0  0  0  0  0  0
   28.4524  -18.8875  -17.0986 C   0  0  0  0  0  0  0  0  0  0  0  0
   28.6601  -19.0366  -18.4436 C   0  0  0  0  0  0  0  0  0  0  0  0
   29.6857  -18.2445  -18.7670 N   0  0  0  0  0  0  0  0  0  0  0  0
   30.1506  -17.5901  -17.6930 C   0  0  0  0  0  0  0  0  0  0  0  0
   29.3822  -17.9945  -16.6689 N   0  0  0  0  0  0  0  0  0  0  0  0
   27.1937  -21.1128  -14.3749 C   0  0  0  0  0  0  0  0  0  0  0  0
   26.2284  -21.9251  -14.6189 O   0  0  0  0  0  0  0  0  0  0  0  0
   25.9901  -19.3348   -7.2268 C   0  0  0  0  0  0  0  0  0  0  0  0
   26.5669  -20.9083   -7.8732 S   0  0  0  0  0  0  0  0  0  0  0  0
   25.9018  -21.1444   -9.5366 C   0  0  0  0  0  0  0  0  0  0  0  0
   26.8527  -20.8673  -10.6341 C   0  0  0  0  0  0  0  0  0  0  0  0
   26.3403  -21.1144  -12.0376 C   0  0  2  0  0  0  0  0  0  0  0  0
   27.2948  -20.7208  -13.0201 N   0  0  0  0  0  0  0  0  0  0  0  0
   24.9802  -20.5656  -12.2204 C   0  0  0  0  0  0  0  0  0  0  0  0
   24.7075  -19.3360  -12.3258 O   0  0  0  0  0  0  0  0  0  0  0  0
   20.8115  -20.2808  -15.6751 C   0  0  0  0  0  0  0  0  0  0  0  0
   20.7207  -21.1380  -14.4138 C   0  0  0  0  0  0  0  0  0  0  0  0
   22.0768  -21.6166  -13.9811 C   0  0  2  0  0  0  0  0  0  0  0  0
   22.1884  -23.1223  -13.9381 C   0  0  0  0  0  0  0  0  0  0  0  0
   22.5230  -20.9145  -12.7498 C   0  0  2  0  0  0  0  0  0  0  0  0
   23.8258  -21.4145  -12.2949 N   0  0  0  0  0  0  0  0  0  0  0  0
   21.5794  -21.1162  -11.6524 C   0  0  0  0  0  0  0  0  0  0  0  0
   20.4552  -20.3233  -11.5638 O   0  0  0  0  0  0  0  0  0  0  0  0
   21.7674  -21.9911  -10.7914 O   0  0  0  0  0  0  0  0  0  0  0  0
  2  3  1  0
  2  1  1  6
  3  4  1  0
  4  8  1  0
  5  4  2  0
  5  6  1  0
  6  7  1  0
  8  7  2  0
  9 10  2  0
  9  2  1  0
 12 11  1  0
 13 14  1  0
 13 12  1  0
 15 14  1  1
 15 16  1  0
 16  9  1  0
 17 15  1  0
 17 24  1  0
 18 17  2  0
 20 19  1  0
 21 20  1  0
 21 22  1  1
 23 24  1  1
 23 21  1  0
 25 23  1  0
 26 25  1  0
 27 25  2  0
M  END
$$$$
