HMI.pdb
     RDKit          3D

 27 27  0  0  1  0  0  0  0  0999 V2000
   22.1542  -20.7624  -14.1499 N   0  0  0  0  0  0  0  0  0  0  0  0
   21.7638  -19.8957  -12.9978 C   0  0  1  0  0  0  0  0  0  0  0  0
   20.3614  -19.4786  -13.3222 C   0  0  0  0  0  0  0  0  0  0  0  0
   20.3343  -18.4735  -14.3786 C   0  0  0  0  0  0  0  0  0  0  0  0
   20.2946  -17.1089  -14.2749 C   0  0  0  0  0  0  0  0  0  0  0  0
   20.2570  -16.6269  -15.5199 N   0  0  0  0  0  0  0  0  0  0  0  0
   20.2706  -17.6172  -16.4240 C   0  0  0  0  0  0  0  0  0  0  0  0
   20.3183  -18.7524  -15.7085 N   0  0  0  0  0  0  0  0  0  0  0  0
   21.7960  -20.7324  -11.7764 C   0  0  0  0  0  0  0  0  0  0  0  0
   21.2963  -21.9161  -11.7994 O   0  0  0  0  0  0  0  0  0  0  0  0
   25.5964  -20.5894   -6.1737 C   0  0  0  0  0  0  0  0  0  0  0  0
   26.1433  -20.2944   -7.8591 S   0  0  0  0  0  0  0  0  0  0  0  0
   24.8637  -20.8578   -9.0037 C   0  0  0  0  0  0  0  0  0  0  0  0
   23.4936  -20.8751   -8.4488 C   0  0  0  0  0  0  0  0  0  0  0  0
   22.3883  -21.2465   -9.4150 C   0  0  2  0  0  0  0  0  0  0  0  0
   22.3464  -20.3583  -10.5288 N   0  0  0  0  0  0  0  0  0  0  0  0
   21.1021  -21.4443   -8.7141 C   0  0  0  0  0  0  0  0  0  0  0  0
   20.2786  -20.5239   -8.4460 O   0  0  0  0  0  0  0  0  0  0  0  0
   16.2964  -24.8167   -9.2222 C   0  0  0  0  0  0  0  0  0  0  0  0
   17.1487  -24.0695   -8.1979 C   0  0  0  0  0  0  0  0  0  0  0  0
   18.5176  -23.7732   -8.7397 C   0  0  2  0  0  0  0  0  0  0  0  0
   19.2122  -24.9938   -9.2959 C   0  0  0  0  0  0  0  0  0  0  0  0
   19.3155  -22.9792   -7.7697 C   0  0  2  0  0  0  0  0  0  0  0  0
   20.6747  -22.7397   -8.2690 N   0  0  0  0  0  0  0  0  0  0  0  0
   19.4448  -23.6767   -6.4922 C   0  0  0  0  0  0  0  0  0  0  0  0
   20.6899  -24.0750   -6.0543 O   0  0  0  0  0  0  0  0  0  0  0  0
   18.4528  -23.9213   -5.7864 O   0  0  0  0  0  0  0  0  0  0  0  0
  2  3  1  0
  2  1  1  6
  3  4  1  0
  4  8  1  0
  5  4  2  0
  5  6  1  0
  6  7  1  0
  8  7  2  0
  9 10  2  0
  9  2  1  0
 12 11  1  0
 13 14  1  0
 13 12  1  0
 15 14  1  1
 15 16  1  0
 16  9  1  0
 17 15  1  0
 17 24  1  0
 18 17  2  0
 20 19  1  0
 21 20  1  0
 21 22  1  1
 23 24  1  6
 23 21  1  0
 25 23  1  0
 26 25  1  0
 27 25  2  0
M  END
$$$$
