HMI.pdb
     RDKit          3D

 27 27  0  0  1  0  0  0  0  0999 V2000
   13.8781  -19.9280    3.2088 N   0  0  0  0  0  0  0  0  0  0  0  0
   15.2270  -19.8599    3.8465 C   0  0  1  0  0  0  0  0  0  0  0  0
   16.1744  -19.8935    2.6858 C   0  0  0  0  0  0  0  0  0  0  0  0
   16.2469  -21.2246    2.0943 C   0  0  0  0  0  0  0  0  0  0  0  0
   16.8593  -22.3522    2.5718 C   0  0  0  0  0  0  0  0  0  0  0  0
   16.6694  -23.3109    1.6614 N   0  0  0  0  0  0  0  0  0  0  0  0
   15.9624  -22.8549    0.6172 C   0  0  0  0  0  0  0  0  0  0  0  0
   15.7070  -21.5664    0.8950 N   0  0  0  0  0  0  0  0  0  0  0  0
   15.3185  -18.5680    4.5647 C   0  0  0  0  0  0  0  0  0  0  0  0
   14.6200  -17.5653    4.1674 O   0  0  0  0  0  0  0  0  0  0  0  0
   12.1568  -18.2644   10.0235 C   0  0  0  0  0  0  0  0  0  0  0  0
   13.9264  -18.0148    9.8427 S   0  0  0  0  0  0  0  0  0  0  0  0
   14.2922  -17.5933    8.1241 C   0  0  0  0  0  0  0  0  0  0  0  0
   15.7058  -17.2576    7.8511 C   0  0  0  0  0  0  0  0  0  0  0  0
   16.0747  -17.0621    6.3955 C   0  0  2  0  0  0  0  0  0  0  0  0
   16.1236  -18.3032    5.6966 N   0  0  0  0  0  0  0  0  0  0  0  0
   17.2718  -16.2071    6.2519 C   0  0  0  0  0  0  0  0  0  0  0  0
   18.4629  -16.6296    6.2486 O   0  0  0  0  0  0  0  0  0  0  0  0
   18.2153  -13.4188    2.1651 C   0  0  0  0  0  0  0  0  0  0  0  0
   18.2420  -14.1618    3.4998 C   0  0  0  0  0  0  0  0  0  0  0  0
   18.3380  -13.2059    4.6540 C   0  0  2  0  0  0  0  0  0  0  0  0
   19.4273  -12.1740    4.4804 C   0  0  0  0  0  0  0  0  0  0  0  0
   18.3575  -13.9334    5.9496 C   0  0  2  0  0  0  0  0  0  0  0  0
   17.1709  -14.7838    6.1000 N   0  0  0  0  0  0  0  0  0  0  0  0
   18.3663  -13.0059    7.0788 C   0  0  0  0  0  0  0  0  0  0  0  0
   19.5308  -12.3483    7.4135 O   0  0  0  0  0  0  0  0  0  0  0  0
   17.3425  -12.7945    7.7491 O   0  0  0  0  0  0  0  0  0  0  0  0
  2  3  1  0
  2  1  1  6
  3  4  1  0
  4  8  1  0
  5  4  2  0
  5  6  1  0
  6  7  1  0
  8  7  2  0
  9 10  2  0
  9  2  1  0
 12 11  1  0
 13 14  1  0
 13 12  1  0
 15 14  1  1
 15 16  1  0
 16  9  1  0
 17 15  1  0
 17 24  1  0
 18 17  2  0
 20 19  1  0
 21 20  1  0
 21 22  1  6
 23 24  1  1
 23 21  1  0
 25 23  1  0
 26 25  1  0
 27 25  2  0
M  END
$$$$
