HMI.pdb
     RDKit          3D

 27 27  0  0  1  0  0  0  0  0999 V2000
   28.1674  -21.2512  -16.2024 N   0  0  0  0  0  0  0  0  0  0  0  0
   27.8452  -20.2477  -15.1440 C   0  0  1  0  0  0  0  0  0  0  0  0
   27.1497  -19.1500  -15.8906 C   0  0  0  0  0  0  0  0  0  0  0  0
   28.0961  -18.3311  -16.6395 C   0  0  0  0  0  0  0  0  0  0  0  0
   29.0226  -17.4358  -16.1762 C   0  0  0  0  0  0  0  0  0  0  0  0
   29.6314  -16.9196  -17.2471 N   0  0  0  0  0  0  0  0  0  0  0  0
   29.1411  -17.4400  -18.3815 C   0  0  0  0  0  0  0  0  0  0  0  0
   28.1943  -18.3098  -17.9947 N   0  0  0  0  0  0  0  0  0  0  0  0
   26.9262  -20.8936  -14.1789 C   0  0  0  0  0  0  0  0  0  0  0  0
   26.0776  -21.7664  -14.5907 O   0  0  0  0  0  0  0  0  0  0  0  0
   27.0320  -20.4873   -7.6359 C   0  0  0  0  0  0  0  0  0  0  0  0
   25.2740  -20.7922   -7.8435 S   0  0  0  0  0  0  0  0  0  0  0  0
   24.9325  -21.1232   -9.5867 C   0  0  0  0  0  0  0  0  0  0  0  0
   25.9992  -20.7068  -10.5217 C   0  0  0  0  0  0  0  0  0  0  0  0
   25.7564  -21.0076  -11.9858 C   0  0  2  0  0  0  0  0  0  0  0  0
   26.8793  -20.6493  -12.7870 N   0  0  0  0  0  0  0  0  0  0  0  0
   24.4570  -20.4686  -12.4396 C   0  0  0  0  0  0  0  0  0  0  0  0
   24.1912  -19.2396  -12.5657 O   0  0  0  0  0  0  0  0  0  0  0  0
   22.4839  -21.1418  -16.9819 C   0  0  0  0  0  0  0  0  0  0  0  0
   22.7967  -20.7168  -15.5482 C   0  0  0  0  0  0  0  0  0  0  0  0
   21.7358  -21.1887  -14.5958 C   0  0  2  0  0  0  0  0  0  0  0  0
   20.3362  -20.8503  -15.0521 C   0  0  0  0  0  0  0  0  0  0  0  0
   22.0579  -20.7946  -13.1997 C   0  0  2  0  0  0  0  0  0  0  0  0
   23.3604  -21.3278  -12.7836 N   0  0  0  0  0  0  0  0  0  0  0  0
   21.0640  -21.3094  -12.2603 C   0  0  0  0  0  0  0  0  0  0  0  0
   20.0875  -20.4687  -11.7702 O   0  0  0  0  0  0  0  0  0  0  0  0
   21.0780  -22.4947  -11.8902 O   0  0  0  0  0  0  0  0  0  0  0  0
  2  3  1  0
  2  1  1  6
  3  4  1  0
  4  8  1  0
  5  4  2  0
  5  6  1  0
  6  7  1  0
  8  7  2  0
  9 10  2  0
  9  2  1  0
 12 11  1  0
 13 14  1  0
 13 12  1  0
 15 14  1  1
 15 16  1  0
 16  9  1  0
 17 15  1  0
 17 24  1  0
 18 17  2  0
 20 19  1  0
 21 20  1  0
 21 22  1  6
 23 24  1  1
 23 21  1  0
 25 23  1  0
 26 25  1  0
 27 25  2  0
M  END
$$$$
