HMI.pdb
     RDKit          3D

 27 27  0  0  1  0  0  0  0  0999 V2000
   27.9183  -21.2450  -16.2023 N   0  0  0  0  0  0  0  0  0  0  0  0
   27.6864  -20.1899  -15.1710 C   0  0  1  0  0  0  0  0  0  0  0  0
   27.0312  -19.0796  -15.9351 C   0  0  0  0  0  0  0  0  0  0  0  0
   27.9953  -18.3540  -16.7543 C   0  0  0  0  0  0  0  0  0  0  0  0
   29.1573  -17.7344  -16.3797 C   0  0  0  0  0  0  0  0  0  0  0  0
   29.6777  -17.1885  -17.4820 N   0  0  0  0  0  0  0  0  0  0  0  0
   28.9055  -17.4267  -18.5521 C   0  0  0  0  0  0  0  0  0  0  0  0
   27.8701  -18.1467  -18.0915 N   0  0  0  0  0  0  0  0  0  0  0  0
   26.7630  -20.7491  -14.1573 C   0  0  0  0  0  0  0  0  0  0  0  0
   25.8274  -21.5523  -14.5194 O   0  0  0  0  0  0  0  0  0  0  0  0
   26.8935  -19.5988   -7.6689 C   0  0  0  0  0  0  0  0  0  0  0  0
   25.6711  -20.9144   -7.7081 S   0  0  0  0  0  0  0  0  0  0  0  0
   25.2211  -21.2534   -9.4249 C   0  0  0  0  0  0  0  0  0  0  0  0
   26.1715  -20.7373  -10.4328 C   0  0  0  0  0  0  0  0  0  0  0  0
   25.7721  -20.9232  -11.8816 C   0  0  2  0  0  0  0  0  0  0  0  0
   26.8005  -20.4897  -12.7679 N   0  0  0  0  0  0  0  0  0  0  0  0
   24.4298  -20.3645  -12.1477 C   0  0  0  0  0  0  0  0  0  0  0  0
   24.1722  -19.1328  -12.2641 O   0  0  0  0  0  0  0  0  0  0  0  0
   19.9834  -20.9961  -15.9725 C   0  0  0  0  0  0  0  0  0  0  0  0
   20.3059  -20.5883  -14.5359 C   0  0  0  0  0  0  0  0  0  0  0  0
   21.6307  -21.1422  -14.0964 C   0  0  2  0  0  0  0  0  0  0  0  0
   21.7523  -22.6320  -14.3138 C   0  0  0  0  0  0  0  0  0  0  0  0
   21.9792  -20.6725  -12.7303 C   0  0  2  0  0  0  0  0  0  0  0  0
   23.2771  -21.2054  -12.2996 N   0  0  0  0  0  0  0  0  0  0  0  0
   20.9887  -21.1112  -11.7496 C   0  0  0  0  0  0  0  0  0  0  0  0
   21.3367  -22.0470  -10.7990 O   0  0  0  0  0  0  0  0  0  0  0  0
   19.8326  -20.6580  -11.7521 O   0  0  0  0  0  0  0  0  0  0  0  0
  2  3  1  0
  2  1  1  6
  3  4  1  0
  4  8  1  0
  5  4  2  0
  5  6  1  0
  6  7  1  0
  8  7  2  0
  9 10  2  0
  9  2  1  0
 12 11  1  0
 13 14  1  0
 13 12  1  0
 15 14  1  1
 15 16  1  0
 16  9  1  0
 17 15  1  0
 17 24  1  0
 18 17  2  0
 20 19  1  0
 21 20  1  0
 21 22  1  1
 23 24  1  1
 23 21  1  0
 25 23  1  0
 26 25  1  0
 27 25  2  0
M  END
$$$$
