PYT.pdb
     RDKit          3D

 27 28  0  0  1  0  0  0  0  0999 V2000
   27.1514  -20.3471  -16.9986 N   0  0  0  0  0  0  0  0  0  0  0  0
   28.5087  -20.1549  -17.5603 C   0  0  0  0  0  0  0  0  0  0  0  0
   29.3607  -20.4063  -16.3456 C   0  0  0  0  0  0  0  0  0  0  0  0
   28.6538  -21.4776  -15.5738 C   0  0  0  0  0  0  0  0  0  0  0  0
   27.2891  -21.5466  -16.1904 C   0  0  1  0  0  0  0  0  0  0  0  0
   26.1917  -21.6297  -15.2373 C   0  0  0  0  0  0  0  0  0  0  0  0
   25.6619  -22.7422  -14.9639 O   0  0  0  0  0  0  0  0  0  0  0  0
   21.8011  -21.2922   -7.8833 O   0  0  0  0  0  0  0  0  0  0  0  0
   22.5615  -20.8997   -8.9993 C   0  0  0  0  0  0  0  0  0  0  0  0
   21.9971  -20.0918   -9.9618 C   0  0  0  0  0  0  0  0  0  0  0  0
   22.7281  -19.7043  -11.0512 C   0  0  0  0  0  0  0  0  0  0  0  0
   24.0221  -20.1057  -11.2084 C   0  0  0  0  0  0  0  0  0  0  0  0
   24.8685  -19.7146  -12.3761 C   0  0  0  0  0  0  0  0  0  0  0  0
   24.6185  -20.5725  -13.5765 C   0  0  2  0  0  0  0  0  0  0  0  0
   25.6535  -20.5221  -14.5710 N   0  0  0  0  0  0  0  0  0  0  0  0
   23.3710  -20.0892  -14.2231 C   0  0  0  0  0  0  0  0  0  0  0  0
   23.3052  -18.9549  -14.7612 O   0  0  0  0  0  0  0  0  0  0  0  0
   24.5903  -20.9133  -10.2489 C   0  0  0  0  0  0  0  0  0  0  0  0
   23.8538  -21.3124   -9.1369 C   0  0  0  0  0  0  0  0  0  0  0  0
   21.6755  -20.9953  -17.2153 C   0  0  0  0  0  0  0  0  0  0  0  0
   20.6333  -21.2410  -16.1454 C   0  0  1  0  0  0  0  0  0  0  0  0
   20.5166  -22.5904  -15.8990 O   0  0  0  0  0  0  0  0  0  0  0  0
   20.9594  -20.4276  -14.9197 C   0  0  2  0  0  0  0  0  0  0  0  0
   22.1813  -20.8672  -14.2768 N   0  0  0  0  0  0  0  0  0  0  0  0
   19.8832  -20.4730  -13.9098 C   0  0  0  0  0  0  0  0  0  0  0  0
   18.6123  -20.0041  -14.1645 O   0  0  0  0  0  0  0  0  0  0  0  0
   20.1347  -20.9538  -12.7841 O   0  0  0  0  0  0  0  0  0  0  0  0
  1  2  1  0
  3  2  1  0
  4  3  1  0
  4  5  1  0
  5  1  1  0
  5  6  1  1
  6 15  1  0
  6  7  2  0
  8  9  1  0
  9 10  2  0
 10 11  1  0
 12 11  2  0
 12 13  1  0
 14 13  1  1
 14 16  1  0
 15 14  1  0
 16 17  2  0
 18 12  1  0
 19  9  1  0
 19 18  2  0
 21 20  1  6
 21 23  1  0
 22 21  1  0
 23 25  1  0
 23 24  1  1
 24 16  1  0
 25 26  1  0
 27 25  2  0
M  END
$$$$
