PYT.pdb
     RDKit          3D

 27 28  0  0  1  0  0  0  0  0999 V2000
   22.0412  -26.1268  -16.0506 N   0  0  0  0  0  0  0  0  0  0  0  0
   22.0529  -27.1994  -17.0725 C   0  0  0  0  0  0  0  0  0  0  0  0
   20.9651  -28.1013  -16.5549 C   0  0  0  0  0  0  0  0  0  0  0  0
   19.9372  -27.1898  -15.9588 C   0  0  0  0  0  0  0  0  0  0  0  0
   20.6257  -25.8619  -15.8579 C   0  0  1  0  0  0  0  0  0  0  0  0
   20.4205  -25.1616  -14.5981 C   0  0  0  0  0  0  0  0  0  0  0  0
   21.3851  -24.9662  -13.8079 O   0  0  0  0  0  0  0  0  0  0  0  0
   22.4708  -19.5009  -15.7339 O   0  0  0  0  0  0  0  0  0  0  0  0
   21.4942  -20.2628  -15.0679 C   0  0  0  0  0  0  0  0  0  0  0  0
   20.4007  -20.7313  -15.7625 C   0  0  0  0  0  0  0  0  0  0  0  0
   19.4452  -21.4732  -15.1239 C   0  0  0  0  0  0  0  0  0  0  0  0
   19.5520  -21.7639  -13.7957 C   0  0  0  0  0  0  0  0  0  0  0  0
   18.5407  -22.5688  -13.0459 C   0  0  0  0  0  0  0  0  0  0  0  0
   18.9319  -24.0080  -12.9235 C   0  0  2  0  0  0  0  0  0  0  0  0
   19.1810  -24.6664  -14.1754 N   0  0  0  0  0  0  0  0  0  0  0  0
   17.8066  -24.7264  -12.2713 C   0  0  0  0  0  0  0  0  0  0  0  0
   16.8323  -25.1640  -12.9344 O   0  0  0  0  0  0  0  0  0  0  0  0
   20.6432  -21.2977  -13.0974 C   0  0  0  0  0  0  0  0  0  0  0  0
   21.6206  -20.5419  -13.7391 C   0  0  0  0  0  0  0  0  0  0  0  0
   18.1529  -27.5361   -9.3879 C   0  0  0  0  0  0  0  0  0  0  0  0
   17.1903  -26.4382   -8.9888 C   0  0  1  0  0  0  0  0  0  0  0  0
   17.7757  -25.6105   -8.0575 O   0  0  0  0  0  0  0  0  0  0  0  0
   16.7020  -25.7166  -10.2182 C   0  0  2  0  0  0  0  0  0  0  0  0
   17.7557  -24.9650  -10.8698 N   0  0  0  0  0  0  0  0  0  0  0  0
   15.6024  -24.7770   -9.9214 C   0  0  0  0  0  0  0  0  0  0  0  0
   14.3864  -25.1971   -9.4267 O   0  0  0  0  0  0  0  0  0  0  0  0
   15.7817  -23.5574  -10.1264 O   0  0  0  0  0  0  0  0  0  0  0  0
  1  2  1  0
  3  2  1  0
  4  3  1  0
  4  5  1  0
  5  1  1  0
  5  6  1  1
  6 15  1  0
  6  7  2  0
  8  9  1  0
  9 10  2  0
 10 11  1  0
 12 11  2  0
 12 13  1  0
 14 13  1  6
 14 16  1  0
 15 14  1  0
 16 17  2  0
 18 12  1  0
 19  9  1  0
 19 18  2  0
 21 20  1  6
 21 23  1  0
 22 21  1  0
 23 25  1  0
 23 24  1  1
 24 16  1  0
 25 26  1  0
 27 25  2  0
M  END
$$$$
