PYT.pdb
     RDKit          3D

 27 28  0  0  1  0  0  0  0  0999 V2000
   27.3435  -20.0098  -17.6484 N   0  0  0  0  0  0  0  0  0  0  0  0
   28.4306  -19.8086  -18.6345 C   0  0  0  0  0  0  0  0  0  0  0  0
   28.4477  -18.3076  -18.7412 C   0  0  0  0  0  0  0  0  0  0  0  0
   28.1300  -17.8035  -17.3672 C   0  0  0  0  0  0  0  0  0  0  0  0
   27.6207  -19.0077  -16.6336 C   0  0  1  0  0  0  0  0  0  0  0  0
   26.4294  -18.7746  -15.8299 C   0  0  0  0  0  0  0  0  0  0  0  0
   26.4267  -17.8927  -14.9269 O   0  0  0  0  0  0  0  0  0  0  0  0
   22.4446  -14.3999  -19.1995 O   0  0  0  0  0  0  0  0  0  0  0  0
   22.5316  -15.5873  -18.4509 C   0  0  0  0  0  0  0  0  0  0  0  0
   23.0065  -16.7365  -19.0436 C   0  0  0  0  0  0  0  0  0  0  0  0
   23.0951  -17.8967  -18.3242 C   0  0  0  0  0  0  0  0  0  0  0  0
   22.7183  -17.9421  -17.0142 C   0  0  0  0  0  0  0  0  0  0  0  0
   22.7926  -19.1791  -16.1794 C   0  0  0  0  0  0  0  0  0  0  0  0
   24.0032  -19.2038  -15.3001 C   0  0  2  0  0  0  0  0  0  0  0  0
   25.2329  -19.4847  -15.9870 N   0  0  0  0  0  0  0  0  0  0  0  0
   23.8094  -20.2832  -14.2975 C   0  0  0  0  0  0  0  0  0  0  0  0
   23.9792  -21.4936  -14.5921 O   0  0  0  0  0  0  0  0  0  0  0  0
   22.2430  -16.7958  -16.4176 C   0  0  0  0  0  0  0  0  0  0  0  0
   22.1494  -15.6106  -17.1421 C   0  0  0  0  0  0  0  0  0  0  0  0
   24.3826  -19.5199  -10.2855 C   0  0  0  0  0  0  0  0  0  0  0  0
   24.4281  -20.9053  -10.8936 C   0  0  1  0  0  0  0  0  0  0  0  0
   24.3744  -21.8594   -9.9026 O   0  0  0  0  0  0  0  0  0  0  0  0
   23.3408  -21.0442  -11.9275 C   0  0  2  0  0  0  0  0  0  0  0  0
   23.4233  -20.0240  -12.9532 N   0  0  0  0  0  0  0  0  0  0  0  0
   21.9891  -20.9747  -11.3375 C   0  0  0  0  0  0  0  0  0  0  0  0
   21.5332  -21.9030  -10.4263 O   0  0  0  0  0  0  0  0  0  0  0  0
   21.2320  -20.0402  -11.6770 O   0  0  0  0  0  0  0  0  0  0  0  0
  1  2  1  0
  3  2  1  0
  4  3  1  0
  4  5  1  0
  5  1  1  0
  5  6  1  6
  6 15  1  0
  6  7  2  0
  8  9  1  0
  9 10  2  0
 10 11  1  0
 12 11  2  0
 12 13  1  0
 14 13  1  6
 14 16  1  0
 15 14  1  0
 16 17  2  0
 18 12  1  0
 19  9  1  0
 19 18  2  0
 21 20  1  1
 21 23  1  0
 22 21  1  0
 23 25  1  0
 23 24  1  6
 24 16  1  0
 25 26  1  0
 27 25  2  0
M  END
$$$$
