PYT.pdb
     RDKit          3D

 27 28  0  0  1  0  0  0  0  0999 V2000
   15.6589  -10.6375  -15.7263 N   0  0  0  0  0  0  0  0  0  0  0  0
   15.6152  -11.5842  -16.8649 C   0  0  0  0  0  0  0  0  0  0  0  0
   16.9323  -12.2932  -16.6999 C   0  0  0  0  0  0  0  0  0  0  0  0
   17.1530  -12.3921  -15.2220 C   0  0  0  0  0  0  0  0  0  0  0  0
   16.1446  -11.4552  -14.6280 C   0  0  1  0  0  0  0  0  0  0  0  0
   16.6554  -10.6022  -13.5644 C   0  0  0  0  0  0  0  0  0  0  0  0
   17.2240  -11.1049  -12.5558 O   0  0  0  0  0  0  0  0  0  0  0  0
   22.6465   -9.7730  -15.4418 O   0  0  0  0  0  0  0  0  0  0  0  0
   21.5151   -9.1643  -14.8698 C   0  0  0  0  0  0  0  0  0  0  0  0
   20.5047   -8.6983  -15.6821 C   0  0  0  0  0  0  0  0  0  0  0  0
   19.4000   -8.1047  -15.1357 C   0  0  0  0  0  0  0  0  0  0  0  0
   19.2743   -7.9616  -13.7852 C   0  0  0  0  0  0  0  0  0  0  0  0
   18.0920   -7.3223  -13.1324 C   0  0  0  0  0  0  0  0  0  0  0  0
   17.1266   -8.3275  -12.5874 C   0  0  2  0  0  0  0  0  0  0  0  0
   16.5604   -9.2053  -13.5732 N   0  0  0  0  0  0  0  0  0  0  0  0
   15.9989   -7.5808  -11.9719 C   0  0  0  0  0  0  0  0  0  0  0  0
   15.0336   -7.1616  -12.6597 O   0  0  0  0  0  0  0  0  0  0  0  0
   20.2816   -8.4259  -12.9695 C   0  0  0  0  0  0  0  0  0  0  0  0
   21.4095   -9.0313  -13.5168 C   0  0  0  0  0  0  0  0  0  0  0  0
   15.9632   -6.7860   -7.7626 C   0  0  0  0  0  0  0  0  0  0  0  0
   14.6627   -7.0324   -8.4970 C   0  0  1  0  0  0  0  0  0  0  0  0
   13.6269   -6.3943   -7.8527 O   0  0  0  0  0  0  0  0  0  0  0  0
   14.8113   -6.6372   -9.9435 C   0  0  2  0  0  0  0  0  0  0  0  0
   15.9355   -7.2931  -10.5803 N   0  0  0  0  0  0  0  0  0  0  0  0
   14.9890   -5.1815  -10.1152 C   0  0  0  0  0  0  0  0  0  0  0  0
   13.9366   -4.2951  -10.0331 O   0  0  0  0  0  0  0  0  0  0  0  0
   16.1350   -4.7382  -10.3429 O   0  0  0  0  0  0  0  0  0  0  0  0
  1  2  1  0
  3  2  1  0
  4  3  1  0
  4  5  1  0
  5  1  1  0
  5  6  1  1
  6 15  1  0
  6  7  2  0
  8  9  1  0
  9 10  2  0
 10 11  1  0
 12 11  2  0
 12 13  1  0
 14 13  1  6
 14 16  1  0
 15 14  1  0
 16 17  2  0
 18 12  1  0
 19  9  1  0
 19 18  2  0
 21 20  1  1
 21 23  1  0
 22 21  1  0
 23 25  1  0
 23 24  1  1
 24 16  1  0
 25 26  1  0
 27 25  2  0
M  END
$$$$
