TGA.pdb
     RDKit          3D

 17 16  0  0  1  0  0  0  0  0999 V2000
    7.8501  -12.4496   20.0437 C   0  0  0  0  0  0  0  0  0  0  0  0
    7.6679  -13.9359   19.8851 C   0  0  1  0  0  0  0  0  0  0  0  0
    8.0050  -14.2334   18.5441 O   0  0  0  0  0  0  0  0  0  0  0  0
    8.6282  -14.7350   20.7404 C   0  0  2  0  0  0  0  0  0  0  0  0
    8.4255  -16.1328   20.4067 N   0  0  0  0  0  0  0  0  0  0  0  0
    8.4638  -14.4725   22.1815 C   0  0  0  0  0  0  0  0  0  0  0  0
    8.7972  -13.3371   22.6061 O   0  0  0  0  0  0  0  0  0  0  0  0
    7.9579  -15.4075   23.1179 N   0  0  0  0  0  0  0  0  0  0  0  0
    7.6568  -15.1280   24.4783 C   0  0  0  0  0  0  0  0  0  0  0  0
    8.8295  -15.0565   25.3600 C   0  0  0  0  0  0  0  0  0  0  0  0
    9.9591  -15.3726   24.9109 O   0  0  0  0  0  0  0  0  0  0  0  0
    9.5506  -13.4342   28.6568 C   0  0  0  0  0  0  0  0  0  0  0  0
    9.9003  -14.4609   27.5708 C   0  0  2  0  0  0  0  0  0  0  0  0
    8.7382  -14.6403   26.7133 N   0  0  0  0  0  0  0  0  0  0  0  0
   10.1591  -15.7377   28.2719 C   0  0  0  0  0  0  0  0  0  0  0  0
    9.2699  -16.7933   28.1043 O   0  0  0  0  0  0  0  0  0  0  0  0
   11.1486  -15.8994   29.0087 O   0  0  0  0  0  0  0  0  0  0  0  0
  2  1  1  6
  2  3  1  0
  4  6  1  0
  4  2  1  0
  4  5  1  1
  6  7  2  0
  8  6  1  0
  8  9  1  0
 10 14  1  0
 10  9  1  0
 11 10  2  0
 13 14  1  0
 13 12  1  1
 15 13  1  0
 16 15  1  0
 17 15  2  0
M  END
$$$$
