TGA.pdb
     RDKit          3D

 17 16  0  0  1  0  0  0  0  0999 V2000
    8.2480  -12.4513   19.8666 C   0  0  0  0  0  0  0  0  0  0  0  0
    7.8317  -13.7227   19.1755 C   0  0  1  0  0  0  0  0  0  0  0  0
    8.4244  -13.6857   17.8918 O   0  0  0  0  0  0  0  0  0  0  0  0
    8.3836  -14.9603   19.8508 C   0  0  2  0  0  0  0  0  0  0  0  0
    8.1052  -16.0797   18.9700 N   0  0  0  0  0  0  0  0  0  0  0  0
    7.8388  -15.1630   21.2054 C   0  0  0  0  0  0  0  0  0  0  0  0
    6.6883  -15.6608   21.2995 O   0  0  0  0  0  0  0  0  0  0  0  0
    8.5194  -14.8368   22.4043 N   0  0  0  0  0  0  0  0  0  0  0  0
    8.0001  -15.0045   23.7164 C   0  0  0  0  0  0  0  0  0  0  0  0
    8.8946  -14.5493   24.7889 C   0  0  0  0  0  0  0  0  0  0  0  0
   10.1031  -14.3254   24.5306 O   0  0  0  0  0  0  0  0  0  0  0  0
    8.4026  -13.4863   28.3878 C   0  0  0  0  0  0  0  0  0  0  0  0
    9.2831  -13.7847   27.1666 C   0  0  2  0  0  0  0  0  0  0  0  0
    8.4448  -14.3497   26.1197 N   0  0  0  0  0  0  0  0  0  0  0  0
   10.2507  -14.8195   27.5930 C   0  0  0  0  0  0  0  0  0  0  0  0
   11.3900  -14.4335   28.2902 O   0  0  0  0  0  0  0  0  0  0  0  0
   10.0789  -16.0272   27.3481 O   0  0  0  0  0  0  0  0  0  0  0  0
  2  1  1  1
  2  3  1  0
  4  6  1  0
  4  2  1  0
  4  5  1  6
  6  7  2  0
  8  6  1  0
  8  9  1  0
 10 14  1  0
 10  9  1  0
 11 10  2  0
 13 14  1  0
 13 12  1  1
 15 13  1  0
 16 15  1  0
 17 15  2  0
M  END
$$$$
