TGA.pdb
     RDKit          3D

 17 16  0  0  1  0  0  0  0  0999 V2000
    8.5593  -17.3558   18.2686 C   0  0  0  0  0  0  0  0  0  0  0  0
    7.7856  -16.7710   19.4205 C   0  0  1  0  0  0  0  0  0  0  0  0
    6.7601  -17.6985   19.7179 O   0  0  0  0  0  0  0  0  0  0  0  0
    8.6166  -16.6543   20.6808 C   0  0  2  0  0  0  0  0  0  0  0  0
    9.0075  -18.0015   21.0530 N   0  0  0  0  0  0  0  0  0  0  0  0
    7.9097  -15.9542   21.7684 C   0  0  0  0  0  0  0  0  0  0  0  0
    7.6606  -14.7327   21.6064 O   0  0  0  0  0  0  0  0  0  0  0  0
    7.4931  -16.5602   22.9792 N   0  0  0  0  0  0  0  0  0  0  0  0
    6.6568  -15.9556   23.9561 C   0  0  0  0  0  0  0  0  0  0  0  0
    7.2835  -14.8529   24.6970 C   0  0  0  0  0  0  0  0  0  0  0  0
    8.5182  -14.6545   24.5801 O   0  0  0  0  0  0  0  0  0  0  0  0
    5.9923  -12.0202   26.8514 C   0  0  0  0  0  0  0  0  0  0  0  0
    7.1241  -12.8308   26.2053 C   0  0  2  0  0  0  0  0  0  0  0  0
    6.5436  -13.9929   25.5491 N   0  0  0  0  0  0  0  0  0  0  0  0
    7.9818  -13.3059   27.3132 C   0  0  0  0  0  0  0  0  0  0  0  0
    8.0205  -14.6651   27.6032 O   0  0  0  0  0  0  0  0  0  0  0  0
    8.6719  -12.5279   27.9963 O   0  0  0  0  0  0  0  0  0  0  0  0
  2  1  1  6
  2  3  1  0
  4  6  1  0
  4  2  1  0
  4  5  1  1
  6  7  2  0
  8  6  1  0
  8  9  1  0
 10 14  1  0
 10  9  1  0
 11 10  2  0
 13 14  1  0
 13 12  1  1
 15 13  1  0
 16 15  1  0
 17 15  2  0
M  END
$$$$
