TGA.pdb
     RDKit          3D

 17 16  0  0  1  0  0  0  0  0999 V2000
    9.8390  -15.8495   20.2273 C   0  0  0  0  0  0  0  0  0  0  0  0
    9.5952  -14.4734   19.6669 C   0  0  1  0  0  0  0  0  0  0  0  0
    9.6337  -14.6085   18.2595 O   0  0  0  0  0  0  0  0  0  0  0  0
    8.2137  -13.9473   19.9946 C   0  0  2  0  0  0  0  0  0  0  0  0
    8.0098  -12.7643   19.1790 N   0  0  0  0  0  0  0  0  0  0  0  0
    8.0318  -13.6764   21.4320 C   0  0  0  0  0  0  0  0  0  0  0  0
    8.5395  -12.6225   21.8925 O   0  0  0  0  0  0  0  0  0  0  0  0
    7.3271  -14.5181   22.3274 N   0  0  0  0  0  0  0  0  0  0  0  0
    7.0858  -14.2400   23.6999 C   0  0  0  0  0  0  0  0  0  0  0  0
    8.2584  -14.4005   24.5698 C   0  0  0  0  0  0  0  0  0  0  0  0
    9.3196  -14.8742   24.0934 O   0  0  0  0  0  0  0  0  0  0  0  0
    9.1241  -13.2866   28.0742 C   0  0  0  0  0  0  0  0  0  0  0  0
    9.4277  -14.0623   26.7852 C   0  0  2  0  0  0  0  0  0  0  0  0
    8.2420  -14.0383   25.9415 N   0  0  0  0  0  0  0  0  0  0  0  0
    9.6784  -15.4629   27.1905 C   0  0  0  0  0  0  0  0  0  0  0  0
   10.8547  -15.7713   27.8645 O   0  0  0  0  0  0  0  0  0  0  0  0
    8.8698  -16.3769   26.9479 O   0  0  0  0  0  0  0  0  0  0  0  0
  2  1  1  1
  2  3  1  0
  4  6  1  0
  4  2  1  0
  4  5  1  6
  6  7  2  0
  8  6  1  0
  8  9  1  0
 10 14  1  0
 10  9  1  0
 11 10  2  0
 13 14  1  0
 13 12  1  1
 15 13  1  0
 16 15  1  0
 17 15  2  0
M  END
$$$$
