TGA.pdb
     RDKit          3D

 17 16  0  0  1  0  0  0  0  0999 V2000
    9.2634  -16.5445   18.0313 C   0  0  0  0  0  0  0  0  0  0  0  0
    9.3215  -15.1130   17.5679 C   0  0  1  0  0  0  0  0  0  0  0  0
    9.4623  -15.1594   16.1613 O   0  0  0  0  0  0  0  0  0  0  0  0
    8.0327  -14.3629   17.8304 C   0  0  2  0  0  0  0  0  0  0  0  0
    8.0938  -13.1376   17.0551 N   0  0  0  0  0  0  0  0  0  0  0  0
    7.8013  -14.1092   19.2639 C   0  0  0  0  0  0  0  0  0  0  0  0
    8.5061  -13.2280   19.8182 O   0  0  0  0  0  0  0  0  0  0  0  0
    6.8432  -14.7869   20.0573 N   0  0  0  0  0  0  0  0  0  0  0  0
    6.5025  -14.4561   21.3966 C   0  0  0  0  0  0  0  0  0  0  0  0
    7.5677  -14.7072   22.3765 C   0  0  0  0  0  0  0  0  0  0  0  0
    8.6540  -15.2069   21.9922 O   0  0  0  0  0  0  0  0  0  0  0  0
    8.1044  -13.8341   26.0120 C   0  0  0  0  0  0  0  0  0  0  0  0
    8.4851  -14.5848   24.7286 C   0  0  2  0  0  0  0  0  0  0  0  0
    7.4186  -14.4052   23.7548 N   0  0  0  0  0  0  0  0  0  0  0  0
    8.5472  -16.0188   25.0871 C   0  0  0  0  0  0  0  0  0  0  0  0
    9.6917  -16.5128   25.7028 O   0  0  0  0  0  0  0  0  0  0  0  0
    7.6069  -16.8001   24.8556 O   0  0  0  0  0  0  0  0  0  0  0  0
  2  1  1  6
  2  3  1  0
  4  6  1  0
  4  2  1  0
  4  5  1  6
  6  7  2  0
  8  6  1  0
  8  9  1  0
 10 14  1  0
 10  9  1  0
 11 10  2  0
 13 14  1  0
 13 12  1  1
 15 13  1  0
 16 15  1  0
 17 15  2  0
M  END
$$$$
