TGA.pdb
     RDKit          3D

 17 16  0  0  1  0  0  0  0  0999 V2000
    8.5858  -12.5092   20.4767 C   0  0  0  0  0  0  0  0  0  0  0  0
    7.9001  -13.6040   19.7031 C   0  0  1  0  0  0  0  0  0  0  0  0
    8.4980  -13.6150   18.4214 O   0  0  0  0  0  0  0  0  0  0  0  0
    8.1521  -14.9771   20.2892 C   0  0  2  0  0  0  0  0  0  0  0  0
    7.5428  -15.9375   19.3878 N   0  0  0  0  0  0  0  0  0  0  0  0
    7.6539  -15.1090   21.6702 C   0  0  0  0  0  0  0  0  0  0  0  0
    6.4152  -15.2547   21.8286 O   0  0  0  0  0  0  0  0  0  0  0  0
    8.4710  -15.0831   22.8272 N   0  0  0  0  0  0  0  0  0  0  0  0
    8.0105  -15.2365   24.1627 C   0  0  0  0  0  0  0  0  0  0  0  0
    9.0442  -15.0490   25.1893 C   0  0  0  0  0  0  0  0  0  0  0  0
   10.2400  -15.3201   24.9173 O   0  0  0  0  0  0  0  0  0  0  0  0
    9.1136  -13.4631   28.6193 C   0  0  0  0  0  0  0  0  0  0  0  0
    9.7666  -14.2534   27.4772 C   0  0  2  0  0  0  0  0  0  0  0  0
    8.7445  -14.5688   26.4904 N   0  0  0  0  0  0  0  0  0  0  0  0
   10.2454  -15.5222   28.0686 C   0  0  0  0  0  0  0  0  0  0  0  0
    9.5827  -16.7047   27.7594 O   0  0  0  0  0  0  0  0  0  0  0  0
   11.2240  -15.5670   28.8357 O   0  0  0  0  0  0  0  0  0  0  0  0
  2  1  1  1
  2  3  1  0
  4  6  1  0
  4  2  1  0
  4  5  1  6
  6  7  2  0
  8  6  1  0
  8  9  1  0
 10 14  1  0
 10  9  1  0
 11 10  2  0
 13 14  1  0
 13 12  1  1
 15 13  1  0
 16 15  1  0
 17 15  2  0
M  END
$$$$
