TGA.pdb
     RDKit          3D

 17 16  0  0  1  0  0  0  0  0999 V2000
   14.9523  -21.6427   18.9876 C   0  0  0  0  0  0  0  0  0  0  0  0
   13.5459  -21.1206   18.8581 C   0  0  1  0  0  0  0  0  0  0  0  0
   12.7105  -22.2579   18.7630 O   0  0  0  0  0  0  0  0  0  0  0  0
   13.0868  -20.3716   20.0913 C   0  0  2  0  0  0  0  0  0  0  0  0
   11.6472  -20.2237   19.9819 N   0  0  0  0  0  0  0  0  0  0  0  0
   13.7726  -19.0781   20.2625 C   0  0  0  0  0  0  0  0  0  0  0  0
   15.0053  -19.1032   20.5082 O   0  0  0  0  0  0  0  0  0  0  0  0
   13.1413  -17.8133   20.1696 N   0  0  0  0  0  0  0  0  0  0  0  0
   13.7867  -16.5581   20.3346 C   0  0  0  0  0  0  0  0  0  0  0  0
   13.7577  -16.0333   21.7062 C   0  0  0  0  0  0  0  0  0  0  0  0
   14.4510  -15.0271   21.9964 O   0  0  0  0  0  0  0  0  0  0  0  0
   11.5743  -16.5788   24.7140 C   0  0  0  0  0  0  0  0  0  0  0  0
   12.8768  -16.0781   24.0750 C   0  0  2  0  0  0  0  0  0  0  0  0
   12.9699  -16.6226   22.7286 N   0  0  0  0  0  0  0  0  0  0  0  0
   13.9811  -16.6447   24.8803 C   0  0  0  0  0  0  0  0  0  0  0  0
   14.2587  -16.0965   26.1274 O   0  0  0  0  0  0  0  0  0  0  0  0
   14.6718  -17.5982   24.4779 O   0  0  0  0  0  0  0  0  0  0  0  0
  2  1  1  1
  2  3  1  0
  4  6  1  0
  4  2  1  0
  4  5  1  6
  6  7  2  0
  8  6  1  0
  8  9  1  0
 10 14  1  0
 10  9  1  0
 11 10  2  0
 13 14  1  0
 13 12  1  1
 15 13  1  0
 16 15  1  0
 17 15  2  0
M  END
$$$$
