TGA.pdb
     RDKit          3D

 17 16  0  0  1  0  0  0  0  0999 V2000
    8.5334  -15.9396   18.2414 C   0  0  0  0  0  0  0  0  0  0  0  0
    7.6542  -14.9608   18.9738 C   0  0  1  0  0  0  0  0  0  0  0  0
    6.4644  -14.8564   18.2162 O   0  0  0  0  0  0  0  0  0  0  0  0
    7.2333  -15.4639   20.3384 C   0  0  2  0  0  0  0  0  0  0  0  0
    6.2224  -14.5467   20.8314 N   0  0  0  0  0  0  0  0  0  0  0  0
    8.3668  -15.6036   21.2703 C   0  0  0  0  0  0  0  0  0  0  0  0
    9.2865  -16.3986   20.9500 O   0  0  0  0  0  0  0  0  0  0  0  0
    8.4912  -14.9067   22.4974 N   0  0  0  0  0  0  0  0  0  0  0  0
    9.6125  -14.9687   23.3682 C   0  0  0  0  0  0  0  0  0  0  0  0
    9.8133  -16.2738   24.0117 C   0  0  0  0  0  0  0  0  0  0  0  0
    8.9819  -16.6763   24.8627 O   0  0  0  0  0  0  0  0  0  0  0  0
   12.2995  -19.1027   23.6071 C   0  0  0  0  0  0  0  0  0  0  0  0
   11.1115  -18.4231   24.3016 C   0  0  2  0  0  0  0  0  0  0  0  0
   10.9200  -17.1082   23.7082 N   0  0  0  0  0  0  0  0  0  0  0  0
   11.5049  -18.2393   25.7160 C   0  0  0  0  0  0  0  0  0  0  0  0
   11.7813  -16.9581   26.1797 O   0  0  0  0  0  0  0  0  0  0  0  0
   11.5969  -19.1954   26.5069 O   0  0  0  0  0  0  0  0  0  0  0  0
  2  1  1  6
  2  3  1  0
  4  6  1  0
  4  2  1  0
  4  5  1  1
  6  7  2  0
  8  6  1  0
  8  9  1  0
 10 14  1  0
 10  9  1  0
 11 10  2  0
 13 14  1  0
 13 12  1  6
 15 13  1  0
 16 15  1  0
 17 15  2  0
M  END
$$$$
