MIL.pdb
     RDKit          3D

 25 24  0  0  1  0  0  0  0  0999 V2000
    8.1879  -11.6546   19.9483 C   0  0  0  0  0  0  0  0  0  0  0  0
    8.0238  -12.5120   18.3835 S   0  0  0  0  0  0  0  0  0  0  0  0
    8.0830  -14.3132   18.5797 C   0  0  0  0  0  0  0  0  0  0  0  0
    7.2861  -14.6765   19.8376 C   0  0  0  0  0  0  0  0  0  0  0  0
    7.3635  -16.1523   20.1175 C   0  0  2  0  0  0  0  0  0  0  0  0
    6.6227  -16.8639   19.1262 N   0  0  0  0  0  0  0  0  0  0  0  0
    6.9456  -16.5314   21.4614 C   0  0  0  0  0  0  0  0  0  0  0  0
    5.7332  -16.4203   21.7738 O   0  0  0  0  0  0  0  0  0  0  0  0
    6.5857  -20.8524   23.7295 C   0  0  0  0  0  0  0  0  0  0  0  0
    6.4715  -19.3926   23.4272 C   0  0  0  0  0  0  0  0  0  0  0  0
    7.4894  -18.6136   24.2268 C   0  0  2  0  0  0  0  0  0  0  0  0
    7.2956  -18.8592   25.7061 C   0  0  0  0  0  0  0  0  0  0  0  0
    7.4480  -17.1660   23.8677 C   0  0  2  0  0  0  0  0  0  0  0  0
    7.8156  -17.0286   22.4739 N   0  0  0  0  0  0  0  0  0  0  0  0
    8.3177  -16.3344   24.7496 C   0  0  0  0  0  0  0  0  0  0  0  0
    9.5542  -16.2710   24.5294 O   0  0  0  0  0  0  0  0  0  0  0  0
    7.7846  -12.1378   25.0914 C   0  0  0  0  0  0  0  0  0  0  0  0
    7.2222  -12.8520   26.2638 C   0  0  2  0  0  0  0  0  0  0  0  0
    6.4359  -11.8452   27.1079 C   0  0  0  0  0  0  0  0  0  0  0  0
    8.1386  -13.6042   27.1500 C   0  0  0  0  0  0  0  0  0  0  0  0
    8.7781  -14.8513   26.6909 C   0  0  2  0  0  0  0  0  0  0  0  0
    7.8150  -15.6011   25.8391 N   0  0  0  0  0  0  0  0  0  0  0  0
    9.2685  -15.8096   27.6788 C   0  0  0  0  0  0  0  0  0  0  0  0
    8.7470  -16.9262   27.9440 O   0  0  0  0  0  0  0  0  0  0  0  0
   10.4231  -15.4807   28.4113 O   0  0  0  0  0  0  0  0  0  0  0  0
  1  2  1  0
  2  3  1  0
  3  4  1  0
  5  4  1  0
  5  6  1  6
  7  5  1  0
  8  7  2  0
 10 11  1  0
 10  9  1  0
 11 13  1  0
 11 12  1  1
 13 14  1  6
 14  7  1  0
 15 22  1  0
 15 13  1  0
 16 15  2  0
 18 19  1  1
 18 17  1  0
 21 20  1  1
 20 18  1  0
 21 22  1  0
 23 21  1  0
 24 23  2  0
 25 23  1  0
M  END
$$$$
