MIL.pdb
     RDKit          3D

 25 24  0  0  1  0  0  0  0  0999 V2000
    7.1365  -18.5190   28.0670 C   0  0  0  0  0  0  0  0  0  0  0  0
    6.5928  -20.1085   27.4437 S   0  0  0  0  0  0  0  0  0  0  0  0
    6.0910  -20.0267   25.7036 C   0  0  0  0  0  0  0  0  0  0  0  0
    6.9939  -19.0073   25.0004 C   0  0  0  0  0  0  0  0  0  0  0  0
    6.7110  -18.9647   23.5237 C   0  0  2  0  0  0  0  0  0  0  0  0
    6.7821  -20.2858   22.9875 N   0  0  0  0  0  0  0  0  0  0  0  0
    7.5599  -18.0456   22.7759 C   0  0  0  0  0  0  0  0  0  0  0  0
    8.6954  -18.4353   22.4033 O   0  0  0  0  0  0  0  0  0  0  0  0
    5.9414  -13.8247   19.6289 C   0  0  0  0  0  0  0  0  0  0  0  0
    6.7704  -14.9450   20.1702 C   0  0  0  0  0  0  0  0  0  0  0  0
    7.4142  -14.5342   21.4736 C   0  0  2  0  0  0  0  0  0  0  0  0
    8.2807  -13.3121   21.2699 C   0  0  0  0  0  0  0  0  0  0  0  0
    8.1561  -15.6780   22.0801 C   0  0  2  0  0  0  0  0  0  0  0  0
    7.2028  -16.7124   22.4236 N   0  0  0  0  0  0  0  0  0  0  0  0
    8.9706  -15.2678   23.2608 C   0  0  0  0  0  0  0  0  0  0  0  0
   10.0153  -14.5879   23.0948 O   0  0  0  0  0  0  0  0  0  0  0  0
    8.5314  -13.5305   28.5904 C   0  0  0  0  0  0  0  0  0  0  0  0
    8.0440  -12.9961   27.2951 C   0  0  2  0  0  0  0  0  0  0  0  0
    6.6940  -12.3142   27.5343 C   0  0  0  0  0  0  0  0  0  0  0  0
    7.9151  -13.9179   26.1442 C   0  0  0  0  0  0  0  0  0  0  0  0
    9.0671  -14.7146   25.6826 C   0  0  2  0  0  0  0  0  0  0  0  0
    8.6227  -15.6098   24.5797 N   0  0  0  0  0  0  0  0  0  0  0  0
    9.7717  -15.5713   26.6337 C   0  0  0  0  0  0  0  0  0  0  0  0
    9.4012  -16.7165   27.0083 O   0  0  0  0  0  0  0  0  0  0  0  0
   10.9721  -15.0994   27.1943 O   0  0  0  0  0  0  0  0  0  0  0  0
  1  2  1  0
  2  3  1  0
  3  4  1  0
  5  4  1  0
  5  6  1  6
  7  5  1  0
  8  7  2  0
 10 11  1  0
 10  9  1  0
 11 13  1  0
 11 12  1  6
 13 14  1  1
 14  7  1  0
 15 22  1  0
 15 13  1  0
 16 15  2  0
 18 19  1  1
 18 17  1  0
 21 20  1  1
 20 18  1  0
 21 22  1  0
 23 21  1  0
 24 23  2  0
 25 23  1  0
M  END
$$$$
