MIL.pdb
     RDKit          3D

 25 24  0  0  1  0  0  0  0  0999 V2000
    8.2486  -17.1696   16.9697 C   0  0  0  0  0  0  0  0  0  0  0  0
    6.8695  -18.0991   17.6367 S   0  0  0  0  0  0  0  0  0  0  0  0
    7.0788  -18.4649   19.3999 C   0  0  0  0  0  0  0  0  0  0  0  0
    7.7117  -17.2371   20.0639 C   0  0  0  0  0  0  0  0  0  0  0  0
    7.9836  -17.4922   21.5212 C   0  0  2  0  0  0  0  0  0  0  0  0
    6.7661  -17.8460   22.1773 N   0  0  0  0  0  0  0  0  0  0  0  0
    8.6533  -16.3950   22.2082 C   0  0  0  0  0  0  0  0  0  0  0  0
    9.7634  -15.9952   21.7747 O   0  0  0  0  0  0  0  0  0  0  0  0
    5.5561  -13.1157   25.1742 C   0  0  0  0  0  0  0  0  0  0  0  0
    6.5936  -13.5973   24.2114 C   0  0  0  0  0  0  0  0  0  0  0  0
    7.8570  -13.9711   24.9505 C   0  0  2  0  0  0  0  0  0  0  0  0
    8.4400  -12.7593   25.6416 C   0  0  0  0  0  0  0  0  0  0  0  0
    8.8265  -14.6406   24.0350 C   0  0  2  0  0  0  0  0  0  0  0  0
    8.1441  -15.7221   23.3557 N   0  0  0  0  0  0  0  0  0  0  0  0
   10.0453  -15.1221   24.7480 C   0  0  0  0  0  0  0  0  0  0  0  0
   11.0848  -14.4145   24.7588 O   0  0  0  0  0  0  0  0  0  0  0  0
    9.7942  -14.7242   30.0730 C   0  0  0  0  0  0  0  0  0  0  0  0
   10.7109  -15.1628   28.9922 C   0  0  2  0  0  0  0  0  0  0  0  0
   11.8437  -14.1389   28.8780 C   0  0  0  0  0  0  0  0  0  0  0  0
   10.1570  -15.4134   27.6425 C   0  0  0  0  0  0  0  0  0  0  0  0
   10.7742  -16.4088   26.7463 C   0  0  2  0  0  0  0  0  0  0  0  0
   10.0930  -16.3542   25.4240 N   0  0  0  0  0  0  0  0  0  0  0  0
   10.7784  -17.8170   27.1361 C   0  0  0  0  0  0  0  0  0  0  0  0
    9.7788  -18.5850   27.1336 O   0  0  0  0  0  0  0  0  0  0  0  0
   11.9929  -18.3898   27.5541 O   0  0  0  0  0  0  0  0  0  0  0  0
  1  2  1  0
  2  3  1  0
  3  4  1  0
  5  4  1  0
  5  6  1  1
  7  5  1  0
  8  7  2  0
 10 11  1  0
 10  9  1  0
 11 13  1  0
 11 12  1  6
 13 14  1  1
 14  7  1  0
 15 22  1  0
 15 13  1  0
 16 15  2  0
 18 19  1  6
 18 17  1  0
 21 20  1  1
 20 18  1  0
 21 22  1  0
 23 21  1  0
 24 23  2  0
 25 23  1  0
M  END
$$$$
