MIL.pdb
     RDKit          3D

 25 24  0  0  1  0  0  0  0  0999 V2000
    5.5933  -20.6299   24.8035 C   0  0  0  0  0  0  0  0  0  0  0  0
    5.3813  -20.5898   23.0247 S   0  0  0  0  0  0  0  0  0  0  0  0
    5.3066  -18.8964   22.3817 C   0  0  0  0  0  0  0  0  0  0  0  0
    6.4856  -18.1156   22.9727 C   0  0  0  0  0  0  0  0  0  0  0  0
    6.4125  -16.6613   22.5957 C   0  0  2  0  0  0  0  0  0  0  0  0
    6.6042  -16.5248   21.1877 N   0  0  0  0  0  0  0  0  0  0  0  0
    7.3260  -15.8018   23.3381 C   0  0  0  0  0  0  0  0  0  0  0  0
    8.4406  -15.5189   22.8304 O   0  0  0  0  0  0  0  0  0  0  0  0
    5.6769  -12.0121   26.8040 C   0  0  0  0  0  0  0  0  0  0  0  0
    6.5309  -12.7176   25.7998 C   0  0  0  0  0  0  0  0  0  0  0  0
    7.3645  -13.7790   26.4786 C   0  0  2  0  0  0  0  0  0  0  0  0
    8.3168  -13.1466   27.4682 C   0  0  0  0  0  0  0  0  0  0  0  0
    8.0572  -14.6324   25.4695 C   0  0  2  0  0  0  0  0  0  0  0  0
    7.0559  -15.2425   24.6200 N   0  0  0  0  0  0  0  0  0  0  0  0
    8.9414  -15.6561   26.0988 C   0  0  0  0  0  0  0  0  0  0  0  0
    8.4362  -16.5939   26.7672 O   0  0  0  0  0  0  0  0  0  0  0  0
   11.6181  -18.2064   23.5657 C   0  0  0  0  0  0  0  0  0  0  0  0
   12.2128  -17.0112   24.2129 C   0  0  2  0  0  0  0  0  0  0  0  0
   13.6029  -16.7818   23.6132 C   0  0  0  0  0  0  0  0  0  0  0  0
   12.3185  -16.9753   25.6888 C   0  0  0  0  0  0  0  0  0  0  0  0
   11.1222  -16.7703   26.5265 C   0  0  2  0  0  0  0  0  0  0  0  0
   10.3423  -15.6262   25.9805 N   0  0  0  0  0  0  0  0  0  0  0  0
   11.2856  -16.4984   27.9528 C   0  0  0  0  0  0  0  0  0  0  0  0
   11.7908  -17.2839   28.7993 O   0  0  0  0  0  0  0  0  0  0  0  0
   10.8491  -15.2571   28.4495 O   0  0  0  0  0  0  0  0  0  0  0  0
  1  2  1  0
  2  3  1  0
  3  4  1  0
  5  4  1  0
  5  6  1  6
  7  5  1  0
  8  7  2  0
 10 11  1  0
 10  9  1  0
 11 13  1  0
 11 12  1  1
 13 14  1  1
 14  7  1  0
 15 22  1  0
 15 13  1  0
 16 15  2  0
 18 19  1  6
 18 17  1  0
 21 20  1  6
 20 18  1  0
 21 22  1  0
 23 21  1  0
 24 23  2  0
 25 23  1  0
M  END
$$$$
