MIL.pdb
     RDKit          3D

 25 24  0  0  1  0  0  0  0  0999 V2000
    7.9544  -19.0715   27.7315 C   0  0  0  0  0  0  0  0  0  0  0  0
    6.8088  -20.3715   27.2751 S   0  0  0  0  0  0  0  0  0  0  0  0
    6.2487  -20.2192   25.5577 C   0  0  0  0  0  0  0  0  0  0  0  0
    6.8930  -18.9627   24.9617 C   0  0  0  0  0  0  0  0  0  0  0  0
    6.4305  -18.7383   23.5481 C   0  0  2  0  0  0  0  0  0  0  0  0
    6.3467  -19.9920   22.8705 N   0  0  0  0  0  0  0  0  0  0  0  0
    7.2376  -17.7853   22.7964 C   0  0  0  0  0  0  0  0  0  0  0  0
    8.2074  -18.2121   22.1201 O   0  0  0  0  0  0  0  0  0  0  0  0
    5.9221  -13.5180   19.9251 C   0  0  0  0  0  0  0  0  0  0  0  0
    6.6850  -14.6641   20.5081 C   0  0  0  0  0  0  0  0  0  0  0  0
    7.3780  -14.2354   21.7803 C   0  0  2  0  0  0  0  0  0  0  0  0
    8.3376  -13.1012   21.4998 C   0  0  0  0  0  0  0  0  0  0  0  0
    8.0331  -15.4004   22.4435 C   0  0  2  0  0  0  0  0  0  0  0  0
    7.0145  -16.3789   22.7627 N   0  0  0  0  0  0  0  0  0  0  0  0
    8.8124  -15.0045   23.6525 C   0  0  0  0  0  0  0  0  0  0  0  0
    9.9360  -14.4553   23.5209 O   0  0  0  0  0  0  0  0  0  0  0  0
    8.2306  -11.5123   25.5384 C   0  0  0  0  0  0  0  0  0  0  0  0
    7.5011  -12.6601   26.1310 C   0  0  2  0  0  0  0  0  0  0  0  0
    6.4295  -12.1115   27.0773 C   0  0  0  0  0  0  0  0  0  0  0  0
    8.2706  -13.7080   26.8387 C   0  0  0  0  0  0  0  0  0  0  0  0
    9.1268  -14.6491   26.0928 C   0  0  2  0  0  0  0  0  0  0  0  0
    8.3450  -15.2184   24.9614 N   0  0  0  0  0  0  0  0  0  0  0  0
    9.7105  -15.7924   26.7908 C   0  0  0  0  0  0  0  0  0  0  0  0
   10.5044  -15.7319   27.7681 O   0  0  0  0  0  0  0  0  0  0  0  0
    9.3716  -17.0852   26.3530 O   0  0  0  0  0  0  0  0  0  0  0  0
  1  2  1  0
  2  3  1  0
  3  4  1  0
  5  4  1  0
  5  6  1  6
  7  5  1  0
  8  7  2  0
 10 11  1  0
 10  9  1  0
 11 13  1  0
 11 12  1  6
 13 14  1  1
 14  7  1  0
 15 22  1  0
 15 13  1  0
 16 15  2  0
 18 19  1  1
 18 17  1  0
 21 20  1  1
 20 18  1  0
 21 22  1  0
 23 21  1  0
 24 23  2  0
 25 23  1  0
M  END
$$$$
