MIL.pdb
     RDKit          3D

 25 24  0  0  1  0  0  0  0  0999 V2000
    7.9383  -11.6615   19.2326 C   0  0  0  0  0  0  0  0  0  0  0  0
    7.1396  -13.0699   18.4652 S   0  0  0  0  0  0  0  0  0  0  0  0
    7.3447  -14.5869   19.4364 C   0  0  0  0  0  0  0  0  0  0  0  0
    7.8823  -14.1935   20.8167 C   0  0  0  0  0  0  0  0  0  0  0  0
    8.1309  -15.4102   21.6655 C   0  0  2  0  0  0  0  0  0  0  0  0
    6.9170  -16.1483   21.8056 N   0  0  0  0  0  0  0  0  0  0  0  0
    8.7275  -15.1247   22.9643 C   0  0  0  0  0  0  0  0  0  0  0  0
    9.9678  -14.9327   23.0332 O   0  0  0  0  0  0  0  0  0  0  0  0
    6.2082  -12.0053   26.2764 C   0  0  0  0  0  0  0  0  0  0  0  0
    7.2453  -12.7608   25.5088 C   0  0  0  0  0  0  0  0  0  0  0  0
    7.7023  -13.9658   26.2970 C   0  0  2  0  0  0  0  0  0  0  0  0
    8.3116  -13.5340   27.6116 C   0  0  0  0  0  0  0  0  0  0  0  0
    8.6203  -14.8135   25.4816 C   0  0  2  0  0  0  0  0  0  0  0  0
    8.0068  -15.0429   24.1902 N   0  0  0  0  0  0  0  0  0  0  0  0
    8.9664  -16.0960   26.1608 C   0  0  0  0  0  0  0  0  0  0  0  0
    8.0538  -16.8958   26.4907 O   0  0  0  0  0  0  0  0  0  0  0  0
   10.9657  -19.5024   24.2663 C   0  0  0  0  0  0  0  0  0  0  0  0
   11.8167  -18.5166   24.9767 C   0  0  2  0  0  0  0  0  0  0  0  0
   13.2773  -18.7857   24.6038 C   0  0  0  0  0  0  0  0  0  0  0  0
   11.7124  -18.4115   26.4494 C   0  0  0  0  0  0  0  0  0  0  0  0
   10.5302  -17.7957   27.0803 C   0  0  2  0  0  0  0  0  0  0  0  0
   10.2903  -16.4652   26.4579 N   0  0  0  0  0  0  0  0  0  0  0  0
   10.5264  -17.5685   28.5237 C   0  0  0  0  0  0  0  0  0  0  0  0
   10.6317  -16.4490   29.0934 O   0  0  0  0  0  0  0  0  0  0  0  0
   10.3941  -18.6810   29.3738 O   0  0  0  0  0  0  0  0  0  0  0  0
  1  2  1  0
  2  3  1  0
  3  4  1  0
  5  4  1  0
  5  6  1  1
  7  5  1  0
  8  7  2  0
 10 11  1  0
 10  9  1  0
 11 13  1  0
 11 12  1  1
 13 14  1  6
 14  7  1  0
 15 22  1  0
 15 13  1  0
 16 15  2  0
 18 19  1  1
 18 17  1  0
 21 20  1  6
 20 18  1  0
 21 22  1  0
 23 21  1  0
 24 23  2  0
 25 23  1  0
M  END
$$$$
