HNI.pdb
     RDKit          3D

 27 27  0  0  1  0  0  0  0  0999 V2000
    9.5994  -15.4511   19.6955 N   0  0  0  0  0  0  0  0  0  0  0  0
    8.7227  -14.5877   20.4653 C   0  0  1  0  0  0  0  0  0  0  0  0
    7.3650  -14.6087   19.7484 C   0  0  0  0  0  0  0  0  0  0  0  0
    7.5041  -14.3191   18.3136 C   0  0  0  0  0  0  0  0  0  0  0  0
    8.1185  -13.2455   17.7158 C   0  0  0  0  0  0  0  0  0  0  0  0
    7.9894  -13.4203   16.3878 N   0  0  0  0  0  0  0  0  0  0  0  0
    7.3242  -14.5509   16.1413 C   0  0  0  0  0  0  0  0  0  0  0  0
    7.0137  -15.1247   17.3374 N   0  0  0  0  0  0  0  0  0  0  0  0
    8.4811  -15.1178   21.8186 C   0  0  0  0  0  0  0  0  0  0  0  0
    7.6081  -14.5939   22.5351 O   0  0  0  0  0  0  0  0  0  0  0  0
    9.8219  -19.6045   21.5489 N   0  0  0  0  0  0  0  0  0  0  0  0
    9.2020  -19.0016   22.6481 C   0  0  0  0  0  0  0  0  0  0  0  0
    7.9441  -19.2925   22.7712 O   0  0  0  0  0  0  0  0  0  0  0  0
    9.7393  -18.1119   23.6631 C   0  0  0  0  0  0  0  0  0  0  0  0
    9.1287  -16.7493   23.6179 C   0  0  2  0  0  0  0  0  0  0  0  0
    9.2471  -16.2174   22.2838 N   0  0  0  0  0  0  0  0  0  0  0  0
    9.6994  -15.9105   24.6689 C   0  0  0  0  0  0  0  0  0  0  0  0
   10.8946  -15.5227   24.7486 O   0  0  0  0  0  0  0  0  0  0  0  0
    6.3254  -12.2470   26.4987 C   0  0  0  0  0  0  0  0  0  0  0  0
    7.5617  -12.9985   26.0175 C   0  0  0  0  0  0  0  0  0  0  0  0
    8.1006  -13.7741   27.1748 C   0  0  2  0  0  0  0  0  0  0  0  0
    8.4447  -12.9059   28.3546 C   0  0  0  0  0  0  0  0  0  0  0  0
    9.2785  -14.6546   26.8141 C   0  0  2  0  0  0  0  0  0  0  0  0
    8.8280  -15.4837   25.7094 N   0  0  0  0  0  0  0  0  0  0  0  0
    9.6122  -15.5653   27.9401 C   0  0  0  0  0  0  0  0  0  0  0  0
   10.5485  -15.2655   28.9241 O   0  0  0  0  0  0  0  0  0  0  0  0
    9.0486  -16.7056   28.0779 O   0  0  0  0  0  0  0  0  0  0  0  0
  2  1  1  6
  2  3  1  0
  4  5  2  0
  4  3  1  0
  6  5  1  0
  7  8  2  0
  7  6  1  0
  8  4  1  0
  9 10  2  0
  9  2  1  0
 12 11  1  0
 12 14  1  0
 13 12  2  0
 15 14  1  6
 15 16  1  0
 16  9  1  0
 17 18  2  0
 17 15  1  0
 20 21  1  0
 20 19  1  0
 21 22  1  1
 23 21  1  0
 23 24  1  6
 24 17  1  0
 25 23  1  0
 26 25  1  0
 27 25  2  0
M  END
$$$$
