HNI.pdb
     RDKit          3D

 27 27  0  0  1  0  0  0  0  0999 V2000
    8.9944  -15.6555   19.6121 N   0  0  0  0  0  0  0  0  0  0  0  0
    8.1969  -14.6311   20.2614 C   0  0  1  0  0  0  0  0  0  0  0  0
    6.9655  -14.4186   19.3690 C   0  0  0  0  0  0  0  0  0  0  0  0
    7.3462  -14.0603   17.9948 C   0  0  0  0  0  0  0  0  0  0  0  0
    8.1246  -13.0103   17.5716 C   0  0  0  0  0  0  0  0  0  0  0  0
    8.1896  -13.0973   16.2303 N   0  0  0  0  0  0  0  0  0  0  0  0
    7.4874  -14.1514   15.8092 C   0  0  0  0  0  0  0  0  0  0  0  0
    6.9535  -14.7642   16.9026 N   0  0  0  0  0  0  0  0  0  0  0  0
    7.6851  -15.0805   21.5678 C   0  0  0  0  0  0  0  0  0  0  0  0
    6.9392  -14.3307   22.2246 O   0  0  0  0  0  0  0  0  0  0  0  0
    7.0421  -18.1663   25.9175 N   0  0  0  0  0  0  0  0  0  0  0  0
    7.5167  -18.8160   24.7735 C   0  0  0  0  0  0  0  0  0  0  0  0
    7.6543  -20.0981   24.9122 O   0  0  0  0  0  0  0  0  0  0  0  0
    7.8746  -18.2871   23.4687 C   0  0  0  0  0  0  0  0  0  0  0  0
    7.7697  -16.7984   23.4008 C   0  0  2  0  0  0  0  0  0  0  0  0
    8.0502  -16.3611   22.0567 N   0  0  0  0  0  0  0  0  0  0  0  0
    8.6049  -16.1908   24.4338 C   0  0  0  0  0  0  0  0  0  0  0  0
    9.8572  -16.2790   24.5296 O   0  0  0  0  0  0  0  0  0  0  0  0
    6.2312  -11.6807   26.1689 C   0  0  0  0  0  0  0  0  0  0  0  0
    7.2455  -12.6876   25.6375 C   0  0  0  0  0  0  0  0  0  0  0  0
    7.7305  -13.4973   26.7952 C   0  0  2  0  0  0  0  0  0  0  0  0
    8.3461  -12.6583   27.8821 C   0  0  0  0  0  0  0  0  0  0  0  0
    8.6761  -14.6112   26.3975 C   0  0  2  0  0  0  0  0  0  0  0  0
    7.9494  -15.4210   25.4348 N   0  0  0  0  0  0  0  0  0  0  0  0
    8.9775  -15.4802   27.5648 C   0  0  0  0  0  0  0  0  0  0  0  0
   10.0332  -15.2557   28.4423 O   0  0  0  0  0  0  0  0  0  0  0  0
    8.2715  -16.5106   27.8416 O   0  0  0  0  0  0  0  0  0  0  0  0
  2  1  1  6
  2  3  1  0
  4  5  2  0
  4  3  1  0
  6  5  1  0
  7  8  2  0
  7  6  1  0
  8  4  1  0
  9 10  2  0
  9  2  1  0
 12 11  1  0
 12 14  1  0
 13 12  2  0
 15 14  1  6
 15 16  1  0
 16  9  1  0
 17 18  2  0
 17 15  1  0
 20 21  1  0
 20 19  1  0
 21 22  1  1
 23 21  1  0
 23 24  1  6
 24 17  1  0
 25 23  1  0
 26 25  1  0
 27 25  2  0
M  END
$$$$
