HNI.pdb
     RDKit          3D

 27 27  0  0  1  0  0  0  0  0999 V2000
    7.2628  -13.8804   21.8250 N   0  0  0  0  0  0  0  0  0  0  0  0
    6.8368  -15.2673   21.8664 C   0  0  1  0  0  0  0  0  0  0  0  0
    6.7336  -15.7264   20.4048 C   0  0  0  0  0  0  0  0  0  0  0  0
    7.3777  -14.7728   19.4894 C   0  0  0  0  0  0  0  0  0  0  0  0
    8.0431  -13.6111   19.7977 C   0  0  0  0  0  0  0  0  0  0  0  0
    8.4553  -13.0839   18.6303 N   0  0  0  0  0  0  0  0  0  0  0  0
    8.0744  -13.8670   17.6188 C   0  0  0  0  0  0  0  0  0  0  0  0
    7.3986  -14.9285   18.1412 N   0  0  0  0  0  0  0  0  0  0  0  0
    7.8475  -16.1329   22.4987 C   0  0  0  0  0  0  0  0  0  0  0  0
    7.5770  -17.3270   22.7243 O   0  0  0  0  0  0  0  0  0  0  0  0
   12.7556  -18.3721   23.2320 N   0  0  0  0  0  0  0  0  0  0  0  0
   12.5145  -16.9945   23.2484 C   0  0  0  0  0  0  0  0  0  0  0  0
   13.4242  -16.3058   23.8651 O   0  0  0  0  0  0  0  0  0  0  0  0
   11.4189  -16.2220   22.6888 C   0  0  0  0  0  0  0  0  0  0  0  0
   10.1540  -16.3641   23.4708 C   0  0  2  0  0  0  0  0  0  0  0  0
    9.1137  -15.5919   22.8401 N   0  0  0  0  0  0  0  0  0  0  0  0
   10.3956  -16.0422   24.8751 C   0  0  0  0  0  0  0  0  0  0  0  0
   11.4353  -16.3071   25.5340 O   0  0  0  0  0  0  0  0  0  0  0  0
    6.8682  -12.1402   26.3736 C   0  0  0  0  0  0  0  0  0  0  0  0
    8.1628  -12.8862   26.0699 C   0  0  0  0  0  0  0  0  0  0  0  0
    8.3666  -13.8995   27.1483 C   0  0  2  0  0  0  0  0  0  0  0  0
    8.4539  -13.2878   28.5203 C   0  0  0  0  0  0  0  0  0  0  0  0
    9.5539  -14.8074   26.9056 C   0  0  2  0  0  0  0  0  0  0  0  0
    9.3615  -15.3622   25.5767 N   0  0  0  0  0  0  0  0  0  0  0  0
    9.5445  -15.9444   27.8626 C   0  0  0  0  0  0  0  0  0  0  0  0
    8.9511  -17.1736   27.5953 O   0  0  0  0  0  0  0  0  0  0  0  0
   10.0920  -15.8625   29.0160 O   0  0  0  0  0  0  0  0  0  0  0  0
  2  1  1  6
  2  3  1  0
  4  5  2  0
  4  3  1  0
  6  5  1  0
  7  8  2  0
  7  6  1  0
  8  4  1  0
  9 10  2  0
  9  2  1  0
 12 11  1  0
 12 14  1  0
 13 12  2  0
 15 14  1  6
 15 16  1  0
 16  9  1  0
 17 18  2  0
 17 15  1  0
 20 21  1  0
 20 19  1  0
 21 22  1  1
 23 21  1  0
 23 24  1  6
 24 17  1  0
 25 23  1  0
 26 25  1  0
 27 25  2  0
M  END
$$$$
