HNI.pdb
     RDKit          3D

 27 27  0  0  1  0  0  0  0  0999 V2000
    7.2602  -17.0168   18.7415 N   0  0  0  0  0  0  0  0  0  0  0  0
    7.8825  -16.0236   19.5976 C   0  0  1  0  0  0  0  0  0  0  0  0
    7.5052  -14.6561   19.0099 C   0  0  0  0  0  0  0  0  0  0  0  0
    8.1039  -14.4517   17.6826 C   0  0  0  0  0  0  0  0  0  0  0  0
    7.4759  -14.1290   16.5041 C   0  0  0  0  0  0  0  0  0  0  0  0
    8.4377  -14.0495   15.5663 N   0  0  0  0  0  0  0  0  0  0  0  0
    9.6274  -14.3085   16.1131 C   0  0  0  0  0  0  0  0  0  0  0  0
    9.4345  -14.5621   17.4377 N   0  0  0  0  0  0  0  0  0  0  0  0
    7.3285  -16.0513   20.9625 C   0  0  0  0  0  0  0  0  0  0  0  0
    6.1756  -15.6272   21.1645 O   0  0  0  0  0  0  0  0  0  0  0  0
    6.2473  -19.5814   22.4874 N   0  0  0  0  0  0  0  0  0  0  0  0
    6.3730  -18.5536   23.4277 C   0  0  0  0  0  0  0  0  0  0  0  0
    5.2438  -18.1408   23.9140 O   0  0  0  0  0  0  0  0  0  0  0  0
    7.5558  -17.8841   23.9406 C   0  0  0  0  0  0  0  0  0  0  0  0
    7.7115  -16.4978   23.4063 C   0  0  2  0  0  0  0  0  0  0  0  0
    8.1176  -16.5616   22.0252 N   0  0  0  0  0  0  0  0  0  0  0  0
    8.5961  -15.7240   24.2739 C   0  0  0  0  0  0  0  0  0  0  0  0
    9.8522  -15.6724   24.2049 O   0  0  0  0  0  0  0  0  0  0  0  0
    5.9962  -11.9972   27.7575 C   0  0  0  0  0  0  0  0  0  0  0  0
    6.6149  -13.2855   27.2260 C   0  0  0  0  0  0  0  0  0  0  0  0
    7.8809  -12.9236   26.5206 C   0  0  2  0  0  0  0  0  0  0  0  0
    7.6480  -12.1129   25.2745 C   0  0  0  0  0  0  0  0  0  0  0  0
    8.7597  -14.1170   26.2096 C   0  0  2  0  0  0  0  0  0  0  0  0
    7.9893  -14.9483   25.3007 N   0  0  0  0  0  0  0  0  0  0  0  0
    9.0047  -14.9175   27.4375 C   0  0  0  0  0  0  0  0  0  0  0  0
    9.8983  -14.5452   28.4363 O   0  0  0  0  0  0  0  0  0  0  0  0
    8.3977  -16.0220   27.6575 O   0  0  0  0  0  0  0  0  0  0  0  0
  2  1  1  6
  2  3  1  0
  4  5  2  0
  4  3  1  0
  6  5  1  0
  7  8  2  0
  7  6  1  0
  8  4  1  0
  9 10  2  0
  9  2  1  0
 12 11  1  0
 12 14  1  0
 13 12  2  0
 15 14  1  1
 15 16  1  0
 16  9  1  0
 17 18  2  0
 17 15  1  0
 20 21  1  0
 20 19  1  0
 21 22  1  6
 23 21  1  0
 23 24  1  6
 24 17  1  0
 25 23  1  0
 26 25  1  0
 27 25  2  0
M  END
$$$$
