HNI.pdb
     RDKit          3D

 27 27  0  0  1  0  0  0  0  0999 V2000
    6.7530  -17.1577   20.7191 N   0  0  0  0  0  0  0  0  0  0  0  0
    7.9607  -16.3743   20.9049 C   0  0  1  0  0  0  0  0  0  0  0  0
    7.5095  -14.9096   21.0004 C   0  0  0  0  0  0  0  0  0  0  0  0
    7.4518  -14.2719   19.6768 C   0  0  0  0  0  0  0  0  0  0  0  0
    7.7698  -14.8129   18.4546 C   0  0  0  0  0  0  0  0  0  0  0  0
    7.5570  -13.8481   17.5410 N   0  0  0  0  0  0  0  0  0  0  0  0
    7.1234  -12.7393   18.1443 C   0  0  0  0  0  0  0  0  0  0  0  0
    7.0525  -12.9893   19.4818 N   0  0  0  0  0  0  0  0  0  0  0  0
    8.6242  -16.6841   22.1833 C   0  0  0  0  0  0  0  0  0  0  0  0
    8.1553  -17.5736   22.9173 O   0  0  0  0  0  0  0  0  0  0  0  0
   14.2205  -15.9917   24.5530 N   0  0  0  0  0  0  0  0  0  0  0  0
   13.1551  -16.6507   23.9311 C   0  0  0  0  0  0  0  0  0  0  0  0
   13.0842  -17.9165   24.2047 O   0  0  0  0  0  0  0  0  0  0  0  0
   12.1263  -16.1463   23.0381 C   0  0  0  0  0  0  0  0  0  0  0  0
   10.7452  -16.4596   23.5135 C   0  0  2  0  0  0  0  0  0  0  0  0
    9.7876  -15.9638   22.5576 N   0  0  0  0  0  0  0  0  0  0  0  0
   10.5634  -15.9715   24.8782 C   0  0  0  0  0  0  0  0  0  0  0  0
   11.3132  -16.2072   25.8620 O   0  0  0  0  0  0  0  0  0  0  0  0
    6.3492  -12.3492   25.0828 C   0  0  0  0  0  0  0  0  0  0  0  0
    7.7690  -12.9028   25.1336 C   0  0  0  0  0  0  0  0  0  0  0  0
    7.8536  -13.8290   26.3025 C   0  0  2  0  0  0  0  0  0  0  0  0
    7.4955  -13.1654   27.6048 C   0  0  0  0  0  0  0  0  0  0  0  0
    9.1923  -14.5262   26.4234 C   0  0  2  0  0  0  0  0  0  0  0  0
    9.4318  -15.1475   25.1321 N   0  0  0  0  0  0  0  0  0  0  0  0
    9.1225  -15.6170   27.4302 C   0  0  0  0  0  0  0  0  0  0  0  0
    8.5361  -16.8548   27.1882 O   0  0  0  0  0  0  0  0  0  0  0  0
    9.6066  -15.4836   28.6070 O   0  0  0  0  0  0  0  0  0  0  0  0
  2  1  1  1
  2  3  1  0
  4  5  2  0
  4  3  1  0
  6  5  1  0
  7  8  2  0
  7  6  1  0
  8  4  1  0
  9 10  2  0
  9  2  1  0
 12 11  1  0
 12 14  1  0
 13 12  2  0
 15 14  1  6
 15 16  1  0
 16  9  1  0
 17 18  2  0
 17 15  1  0
 20 21  1  0
 20 19  1  0
 21 22  1  1
 23 21  1  0
 23 24  1  6
 24 17  1  0
 25 23  1  0
 26 25  1  0
 27 25  2  0
M  END
$$$$
