HNI.pdb
     RDKit          3D

 27 27  0  0  1  0  0  0  0  0999 V2000
    9.2904  -17.0666   18.2978 N   0  0  0  0  0  0  0  0  0  0  0  0
    8.7177  -15.9835   19.0760 C   0  0  1  0  0  0  0  0  0  0  0  0
    7.4806  -15.5078   18.3007 C   0  0  0  0  0  0  0  0  0  0  0  0
    7.8527  -14.7691   17.0850 C   0  0  0  0  0  0  0  0  0  0  0  0
    8.3830  -13.5058   16.9832 C   0  0  0  0  0  0  0  0  0  0  0  0
    8.5537  -13.2661   15.6701 N   0  0  0  0  0  0  0  0  0  0  0  0
    8.1530  -14.3229   14.9600 C   0  0  0  0  0  0  0  0  0  0  0  0
    7.7116  -15.2719   15.8321 N   0  0  0  0  0  0  0  0  0  0  0  0
    8.2283  -16.4483   20.3856 C   0  0  0  0  0  0  0  0  0  0  0  0
    7.2166  -17.1718   20.4401 O   0  0  0  0  0  0  0  0  0  0  0  0
    9.4025  -19.3511   25.1403 N   0  0  0  0  0  0  0  0  0  0  0  0
    8.6328  -18.5341   24.3059 C   0  0  0  0  0  0  0  0  0  0  0  0
    7.4735  -18.2208   24.7957 O   0  0  0  0  0  0  0  0  0  0  0  0
    8.9245  -17.9861   22.9925 C   0  0  0  0  0  0  0  0  0  0  0  0
    8.5597  -16.5422   22.8756 C   0  0  2  0  0  0  0  0  0  0  0  0
    8.9181  -16.0642   21.5642 N   0  0  0  0  0  0  0  0  0  0  0  0
    9.1379  -15.7890   23.9856 C   0  0  0  0  0  0  0  0  0  0  0  0
   10.3643  -15.6378   24.2273 O   0  0  0  0  0  0  0  0  0  0  0  0
    6.4837  -11.3938   27.2849 C   0  0  0  0  0  0  0  0  0  0  0  0
    7.7496  -12.2336   27.1536 C   0  0  0  0  0  0  0  0  0  0  0  0
    7.4749  -13.3167   26.1623 C   0  0  2  0  0  0  0  0  0  0  0  0
    6.2832  -14.1595   26.5282 C   0  0  0  0  0  0  0  0  0  0  0  0
    8.6736  -14.2001   25.8873 C   0  0  2  0  0  0  0  0  0  0  0  0
    8.2359  -15.1597   24.8882 N   0  0  0  0  0  0  0  0  0  0  0  0
    9.0438  -14.9694   27.1037 C   0  0  0  0  0  0  0  0  0  0  0  0
    9.8220  -14.4550   28.1354 O   0  0  0  0  0  0  0  0  0  0  0  0
    8.6630  -16.1777   27.2821 O   0  0  0  0  0  0  0  0  0  0  0  0
  2  1  1  6
  2  3  1  0
  4  5  2  0
  4  3  1  0
  6  5  1  0
  7  8  2  0
  7  6  1  0
  8  4  1  0
  9 10  2  0
  9  2  1  0
 12 11  1  0
 12 14  1  0
 13 12  2  0
 15 14  1  6
 15 16  1  0
 16  9  1  0
 17 18  2  0
 17 15  1  0
 20 21  1  0
 20 19  1  0
 21 22  1  1
 23 21  1  0
 23 24  1  6
 24 17  1  0
 25 23  1  0
 26 25  1  0
 27 25  2  0
M  END
$$$$
