HNI.pdb
     RDKit          3D

 27 27  0  0  1  0  0  0  0  0999 V2000
    8.2687  -17.4407   18.6665 N   0  0  0  0  0  0  0  0  0  0  0  0
    8.0997  -16.2745   19.5139 C   0  0  1  0  0  0  0  0  0  0  0  0
    7.0457  -15.3952   18.8256 C   0  0  0  0  0  0  0  0  0  0  0  0
    7.6226  -14.6270   17.7125 C   0  0  0  0  0  0  0  0  0  0  0  0
    8.3022  -13.4341   17.7613 C   0  0  0  0  0  0  0  0  0  0  0  0
    8.6326  -13.1287   16.4931 N   0  0  0  0  0  0  0  0  0  0  0  0
    8.1877  -14.0780   15.6670 C   0  0  0  0  0  0  0  0  0  0  0  0
    7.5532  -15.0228   16.4160 N   0  0  0  0  0  0  0  0  0  0  0  0
    7.5422  -16.6296   20.8307 C   0  0  0  0  0  0  0  0  0  0  0  0
    6.5359  -17.3598   20.8934 O   0  0  0  0  0  0  0  0  0  0  0  0
    6.0664  -18.5896   25.3498 N   0  0  0  0  0  0  0  0  0  0  0  0
    7.3326  -18.4498   24.7724 C   0  0  0  0  0  0  0  0  0  0  0  0
    8.3106  -18.7857   25.5550 O   0  0  0  0  0  0  0  0  0  0  0  0
    7.7204  -17.9940   23.4486 C   0  0  0  0  0  0  0  0  0  0  0  0
    7.7389  -16.5047   23.3335 C   0  0  2  0  0  0  0  0  0  0  0  0
    8.1616  -16.1339   22.0068 N   0  0  0  0  0  0  0  0  0  0  0  0
    8.5322  -15.9293   24.4167 C   0  0  0  0  0  0  0  0  0  0  0  0
    9.7677  -16.0858   24.6023 O   0  0  0  0  0  0  0  0  0  0  0  0
    5.7112  -11.7590   26.5151 C   0  0  0  0  0  0  0  0  0  0  0  0
    6.7983  -12.5823   25.8329 C   0  0  0  0  0  0  0  0  0  0  0  0
    7.5294  -13.3372   26.8944 C   0  0  2  0  0  0  0  0  0  0  0  0
    8.1623  -12.4399   27.9233 C   0  0  0  0  0  0  0  0  0  0  0  0
    8.5553  -14.3068   26.3462 C   0  0  2  0  0  0  0  0  0  0  0  0
    7.8526  -15.1094   25.3601 N   0  0  0  0  0  0  0  0  0  0  0  0
    9.0219  -15.2299   27.4133 C   0  0  0  0  0  0  0  0  0  0  0  0
   10.1820  -15.0301   28.1542 O   0  0  0  0  0  0  0  0  0  0  0  0
    8.3734  -16.2882   27.7236 O   0  0  0  0  0  0  0  0  0  0  0  0
  2  1  1  6
  2  3  1  0
  4  5  2  0
  4  3  1  0
  6  5  1  0
  7  8  2  0
  7  6  1  0
  8  4  1  0
  9 10  2  0
  9  2  1  0
 12 11  1  0
 12 14  1  0
 13 12  2  0
 15 14  1  6
 15 16  1  0
 16  9  1  0
 17 18  2  0
 17 15  1  0
 20 21  1  0
 20 19  1  0
 21 22  1  1
 23 21  1  0
 23 24  1  6
 24 17  1  0
 25 23  1  0
 26 25  1  0
 27 25  2  0
M  END
$$$$
