HNI.pdb
     RDKit          3D

 27 27  0  0  1  0  0  0  0  0999 V2000
    6.8177  -17.1223   19.5769 N   0  0  0  0  0  0  0  0  0  0  0  0
    7.3526  -16.1352   20.4968 C   0  0  1  0  0  0  0  0  0  0  0  0
    6.7198  -14.7937   20.0996 C   0  0  0  0  0  0  0  0  0  0  0  0
    7.4842  -14.1268   19.0352 C   0  0  0  0  0  0  0  0  0  0  0  0
    8.4731  -13.1813   19.1595 C   0  0  0  0  0  0  0  0  0  0  0  0
    8.8696  -12.8746   17.9107 N   0  0  0  0  0  0  0  0  0  0  0  0
    8.1706  -13.5871   17.0246 C   0  0  0  0  0  0  0  0  0  0  0  0
    7.2991  -14.3758   17.7137 N   0  0  0  0  0  0  0  0  0  0  0  0
    6.9309  -16.3936   21.8846 C   0  0  0  0  0  0  0  0  0  0  0  0
    5.7187  -16.5022   22.1466 O   0  0  0  0  0  0  0  0  0  0  0  0
    7.7392  -19.4935   26.7222 N   0  0  0  0  0  0  0  0  0  0  0  0
    7.1154  -18.5791   25.8674 C   0  0  0  0  0  0  0  0  0  0  0  0
    6.1255  -17.9395   26.4088 O   0  0  0  0  0  0  0  0  0  0  0  0
    7.3991  -18.2357   24.4846 C   0  0  0  0  0  0  0  0  0  0  0  0
    7.5884  -16.7678   24.2817 C   0  0  2  0  0  0  0  0  0  0  0  0
    7.9133  -16.5150   22.9008 N   0  0  0  0  0  0  0  0  0  0  0  0
    8.5546  -16.2501   25.2472 C   0  0  0  0  0  0  0  0  0  0  0  0
    9.7921  -16.4820   25.2633 O   0  0  0  0  0  0  0  0  0  0  0  0
    6.2764  -11.9705   27.7469 C   0  0  0  0  0  0  0  0  0  0  0  0
    7.2381  -12.8096   26.9128 C   0  0  0  0  0  0  0  0  0  0  0  0
    8.0520  -13.6366   27.8535 C   0  0  2  0  0  0  0  0  0  0  0  0
    8.8660  -12.8082   28.8103 C   0  0  0  0  0  0  0  0  0  0  0  0
    8.9374  -14.6476   27.1555 C   0  0  2  0  0  0  0  0  0  0  0  0
    8.0601  -15.3987   26.2742 N   0  0  0  0  0  0  0  0  0  0  0  0
    9.5036  -15.6094   28.1368 C   0  0  0  0  0  0  0  0  0  0  0  0
   10.7260  -15.4307   28.7759 O   0  0  0  0  0  0  0  0  0  0  0  0
    8.8905  -16.6843   28.4618 O   0  0  0  0  0  0  0  0  0  0  0  0
  2  1  1  6
  2  3  1  0
  4  5  2  0
  4  3  1  0
  6  5  1  0
  7  8  2  0
  7  6  1  0
  8  4  1  0
  9 10  2  0
  9  2  1  0
 12 11  1  0
 12 14  1  0
 13 12  2  0
 15 14  1  6
 15 16  1  0
 16  9  1  0
 17 18  2  0
 17 15  1  0
 20 21  1  0
 20 19  1  0
 21 22  1  6
 23 21  1  0
 23 24  1  6
 24 17  1  0
 25 23  1  0
 26 25  1  0
 27 25  2  0
M  END
$$$$
