HNI.pdb
     RDKit          3D

 27 27  0  0  1  0  0  0  0  0999 V2000
    8.1612  -17.7468   18.4256 N   0  0  0  0  0  0  0  0  0  0  0  0
    8.2852  -16.5786   19.2781 C   0  0  1  0  0  0  0  0  0  0  0  0
    7.3418  -15.5190   18.6907 C   0  0  0  0  0  0  0  0  0  0  0  0
    7.9057  -14.9002   17.4820 C   0  0  0  0  0  0  0  0  0  0  0  0
    9.0725  -15.2139   16.8281 C   0  0  0  0  0  0  0  0  0  0  0  0
    9.1613  -14.3761   15.7788 N   0  0  0  0  0  0  0  0  0  0  0  0
    8.1039  -13.5620   15.7571 C   0  0  0  0  0  0  0  0  0  0  0  0
    7.3088  -13.8781   16.8174 N   0  0  0  0  0  0  0  0  0  0  0  0
    7.8048  -16.8439   20.6454 C   0  0  0  0  0  0  0  0  0  0  0  0
    6.9927  -17.7669   20.8413 O   0  0  0  0  0  0  0  0  0  0  0  0
    6.2794  -18.6722   23.5878 N   0  0  0  0  0  0  0  0  0  0  0  0
    7.6739  -18.7801   23.5849 C   0  0  0  0  0  0  0  0  0  0  0  0
    8.1133  -19.9638   23.8812 O   0  0  0  0  0  0  0  0  0  0  0  0
    8.6961  -17.7868   23.3041 C   0  0  0  0  0  0  0  0  0  0  0  0
    8.1311  -16.4188   23.1012 C   0  0  2  0  0  0  0  0  0  0  0  0
    8.2757  -16.0432   21.7176 N   0  0  0  0  0  0  0  0  0  0  0  0
    8.7224  -15.4868   24.0581 C   0  0  0  0  0  0  0  0  0  0  0  0
    9.9011  -15.0444   24.0393 O   0  0  0  0  0  0  0  0  0  0  0  0
    6.1138  -11.1208   27.2597 C   0  0  0  0  0  0  0  0  0  0  0  0
    7.3947  -11.9419   27.1607 C   0  0  0  0  0  0  0  0  0  0  0  0
    7.1324  -13.0820   26.2318 C   0  0  2  0  0  0  0  0  0  0  0  0
    5.9127  -13.8783   26.6090 C   0  0  0  0  0  0  0  0  0  0  0  0
    8.3221  -14.0022   26.0561 C   0  0  2  0  0  0  0  0  0  0  0  0
    7.8939  -15.0266   25.1192 N   0  0  0  0  0  0  0  0  0  0  0  0
    8.6465  -14.6843   27.3360 C   0  0  0  0  0  0  0  0  0  0  0  0
    8.4283  -16.0386   27.5660 O   0  0  0  0  0  0  0  0  0  0  0  0
    9.1567  -14.0564   28.3270 O   0  0  0  0  0  0  0  0  0  0  0  0
  2  1  1  6
  2  3  1  0
  4  5  2  0
  4  3  1  0
  6  5  1  0
  7  8  2  0
  7  6  1  0
  8  4  1  0
  9 10  2  0
  9  2  1  0
 12 11  1  0
 12 14  1  0
 13 12  2  0
 15 14  1  6
 15 16  1  0
 16  9  1  0
 17 18  2  0
 17 15  1  0
 20 21  1  0
 20 19  1  0
 21 22  1  1
 23 21  1  0
 23 24  1  6
 24 17  1  0
 25 23  1  0
 26 25  1  0
 27 25  2  0
M  END
$$$$
