HNI.pdb
     RDKit          3D

 27 27  0  0  1  0  0  0  0  0999 V2000
    6.3294  -17.3339   19.8621 N   0  0  0  0  0  0  0  0  0  0  0  0
    7.0223  -16.4736   20.8037 C   0  0  1  0  0  0  0  0  0  0  0  0
    6.5199  -15.0486   20.5300 C   0  0  0  0  0  0  0  0  0  0  0  0
    7.4549  -14.2972   19.6797 C   0  0  0  0  0  0  0  0  0  0  0  0
    8.6671  -14.7045   19.1777 C   0  0  0  0  0  0  0  0  0  0  0  0
    9.1502  -13.6747   18.4589 N   0  0  0  0  0  0  0  0  0  0  0  0
    8.2918  -12.6532   18.4957 C   0  0  0  0  0  0  0  0  0  0  0  0
    7.2255  -13.0281   19.2563 N   0  0  0  0  0  0  0  0  0  0  0  0
    6.6551  -16.7782   22.1976 C   0  0  0  0  0  0  0  0  0  0  0  0
    5.5172  -17.2155   22.4500 O   0  0  0  0  0  0  0  0  0  0  0  0
    8.5990  -20.0877   25.7547 N   0  0  0  0  0  0  0  0  0  0  0  0
    8.1466  -19.2350   24.7425 C   0  0  0  0  0  0  0  0  0  0  0  0
    8.8899  -19.2348   23.6798 O   0  0  0  0  0  0  0  0  0  0  0  0
    6.9876  -18.3605   24.6940 C   0  0  0  0  0  0  0  0  0  0  0  0
    7.3579  -16.9159   24.6071 C   0  0  2  0  0  0  0  0  0  0  0  0
    7.6047  -16.5686   23.2305 N   0  0  0  0  0  0  0  0  0  0  0  0
    8.4584  -16.6259   25.5229 C   0  0  0  0  0  0  0  0  0  0  0  0
    9.6500  -17.0154   25.4059 O   0  0  0  0  0  0  0  0  0  0  0  0
    6.5842  -12.0186   27.3484 C   0  0  0  0  0  0  0  0  0  0  0  0
    7.4317  -13.0926   26.6751 C   0  0  0  0  0  0  0  0  0  0  0  0
    8.2939  -13.7145   27.7244 C   0  0  2  0  0  0  0  0  0  0  0  0
    9.1787  -12.7185   28.4240 C   0  0  0  0  0  0  0  0  0  0  0  0
    9.1190  -14.8775   27.2150 C   0  0  2  0  0  0  0  0  0  0  0  0
    8.1666  -15.8250   26.6621 N   0  0  0  0  0  0  0  0  0  0  0  0
    9.8125  -15.5567   28.3403 C   0  0  0  0  0  0  0  0  0  0  0  0
   11.0381  -15.1450   28.8532 O   0  0  0  0  0  0  0  0  0  0  0  0
    9.3163  -16.5838   28.9197 O   0  0  0  0  0  0  0  0  0  0  0  0
  2  1  1  6
  2  3  1  0
  4  5  2  0
  4  3  1  0
  6  5  1  0
  7  8  2  0
  7  6  1  0
  8  4  1  0
  9 10  2  0
  9  2  1  0
 12 11  1  0
 12 14  1  0
 13 12  2  0
 15 14  1  6
 15 16  1  0
 16  9  1  0
 17 18  2  0
 17 15  1  0
 20 21  1  0
 20 19  1  0
 21 22  1  6
 23 21  1  0
 23 24  1  1
 24 17  1  0
 25 23  1  0
 26 25  1  0
 27 25  2  0
M  END
$$$$
