KRW.pdb
     RDKit          3D

 35 36  0  0  1  0  0  0  0  0999 V2000
   25.9964  -19.6798  -20.6227 N   0  0  0  0  0  0  0  0  0  0  0  0
   25.8597  -18.7888  -19.4895 C   0  0  1  0  0  0  0  0  0  0  0  0
   25.2288  -17.4943  -19.8828 C   0  0  0  0  0  0  0  0  0  0  0  0
   26.0607  -16.9409  -21.0373 C   0  0  0  0  0  0  0  0  0  0  0  0
   27.2690  -16.1833  -20.5520 C   0  0  0  0  0  0  0  0  0  0  0  0
   28.0958  -15.5988  -21.6597 C   0  0  0  0  0  0  0  0  0  0  0  0
   29.1949  -14.8660  -21.0200 N   0  0  0  0  0  0  0  0  0  0  0  0
   25.1310  -19.5343  -18.4399 C   0  0  0  0  0  0  0  0  0  0  0  0
   24.0786  -20.1944  -18.6610 O   0  0  0  0  0  0  0  0  0  0  0  0
   27.2295  -22.1689  -10.4582 N   0  0  0  0  0  0  0  0  0  0  0  0
   27.7995  -21.5832  -11.6319 C   0  0  0  0  0  0  0  0  0  0  0  0
   28.9605  -21.9280  -12.0755 N   0  0  0  0  0  0  0  0  0  0  0  0
   27.1074  -20.5763  -12.3834 N   0  0  0  0  0  0  0  0  0  0  0  0
   25.7008  -20.3538  -12.1873 C   0  0  0  0  0  0  0  0  0  0  0  0
   24.8966  -20.1933  -13.4295 C   0  0  0  0  0  0  0  0  0  0  0  0
   25.6476  -20.0328  -14.7092 C   0  0  0  0  0  0  0  0  0  0  0  0
   24.8524  -19.9202  -15.9437 C   0  0  2  0  0  0  0  0  0  0  0  0
   25.6017  -19.5329  -17.1153 N   0  0  0  0  0  0  0  0  0  0  0  0
   23.5772  -19.1862  -15.8274 C   0  0  0  0  0  0  0  0  0  0  0  0
   23.6377  -17.9456  -15.6426 O   0  0  0  0  0  0  0  0  0  0  0  0
   29.3233  -21.4247  -12.9154 N   0  0  0  0  0  0  0  0  0  0  0  0
   22.3035  -19.7877  -15.9088 C   0  0  1  0  0  0  0  0  0  0  0  0
   21.0509  -19.0680  -15.8763 C   0  0  0  0  0  0  0  0  0  0  0  0
   20.5355  -18.7173  -17.2516 C   0  0  0  0  0  0  0  0  0  0  0  0
   19.2832  -17.9632  -17.2184 C   0  0  0  0  0  0  0  0  0  0  0  0
   19.1339  -16.6888  -16.7015 N   0  0  0  0  0  0  0  0  0  0  0  0
   17.8745  -16.2851  -16.8262 C   0  0  0  0  0  0  0  0  0  0  0  0
   17.1454  -17.2482  -17.4171 C   0  0  0  0  0  0  0  0  0  0  0  0
   15.8274  -17.3258  -17.7645 C   0  0  0  0  0  0  0  0  0  0  0  0
   15.3786  -18.4834  -18.3733 C   0  0  0  0  0  0  0  0  0  0  0  0
   16.2291  -19.5202  -18.6202 C   0  0  0  0  0  0  0  0  0  0  0  0
   17.5552  -19.4591  -18.2779 C   0  0  0  0  0  0  0  0  0  0  0  0
   18.0124  -18.3047  -17.6688 C   0  0  0  0  0  0  0  0  0  0  0  0
   20.0464  -19.8211  -15.0836 O   0  0  0  0  0  0  0  0  0  0  0  0
   20.1100  -21.0767  -15.0729 O   0  0  0  0  0  0  0  0  0  0  0  0
  2  1  1  6
  2  3  1  0
  3  4  1  0
  5  6  1  0
  5  4  1  0
  7  6  1  0
  8  2  1  0
  8  9  2  0
 10 11  1  0
 11 13  1  0
 12 11  2  0
 13 14  1  0
 14 15  1  0
 15 16  1  0
 17 16  1  1
 17 18  1  0
 18  8  1  0
 19 17  1  0
 19 21  1  0
 20 19  2  0
 22 21  1  0
 22 33  1  0
 22 23  1  1
 24 23  1  0
 24 25  2  0
 26 25  1  0
 27 32  2  0
 27 26  1  0
 28 27  1  0
 29 30  1  0
 29 28  2  0
 30 31  2  0
 31 32  1  0
 32 24  1  0
 33 34  2  0
 33 35  1  0
M  END
$$$$
