KRW.pdb
     RDKit          3D

 35 36  0  0  1  0  0  0  0  0999 V2000
   22.6165  -21.6700  -15.9686 N   0  0  0  0  0  0  0  0  0  0  0  0
   23.0901  -22.0844  -14.6645 C   0  0  1  0  0  0  0  0  0  0  0  0
   24.4875  -22.6055  -14.7288 C   0  0  0  0  0  0  0  0  0  0  0  0
   24.4226  -23.9235  -15.4968 C   0  0  0  0  0  0  0  0  0  0  0  0
   25.7783  -24.5660  -15.6337 C   0  0  0  0  0  0  0  0  0  0  0  0
   25.7618  -25.8389  -16.4285 C   0  0  0  0  0  0  0  0  0  0  0  0
   27.1503  -26.3101  -16.4935 N   0  0  0  0  0  0  0  0  0  0  0  0
   22.9038  -20.9347  -13.7524 C   0  0  0  0  0  0  0  0  0  0  0  0
   23.1981  -19.7476  -14.0627 O   0  0  0  0  0  0  0  0  0  0  0  0
   18.2377  -23.9289   -9.7514 N   0  0  0  0  0  0  0  0  0  0  0  0
   18.9764  -23.9428   -8.5268 C   0  0  0  0  0  0  0  0  0  0  0  0
   19.0500  -24.9935   -7.7825 N   0  0  0  0  0  0  0  0  0  0  0  0
   19.6795  -22.7837   -8.0580 N   0  0  0  0  0  0  0  0  0  0  0  0
   19.7500  -21.5948   -8.8632 C   0  0  0  0  0  0  0  0  0  0  0  0
   20.9766  -21.4541   -9.6946 C   0  0  0  0  0  0  0  0  0  0  0  0
   21.0640  -20.2554  -10.5794 C   0  0  0  0  0  0  0  0  0  0  0  0
   22.2619  -20.1341  -11.4276 C   0  0  2  0  0  0  0  0  0  0  0  0
   22.3747  -21.1317  -12.4650 N   0  0  0  0  0  0  0  0  0  0  0  0
   23.5380  -19.9180  -10.7183 C   0  0  0  0  0  0  0  0  0  0  0  0
   23.5702  -19.0154   -9.8459 O   0  0  0  0  0  0  0  0  0  0  0  0
   19.5313  -24.8973   -6.8608 N   0  0  0  0  0  0  0  0  0  0  0  0
   24.7161  -20.6561  -10.9589 C   0  0  2  0  0  0  0  0  0  0  0  0
   25.9785  -20.4297  -10.2932 C   0  0  0  0  0  0  0  0  0  0  0  0
   25.8518  -20.3755   -8.7895 C   0  0  0  0  0  0  0  0  0  0  0  0
   27.1306  -20.1576   -8.1148 C   0  0  0  0  0  0  0  0  0  0  0  0
   28.3543  -20.0328   -8.7475 N   0  0  0  0  0  0  0  0  0  0  0  0
   29.3180  -19.8394   -7.8540 C   0  0  0  0  0  0  0  0  0  0  0  0
   28.7934  -19.8269   -6.6159 C   0  0  0  0  0  0  0  0  0  0  0  0
   29.3495  -19.6659   -5.3795 C   0  0  0  0  0  0  0  0  0  0  0  0
   28.5156  -19.7050   -4.2772 C   0  0  0  0  0  0  0  0  0  0  0  0
   27.1736  -19.8992   -4.4204 C   0  0  0  0  0  0  0  0  0  0  0  0
   26.5987  -20.0627   -5.6542 C   0  0  0  0  0  0  0  0  0  0  0  0
   27.4256  -20.0248   -6.7621 C   0  0  0  0  0  0  0  0  0  0  0  0
   26.9770  -21.4384  -10.7291 O   0  0  0  0  0  0  0  0  0  0  0  0
   28.1846  -21.0955  -10.7987 O   0  0  0  0  0  0  0  0  0  0  0  0
  2  1  1  6
  2  3  1  0
  3  4  1  0
  5  6  1  0
  5  4  1  0
  7  6  1  0
  8  2  1  0
  8  9  2  0
 10 11  1  0
 11 13  1  0
 12 11  2  0
 13 14  1  0
 14 15  1  0
 15 16  1  0
 17 16  1  1
 17 18  1  0
 18  8  1  0
 19 17  1  0
 19 21  1  0
 20 19  2  0
 22 21  1  0
 22 33  1  0
 22 23  1  1
 24 23  1  0
 24 25  2  0
 26 25  1  0
 27 32  2  0
 27 26  1  0
 28 27  1  0
 29 30  1  0
 29 28  2  0
 30 31  2  0
 31 32  1  0
 32 24  1  0
 33 34  2  0
 33 35  1  0
M  END
$$$$
