KRW.pdb
     RDKit          3D

 35 36  0  0  1  0  0  0  0  0999 V2000
   24.9165  -17.7246  -14.7036 N   0  0  0  0  0  0  0  0  0  0  0  0
   24.1340  -18.9389  -14.8027 C   0  0  1  0  0  0  0  0  0  0  0  0
   23.6222  -19.1498  -16.1890 C   0  0  0  0  0  0  0  0  0  0  0  0
   22.7579  -17.9356  -16.5204 C   0  0  0  0  0  0  0  0  0  0  0  0
   21.2903  -18.2160  -16.3281 C   0  0  0  0  0  0  0  0  0  0  0  0
   20.4021  -17.0832  -16.7523 C   0  0  0  0  0  0  0  0  0  0  0  0
   19.0406  -17.4402  -16.3365 N   0  0  0  0  0  0  0  0  0  0  0  0
   24.9765  -20.0387  -14.2841 C   0  0  0  0  0  0  0  0  0  0  0  0
   24.6008  -21.2428  -14.2471 O   0  0  0  0  0  0  0  0  0  0  0  0
   29.4196  -23.8399  -17.8268 N   0  0  0  0  0  0  0  0  0  0  0  0
   30.0965  -23.9588  -16.5726 C   0  0  0  0  0  0  0  0  0  0  0  0
   31.0954  -24.7575  -16.4057 N   0  0  0  0  0  0  0  0  0  0  0  0
   29.6998  -23.1921  -15.4269 N   0  0  0  0  0  0  0  0  0  0  0  0
   28.6153  -22.2526  -15.5144 C   0  0  0  0  0  0  0  0  0  0  0  0
   28.9117  -20.8816  -15.0165 C   0  0  0  0  0  0  0  0  0  0  0  0
   28.5771  -20.5889  -13.5918 C   0  0  0  0  0  0  0  0  0  0  0  0
   27.1661  -20.7262  -13.1927 C   0  0  2  0  0  0  0  0  0  0  0  0
   26.2682  -19.7714  -13.7983 N   0  0  0  0  0  0  0  0  0  0  0  0
   26.9153  -20.8912  -11.7477 C   0  0  0  0  0  0  0  0  0  0  0  0
   27.9111  -21.0684  -11.0035 O   0  0  0  0  0  0  0  0  0  0  0  0
   31.5148  -24.8100  -15.4509 N   0  0  0  0  0  0  0  0  0  0  0  0
   25.6352  -20.8642  -11.1549 C   0  0  1  0  0  0  0  0  0  0  0  0
   25.3878  -20.8890   -9.7314 C   0  0  0  0  0  0  0  0  0  0  0  0
   26.1761  -19.8455   -8.9767 C   0  0  0  0  0  0  0  0  0  0  0  0
   27.3487  -20.3944   -8.2972 C   0  0  0  0  0  0  0  0  0  0  0  0
   28.2894  -21.2260   -8.8777 N   0  0  0  0  0  0  0  0  0  0  0  0
   29.2304  -21.5444   -7.9958 C   0  0  0  0  0  0  0  0  0  0  0  0
   28.9659  -20.9544   -6.8167 C   0  0  0  0  0  0  0  0  0  0  0  0
   29.6125  -20.9639   -5.6143 C   0  0  0  0  0  0  0  0  0  0  0  0
   29.0680  -20.2349   -4.5731 C   0  0  0  0  0  0  0  0  0  0  0  0
   27.9159  -19.5254   -4.7419 C   0  0  0  0  0  0  0  0  0  0  0  0
   27.2538  -19.5049   -5.9421 C   0  0  0  0  0  0  0  0  0  0  0  0
   27.7917  -20.2312   -6.9890 C   0  0  0  0  0  0  0  0  0  0  0  0
   23.9315  -20.7858   -9.4615 O   0  0  0  0  0  0  0  0  0  0  0  0
   23.5329  -20.8900   -8.2736 O   0  0  0  0  0  0  0  0  0  0  0  0
  2  1  1  6
  2  3  1  0
  3  4  1  0
  5  6  1  0
  5  4  1  0
  7  6  1  0
  8  2  1  0
  8  9  2  0
 10 11  1  0
 11 13  1  0
 12 11  2  0
 13 14  1  0
 14 15  1  0
 15 16  1  0
 17 16  1  1
 17 18  1  0
 18  8  1  0
 19 17  1  0
 19 21  1  0
 20 19  2  0
 22 21  1  0
 22 33  1  0
 22 23  1  1
 24 23  1  0
 24 25  2  0
 26 25  1  0
 27 32  2  0
 27 26  1  0
 28 27  1  0
 29 30  1  0
 29 28  2  0
 30 31  2  0
 31 32  1  0
 32 24  1  0
 33 34  2  0
 33 35  1  0
M  END
$$$$
