KRW.pdb
     RDKit          3D

 35 36  0  0  1  0  0  0  0  0999 V2000
   26.2587  -21.6817  -19.5981 N   0  0  0  0  0  0  0  0  0  0  0  0
   25.9012  -20.9107  -18.4257 C   0  0  1  0  0  0  0  0  0  0  0  0
   24.4581  -20.5292  -18.4394 C   0  0  0  0  0  0  0  0  0  0  0  0
   24.3384  -19.3227  -19.3673 C   0  0  0  0  0  0  0  0  0  0  0  0
   22.9326  -18.7837  -19.4164 C   0  0  0  0  0  0  0  0  0  0  0  0
   22.7678  -17.6209  -20.3508 C   0  0  0  0  0  0  0  0  0  0  0  0
   21.3364  -17.2966  -20.3673 N   0  0  0  0  0  0  0  0  0  0  0  0
   26.3173  -21.7008  -17.2463 C   0  0  0  0  0  0  0  0  0  0  0  0
   25.6894  -22.7142  -16.8330 O   0  0  0  0  0  0  0  0  0  0  0  0
   33.5011  -25.4058  -16.5511 N   0  0  0  0  0  0  0  0  0  0  0  0
   32.9014  -24.8332  -15.3858 C   0  0  0  0  0  0  0  0  0  0  0  0
   33.4927  -24.8347  -14.2395 N   0  0  0  0  0  0  0  0  0  0  0  0
   31.6042  -24.2225  -15.4289 N   0  0  0  0  0  0  0  0  0  0  0  0
   30.9520  -23.9771  -16.6862 C   0  0  0  0  0  0  0  0  0  0  0  0
   29.5904  -23.3824  -16.5980 C   0  0  0  0  0  0  0  0  0  0  0  0
   29.2920  -22.5421  -15.4013 C   0  0  0  0  0  0  0  0  0  0  0  0
   27.9415  -21.9618  -15.3093 C   0  0  2  0  0  0  0  0  0  0  0  0
   27.4653  -21.3375  -16.5208 N   0  0  0  0  0  0  0  0  0  0  0  0
   27.6697  -21.1412  -14.1131 C   0  0  0  0  0  0  0  0  0  0  0  0
   27.9914  -19.9283  -14.1574 O   0  0  0  0  0  0  0  0  0  0  0  0
   32.9646  -24.4487  -13.4255 N   0  0  0  0  0  0  0  0  0  0  0  0
   27.0766  -21.6318  -12.9306 C   0  0  1  0  0  0  0  0  0  0  0  0
   26.8880  -20.8595  -11.7239 C   0  0  0  0  0  0  0  0  0  0  0  0
   26.0790  -19.6042  -11.9466 C   0  0  0  0  0  0  0  0  0  0  0  0
   24.6936  -19.8760  -12.3270 C   0  0  0  0  0  0  0  0  0  0  0  0
   23.7567  -20.5062  -11.5278 N   0  0  0  0  0  0  0  0  0  0  0  0
   22.5939  -20.5962  -12.1635 C   0  0  0  0  0  0  0  0  0  0  0  0
   22.7003  -20.0440  -13.3851 C   0  0  0  0  0  0  0  0  0  0  0  0
   21.8091  -19.8855  -14.4070 C   0  0  0  0  0  0  0  0  0  0  0  0
   22.2424  -19.2600  -15.5616 C   0  0  0  0  0  0  0  0  0  0  0  0
   23.5256  -18.8134  -15.6772 C   0  0  0  0  0  0  0  0  0  0  0  0
   24.4334  -18.9645  -14.6611 C   0  0  0  0  0  0  0  0  0  0  0  0
   24.0081  -19.5887  -13.5026 C   0  0  0  0  0  0  0  0  0  0  0  0
   26.3070  -21.7108  -10.6551 O   0  0  0  0  0  0  0  0  0  0  0  0
   26.0819  -22.9214  -10.9087 O   0  0  0  0  0  0  0  0  0  0  0  0
  2  1  1  6
  2  3  1  0
  3  4  1  0
  5  6  1  0
  5  4  1  0
  7  6  1  0
  8  2  1  0
  8  9  2  0
 10 11  1  0
 11 13  1  0
 12 11  2  0
 13 14  1  0
 14 15  1  0
 15 16  1  0
 17 16  1  6
 17 18  1  0
 18  8  1  0
 19 17  1  0
 19 21  1  0
 20 19  2  0
 22 21  1  0
 22 33  1  0
 22 23  1  1
 24 23  1  0
 24 25  2  0
 26 25  1  0
 27 32  2  0
 27 26  1  0
 28 27  1  0
 29 30  1  0
 29 28  2  0
 30 31  2  0
 31 32  1  0
 32 24  1  0
 33 34  2  0
 33 35  1  0
M  END
$$$$
