KRW.pdb
     RDKit          3D

 35 36  0  0  1  0  0  0  0  0999 V2000
   28.0333  -25.4415  -17.2940 N   0  0  0  0  0  0  0  0  0  0  0  0
   26.7271  -24.8175  -17.2614 C   0  0  1  0  0  0  0  0  0  0  0  0
   25.6468  -25.8191  -17.0206 C   0  0  0  0  0  0  0  0  0  0  0  0
   25.5066  -26.6228  -18.3111 C   0  0  0  0  0  0  0  0  0  0  0  0
   25.0665  -25.7638  -19.4678 C   0  0  0  0  0  0  0  0  0  0  0  0
   24.9031  -26.5235  -20.7517 C   0  0  0  0  0  0  0  0  0  0  0  0
   24.4688  -25.5509  -21.7615 N   0  0  0  0  0  0  0  0  0  0  0  0
   26.7929  -23.7309  -16.2597 C   0  0  0  0  0  0  0  0  0  0  0  0
   27.3139  -23.8692  -15.1188 O   0  0  0  0  0  0  0  0  0  0  0  0
   29.6124  -17.4901  -18.9763 N   0  0  0  0  0  0  0  0  0  0  0  0
   29.0072  -16.9470  -17.7998 C   0  0  0  0  0  0  0  0  0  0  0  0
   29.1812  -15.7197  -17.4435 N   0  0  0  0  0  0  0  0  0  0  0  0
   28.1694  -17.7413  -16.9485 N   0  0  0  0  0  0  0  0  0  0  0  0
   28.1351  -19.1721  -17.0836 C   0  0  0  0  0  0  0  0  0  0  0  0
   26.7981  -19.7577  -17.3751 C   0  0  0  0  0  0  0  0  0  0  0  0
   25.9172  -20.0550  -16.2076 C   0  0  0  0  0  0  0  0  0  0  0  0
   26.0257  -21.3969  -15.6104 C   0  0  2  0  0  0  0  0  0  0  0  0
   26.2591  -22.4643  -16.5541 N   0  0  0  0  0  0  0  0  0  0  0  0
   24.9950  -21.7470  -14.6137 C   0  0  0  0  0  0  0  0  0  0  0  0
   24.5954  -22.9371  -14.5873 O   0  0  0  0  0  0  0  0  0  0  0  0
   28.7444  -15.4129  -16.5460 N   0  0  0  0  0  0  0  0  0  0  0  0
   24.4336  -20.8338  -13.6964 C   0  0  2  0  0  0  0  0  0  0  0  0
   24.1289  -21.1368  -12.3167 C   0  0  0  0  0  0  0  0  0  0  0  0
   25.3383  -21.5787  -11.5282 C   0  0  0  0  0  0  0  0  0  0  0  0
   25.9985  -20.4780  -10.8278 C   0  0  0  0  0  0  0  0  0  0  0  0
   26.5383  -19.3577  -11.4337 N   0  0  0  0  0  0  0  0  0  0  0  0
   27.0603  -18.5460  -10.5210 C   0  0  0  0  0  0  0  0  0  0  0  0
   26.8965  -19.0754   -9.2957 C   0  0  0  0  0  0  0  0  0  0  0  0
   27.2479  -18.6435   -8.0492 C   0  0  0  0  0  0  0  0  0  0  0  0
   26.9268  -19.4408   -6.9661 C   0  0  0  0  0  0  0  0  0  0  0  0
   26.2766  -20.6270   -7.1376 C   0  0  0  0  0  0  0  0  0  0  0  0
   25.9165  -21.0759   -8.3819 C   0  0  0  0  0  0  0  0  0  0  0  0
   26.2337  -20.2843   -9.4708 C   0  0  0  0  0  0  0  0  0  0  0  0
   23.4412  -19.9863  -11.6781 O   0  0  0  0  0  0  0  0  0  0  0  0
   22.7285  -20.2009  -10.6649 O   0  0  0  0  0  0  0  0  0  0  0  0
  2  1  1  1
  2  3  1  0
  3  4  1  0
  5  6  1  0
  5  4  1  0
  7  6  1  0
  8  2  1  0
  8  9  2  0
 10 11  1  0
 11 13  1  0
 12 11  2  0
 13 14  1  0
 14 15  1  0
 15 16  1  0
 17 16  1  6
 17 18  1  0
 18  8  1  0
 19 17  1  0
 19 21  1  0
 20 19  2  0
 22 21  1  0
 22 33  1  0
 22 23  1  6
 24 23  1  0
 24 25  2  0
 26 25  1  0
 27 32  2  0
 27 26  1  0
 28 27  1  0
 29 30  1  0
 29 28  2  0
 30 31  2  0
 31 32  1  0
 32 24  1  0
 33 34  2  0
 33 35  1  0
M  END
$$$$
