KRW.pdb
     RDKit          3D

 35 36  0  0  1  0  0  0  0  0999 V2000
   26.6481  -19.0429  -20.7529 N   0  0  0  0  0  0  0  0  0  0  0  0
   25.9302  -18.1562  -19.8612 C   0  0  1  0  0  0  0  0  0  0  0  0
   24.9641  -17.2950  -20.6049 C   0  0  0  0  0  0  0  0  0  0  0  0
   25.6824  -16.8323  -21.8703 C   0  0  0  0  0  0  0  0  0  0  0  0
   24.9514  -17.2482  -23.1202 C   0  0  0  0  0  0  0  0  0  0  0  0
   25.4973  -16.6234  -24.3708 C   0  0  0  0  0  0  0  0  0  0  0  0
   25.1416  -15.2004  -24.3176 N   0  0  0  0  0  0  0  0  0  0  0  0
   25.3194  -19.0013  -18.8119 C   0  0  0  0  0  0  0  0  0  0  0  0
   24.5604  -19.9779  -19.0616 O   0  0  0  0  0  0  0  0  0  0  0  0
   26.2522  -22.7590  -10.8594 N   0  0  0  0  0  0  0  0  0  0  0  0
   25.9379  -21.3832  -10.6269 C   0  0  0  0  0  0  0  0  0  0  0  0
   25.5737  -20.9496   -9.4680 N   0  0  0  0  0  0  0  0  0  0  0  0
   26.0117  -20.4062  -11.6745 N   0  0  0  0  0  0  0  0  0  0  0  0
   26.4922  -20.7678  -12.9802 C   0  0  0  0  0  0  0  0  0  0  0  0
   25.5346  -20.5529  -14.0992 C   0  0  0  0  0  0  0  0  0  0  0  0
   25.9915  -19.6910  -15.2287 C   0  0  0  0  0  0  0  0  0  0  0  0
   25.0390  -19.4677  -16.3296 C   0  0  2  0  0  0  0  0  0  0  0  0
   25.5719  -18.7365  -17.4546 N   0  0  0  0  0  0  0  0  0  0  0  0
   23.6975  -18.9926  -15.9385 C   0  0  0  0  0  0  0  0  0  0  0  0
   23.6067  -17.8269  -15.4804 O   0  0  0  0  0  0  0  0  0  0  0  0
   25.3229  -19.9390   -9.3897 N   0  0  0  0  0  0  0  0  0  0  0  0
   22.5195  -19.7618  -16.0448 C   0  0  1  0  0  0  0  0  0  0  0  0
   21.2075  -19.3171  -15.6337 C   0  0  0  0  0  0  0  0  0  0  0  0
   20.1849  -19.3902  -16.7422 C   0  0  0  0  0  0  0  0  0  0  0  0
   20.4631  -18.4647  -17.8395 C   0  0  0  0  0  0  0  0  0  0  0  0
   21.3328  -18.7091  -18.8870 N   0  0  0  0  0  0  0  0  0  0  0  0
   21.3579  -17.6725  -19.7173 C   0  0  0  0  0  0  0  0  0  0  0  0
   20.5268  -16.7138  -19.2717 C   0  0  0  0  0  0  0  0  0  0  0  0
   20.1995  -15.4791  -19.7536 C   0  0  0  0  0  0  0  0  0  0  0  0
   19.2886  -14.7198  -19.0423 C   0  0  0  0  0  0  0  0  0  0  0  0
   18.7318  -15.1910  -17.8903 C   0  0  0  0  0  0  0  0  0  0  0  0
   19.0492  -16.4282  -17.3922 C   0  0  0  0  0  0  0  0  0  0  0  0
   19.9593  -17.1943  -18.0976 C   0  0  0  0  0  0  0  0  0  0  0  0
   20.7688  -20.0603  -14.4254 O   0  0  0  0  0  0  0  0  0  0  0  0
   21.4934  -20.9960  -14.0010 O   0  0  0  0  0  0  0  0  0  0  0  0
  2  1  1  6
  2  3  1  0
  3  4  1  0
  5  6  1  0
  5  4  1  0
  7  6  1  0
  8  2  1  0
  8  9  2  0
 10 11  1  0
 11 13  1  0
 12 11  2  0
 13 14  1  0
 14 15  1  0
 15 16  1  0
 17 16  1  1
 17 18  1  0
 18  8  1  0
 19 17  1  0
 19 21  1  0
 20 19  2  0
 22 21  1  0
 22 33  1  0
 22 23  1  1
 24 23  1  0
 24 25  2  0
 26 25  1  0
 27 32  2  0
 27 26  1  0
 28 27  1  0
 29 30  1  0
 29 28  2  0
 30 31  2  0
 31 32  1  0
 32 24  1  0
 33 34  2  0
 33 35  1  0
M  END
$$$$
