KRW.pdb
     RDKit          3D

 35 36  0  0  1  0  0  0  0  0999 V2000
   23.3655  -23.1092  -15.7946 N   0  0  0  0  0  0  0  0  0  0  0  0
   23.6966  -24.2858  -15.0184 C   0  0  1  0  0  0  0  0  0  0  0  0
   23.9615  -25.4646  -15.8952 C   0  0  0  0  0  0  0  0  0  0  0  0
   22.8104  -25.5262  -16.8964 C   0  0  0  0  0  0  0  0  0  0  0  0
   21.5616  -26.1088  -16.2878 C   0  0  0  0  0  0  0  0  0  0  0  0
   20.4534  -26.3195  -17.2776 C   0  0  0  0  0  0  0  0  0  0  0  0
   19.3390  -26.9222  -16.5366 N   0  0  0  0  0  0  0  0  0  0  0  0
   24.8202  -23.9149  -14.1305 C   0  0  0  0  0  0  0  0  0  0  0  0
   25.4714  -24.7530  -13.4480 O   0  0  0  0  0  0  0  0  0  0  0  0
   31.3389  -21.8353  -13.0159 N   0  0  0  0  0  0  0  0  0  0  0  0
   30.8442  -21.4981  -14.3148 C   0  0  0  0  0  0  0  0  0  0  0  0
   31.1306  -22.1972  -15.3602 N   0  0  0  0  0  0  0  0  0  0  0  0
   29.9982  -20.3592  -14.5263 N   0  0  0  0  0  0  0  0  0  0  0  0
   29.3018  -19.7501  -13.4261 C   0  0  0  0  0  0  0  0  0  0  0  0
   28.2390  -20.5824  -12.7990 C   0  0  0  0  0  0  0  0  0  0  0  0
   27.2217  -21.1848  -13.7098 C   0  0  0  0  0  0  0  0  0  0  0  0
   26.1992  -22.0483  -13.0951 C   0  0  2  0  0  0  0  0  0  0  0  0
   25.2144  -22.5708  -14.0125 N   0  0  0  0  0  0  0  0  0  0  0  0
   25.5905  -21.5442  -11.8486 C   0  0  0  0  0  0  0  0  0  0  0  0
   24.6162  -20.7592  -11.9560 O   0  0  0  0  0  0  0  0  0  0  0  0
   30.7208  -21.8911  -16.2705 N   0  0  0  0  0  0  0  0  0  0  0  0
   26.0331  -21.8856  -10.5532 C   0  0  2  0  0  0  0  0  0  0  0  0
   25.4536  -21.3846   -9.3278 C   0  0  0  0  0  0  0  0  0  0  0  0
   26.3004  -21.6754   -8.1120 C   0  0  0  0  0  0  0  0  0  0  0  0
   26.8076  -20.4661   -7.4652 C   0  0  0  0  0  0  0  0  0  0  0  0
   26.6166  -19.1759   -7.9261 N   0  0  0  0  0  0  0  0  0  0  0  0
   27.1994  -18.3039   -7.1110 C   0  0  0  0  0  0  0  0  0  0  0  0
   27.7908  -18.9570   -6.0951 C   0  0  0  0  0  0  0  0  0  0  0  0
   28.5068  -18.5283   -5.0147 C   0  0  0  0  0  0  0  0  0  0  0  0
   28.9904  -19.4769   -4.1324 C   0  0  0  0  0  0  0  0  0  0  0  0
   28.7590  -20.8052   -4.3356 C   0  0  0  0  0  0  0  0  0  0  0  0
   28.0423  -21.2530   -5.4151 C   0  0  0  0  0  0  0  0  0  0  0  0
   27.5547  -20.3108   -6.3024 C   0  0  0  0  0  0  0  0  0  0  0  0
   25.1494  -19.9372   -9.4579 O   0  0  0  0  0  0  0  0  0  0  0  0
   25.9395  -19.2154  -10.1177 O   0  0  0  0  0  0  0  0  0  0  0  0
  2  1  1  6
  2  3  1  0
  3  4  1  0
  5  6  1  0
  5  4  1  0
  7  6  1  0
  8  2  1  0
  8  9  2  0
 10 11  1  0
 11 13  1  0
 12 11  2  0
 13 14  1  0
 14 15  1  0
 15 16  1  0
 17 16  1  6
 17 18  1  0
 18  8  1  0
 19 17  1  0
 19 21  1  0
 20 19  2  0
 22 21  1  0
 22 33  1  0
 22 23  1  1
 24 23  1  0
 24 25  2  0
 26 25  1  0
 27 32  2  0
 27 26  1  0
 28 27  1  0
 29 30  1  0
 29 28  2  0
 30 31  2  0
 31 32  1  0
 32 24  1  0
 33 34  2  0
 33 35  1  0
M  END
$$$$
