AAM.pdb
     RDKit          3D

 19 18  0  0  1  0  0  0  0  0999 V2000
   12.5295  -16.8183   19.8144 C   0  0  0  0  0  0  0  0  0  0  0  0
   11.1788  -17.2381   19.3207 C   0  0  2  0  0  0  0  0  0  0  0  0
   10.9319  -16.6116   18.0433 N   0  0  0  0  0  0  0  0  0  0  0  0
   10.1434  -16.8395   20.3219 C   0  0  0  0  0  0  0  0  0  0  0  0
    9.6982  -15.6639   20.3496 O   0  0  0  0  0  0  0  0  0  0  0  0
    7.8051  -18.6682   22.4902 C   0  0  0  0  0  0  0  0  0  0  0  0
    8.5226  -17.4062   22.1400 C   0  0  2  0  0  0  0  0  0  0  0  0
    9.6271  -17.7603   21.2706 N   0  0  0  0  0  0  0  0  0  0  0  0
    9.0248  -16.6856   23.3383 C   0  0  0  0  0  0  0  0  0  0  0  0
   10.2454  -16.6801   23.5549 O   0  0  0  0  0  0  0  0  0  0  0  0
    6.7232  -11.0933   26.8779 C   0  0  0  0  0  0  0  0  0  0  0  0
    6.0814  -12.2795   25.6742 S   0  0  0  0  0  0  0  0  0  0  0  0
    7.4739  -13.2657   25.0442 C   0  0  0  0  0  0  0  0  0  0  0  0
    7.8661  -14.3361   26.0564 C   0  0  0  0  0  0  0  0  0  0  0  0
    8.7303  -15.3653   25.3985 C   0  0  2  0  0  0  0  0  0  0  0  0
    8.2044  -16.0008   24.2569 N   0  0  0  0  0  0  0  0  0  0  0  0
    9.2870  -16.3072   26.3945 C   0  0  0  0  0  0  0  0  0  0  0  0
   10.1218  -15.8478   27.3750 O   0  0  0  0  0  0  0  0  0  0  0  0
    8.9876  -17.5075   26.3277 O   0  0  0  0  0  0  0  0  0  0  0  0
  2  3  1  0
  2  1  1  1
  4  2  1  0
  5  4  2  0
  7  6  1  1
  7  9  1  0
  7  8  1  0
  8  4  1  0
  9 10  2  0
 11 12  1  0
 12 13  1  0
 14 13  1  0
 15 14  1  1
 16 15  1  0
 16  9  1  0
 17 18  1  0
 17 15  1  0
 19 17  2  0
M  END
$$$$
