AAM.pdb
     RDKit          3D

 19 18  0  0  1  0  0  0  0  0999 V2000
    6.2591  -18.8537   19.4474 C   0  0  0  0  0  0  0  0  0  0  0  0
    6.4298  -18.3507   20.8483 C   0  0  2  0  0  0  0  0  0  0  0  0
    5.1604  -17.8550   21.3257 N   0  0  0  0  0  0  0  0  0  0  0  0
    7.4650  -17.2730   20.8611 C   0  0  0  0  0  0  0  0  0  0  0  0
    8.6844  -17.5547   20.7403 O   0  0  0  0  0  0  0  0  0  0  0  0
    7.4503  -13.6426   20.3733 C   0  0  0  0  0  0  0  0  0  0  0  0
    8.1193  -14.8601   20.9210 C   0  0  2  0  0  0  0  0  0  0  0  0
    7.1182  -15.9047   21.0087 N   0  0  0  0  0  0  0  0  0  0  0  0
    8.7302  -14.6228   22.2544 C   0  0  0  0  0  0  0  0  0  0  0  0
    9.6584  -13.8056   22.3410 O   0  0  0  0  0  0  0  0  0  0  0  0
    6.5290  -11.4886   27.2352 C   0  0  0  0  0  0  0  0  0  0  0  0
    5.7711  -12.9664   26.5210 S   0  0  0  0  0  0  0  0  0  0  0  0
    6.8551  -13.5822   25.1967 C   0  0  0  0  0  0  0  0  0  0  0  0
    7.8971  -14.5383   25.7662 C   0  0  0  0  0  0  0  0  0  0  0  0
    8.8676  -14.9284   24.6961 C   0  0  2  0  0  0  0  0  0  0  0  0
    8.3266  -15.2674   23.4407 N   0  0  0  0  0  0  0  0  0  0  0  0
    9.8484  -15.9140   25.2018 C   0  0  0  0  0  0  0  0  0  0  0  0
   10.5892  -15.6290   26.3150 O   0  0  0  0  0  0  0  0  0  0  0  0
    9.9867  -16.9919   24.6069 O   0  0  0  0  0  0  0  0  0  0  0  0
  2  3  1  0
  2  1  1  6
  4  2  1  0
  5  4  2  0
  7  6  1  1
  7  9  1  0
  7  8  1  0
  8  4  1  0
  9 10  2  0
 11 12  1  0
 12 13  1  0
 14 13  1  0
 15 14  1  1
 16 15  1  0
 16  9  1  0
 17 18  1  0
 17 15  1  0
 19 17  2  0
M  END
$$$$
