AAM.pdb
     RDKit          3D

 19 18  0  0  1  0  0  0  0  0999 V2000
    9.3092  -18.3608   18.0855 C   0  0  0  0  0  0  0  0  0  0  0  0
    9.3072  -18.3193   19.5831 C   0  0  2  0  0  0  0  0  0  0  0  0
    8.2233  -19.1381   20.0727 N   0  0  0  0  0  0  0  0  0  0  0  0
    9.1557  -16.9031   20.0357 C   0  0  0  0  0  0  0  0  0  0  0  0
   10.0634  -16.0607   19.8184 O   0  0  0  0  0  0  0  0  0  0  0  0
    6.6944  -14.4730   20.7555 C   0  0  0  0  0  0  0  0  0  0  0  0
    7.9236  -15.1278   21.2941 C   0  0  2  0  0  0  0  0  0  0  0  0
    7.9955  -16.4572   20.7208 N   0  0  0  0  0  0  0  0  0  0  0  0
    7.9217  -15.2092   22.7777 C   0  0  0  0  0  0  0  0  0  0  0  0
    7.0941  -15.9513   23.3267 O   0  0  0  0  0  0  0  0  0  0  0  0
    6.1846  -10.4888   26.9232 C   0  0  0  0  0  0  0  0  0  0  0  0
    6.8107  -12.1702   27.1443 S   0  0  0  0  0  0  0  0  0  0  0  0
    6.9517  -12.9483   25.5064 C   0  0  0  0  0  0  0  0  0  0  0  0
    7.3914  -14.4014   25.6459 C   0  0  0  0  0  0  0  0  0  0  0  0
    8.7372  -14.5876   25.0188 C   0  0  2  0  0  0  0  0  0  0  0  0
    8.8021  -14.4953   23.6149 N   0  0  0  0  0  0  0  0  0  0  0  0
    9.4165  -15.7837   25.5638 C   0  0  0  0  0  0  0  0  0  0  0  0
    9.8742  -16.7534   24.7156 O   0  0  0  0  0  0  0  0  0  0  0  0
    9.5635  -15.8921   26.7891 O   0  0  0  0  0  0  0  0  0  0  0  0
  2  3  1  0
  2  1  1  6
  4  2  1  0
  5  4  2  0
  7  6  1  6
  7  9  1  0
  7  8  1  0
  8  4  1  0
  9 10  2  0
 11 12  1  0
 12 13  1  0
 14 13  1  0
 15 14  1  6
 16 15  1  0
 16  9  1  0
 17 18  1  0
 17 15  1  0
 19 17  2  0
M  END
$$$$
