AAM.pdb
     RDKit          3D

 19 18  0  0  1  0  0  0  0  0999 V2000
    9.8680  -19.3334   20.7039 C   0  0  0  0  0  0  0  0  0  0  0  0
    9.4609  -18.3592   19.6410 C   0  0  2  0  0  0  0  0  0  0  0  0
   10.4955  -18.3042   18.6352 N   0  0  0  0  0  0  0  0  0  0  0  0
    9.2445  -17.0168   20.2610 C   0  0  0  0  0  0  0  0  0  0  0  0
   10.2220  -16.3121   20.6200 O   0  0  0  0  0  0  0  0  0  0  0  0
    6.2925  -15.0100   21.3148 C   0  0  0  0  0  0  0  0  0  0  0  0
    7.7465  -15.1595   21.0095 C   0  0  2  0  0  0  0  0  0  0  0  0
    7.9431  -16.4894   20.4675 N   0  0  0  0  0  0  0  0  0  0  0  0
    8.6030  -14.9629   22.2076 C   0  0  0  0  0  0  0  0  0  0  0  0
    9.4698  -14.0772   22.1741 O   0  0  0  0  0  0  0  0  0  0  0  0
    6.6408  -11.2924   28.0288 C   0  0  0  0  0  0  0  0  0  0  0  0
    6.3358  -12.0738   26.4274 S   0  0  0  0  0  0  0  0  0  0  0  0
    7.4640  -13.4903   26.2577 C   0  0  0  0  0  0  0  0  0  0  0  0
    7.3532  -14.0919   24.8613 C   0  0  0  0  0  0  0  0  0  0  0  0
    8.4280  -15.1135   24.6613 C   0  0  2  0  0  0  0  0  0  0  0  0
    8.5003  -15.7195   23.3919 N   0  0  0  0  0  0  0  0  0  0  0  0
    8.4559  -16.0816   25.7799 C   0  0  0  0  0  0  0  0  0  0  0  0
    7.9624  -17.3440   25.6012 O   0  0  0  0  0  0  0  0  0  0  0  0
    8.9293  -15.7343   26.8708 O   0  0  0  0  0  0  0  0  0  0  0  0
  2  3  1  0
  2  1  1  1
  4  2  1  0
  5  4  2  0
  7  6  1  1
  7  9  1  0
  7  8  1  0
  8  4  1  0
  9 10  2  0
 11 12  1  0
 12 13  1  0
 14 13  1  0
 15 14  1  6
 16 15  1  0
 16  9  1  0
 17 18  1  0
 17 15  1  0
 19 17  2  0
M  END
$$$$
