AAM.pdb
     RDKit          3D

 19 18  0  0  1  0  0  0  0  0999 V2000
    7.9651  -13.1354   19.6792 C   0  0  0  0  0  0  0  0  0  0  0  0
    8.1564  -14.5707   19.2947 C   0  0  2  0  0  0  0  0  0  0  0  0
    6.9570  -15.0454   18.6459 N   0  0  0  0  0  0  0  0  0  0  0  0
    8.4560  -15.3724   20.5198 C   0  0  0  0  0  0  0  0  0  0  0  0
    7.5452  -15.6539   21.3396 O   0  0  0  0  0  0  0  0  0  0  0  0
   11.3821  -17.2631   21.8027 C   0  0  0  0  0  0  0  0  0  0  0  0
   10.0399  -16.6349   21.9865 C   0  0  2  0  0  0  0  0  0  0  0  0
    9.7646  -15.8424   20.8044 N   0  0  0  0  0  0  0  0  0  0  0  0
    9.9717  -15.7828   23.2017 C   0  0  0  0  0  0  0  0  0  0  0  0
   10.2822  -14.5868   23.1017 O   0  0  0  0  0  0  0  0  0  0  0  0
    6.2916  -11.4843   27.8484 C   0  0  0  0  0  0  0  0  0  0  0  0
    6.4202  -12.5457   26.3907 S   0  0  0  0  0  0  0  0  0  0  0  0
    7.8619  -13.6345   26.6010 C   0  0  0  0  0  0  0  0  0  0  0  0
    8.0697  -14.4859   25.3535 C   0  0  0  0  0  0  0  0  0  0  0  0
    9.2749  -15.3556   25.5268 C   0  0  2  0  0  0  0  0  0  0  0  0
    9.5758  -16.2414   24.4739 N   0  0  0  0  0  0  0  0  0  0  0  0
    9.2787  -15.9993   26.8590 C   0  0  0  0  0  0  0  0  0  0  0  0
    9.5067  -15.2482   27.9784 O   0  0  0  0  0  0  0  0  0  0  0  0
    9.0735  -17.2181   26.9442 O   0  0  0  0  0  0  0  0  0  0  0  0
  2  3  1  0
  2  1  1  1
  4  2  1  0
  5  4  2  0
  7  6  1  6
  7  9  1  0
  7  8  1  0
  8  4  1  0
  9 10  2  0
 11 12  1  0
 12 13  1  0
 14 13  1  0
 15 14  1  6
 16 15  1  0
 16  9  1  0
 17 18  1  0
 17 15  1  0
 19 17  2  0
M  END
$$$$
