AAM.pdb
     RDKit          3D

 19 18  0  0  1  0  0  0  0  0999 V2000
    8.3990  -12.3583   19.1372 C   0  0  0  0  0  0  0  0  0  0  0  0
    8.5705  -13.7673   18.6578 C   0  0  2  0  0  0  0  0  0  0  0  0
    7.5910  -14.0349   17.6311 N   0  0  0  0  0  0  0  0  0  0  0  0
    8.4065  -14.7029   19.8116 C   0  0  0  0  0  0  0  0  0  0  0  0
    7.2969  -14.8153   20.3922 O   0  0  0  0  0  0  0  0  0  0  0  0
   10.3453  -17.4744   21.2726 C   0  0  0  0  0  0  0  0  0  0  0  0
    9.3086  -16.4076   21.4033 C   0  0  2  0  0  0  0  0  0  0  0  0
    9.4832  -15.4924   20.2929 N   0  0  0  0  0  0  0  0  0  0  0  0
    9.4057  -15.6741   22.6918 C   0  0  0  0  0  0  0  0  0  0  0  0
   10.2396  -14.7620   22.7898 O   0  0  0  0  0  0  0  0  0  0  0  0
    6.6107  -11.1605   28.0529 C   0  0  0  0  0  0  0  0  0  0  0  0
    6.2621  -12.2143   26.6259 S   0  0  0  0  0  0  0  0  0  0  0  0
    7.6559  -13.3624   26.4083 C   0  0  0  0  0  0  0  0  0  0  0  0
    7.4526  -14.2121   25.1589 C   0  0  0  0  0  0  0  0  0  0  0  0
    8.6280  -15.1172   24.9631 C   0  0  2  0  0  0  0  0  0  0  0  0
    8.6101  -15.9440   23.8231 N   0  0  0  0  0  0  0  0  0  0  0  0
    8.9556  -15.8404   26.2117 C   0  0  0  0  0  0  0  0  0  0  0  0
    9.4491  -15.1552   27.2869 O   0  0  0  0  0  0  0  0  0  0  0  0
    8.7772  -17.0651   26.2678 O   0  0  0  0  0  0  0  0  0  0  0  0
  2  3  1  0
  2  1  1  1
  4  2  1  0
  5  4  2  0
  7  6  1  1
  7  9  1  0
  7  8  1  0
  8  4  1  0
  9 10  2  0
 11 12  1  0
 12 13  1  0
 14 13  1  0
 15 14  1  1
 16 15  1  0
 16  9  1  0
 17 18  1  0
 17 15  1  0
 19 17  2  0
M  END
$$$$
