AAM.pdb
     RDKit          3D

 19 18  0  0  1  0  0  0  0  0999 V2000
    8.1159  -19.4958   19.3578 C   0  0  0  0  0  0  0  0  0  0  0  0
    8.3466  -19.0411   20.7665 C   0  0  2  0  0  0  0  0  0  0  0  0
    7.1847  -19.3667   21.5597 N   0  0  0  0  0  0  0  0  0  0  0  0
    8.6040  -17.5691   20.7722 C   0  0  0  0  0  0  0  0  0  0  0  0
    9.6187  -17.0941   20.2017 O   0  0  0  0  0  0  0  0  0  0  0  0
    6.5325  -14.6120   21.2675 C   0  0  0  0  0  0  0  0  0  0  0  0
    7.8939  -15.2255   21.2791 C   0  0  2  0  0  0  0  0  0  0  0  0
    7.7245  -16.6587   21.4142 N   0  0  0  0  0  0  0  0  0  0  0  0
    8.7438  -14.7041   22.3806 C   0  0  0  0  0  0  0  0  0  0  0  0
    9.0545  -13.5040   22.3685 O   0  0  0  0  0  0  0  0  0  0  0  0
    6.4835  -11.0415   27.1865 C   0  0  0  0  0  0  0  0  0  0  0  0
    6.3056  -12.7624   26.6621 S   0  0  0  0  0  0  0  0  0  0  0  0
    7.7082  -13.1794   25.5819 C   0  0  0  0  0  0  0  0  0  0  0  0
    7.5818  -14.6129   25.0785 C   0  0  0  0  0  0  0  0  0  0  0  0
    8.9396  -15.1726   24.7923 C   0  0  2  0  0  0  0  0  0  0  0  0
    9.2282  -15.4843   23.4495 N   0  0  0  0  0  0  0  0  0  0  0  0
    9.2753  -16.2615   25.7362 C   0  0  0  0  0  0  0  0  0  0  0  0
    9.9662  -15.9813   26.8823 O   0  0  0  0  0  0  0  0  0  0  0  0
    8.9237  -17.4203   25.4750 O   0  0  0  0  0  0  0  0  0  0  0  0
  2  3  1  0
  2  1  1  6
  4  2  1  0
  5  4  2  0
  7  6  1  1
  7  9  1  0
  7  8  1  0
  8  4  1  0
  9 10  2  0
 11 12  1  0
 12 13  1  0
 14 13  1  0
 15 14  1  6
 16 15  1  0
 16  9  1  0
 17 18  1  0
 17 15  1  0
 19 17  2  0
M  END
$$$$
