ECR.pdb
     RDKit          3D

 27 26  0  0  1  0  0  0  0  0999 V2000
   24.6085  -21.5881  -16.8999 N   0  0  0  0  0  0  0  0  0  0  0  0
   25.0010  -22.2264  -15.6408 C   0  0  1  0  0  0  0  0  0  0  0  0
   26.4667  -21.9966  -15.3915 C   0  0  0  0  0  0  0  0  0  0  0  0
   27.2640  -22.0105  -16.6572 C   0  0  0  0  0  0  0  0  0  0  0  0
   28.6893  -21.6415  -16.4138 C   0  0  0  0  0  0  0  0  0  0  0  0
   29.3748  -22.2800  -15.5969 O   0  0  0  0  0  0  0  0  0  0  0  0
   24.1011  -21.8626  -14.5480 C   0  0  0  0  0  0  0  0  0  0  0  0
   24.5614  -21.7673  -13.3802 O   0  0  0  0  0  0  0  0  0  0  0  0
   29.2349  -20.5871  -17.1036 O   0  0  0  0  0  0  0  0  0  0  0  0
   22.7037  -21.6060  -14.7414 N   0  0  0  0  0  0  0  0  0  0  0  0
   21.8841  -21.3154  -13.6216 C   0  0  1  0  0  0  0  0  0  0  0  0
   21.9153  -19.8112  -13.3973 C   0  0  0  0  0  0  0  0  0  0  0  0
   21.2283  -18.9660  -14.8482 S   0  0  0  0  0  0  0  0  0  0  0  0
   20.4555  -21.6860  -13.8244 C   0  0  0  0  0  0  0  0  0  0  0  0
   19.9218  -21.6766  -14.9657 O   0  0  0  0  0  0  0  0  0  0  0  0
   17.1303  -26.0921   -7.6161 N   0  0  0  0  0  0  0  0  0  0  0  0
   18.1325  -25.1065   -7.8271 C   0  0  0  0  0  0  0  0  0  0  0  0
   18.8187  -24.6377   -6.8426 N   0  0  0  0  0  0  0  0  0  0  0  0
   18.4040  -24.6101   -9.1374 N   0  0  0  0  0  0  0  0  0  0  0  0
   17.8435  -25.2107  -10.3113 C   0  0  0  0  0  0  0  0  0  0  0  0
   18.4531  -24.5188  -11.5377 C   0  0  0  0  0  0  0  0  0  0  0  0
   17.7551  -23.2008  -11.6893 C   0  0  0  0  0  0  0  0  0  0  0  0
   18.2313  -22.4275  -12.8983 C   0  0  2  0  0  0  0  0  0  0  0  0
   19.6250  -22.0687  -12.7353 N   0  0  0  0  0  0  0  0  0  0  0  0
   17.4261  -21.2191  -13.1448 C   0  0  0  0  0  0  0  0  0  0  0  0
   17.8127  -20.1240  -12.6696 O   0  0  0  0  0  0  0  0  0  0  0  0
   16.2533  -21.2248  -13.8802 O   0  0  0  0  0  0  0  0  0  0  0  0
  2  1  1  6
  2  3  1  0
  4  3  1  0
  5  4  1  0
  5  6  2  0
  7  2  1  0
  8  7  2  0
  9  5  1  0
 10  7  1  0
 11 12  1  6
 11 10  1  0
 12 13  1  0
 14 11  1  0
 14 15  2  0
 16 17  1  0
 17 18  2  0
 19 17  1  0
 20 19  1  0
 21 22  1  0
 21 20  1  0
 23 22  1  1
 23 24  1  0
 24 14  1  0
 25 23  1  0
 25 27  1  0
 26 25  2  0
M  END
$$$$
