ECR.pdb
     RDKit          3D

 27 26  0  0  1  0  0  0  0  0999 V2000
   28.1559  -20.2376  -14.5421 N   0  0  0  0  0  0  0  0  0  0  0  0
   27.0238  -21.1513  -14.7156 C   0  0  1  0  0  0  0  0  0  0  0  0
   27.4635  -22.3607  -15.4948 C   0  0  0  0  0  0  0  0  0  0  0  0
   27.9895  -22.0003  -16.8481 C   0  0  0  0  0  0  0  0  0  0  0  0
   26.9973  -21.2067  -17.6308 C   0  0  0  0  0  0  0  0  0  0  0  0
   27.0827  -19.9679  -17.6841 O   0  0  0  0  0  0  0  0  0  0  0  0
   26.3465  -21.4179  -13.4482 C   0  0  0  0  0  0  0  0  0  0  0  0
   25.3459  -22.1817  -13.4361 O   0  0  0  0  0  0  0  0  0  0  0  0
   25.9880  -21.8621  -18.2918 O   0  0  0  0  0  0  0  0  0  0  0  0
   26.7692  -20.8464  -12.2029 N   0  0  0  0  0  0  0  0  0  0  0  0
   25.9786  -21.0363  -11.0416 C   0  0  1  0  0  0  0  0  0  0  0  0
   26.8222  -20.6561   -9.8343 C   0  0  0  0  0  0  0  0  0  0  0  0
   28.4408  -21.4684   -9.9439 S   0  0  0  0  0  0  0  0  0  0  0  0
   24.7674  -20.1695  -11.0045 C   0  0  0  0  0  0  0  0  0  0  0  0
   24.8300  -18.9301  -11.2219 O   0  0  0  0  0  0  0  0  0  0  0  0
   22.3309  -18.4280  -16.9106 N   0  0  0  0  0  0  0  0  0  0  0  0
   20.9701  -18.8307  -16.8304 C   0  0  0  0  0  0  0  0  0  0  0  0
   20.0571  -18.2185  -17.5022 N   0  0  0  0  0  0  0  0  0  0  0  0
   20.5803  -19.9253  -16.0016 N   0  0  0  0  0  0  0  0  0  0  0  0
   21.5140  -20.6172  -15.1636 C   0  0  0  0  0  0  0  0  0  0  0  0
   21.2370  -20.2155  -13.7088 C   0  0  0  0  0  0  0  0  0  0  0  0
   22.4369  -20.6204  -12.9065 C   0  0  0  0  0  0  0  0  0  0  0  0
   22.2873  -20.2995  -11.4365 C   0  0  2  0  0  0  0  0  0  0  0  0
   23.4801  -20.7029  -10.7208 N   0  0  0  0  0  0  0  0  0  0  0  0
   21.1020  -20.9389  -10.8399 C   0  0  0  0  0  0  0  0  0  0  0  0
   19.9625  -20.5131  -11.1475 O   0  0  0  0  0  0  0  0  0  0  0  0
   21.1768  -21.9956   -9.9488 O   0  0  0  0  0  0  0  0  0  0  0  0
  2  1  1  1
  2  3  1  0
  4  3  1  0
  5  4  1  0
  5  6  2  0
  7  2  1  0
  8  7  2  0
  9  5  1  0
 10  7  1  0
 11 12  1  1
 11 10  1  0
 12 13  1  0
 14 11  1  0
 14 15  2  0
 16 17  1  0
 17 18  2  0
 19 17  1  0
 20 19  1  0
 21 22  1  0
 21 20  1  0
 23 22  1  6
 23 24  1  0
 24 14  1  0
 25 23  1  0
 25 27  1  0
 26 25  2  0
M  END
$$$$
