ECR.pdb
     RDKit          3D

 27 26  0  0  1  0  0  0  0  0999 V2000
   23.1868  -17.5997  -19.1136 N   0  0  0  0  0  0  0  0  0  0  0  0
   24.4948  -17.0789  -19.5195 C   0  0  1  0  0  0  0  0  0  0  0  0
   24.3097  -15.8585  -20.3795 C   0  0  0  0  0  0  0  0  0  0  0  0
   25.0922  -15.9401  -21.6519 C   0  0  0  0  0  0  0  0  0  0  0  0
   25.1550  -14.6199  -22.3449 C   0  0  0  0  0  0  0  0  0  0  0  0
   26.0190  -13.7837  -22.0302 O   0  0  0  0  0  0  0  0  0  0  0  0
   25.3931  -16.9264  -18.3767 C   0  0  0  0  0  0  0  0  0  0  0  0
   26.2377  -15.9928  -18.3806 O   0  0  0  0  0  0  0  0  0  0  0  0
   24.2461  -14.3399  -23.3352 O   0  0  0  0  0  0  0  0  0  0  0  0
   25.3606  -17.7969  -17.2379 N   0  0  0  0  0  0  0  0  0  0  0  0
   26.1976  -17.5262  -16.1260 C   0  0  1  0  0  0  0  0  0  0  0  0
   25.8640  -16.1317  -15.6183 C   0  0  0  0  0  0  0  0  0  0  0  0
   26.6536  -15.8667  -14.0065 S   0  0  0  0  0  0  0  0  0  0  0  0
   25.9810  -18.4581  -14.9840 C   0  0  0  0  0  0  0  0  0  0  0  0
   24.8555  -18.5819  -14.4313 O   0  0  0  0  0  0  0  0  0  0  0  0
   23.4354  -19.7326   -7.7682 N   0  0  0  0  0  0  0  0  0  0  0  0
   23.9684  -21.0261   -8.0188 C   0  0  0  0  0  0  0  0  0  0  0  0
   23.8312  -21.9771   -7.1604 N   0  0  0  0  0  0  0  0  0  0  0  0
   24.6707  -21.3046   -9.2296 N   0  0  0  0  0  0  0  0  0  0  0  0
   24.9447  -20.2891  -10.2026 C   0  0  0  0  0  0  0  0  0  0  0  0
   25.7763  -20.9193  -11.3276 C   0  0  0  0  0  0  0  0  0  0  0  0
   26.0490  -19.8378  -12.3293 C   0  0  0  0  0  0  0  0  0  0  0  0
   26.8180  -20.3399  -13.5305 C   0  0  2  0  0  0  0  0  0  0  0  0
   27.0382  -19.2538  -14.4631 N   0  0  0  0  0  0  0  0  0  0  0  0
   26.1349  -21.4547  -14.2088 C   0  0  0  0  0  0  0  0  0  0  0  0
   25.0072  -21.2546  -14.7213 O   0  0  0  0  0  0  0  0  0  0  0  0
   26.6744  -22.7253  -14.3132 O   0  0  0  0  0  0  0  0  0  0  0  0
  2  1  1  1
  2  3  1  0
  4  3  1  0
  5  4  1  0
  5  6  2  0
  7  2  1  0
  8  7  2  0
  9  5  1  0
 10  7  1  0
 11 12  1  1
 11 10  1  0
 12 13  1  0
 14 11  1  0
 14 15  2  0
 16 17  1  0
 17 18  2  0
 19 17  1  0
 20 19  1  0
 21 22  1  0
 21 20  1  0
 23 22  1  1
 23 24  1  0
 24 14  1  0
 25 23  1  0
 25 27  1  0
 26 25  2  0
M  END
$$$$
