ECR.pdb
     RDKit          3D

 27 26  0  0  1  0  0  0  0  0999 V2000
   26.1257  -21.1936  -10.9587 N   0  0  0  0  0  0  0  0  0  0  0  0
   25.2195  -20.9362  -12.0809 C   0  0  1  0  0  0  0  0  0  0  0  0
   23.8290  -20.6885  -11.5629 C   0  0  0  0  0  0  0  0  0  0  0  0
   23.0801  -21.9613  -11.3239 C   0  0  0  0  0  0  0  0  0  0  0  0
   22.6273  -22.5819  -12.6032 C   0  0  0  0  0  0  0  0  0  0  0  0
   23.1743  -23.6124  -13.0318 O   0  0  0  0  0  0  0  0  0  0  0  0
   25.7557  -19.9212  -12.9856 C   0  0  0  0  0  0  0  0  0  0  0  0
   26.0265  -18.7779  -12.5336 O   0  0  0  0  0  0  0  0  0  0  0  0
   21.5982  -22.0003  -13.3018 O   0  0  0  0  0  0  0  0  0  0  0  0
   25.9917  -20.1649  -14.3787 N   0  0  0  0  0  0  0  0  0  0  0  0
   26.4093  -19.0988  -15.2148 C   0  0  1  0  0  0  0  0  0  0  0  0
   27.8373  -19.3821  -15.6556 C   0  0  0  0  0  0  0  0  0  0  0  0
   28.7881  -20.0333  -14.2543 S   0  0  0  0  0  0  0  0  0  0  0  0
   25.5975  -18.9711  -16.4574 C   0  0  0  0  0  0  0  0  0  0  0  0
   25.3084  -19.9703  -17.1683 O   0  0  0  0  0  0  0  0  0  0  0  0
   18.4959  -18.1496  -14.7452 N   0  0  0  0  0  0  0  0  0  0  0  0
   18.8471  -19.2827  -15.5281 C   0  0  0  0  0  0  0  0  0  0  0  0
   18.1531  -20.3668  -15.4735 N   0  0  0  0  0  0  0  0  0  0  0  0
   19.9797  -19.2481  -16.3957 N   0  0  0  0  0  0  0  0  0  0  0  0
   20.8782  -18.1327  -16.4321 C   0  0  0  0  0  0  0  0  0  0  0  0
   21.9057  -18.3846  -17.5435 C   0  0  0  0  0  0  0  0  0  0  0  0
   22.8327  -17.2066  -17.5584 C   0  0  0  0  0  0  0  0  0  0  0  0
   24.2216  -17.5670  -18.0354 C   0  0  2  0  0  0  0  0  0  0  0  0
   25.1099  -17.7109  -16.9004 N   0  0  0  0  0  0  0  0  0  0  0  0
   24.7665  -16.5752  -18.9783 C   0  0  0  0  0  0  0  0  0  0  0  0
   25.4401  -15.6164  -18.5295 O   0  0  0  0  0  0  0  0  0  0  0  0
   24.5743  -16.6434  -20.3474 O   0  0  0  0  0  0  0  0  0  0  0  0
  2  1  1  1
  2  3  1  0
  4  3  1  0
  5  4  1  0
  5  6  2  0
  7  2  1  0
  8  7  2  0
  9  5  1  0
 10  7  1  0
 11 12  1  6
 11 10  1  0
 12 13  1  0
 14 11  1  0
 14 15  2  0
 16 17  1  0
 17 18  2  0
 19 17  1  0
 20 19  1  0
 21 22  1  0
 21 20  1  0
 23 22  1  1
 23 24  1  0
 24 14  1  0
 25 23  1  0
 25 27  1  0
 26 25  2  0
M  END
$$$$
