ECR.pdb
     RDKit          3D

 27 26  0  0  1  0  0  0  0  0999 V2000
   18.7641  -11.3678  -14.9870 N   0  0  0  0  0  0  0  0  0  0  0  0
   18.3862   -9.9529  -15.0313 C   0  0  1  0  0  0  0  0  0  0  0  0
   16.9646   -9.8227  -15.5060 C   0  0  0  0  0  0  0  0  0  0  0  0
   16.8839   -9.4355  -16.9487 C   0  0  0  0  0  0  0  0  0  0  0  0
   17.0445   -7.9634  -17.1332 C   0  0  0  0  0  0  0  0  0  0  0  0
   18.0780   -7.3894  -16.7496 O   0  0  0  0  0  0  0  0  0  0  0  0
   18.7085   -9.2690  -13.7804 C   0  0  0  0  0  0  0  0  0  0  0  0
   18.3958   -9.8097  -12.6874 O   0  0  0  0  0  0  0  0  0  0  0  0
   16.0359   -7.2500  -17.7324 O   0  0  0  0  0  0  0  0  0  0  0  0
   19.3706   -7.9980  -13.7349 N   0  0  0  0  0  0  0  0  0  0  0  0
   19.6632   -7.4059  -12.4804 C   0  0  1  0  0  0  0  0  0  0  0  0
   20.8815   -6.5125  -12.6579 C   0  0  0  0  0  0  0  0  0  0  0  0
   21.2928   -5.7245  -11.0763 S   0  0  0  0  0  0  0  0  0  0  0  0
   18.5677   -6.5352  -11.9692 C   0  0  0  0  0  0  0  0  0  0  0  0
   18.0123   -5.6694  -12.6968 O   0  0  0  0  0  0  0  0  0  0  0  0
   11.9147   -8.5918   -6.9214 N   0  0  0  0  0  0  0  0  0  0  0  0
   12.7111   -8.8072   -8.0788 C   0  0  0  0  0  0  0  0  0  0  0  0
   12.6659   -9.9263   -8.7155 N   0  0  0  0  0  0  0  0  0  0  0  0
   13.5830   -7.7874   -8.5654 N   0  0  0  0  0  0  0  0  0  0  0  0
   14.2384   -6.8627   -7.6888 C   0  0  0  0  0  0  0  0  0  0  0  0
   15.0494   -5.8843   -8.5486 C   0  0  0  0  0  0  0  0  0  0  0  0
   16.1947   -6.6575   -9.1300 C   0  0  0  0  0  0  0  0  0  0  0  0
   16.9999   -5.8459  -10.1196 C   0  0  2  0  0  0  0  0  0  0  0  0
   18.0965   -6.6415  -10.6318 N   0  0  0  0  0  0  0  0  0  0  0  0
   17.5153   -4.5966   -9.5336 C   0  0  0  0  0  0  0  0  0  0  0  0
   16.6997   -3.7237   -9.1501 O   0  0  0  0  0  0  0  0  0  0  0  0
   18.8650   -4.3296   -9.3809 O   0  0  0  0  0  0  0  0  0  0  0  0
  2  1  1  1
  2  3  1  0
  4  3  1  0
  5  4  1  0
  5  6  2  0
  7  2  1  0
  8  7  2  0
  9  5  1  0
 10  7  1  0
 11 12  1  6
 11 10  1  0
 12 13  1  0
 14 11  1  0
 14 15  2  0
 16 17  1  0
 17 18  2  0
 19 17  1  0
 20 19  1  0
 21 22  1  0
 21 20  1  0
 23 22  1  1
 23 24  1  0
 24 14  1  0
 25 23  1  0
 25 27  1  0
 26 25  2  0
M  END
$$$$
