ECR.pdb
     RDKit          3D

 27 26  0  0  1  0  0  0  0  0999 V2000
   22.7935  -10.4234  -15.4494 N   0  0  0  0  0  0  0  0  0  0  0  0
   22.8468   -9.5121  -16.5954 C   0  0  1  0  0  0  0  0  0  0  0  0
   22.4114   -8.1365  -16.1696 C   0  0  0  0  0  0  0  0  0  0  0  0
   21.0408   -8.1381  -15.5701 C   0  0  0  0  0  0  0  0  0  0  0  0
   21.0825   -7.8805  -14.1008 C   0  0  0  0  0  0  0  0  0  0  0  0
   22.1660   -7.6739  -13.5279 O   0  0  0  0  0  0  0  0  0  0  0  0
   24.1313   -9.5910  -17.2882 C   0  0  0  0  0  0  0  0  0  0  0  0
   24.3483   -8.8295  -18.2670 O   0  0  0  0  0  0  0  0  0  0  0  0
   19.9086   -7.8746  -13.3887 O   0  0  0  0  0  0  0  0  0  0  0  0
   25.1692  -10.5029  -16.9049 N   0  0  0  0  0  0  0  0  0  0  0  0
   26.3792  -10.5364  -17.6430 C   0  0  1  0  0  0  0  0  0  0  0  0
   27.4868  -10.9911  -16.7048 C   0  0  0  0  0  0  0  0  0  0  0  0
   27.5657   -9.8787  -15.2737 S   0  0  0  0  0  0  0  0  0  0  0  0
   26.3538  -11.5066  -18.7734 C   0  0  0  0  0  0  0  0  0  0  0  0
   25.8894  -12.6703  -18.6403 O   0  0  0  0  0  0  0  0  0  0  0  0
   20.5501  -13.8864  -23.3546 N   0  0  0  0  0  0  0  0  0  0  0  0
   21.6333  -14.3229  -24.1648 C   0  0  0  0  0  0  0  0  0  0  0  0
   21.4282  -15.0394  -25.2157 N   0  0  0  0  0  0  0  0  0  0  0  0
   22.9781  -13.9782  -23.8335 N   0  0  0  0  0  0  0  0  0  0  0  0
   23.3041  -13.2188  -22.6631 C   0  0  0  0  0  0  0  0  0  0  0  0
   24.8179  -12.9680  -22.6643 C   0  0  0  0  0  0  0  0  0  0  0  0
   25.1350  -12.1959  -21.4191 C   0  0  0  0  0  0  0  0  0  0  0  0
   26.6195  -11.9737  -21.2362 C   0  0  2  0  0  0  0  0  0  0  0  0
   26.8545  -11.1630  -20.0592 N   0  0  0  0  0  0  0  0  0  0  0  0
   27.2422  -11.3443  -22.4133 C   0  0  0  0  0  0  0  0  0  0  0  0
   27.2712  -10.0921  -22.4887 O   0  0  0  0  0  0  0  0  0  0  0  0
   27.8036  -12.0660  -23.4526 O   0  0  0  0  0  0  0  0  0  0  0  0
  2  1  1  1
  2  3  1  0
  4  3  1  0
  5  4  1  0
  5  6  2  0
  7  2  1  0
  8  7  2  0
  9  5  1  0
 10  7  1  0
 11 12  1  1
 11 10  1  0
 12 13  1  0
 14 11  1  0
 14 15  2  0
 16 17  1  0
 17 18  2  0
 19 17  1  0
 20 19  1  0
 21 22  1  0
 21 20  1  0
 23 22  1  6
 23 24  1  0
 24 14  1  0
 25 23  1  0
 25 27  1  0
 26 25  2  0
M  END
$$$$
