ECR.pdb
     RDKit          3D

 27 26  0  0  1  0  0  0  0  0999 V2000
   27.1058  -20.5191  -16.8875 N   0  0  0  0  0  0  0  0  0  0  0  0
   27.4665  -21.8772  -16.4726 C   0  0  1  0  0  0  0  0  0  0  0  0
   28.9548  -21.9676  -16.2729 C   0  0  0  0  0  0  0  0  0  0  0  0
   29.7150  -21.5384  -17.4878 C   0  0  0  0  0  0  0  0  0  0  0  0
   30.1056  -22.7045  -18.3330 C   0  0  0  0  0  0  0  0  0  0  0  0
   30.2178  -22.5804  -19.5647 O   0  0  0  0  0  0  0  0  0  0  0  0
   26.6419  -22.3374  -15.3571 C   0  0  0  0  0  0  0  0  0  0  0  0
   27.0256  -23.3249  -14.6770 O   0  0  0  0  0  0  0  0  0  0  0  0
   30.3398  -23.9172  -17.7333 O   0  0  0  0  0  0  0  0  0  0  0  0
   25.4030  -21.7136  -14.9940 N   0  0  0  0  0  0  0  0  0  0  0  0
   24.5948  -22.2970  -13.9858 C   0  0  1  0  0  0  0  0  0  0  0  0
   25.2870  -22.0813  -12.6486 C   0  0  0  0  0  0  0  0  0  0  0  0
   25.5782  -20.3087  -12.3939 S   0  0  0  0  0  0  0  0  0  0  0  0
   23.2477  -21.6705  -13.8737 C   0  0  0  0  0  0  0  0  0  0  0  0
   23.0006  -20.5342  -14.3589 O   0  0  0  0  0  0  0  0  0  0  0  0
   16.6616  -27.5757  -13.3060 N   0  0  0  0  0  0  0  0  0  0  0  0
   16.1456  -26.4592  -14.0184 C   0  0  0  0  0  0  0  0  0  0  0  0
   14.9625  -26.4872  -14.5276 N   0  0  0  0  0  0  0  0  0  0  0  0
   16.9269  -25.2770  -14.1884 N   0  0  0  0  0  0  0  0  0  0  0  0
   18.2840  -25.1889  -13.7376 C   0  0  0  0  0  0  0  0  0  0  0  0
   18.7774  -23.7578  -13.9886 C   0  0  0  0  0  0  0  0  0  0  0  0
   20.2120  -23.7069  -13.5563 C   0  0  0  0  0  0  0  0  0  0  0  0
   20.8201  -22.3326  -13.7239 C   0  0  2  0  0  0  0  0  0  0  0  0
   22.1749  -22.3282  -13.2116 N   0  0  0  0  0  0  0  0  0  0  0  0
   20.0277  -21.2832  -13.0602 C   0  0  0  0  0  0  0  0  0  0  0  0
   20.3937  -20.8658  -11.9349 O   0  0  0  0  0  0  0  0  0  0  0  0
   18.8889  -20.7259  -13.6157 O   0  0  0  0  0  0  0  0  0  0  0  0
  2  1  1  1
  2  3  1  0
  4  3  1  0
  5  4  1  0
  5  6  2  0
  7  2  1  0
  8  7  2  0
  9  5  1  0
 10  7  1  0
 11 12  1  1
 11 10  1  0
 12 13  1  0
 14 11  1  0
 14 15  2  0
 16 17  1  0
 17 18  2  0
 19 17  1  0
 20 19  1  0
 21 22  1  0
 21 20  1  0
 23 22  1  1
 23 24  1  0
 24 14  1  0
 25 23  1  0
 25 27  1  0
 26 25  2  0
M  END
$$$$
