QYN.pdb
     RDKit          3D

 30 30  0  0  1  0  0  0  0  0999 V2000
   29.0671  -27.8227  -15.5155 N   0  0  0  0  0  0  0  0  0  0  0  0
   29.8012  -28.2899  -16.6214 C   0  0  0  0  0  0  0  0  0  0  0  0
   30.5901  -29.2419  -16.4777 O   0  0  0  0  0  0  0  0  0  0  0  0
   29.6245  -27.6517  -17.9295 C   0  0  0  0  0  0  0  0  0  0  0  0
   28.6238  -26.5608  -18.0200 C   0  0  0  0  0  0  0  0  0  0  0  0
   27.2234  -27.0439  -18.0163 C   0  0  2  0  0  0  0  0  0  0  0  0
   26.8313  -27.9284  -19.0720 N   0  0  0  0  0  0  0  0  0  0  0  0
   26.2354  -25.9116  -18.0233 C   0  0  0  0  0  0  0  0  0  0  0  0
   26.4009  -24.8600  -17.3468 O   0  0  0  0  0  0  0  0  0  0  0  0
   20.8525  -20.0504  -21.4458 O   0  0  0  0  0  0  0  0  0  0  0  0
   21.6149  -21.1845  -21.1737 C   0  0  0  0  0  0  0  0  0  0  0  0
   22.9865  -21.0843  -21.0989 C   0  0  0  0  0  0  0  0  0  0  0  0
   23.7579  -22.1917  -20.8313 C   0  0  0  0  0  0  0  0  0  0  0  0
   23.0932  -23.3981  -20.6433 C   0  0  0  0  0  0  0  0  0  0  0  0
   23.9039  -24.5874  -20.3646 C   0  0  0  0  0  0  0  0  0  0  0  0
   24.1301  -24.8157  -18.8636 C   0  0  2  0  0  0  0  0  0  0  0  0
   25.0411  -25.9621  -18.8045 N   0  0  0  0  0  0  0  0  0  0  0  0
   22.8862  -25.0628  -18.1353 C   0  0  0  0  0  0  0  0  0  0  0  0
   22.3254  -26.1912  -18.1752 O   0  0  0  0  0  0  0  0  0  0  0  0
   21.7308  -23.5229  -20.7128 C   0  0  0  0  0  0  0  0  0  0  0  0
   20.9866  -22.3927  -20.9828 C   0  0  0  0  0  0  0  0  0  0  0  0
   19.3910  -24.6681  -14.5229 N   0  0  0  0  0  0  0  0  0  0  0  0
   20.4163  -23.7065  -14.2512 C   0  0  0  0  0  0  0  0  0  0  0  0
   20.5135  -23.2062  -13.1252 O   0  0  0  0  0  0  0  0  0  0  0  0
   21.3250  -23.3466  -15.3346 C   0  0  0  0  0  0  0  0  0  0  0  0
   21.0963  -24.2436  -16.5323 C   0  0  2  0  0  0  0  0  0  0  0  0
   22.2969  -24.0315  -17.3744 N   0  0  0  0  0  0  0  0  0  0  0  0
   19.9600  -23.8224  -17.3757 C   0  0  0  0  0  0  0  0  0  0  0  0
   18.7207  -24.4338  -17.4115 O   0  0  0  0  0  0  0  0  0  0  0  0
   20.0727  -22.8144  -18.1597 O   0  0  0  0  0  0  0  0  0  0  0  0
  2  1  1  0
  3  2  2  0
  4  2  1  0
  5  4  1  0
  6  7  1  6
  6  5  1  0
  8  6  1  0
  9  8  2  0
 10 11  1  0
 11 21  2  0
 11 12  1  0
 12 13  2  0
 13 14  1  0
 14 15  1  0
 16 15  1  6
 16 18  1  0
 16 17  1  0
 17  8  1  0
 18 19  2  0
 20 14  2  0
 21 20  1  0
 23 22  1  0
 24 23  2  0
 25 23  1  0
 26 25  1  1
 27 26  1  0
 27 18  1  0
 28 26  1  0
 29 28  1  0
 30 28  2  0
M  END
$$$$
