QYN.pdb
     RDKit          3D

 30 30  0  0  1  0  0  0  0  0999 V2000
   20.5877  -21.8903  -19.6667 N   0  0  0  0  0  0  0  0  0  0  0  0
   21.1766  -22.0423  -20.9357 C   0  0  0  0  0  0  0  0  0  0  0  0
   20.6577  -22.8109  -21.7660 O   0  0  0  0  0  0  0  0  0  0  0  0
   22.3914  -21.2904  -21.2648 C   0  0  0  0  0  0  0  0  0  0  0  0
   22.8396  -20.2685  -20.2881 C   0  0  0  0  0  0  0  0  0  0  0  0
   24.1158  -20.6125  -19.6190 C   0  0  2  0  0  0  0  0  0  0  0  0
   24.7670  -21.8202  -20.0286 N   0  0  0  0  0  0  0  0  0  0  0  0
   23.9659  -20.6972  -18.1262 C   0  0  0  0  0  0  0  0  0  0  0  0
   23.8346  -21.7936  -17.5166 O   0  0  0  0  0  0  0  0  0  0  0  0
   29.7646  -21.7922  -16.7860 O   0  0  0  0  0  0  0  0  0  0  0  0
   28.6201  -21.0832  -16.4271 C   0  0  0  0  0  0  0  0  0  0  0  0
   28.0115  -21.3345  -15.2174 C   0  0  0  0  0  0  0  0  0  0  0  0
   26.8807  -20.6456  -14.8438 C   0  0  0  0  0  0  0  0  0  0  0  0
   26.3909  -19.6979  -15.7351 C   0  0  0  0  0  0  0  0  0  0  0  0
   25.1823  -18.9617  -15.3524 C   0  0  0  0  0  0  0  0  0  0  0  0
   23.8938  -19.6353  -15.8444 C   0  0  2  0  0  0  0  0  0  0  0  0
   23.9640  -19.5294  -17.3043 N   0  0  0  0  0  0  0  0  0  0  0  0
   22.6870  -19.0101  -15.3044 C   0  0  0  0  0  0  0  0  0  0  0  0
   22.0656  -18.1293  -15.9584 O   0  0  0  0  0  0  0  0  0  0  0  0
   26.9783  -19.4303  -16.9434 C   0  0  0  0  0  0  0  0  0  0  0  0
   28.1112  -20.1389  -17.2876 C   0  0  0  0  0  0  0  0  0  0  0  0
   18.4096  -17.2021  -13.8071 N   0  0  0  0  0  0  0  0  0  0  0  0
   18.6485  -18.5016  -14.3585 C   0  0  0  0  0  0  0  0  0  0  0  0
   17.7119  -19.2952  -14.5021 O   0  0  0  0  0  0  0  0  0  0  0  0
   20.0147  -18.8464  -14.7373 C   0  0  0  0  0  0  0  0  0  0  0  0
   20.8943  -18.9355  -13.5086 C   0  0  2  0  0  0  0  0  0  0  0  0
   22.2024  -19.3900  -14.0353 N   0  0  0  0  0  0  0  0  0  0  0  0
   20.4783  -19.9885  -12.5610 C   0  0  0  0  0  0  0  0  0  0  0  0
   19.5822  -19.8209  -11.5218 O   0  0  0  0  0  0  0  0  0  0  0  0
   20.9538  -21.1749  -12.6600 O   0  0  0  0  0  0  0  0  0  0  0  0
  2  1  1  0
  3  2  2  0
  4  2  1  0
  5  4  1  0
  6  7  1  6
  6  5  1  0
  8  6  1  0
  9  8  2  0
 10 11  1  0
 11 21  2  0
 11 12  1  0
 12 13  2  0
 13 14  1  0
 14 15  1  0
 16 15  1  1
 16 18  1  0
 16 17  1  0
 17  8  1  0
 18 19  2  0
 20 14  2  0
 21 20  1  0
 23 22  1  0
 24 23  2  0
 25 23  1  0
 26 25  1  6
 27 26  1  0
 27 18  1  0
 28 26  1  0
 29 28  1  0
 30 28  2  0
M  END
$$$$
