QYN.pdb
     RDKit          3D

 30 30  0  0  1  0  0  0  0  0999 V2000
   24.2508  -33.4411  -14.6653 N   0  0  0  0  0  0  0  0  0  0  0  0
   23.5593  -34.3920  -13.8920 C   0  0  0  0  0  0  0  0  0  0  0  0
   22.4072  -34.7304  -14.2200 O   0  0  0  0  0  0  0  0  0  0  0  0
   24.2062  -34.9745  -12.7124 C   0  0  0  0  0  0  0  0  0  0  0  0
   25.5448  -34.4509  -12.3474 C   0  0  0  0  0  0  0  0  0  0  0  0
   26.1415  -35.1264  -11.1717 C   0  0  2  0  0  0  0  0  0  0  0  0
   26.4017  -36.5300  -11.2831 N   0  0  0  0  0  0  0  0  0  0  0  0
   25.3082  -34.9467   -9.9341 C   0  0  0  0  0  0  0  0  0  0  0  0
   24.7741  -35.9147   -9.3270 O   0  0  0  0  0  0  0  0  0  0  0  0
   29.0871  -34.1274   -3.8968 O   0  0  0  0  0  0  0  0  0  0  0  0
   28.0959  -33.6831   -4.7695 C   0  0  0  0  0  0  0  0  0  0  0  0
   26.8359  -33.4045   -4.2880 C   0  0  0  0  0  0  0  0  0  0  0  0
   25.8429  -32.9648   -5.1326 C   0  0  0  0  0  0  0  0  0  0  0  0
   26.1703  -32.8182   -6.4757 C   0  0  0  0  0  0  0  0  0  0  0  0
   25.1192  -32.3571   -7.3878 C   0  0  0  0  0  0  0  0  0  0  0  0
   24.3848  -33.5120   -8.0826 C   0  0  2  0  0  0  0  0  0  0  0  0
   25.0717  -33.6568   -9.3690 N   0  0  0  0  0  0  0  0  0  0  0  0
   22.9547  -33.2547   -8.2480 C   0  0  0  0  0  0  0  0  0  0  0  0
   22.5461  -32.3183   -8.9868 O   0  0  0  0  0  0  0  0  0  0  0  0
   27.4156  -33.0888   -6.9781 C   0  0  0  0  0  0  0  0  0  0  0  0
   28.3889  -33.5280   -6.1041 C   0  0  0  0  0  0  0  0  0  0  0  0
   18.0024  -35.4262   -9.0610 N   0  0  0  0  0  0  0  0  0  0  0  0
   18.5290  -35.2362   -7.7432 C   0  0  0  0  0  0  0  0  0  0  0  0
   17.7629  -35.0577   -6.7899 O   0  0  0  0  0  0  0  0  0  0  0  0
   19.9779  -35.2607   -7.5724 C   0  0  0  0  0  0  0  0  0  0  0  0
   20.5482  -33.8663   -7.7195 C   0  0  2  0  0  0  0  0  0  0  0  0
   22.0103  -34.0591   -7.5765 N   0  0  0  0  0  0  0  0  0  0  0  0
   20.1742  -32.9573   -6.6177 C   0  0  0  0  0  0  0  0  0  0  0  0
   20.8915  -32.7786   -5.4496 O   0  0  0  0  0  0  0  0  0  0  0  0
   19.1071  -32.2507   -6.6937 O   0  0  0  0  0  0  0  0  0  0  0  0
  2  1  1  0
  3  2  2  0
  4  2  1  0
  5  4  1  0
  6  7  1  6
  6  5  1  0
  8  6  1  0
  9  8  2  0
 10 11  1  0
 11 21  2  0
 11 12  1  0
 12 13  2  0
 13 14  1  0
 14 15  1  0
 16 15  1  6
 16 18  1  0
 16 17  1  0
 17  8  1  0
 18 19  2  0
 20 14  2  0
 21 20  1  0
 23 22  1  0
 24 23  2  0
 25 23  1  0
 26 25  1  1
 27 26  1  0
 27 18  1  0
 28 26  1  0
 29 28  1  0
 30 28  2  0
M  END
$$$$
