QYN.pdb
     RDKit          3D

 30 30  0  0  1  0  0  0  0  0999 V2000
   29.8296  -19.9746  -21.1234 N   0  0  0  0  0  0  0  0  0  0  0  0
   29.5131  -21.2818  -20.7094 C   0  0  0  0  0  0  0  0  0  0  0  0
   29.4833  -22.2017  -21.5474 O   0  0  0  0  0  0  0  0  0  0  0  0
   29.2263  -21.5440  -19.2957 C   0  0  0  0  0  0  0  0  0  0  0  0
   27.7996  -21.6286  -18.8995 C   0  0  0  0  0  0  0  0  0  0  0  0
   27.3417  -20.4717  -18.0954 C   0  0  2  0  0  0  0  0  0  0  0  0
   28.3243  -19.4965  -17.7295 N   0  0  0  0  0  0  0  0  0  0  0  0
   26.6740  -20.9001  -16.8190 C   0  0  0  0  0  0  0  0  0  0  0  0
   25.7412  -21.7486  -16.7906 O   0  0  0  0  0  0  0  0  0  0  0  0
   24.8634  -20.8744   -8.1825 O   0  0  0  0  0  0  0  0  0  0  0  0
   25.4578  -20.7245   -9.4338 C   0  0  0  0  0  0  0  0  0  0  0  0
   25.4764  -19.4869  -10.0379 C   0  0  0  0  0  0  0  0  0  0  0  0
   26.0582  -19.3172  -11.2730 C   0  0  0  0  0  0  0  0  0  0  0  0
   26.6174  -20.4405  -11.8713 C   0  0  0  0  0  0  0  0  0  0  0  0
   27.2342  -20.2749  -13.1909 C   0  0  0  0  0  0  0  0  0  0  0  0
   26.2965  -20.6690  -14.3404 C   0  0  2  0  0  0  0  0  0  0  0  0
   27.0617  -20.3656  -15.5528 N   0  0  0  0  0  0  0  0  0  0  0  0
   25.0215  -19.9537  -14.3008 C   0  0  0  0  0  0  0  0  0  0  0  0
   24.9360  -18.7596  -14.6960 O   0  0  0  0  0  0  0  0  0  0  0  0
   26.6112  -21.6812  -11.2907 C   0  0  0  0  0  0  0  0  0  0  0  0
   26.0197  -21.8171  -10.0515 C   0  0  0  0  0  0  0  0  0  0  0  0
   20.5391  -17.9260  -15.4347 N   0  0  0  0  0  0  0  0  0  0  0  0
   20.7315  -19.3341  -15.2617 C   0  0  0  0  0  0  0  0  0  0  0  0
   19.7550  -20.0874  -15.1813 O   0  0  0  0  0  0  0  0  0  0  0  0
   22.0995  -19.8361  -15.1853 C   0  0  0  0  0  0  0  0  0  0  0  0
   22.5453  -19.9290  -13.7417 C   0  0  2  0  0  0  0  0  0  0  0  0
   23.8648  -20.5991  -13.8156 N   0  0  0  0  0  0  0  0  0  0  0  0
   21.7072  -20.8270  -12.9225 C   0  0  0  0  0  0  0  0  0  0  0  0
   21.8799  -22.1932  -12.8019 O   0  0  0  0  0  0  0  0  0  0  0  0
   20.7238  -20.3588  -12.2463 O   0  0  0  0  0  0  0  0  0  0  0  0
  2  1  1  0
  3  2  2  0
  4  2  1  0
  5  4  1  0
  6  7  1  1
  6  5  1  0
  8  6  1  0
  9  8  2  0
 10 11  1  0
 11 21  2  0
 11 12  1  0
 12 13  2  0
 13 14  1  0
 14 15  1  0
 16 15  1  1
 16 18  1  0
 16 17  1  0
 17  8  1  0
 18 19  2  0
 20 14  2  0
 21 20  1  0
 23 22  1  0
 24 23  2  0
 25 23  1  0
 26 25  1  6
 27 26  1  0
 27 18  1  0
 28 26  1  0
 29 28  1  0
 30 28  2  0
M  END
$$$$
