QYN.pdb
     RDKit          3D

 30 30  0  0  1  0  0  0  0  0999 V2000
   16.2951  -10.7679  -16.7976 N   0  0  0  0  0  0  0  0  0  0  0  0
   16.9418  -10.0109  -17.7922 C   0  0  0  0  0  0  0  0  0  0  0  0
   16.3661   -9.7999  -18.8754 O   0  0  0  0  0  0  0  0  0  0  0  0
   18.2835   -9.4774  -17.5381 C   0  0  0  0  0  0  0  0  0  0  0  0
   18.8421   -9.6716  -16.1780 C   0  0  0  0  0  0  0  0  0  0  0  0
   20.1441   -8.9952  -15.9735 C   0  0  2  0  0  0  0  0  0  0  0  0
   21.3256   -9.7286  -16.3151 N   0  0  0  0  0  0  0  0  0  0  0  0
   20.3255   -8.5367  -14.5540 C   0  0  0  0  0  0  0  0  0  0  0  0
   20.4350   -9.3403  -13.5880 O   0  0  0  0  0  0  0  0  0  0  0  0
   22.4481   -1.5796  -15.9426 O   0  0  0  0  0  0  0  0  0  0  0  0
   22.2998   -2.7043  -15.1336 C   0  0  0  0  0  0  0  0  0  0  0  0
   21.7292   -2.5789  -13.8863 C   0  0  0  0  0  0  0  0  0  0  0  0
   21.5735   -3.6767  -13.0719 C   0  0  0  0  0  0  0  0  0  0  0  0
   22.0144   -4.9000  -13.5637 C   0  0  0  0  0  0  0  0  0  0  0  0
   21.8610   -6.0767  -12.7029 C   0  0  0  0  0  0  0  0  0  0  0  0
   20.4722   -6.7206  -12.8162 C   0  0  2  0  0  0  0  0  0  0  0  0
   20.3851   -7.1509  -14.2144 N   0  0  0  0  0  0  0  0  0  0  0  0
   19.3923   -5.8033  -12.4543 C   0  0  0  0  0  0  0  0  0  0  0  0
   19.1148   -4.8105  -13.1802 O   0  0  0  0  0  0  0  0  0  0  0  0
   22.5848   -5.0498  -14.8001 C   0  0  0  0  0  0  0  0  0  0  0  0
   22.7262   -3.9287  -15.5920 C   0  0  0  0  0  0  0  0  0  0  0  0
   15.2833   -3.8479  -10.2663 N   0  0  0  0  0  0  0  0  0  0  0  0
   15.2108   -4.7175  -11.4013 C   0  0  0  0  0  0  0  0  0  0  0  0
   14.1416   -4.8607  -12.0045 O   0  0  0  0  0  0  0  0  0  0  0  0
   16.4252   -5.4154  -11.8106 C   0  0  0  0  0  0  0  0  0  0  0  0
   17.5522   -5.1199  -10.8443 C   0  0  2  0  0  0  0  0  0  0  0  0
   18.6439   -6.0226  -11.2788 N   0  0  0  0  0  0  0  0  0  0  0  0
   17.2571   -5.5204   -9.4543 C   0  0  0  0  0  0  0  0  0  0  0  0
   17.6165   -6.7229   -8.8748 O   0  0  0  0  0  0  0  0  0  0  0  0
   16.6174   -4.7300   -8.6734 O   0  0  0  0  0  0  0  0  0  0  0  0
  2  1  1  0
  3  2  2  0
  4  2  1  0
  5  4  1  0
  6  7  1  1
  6  5  1  0
  8  6  1  0
  9  8  2  0
 10 11  1  0
 11 21  2  0
 11 12  1  0
 12 13  2  0
 13 14  1  0
 14 15  1  0
 16 15  1  6
 16 18  1  0
 16 17  1  0
 17  8  1  0
 18 19  2  0
 20 14  2  0
 21 20  1  0
 23 22  1  0
 24 23  2  0
 25 23  1  0
 26 25  1  6
 27 26  1  0
 27 18  1  0
 28 26  1  0
 29 28  1  0
 30 28  2  0
M  END
$$$$
