QYN.pdb
     RDKit          3D

 30 30  0  0  1  0  0  0  0  0999 V2000
   28.6122  -23.0991  -18.9665 N   0  0  0  0  0  0  0  0  0  0  0  0
   28.8768  -23.3761  -17.6124 C   0  0  0  0  0  0  0  0  0  0  0  0
   29.7047  -24.2569  -17.3156 O   0  0  0  0  0  0  0  0  0  0  0  0
   28.1768  -22.6209  -16.5688 C   0  0  0  0  0  0  0  0  0  0  0  0
   27.2085  -21.5898  -17.0145 C   0  0  0  0  0  0  0  0  0  0  0  0
   25.7973  -22.0339  -16.9374 C   0  0  2  0  0  0  0  0  0  0  0  0
   25.4509  -23.2418  -17.6239 N   0  0  0  0  0  0  0  0  0  0  0  0
   24.8458  -20.9795  -17.4284 C   0  0  0  0  0  0  0  0  0  0  0  0
   24.7736  -19.8326  -16.9083 O   0  0  0  0  0  0  0  0  0  0  0  0
   26.0338  -14.8672  -20.7021 O   0  0  0  0  0  0  0  0  0  0  0  0
   25.4120  -16.1121  -20.6307 C   0  0  0  0  0  0  0  0  0  0  0  0
   24.0490  -16.2064  -20.8049 C   0  0  0  0  0  0  0  0  0  0  0  0
   23.4153  -17.4258  -20.7383 C   0  0  0  0  0  0  0  0  0  0  0  0
   24.2079  -18.5406  -20.4900 C   0  0  0  0  0  0  0  0  0  0  0  0
   23.5443  -19.8453  -20.4094 C   0  0  0  0  0  0  0  0  0  0  0  0
   23.0468  -20.1741  -18.9950 C   0  0  2  0  0  0  0  0  0  0  0  0
   23.9604  -21.2183  -18.5230 N   0  0  0  0  0  0  0  0  0  0  0  0
   21.6518  -20.6124  -18.9738 C   0  0  0  0  0  0  0  0  0  0  0  0
   21.2934  -21.6624  -19.5726 O   0  0  0  0  0  0  0  0  0  0  0  0
   25.5646  -18.4721  -20.3133 C   0  0  0  0  0  0  0  0  0  0  0  0
   26.1690  -17.2338  -20.3864 C   0  0  0  0  0  0  0  0  0  0  0  0
   18.1066  -22.6650  -15.8340 N   0  0  0  0  0  0  0  0  0  0  0  0
   18.4358  -21.2749  -15.7376 C   0  0  0  0  0  0  0  0  0  0  0  0
   17.6877  -20.5021  -15.1287 O   0  0  0  0  0  0  0  0  0  0  0  0
   19.6652  -20.8144  -16.3743 C   0  0  0  0  0  0  0  0  0  0  0  0
   19.4002  -20.4330  -17.8150 C   0  0  2  0  0  0  0  0  0  0  0  0
   20.6851  -19.8577  -18.2767 N   0  0  0  0  0  0  0  0  0  0  0  0
   18.4180  -19.3408  -17.9645 C   0  0  0  0  0  0  0  0  0  0  0  0
   18.7258  -17.9975  -18.0724 O   0  0  0  0  0  0  0  0  0  0  0  0
   17.1627  -19.5981  -18.0030 O   0  0  0  0  0  0  0  0  0  0  0  0
  2  1  1  0
  3  2  2  0
  4  2  1  0
  5  4  1  0
  6  7  1  6
  6  5  1  0
  8  6  1  0
  9  8  2  0
 10 11  1  0
 11 21  2  0
 11 12  1  0
 12 13  2  0
 13 14  1  0
 14 15  1  0
 16 15  1  6
 16 18  1  0
 16 17  1  0
 17  8  1  0
 18 19  2  0
 20 14  2  0
 21 20  1  0
 23 22  1  0
 24 23  2  0
 25 23  1  0
 26 25  1  1
 27 26  1  0
 27 18  1  0
 28 26  1  0
 29 28  1  0
 30 28  2  0
M  END
$$$$
