PSC.pdb
     RDKit          3D

 20 20  0  0  1  0  0  0  0  0999 V2000
   12.5157  -13.2602  -11.3968 N   0  0  0  0  0  0  0  0  0  0  0  0
   12.1597  -13.6131  -10.0411 C   0  0  0  0  0  0  0  0  0  0  0  0
   11.0436  -12.6384   -9.6999 C   0  0  0  0  0  0  0  0  0  0  0  0
   11.4020  -11.3972  -10.4509 C   0  0  0  0  0  0  0  0  0  0  0  0
   12.3169  -11.8635  -11.5512 C   0  0  1  0  0  0  0  0  0  0  0  0
   13.5268  -11.0370  -11.6202 C   0  0  0  0  0  0  0  0  0  0  0  0
   14.4726  -11.3305  -10.8435 O   0  0  0  0  0  0  0  0  0  0  0  0
   14.2524   -7.8699  -14.2611 O   0  0  0  0  0  0  0  0  0  0  0  0
   15.3335   -8.6675  -13.8376 C   0  0  0  0  0  0  0  0  0  0  0  0
   14.9494   -9.2107  -12.4794 C   0  0  2  0  0  0  0  0  0  0  0  0
   13.7217   -9.9352  -12.4879 N   0  0  0  0  0  0  0  0  0  0  0  0
   14.8870   -8.0388  -11.5599 C   0  0  0  0  0  0  0  0  0  0  0  0
   13.7942   -7.7397  -11.0121 O   0  0  0  0  0  0  0  0  0  0  0  0
   16.0107   -7.2260  -11.2614 N   0  0  0  0  0  0  0  0  0  0  0  0
   15.9402   -6.0717  -10.3936 C   0  0  1  0  0  0  0  0  0  0  0  0
   15.6780   -6.5835   -8.9937 C   0  0  0  0  0  0  0  0  0  0  0  0
   15.9140   -5.3172   -7.7438 S   0  0  0  0  0  0  0  0  0  0  0  0
   17.2197   -5.3414  -10.4830 C   0  0  0  0  0  0  0  0  0  0  0  0
   18.2659   -5.9277  -10.8477 O   0  0  0  0  0  0  0  0  0  0  0  0
   17.3292   -3.9843  -10.1718 O   0  0  0  0  0  0  0  0  0  0  0  0
  2  1  1  0
  3  2  1  0
  4  3  1  0
  4  5  1  0
  5  6  1  1
  5  1  1  0
  6 11  1  0
  7  6  2  0
  9  8  1  0
 10  9  1  6
 10 12  1  0
 11 10  1  0
 12 14  1  0
 12 13  2  0
 14 15  1  0
 15 18  1  0
 15 16  1  1
 17 16  1  0
 18 20  1  0
 19 18  2  0
M  END
$$$$
