PSC.pdb
     RDKit          3D

 20 20  0  0  1  0  0  0  0  0999 V2000
   26.1283  -33.0675  -14.3856 N   0  0  0  0  0  0  0  0  0  0  0  0
   27.0433  -32.0535  -14.8586 C   0  0  0  0  0  0  0  0  0  0  0  0
   28.2187  -32.8554  -15.3946 C   0  0  0  0  0  0  0  0  0  0  0  0
   28.2769  -34.0549  -14.5055 C   0  0  0  0  0  0  0  0  0  0  0  0
   26.8965  -34.1642  -13.9155 C   0  0  1  0  0  0  0  0  0  0  0  0
   26.9547  -34.3428  -12.4607 C   0  0  0  0  0  0  0  0  0  0  0  0
   27.6575  -35.2904  -12.0222 O   0  0  0  0  0  0  0  0  0  0  0  0
   26.6492  -31.6091   -9.4028 O   0  0  0  0  0  0  0  0  0  0  0  0
   25.8176  -32.7336   -9.2347 C   0  0  0  0  0  0  0  0  0  0  0  0
   26.3962  -33.8204  -10.1129 C   0  0  2  0  0  0  0  0  0  0  0  0
   26.2866  -33.5385  -11.5059 N   0  0  0  0  0  0  0  0  0  0  0  0
   25.6821  -35.0782   -9.7511 C   0  0  0  0  0  0  0  0  0  0  0  0
   24.7329  -35.4802  -10.4730 O   0  0  0  0  0  0  0  0  0  0  0  0
   26.0179  -35.8629   -8.6180 N   0  0  0  0  0  0  0  0  0  0  0  0
   25.5270  -37.2078   -8.4171 C   0  0  1  0  0  0  0  0  0  0  0  0
   26.0447  -38.0460   -9.5660 C   0  0  0  0  0  0  0  0  0  0  0  0
   24.9340  -38.0400  -10.9758 S   0  0  0  0  0  0  0  0  0  0  0  0
   26.0193  -37.6948   -7.1137 C   0  0  0  0  0  0  0  0  0  0  0  0
   26.7767  -36.9850   -6.4110 O   0  0  0  0  0  0  0  0  0  0  0  0
   25.6731  -38.9486   -6.6050 O   0  0  0  0  0  0  0  0  0  0  0  0
  2  1  1  0
  3  2  1  0
  4  3  1  0
  4  5  1  0
  5  6  1  1
  5  1  1  0
  6 11  1  0
  7  6  2  0
  9  8  1  0
 10  9  1  1
 10 12  1  0
 11 10  1  0
 12 14  1  0
 12 13  2  0
 14 15  1  0
 15 18  1  0
 15 16  1  6
 17 16  1  0
 18 20  1  0
 19 18  2  0
M  END
$$$$
