PSC.pdb
     RDKit          3D

 20 20  0  0  1  0  0  0  0  0999 V2000
   19.6403  -12.6301  -17.2880 N   0  0  0  0  0  0  0  0  0  0  0  0
   18.3791  -13.3268  -17.4036 C   0  0  0  0  0  0  0  0  0  0  0  0
   17.9198  -13.0015  -18.8162 C   0  0  0  0  0  0  0  0  0  0  0  0
   18.4342  -11.6193  -19.0570 C   0  0  0  0  0  0  0  0  0  0  0  0
   19.5620  -11.4516  -18.0746 C   0  0  1  0  0  0  0  0  0  0  0  0
   19.4429  -10.1862  -17.3423 C   0  0  0  0  0  0  0  0  0  0  0  0
   19.5300   -9.1221  -18.0086 O   0  0  0  0  0  0  0  0  0  0  0  0
   19.1122   -9.6396  -13.1734 O   0  0  0  0  0  0  0  0  0  0  0  0
   18.3697   -8.8002  -14.0269 C   0  0  0  0  0  0  0  0  0  0  0  0
   19.1134   -8.7742  -15.3435 C   0  0  2  0  0  0  0  0  0  0  0  0
   19.2377  -10.0597  -15.9469 N   0  0  0  0  0  0  0  0  0  0  0  0
   20.4471   -8.1706  -15.0615 C   0  0  0  0  0  0  0  0  0  0  0  0
   21.4858   -8.8632  -15.2206 O   0  0  0  0  0  0  0  0  0  0  0  0
   20.6156   -6.8345  -14.6154 N   0  0  0  0  0  0  0  0  0  0  0  0
   21.9034   -6.1798  -14.5564 C   0  0  1  0  0  0  0  0  0  0  0  0
   22.4447   -6.1360  -15.9690 C   0  0  0  0  0  0  0  0  0  0  0  0
   23.4481   -7.5705  -16.3650 S   0  0  0  0  0  0  0  0  0  0  0  0
   21.7144   -4.8275  -13.9962 C   0  0  0  0  0  0  0  0  0  0  0  0
   20.6475   -4.1988  -14.1902 O   0  0  0  0  0  0  0  0  0  0  0  0
   22.6965   -4.1899  -13.2348 O   0  0  0  0  0  0  0  0  0  0  0  0
  2  1  1  0
  3  2  1  0
  4  3  1  0
  4  5  1  0
  5  6  1  1
  5  1  1  0
  6 11  1  0
  7  6  2  0
  9  8  1  0
 10  9  1  1
 10 12  1  0
 11 10  1  0
 12 14  1  0
 12 13  2  0
 14 15  1  0
 15 18  1  0
 15 16  1  6
 17 16  1  0
 18 20  1  0
 19 18  2  0
M  END
$$$$
