PSC.pdb
     RDKit          3D

 20 20  0  0  1  0  0  0  0  0999 V2000
   19.3522  -12.4839  -15.5536 N   0  0  0  0  0  0  0  0  0  0  0  0
   18.2972  -13.2416  -16.1877 C   0  0  0  0  0  0  0  0  0  0  0  0
   18.9012  -13.6457  -17.5234 C   0  0  0  0  0  0  0  0  0  0  0  0
   19.7954  -12.5027  -17.8794 C   0  0  0  0  0  0  0  0  0  0  0  0
   20.0830  -11.8168  -16.5709 C   0  0  1  0  0  0  0  0  0  0  0  0
   19.8792  -10.3680  -16.6760 C   0  0  0  0  0  0  0  0  0  0  0  0
   20.8920   -9.6567  -16.9046 O   0  0  0  0  0  0  0  0  0  0  0  0
   17.2167   -6.4507  -17.2744 O   0  0  0  0  0  0  0  0  0  0  0  0
   17.1259   -7.7908  -16.8496 C   0  0  0  0  0  0  0  0  0  0  0  0
   18.5480   -8.2887  -16.7199 C   0  0  2  0  0  0  0  0  0  0  0  0
   18.6377   -9.7003  -16.5422 N   0  0  0  0  0  0  0  0  0  0  0  0
   19.1481   -7.5531  -15.5704 C   0  0  0  0  0  0  0  0  0  0  0  0
   18.9981   -8.0001  -14.4036 O   0  0  0  0  0  0  0  0  0  0  0  0
   19.8929   -6.3549  -15.7195 N   0  0  0  0  0  0  0  0  0  0  0  0
   20.4661   -5.6389  -14.6018 C   0  0  1  0  0  0  0  0  0  0  0  0
   21.9298   -6.0177  -14.5350 C   0  0  0  0  0  0  0  0  0  0  0  0
   22.8399   -5.0350  -13.3404 S   0  0  0  0  0  0  0  0  0  0  0  0
   20.2807   -4.1924  -14.8292 C   0  0  0  0  0  0  0  0  0  0  0  0
   20.2692   -3.7249  -15.9922 O   0  0  0  0  0  0  0  0  0  0  0  0
   20.1117   -3.2864  -13.7799 O   0  0  0  0  0  0  0  0  0  0  0  0
  2  1  1  0
  3  2  1  0
  4  3  1  0
  4  5  1  0
  5  6  1  6
  5  1  1  0
  6 11  1  0
  7  6  2  0
  9  8  1  0
 10  9  1  1
 10 12  1  0
 11 10  1  0
 12 14  1  0
 12 13  2  0
 14 15  1  0
 15 18  1  0
 15 16  1  6
 17 16  1  0
 18 20  1  0
 19 18  2  0
M  END
$$$$
