PSC.pdb
     RDKit          3D

 20 20  0  0  1  0  0  0  0  0999 V2000
   21.6740  -13.0651  -17.1915 N   0  0  0  0  0  0  0  0  0  0  0  0
   20.6342  -13.9527  -17.6608 C   0  0  0  0  0  0  0  0  0  0  0  0
   20.7859  -13.9122  -19.1731 C   0  0  0  0  0  0  0  0  0  0  0  0
   21.2475  -12.5193  -19.4555 C   0  0  0  0  0  0  0  0  0  0  0  0
   21.8435  -12.0408  -18.1589 C   0  0  1  0  0  0  0  0  0  0  0  0
   21.3329  -10.7137  -17.7989 C   0  0  0  0  0  0  0  0  0  0  0  0
   21.5674   -9.7682  -18.5958 O   0  0  0  0  0  0  0  0  0  0  0  0
   18.9561  -10.0532  -14.6170 O   0  0  0  0  0  0  0  0  0  0  0  0
   18.8289   -9.0501  -15.5978 C   0  0  0  0  0  0  0  0  0  0  0  0
   20.1077   -9.0852  -16.4046 C   0  0  2  0  0  0  0  0  0  0  0  0
   20.5972  -10.4050  -16.6290 N   0  0  0  0  0  0  0  0  0  0  0  0
   21.0969   -8.2535  -15.6614 C   0  0  0  0  0  0  0  0  0  0  0  0
   21.7523   -8.7671  -14.7178 O   0  0  0  0  0  0  0  0  0  0  0  0
   21.3464   -6.8899  -15.9627 N   0  0  0  0  0  0  0  0  0  0  0  0
   22.3682   -6.1104  -15.3003 C   0  0  1  0  0  0  0  0  0  0  0  0
   22.8624   -5.0858  -16.2985 C   0  0  0  0  0  0  0  0  0  0  0  0
   23.9554   -3.8726  -15.5535 S   0  0  0  0  0  0  0  0  0  0  0  0
   21.7723   -5.4761  -14.1083 C   0  0  0  0  0  0  0  0  0  0  0  0
   20.5804   -5.0882  -14.1194 O   0  0  0  0  0  0  0  0  0  0  0  0
   22.4923   -5.2789  -12.9278 O   0  0  0  0  0  0  0  0  0  0  0  0
  2  1  1  0
  3  2  1  0
  4  3  1  0
  4  5  1  0
  5  6  1  1
  5  1  1  0
  6 11  1  0
  7  6  2  0
  9  8  1  0
 10  9  1  1
 10 12  1  0
 11 10  1  0
 12 14  1  0
 12 13  2  0
 14 15  1  0
 15 18  1  0
 15 16  1  6
 17 16  1  0
 18 20  1  0
 19 18  2  0
M  END
$$$$
