PSC.pdb
     RDKit          3D

 20 20  0  0  1  0  0  0  0  0999 V2000
   19.9411  -13.4030  -17.9047 N   0  0  0  0  0  0  0  0  0  0  0  0
   19.4342  -14.1254  -16.7600 C   0  0  0  0  0  0  0  0  0  0  0  0
   18.0206  -13.5896  -16.5970 C   0  0  0  0  0  0  0  0  0  0  0  0
   18.1179  -12.1654  -17.0386 C   0  0  0  0  0  0  0  0  0  0  0  0
   19.3467  -12.1143  -17.9062 C   0  0  1  0  0  0  0  0  0  0  0  0
   20.2163  -10.9953  -17.5279 C   0  0  0  0  0  0  0  0  0  0  0  0
   21.1334  -11.2305  -16.6986 O   0  0  0  0  0  0  0  0  0  0  0  0
   21.9805   -8.0085  -19.6130 O   0  0  0  0  0  0  0  0  0  0  0  0
   21.1660   -7.5239  -18.5709 C   0  0  0  0  0  0  0  0  0  0  0  0
   21.0217   -8.6618  -17.5852 C   0  0  2  0  0  0  0  0  0  0  0  0
   20.1118   -9.6706  -18.0170 N   0  0  0  0  0  0  0  0  0  0  0  0
   20.5889   -8.0497  -16.2965 C   0  0  0  0  0  0  0  0  0  0  0  0
   19.4316   -8.2808  -15.8596 O   0  0  0  0  0  0  0  0  0  0  0  0
   21.4232   -7.2053  -15.5196 N   0  0  0  0  0  0  0  0  0  0  0  0
   21.0158   -6.6472  -14.2495 C   0  0  1  0  0  0  0  0  0  0  0  0
   20.9407   -7.7934  -13.2642 C   0  0  0  0  0  0  0  0  0  0  0  0
   20.6160   -7.2386  -11.5884 S   0  0  0  0  0  0  0  0  0  0  0  0
   22.0107   -5.6354  -13.8435 C   0  0  0  0  0  0  0  0  0  0  0  0
   23.2002   -5.7179  -14.2299 O   0  0  0  0  0  0  0  0  0  0  0  0
   21.6843   -4.5534  -13.0228 O   0  0  0  0  0  0  0  0  0  0  0  0
  2  1  1  0
  3  2  1  0
  4  3  1  0
  4  5  1  0
  5  6  1  1
  5  1  1  0
  6 11  1  0
  7  6  2  0
  9  8  1  0
 10  9  1  6
 10 12  1  0
 11 10  1  0
 12 14  1  0
 12 13  2  0
 14 15  1  0
 15 18  1  0
 15 16  1  1
 17 16  1  0
 18 20  1  0
 19 18  2  0
M  END
$$$$
