PSC.pdb
     RDKit          3D

 20 20  0  0  1  0  0  0  0  0999 V2000
   24.5656  -12.6294  -19.4622 N   0  0  0  0  0  0  0  0  0  0  0  0
   24.8425  -14.0102  -19.1366 C   0  0  0  0  0  0  0  0  0  0  0  0
   23.4606  -14.6185  -18.9566 C   0  0  0  0  0  0  0  0  0  0  0  0
   22.6422  -13.5026  -18.3927 C   0  0  0  0  0  0  0  0  0  0  0  0
   23.3795  -12.2495  -18.7820 C   0  0  1  0  0  0  0  0  0  0  0  0
   23.5462  -11.3540  -17.6322 C   0  0  0  0  0  0  0  0  0  0  0  0
   22.5392  -11.1544  -16.9041 O   0  0  0  0  0  0  0  0  0  0  0  0
   26.7137  -10.4698  -15.1283 O   0  0  0  0  0  0  0  0  0  0  0  0
   26.1608   -9.3507  -15.7812 C   0  0  0  0  0  0  0  0  0  0  0  0
   24.7645   -9.7542  -16.1992 C   0  0  2  0  0  0  0  0  0  0  0  0
   24.7456  -10.6939  -17.2710 N   0  0  0  0  0  0  0  0  0  0  0  0
   24.0537   -8.4951  -16.5626 C   0  0  0  0  0  0  0  0  0  0  0  0
   24.1631   -8.0377  -17.7299 O   0  0  0  0  0  0  0  0  0  0  0  0
   23.2456   -7.7690  -15.6503 N   0  0  0  0  0  0  0  0  0  0  0  0
   22.4925   -6.5938  -16.0271 C   0  0  1  0  0  0  0  0  0  0  0  0
   21.1060   -6.7475  -15.4401 C   0  0  0  0  0  0  0  0  0  0  0  0
   20.2251   -8.1565  -16.1184 S   0  0  0  0  0  0  0  0  0  0  0  0
   23.1869   -5.4043  -15.4970 C   0  0  0  0  0  0  0  0  0  0  0  0
   24.2368   -5.5248  -14.8229 O   0  0  0  0  0  0  0  0  0  0  0  0
   22.7189   -4.1065  -15.7149 O   0  0  0  0  0  0  0  0  0  0  0  0
  2  1  1  0
  3  2  1  0
  4  3  1  0
  4  5  1  0
  5  6  1  1
  5  1  1  0
  6 11  1  0
  7  6  2  0
  9  8  1  0
 10  9  1  6
 10 12  1  0
 11 10  1  0
 12 14  1  0
 12 13  2  0
 14 15  1  0
 15 18  1  0
 15 16  1  1
 17 16  1  0
 18 20  1  0
 19 18  2  0
M  END
$$$$
