PSC.pdb
     RDKit          3D

 20 20  0  0  1  0  0  0  0  0999 V2000
   16.0305  -14.3183  -14.2963 N   0  0  0  0  0  0  0  0  0  0  0  0
   15.2635  -15.1935  -13.4390 C   0  0  0  0  0  0  0  0  0  0  0  0
   13.8620  -14.6062  -13.4915 C   0  0  0  0  0  0  0  0  0  0  0  0
   14.0884  -13.1362  -13.6356 C   0  0  0  0  0  0  0  0  0  0  0  0
   15.4813  -13.0139  -14.1926 C   0  0  1  0  0  0  0  0  0  0  0  0
   16.2693  -12.0333  -13.4383 C   0  0  0  0  0  0  0  0  0  0  0  0
   16.7841  -12.4152  -12.3552 O   0  0  0  0  0  0  0  0  0  0  0  0
   17.7628   -8.6455  -14.9766 O   0  0  0  0  0  0  0  0  0  0  0  0
   18.3723   -9.1029  -13.7919 C   0  0  0  0  0  0  0  0  0  0  0  0
   17.2947   -9.8270  -13.0162 C   0  0  2  0  0  0  0  0  0  0  0  0
   16.5007  -10.6911  -13.8255 N   0  0  0  0  0  0  0  0  0  0  0  0
   16.4657   -8.7733  -12.3640 C   0  0  0  0  0  0  0  0  0  0  0  0
   15.3308   -8.4999  -12.8340 O   0  0  0  0  0  0  0  0  0  0  0  0
   16.8914   -8.0473  -11.2220 N   0  0  0  0  0  0  0  0  0  0  0  0
   16.1282   -6.9612  -10.6489 C   0  0  1  0  0  0  0  0  0  0  0  0
   16.4108   -6.9557   -9.1621 C   0  0  0  0  0  0  0  0  0  0  0  0
   15.7644   -8.4112   -8.3345 S   0  0  0  0  0  0  0  0  0  0  0  0
   16.5492   -5.7027  -11.2949 C   0  0  0  0  0  0  0  0  0  0  0  0
   17.5312   -5.6817  -12.0736 O   0  0  0  0  0  0  0  0  0  0  0  0
   15.8875   -4.4924  -11.0760 O   0  0  0  0  0  0  0  0  0  0  0  0
  2  1  1  0
  3  2  1  0
  4  3  1  0
  4  5  1  0
  5  6  1  1
  5  1  1  0
  6 11  1  0
  7  6  2  0
  9  8  1  0
 10  9  1  6
 10 12  1  0
 11 10  1  0
 12 14  1  0
 12 13  2  0
 14 15  1  0
 15 18  1  0
 15 16  1  1
 17 16  1  0
 18 20  1  0
 19 18  2  0
M  END
$$$$
