PSC.pdb
     RDKit          3D

 20 20  0  0  1  0  0  0  0  0999 V2000
   26.0697  -12.1847  -16.9439 N   0  0  0  0  0  0  0  0  0  0  0  0
   27.1041  -12.7082  -17.8072 C   0  0  0  0  0  0  0  0  0  0  0  0
   28.3105  -12.8240  -16.8890 C   0  0  0  0  0  0  0  0  0  0  0  0
   28.1524  -11.6853  -15.9345 C   0  0  0  0  0  0  0  0  0  0  0  0
   26.6874  -11.3432  -15.9825 C   0  0  1  0  0  0  0  0  0  0  0  0
   26.4856   -9.9005  -16.1540 C   0  0  0  0  0  0  0  0  0  0  0  0
   27.0025   -9.1383  -15.2961 O   0  0  0  0  0  0  0  0  0  0  0  0
   26.0996   -5.8883  -18.4010 O   0  0  0  0  0  0  0  0  0  0  0  0
   26.0739   -7.2849  -18.5836 C   0  0  0  0  0  0  0  0  0  0  0  0
   25.6192   -7.8735  -17.2667 C   0  0  2  0  0  0  0  0  0  0  0  0
   25.7575   -9.2909  -17.2044 N   0  0  0  0  0  0  0  0  0  0  0  0
   24.2002   -7.4536  -17.0859 C   0  0  0  0  0  0  0  0  0  0  0  0
   23.2762   -8.2004  -17.5010 O   0  0  0  0  0  0  0  0  0  0  0  0
   23.8246   -6.2368  -16.4606 N   0  0  0  0  0  0  0  0  0  0  0  0
   22.4493   -5.8119  -16.3253 C   0  0  1  0  0  0  0  0  0  0  0  0
   21.7469   -6.8452  -15.4714 C   0  0  0  0  0  0  0  0  0  0  0  0
   22.2059   -6.7325  -13.7399 S   0  0  0  0  0  0  0  0  0  0  0  0
   22.4328   -4.4756  -15.6990 C   0  0  0  0  0  0  0  0  0  0  0  0
   23.5039   -3.8951  -15.4037 O   0  0  0  0  0  0  0  0  0  0  0  0
   21.2450   -3.8009  -15.4081 O   0  0  0  0  0  0  0  0  0  0  0  0
  2  1  1  0
  3  2  1  0
  4  3  1  0
  4  5  1  0
  5  6  1  6
  5  1  1  0
  6 11  1  0
  7  6  2  0
  9  8  1  0
 10  9  1  6
 10 12  1  0
 11 10  1  0
 12 14  1  0
 12 13  2  0
 14 15  1  0
 15 18  1  0
 15 16  1  1
 17 16  1  0
 18 20  1  0
 19 18  2  0
M  END
$$$$
