PSC.pdb
     RDKit          3D

 20 20  0  0  1  0  0  0  0  0999 V2000
   20.6599  -11.4205  -18.7405 N   0  0  0  0  0  0  0  0  0  0  0  0
   20.6924  -11.4456  -20.1853 C   0  0  0  0  0  0  0  0  0  0  0  0
   22.1147  -11.0228  -20.5177 C   0  0  0  0  0  0  0  0  0  0  0  0
   22.4726  -10.0625  -19.4302 C   0  0  0  0  0  0  0  0  0  0  0  0
   21.5325  -10.3909  -18.3017 C   0  0  1  0  0  0  0  0  0  0  0  0
   20.8966   -9.1797  -17.7723 C   0  0  0  0  0  0  0  0  0  0  0  0
   19.7787   -8.8567  -18.2519 O   0  0  0  0  0  0  0  0  0  0  0  0
   20.3347   -7.8230  -14.0469 O   0  0  0  0  0  0  0  0  0  0  0  0
   21.0146   -6.8780  -14.8400 C   0  0  0  0  0  0  0  0  0  0  0  0
   20.6944   -7.2254  -16.2767 C   0  0  2  0  0  0  0  0  0  0  0  0
   21.4343   -8.3413  -16.7658 N   0  0  0  0  0  0  0  0  0  0  0  0
   20.9643   -5.9966  -17.0767 C   0  0  0  0  0  0  0  0  0  0  0  0
   21.8185   -6.0348  -18.0001 O   0  0  0  0  0  0  0  0  0  0  0  0
   20.3006   -4.7631  -16.8523 N   0  0  0  0  0  0  0  0  0  0  0  0
   20.4858   -3.6035  -17.6958 C   0  0  1  0  0  0  0  0  0  0  0  0
   20.1457   -4.0235  -19.1094 C   0  0  0  0  0  0  0  0  0  0  0  0
   20.1038   -2.6358  -20.2470 S   0  0  0  0  0  0  0  0  0  0  0  0
   19.5991   -2.5275  -17.2118 C   0  0  0  0  0  0  0  0  0  0  0  0
   18.5230   -2.7999  -16.6294 O   0  0  0  0  0  0  0  0  0  0  0  0
   19.9072   -1.1750  -17.3746 O   0  0  0  0  0  0  0  0  0  0  0  0
  2  1  1  0
  3  2  1  0
  4  3  1  0
  4  5  1  0
  5  6  1  6
  5  1  1  0
  6 11  1  0
  7  6  2  0
  9  8  1  0
 10  9  1  1
 10 12  1  0
 11 10  1  0
 12 14  1  0
 12 13  2  0
 14 15  1  0
 15 18  1  0
 15 16  1  6
 17 16  1  0
 18 20  1  0
 19 18  2  0
M  END
$$$$
