PSC.pdb
     RDKit          3D

 20 20  0  0  1  0  0  0  0  0999 V2000
   26.4996  -11.5113  -17.6062 N   0  0  0  0  0  0  0  0  0  0  0  0
   27.8186  -11.6181  -18.1876 C   0  0  0  0  0  0  0  0  0  0  0  0
   28.7383  -11.6748  -16.9782 C   0  0  0  0  0  0  0  0  0  0  0  0
   28.0553  -10.8195  -15.9609 C   0  0  0  0  0  0  0  0  0  0  0  0
   26.6143  -10.7826  -16.3939 C   0  0  1  0  0  0  0  0  0  0  0  0
   26.1004   -9.4088  -16.4084 C   0  0  0  0  0  0  0  0  0  0  0  0
   26.1612   -8.7574  -15.3333 O   0  0  0  0  0  0  0  0  0  0  0  0
   24.5857   -7.4707  -19.7185 O   0  0  0  0  0  0  0  0  0  0  0  0
   25.2474   -6.6575  -18.7777 C   0  0  0  0  0  0  0  0  0  0  0  0
   25.1526   -7.3824  -17.4538 C   0  0  2  0  0  0  0  0  0  0  0  0
   25.5408   -8.7519  -17.5311 N   0  0  0  0  0  0  0  0  0  0  0  0
   23.7412   -7.2386  -16.9956 C   0  0  0  0  0  0  0  0  0  0  0  0
   22.8602   -8.0117  -17.4538 O   0  0  0  0  0  0  0  0  0  0  0  0
   23.3264   -6.2614  -16.0546 N   0  0  0  0  0  0  0  0  0  0  0  0
   21.9429   -6.0579  -15.6875 C   0  0  1  0  0  0  0  0  0  0  0  0
   21.8143   -6.4173  -14.2230 C   0  0  0  0  0  0  0  0  0  0  0  0
   21.7548   -8.1907  -13.9535 S   0  0  0  0  0  0  0  0  0  0  0  0
   21.5951   -4.6462  -15.9414 C   0  0  0  0  0  0  0  0  0  0  0  0
   22.4566   -3.8432  -16.3708 O   0  0  0  0  0  0  0  0  0  0  0  0
   20.3119   -4.1411  -15.7206 O   0  0  0  0  0  0  0  0  0  0  0  0
  2  1  1  0
  3  2  1  0
  4  3  1  0
  4  5  1  0
  5  6  1  6
  5  1  1  0
  6 11  1  0
  7  6  2  0
  9  8  1  0
 10  9  1  6
 10 12  1  0
 11 10  1  0
 12 14  1  0
 12 13  2  0
 14 15  1  0
 15 18  1  0
 15 16  1  1
 17 16  1  0
 18 20  1  0
 19 18  2  0
M  END
$$$$
