QLF.pdb
     RDKit          3D

 29 29  0  0  1  0  0  0  0  0999 V2000
   27.5603  -17.0948  -12.9456 N   0  0  0  0  0  0  0  0  0  0  0  0
   27.1302  -17.2971  -14.2782 C   0  0  0  0  0  0  0  0  0  0  0  0
   27.2145  -16.3782  -15.1191 O   0  0  0  0  0  0  0  0  0  0  0  0
   26.5772  -18.6114  -14.6703 C   0  0  0  0  0  0  0  0  0  0  0  0
   26.6794  -19.6186  -13.5392 C   0  0  0  0  0  0  0  0  0  0  0  0
   28.1563  -19.7919  -13.2308 C   0  0  2  0  0  0  0  0  0  0  0  0
   28.7996  -20.3035  -14.4057 N   0  0  0  0  0  0  0  0  0  0  0  0
   28.2518  -20.8023  -12.1514 C   0  0  0  0  0  0  0  0  0  0  0  0
   27.4993  -21.7949  -12.1655 O   0  0  0  0  0  0  0  0  0  0  0  0
   33.2172  -21.7064   -9.7162 C   0  0  0  0  0  0  0  0  0  0  0  0
   31.8884  -21.8837  -10.3926 C   0  0  1  0  0  0  0  0  0  0  0  0
   31.8105  -23.3178  -10.9505 C   0  0  0  0  0  0  0  0  0  0  0  0
   30.7205  -21.6822   -9.5125 C   0  0  0  0  0  0  0  0  0  0  0  0
   29.3664  -21.6831  -10.1070 C   0  0  2  0  0  0  0  0  0  0  0  0
   29.1952  -20.6392  -11.1077 N   0  0  0  0  0  0  0  0  0  0  0  0
   28.2638  -21.5920   -9.1493 C   0  0  0  0  0  0  0  0  0  0  0  0
   28.1401  -22.4714   -8.2594 O   0  0  0  0  0  0  0  0  0  0  0  0
   27.2916  -20.5490   -9.1441 N   0  0  0  0  0  0  0  0  0  0  0  0
   26.1681  -20.6099   -8.2296 C   0  0  1  0  0  0  0  0  0  0  0  0
   26.3215  -19.3745   -7.3422 C   0  0  0  0  0  0  0  0  0  0  0  0
   27.2956  -19.5435   -6.2676 C   0  0  0  0  0  0  0  0  0  0  0  0
   27.2314  -20.6826   -5.4652 C   0  0  0  0  0  0  0  0  0  0  0  0
   28.1294  -20.8888   -4.4385 C   0  0  0  0  0  0  0  0  0  0  0  0
   29.1270  -19.9729   -4.1667 C   0  0  0  0  0  0  0  0  0  0  0  0
   29.2075  -18.8514   -4.9399 C   0  0  0  0  0  0  0  0  0  0  0  0
   28.3047  -18.6547   -5.9642 C   0  0  0  0  0  0  0  0  0  0  0  0
   24.8574  -20.6522   -8.8783 C   0  0  0  0  0  0  0  0  0  0  0  0
   24.7055  -20.4176  -10.1274 O   0  0  0  0  0  0  0  0  0  0  0  0
   23.6798  -20.9470   -8.2082 O   0  0  0  0  0  0  0  0  0  0  0  0
  2  3  2  0
  2  1  1  0
  4  2  1  0
  5  4  1  0
  6  5  1  0
  6  7  1  6
  8  6  1  0
  9  8  2  0
 11 10  1  1
 11 13  1  0
 11 12  1  0
 14 13  1  1
 14 16  1  0
 14 15  1  0
 15  8  1  0
 16 18  1  0
 17 16  2  0
 18 19  1  0
 19 20  1  1
 19 27  1  0
 21 20  1  0
 22 21  2  0
 23 22  1  0
 24 25  1  0
 24 23  2  0
 25 26  2  0
 26 21  1  0
 27 28  2  0
 27 29  1  0
M  END
$$$$
