QLF.pdb
     RDKit          3D

 29 29  0  0  1  0  0  0  0  0999 V2000
   15.3133   -8.4798  -18.2440 N   0  0  0  0  0  0  0  0  0  0  0  0
   15.1074   -9.4873  -19.2157 C   0  0  0  0  0  0  0  0  0  0  0  0
   13.9516   -9.8360  -19.5338 O   0  0  0  0  0  0  0  0  0  0  0  0
   16.2768  -10.1280  -19.8552 C   0  0  0  0  0  0  0  0  0  0  0  0
   17.5816   -9.5634  -19.3234 C   0  0  0  0  0  0  0  0  0  0  0  0
   18.1214   -8.6186  -20.3829 C   0  0  2  0  0  0  0  0  0  0  0  0
   18.7207   -9.4076  -21.4194 N   0  0  0  0  0  0  0  0  0  0  0  0
   19.1720   -7.8017  -19.7316 C   0  0  0  0  0  0  0  0  0  0  0  0
   20.3100   -8.2792  -19.5623 O   0  0  0  0  0  0  0  0  0  0  0  0
   22.1125   -3.4508  -18.9618 C   0  0  0  0  0  0  0  0  0  0  0  0
   20.7267   -3.2689  -18.4131 C   0  0  1  0  0  0  0  0  0  0  0  0
   20.2434   -1.8488  -18.7647 C   0  0  0  0  0  0  0  0  0  0  0  0
   19.7295   -4.2232  -18.9369 C   0  0  0  0  0  0  0  0  0  0  0  0
   19.9221   -5.6686  -18.6901 C   0  0  2  0  0  0  0  0  0  0  0  0
   18.8825   -6.4831  -19.3035 N   0  0  0  0  0  0  0  0  0  0  0  0
   20.0409   -6.0516  -17.2829 C   0  0  0  0  0  0  0  0  0  0  0  0
   19.0143   -6.0770  -16.5576 O   0  0  0  0  0  0  0  0  0  0  0  0
   21.2673   -6.4137  -16.6523 N   0  0  0  0  0  0  0  0  0  0  0  0
   21.2863   -6.7451  -15.2408 C   0  0  1  0  0  0  0  0  0  0  0  0
   21.5276   -8.2542  -15.1988 C   0  0  0  0  0  0  0  0  0  0  0  0
   21.7842   -8.7684  -13.8564 C   0  0  0  0  0  0  0  0  0  0  0  0
   20.8409   -8.5486  -12.8527 C   0  0  0  0  0  0  0  0  0  0  0  0
   21.0366   -9.0154  -11.5694 C   0  0  0  0  0  0  0  0  0  0  0  0
   22.1760   -9.7188  -11.2306 C   0  0  0  0  0  0  0  0  0  0  0  0
   23.1117   -9.9448  -12.1978 C   0  0  0  0  0  0  0  0  0  0  0  0
   22.9064   -9.4739  -13.4781 C   0  0  0  0  0  0  0  0  0  0  0  0
   22.2832   -6.0145  -14.4579 C   0  0  0  0  0  0  0  0  0  0  0  0
   23.4086   -5.6547  -14.9501 O   0  0  0  0  0  0  0  0  0  0  0  0
   22.1005   -5.6510  -13.1323 O   0  0  0  0  0  0  0  0  0  0  0  0
  2  3  2  0
  2  1  1  0
  4  2  1  0
  5  4  1  0
  6  5  1  0
  6  7  1  6
  8  6  1  0
  9  8  2  0
 11 10  1  6
 11 13  1  0
 11 12  1  0
 14 13  1  1
 14 16  1  0
 14 15  1  0
 15  8  1  0
 16 18  1  0
 17 16  2  0
 18 19  1  0
 19 20  1  6
 19 27  1  0
 21 20  1  0
 22 21  2  0
 23 22  1  0
 24 25  1  0
 24 23  2  0
 25 26  2  0
 26 21  1  0
 27 28  2  0
 27 29  1  0
M  END
$$$$
