QLF.pdb
     RDKit          3D

 29 29  0  0  1  0  0  0  0  0999 V2000
   28.0257  -26.9855  -15.5759 N   0  0  0  0  0  0  0  0  0  0  0  0
   27.7010  -26.8469  -16.9459 C   0  0  0  0  0  0  0  0  0  0  0  0
   27.1752  -27.7901  -17.5725 O   0  0  0  0  0  0  0  0  0  0  0  0
   27.9901  -25.5704  -17.6343 C   0  0  0  0  0  0  0  0  0  0  0  0
   28.5871  -24.5479  -16.6844 C   0  0  0  0  0  0  0  0  0  0  0  0
   28.7322  -23.2513  -17.4616 C   0  0  2  0  0  0  0  0  0  0  0  0
   30.0889  -23.1534  -17.9152 N   0  0  0  0  0  0  0  0  0  0  0  0
   28.4630  -22.1493  -16.5084 C   0  0  0  0  0  0  0  0  0  0  0  0
   29.2300  -21.9646  -15.5445 O   0  0  0  0  0  0  0  0  0  0  0  0
   27.4373  -16.9639  -15.0775 C   0  0  0  0  0  0  0  0  0  0  0  0
   26.3132  -17.8046  -15.6110 C   0  0  1  0  0  0  0  0  0  0  0  0
   25.4145  -16.9173  -16.4934 C   0  0  0  0  0  0  0  0  0  0  0  0
   26.7432  -18.9572  -16.4269 C   0  0  0  0  0  0  0  0  0  0  0  0
   27.0659  -20.2327  -15.7517 C   0  0  2  0  0  0  0  0  0  0  0  0
   27.3374  -21.3098  -16.6933 N   0  0  0  0  0  0  0  0  0  0  0  0
   26.0680  -20.6996  -14.7888 C   0  0  0  0  0  0  0  0  0  0  0  0
   25.1628  -21.4867  -15.1652 O   0  0  0  0  0  0  0  0  0  0  0  0
   26.0445  -20.3233  -13.4137 N   0  0  0  0  0  0  0  0  0  0  0  0
   24.9947  -20.8184  -12.5447 C   0  0  1  0  0  0  0  0  0  0  0  0
   25.2484  -20.1357  -11.2005 C   0  0  0  0  0  0  0  0  0  0  0  0
   24.2820  -20.4995  -10.1681 C   0  0  0  0  0  0  0  0  0  0  0  0
   24.6895  -21.3159   -9.1131 C   0  0  0  0  0  0  0  0  0  0  0  0
   23.8145  -21.6862   -8.1129 C   0  0  0  0  0  0  0  0  0  0  0  0
   22.5003  -21.2613   -8.1194 C   0  0  0  0  0  0  0  0  0  0  0  0
   22.0810  -20.4618   -9.1426 C   0  0  0  0  0  0  0  0  0  0  0  0
   22.9638  -20.0971  -10.1380 C   0  0  0  0  0  0  0  0  0  0  0  0
   23.6366  -20.5722  -13.0302 C   0  0  0  0  0  0  0  0  0  0  0  0
   22.6904  -21.4194  -12.8717 O   0  0  0  0  0  0  0  0  0  0  0  0
   23.2583  -19.4155  -13.6948 O   0  0  0  0  0  0  0  0  0  0  0  0
  2  3  2  0
  2  1  1  0
  4  2  1  0
  5  4  1  0
  6  5  1  0
  6  7  1  1
  8  6  1  0
  9  8  2  0
 11 10  1  6
 11 13  1  0
 11 12  1  0
 14 13  1  6
 14 16  1  0
 14 15  1  0
 15  8  1  0
 16 18  1  0
 17 16  2  0
 18 19  1  0
 19 20  1  1
 19 27  1  0
 21 20  1  0
 22 21  2  0
 23 22  1  0
 24 25  1  0
 24 23  2  0
 25 26  2  0
 26 21  1  0
 27 28  2  0
 27 29  1  0
M  END
$$$$
