QLF.pdb
     RDKit          3D

 29 29  0  0  1  0  0  0  0  0999 V2000
   20.3454  -20.9755  -16.6175 N   0  0  0  0  0  0  0  0  0  0  0  0
   20.5876  -19.6925  -17.1623 C   0  0  0  0  0  0  0  0  0  0  0  0
   19.6402  -18.9789  -17.5520 O   0  0  0  0  0  0  0  0  0  0  0  0
   21.9779  -19.1998  -17.2675 C   0  0  0  0  0  0  0  0  0  0  0  0
   22.9690  -20.2054  -16.7098 C   0  0  0  0  0  0  0  0  0  0  0  0
   23.2453  -19.8056  -15.2710 C   0  0  2  0  0  0  0  0  0  0  0  0
   23.5879  -18.4134  -15.2535 N   0  0  0  0  0  0  0  0  0  0  0  0
   24.4173  -20.5951  -14.8257 C   0  0  0  0  0  0  0  0  0  0  0  0
   24.5025  -21.8001  -15.1297 O   0  0  0  0  0  0  0  0  0  0  0  0
   29.4543  -19.0661  -15.3606 C   0  0  0  0  0  0  0  0  0  0  0  0
   28.1072  -19.7042  -15.1797 C   0  0  1  0  0  0  0  0  0  0  0  0
   27.9877  -20.8831  -16.1644 C   0  0  0  0  0  0  0  0  0  0  0  0
   27.8536  -20.2273  -13.8228 C   0  0  0  0  0  0  0  0  0  0  0  0
   26.5201  -20.7828  -13.5063 C   0  0  2  0  0  0  0  0  0  0  0  0
   25.4364  -19.9812  -14.0572 N   0  0  0  0  0  0  0  0  0  0  0  0
   26.2567  -21.0030  -12.0839 C   0  0  0  0  0  0  0  0  0  0  0  0
   26.9517  -21.8332  -11.4451 O   0  0  0  0  0  0  0  0  0  0  0  0
   25.2451  -20.3249  -11.3425 N   0  0  0  0  0  0  0  0  0  0  0  0
   24.8225  -20.8396  -10.0545 C   0  0  1  0  0  0  0  0  0  0  0  0
   25.0311  -19.6772   -9.0837 C   0  0  0  0  0  0  0  0  0  0  0  0
   26.2608  -19.7807   -8.3030 C   0  0  0  0  0  0  0  0  0  0  0  0
   27.1542  -18.7096   -8.2973 C   0  0  0  0  0  0  0  0  0  0  0  0
   28.3283  -18.7584   -7.5746 C   0  0  0  0  0  0  0  0  0  0  0  0
   28.6630  -19.8717   -6.8288 C   0  0  0  0  0  0  0  0  0  0  0  0
   27.8026  -20.9309   -6.8207 C   0  0  0  0  0  0  0  0  0  0  0  0
   26.6310  -20.8721   -7.5467 C   0  0  0  0  0  0  0  0  0  0  0  0
   23.4463  -21.3352  -10.0194 C   0  0  0  0  0  0  0  0  0  0  0  0
   22.6606  -21.2413  -11.0253 O   0  0  0  0  0  0  0  0  0  0  0  0
   22.8788  -21.9430   -8.9097 O   0  0  0  0  0  0  0  0  0  0  0  0
  2  3  2  0
  2  1  1  0
  4  2  1  0
  5  4  1  0
  6  5  1  0
  6  7  1  6
  8  6  1  0
  9  8  2  0
 11 10  1  1
 11 13  1  0
 11 12  1  0
 14 13  1  1
 14 16  1  0
 14 15  1  0
 15  8  1  0
 16 18  1  0
 17 16  2  0
 18 19  1  0
 19 20  1  1
 19 27  1  0
 21 20  1  0
 22 21  2  0
 23 22  1  0
 24 25  1  0
 24 23  2  0
 25 26  2  0
 26 21  1  0
 27 28  2  0
 27 29  1  0
M  END
$$$$
