QLF.pdb
     RDKit          3D

 29 29  0  0  1  0  0  0  0  0999 V2000
   20.5384  -17.6291  -19.4517 N   0  0  0  0  0  0  0  0  0  0  0  0
   20.1614  -16.7048  -18.4491 C   0  0  0  0  0  0  0  0  0  0  0  0
   19.4299  -15.7315  -18.7253 O   0  0  0  0  0  0  0  0  0  0  0  0
   20.6422  -16.9004  -17.0644 C   0  0  0  0  0  0  0  0  0  0  0  0
   21.4542  -18.1760  -16.9316 C   0  0  0  0  0  0  0  0  0  0  0  0
   22.9187  -17.7744  -16.9518 C   0  0  2  0  0  0  0  0  0  0  0  0
   23.3260  -17.6442  -18.3205 N   0  0  0  0  0  0  0  0  0  0  0  0
   23.6751  -18.8854  -16.3284 C   0  0  0  0  0  0  0  0  0  0  0  0
   23.4155  -20.0626  -16.6422 O   0  0  0  0  0  0  0  0  0  0  0  0
   27.9453  -21.4218  -14.3639 C   0  0  0  0  0  0  0  0  0  0  0  0
   27.5117  -20.3034  -13.4606 C   0  0  1  0  0  0  0  0  0  0  0  0
   28.7686  -19.5896  -12.9272 C   0  0  0  0  0  0  0  0  0  0  0  0
   26.6610  -19.2861  -14.1091 C   0  0  0  0  0  0  0  0  0  0  0  0
   25.3684  -19.7010  -14.6957 C   0  0  2  0  0  0  0  0  0  0  0  0
   24.6892  -18.6091  -15.3790 N   0  0  0  0  0  0  0  0  0  0  0  0
   24.4277  -20.3187  -13.7605 C   0  0  0  0  0  0  0  0  0  0  0  0
   24.8651  -20.9281  -12.7517 O   0  0  0  0  0  0  0  0  0  0  0  0
   23.0099  -20.2778  -13.9066 N   0  0  0  0  0  0  0  0  0  0  0  0
   22.1652  -21.0198  -12.9910 C   0  0  1  0  0  0  0  0  0  0  0  0
   21.9023  -20.0543  -11.8352 C   0  0  0  0  0  0  0  0  0  0  0  0
   20.7578  -19.1749  -12.0565 C   0  0  0  0  0  0  0  0  0  0  0  0
   20.8905  -18.0928  -12.9265 C   0  0  0  0  0  0  0  0  0  0  0  0
   19.8384  -17.2343  -13.1697 C   0  0  0  0  0  0  0  0  0  0  0  0
   18.6126  -17.4151  -12.5593 C   0  0  0  0  0  0  0  0  0  0  0  0
   18.4615  -18.4678  -11.7044 C   0  0  0  0  0  0  0  0  0  0  0  0
   19.5198  -19.3206  -11.4680 C   0  0  0  0  0  0  0  0  0  0  0  0
   20.9199  -21.5150  -13.5780 C   0  0  0  0  0  0  0  0  0  0  0  0
   20.0649  -22.1852  -12.9012 O   0  0  0  0  0  0  0  0  0  0  0  0
   20.5592  -21.3049  -14.9004 O   0  0  0  0  0  0  0  0  0  0  0  0
  2  3  2  0
  2  1  1  0
  4  2  1  0
  5  4  1  0
  6  5  1  0
  6  7  1  6
  8  6  1  0
  9  8  2  0
 11 10  1  6
 11 13  1  0
 11 12  1  0
 14 13  1  1
 14 16  1  0
 14 15  1  0
 15  8  1  0
 16 18  1  0
 17 16  2  0
 18 19  1  0
 19 20  1  1
 19 27  1  0
 21 20  1  0
 22 21  2  0
 23 22  1  0
 24 25  1  0
 24 23  2  0
 25 26  2  0
 26 21  1  0
 27 28  2  0
 27 29  1  0
M  END
$$$$
