QLF.pdb
     RDKit          3D

 29 29  0  0  1  0  0  0  0  0999 V2000
   20.1689  -18.8296  -12.2417 N   0  0  0  0  0  0  0  0  0  0  0  0
   20.2963  -19.6570  -13.3822 C   0  0  0  0  0  0  0  0  0  0  0  0
   20.3847  -19.1570  -14.5228 O   0  0  0  0  0  0  0  0  0  0  0  0
   20.3242  -21.1258  -13.2133 C   0  0  0  0  0  0  0  0  0  0  0  0
   21.6766  -21.6039  -12.7168 C   0  0  0  0  0  0  0  0  0  0  0  0
   22.6805  -21.3207  -13.8206 C   0  0  2  0  0  0  0  0  0  0  0  0
   22.5210  -22.3213  -14.8351 N   0  0  0  0  0  0  0  0  0  0  0  0
   24.0274  -21.4564  -13.2184 C   0  0  0  0  0  0  0  0  0  0  0  0
   24.4786  -22.5888  -12.9621 O   0  0  0  0  0  0  0  0  0  0  0  0
   28.4004  -18.2179  -14.5121 C   0  0  0  0  0  0  0  0  0  0  0  0
   27.5777  -19.4138  -14.1278 C   0  0  1  0  0  0  0  0  0  0  0  0
   28.4546  -20.6738  -14.2588 C   0  0  0  0  0  0  0  0  0  0  0  0
   27.0496  -19.3777  -12.7497 C   0  0  0  0  0  0  0  0  0  0  0  0
   26.1089  -20.4326  -12.3147 C   0  0  2  0  0  0  0  0  0  0  0  0
   24.7982  -20.3024  -12.9354 N   0  0  0  0  0  0  0  0  0  0  0  0
   25.9267  -20.5489  -10.8675 C   0  0  0  0  0  0  0  0  0  0  0  0
   24.9077  -20.0481  -10.3278 O   0  0  0  0  0  0  0  0  0  0  0  0
   26.8408  -21.2105   -9.9959 N   0  0  0  0  0  0  0  0  0  0  0  0
   26.7301  -21.0349   -8.5608 C   0  0  1  0  0  0  0  0  0  0  0  0
   28.1727  -20.9010   -8.0729 C   0  0  0  0  0  0  0  0  0  0  0  0
   28.2818  -20.5306   -6.6647 C   0  0  0  0  0  0  0  0  0  0  0  0
   28.7939  -19.2773   -6.3294 C   0  0  0  0  0  0  0  0  0  0  0  0
   28.9156  -18.8803   -5.0138 C   0  0  0  0  0  0  0  0  0  0  0  0
   28.5342  -19.7110   -3.9783 C   0  0  0  0  0  0  0  0  0  0  0  0
   28.0306  -20.9417   -4.2845 C   0  0  0  0  0  0  0  0  0  0  0  0
   27.9129  -21.3291   -5.6033 C   0  0  0  0  0  0  0  0  0  0  0  0
   25.9102  -19.8952   -8.1490 C   0  0  0  0  0  0  0  0  0  0  0  0
   24.9228  -20.0195   -7.3442 O   0  0  0  0  0  0  0  0  0  0  0  0
   26.1270  -18.5973   -8.5865 O   0  0  0  0  0  0  0  0  0  0  0  0
  2  3  2  0
  2  1  1  0
  4  2  1  0
  5  4  1  0
  6  5  1  0
  6  7  1  6
  8  6  1  0
  9  8  2  0
 11 10  1  1
 11 13  1  0
 11 12  1  0
 14 13  1  1
 14 16  1  0
 14 15  1  0
 15  8  1  0
 16 18  1  0
 17 16  2  0
 18 19  1  0
 19 20  1  6
 19 27  1  0
 21 20  1  0
 22 21  2  0
 23 22  1  0
 24 25  1  0
 24 23  2  0
 25 26  2  0
 26 21  1  0
 27 28  2  0
 27 29  1  0
M  END
$$$$
