QLF.pdb
     RDKit          3D

 29 29  0  0  1  0  0  0  0  0999 V2000
   30.3781  -23.2354  -14.5910 N   0  0  0  0  0  0  0  0  0  0  0  0
   30.1150  -22.9311  -15.9474 C   0  0  0  0  0  0  0  0  0  0  0  0
   30.6733  -23.5719  -16.8618 O   0  0  0  0  0  0  0  0  0  0  0  0
   29.1691  -21.8430  -16.2763 C   0  0  0  0  0  0  0  0  0  0  0  0
   28.5417  -21.2532  -15.0262 C   0  0  0  0  0  0  0  0  0  0  0  0
   27.0947  -20.9374  -15.3620 C   0  0  2  0  0  0  0  0  0  0  0  0
   27.0833  -19.8960  -16.3475 N   0  0  0  0  0  0  0  0  0  0  0  0
   26.4685  -20.4301  -14.1187 C   0  0  0  0  0  0  0  0  0  0  0  0
   26.5297  -19.2161  -13.8466 O   0  0  0  0  0  0  0  0  0  0  0  0
   21.3157  -21.1754  -12.9727 C   0  0  0  0  0  0  0  0  0  0  0  0
   22.7360  -20.7063  -13.1047 C   0  0  1  0  0  0  0  0  0  0  0  0
   22.7569  -19.1701  -12.9899 C   0  0  0  0  0  0  0  0  0  0  0  0
   23.6567  -21.2438  -12.0835 C   0  0  0  0  0  0  0  0  0  0  0  0
   25.0706  -20.8104  -12.0941 C   0  0  2  0  0  0  0  0  0  0  0  0
   25.8031  -21.3230  -13.2435 N   0  0  0  0  0  0  0  0  0  0  0  0
   25.8294  -21.1253  -10.8832 C   0  0  0  0  0  0  0  0  0  0  0  0
   26.1284  -22.3200  -10.6309 O   0  0  0  0  0  0  0  0  0  0  0  0
   26.2737  -20.1518   -9.9408 N   0  0  0  0  0  0  0  0  0  0  0  0
   26.6864  -20.5638   -8.6133 C   0  0  1  0  0  0  0  0  0  0  0  0
   27.4945  -19.3837   -8.0735 C   0  0  0  0  0  0  0  0  0  0  0  0
   28.0480  -19.6139   -6.7420 C   0  0  0  0  0  0  0  0  0  0  0  0
   29.0640  -20.5560   -6.5820 C   0  0  0  0  0  0  0  0  0  0  0  0
   29.6203  -20.8086   -5.3451 C   0  0  0  0  0  0  0  0  0  0  0  0
   29.1907  -20.1364   -4.2175 C   0  0  0  0  0  0  0  0  0  0  0  0
   28.1975  -19.2105   -4.3520 C   0  0  0  0  0  0  0  0  0  0  0  0
   27.6479  -18.9653   -5.5933 C   0  0  0  0  0  0  0  0  0  0  0  0
   25.5861  -20.9224   -7.7181 C   0  0  0  0  0  0  0  0  0  0  0  0
   24.3904  -20.5056   -7.9045 O   0  0  0  0  0  0  0  0  0  0  0  0
   25.7377  -21.7346   -6.6045 O   0  0  0  0  0  0  0  0  0  0  0  0
  2  3  2  0
  2  1  1  0
  4  2  1  0
  5  4  1  0
  6  5  1  0
  6  7  1  6
  8  6  1  0
  9  8  2  0
 11 10  1  1
 11 13  1  0
 11 12  1  0
 14 13  1  1
 14 16  1  0
 14 15  1  0
 15  8  1  0
 16 18  1  0
 17 16  2  0
 18 19  1  0
 19 20  1  1
 19 27  1  0
 21 20  1  0
 22 21  2  0
 23 22  1  0
 24 25  1  0
 24 23  2  0
 25 26  2  0
 26 21  1  0
 27 28  2  0
 27 29  1  0
M  END
$$$$
