QLF.pdb
     RDKit          3D

 29 29  0  0  1  0  0  0  0  0999 V2000
   19.8631  -18.3945  -12.1214 N   0  0  0  0  0  0  0  0  0  0  0  0
   18.8025  -19.1659  -12.6520 C   0  0  0  0  0  0  0  0  0  0  0  0
   17.6460  -19.0552  -12.1948 O   0  0  0  0  0  0  0  0  0  0  0  0
   19.0744  -20.1094  -13.7578 C   0  0  0  0  0  0  0  0  0  0  0  0
   20.5401  -20.0973  -14.1527 C   0  0  0  0  0  0  0  0  0  0  0  0
   20.6565  -19.2412  -15.4017 C   0  0  2  0  0  0  0  0  0  0  0  0
   20.0604  -19.9586  -16.4906 N   0  0  0  0  0  0  0  0  0  0  0  0
   22.1037  -19.0731  -15.6711 C   0  0  0  0  0  0  0  0  0  0  0  0
   22.7204  -19.9503  -16.3050 O   0  0  0  0  0  0  0  0  0  0  0  0
   27.1685  -16.3985  -14.7323 C   0  0  0  0  0  0  0  0  0  0  0  0
   26.0327  -16.0046  -15.6320 C   0  0  1  0  0  0  0  0  0  0  0  0
   26.2472  -16.6634  -17.0081 C   0  0  0  0  0  0  0  0  0  0  0  0
   24.6979  -16.4070  -15.1466 C   0  0  0  0  0  0  0  0  0  0  0  0
   24.2147  -17.7756  -15.4302 C   0  0  2  0  0  0  0  0  0  0  0  0
   22.7826  -17.9192  -15.2090 N   0  0  0  0  0  0  0  0  0  0  0  0
   24.9047  -18.8440  -14.7067 C   0  0  0  0  0  0  0  0  0  0  0  0
   25.0246  -18.7707  -13.4574 O   0  0  0  0  0  0  0  0  0  0  0  0
   25.4645  -19.9993  -15.3270 N   0  0  0  0  0  0  0  0  0  0  0  0
   26.4112  -20.8243  -14.6020 C   0  0  1  0  0  0  0  0  0  0  0  0
   25.5533  -21.8822  -13.9077 C   0  0  0  0  0  0  0  0  0  0  0  0
   25.0331  -21.4551  -12.6118 C   0  0  0  0  0  0  0  0  0  0  0  0
   25.8994  -21.3866  -11.5209 C   0  0  0  0  0  0  0  0  0  0  0  0
   25.4566  -20.9878  -10.2768 C   0  0  0  0  0  0  0  0  0  0  0  0
   24.1364  -20.6410  -10.0653 C   0  0  0  0  0  0  0  0  0  0  0  0
   23.2720  -20.7011  -11.1194 C   0  0  0  0  0  0  0  0  0  0  0  0
   23.7249  -21.1011  -12.3596 C   0  0  0  0  0  0  0  0  0  0  0  0
   27.4517  -21.4300  -15.4334 C   0  0  0  0  0  0  0  0  0  0  0  0
   27.3735  -21.4612  -16.7106 O   0  0  0  0  0  0  0  0  0  0  0  0
   28.5992  -22.0149  -14.9198 O   0  0  0  0  0  0  0  0  0  0  0  0
  2  3  2  0
  2  1  1  0
  4  2  1  0
  5  4  1  0
  6  5  1  0
  6  7  1  6
  8  6  1  0
  9  8  2  0
 11 10  1  1
 11 13  1  0
 11 12  1  0
 14 13  1  1
 14 16  1  0
 14 15  1  0
 15  8  1  0
 16 18  1  0
 17 16  2  0
 18 19  1  0
 19 20  1  6
 19 27  1  0
 21 20  1  0
 22 21  2  0
 23 22  1  0
 24 25  1  0
 24 23  2  0
 25 26  2  0
 26 21  1  0
 27 28  2  0
 27 29  1  0
M  END
$$$$
