QLF.pdb
     RDKit          3D

 29 29  0  0  1  0  0  0  0  0999 V2000
   27.4953  -17.2525  -15.7687 N   0  0  0  0  0  0  0  0  0  0  0  0
   27.1125  -17.2019  -17.1298 C   0  0  0  0  0  0  0  0  0  0  0  0
   27.8282  -16.6177  -17.9695 O   0  0  0  0  0  0  0  0  0  0  0  0
   25.8521  -17.8492  -17.5533 C   0  0  0  0  0  0  0  0  0  0  0  0
   25.0808  -18.3970  -16.3661 C   0  0  0  0  0  0  0  0  0  0  0  0
   25.8965  -19.5451  -15.7979 C   0  0  2  0  0  0  0  0  0  0  0  0
   26.2797  -20.3994  -16.8839 N   0  0  0  0  0  0  0  0  0  0  0  0
   25.0007  -20.2963  -14.8878 C   0  0  0  0  0  0  0  0  0  0  0  0
   24.3642  -21.2770  -15.3175 O   0  0  0  0  0  0  0  0  0  0  0  0
   26.6304  -21.6442  -11.4140 C   0  0  0  0  0  0  0  0  0  0  0  0
   25.4000  -21.3978  -10.5893 C   0  0  1  0  0  0  0  0  0  0  0  0
   25.8285  -20.7876   -9.2410 C   0  0  0  0  0  0  0  0  0  0  0  0
   24.4225  -20.4790  -11.2054 C   0  0  0  0  0  0  0  0  0  0  0  0
   24.0447  -20.6789  -12.6212 C   0  0  2  0  0  0  0  0  0  0  0  0
   24.8692  -19.9000  -13.5344 N   0  0  0  0  0  0  0  0  0  0  0  0
   22.6383  -20.4234  -12.9343 C   0  0  0  0  0  0  0  0  0  0  0  0
   22.1672  -19.2685  -12.7775 O   0  0  0  0  0  0  0  0  0  0  0  0
   21.7344  -21.4120  -13.4230 N   0  0  0  0  0  0  0  0  0  0  0  0
   20.3321  -21.0879  -13.5993 C   0  0  1  0  0  0  0  0  0  0  0  0
   20.0586  -21.3388  -15.0824 C   0  0  0  0  0  0  0  0  0  0  0  0
   20.5800  -20.2932  -15.9583 C   0  0  0  0  0  0  0  0  0  0  0  0
   20.0945  -18.9922  -15.8272 C   0  0  0  0  0  0  0  0  0  0  0  0
   20.5562  -17.9697  -16.6300 C   0  0  0  0  0  0  0  0  0  0  0  0
   21.5180  -18.1971  -17.5949 C   0  0  0  0  0  0  0  0  0  0  0  0
   22.0064  -19.4630  -17.7397 C   0  0  0  0  0  0  0  0  0  0  0  0
   21.5381  -20.4786  -16.9320 C   0  0  0  0  0  0  0  0  0  0  0  0
   19.4201  -21.8473  -12.7436 C   0  0  0  0  0  0  0  0  0  0  0  0
   19.7605  -22.9512  -12.1925 O   0  0  0  0  0  0  0  0  0  0  0  0
   18.1247  -21.4444  -12.4565 O   0  0  0  0  0  0  0  0  0  0  0  0
  2  3  2  0
  2  1  1  0
  4  2  1  0
  5  4  1  0
  6  5  1  0
  6  7  1  6
  8  6  1  0
  9  8  2  0
 11 10  1  6
 11 13  1  0
 11 12  1  0
 14 13  1  1
 14 16  1  0
 14 15  1  0
 15  8  1  0
 16 18  1  0
 17 16  2  0
 18 19  1  0
 19 20  1  6
 19 27  1  0
 21 20  1  0
 22 21  2  0
 23 22  1  0
 24 25  1  0
 24 23  2  0
 25 26  2  0
 26 21  1  0
 27 28  2  0
 27 29  1  0
M  END
$$$$
