QLF.pdb
     RDKit          3D

 29 29  0  0  1  0  0  0  0  0999 V2000
   25.4513  -17.9785  -14.0526 N   0  0  0  0  0  0  0  0  0  0  0  0
   25.3491  -19.0322  -14.9911 C   0  0  0  0  0  0  0  0  0  0  0  0
   25.6687  -18.8529  -16.1846 O   0  0  0  0  0  0  0  0  0  0  0  0
   24.8586  -20.3545  -14.5464 C   0  0  0  0  0  0  0  0  0  0  0  0
   24.5025  -20.3492  -13.0708 C   0  0  0  0  0  0  0  0  0  0  0  0
   25.7976  -20.5383  -12.3006 C   0  0  2  0  0  0  0  0  0  0  0  0
   26.5793  -21.5298  -12.9803 N   0  0  0  0  0  0  0  0  0  0  0  0
   25.4272  -21.0525  -10.9614 C   0  0  0  0  0  0  0  0  0  0  0  0
   25.0943  -22.2454  -10.8277 O   0  0  0  0  0  0  0  0  0  0  0  0
   27.6752  -18.6939   -6.4937 C   0  0  0  0  0  0  0  0  0  0  0  0
   27.1716  -19.7567   -7.4273 C   0  0  1  0  0  0  0  0  0  0  0  0
   27.8032  -21.1027   -7.0231 C   0  0  0  0  0  0  0  0  0  0  0  0
   25.7058  -19.9316   -7.4241 C   0  0  0  0  0  0  0  0  0  0  0  0
   25.0721  -20.6900   -8.5241 C   0  0  2  0  0  0  0  0  0  0  0  0
   25.4516  -20.1902   -9.8381 N   0  0  0  0  0  0  0  0  0  0  0  0
   23.6125  -20.7746   -8.4646 C   0  0  0  0  0  0  0  0  0  0  0  0
   22.9166  -20.0114   -9.1814 O   0  0  0  0  0  0  0  0  0  0  0  0
   22.8964  -21.6865   -7.6347 N   0  0  0  0  0  0  0  0  0  0  0  0
   21.4669  -21.8559   -7.8091 C   0  0  1  0  0  0  0  0  0  0  0  0
   21.3113  -22.4170   -9.2227 C   0  0  0  0  0  0  0  0  0  0  0  0
   19.9336  -22.7539   -9.5699 C   0  0  0  0  0  0  0  0  0  0  0  0
   19.1211  -21.7795  -10.1494 C   0  0  0  0  0  0  0  0  0  0  0  0
   17.8134  -22.0490  -10.4965 C   0  0  0  0  0  0  0  0  0  0  0  0
   17.2596  -23.2962  -10.2825 C   0  0  0  0  0  0  0  0  0  0  0  0
   18.0375  -24.2640   -9.7166 C   0  0  0  0  0  0  0  0  0  0  0  0
   19.3440  -23.9843   -9.3732 C   0  0  0  0  0  0  0  0  0  0  0  0
   20.8301  -22.7157   -6.8112 C   0  0  0  0  0  0  0  0  0  0  0  0
   21.4250  -23.7286   -6.3028 O   0  0  0  0  0  0  0  0  0  0  0  0
   19.5444  -22.5127   -6.3332 O   0  0  0  0  0  0  0  0  0  0  0  0
  2  3  2  0
  2  1  1  0
  4  2  1  0
  5  4  1  0
  6  5  1  0
  6  7  1  6
  8  6  1  0
  9  8  2  0
 11 10  1  1
 11 13  1  0
 11 12  1  0
 14 13  1  1
 14 16  1  0
 14 15  1  0
 15  8  1  0
 16 18  1  0
 17 16  2  0
 18 19  1  0
 19 20  1  6
 19 27  1  0
 21 20  1  0
 22 21  2  0
 23 22  1  0
 24 25  1  0
 24 23  2  0
 25 26  2  0
 26 21  1  0
 27 28  2  0
 27 29  1  0
M  END
$$$$
