QLF.pdb
     RDKit          3D

 29 29  0  0  1  0  0  0  0  0999 V2000
   22.9705  -23.6798  -14.7887 N   0  0  0  0  0  0  0  0  0  0  0  0
   22.1647  -22.6410  -15.3114 C   0  0  0  0  0  0  0  0  0  0  0  0
   22.2149  -22.3472  -16.5238 O   0  0  0  0  0  0  0  0  0  0  0  0
   21.2579  -21.9016  -14.4071 C   0  0  0  0  0  0  0  0  0  0  0  0
   21.3831  -22.3864  -12.9741 C   0  0  0  0  0  0  0  0  0  0  0  0
   21.5732  -21.1563  -12.1040 C   0  0  2  0  0  0  0  0  0  0  0  0
   20.6730  -20.1404  -12.5662 N   0  0  0  0  0  0  0  0  0  0  0  0
   22.9660  -20.6962  -12.3129 C   0  0  0  0  0  0  0  0  0  0  0  0
   23.1838  -19.6703  -12.9850 O   0  0  0  0  0  0  0  0  0  0  0  0
   26.8062  -21.4969   -8.3183 C   0  0  0  0  0  0  0  0  0  0  0  0
   25.8918  -20.9682   -9.3856 C   0  0  1  0  0  0  0  0  0  0  0  0
   25.8823  -19.4297   -9.3040 C   0  0  0  0  0  0  0  0  0  0  0  0
   26.2754  -21.3408  -10.7616 C   0  0  0  0  0  0  0  0  0  0  0  0
   25.4077  -20.9255  -11.8848 C   0  0  2  0  0  0  0  0  0  0  0  0
   24.0450  -21.4209  -11.7504 N   0  0  0  0  0  0  0  0  0  0  0  0
   25.8993  -21.2778  -13.2172 C   0  0  0  0  0  0  0  0  0  0  0  0
   25.7820  -22.4594  -13.6299 O   0  0  0  0  0  0  0  0  0  0  0  0
   26.5159  -20.3555  -14.1129 N   0  0  0  0  0  0  0  0  0  0  0  0
   26.9378  -20.7950  -15.4287 C   0  0  1  0  0  0  0  0  0  0  0  0
   26.3228  -19.7808  -16.3932 C   0  0  0  0  0  0  0  0  0  0  0  0
   26.8700  -18.4342  -16.2533 C   0  0  0  0  0  0  0  0  0  0  0  0
   27.9822  -18.0704  -17.0122 C   0  0  0  0  0  0  0  0  0  0  0  0
   28.5351  -16.8101  -16.9167 C   0  0  0  0  0  0  0  0  0  0  0  0
   28.0065  -15.8604  -16.0644 C   0  0  0  0  0  0  0  0  0  0  0  0
   26.9182  -16.1958  -15.3127 C   0  0  0  0  0  0  0  0  0  0  0  0
   26.3728  -17.4588  -15.4155 C   0  0  0  0  0  0  0  0  0  0  0  0
   28.3872  -20.8967  -15.6003 C   0  0  0  0  0  0  0  0  0  0  0  0
   29.2113  -20.4405  -14.7337 O   0  0  0  0  0  0  0  0  0  0  0  0
   28.9891  -21.4887  -16.7003 O   0  0  0  0  0  0  0  0  0  0  0  0
  2  3  2  0
  2  1  1  0
  4  2  1  0
  5  4  1  0
  6  5  1  0
  6  7  1  6
  8  6  1  0
  9  8  2  0
 11 10  1  1
 11 13  1  0
 11 12  1  0
 14 13  1  1
 14 16  1  0
 14 15  1  0
 15  8  1  0
 16 18  1  0
 17 16  2  0
 18 19  1  0
 19 20  1  6
 19 27  1  0
 21 20  1  0
 22 21  2  0
 23 22  1  0
 24 25  1  0
 24 23  2  0
 25 26  2  0
 26 21  1  0
 27 28  2  0
 27 29  1  0
M  END
$$$$
