GYS.pdb
     RDKit          3D

 23 23  0  0  1  0  0  0  0  0999 V2000
   26.7361  -24.8590  -16.3968 N   0  0  0  0  0  0  0  0  0  0  0  0
   26.5518  -23.4345  -16.2645 C   0  0  0  0  0  0  0  0  0  0  0  0
   25.5731  -23.1005  -15.1965 C   0  0  0  0  0  0  0  0  0  0  0  0
   24.8994  -23.9752  -14.6015 O   0  0  0  0  0  0  0  0  0  0  0  0
   24.6120  -20.9238   -7.3542 O   0  0  0  0  0  0  0  0  0  0  0  0
   24.6749  -20.7350   -8.7365 C   0  0  0  0  0  0  0  0  0  0  0  0
   23.5449  -20.3863   -9.4464 C   0  0  0  0  0  0  0  0  0  0  0  0
   23.6357  -20.2069  -10.8058 C   0  0  0  0  0  0  0  0  0  0  0  0
   24.8303  -20.3611  -11.5199 C   0  0  0  0  0  0  0  0  0  0  0  0
   24.7687  -20.1275  -12.9868 C   0  0  0  0  0  0  0  0  0  0  0  0
   24.4435  -21.3863  -13.7154 C   0  0  2  0  0  0  0  0  0  0  0  0
   25.3133  -21.7758  -14.7560 N   0  0  0  0  0  0  0  0  0  0  0  0
   23.0803  -21.2301  -14.3545 C   0  0  0  0  0  0  0  0  0  0  0  0
   22.9179  -20.4642  -15.3361 O   0  0  0  0  0  0  0  0  0  0  0  0
   25.9253  -20.7030  -10.8033 C   0  0  0  0  0  0  0  0  0  0  0  0
   25.8571  -20.8897   -9.4280 C   0  0  0  0  0  0  0  0  0  0  0  0
   19.5077  -23.3831  -12.9124 O   0  0  0  0  0  0  0  0  0  0  0  0
   19.8348  -23.1472  -14.2536 C   0  0  0  0  0  0  0  0  0  0  0  0
   20.6276  -21.9005  -14.4044 C   0  0  2  0  0  0  0  0  0  0  0  0
   21.9589  -21.9353  -13.8707 N   0  0  0  0  0  0  0  0  0  0  0  0
   19.8291  -20.7084  -14.0108 C   0  0  0  0  0  0  0  0  0  0  0  0
   18.6285  -20.4269  -14.6543 O   0  0  0  0  0  0  0  0  0  0  0  0
   20.2104  -19.9493  -13.1129 O   0  0  0  0  0  0  0  0  0  0  0  0
  2  3  1  0
  2  1  1  0
  3  4  2  0
  5  6  1  0
  6  7  2  0
  7  8  1  0
  9 10  1  0
  9  8  2  0
 11 10  1  6
 11 13  1  0
 12 11  1  0
 12  3  1  0
 13 20  1  0
 14 13  2  0
 15  9  1  0
 16 15  2  0
 16  6  1  0
 18 17  1  0
 19 18  1  1
 20 19  1  0
 21 22  1  0
 21 19  1  0
 23 21  2  0
M  END
$$$$
