GYS.pdb
     RDKit          3D

 23 23  0  0  1  0  0  0  0  0999 V2000
   24.3809  -10.8982  -15.3222 N   0  0  0  0  0  0  0  0  0  0  0  0
   23.4287  -10.3018  -14.4175 C   0  0  0  0  0  0  0  0  0  0  0  0
   22.5066   -9.3712  -15.1201 C   0  0  0  0  0  0  0  0  0  0  0  0
   22.4969   -9.2455  -16.3680 O   0  0  0  0  0  0  0  0  0  0  0  0
   17.3440  -12.9028  -17.1126 O   0  0  0  0  0  0  0  0  0  0  0  0
   17.7934  -11.7350  -16.4923 C   0  0  0  0  0  0  0  0  0  0  0  0
   17.6183  -10.5091  -17.0997 C   0  0  0  0  0  0  0  0  0  0  0  0
   18.0704   -9.3763  -16.4667 C   0  0  0  0  0  0  0  0  0  0  0  0
   18.7084   -9.3991  -15.2205 C   0  0  0  0  0  0  0  0  0  0  0  0
   19.1358   -8.0890  -14.6627 C   0  0  0  0  0  0  0  0  0  0  0  0
   20.5415   -7.7771  -15.0473 C   0  0  2  0  0  0  0  0  0  0  0  0
   21.5623   -8.5479  -14.4516 N   0  0  0  0  0  0  0  0  0  0  0  0
   20.8339   -6.3415  -14.6669 C   0  0  0  0  0  0  0  0  0  0  0  0
   20.9193   -6.0040  -13.4606 O   0  0  0  0  0  0  0  0  0  0  0  0
   18.8692  -10.6119  -14.6437 C   0  0  0  0  0  0  0  0  0  0  0  0
   18.4201  -11.7708  -15.2652 C   0  0  0  0  0  0  0  0  0  0  0  0
   22.2423   -3.5822  -17.6200 O   0  0  0  0  0  0  0  0  0  0  0  0
   22.5299   -3.4815  -16.2531 C   0  0  0  0  0  0  0  0  0  0  0  0
   21.4024   -3.9818  -15.4262 C   0  0  2  0  0  0  0  0  0  0  0  0
   21.0183   -5.3462  -15.6488 N   0  0  0  0  0  0  0  0  0  0  0  0
   20.2752   -3.0107  -15.4155 C   0  0  0  0  0  0  0  0  0  0  0  0
   20.4729   -1.7145  -14.9513 O   0  0  0  0  0  0  0  0  0  0  0  0
   19.1499   -3.3303  -15.8147 O   0  0  0  0  0  0  0  0  0  0  0  0
  2  3  1  0
  2  1  1  0
  3  4  2  0
  5  6  1  0
  6  7  2  0
  7  8  1  0
  9 10  1  0
  9  8  2  0
 11 10  1  1
 11 13  1  0
 12 11  1  0
 12  3  1  0
 13 20  1  0
 14 13  2  0
 15  9  1  0
 16 15  2  0
 16  6  1  0
 18 17  1  0
 19 18  1  6
 20 19  1  0
 21 22  1  0
 21 19  1  0
 23 21  2  0
M  END
$$$$
