GYS.pdb
     RDKit          3D

 23 23  0  0  1  0  0  0  0  0999 V2000
   25.5641  -11.8204  -16.4161 N   0  0  0  0  0  0  0  0  0  0  0  0
   24.6591  -11.4907  -15.3423 C   0  0  0  0  0  0  0  0  0  0  0  0
   23.6532  -10.4782  -15.7583 C   0  0  0  0  0  0  0  0  0  0  0  0
   23.5624  -10.0630  -16.9383 O   0  0  0  0  0  0  0  0  0  0  0  0
   18.8408  -13.9599  -18.2965 O   0  0  0  0  0  0  0  0  0  0  0  0
   19.1955  -12.9157  -17.4395 C   0  0  0  0  0  0  0  0  0  0  0  0
   18.9847  -11.6043  -17.8111 C   0  0  0  0  0  0  0  0  0  0  0  0
   19.3433  -10.5968  -16.9483 C   0  0  0  0  0  0  0  0  0  0  0  0
   19.9195  -10.8324  -15.6940 C   0  0  0  0  0  0  0  0  0  0  0  0
   20.2477   -9.6376  -14.8724 C   0  0  0  0  0  0  0  0  0  0  0  0
   21.5962   -9.1053  -15.2178 C   0  0  2  0  0  0  0  0  0  0  0  0
   22.7130   -9.8940  -14.8688 N   0  0  0  0  0  0  0  0  0  0  0  0
   21.7857   -7.7840  -14.5042 C   0  0  0  0  0  0  0  0  0  0  0  0
   22.2193   -7.7494  -13.3264 O   0  0  0  0  0  0  0  0  0  0  0  0
   20.1168  -12.1257  -15.3507 C   0  0  0  0  0  0  0  0  0  0  0  0
   19.7619  -13.1609  -16.2072 C   0  0  0  0  0  0  0  0  0  0  0  0
   23.0018   -3.2870  -14.3761 O   0  0  0  0  0  0  0  0  0  0  0  0
   22.8673   -4.5095  -15.0460 C   0  0  0  0  0  0  0  0  0  0  0  0
   21.6609   -5.2453  -14.5892 C   0  0  2  0  0  0  0  0  0  0  0  0
   21.4834   -6.5599  -15.1358 N   0  0  0  0  0  0  0  0  0  0  0  0
   20.4530   -4.3785  -14.6454 C   0  0  0  0  0  0  0  0  0  0  0  0
   20.0991   -3.5994  -13.5487 O   0  0  0  0  0  0  0  0  0  0  0  0
   19.7442   -4.3314  -15.6570 O   0  0  0  0  0  0  0  0  0  0  0  0
  2  3  1  0
  2  1  1  0
  3  4  2  0
  5  6  1  0
  6  7  2  0
  7  8  1  0
  9 10  1  0
  9  8  2  0
 11 10  1  1
 11 13  1  0
 12 11  1  0
 12  3  1  0
 13 20  1  0
 14 13  2  0
 15  9  1  0
 16 15  2  0
 16  6  1  0
 18 17  1  0
 19 18  1  6
 20 19  1  0
 21 22  1  0
 21 19  1  0
 23 21  2  0
M  END
$$$$
