GYS.pdb
     RDKit          3D

 23 23  0  0  1  0  0  0  0  0999 V2000
   21.2266  -31.5536  -10.3186 N   0  0  0  0  0  0  0  0  0  0  0  0
   22.4779  -31.0293   -9.8286 C   0  0  0  0  0  0  0  0  0  0  0  0
   23.3387  -32.0975   -9.2561 C   0  0  0  0  0  0  0  0  0  0  0  0
   23.0052  -33.3066   -9.2594 O   0  0  0  0  0  0  0  0  0  0  0  0
   26.1579  -35.6297  -13.8688 O   0  0  0  0  0  0  0  0  0  0  0  0
   26.3312  -34.9857  -12.6417 C   0  0  0  0  0  0  0  0  0  0  0  0
   26.0352  -33.6452  -12.5080 C   0  0  0  0  0  0  0  0  0  0  0  0
   26.2154  -33.0370  -11.2890 C   0  0  0  0  0  0  0  0  0  0  0  0
   26.6899  -33.7139  -10.1588 C   0  0  0  0  0  0  0  0  0  0  0  0
   26.8263  -32.9189   -8.9099 C   0  0  0  0  0  0  0  0  0  0  0  0
   25.5220  -32.8169   -8.1960 C   0  0  2  0  0  0  0  0  0  0  0  0
   24.6036  -31.8511   -8.6596 N   0  0  0  0  0  0  0  0  0  0  0  0
   25.7951  -32.4650   -6.7495 C   0  0  0  0  0  0  0  0  0  0  0  0
   25.5316  -31.3191   -6.3091 O   0  0  0  0  0  0  0  0  0  0  0  0
   26.9734  -35.0274  -10.3132 C   0  0  0  0  0  0  0  0  0  0  0  0
   26.7991  -35.6633  -11.5364 C   0  0  0  0  0  0  0  0  0  0  0  0
   24.5267  -33.3070   -2.6615 O   0  0  0  0  0  0  0  0  0  0  0  0
   24.6577  -33.4182   -4.0514 C   0  0  0  0  0  0  0  0  0  0  0  0
   26.0841  -33.5181   -4.4526 C   0  0  2  0  0  0  0  0  0  0  0  0
   26.3497  -33.4067   -5.8582 N   0  0  0  0  0  0  0  0  0  0  0  0
   26.7488  -34.6677   -3.7818 C   0  0  0  0  0  0  0  0  0  0  0  0
   27.5096  -34.4643   -2.6352 O   0  0  0  0  0  0  0  0  0  0  0  0
   26.6413  -35.8173   -4.2234 O   0  0  0  0  0  0  0  0  0  0  0  0
  2  3  1  0
  2  1  1  0
  3  4  2  0
  5  6  1  0
  6  7  2  0
  7  8  1  0
  9 10  1  0
  9  8  2  0
 11 10  1  6
 11 13  1  0
 12 11  1  0
 12  3  1  0
 13 20  1  0
 14 13  2  0
 15  9  1  0
 16 15  2  0
 16  6  1  0
 18 17  1  0
 19 18  1  6
 20 19  1  0
 21 22  1  0
 21 19  1  0
 23 21  2  0
M  END
$$$$
