VKS.pdb
     RDKit          3D

 23 22  0  0  1  0  0  0  0  0999 V2000
    7.6907  -13.5770   21.3012 C   0  0  0  0  0  0  0  0  0  0  0  0
    8.5204  -13.2964   20.0664 C   0  0  2  0  0  0  0  0  0  0  0  0
    7.8393  -12.1582   19.3287 C   0  0  0  0  0  0  0  0  0  0  0  0
    8.4513  -14.5242   19.1869 C   0  0  2  0  0  0  0  0  0  0  0  0
    7.0721  -14.8457   18.9084 N   0  0  0  0  0  0  0  0  0  0  0  0
    9.0852  -15.6993   19.8159 C   0  0  0  0  0  0  0  0  0  0  0  0
    8.3589  -16.6061   20.3512 O   0  0  0  0  0  0  0  0  0  0  0  0
   10.4805  -15.8762   19.8570 N   0  0  0  0  0  0  0  0  0  0  0  0
   11.1098  -17.0786   20.4438 C   0  0  1  0  0  0  0  0  0  0  0  0
   12.4353  -17.2975   19.7493 C   0  0  0  0  0  0  0  0  0  0  0  0
   13.1930  -18.4686   20.2321 C   0  0  0  0  0  0  0  0  0  0  0  0
   13.3976  -19.4945   19.1429 C   0  0  0  0  0  0  0  0  0  0  0  0
   14.1848  -20.6757   19.7178 C   0  0  0  0  0  0  0  0  0  0  0  0
   14.3111  -21.6373   18.6341 N   0  0  0  0  0  0  0  0  0  0  0  0
   11.3817  -16.7112   21.8516 C   0  0  0  0  0  0  0  0  0  0  0  0
   12.0278  -15.6313   22.1036 O   0  0  0  0  0  0  0  0  0  0  0  0
    9.6134  -18.4794   25.0430 O   0  0  0  0  0  0  0  0  0  0  0  0
   10.1839  -17.2217   25.3236 C   0  0  0  0  0  0  0  0  0  0  0  0
   11.2834  -17.0179   24.3420 C   0  0  2  0  0  0  0  0  0  0  0  0
   10.9914  -17.4419   22.9968 N   0  0  0  0  0  0  0  0  0  0  0  0
   12.5272  -17.6571   24.8960 C   0  0  0  0  0  0  0  0  0  0  0  0
   13.0162  -17.2165   26.0930 O   0  0  0  0  0  0  0  0  0  0  0  0
   13.0872  -18.5682   24.2633 O   0  0  0  0  0  0  0  0  0  0  0  0
  2  1  1  1
  3  2  1  0
  4  5  1  1
  4  2  1  0
  6  4  1  0
  6  7  2  0
  8  9  1  0
  8  6  1  0
  9 15  1  0
  9 10  1  6
 11 10  1  0
 12 11  1  0
 12 13  1  0
 14 13  1  0
 15 16  2  0
 17 18  1  0
 19 18  1  1
 19 21  1  0
 20 15  1  0
 20 19  1  0
 21 23  2  0
 21 22  1  0
M  END
$$$$
