VKS.pdb
     RDKit          3D

 23 22  0  0  1  0  0  0  0  0999 V2000
    7.9011  -12.9158   27.3101 C   0  0  0  0  0  0  0  0  0  0  0  0
    7.1760  -12.1127   26.2513 C   0  0  2  0  0  0  0  0  0  0  0  0
    6.3292  -11.0863   26.9814 C   0  0  0  0  0  0  0  0  0  0  0  0
    6.2397  -13.0561   25.5307 C   0  0  2  0  0  0  0  0  0  0  0  0
    5.4276  -13.7632   26.4918 N   0  0  0  0  0  0  0  0  0  0  0  0
    6.9650  -14.0490   24.7143 C   0  0  0  0  0  0  0  0  0  0  0  0
    7.1003  -15.2480   25.1390 O   0  0  0  0  0  0  0  0  0  0  0  0
    7.5279  -13.7355   23.4635 N   0  0  0  0  0  0  0  0  0  0  0  0
    8.3102  -14.7145   22.6789 C   0  0  1  0  0  0  0  0  0  0  0  0
    8.6905  -14.0643   21.3675 C   0  0  0  0  0  0  0  0  0  0  0  0
    7.7115  -14.2609   20.2804 C   0  0  0  0  0  0  0  0  0  0  0  0
    8.2412  -13.7763   18.9517 C   0  0  0  0  0  0  0  0  0  0  0  0
    7.1628  -13.9838   17.8843 C   0  0  0  0  0  0  0  0  0  0  0  0
    7.7739  -13.6055   16.6199 N   0  0  0  0  0  0  0  0  0  0  0  0
    9.5464  -14.9243   23.4654 C   0  0  0  0  0  0  0  0  0  0  0  0
    9.8257  -14.1147   24.4212 O   0  0  0  0  0  0  0  0  0  0  0  0
   10.5578  -18.1684   26.1851 O   0  0  0  0  0  0  0  0  0  0  0  0
    9.9047  -17.4359   25.1737 C   0  0  0  0  0  0  0  0  0  0  0  0
   10.9661  -16.7976   24.3492 C   0  0  2  0  0  0  0  0  0  0  0  0
   10.4907  -15.9594   23.2787 N   0  0  0  0  0  0  0  0  0  0  0  0
   11.8981  -17.8776   23.8720 C   0  0  0  0  0  0  0  0  0  0  0  0
   11.7306  -18.3828   22.6139 O   0  0  0  0  0  0  0  0  0  0  0  0
   12.7987  -18.2912   24.6216 O   0  0  0  0  0  0  0  0  0  0  0  0
  2  1  1  1
  3  2  1  0
  4  5  1  1
  4  2  1  0
  6  4  1  0
  6  7  2  0
  8  9  1  0
  8  6  1  0
  9 15  1  0
  9 10  1  6
 11 10  1  0
 12 11  1  0
 12 13  1  0
 14 13  1  0
 15 16  2  0
 17 18  1  0
 19 18  1  6
 19 21  1  0
 20 15  1  0
 20 19  1  0
 21 23  2  0
 21 22  1  0
M  END
$$$$
