VKS.pdb
     RDKit          3D

 23 22  0  0  1  0  0  0  0  0999 V2000
    7.5766  -12.1775   18.6344 C   0  0  0  0  0  0  0  0  0  0  0  0
    8.0732  -13.3080   19.5103 C   0  0  2  0  0  0  0  0  0  0  0  0
    9.3596  -12.8295   20.1580 C   0  0  0  0  0  0  0  0  0  0  0  0
    8.4164  -14.4666   18.6016 C   0  0  2  0  0  0  0  0  0  0  0  0
    7.2391  -14.8808   17.8765 N   0  0  0  0  0  0  0  0  0  0  0  0
    8.9357  -15.6288   19.3486 C   0  0  0  0  0  0  0  0  0  0  0  0
    8.1290  -16.3907   19.9850 O   0  0  0  0  0  0  0  0  0  0  0  0
   10.3052  -15.9479   19.3968 N   0  0  0  0  0  0  0  0  0  0  0  0
   10.8120  -17.1660   20.0643 C   0  0  1  0  0  0  0  0  0  0  0  0
   12.0238  -17.6479   19.2985 C   0  0  0  0  0  0  0  0  0  0  0  0
   12.6533  -18.8633   19.8511 C   0  0  0  0  0  0  0  0  0  0  0  0
   13.7946  -19.3475   18.9887 C   0  0  0  0  0  0  0  0  0  0  0  0
   14.3851  -20.6139   19.6157 C   0  0  0  0  0  0  0  0  0  0  0  0
   15.4796  -21.0171   18.7469 N   0  0  0  0  0  0  0  0  0  0  0  0
   11.2617  -16.7046   21.3968 C   0  0  0  0  0  0  0  0  0  0  0  0
   12.0235  -15.6750   21.4790 O   0  0  0  0  0  0  0  0  0  0  0  0
    9.4299  -17.5965   24.8374 O   0  0  0  0  0  0  0  0  0  0  0  0
   10.3382  -16.5219   24.9144 C   0  0  0  0  0  0  0  0  0  0  0  0
   11.3987  -16.7798   23.9031 C   0  0  2  0  0  0  0  0  0  0  0  0
   10.9310  -17.2902   22.6400 N   0  0  0  0  0  0  0  0  0  0  0  0
   12.4417  -17.6600   24.5357 C   0  0  0  0  0  0  0  0  0  0  0  0
   13.1368  -17.1872   25.6124 O   0  0  0  0  0  0  0  0  0  0  0  0
   12.6544  -18.7941   24.0745 O   0  0  0  0  0  0  0  0  0  0  0  0
  2  1  1  6
  3  2  1  0
  4  5  1  1
  4  2  1  0
  6  4  1  0
  6  7  2  0
  8  9  1  0
  8  6  1  0
  9 15  1  0
  9 10  1  6
 11 10  1  0
 12 11  1  0
 12 13  1  0
 14 13  1  0
 15 16  2  0
 17 18  1  0
 19 18  1  1
 19 21  1  0
 20 15  1  0
 20 19  1  0
 21 23  2  0
 21 22  1  0
M  END
$$$$
