VKS.pdb
     RDKit          3D

 23 22  0  0  1  0  0  0  0  0999 V2000
    7.5672  -12.0018   19.0594 C   0  0  0  0  0  0  0  0  0  0  0  0
    7.8443  -13.2753   19.8297 C   0  0  2  0  0  0  0  0  0  0  0  0
    8.9321  -12.9515   20.8373 C   0  0  0  0  0  0  0  0  0  0  0  0
    8.4054  -14.2822   18.8514 C   0  0  2  0  0  0  0  0  0  0  0  0
    7.4484  -14.5214   17.7976 N   0  0  0  0  0  0  0  0  0  0  0  0
    8.7205  -15.5724   19.4953 C   0  0  0  0  0  0  0  0  0  0  0  0
    7.7971  -16.4398   19.6722 O   0  0  0  0  0  0  0  0  0  0  0  0
   10.0156  -15.9035   19.9345 N   0  0  0  0  0  0  0  0  0  0  0  0
   10.3312  -17.2049   20.5612 C   0  0  1  0  0  0  0  0  0  0  0  0
   11.3047  -17.9324   19.6611 C   0  0  0  0  0  0  0  0  0  0  0  0
   10.6721  -18.7128   18.5796 C   0  0  0  0  0  0  0  0  0  0  0  0
   11.6940  -19.4414   17.7396 C   0  0  0  0  0  0  0  0  0  0  0  0
   10.9704  -20.1742   16.6062 C   0  0  0  0  0  0  0  0  0  0  0  0
   12.0127  -20.7768   15.7902 N   0  0  0  0  0  0  0  0  0  0  0  0
   11.0349  -16.8567   21.8160 C   0  0  0  0  0  0  0  0  0  0  0  0
   12.0029  -16.0150   21.7785 O   0  0  0  0  0  0  0  0  0  0  0  0
    9.7365  -17.9237   25.4908 O   0  0  0  0  0  0  0  0  0  0  0  0
   10.7015  -16.8976   25.5320 C   0  0  0  0  0  0  0  0  0  0  0  0
   11.4980  -17.0037   24.2797 C   0  0  2  0  0  0  0  0  0  0  0  0
   10.7477  -17.3632   23.1039 N   0  0  0  0  0  0  0  0  0  0  0  0
   12.6527  -17.9320   24.5391 C   0  0  0  0  0  0  0  0  0  0  0  0
   13.5048  -17.6508   25.5691 O   0  0  0  0  0  0  0  0  0  0  0  0
   12.8140  -18.9324   23.8198 O   0  0  0  0  0  0  0  0  0  0  0  0
  2  1  1  6
  3  2  1  0
  4  5  1  6
  4  2  1  0
  6  4  1  0
  6  7  2  0
  8  9  1  0
  8  6  1  0
  9 15  1  0
  9 10  1  6
 11 10  1  0
 12 11  1  0
 12 13  1  0
 14 13  1  0
 15 16  2  0
 17 18  1  0
 19 18  1  1
 19 21  1  0
 20 15  1  0
 20 19  1  0
 21 23  2  0
 21 22  1  0
M  END
$$$$
