VKS.pdb
     RDKit          3D

 23 22  0  0  1  0  0  0  0  0999 V2000
    7.8077  -13.3196   27.5421 C   0  0  0  0  0  0  0  0  0  0  0  0
    6.9715  -12.5683   26.5281 C   0  0  2  0  0  0  0  0  0  0  0  0
    6.0602  -11.6407   27.3108 C   0  0  0  0  0  0  0  0  0  0  0  0
    6.1014  -13.5818   25.8200 C   0  0  2  0  0  0  0  0  0  0  0  0
    5.5685  -14.5196   26.7791 N   0  0  0  0  0  0  0  0  0  0  0  0
    6.8453  -14.3380   24.7937 C   0  0  0  0  0  0  0  0  0  0  0  0
    7.2621  -15.5202   25.0490 O   0  0  0  0  0  0  0  0  0  0  0  0
    7.1253  -13.8116   23.5193 N   0  0  0  0  0  0  0  0  0  0  0  0
    7.8123  -14.5963   22.4712 C   0  0  1  0  0  0  0  0  0  0  0  0
    7.7921  -13.7870   21.1938 C   0  0  0  0  0  0  0  0  0  0  0  0
    8.2390  -14.5240   19.9954 C   0  0  0  0  0  0  0  0  0  0  0  0
    8.0868  -13.7001   18.7390 C   0  0  0  0  0  0  0  0  0  0  0  0
    8.4112  -14.5802   17.5284 C   0  0  0  0  0  0  0  0  0  0  0  0
    8.2792  -13.7209   16.3625 N   0  0  0  0  0  0  0  0  0  0  0  0
    9.2150  -14.6936   22.9336 C   0  0  0  0  0  0  0  0  0  0  0  0
    9.5498  -14.1367   24.0404 O   0  0  0  0  0  0  0  0  0  0  0  0
   10.6645  -16.7114   25.1494 O   0  0  0  0  0  0  0  0  0  0  0  0
   10.6285  -17.2357   23.8418 C   0  0  0  0  0  0  0  0  0  0  0  0
   11.2205  -16.2047   22.9470 C   0  0  2  0  0  0  0  0  0  0  0  0
   10.2698  -15.3606   22.2701 N   0  0  0  0  0  0  0  0  0  0  0  0
   12.1627  -16.8956   21.9996 C   0  0  0  0  0  0  0  0  0  0  0  0
   11.7057  -17.2573   20.7641 O   0  0  0  0  0  0  0  0  0  0  0  0
   13.3323  -17.1255   22.3505 O   0  0  0  0  0  0  0  0  0  0  0  0
  2  1  1  1
  3  2  1  0
  4  5  1  1
  4  2  1  0
  6  4  1  0
  6  7  2  0
  8  9  1  0
  8  6  1  0
  9 15  1  0
  9 10  1  6
 11 10  1  0
 12 11  1  0
 12 13  1  0
 14 13  1  0
 15 16  2  0
 17 18  1  0
 19 18  1  6
 19 21  1  0
 20 15  1  0
 20 19  1  0
 21 23  2  0
 21 22  1  0
M  END
$$$$
