VKS.pdb
     RDKit          3D

 23 22  0  0  1  0  0  0  0  0999 V2000
    6.4655  -10.9527   26.9951 C   0  0  0  0  0  0  0  0  0  0  0  0
    7.1177  -12.2265   26.5012 C   0  0  2  0  0  0  0  0  0  0  0  0
    8.1758  -11.8162   25.4935 C   0  0  0  0  0  0  0  0  0  0  0  0
    6.0613  -13.0191   25.7653 C   0  0  2  0  0  0  0  0  0  0  0  0
    4.9984  -13.3742   26.6749 N   0  0  0  0  0  0  0  0  0  0  0  0
    6.6021  -14.2591   25.1750 C   0  0  0  0  0  0  0  0  0  0  0  0
    6.6692  -15.3248   25.8793 O   0  0  0  0  0  0  0  0  0  0  0  0
    7.0581  -14.3291   23.8457 N   0  0  0  0  0  0  0  0  0  0  0  0
    7.5508  -15.5858   23.2422 C   0  0  1  0  0  0  0  0  0  0  0  0
    7.6817  -15.3675   21.7515 C   0  0  0  0  0  0  0  0  0  0  0  0
    8.2294  -16.5204   21.0100 C   0  0  0  0  0  0  0  0  0  0  0  0
    8.2255  -16.2834   19.5185 C   0  0  0  0  0  0  0  0  0  0  0  0
    8.8522  -17.4958   18.8237 C   0  0  0  0  0  0  0  0  0  0  0  0
    8.7869  -17.2173   17.3977 N   0  0  0  0  0  0  0  0  0  0  0  0
    8.9088  -15.7648   23.8033 C   0  0  0  0  0  0  0  0  0  0  0  0
    9.7347  -14.7830   23.7701 O   0  0  0  0  0  0  0  0  0  0  0  0
    9.9025  -18.5278   26.4522 O   0  0  0  0  0  0  0  0  0  0  0  0
   10.9231  -17.5759   26.2564 C   0  0  0  0  0  0  0  0  0  0  0  0
   10.7756  -17.0646   24.8669 C   0  0  2  0  0  0  0  0  0  0  0  0
    9.4189  -16.9404   24.3995 N   0  0  0  0  0  0  0  0  0  0  0  0
   11.6259  -17.9160   23.9644 C   0  0  0  0  0  0  0  0  0  0  0  0
   12.9331  -18.1283   24.2993 O   0  0  0  0  0  0  0  0  0  0  0  0
   11.1323  -18.4098   22.9365 O   0  0  0  0  0  0  0  0  0  0  0  0
  2  1  1  6
  3  2  1  0
  4  5  1  1
  4  2  1  0
  6  4  1  0
  6  7  2  0
  8  9  1  0
  8  6  1  0
  9 15  1  0
  9 10  1  6
 11 10  1  0
 12 11  1  0
 12 13  1  0
 14 13  1  0
 15 16  2  0
 17 18  1  0
 19 18  1  1
 19 21  1  0
 20 15  1  0
 20 19  1  0
 21 23  2  0
 21 22  1  0
M  END
$$$$
