VKS.pdb
     RDKit          3D

 23 22  0  0  1  0  0  0  0  0999 V2000
    7.6179  -12.6361   20.6407 C   0  0  0  0  0  0  0  0  0  0  0  0
    8.6248  -13.6285   20.0992 C   0  0  2  0  0  0  0  0  0  0  0  0
    8.8540  -13.2714   18.6421 C   0  0  0  0  0  0  0  0  0  0  0  0
    7.9809  -14.9958   20.1443 C   0  0  2  0  0  0  0  0  0  0  0  0
    6.8758  -15.0434   19.2171 N   0  0  0  0  0  0  0  0  0  0  0  0
    7.4746  -15.3317   21.4893 C   0  0  0  0  0  0  0  0  0  0  0  0
    6.2541  -15.0938   21.7897 O   0  0  0  0  0  0  0  0  0  0  0  0
    8.2859  -15.9140   22.4805 N   0  0  0  0  0  0  0  0  0  0  0  0
    7.7696  -16.2675   23.8202 C   0  0  1  0  0  0  0  0  0  0  0  0
    8.0015  -17.7465   24.0344 C   0  0  0  0  0  0  0  0  0  0  0  0
    7.6506  -18.2319   25.3835 C   0  0  0  0  0  0  0  0  0  0  0  0
    7.8671  -19.7203   25.5199 C   0  0  0  0  0  0  0  0  0  0  0  0
    7.3679  -20.1683   26.8967 C   0  0  0  0  0  0  0  0  0  0  0  0
    7.7089  -21.5778   27.0063 N   0  0  0  0  0  0  0  0  0  0  0  0
    8.6337  -15.5236   24.7641 C   0  0  0  0  0  0  0  0  0  0  0  0
    9.9088  -15.6080   24.6456 O   0  0  0  0  0  0  0  0  0  0  0  0
    7.2922  -12.5740   27.0476 O   0  0  0  0  0  0  0  0  0  0  0  0
    8.7009  -12.6118   27.0567 C   0  0  0  0  0  0  0  0  0  0  0  0
    9.0976  -14.0028   26.7077 C   0  0  2  0  0  0  0  0  0  0  0  0
    8.1966  -14.6937   25.8214 N   0  0  0  0  0  0  0  0  0  0  0  0
    9.3425  -14.7527   27.9884 C   0  0  0  0  0  0  0  0  0  0  0  0
   10.1909  -14.2148   28.9141 O   0  0  0  0  0  0  0  0  0  0  0  0
    8.7752  -15.8407   28.1847 O   0  0  0  0  0  0  0  0  0  0  0  0
  2  1  1  6
  3  2  1  0
  4  5  1  6
  4  2  1  0
  6  4  1  0
  6  7  2  0
  8  9  1  0
  8  6  1  0
  9 15  1  0
  9 10  1  1
 11 10  1  0
 12 11  1  0
 12 13  1  0
 14 13  1  0
 15 16  2  0
 17 18  1  0
 19 18  1  1
 19 21  1  0
 20 15  1  0
 20 19  1  0
 21 23  2  0
 21 22  1  0
M  END
$$$$
