MMN.pdb
     RDKit          3D

 25 24  0  0  1  0  0  0  0  0999 V2000
    8.4393  -11.7861   19.5932 C   0  0  0  0  0  0  0  0  0  0  0  0
    7.2254  -13.0720   19.2426 S   0  0  0  0  0  0  0  0  0  0  0  0
    8.0490  -14.6680   18.8657 C   0  0  0  0  0  0  0  0  0  0  0  0
    9.2969  -14.7873   19.6822 C   0  0  0  0  0  0  0  0  0  0  0  0
    9.3509  -15.9575   20.6014 C   0  0  2  0  0  0  0  0  0  0  0  0
    8.0536  -16.6413   20.4607 N   0  0  0  0  0  0  0  0  0  0  0  0
    9.4472  -15.5369   22.0204 C   0  0  0  0  0  0  0  0  0  0  0  0
   10.5046  -14.9597   22.3896 O   0  0  0  0  0  0  0  0  0  0  0  0
    5.8443  -11.9309   26.5288 C   0  0  0  0  0  0  0  0  0  0  0  0
    7.5777  -12.4545   26.6159 S   0  0  0  0  0  0  0  0  0  0  0  0
    7.6457  -14.2211   26.3179 C   0  0  0  0  0  0  0  0  0  0  0  0
    7.4340  -14.6176   24.8896 C   0  0  0  0  0  0  0  0  0  0  0  0
    8.6068  -15.4172   24.3405 C   0  0  2  0  0  0  0  0  0  0  0  0
    8.4068  -15.7586   22.9611 N   0  0  0  0  0  0  0  0  0  0  0  0
    8.8423  -16.6344   25.1787 C   0  0  0  0  0  0  0  0  0  0  0  0
    8.0117  -17.5306   25.3677 O   0  0  0  0  0  0  0  0  0  0  0  0
   13.1646  -17.9979   24.2480 N   0  0  0  0  0  0  0  0  0  0  0  0
   12.1951  -18.7045   25.0009 C   0  0  0  0  0  0  0  0  0  0  0  0
   11.6154  -19.6547   24.4130 O   0  0  0  0  0  0  0  0  0  0  0  0
   11.9458  -18.2833   26.3800 C   0  0  0  0  0  0  0  0  0  0  0  0
   10.4992  -17.8581   26.6357 C   0  0  2  0  0  0  0  0  0  0  0  0
   10.1317  -16.7457   25.7931 N   0  0  0  0  0  0  0  0  0  0  0  0
   10.4787  -17.4872   28.0951 C   0  0  0  0  0  0  0  0  0  0  0  0
   10.2437  -16.2984   28.4327 O   0  0  0  0  0  0  0  0  0  0  0  0
   10.7052  -18.3893   29.0978 O   0  0  0  0  0  0  0  0  0  0  0  0
  1  2  1  0
  3  2  1  0
  4  3  1  0
  5  6  1  1
  5  4  1  0
  7  5  1  0
  8  7  2  0
 10  9  1  0
 10 11  1  0
 11 12  1  0
 13 12  1  1
 13 15  1  0
 13 14  1  0
 14  7  1  0
 15 16  2  0
 18 17  1  0
 19 18  2  0
 20 18  1  0
 21 20  1  6
 22 21  1  0
 22 15  1  0
 23 21  1  0
 24 23  2  0
 25 23  1  0
M  END
$$$$
