MMN.pdb
     RDKit          3D

 25 24  0  0  1  0  0  0  0  0999 V2000
    2.0031  -18.0442   20.4281 C   0  0  0  0  0  0  0  0  0  0  0  0
    2.0641  -19.3909   21.6250 S   0  0  0  0  0  0  0  0  0  0  0  0
    3.7571  -20.0890   21.7432 C   0  0  0  0  0  0  0  0  0  0  0  0
    4.7592  -19.0006   21.5215 C   0  0  0  0  0  0  0  0  0  0  0  0
    5.8832  -18.9571   22.4970 C   0  0  2  0  0  0  0  0  0  0  0  0
    5.2853  -19.2356   23.8143 N   0  0  0  0  0  0  0  0  0  0  0  0
    6.4782  -17.6016   22.5890 C   0  0  0  0  0  0  0  0  0  0  0  0
    6.9794  -17.1099   21.5428 O   0  0  0  0  0  0  0  0  0  0  0  0
    5.8775  -12.2213   26.9959 C   0  0  0  0  0  0  0  0  0  0  0  0
    7.5970  -12.7736   26.8389 S   0  0  0  0  0  0  0  0  0  0  0  0
    7.7706  -13.6291   25.2729 C   0  0  0  0  0  0  0  0  0  0  0  0
    7.1538  -14.9930   25.2396 C   0  0  0  0  0  0  0  0  0  0  0  0
    7.2469  -15.6269   23.8591 C   0  0  2  0  0  0  0  0  0  0  0  0
    6.5022  -16.8519   23.7947 N   0  0  0  0  0  0  0  0  0  0  0  0
    8.6796  -15.8348   23.4796 C   0  0  0  0  0  0  0  0  0  0  0  0
    9.1663  -15.5436   22.3810 O   0  0  0  0  0  0  0  0  0  0  0  0
   13.4780  -16.3343   22.4526 N   0  0  0  0  0  0  0  0  0  0  0  0
   13.1277  -15.6943   23.6666 C   0  0  0  0  0  0  0  0  0  0  0  0
   14.0798  -15.3848   24.4294 O   0  0  0  0  0  0  0  0  0  0  0  0
   11.7110  -15.4464   23.9363 C   0  0  0  0  0  0  0  0  0  0  0  0
   10.9170  -16.7172   24.2419 C   0  0  2  0  0  0  0  0  0  0  0  0
    9.5267  -16.4123   24.4803 N   0  0  0  0  0  0  0  0  0  0  0  0
   11.5856  -17.2813   25.4676 C   0  0  0  0  0  0  0  0  0  0  0  0
   11.0113  -17.2001   26.5840 O   0  0  0  0  0  0  0  0  0  0  0  0
   12.8091  -17.8916   25.4365 O   0  0  0  0  0  0  0  0  0  0  0  0
  1  2  1  0
  3  2  1  0
  4  3  1  0
  5  6  1  1
  5  4  1  0
  7  5  1  0
  8  7  2  0
 10  9  1  0
 10 11  1  0
 11 12  1  0
 13 12  1  1
 13 15  1  0
 13 14  1  0
 14  7  1  0
 15 16  2  0
 18 17  1  0
 19 18  2  0
 20 18  1  0
 21 20  1  1
 22 21  1  0
 22 15  1  0
 23 21  1  0
 24 23  2  0
 25 23  1  0
M  END
$$$$
