MMN.pdb
     RDKit          3D

 25 24  0  0  1  0  0  0  0  0999 V2000
    6.5185  -11.4589   18.9104 C   0  0  0  0  0  0  0  0  0  0  0  0
    7.8967  -12.1831   19.8192 S   0  0  0  0  0  0  0  0  0  0  0  0
    8.0261  -13.9840   19.4917 C   0  0  0  0  0  0  0  0  0  0  0  0
    9.1847  -14.5450   20.2539 C   0  0  0  0  0  0  0  0  0  0  0  0
    8.8599  -15.6648   21.1800 C   0  0  2  0  0  0  0  0  0  0  0  0
    7.3945  -15.8110   21.1378 N   0  0  0  0  0  0  0  0  0  0  0  0
    9.2042  -15.3335   22.5841 C   0  0  0  0  0  0  0  0  0  0  0  0
    9.6594  -14.1824   22.8193 O   0  0  0  0  0  0  0  0  0  0  0  0
    6.2870  -12.5781   26.0069 C   0  0  0  0  0  0  0  0  0  0  0  0
    7.3994  -12.9931   27.3769 S   0  0  0  0  0  0  0  0  0  0  0  0
    8.4749  -14.3243   26.8426 C   0  0  0  0  0  0  0  0  0  0  0  0
    8.2885  -14.7373   25.4155 C   0  0  0  0  0  0  0  0  0  0  0  0
    9.2705  -15.8250   25.0043 C   0  0  2  0  0  0  0  0  0  0  0  0
    9.0414  -16.2530   23.6538 N   0  0  0  0  0  0  0  0  0  0  0  0
    9.2044  -16.9725   25.9626 C   0  0  0  0  0  0  0  0  0  0  0  0
    8.1702  -17.3772   26.5062 O   0  0  0  0  0  0  0  0  0  0  0  0
   12.0113  -20.5162   24.8404 N   0  0  0  0  0  0  0  0  0  0  0  0
   12.4540  -19.4784   25.6966 C   0  0  0  0  0  0  0  0  0  0  0  0
   13.2930  -18.6748   25.2123 O   0  0  0  0  0  0  0  0  0  0  0  0
   11.9118  -19.4210   27.0546 C   0  0  0  0  0  0  0  0  0  0  0  0
   10.5282  -18.7741   27.1320 C   0  0  2  0  0  0  0  0  0  0  0  0
   10.4420  -17.6335   26.2520 N   0  0  0  0  0  0  0  0  0  0  0  0
   10.3889  -18.3784   28.5782 C   0  0  0  0  0  0  0  0  0  0  0  0
   10.3877  -17.1606   28.8939 O   0  0  0  0  0  0  0  0  0  0  0  0
   10.2600  -19.2875   29.5918 O   0  0  0  0  0  0  0  0  0  0  0  0
  1  2  1  0
  3  2  1  0
  4  3  1  0
  5  6  1  1
  5  4  1  0
  7  5  1  0
  8  7  2  0
 10  9  1  0
 10 11  1  0
 11 12  1  0
 13 12  1  1
 13 15  1  0
 13 14  1  0
 14  7  1  0
 15 16  2  0
 18 17  1  0
 19 18  2  0
 20 18  1  0
 21 20  1  1
 22 21  1  0
 22 15  1  0
 23 21  1  0
 24 23  2  0
 25 23  1  0
M  END
$$$$
