MMN.pdb
     RDKit          3D

 25 24  0  0  1  0  0  0  0  0999 V2000
    7.7765  -11.4114   26.9075 C   0  0  0  0  0  0  0  0  0  0  0  0
    6.4700  -12.6524   26.8527 S   0  0  0  0  0  0  0  0  0  0  0  0
    7.0439  -14.2428   27.5659 C   0  0  0  0  0  0  0  0  0  0  0  0
    7.7482  -15.0346   26.5099 C   0  0  0  0  0  0  0  0  0  0  0  0
    6.8740  -15.8930   25.6637 C   0  0  2  0  0  0  0  0  0  0  0  0
    6.5908  -17.0956   26.4662 N   0  0  0  0  0  0  0  0  0  0  0  0
    7.5786  -16.3624   24.4459 C   0  0  0  0  0  0  0  0  0  0  0  0
    8.2077  -17.4518   24.5167 O   0  0  0  0  0  0  0  0  0  0  0  0
    8.4590  -11.3979   19.4347 C   0  0  0  0  0  0  0  0  0  0  0  0
    7.8611  -13.1041   19.3003 S   0  0  0  0  0  0  0  0  0  0  0  0
    8.3490  -13.9877   20.7820 C   0  0  0  0  0  0  0  0  0  0  0  0
    7.9233  -15.4228   20.8168 C   0  0  0  0  0  0  0  0  0  0  0  0
    8.3402  -16.1096   22.1094 C   0  0  2  0  0  0  0  0  0  0  0  0
    7.5688  -15.6389   23.2241 N   0  0  0  0  0  0  0  0  0  0  0  0
    9.8075  -15.9298   22.3421 C   0  0  0  0  0  0  0  0  0  0  0  0
   10.3199  -14.9371   22.8720 O   0  0  0  0  0  0  0  0  0  0  0  0
   11.4118  -19.8132   23.9800 N   0  0  0  0  0  0  0  0  0  0  0  0
   12.2844  -18.7103   23.8125 C   0  0  0  0  0  0  0  0  0  0  0  0
   12.6813  -18.1473   24.8661 O   0  0  0  0  0  0  0  0  0  0  0  0
   12.6514  -18.3165   22.4517 C   0  0  0  0  0  0  0  0  0  0  0  0
   12.0938  -16.9533   22.0401 C   0  0  2  0  0  0  0  0  0  0  0  0
   10.6570  -17.0005   21.9128 N   0  0  0  0  0  0  0  0  0  0  0  0
   12.7643  -16.6655   20.7228 C   0  0  0  0  0  0  0  0  0  0  0  0
   12.0742  -16.6019   19.6729 O   0  0  0  0  0  0  0  0  0  0  0  0
   14.1114  -16.4640   20.5991 O   0  0  0  0  0  0  0  0  0  0  0  0
  1  2  1  0
  3  2  1  0
  4  3  1  0
  5  6  1  1
  5  4  1  0
  7  5  1  0
  8  7  2  0
 10  9  1  0
 10 11  1  0
 11 12  1  0
 13 12  1  6
 13 15  1  0
 13 14  1  0
 14  7  1  0
 15 16  2  0
 18 17  1  0
 19 18  2  0
 20 18  1  0
 21 20  1  6
 22 21  1  0
 22 15  1  0
 23 21  1  0
 24 23  2  0
 25 23  1  0
M  END
$$$$
