MMN.pdb
     RDKit          3D

 25 24  0  0  1  0  0  0  0  0999 V2000
    6.8144  -11.4361   20.1823 C   0  0  0  0  0  0  0  0  0  0  0  0
    8.1146  -12.6848   20.1909 S   0  0  0  0  0  0  0  0  0  0  0  0
    7.4644  -14.3145   19.6536 C   0  0  0  0  0  0  0  0  0  0  0  0
    8.5758  -15.3158   19.6512 C   0  0  0  0  0  0  0  0  0  0  0  0
    8.5696  -16.2817   20.7844 C   0  0  2  0  0  0  0  0  0  0  0  0
    7.1733  -16.7298   20.9249 N   0  0  0  0  0  0  0  0  0  0  0  0
    8.9268  -15.6264   22.0662 C   0  0  0  0  0  0  0  0  0  0  0  0
   10.0559  -15.0732   22.1462 O   0  0  0  0  0  0  0  0  0  0  0  0
    7.4883  -11.8082   27.2203 C   0  0  0  0  0  0  0  0  0  0  0  0
    6.2096  -12.3471   26.0536 S   0  0  0  0  0  0  0  0  0  0  0  0
    6.9758  -13.4189   24.8376 C   0  0  0  0  0  0  0  0  0  0  0  0
    7.5125  -14.7019   25.3922 C   0  0  0  0  0  0  0  0  0  0  0  0
    8.5775  -15.3107   24.4914 C   0  0  2  0  0  0  0  0  0  0  0  0
    8.0551  -15.6017   23.1869 N   0  0  0  0  0  0  0  0  0  0  0  0
    9.1639  -16.5293   25.1323 C   0  0  0  0  0  0  0  0  0  0  0  0
    8.5370  -17.5662   25.3786 O   0  0  0  0  0  0  0  0  0  0  0  0
   13.7469  -16.0923   24.0746 N   0  0  0  0  0  0  0  0  0  0  0  0
   13.1725  -17.3104   24.5129 C   0  0  0  0  0  0  0  0  0  0  0  0
   13.0562  -18.2163   23.6468 O   0  0  0  0  0  0  0  0  0  0  0  0
   12.7653  -17.4207   25.9142 C   0  0  0  0  0  0  0  0  0  0  0  0
   11.2537  -17.5590   26.1008 C   0  0  2  0  0  0  0  0  0  0  0  0
   10.5539  -16.4642   25.4729 N   0  0  0  0  0  0  0  0  0  0  0  0
   11.0675  -17.5601   27.5952 C   0  0  0  0  0  0  0  0  0  0  0  0
   10.4253  -16.6279   28.1440 O   0  0  0  0  0  0  0  0  0  0  0  0
   11.5672  -18.5392   28.4090 O   0  0  0  0  0  0  0  0  0  0  0  0
  1  2  1  0
  3  2  1  0
  4  3  1  0
  5  6  1  1
  5  4  1  0
  7  5  1  0
  8  7  2  0
 10  9  1  0
 10 11  1  0
 11 12  1  0
 13 12  1  1
 13 15  1  0
 13 14  1  0
 14  7  1  0
 15 16  2  0
 18 17  1  0
 19 18  2  0
 20 18  1  0
 21 20  1  1
 22 21  1  0
 22 15  1  0
 23 21  1  0
 24 23  2  0
 25 23  1  0
M  END
$$$$
