MMN.pdb
     RDKit          3D

 25 24  0  0  1  0  0  0  0  0999 V2000
    8.0247  -11.5739   19.2114 C   0  0  0  0  0  0  0  0  0  0  0  0
    7.0202  -13.0567   19.0060 S   0  0  0  0  0  0  0  0  0  0  0  0
    7.3895  -14.2874   20.3161 C   0  0  0  0  0  0  0  0  0  0  0  0
    8.7734  -14.8207   20.1200 C   0  0  0  0  0  0  0  0  0  0  0  0
    9.2258  -15.8145   21.1324 C   0  0  2  0  0  0  0  0  0  0  0  0
    8.1836  -16.8551   21.1700 N   0  0  0  0  0  0  0  0  0  0  0  0
    9.2763  -15.2276   22.4935 C   0  0  0  0  0  0  0  0  0  0  0  0
   10.2193  -14.4337   22.7542 O   0  0  0  0  0  0  0  0  0  0  0  0
    5.5521  -11.6084   26.6746 C   0  0  0  0  0  0  0  0  0  0  0  0
    7.2140  -12.3256   26.7763 S   0  0  0  0  0  0  0  0  0  0  0  0
    7.0565  -14.1113   26.7548 C   0  0  0  0  0  0  0  0  0  0  0  0
    6.9962  -14.7121   25.3846 C   0  0  0  0  0  0  0  0  0  0  0  0
    8.3788  -14.8588   24.7655 C   0  0  2  0  0  0  0  0  0  0  0  0
    8.3152  -15.5245   23.4958 N   0  0  0  0  0  0  0  0  0  0  0  0
    9.2978  -15.5666   25.7110 C   0  0  0  0  0  0  0  0  0  0  0  0
    9.3032  -15.4099   26.9375 O   0  0  0  0  0  0  0  0  0  0  0  0
   11.4258  -19.9686   27.1223 N   0  0  0  0  0  0  0  0  0  0  0  0
   10.0669  -19.8858   26.7318 C   0  0  0  0  0  0  0  0  0  0  0  0
    9.3413  -20.8723   27.0229 O   0  0  0  0  0  0  0  0  0  0  0  0
    9.6184  -18.6813   26.0321 C   0  0  0  0  0  0  0  0  0  0  0  0
   10.7243  -17.6440   25.8336 C   0  0  2  0  0  0  0  0  0  0  0  0
   10.2268  -16.4879   25.1275 N   0  0  0  0  0  0  0  0  0  0  0  0
   11.7753  -18.3758   25.0412 C   0  0  0  0  0  0  0  0  0  0  0  0
   12.4373  -19.2968   25.5853 O   0  0  0  0  0  0  0  0  0  0  0  0
   12.0575  -18.0908   23.7337 O   0  0  0  0  0  0  0  0  0  0  0  0
  1  2  1  0
  3  2  1  0
  4  3  1  0
  5  6  1  1
  5  4  1  0
  7  5  1  0
  8  7  2  0
 10  9  1  0
 10 11  1  0
 11 12  1  0
 13 12  1  1
 13 15  1  0
 13 14  1  0
 14  7  1  0
 15 16  2  0
 18 17  1  0
 19 18  2  0
 20 18  1  0
 21 20  1  6
 22 21  1  0
 22 15  1  0
 23 21  1  0
 24 23  2  0
 25 23  1  0
M  END
$$$$
