MMN.pdb
     RDKit          3D

 25 24  0  0  1  0  0  0  0  0999 V2000
    6.9133  -12.9867   15.7301 C   0  0  0  0  0  0  0  0  0  0  0  0
    8.1143  -13.2104   17.0558 S   0  0  0  0  0  0  0  0  0  0  0  0
    7.2744  -13.4774   18.6654 C   0  0  0  0  0  0  0  0  0  0  0  0
    8.2978  -13.5384   19.7549 C   0  0  0  0  0  0  0  0  0  0  0  0
    8.4042  -14.8452   20.4607 C   0  0  2  0  0  0  0  0  0  0  0  0
    7.0330  -15.3795   20.5292 N   0  0  0  0  0  0  0  0  0  0  0  0
    8.8550  -14.6765   21.8636 C   0  0  0  0  0  0  0  0  0  0  0  0
   10.0730  -14.4210   22.0604 O   0  0  0  0  0  0  0  0  0  0  0  0
    5.7535  -11.8931   26.6093 C   0  0  0  0  0  0  0  0  0  0  0  0
    7.1786  -12.4712   27.5693 S   0  0  0  0  0  0  0  0  0  0  0  0
    8.1171  -13.6091   26.5501 C   0  0  0  0  0  0  0  0  0  0  0  0
    7.5729  -13.7972   25.1680 C   0  0  0  0  0  0  0  0  0  0  0  0
    8.4891  -14.6546   24.3067 C   0  0  2  0  0  0  0  0  0  0  0  0
    7.9765  -14.7911   22.9733 N   0  0  0  0  0  0  0  0  0  0  0  0
    8.7074  -15.9880   24.9501 C   0  0  0  0  0  0  0  0  0  0  0  0
    7.8404  -16.8610   25.0727 O   0  0  0  0  0  0  0  0  0  0  0  0
   11.4497  -19.9900   26.6713 N   0  0  0  0  0  0  0  0  0  0  0  0
   12.3247  -19.1884   25.8981 C   0  0  0  0  0  0  0  0  0  0  0  0
   13.4462  -19.6900   25.6246 O   0  0  0  0  0  0  0  0  0  0  0  0
   11.8661  -17.8619   25.4839 C   0  0  0  0  0  0  0  0  0  0  0  0
   10.4362  -17.5459   25.9246 C   0  0  2  0  0  0  0  0  0  0  0  0
   10.0249  -16.2468   25.4495 N   0  0  0  0  0  0  0  0  0  0  0  0
   10.4956  -17.6002   27.4283 C   0  0  0  0  0  0  0  0  0  0  0  0
   10.5820  -16.5323   28.0876 O   0  0  0  0  0  0  0  0  0  0  0  0
   10.4595  -18.7705   28.1350 O   0  0  0  0  0  0  0  0  0  0  0  0
  1  2  1  0
  3  2  1  0
  4  3  1  0
  5  6  1  1
  5  4  1  0
  7  5  1  0
  8  7  2  0
 10  9  1  0
 10 11  1  0
 11 12  1  0
 13 12  1  1
 13 15  1  0
 13 14  1  0
 14  7  1  0
 15 16  2  0
 18 17  1  0
 19 18  2  0
 20 18  1  0
 21 20  1  6
 22 21  1  0
 22 15  1  0
 23 21  1  0
 24 23  2  0
 25 23  1  0
M  END
$$$$
