FDF.pdb
     RDKit          3D

 31 32  0  0  1  0  0  0  0  0999 V2000
   36.7467  -24.5285    8.2049 N   0  0  0  0  0  0  0  0  0  0  0  0
   35.3398  -24.7444    8.3929 C   0  0  1  0  0  0  0  0  0  0  0  0
   34.5044  -24.1003    7.3279 C   0  0  0  0  0  0  0  0  0  0  0  0
   33.4674  -23.1907    7.8334 C   0  0  0  0  0  0  0  0  0  0  0  0
   33.7733  -21.8564    7.9913 C   0  0  0  0  0  0  0  0  0  0  0  0
   32.8330  -20.9411    8.4691 C   0  0  0  0  0  0  0  0  0  0  0  0
   31.5590  -21.3622    8.7975 C   0  0  0  0  0  0  0  0  0  0  0  0
   31.2540  -22.6896    8.6407 C   0  0  0  0  0  0  0  0  0  0  0  0
   32.2014  -23.5959    8.1624 C   0  0  0  0  0  0  0  0  0  0  0  0
   35.0071  -26.2137    8.3553 C   0  0  0  0  0  0  0  0  0  0  0  0
   35.5850  -26.9878    7.5511 O   0  0  0  0  0  0  0  0  0  0  0  0
   34.0330  -26.7842    9.2207 N   0  0  0  0  0  0  0  0  0  0  0  0
   33.6792  -28.1954    9.1832 C   0  0  1  0  0  0  0  0  0  0  0  0
   33.8179  -28.8479   10.5118 C   0  0  0  0  0  0  0  0  0  0  0  0
   33.6384  -30.3051   10.3776 C   0  0  0  0  0  0  0  0  0  0  0  0
   34.0993  -30.9913    9.4335 O   0  0  0  0  0  0  0  0  0  0  0  0
   32.3498  -28.4145    8.6122 C   0  0  0  0  0  0  0  0  0  0  0  0
   31.4274  -27.5599    8.6613 O   0  0  0  0  0  0  0  0  0  0  0  0
   32.9128  -30.9685   11.3566 O   0  0  0  0  0  0  0  0  0  0  0  0
   32.1032  -29.6721    7.9679 N   0  0  0  0  0  0  0  0  0  0  0  0
   30.7849  -29.9200    7.3564 C   0  0  1  0  0  0  0  0  0  0  0  0
   30.6249  -29.0455    6.1391 C   0  0  0  0  0  0  0  0  0  0  0  0
   29.2963  -29.2382    5.5393 C   0  0  0  0  0  0  0  0  0  0  0  0
   28.9716  -30.2726    4.7098 C   0  0  0  0  0  0  0  0  0  0  0  0
   27.6910  -30.4028    4.1839 C   0  0  0  0  0  0  0  0  0  0  0  0
   26.7001  -29.4883    4.4825 C   0  0  0  0  0  0  0  0  0  0  0  0
   27.0400  -28.4372    5.3284 C   0  0  0  0  0  0  0  0  0  0  0  0
   28.3022  -28.3179    5.8406 C   0  0  0  0  0  0  0  0  0  0  0  0
   30.7386  -31.3345    6.9637 C   0  0  0  0  0  0  0  0  0  0  0  0
   29.5345  -32.0021    6.8859 O   0  0  0  0  0  0  0  0  0  0  0  0
   31.7740  -31.9708    6.6910 O   0  0  0  0  0  0  0  0  0  0  0  0
  2  1  1  6
  3  2  1  0
  4  5  2  0
  4  3  1  0
  6  5  1  0
  7  6  2  0
  8  7  1  0
  8  9  2  0
  9  4  1  0
 10 11  2  0
 10  2  1  0
 12 10  1  0
 13 12  1  0
 13 14  1  1
 15 14  1  0
 16 15  2  0
 17 13  1  0
 18 17  2  0
 19 15  1  0
 20 17  1  0
 21 20  1  0
 21 22  1  6
 23 22  1  0
 24 23  2  0
 25 24  1  0
 26 25  2  0
 26 27  1  0
 27 28  2  0
 28 23  1  0
 29 21  1  0
 29 30  1  0
 31 29  2  0
M  END
$$$$
