FDF.pdb
     RDKit          3D

 31 32  0  0  1  0  0  0  0  0999 V2000
   28.7660  -20.2256  -10.7485 N   0  0  0  0  0  0  0  0  0  0  0  0
   27.5717  -20.9405  -10.3967 C   0  0  1  0  0  0  0  0  0  0  0  0
   26.9103  -20.3990   -9.1652 C   0  0  0  0  0  0  0  0  0  0  0  0
   27.7943  -20.2885   -7.9970 C   0  0  0  0  0  0  0  0  0  0  0  0
   27.4746  -19.3874   -7.0047 C   0  0  0  0  0  0  0  0  0  0  0  0
   28.2743  -19.2331   -5.8702 C   0  0  0  0  0  0  0  0  0  0  0  0
   29.4184  -19.9923   -5.7190 C   0  0  0  0  0  0  0  0  0  0  0  0
   29.7370  -20.8890   -6.7059 C   0  0  0  0  0  0  0  0  0  0  0  0
   28.9307  -21.0352   -7.8356 C   0  0  0  0  0  0  0  0  0  0  0  0
   26.5448  -20.8546  -11.4962 C   0  0  0  0  0  0  0  0  0  0  0  0
   26.3138  -19.7671  -12.0827 O   0  0  0  0  0  0  0  0  0  0  0  0
   25.7983  -21.9906  -11.9151 N   0  0  0  0  0  0  0  0  0  0  0  0
   24.8208  -21.9346  -12.9920 C   0  0  1  0  0  0  0  0  0  0  0  0
   24.9193  -23.1035  -13.9054 C   0  0  0  0  0  0  0  0  0  0  0  0
   23.9921  -22.9351  -15.0392 C   0  0  0  0  0  0  0  0  0  0  0  0
   24.1487  -22.1019  -15.9644 O   0  0  0  0  0  0  0  0  0  0  0  0
   23.4580  -21.7578  -12.4893 C   0  0  0  0  0  0  0  0  0  0  0  0
   23.0001  -22.3843  -11.4986 O   0  0  0  0  0  0  0  0  0  0  0  0
   22.8695  -23.7487  -15.0936 O   0  0  0  0  0  0  0  0  0  0  0  0
   22.6153  -20.8191  -13.1722 N   0  0  0  0  0  0  0  0  0  0  0  0
   21.2166  -20.6585  -12.7350 C   0  0  1  0  0  0  0  0  0  0  0  0
   20.8774  -19.1912  -12.6701 C   0  0  0  0  0  0  0  0  0  0  0  0
   19.4783  -19.0052  -12.2580 C   0  0  0  0  0  0  0  0  0  0  0  0
   18.4709  -18.6420  -13.1047 C   0  0  0  0  0  0  0  0  0  0  0  0
   17.1646  -18.4934  -12.6519 C   0  0  0  0  0  0  0  0  0  0  0  0
   16.8393  -18.7081  -11.3270 C   0  0  0  0  0  0  0  0  0  0  0  0
   17.8722  -19.0776  -10.4713 C   0  0  0  0  0  0  0  0  0  0  0  0
   19.1537  -19.2213  -10.9262 C   0  0  0  0  0  0  0  0  0  0  0  0
   20.3636  -21.3240  -13.7284 C   0  0  0  0  0  0  0  0  0  0  0  0
   19.2776  -22.0747  -13.3304 O   0  0  0  0  0  0  0  0  0  0  0  0
   20.5905  -21.2332  -14.9497 O   0  0  0  0  0  0  0  0  0  0  0  0
  2  1  1  6
  3  2  1  0
  4  5  2  0
  4  3  1  0
  6  5  1  0
  7  6  2  0
  8  7  1  0
  8  9  2  0
  9  4  1  0
 10 11  2  0
 10  2  1  0
 12 10  1  0
 13 12  1  0
 13 14  1  1
 15 14  1  0
 16 15  2  0
 17 13  1  0
 18 17  2  0
 19 15  1  0
 20 17  1  0
 21 20  1  0
 21 22  1  6
 23 22  1  0
 24 23  2  0
 25 24  1  0
 26 25  2  0
 26 27  1  0
 27 28  2  0
 28 23  1  0
 29 21  1  0
 29 30  1  0
 31 29  2  0
M  END
$$$$
