FDF.pdb
     RDKit          3D

 31 32  0  0  1  0  0  0  0  0999 V2000
   24.3392  -21.1659   -8.0436 N   0  0  0  0  0  0  0  0  0  0  0  0
   25.0858  -20.4184   -9.0158 C   0  0  1  0  0  0  0  0  0  0  0  0
   26.5575  -20.6983   -8.9607 C   0  0  0  0  0  0  0  0  0  0  0  0
   27.2587  -20.0558   -7.8410 C   0  0  0  0  0  0  0  0  0  0  0  0
   26.8555  -18.8019   -7.4363 C   0  0  0  0  0  0  0  0  0  0  0  0
   27.4818  -18.1367   -6.3801 C   0  0  0  0  0  0  0  0  0  0  0  0
   28.5335  -18.7321   -5.7109 C   0  0  0  0  0  0  0  0  0  0  0  0
   28.9351  -19.9797   -6.1132 C   0  0  0  0  0  0  0  0  0  0  0  0
   28.3020  -20.6355   -7.1700 C   0  0  0  0  0  0  0  0  0  0  0  0
   24.6463  -20.7598  -10.4162 C   0  0  0  0  0  0  0  0  0  0  0  0
   24.3114  -21.9321  -10.7219 O   0  0  0  0  0  0  0  0  0  0  0  0
   24.5914  -19.7788  -11.4448 N   0  0  0  0  0  0  0  0  0  0  0  0
   24.0606  -20.0595  -12.7705 C   0  0  1  0  0  0  0  0  0  0  0  0
   22.6431  -19.6346  -12.9129 C   0  0  0  0  0  0  0  0  0  0  0  0
   21.7483  -20.6883  -12.4003 C   0  0  0  0  0  0  0  0  0  0  0  0
   21.7209  -21.8661  -12.8325 O   0  0  0  0  0  0  0  0  0  0  0  0
   24.8998  -19.4978  -13.8295 C   0  0  0  0  0  0  0  0  0  0  0  0
   25.1858  -18.2749  -13.9090 O   0  0  0  0  0  0  0  0  0  0  0  0
   20.8759  -20.3634  -11.3715 O   0  0  0  0  0  0  0  0  0  0  0  0
   25.4137  -20.4009  -14.8184 N   0  0  0  0  0  0  0  0  0  0  0  0
   26.4063  -19.9114  -15.7922 C   0  0  1  0  0  0  0  0  0  0  0  0
   27.6080  -20.8212  -15.7831 C   0  0  0  0  0  0  0  0  0  0  0  0
   28.2774  -20.7749  -14.4748 C   0  0  0  0  0  0  0  0  0  0  0  0
   27.9918  -21.6142  -13.4367 C   0  0  0  0  0  0  0  0  0  0  0  0
   28.6709  -21.5242  -12.2267 C   0  0  0  0  0  0  0  0  0  0  0  0
   29.6602  -20.5804  -12.0315 C   0  0  0  0  0  0  0  0  0  0  0  0
   29.9443  -19.7291  -13.0947 C   0  0  0  0  0  0  0  0  0  0  0  0
   29.2710  -19.8257  -14.2809 C   0  0  0  0  0  0  0  0  0  0  0  0
   25.7738  -19.9340  -17.1176 C   0  0  0  0  0  0  0  0  0  0  0  0
   26.4020  -19.3638  -18.2047 O   0  0  0  0  0  0  0  0  0  0  0  0
   24.6614  -20.4630  -17.3014 O   0  0  0  0  0  0  0  0  0  0  0  0
  2  1  1  1
  3  2  1  0
  4  5  2  0
  4  3  1  0
  6  5  1  0
  7  6  2  0
  8  7  1  0
  8  9  2  0
  9  4  1  0
 10 11  2  0
 10  2  1  0
 12 10  1  0
 13 12  1  0
 13 14  1  1
 15 14  1  0
 16 15  2  0
 17 13  1  0
 18 17  2  0
 19 15  1  0
 20 17  1  0
 21 20  1  0
 21 22  1  6
 23 22  1  0
 24 23  2  0
 25 24  1  0
 26 25  2  0
 26 27  1  0
 27 28  2  0
 28 23  1  0
 29 21  1  0
 29 30  1  0
 31 29  2  0
M  END
$$$$
