FDF.pdb
     RDKit          3D

 31 32  0  0  1  0  0  0  0  0999 V2000
   23.1047   -8.2160  -18.5551 N   0  0  0  0  0  0  0  0  0  0  0  0
   22.3062   -7.9693  -17.3877 C   0  0  1  0  0  0  0  0  0  0  0  0
   23.1159   -7.4984  -16.2173 C   0  0  0  0  0  0  0  0  0  0  0  0
   24.1201   -8.4607  -15.7441 C   0  0  0  0  0  0  0  0  0  0  0  0
   25.4514   -8.1077  -15.7886 C   0  0  0  0  0  0  0  0  0  0  0  0
   26.4545   -8.9775  -15.3558 C   0  0  0  0  0  0  0  0  0  0  0  0
   26.1263  -10.2273  -14.8672 C   0  0  0  0  0  0  0  0  0  0  0  0
   24.8019  -10.5791  -14.8226 C   0  0  0  0  0  0  0  0  0  0  0  0
   23.8075   -9.7020  -15.2579 C   0  0  0  0  0  0  0  0  0  0  0  0
   21.2823   -6.8949  -17.6485 C   0  0  0  0  0  0  0  0  0  0  0  0
   21.5003   -5.9822  -18.4848 O   0  0  0  0  0  0  0  0  0  0  0  0
   20.0347   -6.8667  -16.9657 N   0  0  0  0  0  0  0  0  0  0  0  0
   19.0821   -5.7765  -17.1148 C   0  0  1  0  0  0  0  0  0  0  0  0
   17.6980   -6.2645  -17.3518 C   0  0  0  0  0  0  0  0  0  0  0  0
   16.8162   -5.1318  -17.6884 C   0  0  0  0  0  0  0  0  0  0  0  0
   15.7994   -4.8059  -17.0292 O   0  0  0  0  0  0  0  0  0  0  0  0
   19.1377   -4.8398  -15.9920 C   0  0  0  0  0  0  0  0  0  0  0  0
   19.1808   -5.2054  -14.7886 O   0  0  0  0  0  0  0  0  0  0  0  0
   17.1250   -4.3713  -18.8069 O   0  0  0  0  0  0  0  0  0  0  0  0
   19.1424   -3.4381  -16.2966 N   0  0  0  0  0  0  0  0  0  0  0  0
   19.5294   -2.4762  -15.2487 C   0  0  1  0  0  0  0  0  0  0  0  0
   20.9748   -2.0897  -15.4324 C   0  0  0  0  0  0  0  0  0  0  0  0
   21.8540   -3.2254  -15.1177 C   0  0  0  0  0  0  0  0  0  0  0  0
   21.7027   -4.0341  -14.0284 C   0  0  0  0  0  0  0  0  0  0  0  0
   22.5645   -5.1000  -13.7942 C   0  0  0  0  0  0  0  0  0  0  0  0
   23.6063   -5.3787  -14.6569 C   0  0  0  0  0  0  0  0  0  0  0  0
   23.7532   -4.5492  -15.7642 C   0  0  0  0  0  0  0  0  0  0  0  0
   22.9004   -3.5035  -15.9859 C   0  0  0  0  0  0  0  0  0  0  0  0
   18.6738   -1.2917  -15.3979 C   0  0  0  0  0  0  0  0  0  0  0  0
   17.7964   -1.1889  -16.4568 O   0  0  0  0  0  0  0  0  0  0  0  0
   18.7120   -0.3515  -14.5821 O   0  0  0  0  0  0  0  0  0  0  0  0
  2  1  1  6
  3  2  1  0
  4  5  2  0
  4  3  1  0
  6  5  1  0
  7  6  2  0
  8  7  1  0
  8  9  2  0
  9  4  1  0
 10 11  2  0
 10  2  1  0
 12 10  1  0
 13 12  1  0
 13 14  1  1
 15 14  1  0
 16 15  2  0
 17 13  1  0
 18 17  2  0
 19 15  1  0
 20 17  1  0
 21 20  1  0
 21 22  1  6
 23 22  1  0
 24 23  2  0
 25 24  1  0
 26 25  2  0
 26 27  1  0
 27 28  2  0
 28 23  1  0
 29 21  1  0
 29 30  1  0
 31 29  2  0
M  END
$$$$
