FDF.pdb
     RDKit          3D

 31 32  0  0  1  0  0  0  0  0999 V2000
   26.5515  -18.4891   -8.4365 N   0  0  0  0  0  0  0  0  0  0  0  0
   26.8707  -19.7952   -8.9398 C   0  0  1  0  0  0  0  0  0  0  0  0
   26.7584  -20.8651   -7.8958 C   0  0  0  0  0  0  0  0  0  0  0  0
   27.6328  -20.6742   -6.7308 C   0  0  0  0  0  0  0  0  0  0  0  0
   28.9538  -21.0559   -6.8218 C   0  0  0  0  0  0  0  0  0  0  0  0
   29.8357  -20.9028   -5.7500 C   0  0  0  0  0  0  0  0  0  0  0  0
   29.3940  -20.3576   -4.5600 C   0  0  0  0  0  0  0  0  0  0  0  0
   28.0799  -19.9776   -4.4689 C   0  0  0  0  0  0  0  0  0  0  0  0
   27.2070  -20.1351   -5.5463 C   0  0  0  0  0  0  0  0  0  0  0  0
   25.9323  -20.1926  -10.0499 C   0  0  0  0  0  0  0  0  0  0  0  0
   24.6919  -20.0207   -9.9416 O   0  0  0  0  0  0  0  0  0  0  0  0
   26.4049  -20.7746  -11.2588 N   0  0  0  0  0  0  0  0  0  0  0  0
   25.5984  -20.8362  -12.4687 C   0  0  1  0  0  0  0  0  0  0  0  0
   26.4132  -21.1349  -13.6759 C   0  0  0  0  0  0  0  0  0  0  0  0
   25.5594  -21.1098  -14.8776 C   0  0  0  0  0  0  0  0  0  0  0  0
   25.7918  -21.7608  -15.9250 O   0  0  0  0  0  0  0  0  0  0  0  0
   24.4750  -21.7641  -12.3346 C   0  0  0  0  0  0  0  0  0  0  0  0
   24.5977  -22.9398  -11.9028 O   0  0  0  0  0  0  0  0  0  0  0  0
   24.4218  -20.3160  -14.8563 O   0  0  0  0  0  0  0  0  0  0  0  0
   23.1757  -21.2934  -12.7190 N   0  0  0  0  0  0  0  0  0  0  0  0
   22.0205  -22.2026  -12.6096 C   0  0  1  0  0  0  0  0  0  0  0  0
   21.2919  -21.9337  -11.3178 C   0  0  0  0  0  0  0  0  0  0  0  0
   20.8175  -20.5427  -11.2755 C   0  0  0  0  0  0  0  0  0  0  0  0
   21.5240  -19.5071  -10.7350 C   0  0  0  0  0  0  0  0  0  0  0  0
   21.0215  -18.2106  -10.7370 C   0  0  0  0  0  0  0  0  0  0  0  0
   19.7874  -17.9238  -11.2865 C   0  0  0  0  0  0  0  0  0  0  0  0
   19.0742  -18.9853  -11.8348 C   0  0  0  0  0  0  0  0  0  0  0  0
   19.5770  -20.2569  -11.8281 C   0  0  0  0  0  0  0  0  0  0  0  0
   21.1337  -21.9297  -13.7483 C   0  0  0  0  0  0  0  0  0  0  0  0
   21.4166  -20.9066  -14.6285 O   0  0  0  0  0  0  0  0  0  0  0  0
   20.1083  -22.6059  -13.9541 O   0  0  0  0  0  0  0  0  0  0  0  0
  2  1  1  1
  3  2  1  0
  4  5  2  0
  4  3  1  0
  6  5  1  0
  7  6  2  0
  8  7  1  0
  8  9  2  0
  9  4  1  0
 10 11  2  0
 10  2  1  0
 12 10  1  0
 13 12  1  0
 13 14  1  6
 15 14  1  0
 16 15  2  0
 17 13  1  0
 18 17  2  0
 19 15  1  0
 20 17  1  0
 21 20  1  0
 21 22  1  1
 23 22  1  0
 24 23  2  0
 25 24  1  0
 26 25  2  0
 26 27  1  0
 27 28  2  0
 28 23  1  0
 29 21  1  0
 29 30  1  0
 31 29  2  0
M  END
$$$$
