FDF.pdb
     RDKit          3D

 31 32  0  0  1  0  0  0  0  0999 V2000
   22.9397   -9.3664  -17.5157 N   0  0  0  0  0  0  0  0  0  0  0  0
   22.7122   -8.7302  -16.2489 C   0  0  1  0  0  0  0  0  0  0  0  0
   23.9834   -8.3397  -15.5569 C   0  0  0  0  0  0  0  0  0  0  0  0
   24.9798   -9.4149  -15.4599 C   0  0  0  0  0  0  0  0  0  0  0  0
   24.6695  -10.5449  -14.7348 C   0  0  0  0  0  0  0  0  0  0  0  0
   25.5733  -11.6013  -14.6027 C   0  0  0  0  0  0  0  0  0  0  0  0
   26.8143  -11.5325  -15.2054 C   0  0  0  0  0  0  0  0  0  0  0  0
   27.1237  -10.4085  -15.9269 C   0  0  0  0  0  0  0  0  0  0  0  0
   26.2129   -9.3586  -16.0525 C   0  0  0  0  0  0  0  0  0  0  0  0
   21.9182   -7.4603  -16.4150 C   0  0  0  0  0  0  0  0  0  0  0  0
   21.9921   -6.7842  -17.4720 O   0  0  0  0  0  0  0  0  0  0  0  0
   21.0574   -6.9752  -15.3917 N   0  0  0  0  0  0  0  0  0  0  0  0
   20.2510   -5.7736  -15.5478 C   0  0  1  0  0  0  0  0  0  0  0  0
   18.9849   -5.8385  -14.7713 C   0  0  0  0  0  0  0  0  0  0  0  0
   18.1319   -6.9235  -15.2901 C   0  0  0  0  0  0  0  0  0  0  0  0
   17.7735   -7.0311  -16.4879 O   0  0  0  0  0  0  0  0  0  0  0  0
   21.0081   -4.5593  -15.2421 C   0  0  0  0  0  0  0  0  0  0  0  0
   21.7387   -4.4383  -14.2246 O   0  0  0  0  0  0  0  0  0  0  0  0
   17.6927   -7.8935  -14.4007 O   0  0  0  0  0  0  0  0  0  0  0  0
   20.9005   -3.4616  -16.1591 N   0  0  0  0  0  0  0  0  0  0  0  0
   21.6816   -2.2367  -15.9087 C   0  0  1  0  0  0  0  0  0  0  0  0
   22.5757   -1.9622  -17.0908 C   0  0  0  0  0  0  0  0  0  0  0  0
   23.6559   -2.9572  -17.1599 C   0  0  0  0  0  0  0  0  0  0  0  0
   23.5980   -4.1024  -17.9007 C   0  0  0  0  0  0  0  0  0  0  0  0
   24.6611   -4.9982  -17.9308 C   0  0  0  0  0  0  0  0  0  0  0  0
   25.8155   -4.7609  -17.2107 C   0  0  0  0  0  0  0  0  0  0  0  0
   25.8655   -3.5916  -16.4583 C   0  0  0  0  0  0  0  0  0  0  0  0
   24.8148   -2.7168  -16.4353 C   0  0  0  0  0  0  0  0  0  0  0  0
   20.7288   -1.1321  -15.7371 C   0  0  0  0  0  0  0  0  0  0  0  0
   21.1511    0.0911  -15.2605 O   0  0  0  0  0  0  0  0  0  0  0  0
   19.5214   -1.2623  -16.0132 O   0  0  0  0  0  0  0  0  0  0  0  0
  2  1  1  6
  3  2  1  0
  4  5  2  0
  4  3  1  0
  6  5  1  0
  7  6  2  0
  8  7  1  0
  8  9  2  0
  9  4  1  0
 10 11  2  0
 10  2  1  0
 12 10  1  0
 13 12  1  0
 13 14  1  1
 15 14  1  0
 16 15  2  0
 17 13  1  0
 18 17  2  0
 19 15  1  0
 20 17  1  0
 21 20  1  0
 21 22  1  6
 23 22  1  0
 24 23  2  0
 25 24  1  0
 26 25  2  0
 26 27  1  0
 27 28  2  0
 28 23  1  0
 29 21  1  0
 29 30  1  0
 31 29  2  0
M  END
$$$$
