FDF.pdb
     RDKit          3D

 31 32  0  0  1  0  0  0  0  0999 V2000
   24.2382  -12.6436  -18.7368 N   0  0  0  0  0  0  0  0  0  0  0  0
   24.0261  -12.1311  -17.4126 C   0  0  1  0  0  0  0  0  0  0  0  0
   25.3027  -11.9429  -16.6497 C   0  0  0  0  0  0  0  0  0  0  0  0
   26.0304  -13.1865  -16.3628 C   0  0  0  0  0  0  0  0  0  0  0  0
   25.6104  -13.9752  -15.3138 C   0  0  0  0  0  0  0  0  0  0  0  0
   26.2602  -15.1677  -14.9884 C   0  0  0  0  0  0  0  0  0  0  0  0
   27.3529  -15.5857  -15.7230 C   0  0  0  0  0  0  0  0  0  0  0  0
   27.7712  -14.8013  -16.7668 C   0  0  0  0  0  0  0  0  0  0  0  0
   27.1145  -13.6113  -17.0833 C   0  0  0  0  0  0  0  0  0  0  0  0
   23.3598  -10.7801  -17.4545 C   0  0  0  0  0  0  0  0  0  0  0  0
   23.6682   -9.9331  -18.3306 O   0  0  0  0  0  0  0  0  0  0  0  0
   22.3611  -10.4073  -16.5128 N   0  0  0  0  0  0  0  0  0  0  0  0
   21.6997   -9.1111  -16.5408 C   0  0  1  0  0  0  0  0  0  0  0  0
   20.2200   -9.2303  -16.4605 C   0  0  0  0  0  0  0  0  0  0  0  0
   19.7243  -10.0855  -17.5544 C   0  0  0  0  0  0  0  0  0  0  0  0
   19.7136   -9.7525  -18.7642 O   0  0  0  0  0  0  0  0  0  0  0  0
   22.2229   -8.2042  -15.5186 C   0  0  0  0  0  0  0  0  0  0  0  0
   22.5234   -8.5751  -14.3542 O   0  0  0  0  0  0  0  0  0  0  0  0
   19.2358  -11.3435  -17.2322 O   0  0  0  0  0  0  0  0  0  0  0  0
   22.3956   -6.8266  -15.8790 N   0  0  0  0  0  0  0  0  0  0  0  0
   23.0236   -5.9047  -14.9151 C   0  0  1  0  0  0  0  0  0  0  0  0
   24.2919   -5.3470  -15.5087 C   0  0  0  0  0  0  0  0  0  0  0  0
   24.0090   -4.6735  -16.7847 C   0  0  0  0  0  0  0  0  0  0  0  0
   23.6517   -3.3606  -16.8967 C   0  0  0  0  0  0  0  0  0  0  0  0
   23.4080   -2.7812  -18.1370 C   0  0  0  0  0  0  0  0  0  0  0  0
   23.5186   -3.5147  -19.3019 C   0  0  0  0  0  0  0  0  0  0  0  0
   23.8827   -4.8518  -19.1783 C   0  0  0  0  0  0  0  0  0  0  0  0
   24.1205   -5.4125  -17.9540 C   0  0  0  0  0  0  0  0  0  0  0  0
   22.0715   -4.8158  -14.6600 C   0  0  0  0  0  0  0  0  0  0  0  0
   22.3159   -3.8877  -13.6698 O   0  0  0  0  0  0  0  0  0  0  0  0
   21.0236   -4.6960  -15.3223 O   0  0  0  0  0  0  0  0  0  0  0  0
  2  1  1  6
  3  2  1  0
  4  5  2  0
  4  3  1  0
  6  5  1  0
  7  6  2  0
  8  7  1  0
  8  9  2  0
  9  4  1  0
 10 11  2  0
 10  2  1  0
 12 10  1  0
 13 12  1  0
 13 14  1  1
 15 14  1  0
 16 15  2  0
 17 13  1  0
 18 17  2  0
 19 15  1  0
 20 17  1  0
 21 20  1  0
 21 22  1  6
 23 22  1  0
 24 23  2  0
 25 24  1  0
 26 25  2  0
 26 27  1  0
 27 28  2  0
 28 23  1  0
 29 21  1  0
 29 30  1  0
 31 29  2  0
M  END
$$$$
