FDF.pdb
     RDKit          3D

 31 32  0  0  1  0  0  0  0  0999 V2000
   24.1547  -17.0754  -20.7167 N   0  0  0  0  0  0  0  0  0  0  0  0
   24.1465  -16.6407  -19.3485 C   0  0  1  0  0  0  0  0  0  0  0  0
   23.1622  -15.5393  -19.0933 C   0  0  0  0  0  0  0  0  0  0  0  0
   23.4031  -14.3147  -19.8684 C   0  0  0  0  0  0  0  0  0  0  0  0
   24.5545  -13.5951  -19.6329 C   0  0  0  0  0  0  0  0  0  0  0  0
   24.8412  -12.4221  -20.3344 C   0  0  0  0  0  0  0  0  0  0  0  0
   23.9627  -11.9537  -21.2921 C   0  0  0  0  0  0  0  0  0  0  0  0
   22.8170  -12.6692  -21.5268 C   0  0  0  0  0  0  0  0  0  0  0  0
   22.5404  -13.8403  -20.8200 C   0  0  0  0  0  0  0  0  0  0  0  0
   23.7637  -17.7675  -18.4240 C   0  0  0  0  0  0  0  0  0  0  0  0
   22.6746  -18.3789  -18.5651 O   0  0  0  0  0  0  0  0  0  0  0  0
   24.6108  -18.1852  -17.3604 N   0  0  0  0  0  0  0  0  0  0  0  0
   24.2682  -19.2828  -16.4681 C   0  0  1  0  0  0  0  0  0  0  0  0
   25.4717  -19.9446  -15.8990 C   0  0  0  0  0  0  0  0  0  0  0  0
   26.3590  -20.3957  -16.9866 C   0  0  0  0  0  0  0  0  0  0  0  0
   26.0281  -21.2169  -17.8759 O   0  0  0  0  0  0  0  0  0  0  0  0
   23.3352  -18.8688  -15.4196 C   0  0  0  0  0  0  0  0  0  0  0  0
   23.4167  -17.7666  -14.8179 O   0  0  0  0  0  0  0  0  0  0  0  0
   27.6470  -19.8822  -17.0366 O   0  0  0  0  0  0  0  0  0  0  0  0
   22.2807  -19.7774  -15.0729 N   0  0  0  0  0  0  0  0  0  0  0  0
   21.2553  -19.3519  -14.1030 C   0  0  1  0  0  0  0  0  0  0  0  0
   20.5914  -18.0917  -14.5964 C   0  0  0  0  0  0  0  0  0  0  0  0
   19.5087  -17.6912  -13.6857 C   0  0  0  0  0  0  0  0  0  0  0  0
   19.6899  -16.9333  -12.5648 C   0  0  0  0  0  0  0  0  0  0  0  0
   18.6196  -16.5798  -11.7506 C   0  0  0  0  0  0  0  0  0  0  0  0
   17.3328  -16.9839  -12.0473 C   0  0  0  0  0  0  0  0  0  0  0  0
   17.1575  -17.7563  -13.1912 C   0  0  0  0  0  0  0  0  0  0  0  0
   18.2165  -18.0986  -13.9857 C   0  0  0  0  0  0  0  0  0  0  0  0
   20.2645  -20.4317  -14.0047 C   0  0  0  0  0  0  0  0  0  0  0  0
   19.5601  -20.6334  -12.8365 O   0  0  0  0  0  0  0  0  0  0  0  0
   20.0305  -21.1925  -14.9626 O   0  0  0  0  0  0  0  0  0  0  0  0
  2  1  1  6
  3  2  1  0
  4  5  2  0
  4  3  1  0
  6  5  1  0
  7  6  2  0
  8  7  1  0
  8  9  2  0
  9  4  1  0
 10 11  2  0
 10  2  1  0
 12 10  1  0
 13 12  1  0
 13 14  1  1
 15 14  1  0
 16 15  2  0
 17 13  1  0
 18 17  2  0
 19 15  1  0
 20 17  1  0
 21 20  1  0
 21 22  1  6
 23 22  1  0
 24 23  2  0
 25 24  1  0
 26 25  2  0
 26 27  1  0
 27 28  2  0
 28 23  1  0
 29 21  1  0
 29 30  1  0
 31 29  2  0
M  END
$$$$
