FDF.pdb
     RDKit          3D

 31 32  0  0  1  0  0  0  0  0999 V2000
   28.2965  -21.2192  -11.1189 N   0  0  0  0  0  0  0  0  0  0  0  0
   26.9178  -21.0701  -10.7470 C   0  0  1  0  0  0  0  0  0  0  0  0
   26.6994  -19.9738   -9.7482 C   0  0  0  0  0  0  0  0  0  0  0  0
   27.3929  -20.1686   -8.4678 C   0  0  0  0  0  0  0  0  0  0  0  0
   28.7574  -19.9834   -8.4163 C   0  0  0  0  0  0  0  0  0  0  0  0
   29.4755  -20.1548   -7.2308 C   0  0  0  0  0  0  0  0  0  0  0  0
   28.8216  -20.5188   -6.0697 C   0  0  0  0  0  0  0  0  0  0  0  0
   27.4640  -20.7032   -6.1203 C   0  0  0  0  0  0  0  0  0  0  0  0
   26.7562  -20.5293   -7.3104 C   0  0  0  0  0  0  0  0  0  0  0  0
   26.0683  -20.7234  -11.9424 C   0  0  0  0  0  0  0  0  0  0  0  0
   26.3220  -19.7130  -12.6456 O   0  0  0  0  0  0  0  0  0  0  0  0
   24.9518  -21.5177  -12.3243 N   0  0  0  0  0  0  0  0  0  0  0  0
   24.0655  -21.1520  -13.4193 C   0  0  1  0  0  0  0  0  0  0  0  0
   24.2099  -22.0579  -14.5892 C   0  0  0  0  0  0  0  0  0  0  0  0
   25.6242  -22.1276  -14.9998 C   0  0  0  0  0  0  0  0  0  0  0  0
   26.4193  -23.0332  -14.6497 O   0  0  0  0  0  0  0  0  0  0  0  0
   22.6712  -21.0485  -12.9876 C   0  0  0  0  0  0  0  0  0  0  0  0
   22.1752  -21.7610  -12.0766 O   0  0  0  0  0  0  0  0  0  0  0  0
   26.1156  -21.1290  -15.8282 O   0  0  0  0  0  0  0  0  0  0  0  0
   21.8424  -20.0809  -13.6467 N   0  0  0  0  0  0  0  0  0  0  0  0
   20.4406  -19.9242  -13.2182 C   0  0  1  0  0  0  0  0  0  0  0  0
   20.3310  -18.7459  -12.2846 C   0  0  0  0  0  0  0  0  0  0  0  0
   18.9407  -18.5713  -11.8390 C   0  0  0  0  0  0  0  0  0  0  0  0
   18.3649  -19.2816  -10.8253 C   0  0  0  0  0  0  0  0  0  0  0  0
   17.0458  -19.0595  -10.4456 C   0  0  0  0  0  0  0  0  0  0  0  0
   16.2697  -18.1108  -11.0819 C   0  0  0  0  0  0  0  0  0  0  0  0
   16.8645  -17.3919  -12.1140 C   0  0  0  0  0  0  0  0  0  0  0  0
   18.1626  -17.6176  -12.4800 C   0  0  0  0  0  0  0  0  0  0  0  0
   19.6345  -19.6832  -14.4221 C   0  0  0  0  0  0  0  0  0  0  0  0
   18.3788  -20.2390  -14.5486 O   0  0  0  0  0  0  0  0  0  0  0  0
   20.0538  -18.9767  -15.3581 O   0  0  0  0  0  0  0  0  0  0  0  0
  2  1  1  6
  3  2  1  0
  4  5  2  0
  4  3  1  0
  6  5  1  0
  7  6  2  0
  8  7  1  0
  8  9  2  0
  9  4  1  0
 10 11  2  0
 10  2  1  0
 12 10  1  0
 13 12  1  0
 13 14  1  6
 15 14  1  0
 16 15  2  0
 17 13  1  0
 18 17  2  0
 19 15  1  0
 20 17  1  0
 21 20  1  0
 21 22  1  1
 23 22  1  0
 24 23  2  0
 25 24  1  0
 26 25  2  0
 26 27  1  0
 27 28  2  0
 28 23  1  0
 29 21  1  0
 29 30  1  0
 31 29  2  0
M  END
$$$$
