FDF.pdb
     RDKit          3D

 31 32  0  0  1  0  0  0  0  0999 V2000
   24.3027  -17.0551  -16.3144 N   0  0  0  0  0  0  0  0  0  0  0  0
   25.4221  -17.8683  -15.9310 C   0  0  1  0  0  0  0  0  0  0  0  0
   26.4408  -17.1159  -15.1289 C   0  0  0  0  0  0  0  0  0  0  0  0
   27.2551  -16.1734  -15.9078 C   0  0  0  0  0  0  0  0  0  0  0  0
   28.2790  -16.6665  -16.6871 C   0  0  0  0  0  0  0  0  0  0  0  0
   29.0905  -15.8233  -17.4493 C   0  0  0  0  0  0  0  0  0  0  0  0
   28.8788  -14.4583  -17.4364 C   0  0  0  0  0  0  0  0  0  0  0  0
   27.8602  -13.9671  -16.6613 C   0  0  0  0  0  0  0  0  0  0  0  0
   27.0553  -14.8188  -15.9034 C   0  0  0  0  0  0  0  0  0  0  0  0
   24.9825  -19.0251  -15.0712 C   0  0  0  0  0  0  0  0  0  0  0  0
   24.0217  -18.9072  -14.2693 O   0  0  0  0  0  0  0  0  0  0  0  0
   25.6298  -20.2904  -15.1287 N   0  0  0  0  0  0  0  0  0  0  0  0
   25.2269  -21.4172  -14.3003 C   0  0  1  0  0  0  0  0  0  0  0  0
   25.3858  -22.7187  -15.0012 C   0  0  0  0  0  0  0  0  0  0  0  0
   24.8338  -23.8064  -14.1730 C   0  0  0  0  0  0  0  0  0  0  0  0
   24.0636  -23.6327  -13.1976 O   0  0  0  0  0  0  0  0  0  0  0  0
   25.9058  -21.4176  -13.0041 C   0  0  0  0  0  0  0  0  0  0  0  0
   27.1519  -21.5390  -12.8767 O   0  0  0  0  0  0  0  0  0  0  0  0
   25.1847  -25.1114  -14.4872 O   0  0  0  0  0  0  0  0  0  0  0  0
   25.0948  -21.2712  -11.8300 N   0  0  0  0  0  0  0  0  0  0  0  0
   25.7421  -21.2654  -10.5055 C   0  0  1  0  0  0  0  0  0  0  0  0
   26.7204  -20.1211  -10.4310 C   0  0  0  0  0  0  0  0  0  0  0  0
   27.2770  -20.0088   -9.0747 C   0  0  0  0  0  0  0  0  0  0  0  0
   26.8464  -19.1114   -8.1405 C   0  0  0  0  0  0  0  0  0  0  0  0
   27.4094  -19.0644   -6.8699 C   0  0  0  0  0  0  0  0  0  0  0  0
   28.4265  -19.9255   -6.5074 C   0  0  0  0  0  0  0  0  0  0  0  0
   28.8593  -20.8365   -7.4658 C   0  0  0  0  0  0  0  0  0  0  0  0
   28.2991  -20.8749   -8.7126 C   0  0  0  0  0  0  0  0  0  0  0  0
   24.6876  -21.0863   -9.4989 C   0  0  0  0  0  0  0  0  0  0  0  0
   23.4781  -20.5203   -9.8428 O   0  0  0  0  0  0  0  0  0  0  0  0
   24.8493  -21.4358   -8.3144 O   0  0  0  0  0  0  0  0  0  0  0  0
  2  1  1  1
  3  2  1  0
  4  5  2  0
  4  3  1  0
  6  5  1  0
  7  6  2  0
  8  7  1  0
  8  9  2  0
  9  4  1  0
 10 11  2  0
 10  2  1  0
 12 10  1  0
 13 12  1  0
 13 14  1  6
 15 14  1  0
 16 15  2  0
 17 13  1  0
 18 17  2  0
 19 15  1  0
 20 17  1  0
 21 20  1  0
 21 22  1  6
 23 22  1  0
 24 23  2  0
 25 24  1  0
 26 25  2  0
 26 27  1  0
 27 28  2  0
 28 23  1  0
 29 21  1  0
 29 30  1  0
 31 29  2  0
M  END
$$$$
