FDF.pdb
     RDKit          3D

 31 32  0  0  1  0  0  0  0  0999 V2000
   28.9931  -19.2716  -13.1972 N   0  0  0  0  0  0  0  0  0  0  0  0
   28.2021  -20.4675  -13.1250 C   0  0  1  0  0  0  0  0  0  0  0  0
   28.0065  -20.9524  -11.7201 C   0  0  0  0  0  0  0  0  0  0  0  0
   29.2444  -21.3425  -11.0319 C   0  0  0  0  0  0  0  0  0  0  0  0
   29.3783  -21.0545   -9.6910 C   0  0  0  0  0  0  0  0  0  0  0  0
   30.5304  -21.3970   -8.9800 C   0  0  0  0  0  0  0  0  0  0  0  0
   31.5736  -22.0408   -9.6170 C   0  0  0  0  0  0  0  0  0  0  0  0
   31.4410  -22.3276  -10.9511 C   0  0  0  0  0  0  0  0  0  0  0  0
   30.2851  -21.9808  -11.6521 C   0  0  0  0  0  0  0  0  0  0  0  0
   26.8221  -20.2393  -13.6856 C   0  0  0  0  0  0  0  0  0  0  0  0
   26.1210  -19.2682  -13.3045 O   0  0  0  0  0  0  0  0  0  0  0  0
   26.2571  -21.1053  -14.6625 N   0  0  0  0  0  0  0  0  0  0  0  0
   24.8936  -20.9568  -15.1493 C   0  0  1  0  0  0  0  0  0  0  0  0
   24.7229  -21.4963  -16.5241 C   0  0  0  0  0  0  0  0  0  0  0  0
   23.3464  -21.2526  -16.9927 C   0  0  0  0  0  0  0  0  0  0  0  0
   22.4671  -22.1415  -17.0999 O   0  0  0  0  0  0  0  0  0  0  0  0
   23.9136  -21.5246  -14.2229 C   0  0  0  0  0  0  0  0  0  0  0  0
   24.0947  -22.6038  -13.6014 O   0  0  0  0  0  0  0  0  0  0  0  0
   22.9925  -19.9567  -17.3397 O   0  0  0  0  0  0  0  0  0  0  0  0
   22.6907  -20.8015  -14.0250 N   0  0  0  0  0  0  0  0  0  0  0  0
   21.6957  -21.3202  -13.0688 C   0  0  1  0  0  0  0  0  0  0  0  0
   21.6248  -20.4046  -11.8735 C   0  0  0  0  0  0  0  0  0  0  0  0
   21.0642  -19.1009  -12.2577 C   0  0  0  0  0  0  0  0  0  0  0  0
   19.7963  -18.6927  -11.9587 C   0  0  0  0  0  0  0  0  0  0  0  0
   19.3307  -17.4401  -12.3431 C   0  0  0  0  0  0  0  0  0  0  0  0
   20.1359  -16.5628  -13.0426 C   0  0  0  0  0  0  0  0  0  0  0  0
   21.4263  -16.9872  -13.3433 C   0  0  0  0  0  0  0  0  0  0  0  0
   21.8750  -18.2210  -12.9608 C   0  0  0  0  0  0  0  0  0  0  0  0
   20.3967  -21.3476  -13.7537 C   0  0  0  0  0  0  0  0  0  0  0  0
   19.3178  -21.9923  -13.1863 O   0  0  0  0  0  0  0  0  0  0  0  0
   20.2285  -20.7954  -14.8573 O   0  0  0  0  0  0  0  0  0  0  0  0
  2  1  1  1
  3  2  1  0
  4  5  2  0
  4  3  1  0
  6  5  1  0
  7  6  2  0
  8  7  1  0
  8  9  2  0
  9  4  1  0
 10 11  2  0
 10  2  1  0
 12 10  1  0
 13 12  1  0
 13 14  1  6
 15 14  1  0
 16 15  2  0
 17 13  1  0
 18 17  2  0
 19 15  1  0
 20 17  1  0
 21 20  1  0
 21 22  1  1
 23 22  1  0
 24 23  2  0
 25 24  1  0
 26 25  2  0
 26 27  1  0
 27 28  2  0
 28 23  1  0
 29 21  1  0
 29 30  1  0
 31 29  2  0
M  END
$$$$
