FDF.pdb
     RDKit          3D

 31 32  0  0  1  0  0  0  0  0999 V2000
   22.2215   -9.2127  -16.9076 N   0  0  0  0  0  0  0  0  0  0  0  0
   22.1521   -8.6639  -15.5828 C   0  0  1  0  0  0  0  0  0  0  0  0
   23.3630   -7.8569  -15.2227 C   0  0  0  0  0  0  0  0  0  0  0  0
   24.6396   -8.5633  -15.3945 C   0  0  0  0  0  0  0  0  0  0  0  0
   25.4803   -8.1776  -16.4158 C   0  0  0  0  0  0  0  0  0  0  0  0
   26.7064   -8.8098  -16.6334 C   0  0  0  0  0  0  0  0  0  0  0  0
   27.1057   -9.8497  -15.8164 C   0  0  0  0  0  0  0  0  0  0  0  0
   26.2697  -10.2339  -14.8000 C   0  0  0  0  0  0  0  0  0  0  0  0
   25.0465   -9.5952  -14.5916 C   0  0  0  0  0  0  0  0  0  0  0  0
   20.9729   -7.7363  -15.4414 C   0  0  0  0  0  0  0  0  0  0  0  0
   20.3495   -7.3233  -16.4517 O   0  0  0  0  0  0  0  0  0  0  0  0
   20.5174   -7.2913  -14.1695 N   0  0  0  0  0  0  0  0  0  0  0  0
   19.1276   -6.9460  -13.9096 C   0  0  1  0  0  0  0  0  0  0  0  0
   18.1952   -8.0455  -14.2728 C   0  0  0  0  0  0  0  0  0  0  0  0
   16.8009   -7.5784  -14.1651 C   0  0  0  0  0  0  0  0  0  0  0  0
   15.9940   -7.9558  -13.2812 O   0  0  0  0  0  0  0  0  0  0  0  0
   18.9205   -6.4975  -12.5323 C   0  0  0  0  0  0  0  0  0  0  0  0
   19.3593   -7.1189  -11.5298 O   0  0  0  0  0  0  0  0  0  0  0  0
   16.3436   -6.6606  -15.0996 O   0  0  0  0  0  0  0  0  0  0  0  0
   18.1776   -5.2867  -12.3331 N   0  0  0  0  0  0  0  0  0  0  0  0
   18.0408   -4.7434  -10.9695 C   0  0  1  0  0  0  0  0  0  0  0  0
   17.3664   -3.3968  -11.0321 C   0  0  0  0  0  0  0  0  0  0  0  0
   17.4400   -2.7243   -9.7266 C   0  0  0  0  0  0  0  0  0  0  0  0
   16.4297   -2.7181   -8.8086 C   0  0  0  0  0  0  0  0  0  0  0  0
   16.5682   -2.0708   -7.5858 C   0  0  0  0  0  0  0  0  0  0  0  0
   17.7350   -1.4095   -7.2560 C   0  0  0  0  0  0  0  0  0  0  0  0
   18.7592   -1.4208   -8.1977 C   0  0  0  0  0  0  0  0  0  0  0  0
   18.6134   -2.0604   -9.3975 C   0  0  0  0  0  0  0  0  0  0  0  0
   17.2117   -5.6811  -10.2011 C   0  0  0  0  0  0  0  0  0  0  0  0
   16.0920   -6.2538  -10.7668 O   0  0  0  0  0  0  0  0  0  0  0  0
   17.4894   -5.9866   -9.0260 O   0  0  0  0  0  0  0  0  0  0  0  0
  2  1  1  6
  3  2  1  0
  4  5  2  0
  4  3  1  0
  6  5  1  0
  7  6  2  0
  8  7  1  0
  8  9  2  0
  9  4  1  0
 10 11  2  0
 10  2  1  0
 12 10  1  0
 13 12  1  0
 13 14  1  1
 15 14  1  0
 16 15  2  0
 17 13  1  0
 18 17  2  0
 19 15  1  0
 20 17  1  0
 21 20  1  0
 21 22  1  6
 23 22  1  0
 24 23  2  0
 25 24  1  0
 26 25  2  0
 26 27  1  0
 27 28  2  0
 28 23  1  0
 29 21  1  0
 29 30  1  0
 31 29  2  0
M  END
$$$$
