FDF.pdb
     RDKit          3D

 31 32  0  0  1  0  0  0  0  0999 V2000
   29.1570  -19.5626  -13.8771 N   0  0  0  0  0  0  0  0  0  0  0  0
   28.5672  -20.8443  -13.6112 C   0  0  1  0  0  0  0  0  0  0  0  0
   28.3349  -21.0867  -12.1502 C   0  0  0  0  0  0  0  0  0  0  0  0
   29.5574  -21.3151  -11.3682 C   0  0  0  0  0  0  0  0  0  0  0  0
   29.6322  -20.8088  -10.0889 C   0  0  0  0  0  0  0  0  0  0  0  0
   30.7667  -20.9896   -9.2948 C   0  0  0  0  0  0  0  0  0  0  0  0
   31.8520  -21.6902   -9.7843 C   0  0  0  0  0  0  0  0  0  0  0  0
   31.7782  -22.1943  -11.0571 C   0  0  0  0  0  0  0  0  0  0  0  0
   30.6395  -22.0076  -11.8421 C   0  0  0  0  0  0  0  0  0  0  0  0
   27.2208  -20.9699  -14.2763 C   0  0  0  0  0  0  0  0  0  0  0  0
   26.5937  -19.9525  -14.6655 O   0  0  0  0  0  0  0  0  0  0  0  0
   26.6058  -22.2344  -14.4910 N   0  0  0  0  0  0  0  0  0  0  0  0
   25.2869  -22.3747  -15.0904 C   0  0  1  0  0  0  0  0  0  0  0  0
   25.1322  -23.6608  -15.8200 C   0  0  0  0  0  0  0  0  0  0  0  0
   26.1243  -23.7444  -16.9074 C   0  0  0  0  0  0  0  0  0  0  0  0
   26.9374  -24.6891  -17.0529 O   0  0  0  0  0  0  0  0  0  0  0  0
   24.2150  -22.1776  -14.1140 C   0  0  0  0  0  0  0  0  0  0  0  0
   23.8585  -23.0608  -13.2915 O   0  0  0  0  0  0  0  0  0  0  0  0
   26.1675  -22.7138  -17.8353 O   0  0  0  0  0  0  0  0  0  0  0  0
   23.5479  -20.9077  -14.1080 N   0  0  0  0  0  0  0  0  0  0  0  0
   22.4771  -20.6630  -13.1248 C   0  0  1  0  0  0  0  0  0  0  0  0
   22.9243  -19.6035  -12.1504 C   0  0  0  0  0  0  0  0  0  0  0  0
   23.6198  -20.2160  -11.0089 C   0  0  0  0  0  0  0  0  0  0  0  0
   22.9917  -20.7011   -9.8982 C   0  0  0  0  0  0  0  0  0  0  0  0
   23.7091  -21.2792   -8.8567 C   0  0  0  0  0  0  0  0  0  0  0  0
   25.0852  -21.3832   -8.9090 C   0  0  0  0  0  0  0  0  0  0  0  0
   25.7170  -20.8859  -10.0445 C   0  0  0  0  0  0  0  0  0  0  0  0
   25.0026  -20.3193  -11.0635 C   0  0  0  0  0  0  0  0  0  0  0  0
   21.2971  -20.1950  -13.8635 C   0  0  0  0  0  0  0  0  0  0  0  0
   20.0337  -20.3340  -13.3285 O   0  0  0  0  0  0  0  0  0  0  0  0
   21.3974  -19.6629  -14.9851 O   0  0  0  0  0  0  0  0  0  0  0  0
  2  1  1  1
  3  2  1  0
  4  5  2  0
  4  3  1  0
  6  5  1  0
  7  6  2  0
  8  7  1  0
  8  9  2  0
  9  4  1  0
 10 11  2  0
 10  2  1  0
 12 10  1  0
 13 12  1  0
 13 14  1  1
 15 14  1  0
 16 15  2  0
 17 13  1  0
 18 17  2  0
 19 15  1  0
 20 17  1  0
 21 20  1  0
 21 22  1  1
 23 22  1  0
 24 23  2  0
 25 24  1  0
 26 25  2  0
 26 27  1  0
 27 28  2  0
 28 23  1  0
 29 21  1  0
 29 30  1  0
 31 29  2  0
M  END
$$$$
