PLK.pdb
     RDKit          3D

 25 25  0  0  1  0  0  0  0  0999 V2000
    8.6781  -15.1365   19.4458 N   0  0  0  0  0  0  0  0  0  0  0  0
    8.4559  -16.0740   18.3801 C   0  0  0  0  0  0  0  0  0  0  0  0
    7.2771  -16.9353   18.7779 C   0  0  0  0  0  0  0  0  0  0  0  0
    7.2756  -16.7443   20.2996 C   0  0  0  0  0  0  0  0  0  0  0  0
    7.6270  -15.2778   20.3993 C   0  0  1  0  0  0  0  0  0  0  0  0
    8.0828  -14.9043   21.7606 C   0  0  0  0  0  0  0  0  0  0  0  0
    9.2885  -15.1115   22.0503 O   0  0  0  0  0  0  0  0  0  0  0  0
    5.7493  -12.5364   27.1021 C   0  0  0  0  0  0  0  0  0  0  0  0
    6.9326  -12.8873   26.2562 C   0  0  2  0  0  0  0  0  0  0  0  0
    8.0750  -11.9250   26.4890 C   0  0  0  0  0  0  0  0  0  0  0  0
    6.6527  -13.1569   24.8323 C   0  0  0  0  0  0  0  0  0  0  0  0
    7.5910  -14.0241   24.0794 C   0  0  2  0  0  0  0  0  0  0  0  0
    7.2192  -14.3302   22.7324 N   0  0  0  0  0  0  0  0  0  0  0  0
    7.9436  -15.2416   24.8733 C   0  0  0  0  0  0  0  0  0  0  0  0
    7.0342  -16.0972   25.0268 O   0  0  0  0  0  0  0  0  0  0  0  0
    9.2203  -15.4475   25.4332 N   0  0  0  0  0  0  0  0  0  0  0  0
    9.6595  -16.8028   25.8088 C   0  0  1  0  0  0  0  0  0  0  0  0
   10.4772  -17.3891   24.6873 C   0  0  0  0  0  0  0  0  0  0  0  0
   11.0892  -18.7222   25.0270 C   0  0  0  0  0  0  0  0  0  0  0  0
   11.8984  -19.2189   23.8171 C   0  0  0  0  0  0  0  0  0  0  0  0
   12.5261  -20.5358   24.2091 C   0  0  0  0  0  0  0  0  0  0  0  0
   13.2793  -21.0308   23.0581 N   0  0  0  0  0  0  0  0  0  0  0  0
   10.3325  -16.7638   27.1087 C   0  0  0  0  0  0  0  0  0  0  0  0
   10.5557  -15.6194   27.8536 O   0  0  0  0  0  0  0  0  0  0  0  0
   10.7742  -17.8371   27.6549 O   0  0  0  0  0  0  0  0  0  0  0  0
  1  2  1  0
  1  5  1  0
  2  3  1  0
  3  4  1  0
  5  4  1  0
  5  6  1  1
  6 13  1  0
  7  6  2  0
  9  8  1  6
  9 10  1  0
 12 11  1  1
 11  9  1  0
 12 13  1  0
 14 12  1  0
 15 14  2  0
 16 14  1  0
 17 23  1  0
 17 16  1  0
 17 18  1  6
 19 18  1  0
 20 19  1  0
 21 20  1  0
 22 21  1  0
 23 24  1  0
 25 23  2  0
M  END
$$$$
