PLK.pdb
     RDKit          3D

 25 25  0  0  1  0  0  0  0  0999 V2000
    7.1935  -14.9550   20.5402 N   0  0  0  0  0  0  0  0  0  0  0  0
    6.4740  -14.3459   19.4560 C   0  0  0  0  0  0  0  0  0  0  0  0
    7.1077  -12.9964   19.1981 C   0  0  0  0  0  0  0  0  0  0  0  0
    7.8061  -12.7401   20.5393 C   0  0  0  0  0  0  0  0  0  0  0  0
    8.3091  -14.1277   20.8641 C   0  0  1  0  0  0  0  0  0  0  0  0
    8.6832  -14.2656   22.2929 C   0  0  0  0  0  0  0  0  0  0  0  0
    9.9048  -14.2108   22.5847 O   0  0  0  0  0  0  0  0  0  0  0  0
    7.6928  -11.7713   26.0594 C   0  0  0  0  0  0  0  0  0  0  0  0
    6.6057  -12.7308   25.6900 C   0  0  2  0  0  0  0  0  0  0  0  0
    5.3374  -12.4422   26.4603 C   0  0  0  0  0  0  0  0  0  0  0  0
    6.9834  -14.1575   25.6643 C   0  0  0  0  0  0  0  0  0  0  0  0
    8.0365  -14.5928   24.7153 C   0  0  2  0  0  0  0  0  0  0  0  0
    7.7255  -14.4543   23.3259 N   0  0  0  0  0  0  0  0  0  0  0  0
    8.5345  -15.9594   25.0634 C   0  0  0  0  0  0  0  0  0  0  0  0
    7.7084  -16.9029   24.9625 O   0  0  0  0  0  0  0  0  0  0  0  0
    9.8555  -16.2086   25.4861 N   0  0  0  0  0  0  0  0  0  0  0  0
   10.2502  -17.5516   25.9456 C   0  0  1  0  0  0  0  0  0  0  0  0
   11.4318  -18.0256   25.1399 C   0  0  0  0  0  0  0  0  0  0  0  0
   11.1222  -18.2142   23.6785 C   0  0  0  0  0  0  0  0  0  0  0  0
   12.4020  -18.6662   22.9550 C   0  0  0  0  0  0  0  0  0  0  0  0
   12.0831  -18.7296   21.4799 C   0  0  0  0  0  0  0  0  0  0  0  0
   13.3267  -19.0160   20.7668 N   0  0  0  0  0  0  0  0  0  0  0  0
   10.4562  -17.5393   27.3953 C   0  0  0  0  0  0  0  0  0  0  0  0
   10.5951  -18.6653   28.1874 O   0  0  0  0  0  0  0  0  0  0  0  0
   10.5215  -16.4339   28.0426 O   0  0  0  0  0  0  0  0  0  0  0  0
  1  2  1  0
  1  5  1  0
  2  3  1  0
  3  4  1  0
  5  4  1  0
  5  6  1  1
  6 13  1  0
  7  6  2  0
  9  8  1  1
  9 10  1  0
 12 11  1  1
 11  9  1  0
 12 13  1  0
 14 12  1  0
 15 14  2  0
 16 14  1  0
 17 23  1  0
 17 16  1  0
 17 18  1  6
 19 18  1  0
 20 19  1  0
 21 20  1  0
 22 21  1  0
 23 24  1  0
 25 23  2  0
M  END
$$$$
