PLK.pdb
     RDKit          3D

 25 25  0  0  1  0  0  0  0  0999 V2000
    7.3687  -15.0844   20.0226 N   0  0  0  0  0  0  0  0  0  0  0  0
    6.8239  -14.6289   18.7737 C   0  0  0  0  0  0  0  0  0  0  0  0
    7.5804  -13.3781   18.3830 C   0  0  0  0  0  0  0  0  0  0  0  0
    8.1386  -12.9374   19.7418 C   0  0  0  0  0  0  0  0  0  0  0  0
    8.4980  -14.2754   20.3455 C   0  0  1  0  0  0  0  0  0  0  0  0
    8.6960  -14.1905   21.8131 C   0  0  0  0  0  0  0  0  0  0  0  0
    9.8763  -14.1201   22.2402 O   0  0  0  0  0  0  0  0  0  0  0  0
    5.5232  -12.7936   27.0453 C   0  0  0  0  0  0  0  0  0  0  0  0
    6.7691  -13.2167   26.3331 C   0  0  2  0  0  0  0  0  0  0  0  0
    7.9474  -12.3607   26.7383 C   0  0  0  0  0  0  0  0  0  0  0  0
    6.6444  -13.4193   24.8763 C   0  0  0  0  0  0  0  0  0  0  0  0
    7.7558  -14.0888   24.1581 C   0  0  2  0  0  0  0  0  0  0  0  0
    7.6167  -14.1861   22.7378 N   0  0  0  0  0  0  0  0  0  0  0  0
    8.0901  -15.3986   24.7980 C   0  0  0  0  0  0  0  0  0  0  0  0
    7.1482  -16.2239   24.9181 O   0  0  0  0  0  0  0  0  0  0  0  0
    9.3844  -15.7204   25.2532 N   0  0  0  0  0  0  0  0  0  0  0  0
    9.6975  -17.0880   25.7031 C   0  0  1  0  0  0  0  0  0  0  0  0
   10.7257  -17.6914   24.7819 C   0  0  0  0  0  0  0  0  0  0  0  0
   10.2273  -17.8851   23.3743 C   0  0  0  0  0  0  0  0  0  0  0  0
   11.3446  -18.5301   22.5371 C   0  0  0  0  0  0  0  0  0  0  0  0
   10.8053  -18.7153   21.1384 C   0  0  0  0  0  0  0  0  0  0  0  0
   11.8830  -19.2583   20.3132 N   0  0  0  0  0  0  0  0  0  0  0  0
   10.0711  -17.0712   27.1189 C   0  0  0  0  0  0  0  0  0  0  0  0
   10.1595  -15.9350   27.9036 O   0  0  0  0  0  0  0  0  0  0  0  0
   10.3513  -18.1580   27.7398 O   0  0  0  0  0  0  0  0  0  0  0  0
  1  2  1  0
  1  5  1  0
  2  3  1  0
  3  4  1  0
  5  4  1  0
  5  6  1  1
  6 13  1  0
  7  6  2  0
  9  8  1  6
  9 10  1  0
 12 11  1  1
 11  9  1  0
 12 13  1  0
 14 12  1  0
 15 14  2  0
 16 14  1  0
 17 23  1  0
 17 16  1  0
 17 18  1  6
 19 18  1  0
 20 19  1  0
 21 20  1  0
 22 21  1  0
 23 24  1  0
 25 23  2  0
M  END
$$$$
