PLK.pdb
     RDKit          3D

 25 25  0  0  1  0  0  0  0  0999 V2000
    8.1526  -14.8221   19.9293 N   0  0  0  0  0  0  0  0  0  0  0  0
    7.8226  -15.6592   18.8093 C   0  0  0  0  0  0  0  0  0  0  0  0
    6.8407  -16.7004   19.3004 C   0  0  0  0  0  0  0  0  0  0  0  0
    7.1194  -16.6770   20.8083 C   0  0  0  0  0  0  0  0  0  0  0  0
    7.3303  -15.1974   21.0324 C   0  0  1  0  0  0  0  0  0  0  0  0
    8.0045  -14.9190   22.3241 C   0  0  0  0  0  0  0  0  0  0  0  0
    9.2613  -14.9412   22.3438 O   0  0  0  0  0  0  0  0  0  0  0  0
    7.7368  -11.5408   25.6157 C   0  0  0  0  0  0  0  0  0  0  0  0
    6.6276  -12.5402   25.7148 C   0  0  2  0  0  0  0  0  0  0  0  0
    5.5696  -12.0866   26.6946 C   0  0  0  0  0  0  0  0  0  0  0  0
    7.0384  -13.9481   25.8808 C   0  0  0  0  0  0  0  0  0  0  0  0
    7.8738  -14.5699   24.8250 C   0  0  2  0  0  0  0  0  0  0  0  0
    7.2916  -14.6328   23.5199 N   0  0  0  0  0  0  0  0  0  0  0  0
    8.4147  -15.8874   25.2815 C   0  0  0  0  0  0  0  0  0  0  0  0
    7.5890  -16.8311   25.3826 O   0  0  0  0  0  0  0  0  0  0  0  0
    9.7745  -16.0916   25.5901 N   0  0  0  0  0  0  0  0  0  0  0  0
   10.2491  -17.4169   26.0249 C   0  0  1  0  0  0  0  0  0  0  0  0
   11.4579  -17.8033   25.2129 C   0  0  0  0  0  0  0  0  0  0  0  0
   11.1603  -17.9898   23.7488 C   0  0  0  0  0  0  0  0  0  0  0  0
   12.4667  -18.3435   23.0185 C   0  0  0  0  0  0  0  0  0  0  0  0
   12.1578  -18.3768   21.5403 C   0  0  0  0  0  0  0  0  0  0  0  0
   13.4243  -18.5140   20.8230 N   0  0  0  0  0  0  0  0  0  0  0  0
   10.4526  -17.4198   27.4751 C   0  0  0  0  0  0  0  0  0  0  0  0
   10.2799  -16.3251   28.3035 O   0  0  0  0  0  0  0  0  0  0  0  0
   10.8203  -18.4854   28.0871 O   0  0  0  0  0  0  0  0  0  0  0  0
  1  2  1  0
  1  5  1  0
  2  3  1  0
  3  4  1  0
  5  4  1  0
  5  6  1  1
  6 13  1  0
  7  6  2  0
  9  8  1  1
  9 10  1  0
 12 11  1  1
 11  9  1  0
 12 13  1  0
 14 12  1  0
 15 14  2  0
 16 14  1  0
 17 23  1  0
 17 16  1  0
 17 18  1  6
 19 18  1  0
 20 19  1  0
 21 20  1  0
 22 21  1  0
 23 24  1  0
 25 23  2  0
M  END
$$$$
