QYV.pdb
     RDKit          3D

 29 29  0  0  1  0  0  0  0  0999 V2000
   28.7866  -21.3438  -17.8722 N   0  0  0  0  0  0  0  0  0  0  0  0
   28.8027  -22.5138  -18.6618 C   0  0  0  0  0  0  0  0  0  0  0  0
   29.8465  -22.7716  -19.3558 O   0  0  0  0  0  0  0  0  0  0  0  0
   27.6866  -23.4634  -18.7353 C   0  0  0  0  0  0  0  0  0  0  0  0
   26.5110  -23.1217  -17.8707 C   0  0  0  0  0  0  0  0  0  0  0  0
   26.7752  -23.5242  -16.4604 C   0  0  2  0  0  0  0  0  0  0  0  0
   26.7497  -24.9716  -16.2868 N   0  0  0  0  0  0  0  0  0  0  0  0
   25.7507  -22.9336  -15.5232 C   0  0  0  0  0  0  0  0  0  0  0  0
   24.7079  -23.5644  -15.2647 O   0  0  0  0  0  0  0  0  0  0  0  0
   24.6394  -20.9524   -7.6324 O   0  0  0  0  0  0  0  0  0  0  0  0
   24.8941  -20.7294   -8.9901 C   0  0  0  0  0  0  0  0  0  0  0  0
   23.9155  -20.2473   -9.8289 C   0  0  0  0  0  0  0  0  0  0  0  0
   24.1782  -20.0317  -11.1648 C   0  0  0  0  0  0  0  0  0  0  0  0
   25.4291  -20.2903  -11.7106 C   0  0  0  0  0  0  0  0  0  0  0  0
   25.6618  -20.0491  -13.1307 C   0  0  0  0  0  0  0  0  0  0  0  0
   24.9648  -21.0260  -14.0534 C   0  0  2  0  0  0  0  0  0  0  0  0
   25.9353  -21.6672  -14.9174 N   0  0  0  0  0  0  0  0  0  0  0  0
   23.8759  -20.3888  -14.8321 C   0  0  0  0  0  0  0  0  0  0  0  0
   24.1752  -19.5472  -15.7111 O   0  0  0  0  0  0  0  0  0  0  0  0
   26.3958  -20.7702  -10.8650 C   0  0  0  0  0  0  0  0  0  0  0  0
   26.1575  -20.9969   -9.5125 C   0  0  0  0  0  0  0  0  0  0  0  0
   21.8127  -21.4326  -17.4037 C   0  0  0  0  0  0  0  0  0  0  0  0
   20.8296  -20.9835  -16.3446 C   0  0  1  0  0  0  0  0  0  0  0  0
   20.3699  -22.2164  -15.5982 C   0  0  0  0  0  0  0  0  0  0  0  0
   21.4577  -20.0426  -15.3539 C   0  0  2  0  0  0  0  0  0  0  0  0
   22.5299  -20.7015  -14.6116 N   0  0  0  0  0  0  0  0  0  0  0  0
   20.4244  -19.6405  -14.3733 C   0  0  0  0  0  0  0  0  0  0  0  0
   19.5230  -18.8483  -14.7129 O   0  0  0  0  0  0  0  0  0  0  0  0
   20.4532  -20.1365  -13.0877 O   0  0  0  0  0  0  0  0  0  0  0  0
  1  2  1  0
  2  3  2  0
  2  4  1  0
  4  5  1  0
  6  5  1  0
  6  7  1  6
  8  6  1  0
  8  9  2  0
 10 11  1  0
 11 12  2  0
 12 13  1  0
 14 13  2  0
 14 15  1  0
 16 15  1  6
 16 17  1  0
 17  8  1  0
 18 16  1  0
 18 26  1  0
 19 18  2  0
 20 14  1  0
 21 20  2  0
 21 11  1  0
 23 22  1  6
 23 25  1  0
 24 23  1  0
 25 26  1  1
 25 27  1  0
 27 28  2  0
 27 29  1  0
M  END
$$$$
