QYV.pdb
     RDKit          3D

 29 29  0  0  1  0  0  0  0  0999 V2000
   30.8010  -21.5403  -19.2800 N   0  0  0  0  0  0  0  0  0  0  0  0
   29.5573  -20.8750  -19.2236 C   0  0  0  0  0  0  0  0  0  0  0  0
   29.5381  -19.6356  -18.9059 O   0  0  0  0  0  0  0  0  0  0  0  0
   28.2723  -21.5223  -19.5115 C   0  0  0  0  0  0  0  0  0  0  0  0
   27.3325  -21.6023  -18.3468 C   0  0  0  0  0  0  0  0  0  0  0  0
   27.9012  -22.4812  -17.2860 C   0  0  2  0  0  0  0  0  0  0  0  0
   27.9873  -23.8729  -17.7116 N   0  0  0  0  0  0  0  0  0  0  0  0
   27.0616  -22.4377  -16.0331 C   0  0  0  0  0  0  0  0  0  0  0  0
   26.0649  -23.1775  -15.9267 O   0  0  0  0  0  0  0  0  0  0  0  0
   24.6366  -20.0914   -7.7679 O   0  0  0  0  0  0  0  0  0  0  0  0
   25.3250  -20.2783   -8.9717 C   0  0  0  0  0  0  0  0  0  0  0  0
   25.7093  -21.5332   -9.3852 C   0  0  0  0  0  0  0  0  0  0  0  0
   26.3872  -21.7049  -10.5733 C   0  0  0  0  0  0  0  0  0  0  0  0
   26.7053  -20.6281  -11.3908 C   0  0  0  0  0  0  0  0  0  0  0  0
   27.4257  -20.8564  -12.6390 C   0  0  0  0  0  0  0  0  0  0  0  0
   26.5874  -21.4654  -13.7426 C   0  0  2  0  0  0  0  0  0  0  0  0
   27.3713  -21.5717  -14.9565 N   0  0  0  0  0  0  0  0  0  0  0  0
   25.3256  -20.7208  -13.9697 C   0  0  0  0  0  0  0  0  0  0  0  0
   25.3823  -19.5807  -14.4870 O   0  0  0  0  0  0  0  0  0  0  0  0
   26.3170  -19.3828  -10.9682 C   0  0  0  0  0  0  0  0  0  0  0  0
   25.6318  -19.1813   -9.7735 C   0  0  0  0  0  0  0  0  0  0  0  0
   21.8631  -22.5672  -14.9317 C   0  0  0  0  0  0  0  0  0  0  0  0
   22.1082  -21.0793  -15.0563 C   0  0  1  0  0  0  0  0  0  0  0  0
   20.7586  -20.4011  -15.1407 C   0  0  0  0  0  0  0  0  0  0  0  0
   22.8375  -20.5253  -13.8636 C   0  0  2  0  0  0  0  0  0  0  0  0
   24.0799  -21.2557  -13.6228 N   0  0  0  0  0  0  0  0  0  0  0  0
   21.9817  -20.7045  -12.6693 C   0  0  0  0  0  0  0  0  0  0  0  0
   22.2436  -21.6070  -11.8493 O   0  0  0  0  0  0  0  0  0  0  0  0
   20.8976  -19.8798  -12.4586 O   0  0  0  0  0  0  0  0  0  0  0  0
  1  2  1  0
  2  3  2  0
  2  4  1  0
  4  5  1  0
  6  5  1  0
  6  7  1  6
  8  6  1  0
  8  9  2  0
 10 11  1  0
 11 12  2  0
 12 13  1  0
 14 13  2  0
 14 15  1  0
 16 15  1  1
 16 17  1  0
 17  8  1  0
 18 16  1  0
 18 26  1  0
 19 18  2  0
 20 14  1  0
 21 20  2  0
 21 11  1  0
 23 22  1  1
 23 25  1  0
 24 23  1  0
 25 26  1  1
 25 27  1  0
 27 28  2  0
 27 29  1  0
M  END
$$$$
