QYV.pdb
     RDKit          3D

 29 29  0  0  1  0  0  0  0  0999 V2000
   29.1600  -34.1154  -18.7976 N   0  0  0  0  0  0  0  0  0  0  0  0
   30.4111  -33.4675  -18.8848 C   0  0  0  0  0  0  0  0  0  0  0  0
   31.2707  -33.9035  -19.7265 O   0  0  0  0  0  0  0  0  0  0  0  0
   30.7901  -32.3122  -18.0634 C   0  0  0  0  0  0  0  0  0  0  0  0
   29.7509  -31.8729  -17.0768 C   0  0  0  0  0  0  0  0  0  0  0  0
   28.7377  -31.0094  -17.7467 C   0  0  2  0  0  0  0  0  0  0  0  0
   29.2125  -29.6430  -17.9285 N   0  0  0  0  0  0  0  0  0  0  0  0
   27.4598  -30.9464  -16.9468 C   0  0  0  0  0  0  0  0  0  0  0  0
   27.3080  -30.0582  -16.0866 O   0  0  0  0  0  0  0  0  0  0  0  0
   23.7550  -26.4227  -19.5759 O   0  0  0  0  0  0  0  0  0  0  0  0
   23.8180  -27.7123  -19.0365 C   0  0  0  0  0  0  0  0  0  0  0  0
   23.2456  -28.0043  -17.8197 C   0  0  0  0  0  0  0  0  0  0  0  0
   23.3142  -29.2785  -17.2982 C   0  0  0  0  0  0  0  0  0  0  0  0
   23.9578  -30.3070  -17.9745 C   0  0  0  0  0  0  0  0  0  0  0  0
   24.0077  -31.6403  -17.3838 C   0  0  0  0  0  0  0  0  0  0  0  0
   25.1546  -31.8545  -16.4194 C   0  0  2  0  0  0  0  0  0  0  0  0
   26.4100  -31.8762  -17.1424 N   0  0  0  0  0  0  0  0  0  0  0  0
   24.9780  -33.0729  -15.5933 C   0  0  0  0  0  0  0  0  0  0  0  0
   25.1399  -34.1941  -16.1291 O   0  0  0  0  0  0  0  0  0  0  0  0
   24.5241  -30.0038  -19.1859 C   0  0  0  0  0  0  0  0  0  0  0  0
   24.4695  -28.7261  -19.7352 C   0  0  0  0  0  0  0  0  0  0  0  0
   25.9770  -33.1292  -11.6132 C   0  0  0  0  0  0  0  0  0  0  0  0
   24.6798  -33.8359  -11.9405 C   0  0  1  0  0  0  0  0  0  0  0  0
   23.5488  -32.8850  -11.6160 C   0  0  0  0  0  0  0  0  0  0  0  0
   24.5855  -34.1969  -13.3973 C   0  0  2  0  0  0  0  0  0  0  0  0
   24.6367  -33.0030  -14.2380 N   0  0  0  0  0  0  0  0  0  0  0  0
   23.2765  -34.8466  -13.6327 C   0  0  0  0  0  0  0  0  0  0  0  0
   22.3093  -34.1658  -14.0283 O   0  0  0  0  0  0  0  0  0  0  0  0
   23.1209  -36.1991  -13.4173 O   0  0  0  0  0  0  0  0  0  0  0  0
  1  2  1  0
  2  3  2  0
  2  4  1  0
  4  5  1  0
  6  5  1  0
  6  7  1  1
  8  6  1  0
  8  9  2  0
 10 11  1  0
 11 12  2  0
 12 13  1  0
 14 13  2  0
 14 15  1  0
 16 15  1  6
 16 17  1  0
 17  8  1  0
 18 16  1  0
 18 26  1  0
 19 18  2  0
 20 14  1  0
 21 20  2  0
 21 11  1  0
 23 22  1  6
 23 25  1  0
 24 23  1  0
 25 26  1  6
 25 27  1  0
 27 28  2  0
 27 29  1  0
M  END
$$$$
