QYV.pdb
     RDKit          3D

 29 29  0  0  1  0  0  0  0  0999 V2000
   30.0083  -19.4745  -18.5276 N   0  0  0  0  0  0  0  0  0  0  0  0
   28.6746  -19.4166  -18.9866 C   0  0  0  0  0  0  0  0  0  0  0  0
   28.1120  -18.2724  -19.0952 O   0  0  0  0  0  0  0  0  0  0  0  0
   27.8862  -20.5986  -19.3528 C   0  0  0  0  0  0  0  0  0  0  0  0
   26.9511  -21.0865  -18.2879 C   0  0  0  0  0  0  0  0  0  0  0  0
   27.7231  -21.6128  -17.1269 C   0  0  2  0  0  0  0  0  0  0  0  0
   28.4303  -22.8463  -17.4494 N   0  0  0  0  0  0  0  0  0  0  0  0
   26.8179  -21.8985  -15.9540 C   0  0  0  0  0  0  0  0  0  0  0  0
   26.1496  -22.9494  -15.9260 O   0  0  0  0  0  0  0  0  0  0  0  0
   23.0570  -20.9244   -7.9199 O   0  0  0  0  0  0  0  0  0  0  0  0
   23.8433  -20.7864   -9.0691 C   0  0  0  0  0  0  0  0  0  0  0  0
   25.0916  -21.3595   -9.1513 C   0  0  0  0  0  0  0  0  0  0  0  0
   25.8572  -21.2165  -10.2887 C   0  0  0  0  0  0  0  0  0  0  0  0
   25.4023  -20.4954  -11.3852 C   0  0  0  0  0  0  0  0  0  0  0  0
   26.2475  -20.3685  -12.5679 C   0  0  0  0  0  0  0  0  0  0  0  0
   25.7775  -21.1720  -13.7616 C   0  0  2  0  0  0  0  0  0  0  0  0
   26.6990  -20.9997  -14.8663 N   0  0  0  0  0  0  0  0  0  0  0  0
   24.3864  -20.8409  -14.1530 C   0  0  0  0  0  0  0  0  0  0  0  0
   24.1651  -19.7513  -14.7311 O   0  0  0  0  0  0  0  0  0  0  0  0
   24.1571  -19.9292  -11.2914 C   0  0  0  0  0  0  0  0  0  0  0  0
   23.3635  -20.0578  -10.1551 C   0  0  0  0  0  0  0  0  0  0  0  0
   21.7043  -23.6478  -15.2930 C   0  0  0  0  0  0  0  0  0  0  0  0
   21.5190  -22.1584  -15.4845 C   0  0  1  0  0  0  0  0  0  0  0  0
   20.0438  -21.9082  -15.7080 C   0  0  0  0  0  0  0  0  0  0  0  0
   21.9493  -21.3757  -14.2748 C   0  0  2  0  0  0  0  0  0  0  0  0
   23.3201  -21.7094  -13.8944 N   0  0  0  0  0  0  0  0  0  0  0  0
   21.0734  -21.7497  -13.1417 C   0  0  0  0  0  0  0  0  0  0  0  0
   21.3963  -22.6950  -12.3950 O   0  0  0  0  0  0  0  0  0  0  0  0
   19.9037  -21.0593  -12.9076 O   0  0  0  0  0  0  0  0  0  0  0  0
  1  2  1  0
  2  3  2  0
  2  4  1  0
  4  5  1  0
  6  5  1  0
  6  7  1  6
  8  6  1  0
  8  9  2  0
 10 11  1  0
 11 12  2  0
 12 13  1  0
 14 13  2  0
 14 15  1  0
 16 15  1  1
 16 17  1  0
 17  8  1  0
 18 16  1  0
 18 26  1  0
 19 18  2  0
 20 14  1  0
 21 20  2  0
 21 11  1  0
 23 22  1  1
 23 25  1  0
 24 23  1  0
 25 26  1  1
 25 27  1  0
 27 28  2  0
 27 29  1  0
M  END
$$$$
