QYV.pdb
     RDKit          3D

 29 29  0  0  1  0  0  0  0  0999 V2000
   28.3200  -15.9109  -19.6150 N   0  0  0  0  0  0  0  0  0  0  0  0
   27.0041  -16.2278  -20.0158 C   0  0  0  0  0  0  0  0  0  0  0  0
   26.8160  -16.6900  -21.1942 O   0  0  0  0  0  0  0  0  0  0  0  0
   25.8271  -16.0606  -19.1559 C   0  0  0  0  0  0  0  0  0  0  0  0
   25.1626  -17.3388  -18.7424 C   0  0  0  0  0  0  0  0  0  0  0  0
   26.0087  -18.0613  -17.7509 C   0  0  2  0  0  0  0  0  0  0  0  0
   27.2316  -18.5843  -18.3480 N   0  0  0  0  0  0  0  0  0  0  0  0
   25.2640  -19.2240  -17.1423 C   0  0  0  0  0  0  0  0  0  0  0  0
   24.8452  -20.1438  -17.8707 O   0  0  0  0  0  0  0  0  0  0  0  0
   29.0087  -24.3077  -16.9072 O   0  0  0  0  0  0  0  0  0  0  0  0
   28.0506  -23.5357  -16.2408 C   0  0  0  0  0  0  0  0  0  0  0  0
   28.3123  -22.2352  -15.8752 C   0  0  0  0  0  0  0  0  0  0  0  0
   27.3605  -21.4844  -15.2189 C   0  0  0  0  0  0  0  0  0  0  0  0
   26.1126  -22.0068  -14.9044 C   0  0  0  0  0  0  0  0  0  0  0  0
   25.1363  -21.1763  -14.2070 C   0  0  0  0  0  0  0  0  0  0  0  0
   24.2469  -20.3579  -15.1183 C   0  0  2  0  0  0  0  0  0  0  0  0
   25.0200  -19.3080  -15.7501 N   0  0  0  0  0  0  0  0  0  0  0  0
   23.0616  -19.8150  -14.4123 C   0  0  0  0  0  0  0  0  0  0  0  0
   23.2370  -18.9951  -13.4809 O   0  0  0  0  0  0  0  0  0  0  0  0
   25.8636  -23.3035  -15.2738 C   0  0  0  0  0  0  0  0  0  0  0  0
   26.8065  -24.0836  -15.9371 C   0  0  0  0  0  0  0  0  0  0  0  0
   20.5242  -17.5308  -15.1684 C   0  0  0  0  0  0  0  0  0  0  0  0
   19.7621  -18.7847  -14.7992 C   0  0  1  0  0  0  0  0  0  0  0  0
   19.3697  -19.4748  -16.0869 C   0  0  0  0  0  0  0  0  0  0  0  0
   20.6003  -19.7379  -13.9928 C   0  0  2  0  0  0  0  0  0  0  0  0
   21.7592  -20.1931  -14.7574 N   0  0  0  0  0  0  0  0  0  0  0  0
   19.7808  -20.9306  -13.6816 C   0  0  0  0  0  0  0  0  0  0  0  0
   20.0015  -22.0056  -14.2742 O   0  0  0  0  0  0  0  0  0  0  0  0
   18.7758  -20.8596  -12.7410 O   0  0  0  0  0  0  0  0  0  0  0  0
  1  2  1  0
  2  3  2  0
  2  4  1  0
  4  5  1  0
  6  5  1  0
  6  7  1  6
  8  6  1  0
  8  9  2  0
 10 11  1  0
 11 12  2  0
 12 13  1  0
 14 13  2  0
 14 15  1  0
 16 15  1  1
 16 17  1  0
 17  8  1  0
 18 16  1  0
 18 26  1  0
 19 18  2  0
 20 14  1  0
 21 20  2  0
 21 11  1  0
 23 22  1  6
 23 25  1  0
 24 23  1  0
 25 26  1  6
 25 27  1  0
 27 28  2  0
 27 29  1  0
M  END
$$$$
