QYV.pdb
     RDKit          3D

 29 29  0  0  1  0  0  0  0  0999 V2000
   20.2971   -6.7981  -11.4394 N   0  0  0  0  0  0  0  0  0  0  0  0
   20.8107   -7.7797  -12.3142 C   0  0  0  0  0  0  0  0  0  0  0  0
   22.0636   -8.0378  -12.2792 O   0  0  0  0  0  0  0  0  0  0  0  0
   19.9888   -8.5314  -13.2693 C   0  0  0  0  0  0  0  0  0  0  0  0
   18.5412   -8.1440  -13.2958 C   0  0  0  0  0  0  0  0  0  0  0  0
   17.7713   -8.9630  -12.3173 C   0  0  2  0  0  0  0  0  0  0  0  0
   17.1408  -10.1193  -12.9425 N   0  0  0  0  0  0  0  0  0  0  0  0
   16.6837   -8.1491  -11.6605 C   0  0  0  0  0  0  0  0  0  0  0  0
   15.5942   -7.9836  -12.2415 O   0  0  0  0  0  0  0  0  0  0  0  0
   10.6236  -10.1624   -8.5216 O   0  0  0  0  0  0  0  0  0  0  0  0
   11.8225   -9.4415   -8.4948 C   0  0  0  0  0  0  0  0  0  0  0  0
   13.0155  -10.0295   -8.8477 C   0  0  0  0  0  0  0  0  0  0  0  0
   14.1904   -9.3091   -8.8173 C   0  0  0  0  0  0  0  0  0  0  0  0
   14.2150   -7.9745   -8.4329 C   0  0  0  0  0  0  0  0  0  0  0  0
   15.4822   -7.2513   -8.4136 C   0  0  0  0  0  0  0  0  0  0  0  0
   15.8966   -6.6801   -9.7528 C   0  0  2  0  0  0  0  0  0  0  0  0
   16.8604   -7.5569  -10.3865 N   0  0  0  0  0  0  0  0  0  0  0  0
   16.4093   -5.2934   -9.6411 C   0  0  0  0  0  0  0  0  0  0  0  0
   17.5453   -5.1080   -9.1455 O   0  0  0  0  0  0  0  0  0  0  0  0
   13.0202   -7.3998   -8.0836 C   0  0  0  0  0  0  0  0  0  0  0  0
   11.8198   -8.1040   -8.1054 C   0  0  0  0  0  0  0  0  0  0  0  0
   16.8542   -2.7679  -12.4669 C   0  0  0  0  0  0  0  0  0  0  0  0
   16.0061   -2.1533  -11.3749 C   0  0  1  0  0  0  0  0  0  0  0  0
   14.5570   -2.3191  -11.7763 C   0  0  0  0  0  0  0  0  0  0  0  0
   16.2073   -2.8375  -10.0511 C   0  0  2  0  0  0  0  0  0  0  0  0
   15.6609   -4.1925  -10.0726 N   0  0  0  0  0  0  0  0  0  0  0  0
   15.4672   -2.0796   -9.0173 C   0  0  0  0  0  0  0  0  0  0  0  0
   14.4092   -2.5437   -8.5477 O   0  0  0  0  0  0  0  0  0  0  0  0
   15.9409   -0.8645   -8.5712 O   0  0  0  0  0  0  0  0  0  0  0  0
  1  2  1  0
  2  3  2  0
  2  4  1  0
  4  5  1  0
  6  5  1  0
  6  7  1  6
  8  6  1  0
  8  9  2  0
 10 11  1  0
 11 12  2  0
 12 13  1  0
 14 13  2  0
 14 15  1  0
 16 15  1  1
 16 17  1  0
 17  8  1  0
 18 16  1  0
 18 26  1  0
 19 18  2  0
 20 14  1  0
 21 20  2  0
 21 11  1  0
 23 22  1  6
 23 25  1  0
 24 23  1  0
 25 26  1  6
 25 27  1  0
 27 28  2  0
 27 29  1  0
M  END
$$$$
