QYV.pdb
     RDKit          3D

 29 29  0  0  1  0  0  0  0  0999 V2000
   26.8169  -22.3101  -17.3287 N   0  0  0  0  0  0  0  0  0  0  0  0
   26.8558  -21.7869  -18.6392 C   0  0  0  0  0  0  0  0  0  0  0  0
   27.2727  -22.5379  -19.5877 O   0  0  0  0  0  0  0  0  0  0  0  0
   26.4416  -20.4225  -18.9851 C   0  0  0  0  0  0  0  0  0  0  0  0
   25.8719  -19.6298  -17.8478 C   0  0  0  0  0  0  0  0  0  0  0  0
   24.3891  -19.7740  -17.8118 C   0  0  2  0  0  0  0  0  0  0  0  0
   23.7179  -18.7654  -18.6229 N   0  0  0  0  0  0  0  0  0  0  0  0
   23.8628  -19.6517  -16.4030 C   0  0  0  0  0  0  0  0  0  0  0  0
   23.7245  -18.5264  -15.8866 O   0  0  0  0  0  0  0  0  0  0  0  0
   17.5830  -18.1668  -16.3153 O   0  0  0  0  0  0  0  0  0  0  0  0
   18.6051  -18.9481  -15.7650 C   0  0  0  0  0  0  0  0  0  0  0  0
   19.4024  -19.7403  -16.5589 C   0  0  0  0  0  0  0  0  0  0  0  0
   20.4063  -20.5058  -16.0052 C   0  0  0  0  0  0  0  0  0  0  0  0
   20.6492  -20.5070  -14.6376 C   0  0  0  0  0  0  0  0  0  0  0  0
   21.7215  -21.3346  -14.0949 C   0  0  0  0  0  0  0  0  0  0  0  0
   23.1061  -20.7418  -14.2452 C   0  0  2  0  0  0  0  0  0  0  0  0
   23.5151  -20.7889  -15.6344 N   0  0  0  0  0  0  0  0  0  0  0  0
   24.0997  -21.3957  -13.3601 C   0  0  0  0  0  0  0  0  0  0  0  0
   24.1641  -22.6471  -13.3458 O   0  0  0  0  0  0  0  0  0  0  0  0
   19.8483  -19.7138  -13.8571 C   0  0  0  0  0  0  0  0  0  0  0  0
   18.8280  -18.9313  -14.3900 C   0  0  0  0  0  0  0  0  0  0  0  0
   27.8423  -20.8261  -13.1564 C   0  0  0  0  0  0  0  0  0  0  0  0
   27.2769  -20.6889  -11.7596 C   0  0  1  0  0  0  0  0  0  0  0  0
   27.1568  -19.2109  -11.4603 C   0  0  0  0  0  0  0  0  0  0  0  0
   25.9098  -21.3039  -11.6410 C   0  0  2  0  0  0  0  0  0  0  0  0
   24.9624  -20.6549  -12.5445 N   0  0  0  0  0  0  0  0  0  0  0  0
   25.4205  -21.0898  -10.2605 C   0  0  0  0  0  0  0  0  0  0  0  0
   24.5402  -20.2340  -10.0412 O   0  0  0  0  0  0  0  0  0  0  0  0
   25.9321  -21.8307   -9.2170 O   0  0  0  0  0  0  0  0  0  0  0  0
  1  2  1  0
  2  3  2  0
  2  4  1  0
  4  5  1  0
  6  5  1  0
  6  7  1  6
  8  6  1  0
  8  9  2  0
 10 11  1  0
 11 12  2  0
 12 13  1  0
 14 13  2  0
 14 15  1  0
 16 15  1  6
 16 17  1  0
 17  8  1  0
 18 16  1  0
 18 26  1  0
 19 18  2  0
 20 14  1  0
 21 20  2  0
 21 11  1  0
 23 22  1  6
 23 25  1  0
 24 23  1  0
 25 26  1  6
 25 27  1  0
 27 28  2  0
 27 29  1  0
M  END
$$$$
