QYV.pdb
     RDKit          3D

 29 29  0  0  1  0  0  0  0  0999 V2000
   21.2540  -18.2224  -19.7580 N   0  0  0  0  0  0  0  0  0  0  0  0
   22.4830  -17.7429  -20.2601 C   0  0  0  0  0  0  0  0  0  0  0  0
   22.4791  -16.6947  -20.9941 O   0  0  0  0  0  0  0  0  0  0  0  0
   23.7781  -18.3768  -19.9882 C   0  0  0  0  0  0  0  0  0  0  0  0
   23.7026  -19.6531  -19.2062 C   0  0  0  0  0  0  0  0  0  0  0  0
   24.8629  -19.7564  -18.2766 C   0  0  2  0  0  0  0  0  0  0  0  0
   25.9695  -20.5064  -18.8582 N   0  0  0  0  0  0  0  0  0  0  0  0
   24.4724  -20.4419  -16.9904 C   0  0  0  0  0  0  0  0  0  0  0  0
   24.1095  -21.6336  -17.0064 O   0  0  0  0  0  0  0  0  0  0  0  0
   23.0739  -21.5927   -8.2665 O   0  0  0  0  0  0  0  0  0  0  0  0
   23.4890  -21.1229   -9.5175 C   0  0  0  0  0  0  0  0  0  0  0  0
   22.6732  -20.3232  -10.2847 C   0  0  0  0  0  0  0  0  0  0  0  0
   23.0931  -19.8664  -11.5157 C   0  0  0  0  0  0  0  0  0  0  0  0
   24.3438  -20.1927  -12.0242 C   0  0  0  0  0  0  0  0  0  0  0  0
   24.7458  -19.6882  -13.3330 C   0  0  0  0  0  0  0  0  0  0  0  0
   24.0266  -20.3318  -14.4992 C   0  0  2  0  0  0  0  0  0  0  0  0
   24.5040  -19.7679  -15.7456 N   0  0  0  0  0  0  0  0  0  0  0  0
   22.5525  -20.2275  -14.3808 C   0  0  0  0  0  0  0  0  0  0  0  0
   22.0243  -19.0912  -14.4000 O   0  0  0  0  0  0  0  0  0  0  0  0
   25.1474  -20.9899  -11.2506 C   0  0  0  0  0  0  0  0  0  0  0  0
   24.7485  -21.4647  -10.0045 C   0  0  0  0  0  0  0  0  0  0  0  0
   20.1849  -23.0584  -15.8973 C   0  0  0  0  0  0  0  0  0  0  0  0
   19.6377  -21.7238  -15.4402 C   0  0  1  0  0  0  0  0  0  0  0  0
   18.1586  -21.9037  -15.1787 C   0  0  0  0  0  0  0  0  0  0  0  0
   20.2853  -21.2543  -14.1668 C   0  0  2  0  0  0  0  0  0  0  0  0
   21.7404  -21.3594  -14.2487 N   0  0  0  0  0  0  0  0  0  0  0  0
   19.8404  -22.1365  -13.0647 C   0  0  0  0  0  0  0  0  0  0  0  0
   20.5921  -23.0437  -12.6556 O   0  0  0  0  0  0  0  0  0  0  0  0
   18.6006  -21.9609  -12.4886 O   0  0  0  0  0  0  0  0  0  0  0  0
  1  2  1  0
  2  3  2  0
  2  4  1  0
  4  5  1  0
  6  5  1  0
  6  7  1  6
  8  6  1  0
  8  9  2  0
 10 11  1  0
 11 12  2  0
 12 13  1  0
 14 13  2  0
 14 15  1  0
 16 15  1  1
 16 17  1  0
 17  8  1  0
 18 16  1  0
 18 26  1  0
 19 18  2  0
 20 14  1  0
 21 20  2  0
 21 11  1  0
 23 22  1  1
 23 25  1  0
 24 23  1  0
 25 26  1  6
 25 27  1  0
 27 28  2  0
 27 29  1  0
M  END
$$$$
