QYV.pdb
     RDKit          3D

 29 29  0  0  1  0  0  0  0  0999 V2000
   28.4140  -17.8258  -18.0844 N   0  0  0  0  0  0  0  0  0  0  0  0
   28.6105  -18.9556  -18.9075 C   0  0  0  0  0  0  0  0  0  0  0  0
   29.8024  -19.2558  -19.2635 O   0  0  0  0  0  0  0  0  0  0  0  0
   27.5222  -19.8171  -19.3833 C   0  0  0  0  0  0  0  0  0  0  0  0
   26.7233  -20.4782  -18.3012 C   0  0  0  0  0  0  0  0  0  0  0  0
   27.6255  -21.2193  -17.3751 C   0  0  2  0  0  0  0  0  0  0  0  0
   28.0882  -22.4781  -17.9470 N   0  0  0  0  0  0  0  0  0  0  0  0
   26.9307  -21.5367  -16.0738 C   0  0  0  0  0  0  0  0  0  0  0  0
   26.1266  -22.4864  -16.0140 O   0  0  0  0  0  0  0  0  0  0  0  0
   24.4444  -20.5209   -7.5570 O   0  0  0  0  0  0  0  0  0  0  0  0
   25.1236  -20.4826   -8.7797 C   0  0  0  0  0  0  0  0  0  0  0  0
   24.9321  -19.4502   -9.6691 C   0  0  0  0  0  0  0  0  0  0  0  0
   25.6069  -19.4234  -10.8709 C   0  0  0  0  0  0  0  0  0  0  0  0
   26.4977  -20.4280  -11.2269 C   0  0  0  0  0  0  0  0  0  0  0  0
   27.1886  -20.3597  -12.5103 C   0  0  0  0  0  0  0  0  0  0  0  0
   26.3996  -20.9169  -13.6758 C   0  0  2  0  0  0  0  0  0  0  0  0
   27.1638  -20.7810  -14.8993 N   0  0  0  0  0  0  0  0  0  0  0  0
   25.0581  -20.2975  -13.7973 C   0  0  0  0  0  0  0  0  0  0  0  0
   24.9783  -19.0876  -14.1140 O   0  0  0  0  0  0  0  0  0  0  0  0
   26.6801  -21.4511  -10.3326 C   0  0  0  0  0  0  0  0  0  0  0  0
   26.0118  -21.5028   -9.1127 C   0  0  0  0  0  0  0  0  0  0  0  0
   22.5597  -20.5034  -16.1472 C   0  0  0  0  0  0  0  0  0  0  0  0
   21.8251  -20.8585  -14.8730 C   0  0  1  0  0  0  0  0  0  0  0  0
   21.7097  -22.3659  -14.8190 C   0  0  0  0  0  0  0  0  0  0  0  0
   22.5667  -20.4008  -13.6474 C   0  0  2  0  0  0  0  0  0  0  0  0
   23.8852  -21.0256  -13.5683 N   0  0  0  0  0  0  0  0  0  0  0  0
   21.8032  -20.8287  -12.4537 C   0  0  0  0  0  0  0  0  0  0  0  0
   20.7565  -20.2277  -12.1397 O   0  0  0  0  0  0  0  0  0  0  0  0
   22.2427  -21.8869  -11.6878 O   0  0  0  0  0  0  0  0  0  0  0  0
  1  2  1  0
  2  3  2  0
  2  4  1  0
  4  5  1  0
  6  5  1  0
  6  7  1  6
  8  6  1  0
  8  9  2  0
 10 11  1  0
 11 12  2  0
 12 13  1  0
 14 13  2  0
 14 15  1  0
 16 15  1  1
 16 17  1  0
 17  8  1  0
 18 16  1  0
 18 26  1  0
 19 18  2  0
 20 14  1  0
 21 20  2  0
 21 11  1  0
 23 22  1  6
 23 25  1  0
 24 23  1  0
 25 26  1  1
 25 27  1  0
 27 28  2  0
 27 29  1  0
M  END
$$$$
