PNV.pdb
     RDKit          3D

 23 23  0  0  1  0  0  0  0  0999 V2000
    9.0170  -14.7463   18.9763 N   0  0  0  0  0  0  0  0  0  0  0  0
    8.3223  -14.3366   17.7961 C   0  0  0  0  0  0  0  0  0  0  0  0
    7.2028  -13.4745   18.3937 C   0  0  0  0  0  0  0  0  0  0  0  0
    8.0243  -12.6377   19.3820 C   0  0  0  0  0  0  0  0  0  0  0  0
    8.9510  -13.7020   19.9540 C   0  0  1  0  0  0  0  0  0  0  0  0
    8.3020  -14.2760   21.1874 C   0  0  0  0  0  0  0  0  0  0  0  0
    7.2884  -13.7728   21.7193 O   0  0  0  0  0  0  0  0  0  0  0  0
    9.6303  -18.7285   21.3350 N   0  0  0  0  0  0  0  0  0  0  0  0
    8.5043  -18.2246   22.0606 C   0  0  0  0  0  0  0  0  0  0  0  0
    7.3679  -18.4971   21.6391 O   0  0  0  0  0  0  0  0  0  0  0  0
    8.7700  -17.4095   23.2703 C   0  0  0  0  0  0  0  0  0  0  0  0
    8.3162  -15.9762   23.0574 C   0  0  2  0  0  0  0  0  0  0  0  0
    8.8359  -15.4461   21.8082 N   0  0  0  0  0  0  0  0  0  0  0  0
    8.7360  -15.1082   24.1845 C   0  0  0  0  0  0  0  0  0  0  0  0
    9.9428  -14.7957   24.3505 O   0  0  0  0  0  0  0  0  0  0  0  0
    5.7591  -13.3834   26.7846 C   0  0  0  0  0  0  0  0  0  0  0  0
    7.1216  -12.7334   26.6141 C   0  0  2  0  0  0  0  0  0  0  0  0
    6.9914  -11.7825   25.4310 C   0  0  0  0  0  0  0  0  0  0  0  0
    8.1768  -13.7494   26.2430 C   0  0  2  0  0  0  0  0  0  0  0  0
    7.8088  -14.5775   25.1417 N   0  0  0  0  0  0  0  0  0  0  0  0
    8.4401  -14.5894   27.4314 C   0  0  0  0  0  0  0  0  0  0  0  0
    8.1232  -15.8131   27.4918 O   0  0  0  0  0  0  0  0  0  0  0  0
    9.0686  -13.9878   28.5311 O   0  0  0  0  0  0  0  0  0  0  0  0
  1  2  1  0
  2  3  1  0
  4  3  1  0
  5  6  1  1
  5  1  1  0
  5  4  1  0
  6  7  2  0
  8  9  1  0
  9 10  2  0
  9 11  1  0
 12 11  1  1
 12 14  1  0
 13 12  1  0
 13  6  1  0
 14 15  2  0
 14 20  1  0
 17 16  1  6
 17 19  1  0
 18 17  1  0
 19 21  1  0
 19 20  1  6
 21 22  2  0
 21 23  1  0
M  END
$$$$
