PNV.pdb
     RDKit          3D

 23 23  0  0  1  0  0  0  0  0999 V2000
    8.3465  -14.9823   18.4851 N   0  0  0  0  0  0  0  0  0  0  0  0
    7.6845  -14.0525   17.6244 C   0  0  0  0  0  0  0  0  0  0  0  0
    7.2635  -12.9683   18.6248 C   0  0  0  0  0  0  0  0  0  0  0  0
    8.5766  -12.8137   19.4019 C   0  0  0  0  0  0  0  0  0  0  0  0
    8.9956  -14.2707   19.5447 C   0  0  1  0  0  0  0  0  0  0  0  0
    8.4432  -14.7927   20.8464 C   0  0  0  0  0  0  0  0  0  0  0  0
    7.2634  -14.5974   21.2115 O   0  0  0  0  0  0  0  0  0  0  0  0
    7.8571  -19.1707   22.5032 N   0  0  0  0  0  0  0  0  0  0  0  0
    9.0697  -18.4400   22.2940 C   0  0  0  0  0  0  0  0  0  0  0  0
    9.7408  -18.6988   21.2811 O   0  0  0  0  0  0  0  0  0  0  0  0
    9.4448  -17.4199   23.3024 C   0  0  0  0  0  0  0  0  0  0  0  0
    8.7809  -16.0908   22.9885 C   0  0  2  0  0  0  0  0  0  0  0  0
    9.2699  -15.5491   21.7319 N   0  0  0  0  0  0  0  0  0  0  0  0
    9.0035  -15.1099   24.0787 C   0  0  0  0  0  0  0  0  0  0  0  0
   10.1525  -14.6634   24.3275 O   0  0  0  0  0  0  0  0  0  0  0  0
    7.1638  -11.6529   27.1359 C   0  0  0  0  0  0  0  0  0  0  0  0
    6.9030  -12.7368   26.1039 C   0  0  2  0  0  0  0  0  0  0  0  0
    5.7906  -13.6064   26.6759 C   0  0  0  0  0  0  0  0  0  0  0  0
    8.1076  -13.6315   25.9247 C   0  0  2  0  0  0  0  0  0  0  0  0
    7.9409  -14.6150   24.9054 N   0  0  0  0  0  0  0  0  0  0  0  0
    8.3795  -14.2958   27.2177 C   0  0  0  0  0  0  0  0  0  0  0  0
    8.0828  -15.5049   27.4449 O   0  0  0  0  0  0  0  0  0  0  0  0
    8.9928  -13.5383   28.2259 O   0  0  0  0  0  0  0  0  0  0  0  0
  1  2  1  0
  2  3  1  0
  4  3  1  0
  5  6  1  1
  5  1  1  0
  5  4  1  0
  6  7  2  0
  8  9  1  0
  9 10  2  0
  9 11  1  0
 12 11  1  1
 12 14  1  0
 13 12  1  0
 13  6  1  0
 14 15  2  0
 14 20  1  0
 17 16  1  1
 17 19  1  0
 18 17  1  0
 19 21  1  0
 19 20  1  6
 21 22  2  0
 21 23  1  0
M  END
$$$$
