PNV.pdb
     RDKit          3D

 23 23  0  0  1  0  0  0  0  0999 V2000
    8.6170  -15.0139   18.8602 N   0  0  0  0  0  0  0  0  0  0  0  0
    8.0290  -14.4580   17.6818 C   0  0  0  0  0  0  0  0  0  0  0  0
    7.1334  -13.3668   18.2822 C   0  0  0  0  0  0  0  0  0  0  0  0
    8.1244  -12.7363   19.2682 C   0  0  0  0  0  0  0  0  0  0  0  0
    8.7898  -13.9819   19.8379 C   0  0  1  0  0  0  0  0  0  0  0  0
    8.0316  -14.3960   21.0731 C   0  0  0  0  0  0  0  0  0  0  0  0
    6.9244  -13.9073   21.3872 O   0  0  0  0  0  0  0  0  0  0  0  0
    5.9476  -18.0015   24.6306 N   0  0  0  0  0  0  0  0  0  0  0  0
    7.3408  -17.6759   24.6621 C   0  0  0  0  0  0  0  0  0  0  0  0
    7.9310  -17.7375   25.7535 O   0  0  0  0  0  0  0  0  0  0  0  0
    7.9885  -17.2862   23.3866 C   0  0  0  0  0  0  0  0  0  0  0  0
    7.9002  -15.7844   23.1810 C   0  0  2  0  0  0  0  0  0  0  0  0
    8.5653  -15.3877   21.9514 N   0  0  0  0  0  0  0  0  0  0  0  0
    8.4875  -15.0509   24.3287 C   0  0  0  0  0  0  0  0  0  0  0  0
    9.7333  -14.9496   24.4672 O   0  0  0  0  0  0  0  0  0  0  0  0
    5.8671  -13.3375   27.2320 C   0  0  0  0  0  0  0  0  0  0  0  0
    7.2000  -12.6547   26.9772 C   0  0  2  0  0  0  0  0  0  0  0  0
    6.9354  -11.5930   25.9169 C   0  0  0  0  0  0  0  0  0  0  0  0
    8.2100  -13.6139   26.3913 C   0  0  2  0  0  0  0  0  0  0  0  0
    7.6865  -14.4198   25.3375 N   0  0  0  0  0  0  0  0  0  0  0  0
    8.7033  -14.4809   27.4831 C   0  0  0  0  0  0  0  0  0  0  0  0
    9.3586  -14.0367   28.4704 O   0  0  0  0  0  0  0  0  0  0  0  0
    8.4250  -15.8530   27.4051 O   0  0  0  0  0  0  0  0  0  0  0  0
  1  2  1  0
  2  3  1  0
  4  3  1  0
  5  6  1  1
  5  1  1  0
  5  4  1  0
  6  7  2  0
  8  9  1  0
  9 10  2  0
  9 11  1  0
 12 11  1  1
 12 14  1  0
 13 12  1  0
 13  6  1  0
 14 15  2  0
 14 20  1  0
 17 16  1  6
 17 19  1  0
 18 17  1  0
 19 21  1  0
 19 20  1  6
 21 22  2  0
 21 23  1  0
M  END
$$$$
