PNV.pdb
     RDKit          3D

 23 23  0  0  1  0  0  0  0  0999 V2000
    9.0223  -14.7398   18.8559 N   0  0  0  0  0  0  0  0  0  0  0  0
    8.3432  -14.3848   17.6492 C   0  0  0  0  0  0  0  0  0  0  0  0
    7.1513  -13.5916   18.2004 C   0  0  0  0  0  0  0  0  0  0  0  0
    7.8837  -12.6960   19.2071 C   0  0  0  0  0  0  0  0  0  0  0  0
    8.8565  -13.6942   19.8203 C   0  0  1  0  0  0  0  0  0  0  0  0
    8.2041  -14.2989   21.0371 C   0  0  0  0  0  0  0  0  0  0  0  0
    7.2960  -13.7256   21.6775 O   0  0  0  0  0  0  0  0  0  0  0  0
    8.8124  -18.9691   20.7831 N   0  0  0  0  0  0  0  0  0  0  0  0
    7.9194  -18.4414   21.7692 C   0  0  0  0  0  0  0  0  0  0  0  0
    6.7087  -18.6964   21.6575 O   0  0  0  0  0  0  0  0  0  0  0  0
    8.5005  -17.6242   22.8613 C   0  0  0  0  0  0  0  0  0  0  0  0
    8.0723  -16.1736   22.7271 C   0  0  2  0  0  0  0  0  0  0  0  0
    8.6107  -15.5823   21.5138 N   0  0  0  0  0  0  0  0  0  0  0  0
    8.4975  -15.3782   23.9048 C   0  0  0  0  0  0  0  0  0  0  0  0
    9.7116  -15.1283   24.1171 O   0  0  0  0  0  0  0  0  0  0  0  0
    6.1578  -12.3415   25.3702 C   0  0  0  0  0  0  0  0  0  0  0  0
    6.7876  -13.1706   26.4765 C   0  0  2  0  0  0  0  0  0  0  0  0
    7.3877  -12.1753   27.4615 C   0  0  0  0  0  0  0  0  0  0  0  0
    7.9300  -14.0116   25.9557 C   0  0  2  0  0  0  0  0  0  0  0  0
    7.5675  -14.8510   24.8612 N   0  0  0  0  0  0  0  0  0  0  0  0
    8.4338  -14.8396   27.0727 C   0  0  0  0  0  0  0  0  0  0  0  0
    8.0780  -16.0408   27.2525 O   0  0  0  0  0  0  0  0  0  0  0  0
    9.3444  -14.2528   27.9630 O   0  0  0  0  0  0  0  0  0  0  0  0
  1  2  1  0
  2  3  1  0
  4  3  1  0
  5  6  1  1
  5  1  1  0
  5  4  1  0
  6  7  2  0
  8  9  1  0
  9 10  2  0
  9 11  1  0
 12 11  1  1
 12 14  1  0
 13 12  1  0
 13  6  1  0
 14 15  2  0
 14 20  1  0
 17 16  1  6
 17 19  1  0
 18 17  1  0
 19 21  1  0
 19 20  1  6
 21 22  2  0
 21 23  1  0
M  END
$$$$
