PNV.pdb
     RDKit          3D

 23 23  0  0  1  0  0  0  0  0999 V2000
    9.1579  -14.6530   18.9710 N   0  0  0  0  0  0  0  0  0  0  0  0
    8.5082  -14.3905   17.7250 C   0  0  0  0  0  0  0  0  0  0  0  0
    7.2320  -13.6826   18.1978 C   0  0  0  0  0  0  0  0  0  0  0  0
    7.8426  -12.7007   19.2053 C   0  0  0  0  0  0  0  0  0  0  0  0
    8.8640  -13.5970   19.8925 C   0  0  1  0  0  0  0  0  0  0  0  0
    8.2076  -14.2177   21.0991 C   0  0  0  0  0  0  0  0  0  0  0  0
    7.2726  -13.6691   21.7222 O   0  0  0  0  0  0  0  0  0  0  0  0
    9.1390  -18.9559   20.9283 N   0  0  0  0  0  0  0  0  0  0  0  0
    8.1098  -18.3144   21.6881 C   0  0  0  0  0  0  0  0  0  0  0  0
    6.9364  -18.4294   21.2967 O   0  0  0  0  0  0  0  0  0  0  0  0
    8.5137  -17.5538   22.8950 C   0  0  0  0  0  0  0  0  0  0  0  0
    8.0838  -16.1021   22.7788 C   0  0  2  0  0  0  0  0  0  0  0  0
    8.6419  -15.4881   21.5859 N   0  0  0  0  0  0  0  0  0  0  0  0
    8.4856  -15.3266   23.9777 C   0  0  0  0  0  0  0  0  0  0  0  0
    9.6968  -15.1861   24.2857 O   0  0  0  0  0  0  0  0  0  0  0  0
    6.0012  -12.2998   25.5026 C   0  0  0  0  0  0  0  0  0  0  0  0
    6.7159  -13.1298   26.5553 C   0  0  2  0  0  0  0  0  0  0  0  0
    7.2920  -12.1371   27.5571 C   0  0  0  0  0  0  0  0  0  0  0  0
    7.8858  -13.8829   25.9657 C   0  0  2  0  0  0  0  0  0  0  0  0
    7.5353  -14.6970   24.8483 N   0  0  0  0  0  0  0  0  0  0  0  0
    8.4706  -14.7253   27.0314 C   0  0  0  0  0  0  0  0  0  0  0  0
    8.1374  -15.9325   27.2136 O   0  0  0  0  0  0  0  0  0  0  0  0
    9.4345  -14.1453   27.8685 O   0  0  0  0  0  0  0  0  0  0  0  0
  1  2  1  0
  2  3  1  0
  4  3  1  0
  5  6  1  1
  5  1  1  0
  5  4  1  0
  6  7  2  0
  8  9  1  0
  9 10  2  0
  9 11  1  0
 12 11  1  1
 12 14  1  0
 13 12  1  0
 13  6  1  0
 14 15  2  0
 14 20  1  0
 17 16  1  6
 17 19  1  0
 18 17  1  0
 19 21  1  0
 19 20  1  6
 21 22  2  0
 21 23  1  0
M  END
$$$$
