PNV.pdb
     RDKit          3D

 23 23  0  0  1  0  0  0  0  0999 V2000
    9.1810  -14.8800   19.3033 N   0  0  0  0  0  0  0  0  0  0  0  0
    8.5692  -14.9890   18.0160 C   0  0  0  0  0  0  0  0  0  0  0  0
    7.1899  -14.3755   18.2888 C   0  0  0  0  0  0  0  0  0  0  0  0
    7.6160  -13.1223   19.0632 C   0  0  0  0  0  0  0  0  0  0  0  0
    8.7065  -13.6976   19.9570 C   0  0  1  0  0  0  0  0  0  0  0  0
    8.0727  -14.1216   21.2572 C   0  0  0  0  0  0  0  0  0  0  0  0
    7.3221  -13.3755   21.9230 O   0  0  0  0  0  0  0  0  0  0  0  0
    5.8085  -18.2195   24.3933 N   0  0  0  0  0  0  0  0  0  0  0  0
    7.1975  -17.8749   24.4032 C   0  0  0  0  0  0  0  0  0  0  0  0
    7.8198  -17.9865   25.4726 O   0  0  0  0  0  0  0  0  0  0  0  0
    7.8026  -17.4071   23.1331 C   0  0  0  0  0  0  0  0  0  0  0  0
    7.6956  -15.8969   23.0162 C   0  0  2  0  0  0  0  0  0  0  0  0
    8.3135  -15.4253   21.7884 N   0  0  0  0  0  0  0  0  0  0  0  0
    8.3179  -15.2238   24.1823 C   0  0  0  0  0  0  0  0  0  0  0  0
    9.5466  -15.3422   24.4226 O   0  0  0  0  0  0  0  0  0  0  0  0
    5.8787  -12.8702   26.8693 C   0  0  0  0  0  0  0  0  0  0  0  0
    7.3458  -12.5316   26.6677 C   0  0  2  0  0  0  0  0  0  0  0  0
    7.3947  -11.5278   25.5227 C   0  0  0  0  0  0  0  0  0  0  0  0
    8.1364  -13.7400   26.2223 C   0  0  2  0  0  0  0  0  0  0  0  0
    7.5715  -14.4075   25.0956 N   0  0  0  0  0  0  0  0  0  0  0  0
    8.2221  -14.6760   27.3641 C   0  0  0  0  0  0  0  0  0  0  0  0
    7.6298  -15.7943   27.3818 O   0  0  0  0  0  0  0  0  0  0  0  0
    8.9970  -14.2920   28.4678 O   0  0  0  0  0  0  0  0  0  0  0  0
  1  2  1  0
  2  3  1  0
  4  3  1  0
  5  6  1  1
  5  1  1  0
  5  4  1  0
  6  7  2  0
  8  9  1  0
  9 10  2  0
  9 11  1  0
 12 11  1  1
 12 14  1  0
 13 12  1  0
 13  6  1  0
 14 15  2  0
 14 20  1  0
 17 16  1  6
 17 19  1  0
 18 17  1  0
 19 21  1  0
 19 20  1  6
 21 22  2  0
 21 23  1  0
M  END
$$$$
