LRH.pdb
     RDKit          3D

 30 30  0  0  1  0  0  0  0  0999 V2000
   17.4286  -17.5230  -16.2211 C   0  0  0  0  0  0  0  0  0  0  0  0
   16.8985  -16.1437  -16.0244 C   0  0  1  0  0  0  0  0  0  0  0  0
   16.7881  -15.9240  -14.5082 C   0  0  0  0  0  0  0  0  0  0  0  0
   17.8124  -15.0814  -16.5461 C   0  0  0  0  0  0  0  0  0  0  0  0
   17.3455  -13.6693  -16.3645 C   0  0  2  0  0  0  0  0  0  0  0  0
   15.9776  -13.5316  -16.8003 N   0  0  0  0  0  0  0  0  0  0  0  0
   18.2859  -12.6987  -16.8852 C   0  0  0  0  0  0  0  0  0  0  0  0
   19.5043  -12.8293  -16.6008 O   0  0  0  0  0  0  0  0  0  0  0  0
   22.7651  -12.2011  -22.1922 N   0  0  0  0  0  0  0  0  0  0  0  0
   21.5691  -12.8417  -22.6671 C   0  0  0  0  0  0  0  0  0  0  0  0
   21.7052  -13.6924  -23.6166 N   0  0  0  0  0  0  0  0  0  0  0  0
   20.2992  -12.5606  -22.1269 N   0  0  0  0  0  0  0  0  0  0  0  0
   20.1607  -11.5436  -21.1236 C   0  0  0  0  0  0  0  0  0  0  0  0
   18.7354  -11.3869  -20.6462 C   0  0  0  0  0  0  0  0  0  0  0  0
   18.6564  -10.2482  -19.6582 C   0  0  0  0  0  0  0  0  0  0  0  0
   18.9680  -10.6936  -18.2504 C   0  0  2  0  0  0  0  0  0  0  0  0
   17.9648  -11.5711  -17.7131 N   0  0  0  0  0  0  0  0  0  0  0  0
   19.1774   -9.5661  -17.3179 C   0  0  0  0  0  0  0  0  0  0  0  0
   18.2189   -9.0769  -16.6706 O   0  0  0  0  0  0  0  0  0  0  0  0
   20.9160  -14.2658  -23.9915 N   0  0  0  0  0  0  0  0  0  0  0  0
   20.4645   -9.0042  -17.1269 C   0  0  2  0  0  0  0  0  0  0  0  0
   20.5891   -7.8257  -16.2856 C   0  0  0  0  0  0  0  0  0  0  0  0
   21.9486   -7.7022  -15.6926 C   0  0  0  0  0  0  0  0  0  0  0  0
   22.0903   -6.4266  -14.9720 C   0  0  0  0  0  0  0  0  0  0  0  0
   22.4016   -5.1639  -15.4278 N   0  0  0  0  0  0  0  0  0  0  0  0
   22.4456   -4.2954  -14.3710 C   0  0  0  0  0  0  0  0  0  0  0  0
   22.1648   -5.0146  -13.2764 N   0  0  0  0  0  0  0  0  0  0  0  0
   21.9506   -6.2892  -13.6215 C   0  0  0  0  0  0  0  0  0  0  0  0
   20.2295   -6.6502  -17.0648 O   0  0  0  0  0  0  0  0  0  0  0  0
   19.5343   -5.5453  -16.5708 O   0  0  0  0  0  0  0  0  0  0  0  0
  2  1  1  1
  3  2  1  0
  4  2  1  0
  5  6  1  6
  5  7  1  0
  5  4  1  0
  7  8  2  0
 10  9  1  0
 10 12  1  0
 11 10  2  0
 12 13  1  0
 13 14  1  0
 14 15  1  0
 16 15  1  6
 16 18  1  0
 17  7  1  0
 17 16  1  0
 18 20  1  0
 19 18  2  0
 20 21  1  0
 21 22  1  1
 22 23  1  0
 23 24  2  0
 23 27  1  0
 24 25  1  0
 25 26  1  0
 27 26  2  0
 28 29  1  0
 28 21  1  0
 30 28  2  0
M  END
$$$$
