LRH.pdb
     RDKit          3D

 30 30  0  0  1  0  0  0  0  0999 V2000
   27.9512  -19.8859   -8.0851 C   0  0  0  0  0  0  0  0  0  0  0  0
   26.9629  -20.7434   -8.7992 C   0  0  1  0  0  0  0  0  0  0  0  0
   25.6683  -20.7087   -7.9732 C   0  0  0  0  0  0  0  0  0  0  0  0
   26.6160  -20.2333  -10.1613 C   0  0  0  0  0  0  0  0  0  0  0  0
   25.6026  -21.0336  -10.9215 C   0  0  2  0  0  0  0  0  0  0  0  0
   26.0249  -22.4084  -11.0289 N   0  0  0  0  0  0  0  0  0  0  0  0
   25.1919  -20.3902  -12.1522 C   0  0  0  0  0  0  0  0  0  0  0  0
   24.7832  -19.2015  -12.1021 O   0  0  0  0  0  0  0  0  0  0  0  0
   28.7369  -23.9947  -16.6481 N   0  0  0  0  0  0  0  0  0  0  0  0
   27.3615  -24.0977  -17.0529 C   0  0  0  0  0  0  0  0  0  0  0  0
   26.8388  -25.2684  -17.0371 N   0  0  0  0  0  0  0  0  0  0  0  0
   26.6079  -22.9767  -17.4513 N   0  0  0  0  0  0  0  0  0  0  0  0
   27.1708  -21.6615  -17.3345 C   0  0  0  0  0  0  0  0  0  0  0  0
   26.7922  -20.9789  -16.0404 C   0  0  0  0  0  0  0  0  0  0  0  0
   25.2887  -20.9443  -15.9092 C   0  0  0  0  0  0  0  0  0  0  0  0
   24.8436  -20.2526  -14.6441 C   0  0  2  0  0  0  0  0  0  0  0  0
   25.2006  -20.9832  -13.4593 N   0  0  0  0  0  0  0  0  0  0  0  0
   23.3940  -19.9648  -14.6192 C   0  0  0  0  0  0  0  0  0  0  0  0
   22.5736  -20.8166  -14.1968 O   0  0  0  0  0  0  0  0  0  0  0  0
   25.8644  -25.4668  -17.3587 N   0  0  0  0  0  0  0  0  0  0  0  0
   22.8875  -18.7204  -15.0708 C   0  0  2  0  0  0  0  0  0  0  0  0
   21.4888  -18.4105  -14.8257 C   0  0  0  0  0  0  0  0  0  0  0  0
   21.2654  -16.9532  -14.6230 C   0  0  0  0  0  0  0  0  0  0  0  0
   19.8387  -16.6699  -14.3977 C   0  0  0  0  0  0  0  0  0  0  0  0
   18.7473  -17.5106  -14.3643 N   0  0  0  0  0  0  0  0  0  0  0  0
   17.6125  -16.7767  -14.1483 C   0  0  0  0  0  0  0  0  0  0  0  0
   18.0000  -15.4982  -14.0498 N   0  0  0  0  0  0  0  0  0  0  0  0
   19.3274  -15.4206  -14.1970 C   0  0  0  0  0  0  0  0  0  0  0  0
   20.6908  -18.9328  -15.9251 O   0  0  0  0  0  0  0  0  0  0  0  0
   19.3871  -19.4171  -15.8073 O   0  0  0  0  0  0  0  0  0  0  0  0
  2  1  1  1
  3  2  1  0
  4  2  1  0
  5  6  1  6
  5  7  1  0
  5  4  1  0
  7  8  2  0
 10  9  1  0
 10 12  1  0
 11 10  2  0
 12 13  1  0
 13 14  1  0
 14 15  1  0
 16 15  1  6
 16 18  1  0
 17  7  1  0
 17 16  1  0
 18 20  1  0
 19 18  2  0
 20 21  1  0
 21 22  1  6
 22 23  1  0
 23 24  2  0
 23 27  1  0
 24 25  1  0
 25 26  1  0
 27 26  2  0
 28 29  1  0
 28 21  1  0
 30 28  2  0
M  END
$$$$
