LRH.pdb
     RDKit          3D

 30 30  0  0  1  0  0  0  0  0999 V2000
   25.2353  -12.6084  -18.9893 C   0  0  0  0  0  0  0  0  0  0  0  0
   26.2579  -13.6807  -18.8264 C   0  0  1  0  0  0  0  0  0  0  0  0
   27.2520  -13.1868  -17.7647 C   0  0  0  0  0  0  0  0  0  0  0  0
   25.6882  -14.9653  -18.3155 C   0  0  0  0  0  0  0  0  0  0  0  0
   26.6766  -16.0594  -18.0484 C   0  0  2  0  0  0  0  0  0  0  0  0
   27.3856  -16.4029  -19.2564 N   0  0  0  0  0  0  0  0  0  0  0  0
   26.1022  -17.1620  -17.3056 C   0  0  0  0  0  0  0  0  0  0  0  0
   25.2212  -17.8672  -17.8612 O   0  0  0  0  0  0  0  0  0  0  0  0
   25.2367  -19.8093   -9.6948 N   0  0  0  0  0  0  0  0  0  0  0  0
   25.2740  -21.1547  -10.1997 C   0  0  0  0  0  0  0  0  0  0  0  0
   24.5084  -22.0097   -9.6282 N   0  0  0  0  0  0  0  0  0  0  0  0
   26.1060  -21.5341  -11.2707 N   0  0  0  0  0  0  0  0  0  0  0  0
   26.7306  -20.5262  -12.0797 C   0  0  0  0  0  0  0  0  0  0  0  0
   25.8799  -20.1170  -13.2597 C   0  0  0  0  0  0  0  0  0  0  0  0
   26.6556  -19.1612  -14.1337 C   0  0  0  0  0  0  0  0  0  0  0  0
   25.8394  -18.6703  -15.3042 C   0  0  2  0  0  0  0  0  0  0  0  0
   26.4406  -17.5441  -15.9641 N   0  0  0  0  0  0  0  0  0  0  0  0
   24.4469  -18.3339  -14.9404 C   0  0  0  0  0  0  0  0  0  0  0  0
   24.1959  -17.3937  -14.1466 O   0  0  0  0  0  0  0  0  0  0  0  0
   24.4426  -23.0099   -9.9240 N   0  0  0  0  0  0  0  0  0  0  0  0
   23.3548  -19.0617  -15.4757 C   0  0  2  0  0  0  0  0  0  0  0  0
   22.0158  -18.7507  -15.0039 C   0  0  0  0  0  0  0  0  0  0  0  0
   21.0899  -18.4236  -16.1221 C   0  0  0  0  0  0  0  0  0  0  0  0
   19.7588  -18.0610  -15.6091 C   0  0  0  0  0  0  0  0  0  0  0  0
   19.2668  -18.0298  -14.3222 N   0  0  0  0  0  0  0  0  0  0  0  0
   17.9513  -17.6528  -14.3458 C   0  0  0  0  0  0  0  0  0  0  0  0
   17.6361  -17.4542  -15.6324 N   0  0  0  0  0  0  0  0  0  0  0  0
   18.7068  -17.6947  -16.3975 C   0  0  0  0  0  0  0  0  0  0  0  0
   21.5272  -19.8647  -14.2047 O   0  0  0  0  0  0  0  0  0  0  0  0
   20.5347  -19.7732  -13.2276 O   0  0  0  0  0  0  0  0  0  0  0  0
  2  1  1  1
  3  2  1  0
  4  2  1  0
  5  6  1  6
  5  7  1  0
  5  4  1  0
  7  8  2  0
 10  9  1  0
 10 12  1  0
 11 10  2  0
 12 13  1  0
 13 14  1  0
 14 15  1  0
 16 15  1  1
 16 18  1  0
 17  7  1  0
 17 16  1  0
 18 20  1  0
 19 18  2  0
 20 21  1  0
 21 22  1  6
 22 23  1  0
 23 24  2  0
 23 27  1  0
 24 25  1  0
 25 26  1  0
 27 26  2  0
 28 29  1  0
 28 21  1  0
 30 28  2  0
M  END
$$$$
