LRH.pdb
     RDKit          3D

 30 30  0  0  1  0  0  0  0  0999 V2000
   16.7035   -3.5065   -8.0146 C   0  0  0  0  0  0  0  0  0  0  0  0
   15.9609   -4.6528   -8.6120 C   0  0  1  0  0  0  0  0  0  0  0  0
   14.9500   -4.0570   -9.6032 C   0  0  0  0  0  0  0  0  0  0  0  0
   16.8364   -5.5772   -9.3962 C   0  0  0  0  0  0  0  0  0  0  0  0
   16.1598   -6.7783   -9.9836 C   0  0  2  0  0  0  0  0  0  0  0  0
   15.6575   -7.6346   -8.9376 N   0  0  0  0  0  0  0  0  0  0  0  0
   16.9531   -7.4188  -11.0121 C   0  0  0  0  0  0  0  0  0  0  0  0
   17.7766   -8.3064  -10.6710 O   0  0  0  0  0  0  0  0  0  0  0  0
   16.8920  -13.5286  -15.6163 N   0  0  0  0  0  0  0  0  0  0  0  0
   16.0312  -13.2032  -14.5121 C   0  0  0  0  0  0  0  0  0  0  0  0
   15.6645  -14.1729  -13.7577 N   0  0  0  0  0  0  0  0  0  0  0  0
   15.6006  -11.8871  -14.2555 N   0  0  0  0  0  0  0  0  0  0  0  0
   16.5090  -10.7912  -14.4403 C   0  0  0  0  0  0  0  0  0  0  0  0
   15.8692   -9.4511  -14.1603 C   0  0  0  0  0  0  0  0  0  0  0  0
   16.8207   -8.3461  -14.5511 C   0  0  0  0  0  0  0  0  0  0  0  0
   17.6593   -7.8790  -13.3868 C   0  0  2  0  0  0  0  0  0  0  0  0
   16.8980   -7.1384  -12.4187 N   0  0  0  0  0  0  0  0  0  0  0  0
   18.8308   -7.0778  -13.7998 C   0  0  0  0  0  0  0  0  0  0  0  0
   18.8262   -5.8262  -13.6962 O   0  0  0  0  0  0  0  0  0  0  0  0
   15.0438  -14.0506  -12.9259 N   0  0  0  0  0  0  0  0  0  0  0  0
   19.9925   -7.6975  -14.3245 C   0  0  2  0  0  0  0  0  0  0  0  0
   21.0657   -6.8523  -14.8207 C   0  0  0  0  0  0  0  0  0  0  0  0
   22.1807   -7.6473  -15.4035 C   0  0  0  0  0  0  0  0  0  0  0  0
   23.2177   -6.7630  -15.9596 C   0  0  0  0  0  0  0  0  0  0  0  0
   23.3157   -5.3885  -15.9765 N   0  0  0  0  0  0  0  0  0  0  0  0
   24.4557   -5.0206  -16.6383 C   0  0  0  0  0  0  0  0  0  0  0  0
   25.0535   -6.1552  -17.0251 N   0  0  0  0  0  0  0  0  0  0  0  0
   24.3242   -7.2034  -16.6260 C   0  0  0  0  0  0  0  0  0  0  0  0
   20.5154   -5.9067  -15.7806 O   0  0  0  0  0  0  0  0  0  0  0  0
   20.7685   -4.5341  -15.7860 O   0  0  0  0  0  0  0  0  0  0  0  0
  2  1  1  6
  3  2  1  0
  4  2  1  0
  5  6  1  1
  5  7  1  0
  5  4  1  0
  7  8  2  0
 10  9  1  0
 10 12  1  0
 11 10  2  0
 12 13  1  0
 13 14  1  0
 14 15  1  0
 16 15  1  6
 16 18  1  0
 17  7  1  0
 17 16  1  0
 18 20  1  0
 19 18  2  0
 20 21  1  0
 21 22  1  1
 22 23  1  0
 23 24  2  0
 23 27  1  0
 24 25  1  0
 25 26  1  0
 27 26  2  0
 28 29  1  0
 28 21  1  0
 30 28  2  0
M  END
$$$$
